drugbank_target|Q8GJ44 Endo-1,4-beta-xylanase A (DB02379; DB03389)
 OpenBabel12092120243D

  0  0  0     0  0            999 V3000
M  V30 BEGIN CTAB
M  V30 COUNTS 9698 9812 0 0 0
M  V30 BEGIN ATOM
M  V30 1 H -0.908 1.98254 -0.117106 0
M  V30 2 N 0 1.576 0 0
M  V30 3 C 0.933 2.03868 1.02534 0
M  V30 4 C 1.911 0.928543 1.3348 0
M  V30 5 O 3.095 1.19667 1.45644 0
M  V30 6 C 0.222 2.43627 2.35294 0
M  V30 7 C -0.732 3.65373 2.2001 0
M  V30 8 S 0.101 5.13292 1.52614 0
M  V30 9 C 1.257 5.56322 2.86805 0
M  V30 10 H 1.49 2.90518 0.631377 0
M  V30 11 H -0.977 1.52953 0.210867 0
M  V30 12 H 0.981 2.67203 3.11629 0
M  V30 13 H -0.358 1.57376 2.7183 0
M  V30 14 H -1.165 3.90944 3.18086 0
M  V30 15 H -1.563 3.418 1.51819 0
M  V30 16 H 0.729 5.58782 3.83104 0
M  V30 17 H 1.672 6.56266 2.65933 0
M  V30 18 H 2.08 4.83886 2.90714 0
M  V30 19 N 1.4781 -0.272755 1.55222 0
M  V30 20 C 2.4251 -1.33716 1.88119 0
M  V30 21 C 3.3951 -1.49066 0.73271 0
M  V30 22 O 4.5801 -1.63469 0.984002 0
M  V30 23 C 1.7201 -2.69238 2.15882 0
M  V30 24 C 0.8331 -2.62108 3.43399 0
M  V30 25 C -0.0319 -3.89811 3.60861 0
M  V30 26 C -0.9929 -3.77193 4.8207 0
M  V30 27 N -1.8559 -4.9673 4.96189 0
M  V30 28 H 2.9841 -1.04962 2.78903 0
M  V30 29 H 0.5211 -0.507088 1.38083 0
M  V30 30 H 2.4791 -3.48089 2.29978 0
M  V30 31 H 1.1091 -2.96194 1.28331 0
M  V30 32 H 0.1611 -1.74967 3.37773 0
M  V30 33 H 1.4731 -2.48685 4.32386 0
M  V30 34 H 0.6271 -4.77103 3.74777 0
M  V30 35 H -0.6339 -4.06102 2.7006 0
M  V30 36 H -1.6289 -2.88284 4.68159 0
M  V30 37 H -0.4039 -3.62421 5.74307 0
M  V30 38 H -2.4579 -5.13431 4.08319 0
M  V30 39 H -2.5409 -4.85839 5.79221 0
M  V30 40 H -1.2729 -5.85594 5.1449 0
M  V30 41 N 2.9562 -1.48159 -0.537278 0
M  V30 42 C 4.3722 -1.34118 -0.865129 0
M  V30 43 C 4.5722 -0.346678 -1.98495 0
M  V30 44 O 3.6282 0.234715 -2.51407 0
M  V30 45 C 4.9412 -2.73963 -1.23954 0
M  V30 46 C 6.4892 -2.82397 -1.34984 0
M  V30 47 C 6.9642 -4.22928 -1.75772 0
M  V30 48 N 8.4552 -4.25566 -1.82887 0
M  V30 49 C 9.1902 -5.31235 -2.15817 0
M  V30 50 N 8.6862 -6.47189 -2.47222 0
M  V30 51 N 10.4792 -5.18624 -2.16761 0
M  V30 52 H 2.6302 -2.1144 0.201715 0
M  V30 53 H 4.8932 -0.947598 0.0275949 0
M  V30 54 H 4.5992 -3.48264 -0.490381 0
M  V30 55 H 4.4732 -3.0702 -2.19132 0
M  V30 56 H 6.8602 -2.08356 -2.08978 0
M  V30 57 H 6.9412 -2.5297 -0.379448 0
M  V30 58 H 6.5852 -4.97482 -1.02341 0
M  V30 59 H 6.5152 -4.49794 -2.73848 0
M  V30 60 H 9.0062 -3.41924 -1.60924 0
M  V30 61 H 9.3192 -7.23564 -2.71433 0
M  V30 62 H 7.6642 -6.50476 -2.44757 0
M  V30 63 H 10.8552 -4.27056 -1.91679 0
M  V30 64 H 11.0282 -6.01078 -2.42093 0
M  V30 65 N 4.4343 0.785586 -1.36625 0
M  V30 66 C 5.3813 1.89838 -1.31264 0
M  V30 67 C 6.3513 1.65115 -0.180633 0
M  V30 68 O 7.5363 1.87222 -0.36777 0
M  V30 69 C 4.6763 3.26706 -1.11163 0
M  V30 70 C 3.7893 3.63476 -2.33472 0
M  V30 71 C 2.9243 4.89481 -2.06353 0
M  V30 72 C 1.9633 5.18941 -3.24602 0
M  V30 73 N 1.1003 6.36131 -2.97123 0
M  V30 74 H 5.9403 1.93756 -2.26413 0
M  V30 75 H 3.4773 0.947454 -1.12524 0
M  V30 76 H 5.4353 4.05639 -0.975337 0
M  V30 77 H 4.0653 3.222 -0.196674 0
M  V30 78 H 3.1173 2.79636 -2.57891 0
M  V30 79 H 4.4293 3.81193 -3.21704 0
M  V30 80 H 3.5833 5.76288 -1.89675 0
M  V30 81 H 2.3223 4.73841 -1.15437 0
M  V30 82 H 1.3273 4.30615 -3.41834 0
M  V30 83 H 2.5523 5.36498 -4.16349 0
M  V30 84 H 0.4983 6.21875 -2.08823 0
M  V30 85 H 0.4153 6.54198 -3.78894 0
M  V30 86 H 1.6833 7.2591 -2.84033 0
M  V30 87 N 5.9124 1.20967 1.01018 0
M  V30 88 C 7.1584 1.02526 1.74975 0
M  V30 89 C 7.4914 -0.4408 1.89131 0
M  V30 90 O 6.7664 -1.32718 1.42184 0
M  V30 91 C 7.0494 1.71699 3.1653 0
M  V30 92 C 6.9024 3.25791 3.10129 0
M  V30 93 C 8.2214 1.45531 4.15342 0
M  V30 94 H 5.3404 0.373863 0.635134 0
M  V30 95 H 7.9824 1.49071 1.17805 0
M  V30 96 H 6.1324 1.32128 3.65341 0
M  V30 97 H 7.8044 3.74697 2.69072 0
M  V30 98 H 6.0474 3.56363 2.47362 0
M  V30 99 H 6.7184 3.69353 4.10222 0
M  V30 100 H 9.1944 1.79872 3.75213 0
M  V30 101 H 8.0704 1.96453 5.1254 0
M  V30 102 H 8.3314 0.384237 4.40427 0
M  V30 103 N 7.3905 -1.2043 1.01659 0
M  V30 104 C 8.3375 -2.23215 0.586822 0
M  V30 105 C 9.3075 -1.61382 -0.393085 0
M  V30 106 O 10.4925 -1.88544 -0.292525 0
M  V30 107 C 7.6325 -3.45032 -0.0687464 0
M  V30 108 C 6.7455 -4.21296 0.955724 0
M  V30 109 C 5.8805 -5.30507 0.271208 0
M  V30 110 C 4.9195 -5.98515 1.28244 0
M  V30 111 N 4.0565 -6.99316 0.62459 0
M  V30 112 H 8.8965 -2.59336 1.46796 0
M  V30 113 H 6.4335 -1.27431 0.734836 0
M  V30 114 H 8.3915 -4.1459 -0.465965 0
M  V30 115 H 7.0215 -3.09604 -0.913529 0
M  V30 116 H 6.0735 -3.50803 1.4711 0
M  V30 117 H 7.3855 -4.6803 1.72479 0
M  V30 118 H 6.5395 -6.06428 -0.18151 0
M  V30 119 H 5.2785 -4.8481 -0.530163 0
M  V30 120 H 4.2835 -5.21355 1.74554 0
M  V30 121 H 5.5085 -6.46298 2.08509 0
M  V30 122 H 3.4545 -6.55812 -0.156914 0
M  V30 123 H 3.3715 -7.44178 1.33172 0
M  V30 124 H 4.6395 -7.79255 0.195462 0
M  V30 125 N 8.8686 -0.792821 -1.36206 0
M  V30 126 C 9.8156 -0.191653 -2.30003 0
M  V30 127 C 10.7856 0.666453 -1.52143 0
M  V30 128 O 11.9706 0.61442 -1.80636 0
M  V30 129 C 9.1106 0.664848 -3.38635 0
M  V30 130 C 8.2236 -0.212175 -4.31479 0
M  V30 131 C 7.3586 0.651022 -5.27196 0
M  V30 132 C 6.3976 -0.227247 -6.11678 0
M  V30 133 N 5.5346 0.595127 -6.99573 0
M  V30 134 H 10.3746 -0.996978 -2.80828 0
M  V30 135 H 7.9116 -0.503206 -1.38225 0
M  V30 136 H 9.8696 1.17645 -4.00269 0
M  V30 137 H 8.4996 1.43557 -2.89122 0
M  V30 138 H 7.5516 -0.841777 -3.70969 0
M  V30 139 H 8.8636 -0.888751 -4.90818 0
M  V30 140 H 8.0176 1.2283 -5.94136 0
M  V30 141 H 6.7566 1.36121 -4.68319 0
M  V30 142 H 5.7616 -0.816904 -5.43697 0
M  V30 143 H 6.9866 -0.93509 -6.72631 0
M  V30 144 H 4.9326 1.28955 -6.432 0
M  V30 145 H 4.8496 -0.0236952 -7.55996 0
M  V30 146 H 6.1176 1.15613 -7.70879 0
M  V30 147 N 10.3467 1.47872 -0.545128 0
M  V30 148 C 11.2797 2.2675 0.256885 0
M  V30 149 C 12.2577 1.33293 0.931228 0
M  V30 150 O 13.4417 1.62657 0.95262 0
M  V30 151 C 10.5687 3.09976 1.36501 0
M  V30 152 C 9.6147 4.1892 0.800496 0
M  V30 153 S 10.4477 5.34397 -0.343505 0
M  V30 154 C 11.6037 6.21186 0.766733 0
M  V30 155 H 11.8367 2.94425 -0.412479 0
M  V30 156 H 9.3697 1.50806 -0.331204 0
M  V30 157 H 11.3277 3.585 1.9997 0
M  V30 158 H 9.9887 2.41686 2.00616 0
M  V30 159 H 9.1817 4.76836 1.63227 0
M  V30 160 H 8.7837 3.73215 0.242217 0
M  V30 161 H 11.0757 6.56804 1.66178 0
M  V30 162 H 12.0187 7.07742 0.225204 0
M  V30 163 H 12.4267 5.54574 1.05396 0
M  V30 164 N 11.8248 0.280983 1.55075 0
M  V30 165 C 12.7878 -0.590896 2.21452 0
M  V30 166 C 13.7878 -1.07682 1.19421 0
M  V30 167 O 14.9778 -0.97605 1.44288 0
M  V30 168 C 12.1098 -1.81587 2.88511 0
M  V30 169 H 13.3028 -0.0112554 2.99898 0
M  V30 170 H 10.8558 0.0316438 1.56268 0
M  V30 171 H 11.5908 -2.43587 2.14093 0
M  V30 172 H 11.3758 -1.4753 3.63287 0
M  V30 173 H 12.8658 -2.43575 3.39206 0
M  V30 174 N 13.3029 -1.57598 0.00835791 0
M  V30 175 C 14.2659 -2.07884 -0.965242 0
M  V30 176 C 15.2659 -0.989825 -1.26725 0
M  V30 177 O 16.4559 -1.25218 -1.21104 0
M  V30 178 C 13.5879 -2.52731 -2.28779 0
M  V30 179 H 14.7809 -2.95178 -0.530112 0
M  V30 180 H 12.3339 -1.54458 -0.239283 0
M  V30 181 H 13.0689 -1.68705 -2.76964 0
M  V30 182 H 12.8539 -3.32272 -2.08177 0
M  V30 183 H 14.3439 -2.91933 -2.98605 0
M  V30 184 N 14.781 0.264519 -1.55364 0
M  V30 185 C 15.714 1.35297 -1.83766 0
M  V30 186 C 16.692 1.47171 -0.691336 0
M  V30 187 O 17.876 1.63663 -0.935238 0
M  V30 188 C 15.003 2.72847 -2.00679 0
M  V30 189 C 14.049 2.78214 -3.23263 0
M  V30 190 S 14.882 2.36601 -4.80396 0
M  V30 191 C 16.038 3.7611 -5.00292 0
M  V30 192 H 16.271 1.11003 -2.758 0
M  V30 193 H 13.804 0.464596 -1.47244 0
M  V30 194 H 15.762 3.52057 -2.11108 0
M  V30 195 H 14.423 2.94388 -1.09518 0
M  V30 196 H 13.616 3.7919 -3.3201 0
M  V30 197 H 13.218 2.07034 -3.11469 0
M  V30 198 H 15.51 4.71457 -4.86554 0
M  V30 199 H 16.453 3.7231 -6.02321 0
M  V30 200 H 16.861 3.67806 -4.28228 0
M  V30 201 N 16.2591 1.48442 0.529413 0
M  V30 202 C 17.2221 1.62524 1.61612 0
M  V30 203 C 18.2221 0.498509 1.52877 0
M  V30 204 O 19.4121 0.76431 1.56537 0
M  V30 205 C 16.5441 1.59597 3.01233 0
M  V30 206 H 17.7371 2.59423 1.50465 0
M  V30 207 H 15.2901 1.37047 0.751514 0
M  V30 208 H 16.0251 0.641781 3.17886 0
M  V30 209 H 15.8101 2.41397 3.08982 0
M  V30 210 H 17.3001 1.72646 3.80241 0
M  V30 211 N 17.7372 -0.778329 1.37039 0
M  V30 212 C 18.9652 -1.56734 1.35063 0
M  V30 213 C 19.3802 -1.88686 -0.0655597 0
M  V30 214 O 18.7372 -1.5096 -1.02554 0
M  V30 215 C 18.7882 -2.88163 2.18276 0
M  V30 216 O 18.5092 -2.57583 3.54376 0
M  V30 217 C 20.0102 -3.82422 2.24206 0
M  V30 218 H 17.2302 -0.485778 0.462883 0
M  V30 219 H 19.7742 -0.965185 1.8029 0
M  V30 220 H 17.9292 -3.44818 1.76576 0
M  V30 221 H 18.3432 -3.41699 3.97922 0
M  V30 222 H 19.8172 -4.71667 2.86765 0
M  V30 223 H 20.2942 -4.21078 1.24861 0
M  V30 224 H 20.9002 -3.31697 2.6619 0
M  V30 225 N 19.2153 -1.21501 -1.00376 0
M  V30 226 C 20.4403 -1.05977 -1.78279 0
M  V30 227 C 20.8653 0.385994 -1.84097 0
M  V30 228 O 20.2233 1.27849 -1.28547 0
M  V30 229 C 20.2713 -1.66302 -3.19963 0
M  V30 230 O 19.3753 -0.909333 -4.0225 0
M  V30 231 H 18.7163 -0.372906 -0.549397 0
M  V30 232 H 21.2463 -1.6107 -1.26165 0
M  V30 233 H 21.2563 -1.70574 -3.70632 0
M  V30 234 H 19.9313 -2.71515 -3.15043 0
M  V30 235 H 18.5083 -0.941795 -3.60811 0
M  V30 236 N 20.6934 1.19889 -1.02296 0
M  V30 237 C 21.9424 1.88743 -0.711257 0
M  V30 238 C 22.2554 1.80112 0.762817 0
M  V30 239 O 23.4614 2.44161 1.18733 0
M  V30 240 C 21.9174 3.38525 -1.22185 0
M  V30 241 C 21.5254 3.55727 -2.72328 0
M  V30 242 C 23.2694 4.12893 -0.985864 0
M  V30 243 C 21.1764 4.99369 -3.16835 0
M  V30 244 H 20.1064 0.706885 -0.262353 0
M  V30 245 H 22.7574 1.35586 -1.23648 0
M  V30 246 H 21.1394 3.91044 -0.624571 0
M  V30 247 H 22.3134 3.13564 -3.3766 0
M  V30 248 H 20.6284 2.94739 -2.9414 0
M  V30 249 H 23.2254 5.18813 -1.29374 0
M  V30 250 H 23.5684 4.16228 0.0775055 0
M  V30 251 H 24.1014 3.66494 -1.54684 0
M  V30 252 H 20.8404 5.01193 -4.22476 0
M  V30 253 H 20.3604 5.42317 -2.56228 0
M  V30 254 H 22.0394 5.67988 -3.09837 0
M  V30 255 N 22.1715 0.800033 1.35784 0
M  V30 256 C 23.4205 0.37387 1.98205 0
M  V30 257 C 23.7335 -1.06302 1.64193 0
M  V30 258 O 24.9395 -1.59198 2.19928 0
M  V30 259 C 23.3955 0.617532 3.54562 0
M  V30 260 C 23.0035 2.06654 3.9749 0
M  V30 261 C 24.7475 0.256401 4.23725 0
M  V30 262 C 22.6545 2.2563 5.46667 0
M  V30 263 H 21.5845 0.136055 0.741623 0
M  V30 264 H 24.2355 0.983166 1.54939 0
M  V30 265 H 22.6175 -0.0616248 3.95952 0
M  V30 266 H 23.7915 2.78296 3.67271 0
M  V30 267 H 22.1065 2.38691 3.41197 0
M  V30 268 H 24.7035 0.376318 5.33374 0
M  V30 269 H 25.0465 -0.796692 4.08606 0
M  V30 270 H 25.5795 0.889214 3.87734 0
M  V30 271 H 22.3185 3.2936 5.66747 0
M  V30 272 H 21.8385 1.58504 5.78478 0
M  V30 273 H 23.5175 2.06861 6.1304 0
M  V30 274 N 23.6496 -1.47581 0.552962 0
M  V30 275 C 24.5826 -2.26883 -0.244857 0
M  V30 276 C 25.5606 -1.33784 -0.924147 0
M  V30 277 O 26.7446 -1.6316 -0.943981 0
M  V30 278 C 23.8716 -3.10695 -1.34856 0
M  V30 279 C 22.9176 -4.19339 -0.778268 0
M  V30 280 S 23.7506 -5.34207 0.37184 0
M  V30 281 C 24.9066 -6.21584 -0.733779 0
M  V30 282 H 25.1396 -2.94202 0.428087 0
M  V30 283 H 22.6726 -1.50628 0.339197 0
M  V30 284 H 24.6306 -3.59555 -1.98066 0
M  V30 285 H 23.2916 -2.42746 -1.99332 0
M  V30 286 H 22.4846 -4.77695 -1.60696 0
M  V30 287 H 22.0866 -3.73338 -0.222422 0
M  V30 288 H 24.3786 -6.57676 -1.62692 0
M  V30 289 H 25.3216 -7.07851 -0.187668 0
M  V30 290 H 25.7296 -5.55125 -1.02454 0
M  V30 291 N 25.1277 -0.289203 -1.54924 0
M  V30 292 C 26.0907 0.579144 -2.21762 0
M  V30 293 C 27.0907 1.07047 -1.1999 0
M  V30 294 O 28.2807 0.968384 -1.44803 0
M  V30 295 C 25.4127 1.80055 -2.8947 0
M  V30 296 H 26.6057 -0.00464908 -2.999 0
M  V30 297 H 24.1587 -0.0399306 -1.56249 0
M  V30 298 H 24.8937 2.42449 -2.15381 0
M  V30 299 H 24.6787 1.45602 -3.64064 0
M  V30 300 H 26.1687 2.41773 -3.40493 0
M  V30 301 N 26.6058 1.57591 -0.0167156 0
M  V30 302 C 27.8548 1.90461 0.663877 0
M  V30 303 C 28.1678 0.893515 1.73999 0
M  V30 304 O 29.3738 1.11302 2.47637 0
M  V30 305 C 27.8298 3.38155 1.23204 0
M  V30 306 C 27.4378 4.47597 0.189866 0
M  V30 307 C 29.1818 3.80111 1.88986 0
M  V30 308 C 27.0888 5.86379 0.768964 0
M  V30 309 H 26.0188 0.710738 0.251729 0
M  V30 310 H 28.6698 1.83326 -0.0799926 0
M  V30 311 H 27.0518 3.40182 2.02712 0
M  V30 312 H 28.2258 4.57112 -0.581846 0
M  V30 313 H 26.5408 4.14766 -0.368475 0
M  V30 314 H 29.1378 4.81145 2.33247 0
M  V30 315 H 29.4808 3.14511 2.72743 0
M  V30 316 H 30.0138 3.80454 1.16187 0
M  V30 317 H 26.7528 6.55493 -0.0301957 0
M  V30 318 H 26.2728 5.80496 1.50945 0
M  V30 319 H 27.9518 6.34563 1.26251 0
M  V30 320 N 28.0839 -0.256276 1.55502 0
M  V30 321 C 29.0169 -1.34321 1.84481 0
M  V30 322 C 29.9949 -1.46802 0.699131 0
M  V30 323 O 31.1789 -1.63165 0.943904 0
M  V30 324 C 28.3059 -2.71779 2.02123 0
M  V30 325 C 27.3519 -2.76496 3.24734 0
M  V30 326 S 28.1849 -2.3405 4.81644 0
M  V30 327 C 29.3409 -3.73452 5.02279 0
M  V30 328 H 29.5739 -1.09539 2.76385 0
M  V30 329 H 27.1069 -0.45678 1.47489 0
M  V30 330 H 29.0649 -3.50932 2.12972 0
M  V30 331 H 27.7259 -2.93803 1.11078 0
M  V30 332 H 26.9189 -3.77424 3.34016 0
M  V30 333 H 26.5209 -2.05379 3.12563 0
M  V30 334 H 28.8129 -4.6887 4.89047 0
M  V30 335 H 29.7559 -3.6911 6.04287 0
M  V30 336 H 30.1639 -3.6553 4.30172 0
M  V30 337 N 29.562 -1.4872 -0.521534 0
M  V30 338 C 30.811 -1.56419 -1.27341 0
M  V30 339 C 31.124 -0.246805 -1.94037 0
M  V30 340 O 32.33 -0.202122 -2.70747 0
M  V30 341 C 30.786 -2.75896 -2.31105 0
M  V30 342 C 30.394 -4.14311 -1.70441 0
M  V30 343 C 32.138 -2.92913 -3.07249 0
M  V30 344 C 30.045 -5.25038 -2.72194 0
M  V30 345 H 28.975 -0.582344 -0.478949 0
M  V30 346 H 31.626 -1.75071 -0.549779 0
M  V30 347 H 30.008 -2.50697 -3.06541 0
M  V30 348 H 31.182 -4.49564 -1.01136 0
M  V30 349 H 29.497 -4.02482 -1.06759 0
M  V30 350 H 32.094 -3.72805 -3.83302 0
M  V30 351 H 32.437 -2.02689 -3.63625 0
M  V30 352 H 32.97 -3.18054 -2.38928 0
M  V30 353 H 29.709 -6.17255 -2.20627 0
M  V30 354 H 29.229 -4.94263 -3.39801 0
M  V30 355 H 30.908 -5.53508 -3.35019 0
M  V30 356 N 31.0401 0.771051 -1.3745 0
M  V30 357 C 32.2891 1.52491 -1.3202 0
M  V30 358 C 32.6021 1.9538 0.0927347 0
M  V30 359 O 33.8081 2.70159 0.269503 0
M  V30 360 C 32.2641 2.75366 -2.31736 0
M  V30 361 C 31.8721 2.39573 -3.78562 0
M  V30 362 C 33.6161 3.53307 -2.35318 0
M  V30 363 C 31.5231 3.58954 -4.70007 0
M  V30 364 H 30.4531 0.572506 -0.490666 0
M  V30 365 H 33.1041 0.844474 -1.62914 0
M  V30 366 H 31.4861 3.45303 -1.93861 0
M  V30 367 H 32.6601 1.77415 -4.25277 0
M  V30 368 H 30.9751 1.74805 -3.77932 0
M  V30 369 H 33.5721 4.42039 -3.00842 0
M  V30 370 H 33.9151 3.93217 -1.36698 0
M  V30 371 H 34.4481 2.90367 -2.71904 0
M  V30 372 H 31.1871 3.24125 -5.69757 0
M  V30 373 H 30.7071 4.20214 -4.27996 0
M  V30 374 H 32.3861 4.25758 -4.87175 0
M  V30 375 N 32.5182 1.22032 0.997298 0
M  V30 376 C 33.4482 1.01065 2.10495 0
M  V30 377 C 34.4292 -0.0669542 1.69968 0
M  V30 378 O 35.6142 0.0943987 1.9397 0
M  V30 379 C 32.7442 0.582874 3.42374 0
M  V30 380 C 31.6982 1.60592 3.96729 0
M  V30 381 C 31.0242 1.03412 5.24605 0
M  V30 382 C 32.3242 2.99478 4.27914 0
M  V30 383 H 34.0182 1.93708 2.28292 0
M  V30 384 H 31.5642 0.932761 1.09707 0
M  V30 385 H 33.5172 0.423332 4.19268 0
M  V30 386 H 32.2412 -0.379213 3.24391 0
M  V30 387 H 30.9002 1.75316 3.21963 0
M  V30 388 H 30.5482 0.063518 5.0296 0
M  V30 389 H 30.2482 1.71754 5.61938 0
M  V30 390 H 31.7722 0.886066 6.04137 0
M  V30 391 H 33.1862 2.88153 4.95622 0
M  V30 392 H 31.5832 3.64903 4.76409 0
M  V30 393 H 32.6532 3.49742 3.3587 0
M  V30 394 N 33.9963 -1.19345 1.0293 0
M  V30 395 C 34.9463 -2.20472 0.58104 0
M  V30 396 C 35.9303 -1.56578 -0.370442 0
M  V30 397 O 37.1223 -1.75963 -0.191344 0
M  V30 398 C 34.2513 -3.43236 -0.066306 0
M  V30 399 C 33.3373 -4.14274 0.907642 0
M  V30 400 N 33.7283 -4.61492 2.07023 0
M  V30 401 C 32.0263 -4.39966 0.731177 0
M  V30 402 C 32.7273 -5.1605 2.68454 0
M  V30 403 N 31.7033 -5.06875 1.96414 0
M  V30 404 H 35.5053 -2.54659 1.46717 0
M  V30 405 H 33.0193 -1.35423 0.896345 0
M  V30 406 H 35.0163 -4.14927 -0.405068 0
M  V30 407 H 33.6763 -3.10549 -0.948118 0
M  V30 408 H 34.6873 -4.56304 2.44963 0
M  V30 409 H 31.3643 -4.17377 -0.101507 0
M  V30 410 H 32.7543 -5.6287 3.66915 0
M  V30 411 N 35.4744 -0.807222 -1.35358 0
M  V30 412 C 36.6994 -0.399309 -2.0352 0
M  V30 413 C 37.1244 0.981986 -1.60433 0
M  V30 414 O 36.4824 1.63601 -0.781299 0
M  V30 415 C 36.5304 -0.491552 -3.57234 0
M  V30 416 O 35.6344 0.494754 -4.09421 0
M  V30 417 H 34.9754 -0.166682 -0.642739 0
M  V30 418 H 37.5054 -1.09328 -1.72941 0
M  V30 419 H 37.5154 -0.361588 -4.06395 0
M  V30 420 H 36.1904 -1.49907 -3.87944 0
M  V30 421 H 34.7674 0.324977 -3.71481 0
M  V30 422 N 36.9525 1.47285 -0.560781 0
M  V30 423 C 38.2015 2.01668 -0.035895 0
M  V30 424 C 38.5145 1.44021 1.32353 0
M  V30 425 O 39.7205 1.90088 1.93853 0
M  V30 426 C 38.1765 3.59897 -0.0136659 0
M  V30 427 C 37.7845 4.26536 -1.37006 0
M  V30 428 C 39.5285 4.22017 0.458425 0
M  V30 429 C 37.4355 5.76782 -1.30675 0
M  V30 430 H 36.3655 0.753938 -0.00964879 0
M  V30 431 H 39.0165 1.69243 -0.709166 0
M  V30 432 H 37.3985 3.89301 0.725325 0
M  V30 433 H 38.5725 4.0877 -2.12705 0
M  V30 434 H 36.8875 3.76419 -1.78038 0
M  V30 435 H 39.4845 5.32124 0.524247 0
M  V30 436 H 39.8275 3.89437 1.4712 0
M  V30 437 H 40.3605 3.97159 -0.225818 0
M  V30 438 H 37.0995 6.13988 -2.29564 0
M  V30 439 H 36.6195 5.96875 -0.591622 0
M  V30 440 H 38.2985 6.39063 -1.01033 0
M  V30 441 N 38.4306 0.297415 1.54768 0
M  V30 442 C 39.8416 -0.195947 1.85669 0
M  V30 443 C 40.1926 -1.53707 1.21937 0
M  V30 444 O 39.3176 -2.10164 0.515754 0
M  V30 445 C 39.9126 -0.362318 3.36857 0
M  V30 446 C 38.4716 -0.799901 3.67802 0
M  V30 447 C 37.6186 0.0938578 2.77141 0
M  V30 448 H 40.5696 0.518538 1.4999 0
M  V30 449 H 40.5906 -1.19745 3.61167 0
M  V30 450 H 40.1026 0.613921 3.83214 0
M  V30 451 H 38.2036 -1.78682 3.26961 0
M  V30 452 H 38.3166 -0.621773 4.75048 0
M  V30 453 H 36.6806 -0.426254 2.51108 0
M  V30 454 H 37.4636 1.06639 3.26318 0
M  V30 455 N 39.9087 -1.5758 0.0250728 0
M  V30 456 C 41.1547 -1.91917 -0.655413 0
M  V30 457 C 41.4877 -0.901433 -1.72011 0
M  V30 458 O 40.7627 0.0764069 -1.9435 0
M  V30 459 C 41.0457 -3.36751 -1.27558 0
M  V30 460 C 40.8987 -4.49258 -0.220719 0
M  V30 461 C 42.2177 -3.81469 -2.19475 0
M  V30 462 H 39.3367 -0.697925 -0.23679 0
M  V30 463 H 41.9787 -1.89825 0.0815036 0
M  V30 464 H 40.1287 -3.38664 -1.90365 0
M  V30 465 H 41.8007 -4.59478 0.409601 0
M  V30 466 H 40.0437 -4.31415 0.454264 0
M  V30 467 H 40.7147 -5.47618 -0.694175 0
M  V30 468 H 43.1907 -3.81266 -1.66659 0
M  V30 469 H 42.0667 -4.83512 -2.59822 0
M  V30 470 H 42.3277 -3.16744 -3.08424 0
M  V30 471 N 41.3868 0.248026 -1.55636 0
M  V30 472 C 42.3168 1.31079 -1.93237 0
M  V30 473 C 43.2978 1.50264 -0.797174 0
M  V30 474 O 44.4828 1.62891 -1.05737 0
M  V30 475 C 41.6128 2.66575 -2.22609 0
M  V30 476 C 40.5668 2.62087 -3.3837 0
M  V30 477 C 39.8928 4.01369 -3.53281 0
M  V30 478 C 41.1928 2.19171 -4.7409 0
M  V30 479 H 42.8868 0.998556 -2.82257 0
M  V30 480 H 40.4328 0.47891 -1.35803 0
M  V30 481 H 42.3858 3.41057 -2.47503 0
M  V30 482 H 41.1098 2.99432 -1.30414 0
M  V30 483 H 39.7688 1.90063 -3.13483 0
M  V30 484 H 39.4168 4.31489 -2.58508 0
M  V30 485 H 39.1168 3.99254 -4.31127 0
M  V30 486 H 40.6408 4.77552 -3.80495 0
M  V30 487 H 42.0548 2.83384 -4.98363 0
M  V30 488 H 40.4518 2.2817 -5.5503 0
M  V30 489 H 41.5218 1.14336 -4.71227 0
M  V30 490 N 42.8649 1.48995 0.513639 0
M  V30 491 C 43.8279 1.64229 1.59879 0
M  V30 492 C 44.8279 0.514696 1.5234 0
M  V30 493 O 46.0179 0.78087 1.55718 0
M  V30 494 C 43.1499 1.62783 2.99524 0
M  V30 495 H 44.3429 2.61004 1.47705 0
M  V30 496 H 41.8959 1.37837 0.736936 0
M  V30 497 H 42.6309 0.675461 3.17188 0
M  V30 498 H 42.4159 2.4466 3.06404 0
M  V30 499 H 43.9059 1.76669 3.78388 0
M  V30 500 N 44.343 -0.763751 1.37857 0
M  V30 501 C 45.591 -1.51957 1.33243 0
M  V30 502 C 45.912 -1.94835 -0.0801709 0
M  V30 503 O 45.182 -1.66894 -1.02582 0
M  V30 504 H 43.762 -0.563626 0.49024 0
M  V30 505 H 46.424 -0.908504 1.7243 0
M  V30 506 H 45.52 -2.41523 1.97669 0
M  V30 507 N 45.8211 -1.22559 -0.990812 0
M  V30 508 C 47.2371 -0.985996 -1.255 0
M  V30 509 C 47.4371 0.319173 -1.98956 0
M  V30 510 O 46.4931 1.04127 -2.3003 0
M  V30 511 C 47.8061 -2.18607 -2.06474 0
M  V30 512 C 49.3541 -2.22985 -2.19651 0
M  V30 513 C 49.8291 -3.4255 -3.04012 0
M  V30 514 N 51.3201 -3.42725 -3.11599 0
M  V30 515 C 52.0551 -4.31892 -3.7717 0
M  V30 516 N 51.5511 -5.31279 -4.44651 0
M  V30 517 N 53.3441 -4.19662 -3.73952 0
M  V30 518 H 45.4951 -2.06469 -0.49841 0
M  V30 519 H 47.7581 -0.904853 -0.282747 0
M  V30 520 H 47.4641 -3.13267 -1.59865 0
M  V30 521 H 47.3381 -2.18838 -3.07229 0
M  V30 522 H 49.7251 -1.28871 -2.65474 0
M  V30 523 H 49.8061 -2.26791 -1.18319 0
M  V30 524 H 49.4501 -4.36965 -2.58889 0
M  V30 525 H 49.3801 -3.35984 -4.0549 0
M  V30 526 H 51.8711 -2.70807 -2.63575 0
M  V30 527 H 52.1841 -5.95593 -4.92431 0
M  V30 528 H 50.5291 -5.3519 -4.43392 0
M  V30 529 H 53.7201 -3.41268 -3.20396 0
M  V30 530 H 53.8931 -4.89358 -4.24774 0
M  V30 531 N 47.2992 1.18797 -1.03562 0
M  V30 532 C 48.5482 1.87978 -0.731235 0
M  V30 533 C 48.8612 1.80911 0.743671 0
M  V30 534 O 50.0672 2.45407 1.16137 0
M  V30 535 C 48.5232 3.3721 -1.25768 0
M  V30 536 C 48.1312 3.52818 -2.76085 0
M  V30 537 C 49.8752 4.11825 -1.0296 0
M  V30 538 C 47.7822 4.9598 -3.22114 0
M  V30 539 H 46.7122 0.704063 -0.269835 0
M  V30 540 H 49.3632 1.34266 -1.25079 0
M  V30 541 H 47.7452 3.90359 -0.666011 0
M  V30 542 H 48.9192 3.09965 -3.40966 0
M  V30 543 H 47.2342 2.91602 -2.97249 0
M  V30 544 H 49.8312 5.17411 -1.34869 0
M  V30 545 H 50.1742 4.16287 0.0333546 0
M  V30 546 H 50.7072 3.64833 -1.58562 0
M  V30 547 H 47.4462 4.96684 -4.27768 0
M  V30 548 H 46.9662 5.39569 -2.61965 0
M  V30 549 H 48.6452 5.6467 -3.15844 0
M  V30 550 N 48.7773 0.814389 1.34928 0
M  V30 551 C 50.0263 0.394871 1.97797 0
M  V30 552 C 50.3393 -1.04555 1.65311 0
M  V30 553 O 51.5453 -1.56856 2.21604 0
M  V30 554 C 50.0013 0.655103 3.53888 0
M  V30 555 C 49.6093 2.10858 3.95276 0
M  V30 556 C 51.3533 0.301329 4.23429 0
M  V30 557 C 49.2603 2.31415 5.44244 0
M  V30 558 H 48.1903 0.143913 0.740139 0
M  V30 559 H 50.8413 0.999544 1.53888 0
M  V30 560 H 49.2233 -0.0196253 3.95995 0
M  V30 561 H 50.3973 2.82176 3.64298 0
M  V30 562 H 48.7123 2.42297 3.38646 0
M  V30 563 H 51.3093 0.432869 5.32945 0
M  V30 564 H 51.6523 -0.75331 4.09428 0
M  V30 565 H 52.1853 0.930288 3.86769 0
M  V30 566 H 48.9243 3.35353 5.63222 0
M  V30 567 H 48.4443 1.6463 5.76764 0
M  V30 568 H 50.1233 2.13352 6.10811 0
M  V30 569 N 50.2554 -1.46986 0.568584 0
M  V30 570 C 51.4854 -2.0653 0.0539173 0
M  V30 571 C 51.8934 -1.42004 -1.25026 0
M  V30 572 O 51.2364 -0.514541 -1.76347 0
M  V30 573 C 51.2984 -3.58938 -0.200854 0
M  V30 574 C 50.9624 -4.45572 1.01559 0
M  V30 575 C 51.9594 -4.82986 1.92407 0
M  V30 576 C 49.6444 -4.8692 1.23346 0
M  V30 577 C 51.6384 -5.60559 3.03402 0
M  V30 578 C 49.3254 -5.64255 2.34649 0
M  V30 579 C 50.3234 -6.00986 3.24507 0
M  V30 580 O 50.0114 -6.76761 4.33878 0
M  V30 581 H 49.7434 -0.674292 0.0480234 0
M  V30 582 H 52.2974 -1.89812 0.784896 0
M  V30 583 H 50.5274 -3.73911 -0.986279 0
M  V30 584 H 52.2164 -4.0046 -0.662294 0
M  V30 585 H 52.9824 -4.51633 1.76785 0
M  V30 586 H 48.8614 -4.57789 0.543178 0
M  V30 587 H 52.4054 -5.89147 3.73565 0
M  V30 588 H 48.3024 -5.95021 2.5024 0
M  V30 589 H 49.0704 -6.95168 4.32068 0
M  V30 590 N 51.7335 -0.305618 -1.54608 0
M  V30 591 C 53.0105 0.355652 -1.92339 0
M  V30 592 C 53.3905 1.71324 -1.23335 0
M  V30 593 O 52.7385 2.25473 -0.370702 0
M  V30 594 C 52.9485 0.46572 -3.45879 0
M  V30 595 C 54.2965 0.734426 -4.182 0
M  V30 596 O 55.3205 0.54935 -3.51938 0
M  V30 597 O 54.1795 1.09024 -5.35515 0
M  V30 598 H 51.2735 0.199666 -0.802535 0
M  V30 599 H 53.8195 -0.354017 -1.65966 0
M  V30 600 H 52.5915 -0.488461 -3.88239 0
M  V30 601 H 52.2145 1.22367 -3.78301 0
M  V30 602 N 53.2116 1.57565 -0.0334293 0
M  V30 603 C 54.1596 2.1164 0.96496 0
M  V30 604 C 55.1536 1.04398 1.33407 0
M  V30 605 O 56.3596 1.22828 1.3158 0
M  V30 606 H 52.7346 0.676222 0.32898 0
M  V30 607 H 54.7056 2.94455 0.483614 0
M  V30 608 C 53.4546 2.66207 2.23672 0
M  V30 609 H 52.7776 3.48378 1.96145 0
M  V30 610 H 54.2176 3.07685 2.9173 0
M  V30 611 C 52.6766 1.59151 2.96939 0
M  V30 612 O 53.2066 0.993858 3.89211 0
M  V30 613 N 51.4126 1.31093 2.59351 0
M  V30 614 H 50.9596 1.7988 1.84393 0
M  V30 615 H 50.9176 0.596889 3.08682 0
M  V30 616 N 54.6897 -0.239769 1.55765 0
M  V30 617 C 55.5997 -1.31831 1.94056 0
M  V30 618 C 56.6157 -1.52275 0.841925 0
M  V30 619 O 57.7917 -1.65759 1.14394 0
M  V30 620 C 54.8567 -2.65156 2.23368 0
M  V30 621 C 53.9177 -2.53173 3.46701 0
M  V30 622 C 53.1507 -3.8014 3.74606 0
M  V30 623 O 53.3737 -4.82343 3.04469 0
M  V30 624 O 52.3077 -3.78344 4.68123 0
M  V30 625 H 56.1337 -1.02347 2.85935 0
M  V30 626 H 53.7187 -0.441123 1.42739 0
M  V30 627 H 55.6007 -3.43929 2.43497 0
M  V30 628 H 54.2757 -2.94358 1.34666 0
M  V30 629 H 53.1827 -1.72662 3.31871 0
M  V30 630 H 54.5157 -2.28915 4.35728 0
M  V30 631 N 56.1678 -1.49265 -0.50573 0
M  V30 632 C 57.3958 -1.62215 -1.28429 0
M  V30 633 C 57.8108 -0.291697 -1.86533 0
M  V30 634 O 57.1678 0.722233 -1.67601 0
M  V30 635 C 57.2188 -2.68735 -2.41793 0
M  V30 636 O 56.9398 -3.96619 -1.86078 0
M  V30 637 C 58.4408 -2.92346 -3.3324 0
M  V30 638 H 55.6608 -0.546239 -0.389697 0
M  V30 639 H 58.2048 -1.95265 -0.607609 0
M  V30 640 H 56.3598 -2.38476 -3.053 0
M  V30 641 H 56.7738 -4.55256 -2.60465 0
M  V30 642 H 58.2478 -3.70623 -4.09075 0
M  V30 643 H 58.7248 -2.02081 -3.89948 0
M  V30 644 H 59.3308 -3.24003 -2.75503 0
M  V30 645 N 57.6459 0.756429 -1.3826 0
M  V30 646 C 58.8939 1.51248 -1.34047 0
M  V30 647 C 59.2149 1.94875 0.0698372 0
M  V30 648 O 58.4849 1.67436 1.01696 0
M  V30 649 H 57.0649 0.561018 -0.493222 0
M  V30 650 H 59.7269 0.899347 -1.7291 0
M  V30 651 H 58.8229 2.40472 -1.98947 0
M  V30 652 N 59.124 1.23083 0.984299 0
M  V30 653 C 60.352 1.08714 1.76037 0
M  V30 654 C 60.767 -0.361691 1.85303 0
M  V30 655 O 60.124 -1.25034 1.32939 0
M  V30 656 C 60.175 1.70206 3.18923 0
M  V30 657 O 59.896 3.09423 3.10144 0
M  V30 658 C 61.397 1.61227 4.12941 0
M  V30 659 H 58.617 0.380664 0.552572 0
M  V30 660 H 61.161 1.62853 1.23689 0
M  V30 661 H 59.316 1.20109 3.6831 0
M  V30 662 H 59.73 3.39188 4.00065 0
M  V30 663 H 61.204 2.08962 5.10919 0
M  V30 664 H 61.681 0.570375 4.35481 0
M  V30 665 H 62.287 2.10671 3.69456 0
M  V30 666 N 60.6021 -1.18246 1.0419 0
M  V30 667 C 61.5521 -2.19843 0.604392 0
M  V30 668 C 62.5361 -1.56962 -0.353814 0
M  V30 669 O 63.7281 -1.76156 -0.17267 0
M  V30 670 C 60.8571 -3.43287 -0.0298975 0
M  V30 671 C 59.9431 -4.13288 0.951531 0
M  V30 672 N 60.3341 -4.59271 2.11906 0
M  V30 673 C 58.6321 -4.39165 0.7778 0
M  V30 674 C 59.3331 -5.13173 2.73912 0
M  V30 675 N 58.3091 -5.04763 2.01779 0
M  V30 676 H 62.1111 -2.53089 1.4941 0
M  V30 677 H 59.6251 -1.34465 0.910658 0
M  V30 678 H 61.6221 -4.15334 -0.361037 0
M  V30 679 H 60.2821 -3.11537 -0.915127 0
M  V30 680 H 61.2931 -4.5368 2.49789 0
M  V30 681 H 57.9701 -4.17461 -0.0572331 0
M  V30 682 H 59.3601 -5.58947 3.72864 0
M  V30 683 N 62.0802 -0.821533 -1.34494 0
M  V30 684 C 63.3282 -0.408139 -1.97936 0
M  V30 685 C 63.6492 1.03193 -1.65457 0
M  V30 686 O 62.9192 1.71622 -0.944595 0
M  V30 687 H 61.4992 -0.147928 -0.732206 0
M  V30 688 H 64.1612 -1.05067 -1.64155 0
M  V30 689 H 63.2572 -0.52601 -3.07635 0
M  V30 690 N 63.5583 1.46682 -0.576371 0
M  V30 691 C 64.8063 2.02013 -0.0594163 0
M  V30 692 C 65.1273 1.45101 1.30271 0
M  V30 693 O 64.3973 0.633317 1.8538 0
M  V30 694 H 62.9773 0.746759 -0.0189745 0
M  V30 695 H 65.6393 1.79862 -0.750717 0
M  V30 696 H 64.7353 3.12097 0.014345 0
M  V30 697 N 65.0364 0.313813 1.54444 0
M  V30 698 C 66.2664 -0.293491 2.04505 0
M  V30 699 C 66.6744 -1.47086 1.19005 0
M  V30 700 O 66.0174 -1.82481 0.211257 0
M  V30 701 C 66.0794 -0.800455 3.50475 0
M  V30 702 C 65.7434 0.253322 4.56297 0
M  V30 703 C 66.7404 1.08612 5.08428 0
M  V30 704 C 64.4254 0.398708 5.00715 0
M  V30 705 C 66.4194 2.05013 6.0353 0
M  V30 706 C 64.1064 1.36614 5.95634 0
M  V30 707 C 65.1044 2.19033 6.46926 0
M  V30 708 O 64.7924 3.14134 7.39983 0
M  V30 709 H 64.5244 -0.0658325 0.672787 0
M  V30 710 H 67.0784 0.455177 2.00293 0
M  V30 711 H 65.3084 -1.59987 3.52053 0
M  V30 712 H 66.9974 -1.32504 3.83663 0
M  V30 713 H 67.7634 0.984736 4.74898 0
M  V30 714 H 63.6424 -0.23289 4.60411 0
M  V30 715 H 67.1864 2.69382 6.4349 0
M  V30 716 H 63.0834 1.4682 6.28581 0
M  V30 717 H 63.8514 3.0926 7.57826 0
M  V30 718 N 66.5145 -1.57545 0.0417849 0
M  V30 719 C 67.7915 -1.83642 -0.673433 0
M  V30 720 C 68.1715 -0.928298 -1.89594 0
M  V30 721 O 67.5195 0.0129955 -2.28496 0
M  V30 722 C 67.7295 -3.33155 -1.03964 0
M  V30 723 C 69.0775 -3.99941 -1.42592 0
M  V30 724 O 70.1015 -3.37725 -1.13226 0
M  V30 725 O 68.9605 -5.09619 -1.9736 0
M  V30 726 H 66.0545 -0.757638 -0.331533 0
M  V30 727 H 68.6005 -1.69554 0.070433 0
M  V30 728 H 67.3725 -3.9093 -0.170098 0
M  V30 729 H 66.9955 -3.52396 -1.84126 0
M  V30 730 N 67.9926 0.231505 -1.5589 0
M  V30 731 C 69.2226 0.973092 -1.82248 0
M  V30 732 C 69.6306 1.78845 -0.617328 0
M  V30 733 O 68.9736 1.78752 0.423499 0
M  V30 734 C 69.0356 1.94732 -3.02192 0
M  V30 735 C 68.6996 1.31743 -4.37599 0
M  V30 736 C 69.6966 0.712238 -5.14998 0
M  V30 737 C 67.3816 1.33218 -4.84312 0
M  V30 738 C 69.3756 0.130195 -6.37267 0
M  V30 739 C 67.0626 0.746286 -6.06526 0
M  V30 740 C 68.0606 0.146337 -6.82843 0
M  V30 741 O 67.7486 -0.430465 -8.02747 0
M  V30 742 H 67.4806 0.29125 -0.61004 0
M  V30 743 H 70.0346 0.254915 -2.03812 0
M  V30 744 H 68.2646 2.70422 -2.76422 0
M  V30 745 H 69.9536 2.55362 -3.15508 0
M  V30 746 H 70.7196 0.69324 -4.8002 0
M  V30 747 H 66.5986 1.78854 -4.24891 0
M  V30 748 H 70.1426 -0.33871 -6.96777 0
M  V30 749 H 66.0396 0.762663 -6.40979 0
M  V30 750 H 66.8076 -0.323818 -8.17859 0
M  V30 751 N 69.4707 1.49531 0.497807 0
M  V30 752 C 70.3807 1.69176 1.62532 0
M  V30 753 C 71.3967 0.5744 1.64246 0
M  V30 754 O 72.5727 0.849497 1.82608 0
M  V30 755 C 69.6377 1.75695 2.98885 0
M  V30 756 C 68.6987 2.9929 3.07773 0
M  V30 757 C 67.9317 3.05488 4.37622 0
M  V30 758 O 68.1547 2.19192 5.26603 0
M  V30 759 O 67.0887 3.9798 4.51548 0
M  V30 760 H 70.9147 2.647 1.48887 0
M  V30 761 H 68.4997 1.3331 0.674441 0
M  V30 762 H 70.3817 1.82317 3.79919 0
M  V30 763 H 69.0567 0.8335 3.12785 0
M  V30 764 H 67.9637 2.98183 2.25915 0
M  V30 765 H 69.2967 3.91125 2.98801 0
M  V30 766 N 70.9488 -0.749086 1.3866 0
M  V30 767 C 71.8788 -1.8764 1.38973 0
M  V30 768 C 72.8598 -1.68178 0.255004 0
M  V30 769 O 74.0448 -1.88704 0.458754 0
M  V30 770 C 71.1748 -3.25222 1.21851 0
M  V30 771 C 70.1288 -3.59295 2.32575 0
M  V30 772 C 69.4548 -4.95663 2.00555 0
M  V30 773 C 70.7548 -3.63709 3.7485 0
M  V30 774 H 72.4488 -1.87635 2.3331 0
M  V30 775 H 69.9948 -0.901329 1.12303 0
M  V30 776 H 71.9478 -4.03746 1.20695 0
M  V30 777 H 70.6718 -3.25719 0.239775 0
M  V30 778 H 69.3308 -2.83093 2.32925 0
M  V30 779 H 68.9788 -4.92724 1.01154 0
M  V30 780 H 68.6788 -5.19429 2.74714 0
M  V30 781 H 70.2028 -5.7656 2.01024 0
M  V30 782 H 71.6168 -4.32338 3.76506 0
M  V30 783 H 70.0138 -3.98986 4.48252 0
M  V30 784 H 71.0838 -2.63834 4.06841 0
M  V30 785 N 72.4269 -1.23603 -0.977757 0
M  V30 786 C 73.6729 -1.08136 -1.72274 0
M  V30 787 C 74.0279 0.377453 -1.88661 0
M  V30 788 O 73.3209 1.27552 -1.42972 0
M  V30 789 C 73.5149 -1.7433 -3.11999 0
M  V30 790 C 73.3439 -3.26498 -3.0924 0
M  V30 791 C 72.1139 -3.9567 -3.14282 0
M  V30 792 C 74.3119 -4.2323 -2.92201 0
M  V30 793 N 72.2939 -5.34799 -3.01436 0
M  V30 794 C 73.6649 -5.49289 -2.87544 0
M  V30 795 C 75.7199 -4.13931 -2.76705 0
M  V30 796 C 74.4229 -6.67116 -2.68978 0
M  V30 797 C 76.4489 -5.31424 -2.59504 0
M  V30 798 C 75.8109 -6.5641 -2.55548 0
M  V30 799 H 71.9099 -0.450247 -0.639376 0
M  V30 800 H 74.4939 -1.5637 -1.16002 0
M  V30 801 H 72.6649 -1.28624 -3.66484 0
M  V30 802 H 74.3969 -1.51815 -3.75146 0
M  V30 803 H 71.1519 -3.46767 -3.22567 0
M  V30 804 H 71.5759 -6.07748 -2.98281 0
M  V30 805 H 76.2179 -3.1807 -2.78552 0
M  V30 806 H 73.9359 -7.63109 -2.65876 0
M  V30 807 H 77.5219 -5.26072 -2.48474 0
M  V30 808 H 76.4019 -7.45795 -2.42405 0
M  V30 809 N 73.905 1.17692 -1.04816 0
M  V30 810 C 74.852 2.21581 -0.645797 0
M  V30 811 C 75.822 1.62367 0.350159 0
M  V30 812 O 77.007 1.89254 0.242433 0
M  V30 813 C 74.147 3.45092 -0.0227568 0
M  V30 814 C 73.26 4.18613 -1.06709 0
M  V30 815 C 72.395 5.29602 -0.411767 0
M  V30 816 C 71.434 5.94904 -1.44067 0
M  V30 817 N 70.571 6.97414 -0.809781 0
M  V30 818 H 75.411 2.55353 -1.5362 0
M  V30 819 H 72.948 1.25438 -0.768364 0
M  V30 820 H 74.906 4.15679 0.35588 0
M  V30 821 H 73.536 3.11917 0.831122 0
M  V30 822 H 72.588 3.46779 -1.5636 0
M  V30 823 H 73.9 4.63293 -1.84827 0
M  V30 824 H 73.054 6.06696 0.0206623 0
M  V30 825 H 71.793 4.86045 0.401438 0
M  V30 826 H 70.798 5.16544 -1.88316 0
M  V30 827 H 72.023 6.40542 -2.25571 0
M  V30 828 H 69.969 6.55998 -0.0170186 0
M  V30 829 H 69.886 7.40386 -1.52856 0
M  V30 830 H 71.154 7.78463 -0.401999 0
M  V30 831 N 75.3831 0.828654 1.34056 0
M  V30 832 C 76.6601 0.341809 1.9259 0
M  V30 833 C 77.0401 -1.17158 1.75605 0
M  V30 834 O 76.3881 -1.98132 1.13824 0
M  V30 835 C 76.5981 0.777453 3.4023 0
M  V30 836 C 77.9461 0.779579 4.17382 0
M  V30 837 O 78.9701 0.7204 3.48839 0
M  V30 838 O 77.8291 0.857996 5.39723 0
M  V30 839 H 74.9231 0.0946085 0.821571 0
M  V30 840 H 77.4691 0.913827 1.42994 0
M  V30 841 H 76.2411 1.8196 3.46419 0
M  V30 842 H 75.8641 0.181444 3.97186 0
M  V30 843 N 76.8612 -1.46375 0.584142 0
M  V30 844 C 78.0912 -2.06461 0.0758195 0
M  V30 845 C 78.4992 -1.43322 -1.23512 0
M  V30 846 O 77.8422 -0.533216 -1.75791 0
M  V30 847 C 77.9042 -3.59131 -0.162773 0
M  V30 848 C 77.5682 -4.4447 1.06279 0
M  V30 849 C 78.5652 -4.80918 1.97519 0
M  V30 850 C 76.2502 -4.85584 1.28504 0
M  V30 851 C 78.2442 -5.57309 3.09331 0
M  V30 852 C 75.9312 -5.61734 2.4062 0
M  V30 853 C 76.9292 -5.9751 3.30863 0
M  V30 854 O 76.6172 -6.72121 4.41032 0
M  V30 855 H 76.3492 -0.673745 0.0551725 0
M  V30 856 H 78.9032 -1.88969 0.804984 0
M  V30 857 H 77.1332 -3.74936 -0.946565 0
M  V30 858 H 78.8222 -4.0114 -0.619782 0
M  V30 859 H 79.5882 -4.49732 1.81565 0
M  V30 860 H 75.4672 -4.57187 0.591702 0
M  V30 861 H 79.0112 -5.85152 3.79793 0
M  V30 862 H 74.9082 -5.92334 2.56537 0
M  V30 863 H 75.6762 -6.90547 4.39417 0
M  V30 864 N 78.3393 -0.321999 -1.54275 0
M  V30 865 C 79.5873 0.280489 -2.00144 0
M  V30 866 C 79.9083 1.52777 -1.21178 0
M  V30 867 O 79.1783 1.9338 -0.313187 0
M  V30 868 H 77.7583 0.106632 -0.73935 0
M  V30 869 H 80.4203 -0.438184 -1.8991 0
M  V30 870 H 79.5163 0.537972 -3.07428 0
M  V30 871 N 79.8174 1.5752 -0.0501392 0
M  V30 872 C 80.7654 2.12651 0.942459 0
M  V30 873 C 81.7594 1.05807 1.32292 0
M  V30 874 O 82.9654 1.24217 1.3027 0
M  V30 875 H 79.3404 0.679673 0.321789 0
M  V30 876 H 81.3114 2.94951 0.452356 0
M  V30 877 C 80.0604 2.68565 2.20836 0
M  V30 878 H 79.3834 3.50439 1.92439 0
M  V30 879 H 80.8234 3.10761 2.8845 0
M  V30 880 C 79.2824 1.62291 2.95234 0
M  V30 881 O 79.8124 1.03508 3.88135 0
M  V30 882 N 78.0184 1.33836 2.57946 0
M  V30 883 H 77.5654 1.81826 1.82475 0
M  V30 884 H 77.5234 0.629595 3.08032 0
M  V30 885 N 81.2955 -0.223234 1.56011 0
M  V30 886 C 82.5235 -0.964812 1.83027 0
M  V30 887 C 82.9385 -1.78013 0.62904 0
M  V30 888 O 82.2955 -1.78008 -0.402414 0
M  V30 889 C 82.3465 -1.88373 3.08542 0
M  V30 890 O 82.0675 -1.10137 4.2403 0
M  V30 891 C 83.5685 -2.73934 3.48533 0
M  V30 892 H 80.7885 -0.282842 0.608475 0
M  V30 893 H 83.3325 -0.238971 2.03099 0
M  V30 894 H 81.4875 -2.56354 2.9045 0
M  V30 895 H 81.9015 -1.72501 4.95322 0
M  V30 896 H 83.3755 -3.34117 4.39397 0
M  V30 897 H 83.8525 -3.46244 2.70207 0
M  V30 898 H 84.4585 -2.11369 3.69057 0
M  V30 899 N 82.7736 -1.49793 -0.48987 0
M  V30 900 C 84.0226 -1.59085 -1.23995 0
M  V30 901 C 84.3356 -0.287907 -1.9347 0
M  V30 902 O 85.5416 -0.259506 -2.70257 0
M  V30 903 C 83.9976 -2.80736 -2.252 0
M  V30 904 C 83.6056 -4.17833 -1.61614 0
M  V30 905 C 85.3496 -2.99364 -3.00967 0
M  V30 906 C 83.2566 -5.30693 -2.60996 0
M  V30 907 H 82.1866 -0.592372 -0.466488 0
M  V30 908 H 84.8376 -1.76197 -0.51252 0
M  V30 909 H 83.2196 -2.57142 -3.01154 0
M  V30 910 H 84.3936 -4.51608 -0.915774 0
M  V30 911 H 82.7086 -4.04656 -0.981977 0
M  V30 912 H 85.3056 -3.80851 -3.75308 0
M  V30 913 H 85.6486 -2.10356 -3.59244 0
M  V30 914 H 86.1816 -3.2305 -2.32128 0
M  V30 915 H 82.9206 -6.21796 -2.07485 0
M  V30 916 H 82.4406 -5.01359 -3.2924 0
M  V30 917 H 84.1196 -5.6049 -3.23202 0
M  V30 918 N 84.2517 0.741722 -1.39055 0
M  V30 919 C 85.1847 1.86416 -1.31622 0
M  V30 920 C 86.1627 1.61473 -0.191076 0
M  V30 921 O 87.3467 1.84825 -0.370399 0
M  V30 922 C 84.4737 3.22266 -1.04221 0
M  V30 923 C 83.5197 3.66079 -2.18834 0
M  V30 924 S 84.3527 3.7623 -3.81066 0
M  V30 925 C 85.5087 5.14881 -3.55877 0
M  V30 926 H 85.7417 1.92437 -2.26617 0
M  V30 927 H 83.2747 0.905907 -1.25031 0
M  V30 928 H 85.2327 4.00714 -0.890964 0
M  V30 929 H 83.8937 3.1391 -0.109237 0
M  V30 930 H 83.0867 4.64648 -1.95238 0
M  V30 931 H 82.6887 2.94817 -2.30128 0
M  V30 932 H 84.9807 6.01006 -3.12726 0
M  V30 933 H 85.9237 5.43503 -4.53884 0
M  V30 934 H 86.3317 4.84239 -2.90126 0
M  V30 935 N 85.7298 1.2412 0.971189 0
M  V30 936 C 86.6398 1.04747 2.09917 0
M  V30 937 C 87.6558 -0.0107162 1.73997 0
M  V30 938 O 88.8318 0.186714 2.00533 0
M  V30 939 C 85.8968 0.650828 3.40537 0
M  V30 940 C 84.9578 1.7851 3.90426 0
M  V30 941 C 84.1908 1.40729 5.14812 0
M  V30 942 O 84.4138 0.29557 5.69634 0
M  V30 943 O 83.3478 2.23168 5.58999 0
M  V30 944 H 87.1738 1.99304 2.29154 0
M  V30 945 H 84.7588 1.02908 1.08307 0
M  V30 946 H 86.6408 0.440992 4.19086 0
M  V30 947 H 85.3158 -0.265649 3.22608 0
M  V30 948 H 84.2228 2.04966 3.12953 0
M  V30 949 H 85.5558 2.68023 4.12825 0
M  V30 950 N 87.2079 -1.17134 1.05439 0
M  V30 951 C 88.1379 -2.2342 0.678649 0
M  V30 952 C 89.1189 -1.66971 -0.32476 0
M  V30 953 O 90.3039 -1.93149 -0.201802 0
M  V30 954 C 87.4339 -3.47256 0.0552099 0
M  V30 955 C 86.3879 -4.16543 0.98365 0
M  V30 956 C 85.7139 -5.34231 0.223961 0
M  V30 957 C 87.0139 -4.68495 2.3089 0
M  V30 958 H 88.7079 -2.55105 1.56722 0
M  V30 959 H 86.2539 -1.2262 0.754998 0
M  V30 960 H 88.2069 -4.20828 -0.21946 0
M  V30 961 H 86.9309 -3.14846 -0.868319 0
M  V30 962 H 85.5899 -3.44887 1.24293 0
M  V30 963 H 85.2379 -4.98071 -0.702412 0
M  V30 964 H 84.9379 -5.81527 0.842627 0
M  V30 965 H 86.4619 -6.10585 -0.0433671 0
M  V30 966 H 87.8759 -5.33691 2.09396 0
M  V30 967 H 86.2729 -5.26379 2.88176 0
M  V30 968 H 87.3429 -3.85169 2.94572 0
M  V30 969 N 88.686 -0.835752 -1.33615 0
M  V30 970 C 89.634 -0.255238 -2.31195 0
M  V30 971 C 90.628 0.61107 -1.57995 0
M  V30 972 O 91.834 0.500979 -1.72888 0
M  V30 973 H 88.209 -0.0638085 -0.749288 0
M  V30 974 H 90.18 -1.09283 -2.77669 0
M  V30 975 C 88.929 0.55754 -3.43201 0
M  V30 976 H 88.252 -0.0997553 -3.99676 0
M  V30 977 H 89.692 0.929622 -4.13683 0
M  V30 978 C 88.151 1.73515 -2.88781 0
M  V30 979 O 88.681 2.83376 -2.84712 0
M  V30 980 N 86.887 1.55603 -2.4543 0
M  V30 981 H 86.434 0.662354 -2.48939 0
M  V30 982 H 86.392 2.34545 -2.09371 0
M  V30 983 N 90.1641 1.46063 -0.591896 0
M  V30 984 C 91.4411 1.95595 -0.0137119 0
M  V30 985 C 91.8211 1.5345 1.4497 0
M  V30 986 O 91.1691 0.789543 2.14426 0
M  V30 987 C 91.3791 3.48453 -0.195373 0
M  V30 988 C 92.7271 4.24546 -0.0679765 0
M  V30 989 O 93.7511 3.55982 -0.124681 0
M  V30 990 O 92.6101 5.46467 0.0600579 0
M  V30 991 H 89.7041 0.825795 0.0446279 0
M  V30 992 H 92.2501 1.56303 -0.660859 0
M  V30 993 H 91.0221 3.72045 -1.21235 0
M  V30 994 H 90.6451 3.94597 0.487775 0
M  V30 995 N 91.6422 0.330177 1.54103 0
M  V30 996 C 92.8902 -0.269871 2.0029 0
M  V30 997 C 93.2112 -1.52133 1.21986 0
M  V30 998 O 92.4812 -1.93212 0.323438 0
M  V30 999 H 91.0612 -0.10271 0.739905 0
M  V30 1000 H 93.7232 0.448249 1.89675 0
M  V30 1001 H 92.8192 -0.52166 3.07709 0
M  V30 1002 N 93.1203 -1.57491 0.0584922 0
M  V30 1003 C 94.3683 -1.92597 -0.612436 0
M  V30 1004 C 94.6893 -0.938162 -1.70949 0
M  V30 1005 O 93.9593 0.0158301 -1.95894 0
M  V30 1006 H 92.5393 -0.710964 -0.229214 0
M  V30 1007 H 95.2013 -1.94571 0.113218 0
M  V30 1008 H 94.2973 -2.94038 -1.04633 0
M  V30 1009 N 94.5984 0.214957 -1.56127 0
M  V30 1010 C 95.8264 0.955092 -1.83536 0
M  V30 1011 C 96.2414 1.77677 -0.638472 0
M  V30 1012 O 95.5984 1.78219 0.392968 0
M  V30 1013 C 95.6494 1.86734 -3.09536 0
M  V30 1014 O 95.3704 1.07887 -4.24608 0
M  V30 1015 C 96.8714 2.72082 -3.4998 0
M  V30 1016 H 94.0914 0.279611 -0.609966 0
M  V30 1017 H 96.6354 0.228197 -2.03223 0
M  V30 1018 H 94.7904 2.5481 -2.91806 0
M  V30 1019 H 95.2044 1.69872 -4.9623 0
M  V30 1020 H 96.6784 3.31782 -4.41163 0
M  V30 1021 H 97.1554 3.44806 -2.7204 0
M  V30 1022 H 97.7614 2.09409 -3.70173 0
M  V30 1023 N 96.0765 1.50051 0.48192 0
M  V30 1024 C 97.3235 1.60498 1.23477 0
M  V30 1025 C 97.6515 0.300331 1.92167 0
M  V30 1026 O 96.9065 -0.713094 1.82246 0
M  V30 1027 C 97.2055 2.72717 2.30998 0
M  V30 1028 C 96.8715 4.13572 1.79636 0
M  V30 1029 C 95.5335 4.519 1.65348 0
M  V30 1030 C 97.8855 5.01649 1.41412 0
M  V30 1031 C 95.2135 5.76057 1.11244 0
M  V30 1032 C 97.5655 6.26343 0.887538 0
M  V30 1033 C 96.2295 6.63483 0.731207 0
M  V30 1034 H 95.4995 0.587303 0.451836 0
M  V30 1035 H 98.1465 1.83948 0.532468 0
M  V30 1036 H 96.4515 2.43312 3.07094 0
M  V30 1037 H 98.1485 2.78006 2.88988 0
M  V30 1038 H 94.7385 3.83329 1.91721 0
M  V30 1039 H 98.9225 4.72679 1.51289 0
M  V30 1040 H 94.1785 6.03516 0.978686 0
M  V30 1041 H 98.3525 6.93958 0.582654 0
M  V30 1042 H 95.9795 7.59568 0.309806 0
M  V30 1043 N 97.5546 -0.734337 1.39446 0
M  V30 1044 C 98.7796 -1.52866 1.40167 0
M  V30 1045 C 99.2046 -1.881 -0.00171513 0
M  V30 1046 O 98.5626 -1.51957 -0.988879 0
M  V30 1047 C 98.6106 -2.79235 2.28167 0
M  V30 1048 O 97.7146 -3.75185 1.71201 0
M  V30 1049 H 97.0556 -0.461618 0.477289 0
M  V30 1050 H 99.5856 -0.905949 1.8345 0
M  V30 1051 H 99.5956 -3.27963 2.42702 0
M  V30 1052 H 98.2706 -2.52923 3.30156 0
M  V30 1053 H 96.8476 -3.33958 1.65912 0
M  V30 1054 N 99.0327 -1.24633 -0.964593 0
M  V30 1055 C 100.273 -1.09981 -1.72289 0
M  V30 1056 C 100.637 0.354792 -1.88693 0
M  V30 1057 O 101.838 0.62289 -2.61483 0
M  V30 1058 C 100.109 -1.82262 -3.07434 0
M  V30 1059 S 101.668 -1.83379 -3.98645 0
M  V30 1060 H 98.4857 -0.393292 -0.59232 0
M  V30 1061 H 101.088 -1.58009 -1.15123 0
M  V30 1062 H 99.7917 -2.87206 -2.93157 0
M  V30 1063 H 99.3227 -1.3458 -3.69664 0
M  V30 1064 H 101.338 -0.903691 -4.87901 0
M  V30 1065 N 100.511 1.16574 -1.06058 0
M  V30 1066 C 101.443 2.2045 -0.627239 0
M  V30 1067 C 102.456 1.59752 0.313534 0
M  V30 1068 O 103.645 1.78192 0.104896 0
M  V30 1069 C 100.745 3.3875 0.100974 0
M  V30 1070 C 99.9178 4.29008 -0.852687 0
M  V30 1071 C 98.9768 5.25944 -0.164152 0
M  V30 1072 O 98.0028 5.63535 -0.801047 0
M  V30 1073 N 99.2048 5.70075 1.09518 0
M  V30 1074 H 101.97 2.58249 -1.52077 0
M  V30 1075 H 99.5308 1.3156 -0.943594 0
M  V30 1076 H 101.523 4.00638 0.57194 0
M  V30 1077 H 100.093 2.99476 0.89628 0
M  V30 1078 H 99.3128 3.64419 -1.50308 0
M  V30 1079 H 100.601 4.86195 -1.49972 0
M  V30 1080 H 99.9988 5.41624 1.6328 0
M  V30 1081 H 98.5558 6.34067 1.51006 0
M  V30 1082 N 101.989 0.842826 1.3317 0
M  V30 1083 C 103.235 0.450342 1.98352 0
M  V30 1084 C 103.59 -0.980508 1.65541 0
M  V30 1085 O 102.883 -1.67678 0.927065 0
M  V30 1086 C 103.077 0.612607 3.52111 0
M  V30 1087 C 102.906 2.05768 3.99862 0
M  V30 1088 C 101.676 2.69374 4.27511 0
M  V30 1089 C 103.874 3.02688 4.15794 0
M  V30 1090 N 101.856 4.04915 4.61429 0
M  V30 1091 C 103.227 4.23186 4.53115 0
M  V30 1092 C 105.282 2.99041 3.98094 0
M  V30 1093 C 103.985 5.40518 4.74587 0
M  V30 1094 C 106.011 4.15607 4.20743 0
M  V30 1095 C 105.373 5.3486 4.58371 0
M  V30 1096 H 101.472 0.213296 0.752349 0
M  V30 1097 H 104.056 1.09173 1.61212 0
M  V30 1098 H 102.227 0.000998822 3.884 0
M  V30 1099 H 103.959 0.191179 4.04248 0
M  V30 1100 H 100.714 2.20485 4.19146 0
M  V30 1101 H 101.138 4.74798 4.82593 0
M  V30 1102 H 105.78 2.0797 3.68114 0
M  V30 1103 H 103.498 6.3213 5.03425 0
M  V30 1104 H 107.084 4.14207 4.08563 0
M  V30 1105 H 105.964 6.23558 4.75547 0
M  V30 1106 N 103.467 -1.45747 0.599634 0
M  V30 1107 C 104.692 -2.07178 0.0960198 0
M  V30 1108 C 105.117 -1.44268 -1.207 0
M  V30 1109 O 104.475 -0.532503 -1.73303 0
M  V30 1110 C 104.523 -3.60579 -0.0385348 0
M  V30 1111 O 103.627 -3.97713 -1.0908 0
M  V30 1112 H 102.968 -0.660251 0.0704593 0
M  V30 1113 H 105.498 -1.87124 0.827385 0
M  V30 1114 H 105.508 -4.07298 -0.239304 0
M  V30 1115 H 104.183 -4.05756 0.912947 0
M  V30 1116 H 102.76 -3.62678 -0.867135 0
M  V30 1117 N 104.945 -0.338344 -1.53925 0
M  V30 1118 C 105.893 0.536231 -2.26335 0
M  V30 1119 C 106.887 1.1063 -1.28286 0
M  V30 1120 O 108.093 1.05264 -1.46012 0
M  V30 1121 H 104.468 0.191602 -0.727181 0
M  V30 1122 H 106.439 -0.0965747 -2.98244 0
M  V30 1123 C 105.188 1.67803 -3.04528 0
M  V30 1124 H 104.511 1.24864 -3.79801 0
M  V30 1125 H 105.951 2.26526 -3.58416 0
M  V30 1126 C 104.41 2.60439 -2.13712 0
M  V30 1127 O 104.94 3.6255 -1.72975 0
M  V30 1128 N 103.146 2.29006 -1.78898 0
M  V30 1129 H 102.693 1.46011 -2.12223 0
M  V30 1130 H 102.651 2.91248 -1.18416 0
M  V30 1131 N 106.423 1.57458 -0.0668435 0
M  V30 1132 C 107.672 1.92477 0.602947 0
M  V30 1133 C 107.985 0.948419 1.71068 0
M  V30 1134 O 109.191 1.19124 2.43971 0
M  V30 1135 C 107.647 3.41903 1.12383 0
M  V30 1136 C 107.255 4.47975 0.04737 0
M  V30 1137 C 108.999 3.85931 1.76797 0
M  V30 1138 C 106.906 5.88529 0.582022 0
M  V30 1139 H 105.836 0.718387 0.22899 0
M  V30 1140 H 108.487 1.82978 -0.138276 0
M  V30 1141 H 106.869 3.46459 1.91787 0
M  V30 1142 H 108.043 4.55029 -0.726978 0
M  V30 1143 H 106.358 4.13384 -0.500243 0
M  V30 1144 H 108.955 4.88322 2.17821 0
M  V30 1145 H 109.298 3.23029 2.62599 0
M  V30 1146 H 109.831 3.83958 1.04024 0
M  V30 1147 H 106.57 6.55065 -0.238721 0
M  V30 1148 H 106.09 5.85004 1.324 0
M  V30 1149 H 107.769 6.38258 1.05999 0
M  V30 1150 N 107.901 -0.206675 1.56239 0
M  V30 1151 C 109.149 -0.927007 1.79586 0
M  V30 1152 C 109.47 -1.8427 0.637929 0
M  V30 1153 O 108.74 -1.92849 -0.344398 0
M  V30 1154 H 107.32 -0.345292 0.662407 0
M  V30 1155 H 109.982 -0.21496 1.93711 0
M  V30 1156 H 109.078 -1.52501 2.72305 0
M  V30 1157 N 109.379 -1.50304 -0.473955 0
M  V30 1158 C 110.327 -1.69482 -1.59307 0
M  V30 1159 C 111.321 -0.560669 -1.59853 0
M  V30 1160 O 112.527 -0.741087 -1.64036 0
M  V30 1161 H 108.902 -0.534892 -0.528578 0
M  V30 1162 H 110.873 -2.63364 -1.40293 0
M  V30 1163 C 109.622 -1.80354 -2.97267 0
M  V30 1164 H 108.945 -2.67012 -2.97564 0
M  V30 1165 H 110.385 -1.97798 -3.75036 0
M  V30 1166 C 108.844 -0.55448 -3.32306 0
M  V30 1167 O 109.374 0.307661 -4.0052 0
M  V30 1168 N 107.58 -0.409354 -2.87702 0
M  V30 1169 H 107.127 -1.11196 -2.32364 0
M  V30 1170 H 107.085 0.425223 -3.11511 0
M  V30 1171 N 110.857 0.726932 -1.39834 0
M  V30 1172 C 111.82 1.82269 -1.38962 0
M  V30 1173 C 112.82 1.58248 -0.285334 0
M  V30 1174 O 114.01 1.65499 -0.54366 0
M  V30 1175 C 111.142 3.20186 -1.17019 0
M  V30 1176 H 112.335 1.84443 -2.36476 0
M  V30 1177 H 109.888 0.931416 -1.25516 0
M  V30 1178 H 110.623 3.23669 -0.202204 0
M  V30 1179 H 110.408 3.3902 -1.96998 0
M  V30 1180 H 111.898 4.00235 -1.1917 0
M  V30 1181 N 112.336 1.25143 0.95797 0
M  V30 1182 C 113.266 1.07711 2.07173 0
M  V30 1183 C 114.247 -0.0128462 1.70095 0
M  V30 1184 O 115.432 0.156061 1.93572 0
M  V30 1185 C 112.562 0.691503 3.40346 0
M  V30 1186 C 111.516 1.73132 3.9142 0
M  V30 1187 C 110.842 1.20049 5.21049 0
M  V30 1188 C 112.142 3.1294 4.1817 0
M  V30 1189 H 113.836 2.00873 2.22014 0
M  V30 1190 H 111.382 0.967191 1.06684 0
M  V30 1191 H 113.335 0.556505 4.17709 0
M  V30 1192 H 112.059 -0.275819 3.25433 0
M  V30 1193 H 110.718 1.8547 3.16222 0
M  V30 1194 H 110.366 0.223499 5.02503 0
M  V30 1195 H 110.066 1.89545 5.56189 0
M  V30 1196 H 111.59 1.07782 6.01012 0
M  V30 1197 H 113.004 3.03775 4.86203 0
M  V30 1198 H 111.401 3.79875 4.64559 0
M  V30 1199 H 112.471 3.6025 3.24573 0
M  V30 1200 N 113.814 -1.1601 1.06675 0
M  V30 1201 C 115.061 -1.86633 0.785781 0
M  V30 1202 C 115.389 -1.81929 -0.687896 0
M  V30 1203 O 114.644 -1.23253 -1.52011 0
M  V30 1204 C 114.943 -3.35547 1.23057 0
M  V30 1205 C 114.609 -3.60448 2.70902 0
M  V30 1206 C 113.271 -3.66954 3.11285 0
M  V30 1207 C 115.623 -3.7071 3.66365 0
M  V30 1208 C 112.951 -3.81225 4.45965 0
M  V30 1209 C 115.303 -3.86503 5.00797 0
M  V30 1210 C 113.967 -3.91252 5.40813 0
M  V30 1211 H 113.237 -0.682937 0.287538 0
M  V30 1212 H 115.884 -1.37146 1.33654 0
M  V30 1213 H 114.189 -3.87193 0.59907 0
M  V30 1214 H 115.886 -3.88583 0.990163 0
M  V30 1215 H 112.476 -3.56021 2.38636 0
M  V30 1216 H 116.66 -3.64991 3.36296 0
M  V30 1217 H 111.916 -3.83155 4.76447 0
M  V30 1218 H 116.09 -3.93385 5.74649 0
M  V30 1219 H 113.717 -4.02062 6.45174 0
M  V30 1220 N 115.292 -0.849877 -1.32721 0
M  V30 1221 C 116.708 -0.539102 -1.50219 0
M  V30 1222 C 116.908 0.931271 -1.78689 0
M  V30 1223 O 115.964 1.71455 -1.85363 0
M  V30 1224 C 117.277 -1.42196 -2.64954 0
M  V30 1225 C 118.825 -1.42189 -2.78839 0
M  V30 1226 C 119.3 -2.28985 -3.96648 0
M  V30 1227 N 120.791 -2.26754 -4.03902 0
M  V30 1228 C 121.526 -2.90644 -4.94281 0
M  V30 1229 N 121.022 -3.63629 -5.897 0
M  V30 1230 N 122.815 -2.80057 -4.87365 0
M  V30 1231 H 114.966 -1.80156 -1.12506 0
M  V30 1232 H 117.229 -0.769217 -0.554085 0
M  V30 1233 H 116.935 -2.46733 -2.50631 0
M  V30 1234 H 116.809 -1.10591 -3.60624 0
M  V30 1235 H 119.196 -0.38419 -2.92588 0
M  V30 1236 H 119.277 -1.77807 -1.83898 0
M  V30 1237 H 118.921 -3.32819 -3.83658 0
M  V30 1238 H 118.851 -1.90702 -4.90857 0
M  V30 1239 H 121.342 -1.73688 -3.3562 0
M  V30 1240 H 121.655 -4.09558 -6.55349 0
M  V30 1241 H 120 -3.67737 -5.89741 0
M  V30 1242 H 123.191 -2.22593 -4.11789 0
M  V30 1243 H 123.364 -3.30132 -5.57599 0
M  V30 1244 N 116.77 1.45427 -0.607355 0
M  V30 1245 C 117.717 2.3053 0.111625 0
M  V30 1246 C 118.687 1.4209 0.860216 0
M  V30 1247 O 119.872 1.71019 0.845998 0
M  V30 1248 C 117.012 3.26992 1.10319 0
M  V30 1249 C 116.125 4.30535 0.355493 0
M  V30 1250 C 115.26 5.14105 1.33676 0
M  V30 1251 C 114.299 6.09376 0.576862 0
M  V30 1252 N 113.436 6.85727 1.5074 0
M  V30 1253 H 118.276 2.91477 -0.620093 0
M  V30 1254 H 115.813 1.43631 -0.317594 0
M  V30 1255 H 117.771 3.81385 1.6912 0
M  V30 1256 H 116.401 2.67799 1.80232 0
M  V30 1257 H 115.453 3.78805 -0.348023 0
M  V30 1258 H 116.765 4.98235 -0.237423 0
M  V30 1259 H 115.919 5.72897 1.99684 0
M  V30 1260 H 114.658 4.46423 1.9636 0
M  V30 1261 H 113.663 5.49715 -0.0968519 0
M  V30 1262 H 114.888 6.79085 -0.0449341 0
M  V30 1263 H 112.834 6.20735 2.12189 0
M  V30 1264 H 112.751 7.49778 0.967913 0
M  V30 1265 H 114.019 7.4906 2.15706 0
M  V30 1266 N 118.248 0.346503 1.53744 0
M  V30 1267 C 119.496 -0.248612 2.00565 0
M  V30 1268 C 119.817 -1.5083 1.23593 0
M  V30 1269 O 119.087 -1.92858 0.343912 0
M  V30 1270 H 117.667 -0.0948564 0.740953 0
M  V30 1271 H 120.329 0.468341 1.89189 0
M  V30 1272 H 119.425 -0.488994 3.08245 0
M  V30 1273 N 119.726 -1.57421 0.075193 0
M  V30 1274 C 121.142 -1.57099 -0.281444 0
M  V30 1275 C 121.342 -1.08486 -1.69803 0
M  V30 1276 O 120.398 -0.752279 -2.41033 0
M  V30 1277 C 121.711 -3.00571 -0.0880041 0
M  V30 1278 C 123.259 -3.12605 -0.157281 0
M  V30 1279 C 123.734 -4.57999 0.0079207 0
M  V30 1280 N 125.225 -4.63176 -0.0475725 0
M  V30 1281 C 125.96 -5.73373 0.0557876 0
M  V30 1282 N 125.456 -6.92473 0.21286 0
M  V30 1283 N 127.249 -5.621 -0.00152098 0
M  V30 1284 H 119.4 -1.87335 1.00098 0
M  V30 1285 H 121.663 -0.86377 0.390646 0
M  V30 1286 H 121.369 -3.40262 0.889629 0
M  V30 1287 H 121.243 -3.67754 -0.838875 0
M  V30 1288 H 123.63 -2.72798 -1.1254 0
M  V30 1289 H 123.711 -2.48053 0.62475 0
M  V30 1290 H 123.355 -4.98496 0.972824 0
M  V30 1291 H 123.285 -5.20586 -0.793556 0
M  V30 1292 H 125.776 -3.7753 -0.167244 0
M  V30 1293 H 126.089 -7.72279 0.283781 0
M  V30 1294 H 124.434 -6.94556 0.248267 0
M  V30 1295 H 127.625 -4.67938 -0.122958 0
M  V30 1296 H 127.798 -6.47948 0.0824844 0
M  V30 1297 N 121.204 0.198386 -1.56346 0
M  V30 1298 C 122.151 1.24589 -1.94284 0
M  V30 1299 C 123.121 1.454 -0.802997 0
M  V30 1300 O 124.306 1.58588 -1.06087 0
M  V30 1301 C 121.446 2.58631 -2.28482 0
M  V30 1302 C 120.559 2.45426 -3.55514 0
M  V30 1303 C 119.694 3.7215 -3.79049 0
M  V30 1304 C 118.733 3.53763 -4.99518 0
M  V30 1305 N 117.87 4.72491 -5.19323 0
M  V30 1306 H 122.71 0.915356 -2.83593 0
M  V30 1307 H 120.247 0.440629 -1.40346 0
M  V30 1308 H 122.205 3.3672 -2.46324 0
M  V30 1309 H 120.835 2.89734 -1.42317 0
M  V30 1310 H 119.887 1.58652 -3.45737 0
M  V30 1311 H 121.199 2.27772 -4.43758 0
M  V30 1312 H 120.353 4.58679 -3.97113 0
M  V30 1313 H 119.092 3.92754 -2.89129 0
M  V30 1314 H 118.097 2.65619 -4.8138 0
M  V30 1315 H 119.322 3.34607 -5.90944 0
M  V30 1316 H 117.268 4.93365 -4.3235 0
M  V30 1317 H 117.185 4.5765 -6.01741 0
M  V30 1318 H 118.453 5.6038 -5.41843 0
M  V30 1319 N 122.682 1.50554 0.465978 0
M  V30 1320 C 123.929 1.61798 1.21768 0
M  V30 1321 C 124.257 0.320696 1.91838 0
M  V30 1322 O 123.512 -0.693724 1.82992 0
M  V30 1323 C 123.811 2.75152 2.28093 0
M  V30 1324 C 123.477 4.15454 1.75239 0
M  V30 1325 C 122.139 4.53628 1.60546 0
M  V30 1326 C 124.491 5.03121 1.36083 0
M  V30 1327 C 121.819 5.77204 1.05128 0
M  V30 1328 C 124.171 6.27249 0.821056 0
M  V30 1329 C 122.835 6.64221 0.660795 0
M  V30 1330 H 122.105 0.592063 0.445582 0
M  V30 1331 H 124.752 1.84503 0.512927 0
M  V30 1332 H 123.057 2.46556 3.04496 0
M  V30 1333 H 124.754 2.81055 2.86023 0
M  V30 1334 H 121.344 3.85341 1.87644 0
M  V30 1335 H 125.528 4.74257 1.46267 0
M  V30 1336 H 120.784 6.0452 0.91462 0
M  V30 1337 H 124.958 6.94537 0.509018 0
M  V30 1338 H 122.585 7.59854 0.229226 0
M  V30 1339 N 124.16 -0.719506 1.40217 0
M  V30 1340 C 125.108 -1.85493 1.40339 0
M  V30 1341 C 126.102 -1.66995 0.284415 0
M  V30 1342 O 127.308 -1.74148 0.455252 0
M  V30 1343 H 123.683 -0.610857 0.438586 0
M  V30 1344 H 125.654 -1.82506 2.36081 0
M  V30 1345 C 124.403 -3.23321 1.27901 0
M  V30 1346 H 123.726 -3.38159 2.1328 0
M  V30 1347 H 125.166 -4.02914 1.32045 0
M  V30 1348 C 123.625 -3.36898 -0.0111355 0
M  V30 1349 O 124.155 -3.89674 -0.975538 0
M  V30 1350 N 122.361 -2.90492 -0.0793393 0
M  V30 1351 H 121.908 -2.47731 0.706183 0
M  V30 1352 H 121.866 -2.99955 -0.942038 0
M  V30 1353 N 125.638 -1.25649 -0.95132 0
M  V30 1354 C 126.863 -1.13443 -1.73624 0
M  V30 1355 C 127.288 0.307565 -1.85568 0
M  V30 1356 O 126.646 1.22282 -1.33854 0
M  V30 1357 C 126.694 -1.79723 -3.12621 0
M  V30 1358 O 125.798 -1.07912 -3.98031 0
M  V30 1359 H 125.139 -0.395872 -0.533086 0
M  V30 1360 H 127.669 -1.66276 -1.1922 0
M  V30 1361 H 127.679 -1.86141 -3.63064 0
M  V30 1362 H 126.354 -2.84633 -3.03244 0
M  V30 1363 H 124.931 -1.09398 -3.56492 0
M  V30 1364 N 127.117 1.15442 -1.07289 0
M  V30 1365 C 128.394 1.82306 -0.708792 0
M  V30 1366 C 128.774 1.94991 0.808807 0
M  V30 1367 O 128.122 1.50085 1.72298 0
M  V30 1368 C 128.332 3.18695 -1.42247 0
M  V30 1369 C 129.68 3.94341 -1.57417 0
M  V30 1370 O 130.704 3.28247 -1.38319 0
M  V30 1371 O 129.563 5.12839 -1.88834 0
M  V30 1372 H 126.657 0.787628 -0.252132 0
M  V30 1373 H 129.203 1.22559 -1.17377 0
M  V30 1374 H 127.975 3.04557 -2.45684 0
M  V30 1375 H 127.598 3.86128 -0.948223 0
M  V30 1376 N 128.595 0.856903 1.32268 0
M  V30 1377 C 129.542 0.301172 2.28827 0
M  V30 1378 C 130.512 -0.593104 1.5515 0
M  V30 1379 O 131.697 -0.527537 1.83362 0
M  V30 1380 C 128.837 -0.502523 3.41422 0
M  V30 1381 C 127.95 0.417797 4.29975 0
M  V30 1382 C 127.085 -0.398749 5.29701 0
M  V30 1383 C 126.124 0.518827 6.09897 0
M  V30 1384 N 125.261 -0.260674 7.01616 0
M  V30 1385 H 130.101 1.12983 2.75751 0
M  V30 1386 H 127.638 0.568582 1.35667 0
M  V30 1387 H 129.596 -0.984141 4.05426 0
M  V30 1388 H 128.226 -1.29599 2.95642 0
M  V30 1389 H 127.278 1.01781 3.66531 0
M  V30 1390 H 128.59 1.12191 4.86019 0
M  V30 1391 H 127.744 -0.943435 5.9932 0
M  V30 1392 H 126.483 -1.13622 4.7428 0
M  V30 1393 H 125.488 1.07538 5.39181 0
M  V30 1394 H 126.713 1.25495 6.67404 0
M  V30 1395 H 124.659 -0.981198 6.4862 0
M  V30 1396 H 124.576 0.384364 7.55022 0
M  V30 1397 H 125.844 -0.787014 7.75517 0
M  V30 1398 N 130.073 -1.45103 0.615059 0
M  V30 1399 C 131.301 -2.06553 0.11977 0
M  V30 1400 C 131.716 -1.45842 -1.19898 0
M  V30 1401 O 131.073 -0.575325 -1.73194 0
M  V30 1402 C 131.124 -3.61495 -0.018364 0
M  V30 1403 O 130.845 -4.19942 1.24822 0
M  V30 1404 C 132.346 -4.39947 -0.544237 0
M  V30 1405 H 129.566 -0.667096 0.0722739 0
M  V30 1406 H 132.11 -1.8623 0.84491 0
M  V30 1407 H 130.265 -3.81135 -0.693865 0
M  V30 1408 H 130.679 -5.13204 1.0827 0
M  V30 1409 H 132.153 -5.48838 -0.589953 0
M  V30 1410 H 132.63 -4.10255 -1.56805 0
M  V30 1411 H 133.236 -4.25188 0.0974703 0
M  V30 1412 N 131.551 -0.354651 -1.53558 0
M  V30 1413 C 132.781 0.239167 -2.05211 0
M  V30 1414 C 133.189 1.43879 -1.22863 0
M  V30 1415 O 132.532 1.81857 -0.259565 0
M  V30 1416 C 132.594 0.707251 -3.52474 0
M  V30 1417 C 132.258 -0.374212 -4.55465 0
M  V30 1418 C 133.255 -1.22054 -5.0537 0
M  V30 1419 C 130.94 -0.531323 -4.99482 0
M  V30 1420 C 132.934 -2.20942 -5.97882 0
M  V30 1421 C 130.621 -1.52358 -5.91802 0
M  V30 1422 C 131.619 -2.36108 -6.40892 0
M  V30 1423 O 131.307 -3.33643 -7.31394 0
M  V30 1424 H 131.039 0.0479716 -0.674296 0
M  V30 1425 H 133.593 -0.508121 -1.99016 0
M  V30 1426 H 131.823 1.50596 -3.56171 0
M  V30 1427 H 133.512 1.22285 -3.87042 0
M  V30 1428 H 134.278 -1.1103 -4.7212 0
M  V30 1429 H 130.157 0.110738 -4.60867 0
M  V30 1430 H 133.701 -2.86348 -6.36121 0
M  V30 1431 H 129.598 -1.63434 -6.24467 0
M  V30 1432 H 130.366 -3.29244 -7.4936 0
M  V30 1433 N 133.029 1.57378 -0.0835403 0
M  V30 1434 C 133.961 2.10389 0.909338 0
M  V30 1435 C 134.974 1.03858 1.25369 0
M  V30 1436 O 136.163 1.31338 1.20882 0
M  V30 1437 C 133.263 2.55908 2.2218 0
M  V30 1438 C 132.436 3.86145 2.05453 0
M  V30 1439 C 131.495 4.17633 3.20108 0
M  V30 1440 O 130.521 4.87043 2.94581 0
M  V30 1441 N 131.723 3.72113 4.45547 0
M  V30 1442 H 134.488 2.962 0.456657 0
M  V30 1443 H 132.049 1.61579 0.101877 0
M  V30 1444 H 134.041 2.74027 2.97811 0
M  V30 1445 H 132.611 1.75171 2.58909 0
M  V30 1446 H 131.831 3.7729 1.1422 0
M  V30 1447 H 133.119 4.7137 1.91541 0
M  V30 1448 H 132.517 3.16062 4.69171 0
M  V30 1449 H 131.074 3.95409 5.18165 0
M  V30 1450 N 134.507 -0.190092 1.56449 0
M  V30 1451 C 135.417 -1.25591 1.98152 0
M  V30 1452 C 136.433 -1.49519 0.889944 0
M  V30 1453 O 137.609 -1.62036 1.19609 0
M  V30 1454 C 134.674 -2.57916 2.3169 0
M  V30 1455 C 133.735 -2.42015 3.5458 0
M  V30 1456 C 132.968 -3.6803 3.8651 0
M  V30 1457 O 133.191 -4.72413 3.1966 0
M  V30 1458 O 132.125 -3.6326 4.79923 0
M  V30 1459 H 135.951 -0.931988 2.89046 0
M  V30 1460 H 133.536 -0.395488 1.4407 0
M  V30 1461 H 135.418 -3.36008 2.54316 0
M  V30 1462 H 134.093 -2.89925 1.43963 0
M  V30 1463 H 133 -1.62017 3.37196 0
M  V30 1464 H 134.333 -2.14937 4.4279 0
M  V30 1465 N 135.985 -1.50799 -0.457987 0
M  V30 1466 C 136.915 -1.73553 -1.5621 0
M  V30 1467 C 137.896 -0.584774 -1.59732 0
M  V30 1468 O 139.081 -0.825314 -1.7579 0
M  V30 1469 C 136.211 -1.84169 -2.94447 0
M  V30 1470 C 135.165 -2.99461 -3.0579 0
M  V30 1471 C 134.491 -2.95235 -4.45803 0
M  V30 1472 C 135.791 -4.39766 -2.81786 0
M  V30 1473 H 137.485 -2.66 -1.37421 0
M  V30 1474 H 135.031 -1.28002 -0.659662 0
M  V30 1475 H 136.984 -1.98672 -3.71628 0
M  V30 1476 H 135.708 -0.883545 -3.14422 0
M  V30 1477 H 134.367 -2.8463 -2.31044 0
M  V30 1478 H 134.015 -1.97239 -4.62715 0
M  V30 1479 H 133.715 -3.72642 -4.54326 0
M  V30 1480 H 135.239 -3.11803 -5.24987 0
M  V30 1481 H 136.653 -4.55054 -3.4871 0
M  V30 1482 H 135.05 -5.18722 -3.0174 0
M  V30 1483 H 136.12 -4.51229 -1.7754 0
M  V30 1484 N 137.463 0.71206 -1.40597 0
M  V30 1485 C 138.711 1.46907 -1.38791 0
M  V30 1486 C 139.032 1.94998 0.00780391 0
M  V30 1487 O 138.302 1.70587 0.963174 0
M  V30 1488 H 136.882 0.545043 -0.51082 0
M  V30 1489 H 139.544 0.843882 -1.75683 0
M  V30 1490 H 138.64 2.34021 -2.06496 0
M  V30 1491 N 138.941 1.26152 0.944643 0
M  V30 1492 C 140.218 1.02247 1.66748 0
M  V30 1493 C 140.598 -0.448202 2.06287 0
M  V30 1494 O 139.946 -1.42779 1.78399 0
M  V30 1495 C 140.156 1.96788 2.88228 0
M  V30 1496 C 141.504 2.25201 3.59958 0
M  V30 1497 O 142.528 1.94626 2.98327 0
M  V30 1498 O 141.387 2.77242 4.70956 0
M  V30 1499 H 138.481 0.388517 0.730057 0
M  V30 1500 H 141.027 1.37348 0.99668 0
M  V30 1501 H 139.799 2.96047 2.55875 0
M  V30 1502 H 139.422 1.62145 3.63035 0
M  V30 1503 N 140.419 -1.14872 1.07899 0
M  V30 1504 C 141.668 -1.85135 0.800499 0
M  V30 1505 C 141.981 -1.83547 -0.676014 0
M  V30 1506 O 143.187 -2.49548 -1.06948 0
M  V30 1507 C 141.643 -3.3231 1.38197 0
M  V30 1508 C 141.251 -3.42329 2.8899 0
M  V30 1509 C 142.995 -4.0772 1.18174 0
M  V30 1510 C 140.902 -4.83684 3.403 0
M  V30 1511 H 139.832 -0.693563 0.29578 0
M  V30 1512 H 142.483 -1.29532 1.29976 0
M  V30 1513 H 140.865 -3.87618 0.810431 0
M  V30 1514 H 142.039 -2.97097 3.52236 0
M  V30 1515 H 140.354 -2.80369 3.07867 0
M  V30 1516 H 142.951 -5.12049 1.5398 0
M  V30 1517 H 143.294 -4.16124 0.12117 0
M  V30 1518 H 143.827 -3.58696 1.71994 0
M  V30 1519 H 140.566 -4.80465 4.45907 0
M  V30 1520 H 140.086 -5.29474 2.81811 0
M  V30 1521 H 141.765 -5.52558 3.36584 0
M  V30 1522 N 141.898 -0.863906 -1.31812 0
M  V30 1523 C 143.144 -0.472535 -1.97218 0
M  V30 1524 C 143.477 0.971394 -1.68159 0
M  V30 1525 O 142.752 1.68309 -0.974798 0
M  V30 1526 C 143.035 -0.723054 -3.52766 0
M  V30 1527 C 142.888 -2.21608 -3.91421 0
M  V30 1528 C 144.207 -0.185522 -4.39709 0
M  V30 1529 H 141.326 -0.173158 -0.71637 0
M  V30 1530 H 143.968 -1.08403 -1.56041 0
M  V30 1531 H 142.118 -0.202577 -3.87971 0
M  V30 1532 H 143.79 -2.80334 -3.66347 0
M  V30 1533 H 142.033 -2.691 -3.40246 0
M  V30 1534 H 142.704 -2.34203 -4.99853 0
M  V30 1535 H 145.18 -0.630726 -4.11292 0
M  V30 1536 H 144.056 -0.390306 -5.47511 0
M  V30 1537 H 144.317 0.912229 -4.32586 0
M  V30 1538 N 143.376 1.44774 -0.622745 0
M  V30 1539 C 144.622 2.0242 -0.124083 0
M  V30 1540 C 144.955 1.4881 1.24777 0
M  V30 1541 O 144.23 0.668799 1.8264 0
M  V30 1542 C 144.513 3.59957 -0.101619 0
M  V30 1543 C 144.366 4.23867 -1.50521 0
M  V30 1544 C 145.685 4.36284 0.578272 0
M  V30 1545 H 142.804 0.735528 -0.0465645 0
M  V30 1546 H 145.446 1.72447 -0.797617 0
M  V30 1547 H 143.596 3.85623 0.471934 0
M  V30 1548 H 145.268 4.09336 -2.12701 0
M  V30 1549 H 143.511 3.81684 -2.06154 0
M  V30 1550 H 144.182 5.32843 -1.4416 0
M  V30 1551 H 146.658 4.16001 0.0906057 0
M  V30 1552 H 145.534 5.46004 0.563149 0
M  V30 1553 H 145.795 4.10271 1.64713 0
M  V30 1554 N 144.854 0.36279 1.53368 0
M  V30 1555 C 145.764 -0.492994 2.29362 0
M  V30 1556 C 146.78 -1.09507 1.35219 0
M  V30 1557 O 147.956 -1.10662 1.68273 0
M  V30 1558 C 145.021 -1.61855 3.066 0
M  V30 1559 C 144.082 -1.04429 4.16405 0
M  V30 1560 C 143.315 -2.11621 4.89951 0
M  V30 1561 O 143.538 -3.32684 4.63333 0
M  V30 1562 O 142.472 -1.74835 5.75948 0
M  V30 1563 H 146.298 0.125331 3.03441 0
M  V30 1564 H 143.883 0.127253 1.48857 0
M  V30 1565 H 145.765 -2.27302 3.54841 0
M  V30 1566 H 144.44 -2.22233 2.3536 0
M  V30 1567 H 143.347 -0.353819 3.72423 0
M  V30 1568 H 144.68 -0.485113 4.89804 0
M  V30 1569 N 146.332 -1.57332 0.0918853 0
M  V30 1570 C 147.562 -1.98286 -0.580205 0
M  V30 1571 C 147.97 -0.969713 -1.6246 0
M  V30 1572 O 147.313 0.0493501 -1.83634 0
M  V30 1573 C 147.375 -3.35603 -1.28882 0
M  V30 1574 C 147.039 -4.55285 -0.395559 0
M  V30 1575 C 148.036 -5.18687 0.355002 0
M  V30 1576 C 145.721 -5.01314 -0.314556 0
M  V30 1577 C 147.715 -6.26484 1.17458 0
M  V30 1578 C 145.402 -6.08979 0.508677 0
M  V30 1579 C 146.4 -6.71429 1.2519 0
M  V30 1580 O 146.088 -7.77018 2.06151 0
M  V30 1581 H 145.82 -0.656678 -0.160466 0
M  V30 1582 H 148.374 -2.04721 0.16688 0
M  V30 1583 H 146.604 -3.25842 -2.08241 0
M  V30 1584 H 148.293 -3.61026 -1.85512 0
M  V30 1585 H 149.059 -4.84058 0.302134 0
M  V30 1586 H 144.938 -4.5247 -0.882697 0
M  V30 1587 H 148.482 -6.75159 1.75518 0
M  V30 1588 H 144.379 -6.4304 0.563037 0
M  V30 1589 H 145.147 -7.93991 1.98799 0
M  V30 1590 N 147.81 0.181792 -1.56548 0
M  V30 1591 C 149.058 0.89832 -1.81038 0
M  V30 1592 C 149.379 1.83232 -0.667164 0
M  V30 1593 O 148.649 1.93372 0.313673 0
M  V30 1594 H 147.229 0.33471 -0.667816 0
M  V30 1595 H 149.891 0.184116 -1.94028 0
M  V30 1596 H 148.987 1.4815 -2.74696 0
M  V30 1597 N 149.288 1.51039 0.449983 0
M  V30 1598 C 150.528 1.64732 1.21007 0
M  V30 1599 C 150.892 0.349865 1.88785 0
M  V30 1600 O 152.093 0.362431 2.66345 0
M  V30 1601 C 150.364 2.80902 2.20973 0
M  V30 1602 S 151.923 3.14851 3.05638 0
M  V30 1603 H 148.741 0.5805 0.410538 0
M  V30 1604 H 151.343 1.88901 0.503634 0
M  V30 1605 H 150.047 3.73627 1.69796 0
M  V30 1606 H 149.578 2.58882 2.96215 0
M  V30 1607 H 151.593 2.60306 4.22439 0
M  V30 1608 N 150.766 -0.704594 1.40972 0
M  V30 1609 C 152.043 -1.45847 1.30338 0
M  V30 1610 C 152.423 -2.10973 -0.0732344 0
M  V30 1611 O 151.771 -2.00997 -1.08685 0
M  V30 1612 C 151.981 -2.48525 2.45023 0
M  V30 1613 C 153.329 -3.1404 2.8577 0
M  V30 1614 O 154.353 -2.58848 2.44696 0
M  V30 1615 O 153.212 -4.13981 3.56766 0
M  V30 1616 H 150.306 -0.649092 0.512454 0
M  V30 1617 H 152.852 -0.735836 1.52917 0
M  V30 1618 H 151.624 -1.98994 3.36923 0
M  V30 1619 H 151.247 -3.2831 2.24272 0
M  V30 1620 N 152.244 -1.26651 -0.937939 0
M  V30 1621 C 153.474 -1.15006 -1.71631 0
M  V30 1622 C 153.882 0.297026 -1.86854 0
M  V30 1623 O 153.225 1.21493 -1.37786 0
M  V30 1624 C 153.287 -1.74984 -3.14039 0
M  V30 1625 C 152.951 -3.24103 -3.2219 0
M  V30 1626 C 153.948 -4.20877 -3.05219 0
M  V30 1627 C 151.633 -3.64625 -3.45476 0
M  V30 1628 C 153.627 -5.56151 -3.11408 0
M  V30 1629 C 151.314 -5.00032 -3.513 0
M  V30 1630 C 152.312 -5.95604 -3.34282 0
M  V30 1631 O 152 -7.28545 -3.3982 0
M  V30 1632 H 151.732 -0.401183 -0.544085 0
M  V30 1633 H 154.286 -1.67832 -1.18413 0
M  V30 1634 H 152.516 -1.16624 -3.68695 0
M  V30 1635 H 154.205 -1.58199 -3.73802 0
M  V30 1636 H 154.971 -3.90908 -2.87081 0
M  V30 1637 H 150.85 -2.90718 -3.57777 0
M  V30 1638 H 154.394 -6.30727 -2.98043 0
M  V30 1639 H 150.291 -5.29659 -3.68959 0
M  V30 1640 H 151.059 -7.3686 -3.56343 0
M  V30 1641 N 153.722 1.14298 -1.08507 0
M  V30 1642 C 154.67 2.21483 -0.710483 0
M  V30 1643 C 155.664 1.66998 0.284234 0
M  V30 1644 O 156.87 1.79401 0.146692 0
M  V30 1645 H 153.245 0.721578 -0.211729 0
M  V30 1646 H 155.216 2.50348 -1.62384 0
M  V30 1647 C 153.965 3.4743 -0.137007 0
M  V30 1648 H 153.288 3.89686 -0.893592 0
M  V30 1649 H 154.728 4.2391 0.0872789 0
M  V30 1650 C 153.187 3.17548 1.12538 0
M  V30 1651 O 153.717 3.35437 2.21009 0
M  V30 1652 N 151.923 2.71499 1.03617 0
M  V30 1653 H 151.47 2.57143 0.153403 0
M  V30 1654 H 151.428 2.51881 1.88158 0
M  V30 1655 N 155.201 0.870884 1.31352 0
M  V30 1656 C 156.612 0.534714 1.78879 0
M  V30 1657 C 156.963 -0.948423 1.71754 0
M  V30 1658 O 156.088 -1.74055 1.28584 0
M  V30 1659 C 156.683 0.963839 3.24801 0
M  V30 1660 C 155.242 0.679311 3.70219 0
M  V30 1661 C 154.389 1.15465 2.52117 0
M  V30 1662 H 157.34 1.05651 1.18421 0
M  V30 1663 H 157.361 0.286892 3.79417 0
M  V30 1664 H 156.873 2.04332 3.29955 0
M  V30 1665 H 154.974 -0.388769 3.70566 0
M  V30 1666 H 155.087 1.25698 4.62317 0
M  V30 1667 H 153.451 0.574383 2.48139 0
M  V30 1668 H 154.234 2.24157 2.60016 0
M  V30 1669 N 156.679 -1.44442 0.630414 0
M  V30 1670 C 157.627 -2.32437 -0.0871428 0
M  V30 1671 C 158.621 -1.47304 -0.836525 0
M  V30 1672 O 159.827 -1.63653 -0.749506 0
M  V30 1673 H 156.202 -0.750533 -0.0469495 0
M  V30 1674 H 158.173 -2.90709 0.673096 0
M  V30 1675 C 156.922 -3.31288 -1.05563 0
M  V30 1676 H 156.245 -3.96805 -0.488426 0
M  V30 1677 H 157.685 -3.9554 -1.52721 0
M  V30 1678 C 156.144 -2.6016 -2.14052 0
M  V30 1679 O 156.674 -2.39997 -3.22124 0
M  V30 1680 N 154.88 -2.19911 -1.89967 0
M  V30 1681 H 154.427 -2.36509 -1.02085 0
M  V30 1682 H 154.385 -1.72646 -2.62756 0
M  V30 1683 N 158.157 -0.370918 -1.53173 0
M  V30 1684 C 159.405 0.216673 -2.00935 0
M  V30 1685 C 159.726 1.48845 -1.25977 0
M  V30 1686 O 158.996 1.92286 -0.374551 0
M  V30 1687 H 157.576 0.0830565 -0.742368 0
M  V30 1688 H 160.238 -0.49838 -1.8842 0
M  V30 1689 H 159.334 0.439893 -3.08984 0
M  V30 1690 N 159.635 1.57281 -0.100228 0
M  V30 1691 C 160.583 2.15542 0.874328 0
M  V30 1692 C 161.577 1.09962 1.28859 0
M  V30 1693 O 162.783 1.28298 1.26252 0
M  V30 1694 H 159.158 0.689567 0.300003 0
M  V30 1695 H 161.129 2.96241 0.35829 0
M  V30 1696 C 159.878 2.75454 2.1218 0
M  V30 1697 H 159.201 3.56384 1.81193 0
M  V30 1698 H 160.641 3.19781 2.78417 0
M  V30 1699 C 159.1 1.71602 2.89921 0
M  V30 1700 O 159.63 1.15804 3.84646 0
M  V30 1701 N 157.836 1.41975 2.53558 0
M  V30 1702 H 157.383 1.87539 1.76598 0
M  V30 1703 H 157.341 0.727274 3.05873 0
M  V30 1704 N 161.113 -0.173488 1.56642 0
M  V30 1705 C 162.338 -0.910149 1.86363 0
M  V30 1706 C 162.763 -1.75132 0.686318 0
M  V30 1707 O 162.121 -1.77595 -0.364643 0
M  V30 1708 C 162.169 -1.76447 3.14482 0
M  V30 1709 O 161.273 -2.86584 2.96553 0
M  V30 1710 H 160.614 -0.255086 0.613047 0
M  V30 1711 H 163.144 -0.172283 2.03873 0
M  V30 1712 H 163.154 -2.16483 3.45831 0
M  V30 1713 H 161.829 -1.14658 3.99783 0
M  V30 1714 H 160.406 -2.50146 2.76553 0
M  V30 1715 N 162.591 -1.51276 -0.441967 0
M  V30 1716 C 163.821 -1.67273 -1.21257 0
M  V30 1717 C 164.229 -0.367624 -1.85594 0
M  V30 1718 O 163.572 0.663349 -1.71305 0
M  V30 1719 C 163.634 -2.72807 -2.34129 0
M  V30 1720 C 163.298 -4.1554 -1.90198 0
M  V30 1721 C 164.295 -5.00471 -1.40801 0
M  V30 1722 C 161.98 -4.61616 -1.9803 0
M  V30 1723 C 163.974 -6.29536 -0.998174 0
M  V30 1724 C 161.661 -5.90679 -1.56658 0
M  V30 1725 C 162.659 -6.74466 -1.07633 0
M  V30 1726 O 162.347 -8.01116 -0.668459 0
M  V30 1727 H 162.079 -0.564614 -0.371734 0
M  V30 1728 H 164.633 -1.9843 -0.530521 0
M  V30 1729 H 162.863 -2.36954 -3.05597 0
M  V30 1730 H 164.552 -2.77729 -2.96009 0
M  V30 1731 H 165.318 -4.66079 -1.34148 0
M  V30 1732 H 161.197 -3.96526 -2.35135 0
M  V30 1733 H 164.741 -6.94885 -0.61482 0
M  V30 1734 H 160.638 -6.24586 -1.62979 0
M  V30 1735 H 161.406 -8.14633 -0.794722 0
M  V30 1736 N 164.069 0.697108 -1.41344 0
M  V30 1737 C 164.999 1.82353 -1.45841 0
M  V30 1738 C 165.98 1.67115 -0.317247 0
M  V30 1739 O 167.165 1.86871 -0.528474 0
M  V30 1740 C 164.295 3.20476 -1.33838 0
M  V30 1741 C 163.249 3.50415 -2.4575 0
M  V30 1742 C 162.575 4.87878 -2.18813 0
M  V30 1743 C 163.875 3.49546 -3.88091 0
M  V30 1744 H 165.569 1.78846 -2.40113 0
M  V30 1745 H 163.115 0.859028 -1.15571 0
M  V30 1746 H 165.068 3.98988 -1.35596 0
M  V30 1747 H 163.792 3.24604 -0.360498 0
M  V30 1748 H 162.451 2.74253 -2.43271 0
M  V30 1749 H 162.099 4.8863 -1.19371 0
M  V30 1750 H 161.799 5.08875 -2.93803 0
M  V30 1751 H 163.323 5.68702 -2.22284 0
M  V30 1752 H 164.737 4.18066 -3.92293 0
M  V30 1753 H 163.134 3.82075 -4.62751 0
M  V30 1754 H 164.204 2.48552 -4.16353 0
M  V30 1755 N 165.547 1.27147 0.931209 0
M  V30 1756 C 166.787 1.14511 1.69312 0
M  V30 1757 C 167.151 -0.304638 1.89568 0
M  V30 1758 O 168.352 -0.553343 2.63043 0
M  V30 1759 C 166.623 1.90349 3.02493 0
M  V30 1760 S 168.182 1.93884 3.93642 0
M  V30 1761 H 165 0.408858 0.581684 0
M  V30 1762 H 167.602 1.61006 1.10893 0
M  V30 1763 H 166.306 2.94877 2.85439 0
M  V30 1764 H 165.837 1.44333 3.65966 0
M  V30 1765 H 167.852 1.03273 4.85334 0
M  V30 1766 N 167.025 -1.13721 1.09112 0
M  V30 1767 C 168.271 -1.85198 0.826414 0
M  V30 1768 C 168.604 -1.83129 -0.646319 0
M  V30 1769 O 167.879 -1.2671 -1.47563 0
M  V30 1770 C 168.162 -3.33507 1.35812 0
M  V30 1771 C 168.015 -3.44108 2.89672 0
M  V30 1772 C 169.334 -4.28838 0.989256 0
M  V30 1773 H 166.453 -0.67243 0.301675 0
M  V30 1774 H 169.095 -1.33499 1.35197 0
M  V30 1775 H 167.245 -3.77666 0.911082 0
M  V30 1776 H 168.917 -3.08684 3.428 0
M  V30 1777 H 167.16 -2.85087 3.26967 0
M  V30 1778 H 167.831 -4.48388 3.21951 0
M  V30 1779 H 170.307 -3.92734 1.37475 0
M  V30 1780 H 169.183 -5.31051 1.38838 0
M  V30 1781 H 169.444 -4.4198 -0.102924 0
M  V30 1782 N 168.503 -0.877838 -1.30888 0
M  V30 1783 C 169.733 -0.506678 -2.00291 0
M  V30 1784 C 170.141 0.907449 -1.66018 0
M  V30 1785 O 169.484 1.60719 -0.88967 0
M  V30 1786 C 169.546 -0.59323 -3.54572 0
M  V30 1787 C 169.21 -1.97038 -4.12341 0
M  V30 1788 C 170.207 -2.93889 -4.28865 0
M  V30 1789 C 167.892 -2.27383 -4.47886 0
M  V30 1790 C 169.886 -4.19224 -4.80136 0
M  V30 1791 C 167.573 -3.52965 -4.98857 0
M  V30 1792 C 168.571 -4.48701 -5.14934 0
M  V30 1793 O 168.259 -5.72056 -5.64808 0
M  V30 1794 H 167.991 -0.1951 -0.647234 0
M  V30 1795 H 170.545 -1.18301 -1.6791 0
M  V30 1796 H 168.775 0.140057 -3.86446 0
M  V30 1797 H 170.464 -0.234372 -4.05223 0
M  V30 1798 H 171.23 -2.71756 -4.01714 0
M  V30 1799 H 167.109 -1.53639 -4.34645 0
M  V30 1800 H 170.653 -4.93956 -4.92599 0
M  V30 1801 H 166.55 -3.74939 -5.25443 0
M  V30 1802 H 167.318 -5.74337 -5.83163 0
M  V30 1803 N 169.982 1.44106 -0.638065 0
M  V30 1804 C 171.23 2.01579 -0.145043 0
M  V30 1805 C 171.551 1.50496 1.24 0
M  V30 1806 O 170.821 0.711374 1.82527 0
M  V30 1807 H 169.401 0.745282 -0.05063 0
M  V30 1808 H 172.063 1.76516 -0.826327 0
M  V30 1809 H 171.159 3.11877 -0.118039 0
M  V30 1810 N 171.46 0.379036 1.52974 0
M  V30 1811 C 172.706 -0.199244 2.02422 0
M  V30 1812 C 173.061 -1.4532 1.26095 0
M  V30 1813 O 172.354 -1.88377 0.34996 0
M  V30 1814 C 172.548 -0.53096 3.53434 0
M  V30 1815 C 172.377 0.689298 4.44386 0
M  V30 1816 C 171.147 1.20546 4.9071 0
M  V30 1817 C 173.345 1.55856 4.90116 0
M  V30 1818 N 171.327 2.38434 5.65705 0
M  V30 1819 C 172.698 2.58396 5.63588 0
M  V30 1820 C 174.753 1.57986 4.7217 0
M  V30 1821 C 173.456 3.62939 6.21022 0
M  V30 1822 C 175.482 2.6143 5.30479 0
M  V30 1823 C 174.844 3.62693 6.03849 0
M  V30 1824 H 170.943 -0.0352671 0.781204 0
M  V30 1825 H 173.527 0.526614 1.87443 0
M  V30 1826 H 171.698 -1.22588 3.68547 0
M  V30 1827 H 173.43 -1.0955 3.89591 0
M  V30 1828 H 170.185 0.768022 4.67331 0
M  V30 1829 H 170.609 2.98055 6.07859 0
M  V30 1830 H 175.251 0.810475 4.14959 0
M  V30 1831 H 172.969 4.40751 6.77321 0
M  V30 1832 H 176.555 2.63949 5.18481 0
M  V30 1833 H 175.435 4.41424 6.48163 0
M  V30 1834 N 172.938 -1.57226 0.108567 0
M  V30 1835 C 174.166 -1.99179 -0.559954 0
M  V30 1836 C 174.581 -0.988022 -1.60884 0
M  V30 1837 O 173.938 0.0205512 -1.82488 0
M  V30 1838 C 173.989 -3.41159 -1.19552 0
M  V30 1839 O 173.71 -4.37694 -0.188577 0
M  V30 1840 C 175.211 -3.98188 -1.94837 0
M  V30 1841 H 172.431 -0.654228 -0.149088 0
M  V30 1842 H 174.975 -2.03598 0.19183 0
M  V30 1843 H 173.13 -3.37711 -1.89815 0
M  V30 1844 H 173.544 -5.20469 -0.649014 0
M  V30 1845 H 175.018 -4.99644 -2.34648 0
M  V30 1846 H 175.495 -3.3675 -2.81951 0
M  V30 1847 H 176.101 -4.0515 -1.2936 0
M  V30 1848 N 174.416 0.165178 -1.56732 0
M  V30 1849 C 175.832 0.517174 -1.50988 0
M  V30 1850 C 176.032 1.84331 -0.813894 0
M  V30 1851 O 175.088 2.49672 -0.37682 0
M  V30 1852 C 176.401 0.544261 -2.95733 0
M  V30 1853 C 177.949 0.631039 -3.06573 0
M  V30 1854 C 178.424 0.68896 -4.52788 0
M  V30 1855 N 179.915 0.751683 -4.5706 0
M  V30 1856 C 180.65 0.817177 -5.67547 0
M  V30 1857 N 180.146 0.843129 -6.8765 0
M  V30 1858 N 181.939 0.856668 -5.55534 0
M  V30 1859 H 174.09 -0.704318 -2.00382 0
M  V30 1860 H 176.353 -0.254687 -0.913148 0
M  V30 1861 H 176.059 -0.361607 -3.49836 0
M  V30 1862 H 175.933 1.3886 -3.5071 0
M  V30 1863 H 178.32 1.52733 -2.52501 0
M  V30 1864 H 178.401 -0.240095 -2.54671 0
M  V30 1865 H 178.045 -0.2031 -5.07494 0
M  V30 1866 H 177.975 1.57633 -5.02454 0
M  V30 1867 H 180.466 0.739661 -3.70591 0
M  V30 1868 H 180.779 0.894448 -7.67606 0
M  V30 1869 H 179.124 0.811304 -6.90248 0
M  V30 1870 H 182.315 0.833437 -4.60621 0
M  V30 1871 H 182.488 0.904247 -6.4166 0
M  V30 1872 N 175.894 1.51508 0.433938 0
M  V30 1873 C 176.842 1.73646 1.54757 0
M  V30 1874 C 177.836 0.602854 1.5831 0
M  V30 1875 O 179.042 0.784318 1.62014 0
M  V30 1876 H 175.417 0.548718 0.51421 0
M  V30 1877 H 177.388 2.66991 1.33261 0
M  V30 1878 C 176.137 1.88172 2.92381 0
M  V30 1879 H 175.46 2.74808 2.90381 0
M  V30 1880 H 176.9 2.07672 3.6966 0
M  V30 1881 C 175.359 0.64239 3.30719 0
M  V30 1882 O 175.889 -0.201362 4.01195 0
M  V30 1883 N 174.095 0.485489 2.86516 0
M  V30 1884 H 173.642 1.17318 2.29334 0
M  V30 1885 H 173.6 -0.342482 3.12529 0
M  V30 1886 N 177.372 -0.689602 1.41712 0
M  V30 1887 C 178.783 -1.26973 1.36875 0
M  V30 1888 C 179.134 -1.96124 0.054748 0
M  V30 1889 O 178.259 -1.99141 -0.84687 0
M  V30 1890 C 178.854 -2.30912 2.47922 0
M  V30 1891 C 177.413 -2.84486 2.46464 0
M  V30 1892 C 176.56 -1.58603 2.27465 0
M  V30 1893 H 179.511 -0.48396 1.51141 0
M  V30 1894 H 179.532 -3.12331 2.17323 0
M  V30 1895 H 179.044 -1.80554 3.43543 0
M  V30 1896 H 177.145 -3.39005 1.54617 0
M  V30 1897 H 177.258 -3.34511 3.42986 0
M  V30 1898 H 175.622 -1.84632 1.75451 0
M  V30 1899 H 176.405 -1.10233 3.25121 0
M  V30 1900 N 178.85 -1.27639 -0.924453 0
M  V30 1901 C 179.78 -1.13166 -2.04244 0
M  V30 1902 C 180.761 -0.032256 -1.70069 0
M  V30 1903 O 181.946 -0.207328 -1.9309 0
M  V30 1904 C 179.076 -0.781496 -3.38393 0
M  V30 1905 C 178.03 -1.83449 -3.86692 0
M  V30 1906 C 177.356 -1.33822 -5.17683 0
M  V30 1907 C 178.656 -3.23917 -4.09726 0
M  V30 1908 H 180.35 -2.06689 -2.1661 0
M  V30 1909 H 177.896 -0.995136 -1.04082 0
M  V30 1910 H 179.849 -0.667057 -4.16087 0
M  V30 1911 H 178.573 0.189439 -3.2605 0
M  V30 1912 H 177.232 -1.93789 -3.11193 0
M  V30 1913 H 176.88 -0.35665 -5.01734 0
M  V30 1914 H 176.58 -2.04224 -5.50968 0
M  V30 1915 H 178.104 -1.23679 -5.97943 0
M  V30 1916 H 179.518 -3.16559 -4.77978 0
M  V30 1917 H 177.915 -3.92059 -4.54324 0
M  V30 1918 H 178.985 -3.68729 -3.14908 0
M  V30 1919 N 180.328 1.1314 -1.09713 0
M  V30 1920 C 181.574 1.84757 -0.836224 0
M  V30 1921 C 181.907 1.8347 0.636598 0
M  V30 1922 O 181.182 1.27491 1.46889 0
M  V30 1923 C 181.465 3.32782 -1.37578 0
M  V30 1924 C 181.318 3.42567 -2.91493 0
M  V30 1925 C 182.637 4.28307 -1.01198 0
M  V30 1926 H 179.756 0.67082 -0.305236 0
M  V30 1927 H 182.398 1.3278 -1.35903 0
M  V30 1928 H 180.548 3.77177 -0.931097 0
M  V30 1929 H 182.22 3.06862 -3.44432 0
M  V30 1930 H 180.463 2.83349 -3.28475 0
M  V30 1931 H 181.134 4.46674 -3.24324 0
M  V30 1932 H 183.61 3.91999 -1.39556 0
M  V30 1933 H 182.486 5.30307 -1.41653 0
M  V30 1934 H 182.747 4.42029 0.0794833 0
M  V30 1935 N 181.806 0.884767 1.30421 0
M  V30 1936 C 182.716 0.355398 2.31892 0
M  V30 1937 C 183.732 -0.542261 1.65335 0
M  V30 1938 O 184.908 -0.435432 1.96637 0
M  V30 1939 C 181.973 -0.421661 3.44126 0
M  V30 1940 C 181.034 0.505727 4.26311 0
M  V30 1941 C 180.267 -0.234343 5.33185 0
M  V30 1942 O 180.49 -1.46045 5.51386 0
M  V30 1943 O 179.424 0.415443 6.00465 0
M  V30 1944 H 183.25 1.19685 2.79122 0
M  V30 1945 H 180.835 0.648596 1.34587 0
M  V30 1946 H 182.717 -0.861641 4.12497 0
M  V30 1947 H 181.392 -1.23942 2.99032 0
M  V30 1948 H 180.299 0.994513 3.60639 0
M  V30 1949 H 181.632 1.28948 4.75009 0
M  V30 1950 N 183.284 -1.43765 0.645699 0
M  V30 1951 C 184.514 -2.05953 0.163318 0
M  V30 1952 C 184.922 -1.48432 -1.17322 0
M  V30 1953 O 184.265 -0.607295 -1.73371 0
M  V30 1954 C 184.327 -3.59499 -0.0103065 0
M  V30 1955 C 183.991 -4.39563 1.25035 0
M  V30 1956 C 184.988 -4.72108 2.17739 0
M  V30 1957 C 182.673 -4.79697 1.48983 0
M  V30 1958 C 184.667 -5.43688 3.3269 0
M  V30 1959 C 182.354 -5.51023 2.64229 0
M  V30 1960 C 183.352 -5.8294 3.55908 0
M  V30 1961 O 183.04 -6.5281 4.69142 0
M  V30 1962 H 182.772 -0.670798 0.0836986 0
M  V30 1963 H 185.326 -1.85384 0.884407 0
M  V30 1964 H 183.556 -3.78613 -0.78669 0
M  V30 1965 H 185.245 -4.03408 -0.449087 0
M  V30 1966 H 186.011 -4.41627 2.00476 0
M  V30 1967 H 181.89 -4.54266 0.785078 0
M  V30 1968 H 185.434 -5.68517 4.04269 0
M  V30 1969 H 181.331 -5.8092 2.81429 0
M  V30 1970 H 182.099 -6.71288 4.6831 0
M  V30 1971 N 184.763 -0.387143 -1.52771 0
M  V30 1972 C 185.993 0.195585 -2.05672 0
M  V30 1973 C 186.401 1.41241 -1.25887 0
M  V30 1974 O 185.744 1.81265 -0.298081 0
M  V30 1975 C 185.806 0.632327 -3.53895 0
M  V30 1976 C 185.47 -0.470739 -4.54569 0
M  V30 1977 C 186.467 -1.32746 -5.02667 0
M  V30 1978 C 184.152 -0.637151 -4.98243 0
M  V30 1979 C 186.146 -2.33574 -5.93061 0
M  V30 1980 C 183.833 -1.64877 -5.88438 0
M  V30 1981 C 184.831 -2.49649 -6.35739 0
M  V30 1982 O 184.519 -3.49082 -7.24153 0
M  V30 1983 H 184.251 0.033658 -0.675162 0
M  V30 1984 H 186.805 -0.550221 -1.97893 0
M  V30 1985 H 185.035 1.43008 -3.59285 0
M  V30 1986 H 186.724 1.14048 -3.89548 0
M  V30 1987 H 187.49 -1.21019 -4.69659 0
M  V30 1988 H 183.369 0.0129567 -4.60998 0
M  V30 1989 H 186.913 -2.99777 -6.29904 0
M  V30 1990 H 182.81 -1.76643 -6.2086 0
M  V30 1991 H 183.578 -3.45065 -7.42208 0
M  V30 1992 N 186.241 1.57166 -0.116904 0
M  V30 1993 C 187.49 1.94298 0.541407 0
M  V30 1994 C 187.803 1.00236 1.67964 0
M  V30 1995 O 189.009 1.26826 2.40057 0
M  V30 1996 C 187.465 3.45306 1.01449 0
M  V30 1997 C 187.073 4.47899 -0.0951738 0
M  V30 1998 C 188.817 3.91361 1.6443 0
M  V30 1999 C 186.724 5.90083 0.394491 0
M  V30 2000 H 185.654 0.725308 0.206019 0
M  V30 2001 H 188.305 1.82446 -0.196419 0
M  V30 2002 H 186.687 3.52385 1.80667 0
M  V30 2003 H 187.861 4.52486 -0.871374 0
M  V30 2004 H 186.176 4.11583 -0.631505 0
M  V30 2005 H 188.773 4.95004 2.02176 0
M  V30 2006 H 189.116 3.3122 2.52189 0
M  V30 2007 H 189.649 3.87073 0.917559 0
M  V30 2008 H 186.388 6.53974 -0.447004 0
M  V30 2009 H 185.908 5.88921 1.13722 0
M  V30 2010 H 187.587 6.41307 0.856399 0
M  V30 2011 N 187.719 -0.156864 1.56817 0
M  V30 2012 C 188.965 -0.872416 1.83076 0
M  V30 2013 C 189.298 -1.81261 0.697001 0
M  V30 2014 O 188.573 -1.92171 -0.30008 0
M  V30 2015 C 188.856 -1.65551 3.19789 0
M  V30 2016 C 188.709 -0.737467 4.43713 0
M  V30 2017 C 190.028 -2.62012 3.53606 0
M  V30 2018 H 187.147 -0.315715 0.665953 0
M  V30 2019 H 189.789 -0.138004 1.89498 0
M  V30 2020 H 187.939 -2.28159 3.14445 0
M  V30 2021 H 189.611 -0.123143 4.61136 0
M  V30 2022 H 187.854 -0.0464067 4.33775 0
M  V30 2023 H 188.525 -1.32122 5.35955 0
M  V30 2024 H 191.001 -2.09525 3.59497 0
M  V30 2025 H 189.877 -3.13861 4.50314 0
M  V30 2026 H 190.138 -3.42902 2.79053 0
M  V30 2027 N 189.197 -1.51736 -0.425897 0
M  V30 2028 C 190.107 -1.76738 -1.54275 0
M  V30 2029 C 191.123 -0.65211 -1.61318 0
M  V30 2030 O 192.299 -0.935654 -1.78346 0
M  V30 2031 C 189.364 -1.89755 -2.90162 0
M  V30 2032 C 188.425 -3.13633 -2.93143 0
M  V30 2033 C 187.658 -3.2602 -4.22548 0
M  V30 2034 O 187.881 -2.44067 -5.15546 0
M  V30 2035 O 186.815 -4.19071 -4.32046 0
M  V30 2036 H 190.641 -2.71502 -1.36089 0
M  V30 2037 H 188.226 -1.36376 -0.610069 0
M  V30 2038 H 190.108 -2.00236 -3.70788 0
M  V30 2039 H 188.783 -0.981785 -3.08452 0
M  V30 2040 H 187.69 -3.08622 -2.11431 0
M  V30 2041 H 189.023 -4.04936 -2.798 0
M  V30 2042 N 190.675 0.682077 -1.42076 0
M  V30 2043 C 191.9 1.47558 -1.45744 0
M  V30 2044 C 192.325 1.87977 -0.0680981 0
M  V30 2045 O 191.683 1.55522 0.9318 0
M  V30 2046 C 191.731 2.70575 -2.38373 0
M  V30 2047 O 190.835 3.68573 -1.85007 0
M  V30 2048 H 190.176 0.443585 -0.494093 0
M  V30 2049 H 192.706 0.837238 -1.86686 0
M  V30 2050 H 192.716 3.18729 -2.54707 0
M  V30 2051 H 191.391 2.40495 -3.39315 0
M  V30 2052 H 189.968 3.2757 -1.78192 0
M  V30 2053 N 192.153 1.28127 0.917671 0
M  V30 2054 C 193.399 1.16232 1.66918 0
M  V30 2055 C 193.754 -0.28701 1.90247 0
M  V30 2056 O 193.047 -1.20586 1.48895 0
M  V30 2057 C 193.241 1.89018 3.03327 0
M  V30 2058 C 193.07 3.4088 2.9331 0
M  V30 2059 C 191.84 4.10214 2.95047 0
M  V30 2060 C 194.038 4.36689 2.71675 0
M  V30 2061 N 192.02 5.48571 2.75577 0
M  V30 2062 C 193.391 5.62382 2.6101 0
M  V30 2063 C 195.446 4.26661 2.56641 0
M  V30 2064 C 194.149 6.79189 2.36843 0
M  V30 2065 C 196.175 5.432 2.33853 0
M  V30 2066 C 195.537 6.67855 2.23939 0
M  V30 2067 H 191.636 0.48024 0.617166 0
M  V30 2068 H 194.22 1.61727 1.08409 0
M  V30 2069 H 192.391 1.45963 3.59929 0
M  V30 2070 H 194.123 1.69541 3.67475 0
M  V30 2071 H 190.878 3.61762 3.05655 0
M  V30 2072 H 191.302 6.21287 2.68945 0
M  V30 2073 H 195.944 3.30998 2.63059 0
M  V30 2074 H 193.662 7.74926 2.29164 0
M  V30 2075 H 197.248 5.37328 2.23091 0
M  V30 2076 H 196.128 7.56511 2.06546 0
M  V30 2077 N 193.631 -1.12557 1.10312 0
M  V30 2078 C 194.879 -1.83675 0.843091 0
M  V30 2079 C 195.2 -1.84435 -0.633131 0
M  V30 2080 O 194.47 -1.30657 -1.45964 0
M  V30 2081 H 193.05 -0.680138 0.308904 0
M  V30 2082 H 195.712 -1.36301 1.39313 0
M  V30 2083 H 194.808 -2.87908 1.2048 0
M  V30 2084 N 195.109 -0.891671 -1.2995 0
M  V30 2085 C 196.334 -0.527932 -2.00568 0
M  V30 2086 C 196.759 0.877969 -1.66353 0
M  V30 2087 O 196.117 1.58301 -0.883762 0
M  V30 2088 C 196.165 -0.717745 -3.53385 0
M  V30 2089 O 195.269 0.233376 -4.11739 0
M  V30 2090 H 194.61 -0.20722 -0.630837 0
M  V30 2091 H 197.14 -1.20105 -1.65638 0
M  V30 2092 H 197.15 -0.619307 -4.03272 0
M  V30 2093 H 195.825 -1.74276 -3.77625 0
M  V30 2094 H 194.402 0.0880706 -3.72796 0
M  V30 2095 N 196.587 1.43421 -0.653314 0
M  V30 2096 C 197.833 2.02641 -0.175593 0
M  V30 2097 C 198.188 1.5062 1.19713 0
M  V30 2098 O 197.481 0.689697 1.78756 0
M  V30 2099 C 197.675 3.57176 -0.126623 0
M  V30 2100 C 197.504 4.24191 -1.49306 0
M  V30 2101 C 196.274 4.60257 -2.08547 0
M  V30 2102 C 198.472 4.53193 -2.43148 0
M  V30 2103 N 196.454 5.12345 -3.38194 0
M  V30 2104 C 197.825 5.06601 -3.57429 0
M  V30 2105 C 199.88 4.35161 -2.41949 0
M  V30 2106 C 198.583 5.43875 -4.70736 0
M  V30 2107 C 200.609 4.73498 -3.54336 0
M  V30 2108 C 199.971 5.27039 -4.67343 0
M  V30 2109 H 196.07 0.77441 -0.108686 0
M  V30 2110 H 198.654 1.74596 -0.861638 0
M  V30 2111 H 196.825 3.84784 0.528766 0
M  V30 2112 H 198.557 4.03078 0.36198 0
M  V30 2113 H 195.312 4.45302 -1.61255 0
M  V30 2114 H 195.736 5.42842 -4.04538 0
M  V30 2115 H 200.378 3.9304 -1.55818 0
M  V30 2116 H 198.096 5.8494 -5.57558 0
M  V30 2117 H 201.682 4.61241 -3.5461 0
M  V30 2118 H 200.562 5.56153 -5.52868 0
M  V30 2119 N 198.065 0.39524 1.52563 0
M  V30 2120 C 199.481 0.0454682 1.59535 0
M  V30 2121 C 199.681 -1.44056 1.4089 0
M  V30 2122 O 198.737 -2.20579 1.22888 0
M  V30 2123 C 200.05 0.527963 2.96029 0
M  V30 2124 C 201.598 0.484733 3.09224 0
M  V30 2125 C 202.073 0.943512 4.48176 0
M  V30 2126 N 203.564 0.899765 4.54377 0
M  V30 2127 C 204.299 1.22609 5.60138 0
M  V30 2128 N 203.795 1.62319 6.73516 0
M  V30 2129 N 205.588 1.14696 5.50274 0
M  V30 2130 H 197.739 1.36261 1.62931 0
M  V30 2131 H 200.002 0.558887 0.765735 0
M  V30 2132 H 199.708 1.56607 3.14908 0
M  V30 2133 H 199.582 -0.0698056 3.77135 0
M  V30 2134 H 201.969 -0.544298 2.90037 0
M  V30 2135 H 202.05 1.11838 2.30056 0
M  V30 2136 H 201.694 1.9708 4.68104 0
M  V30 2137 H 201.624 0.286817 5.25818 0
M  V30 2138 H 204.115 0.607632 3.72983 0
M  V30 2139 H 204.428 1.85567 7.5019 0
M  V30 2140 H 202.773 1.66211 6.74833 0
M  V30 2141 H 205.964 0.835701 4.6058 0
M  V30 2142 H 206.137 1.40459 6.32594 0
M  V30 2143 N 199.544 -1.57102 0.125237 0
M  V30 2144 C 200.955 -1.82384 -0.399142 0
M  V30 2145 C 201.306 -1.04276 -1.66195 0
M  V30 2146 O 200.431 -0.281269 -2.14564 0
M  V30 2147 C 201.026 -3.30821 -0.730932 0
M  V30 2148 C 199.585 -3.56762 -1.19992 0
M  V30 2149 C 198.732 -2.7649 -0.211792 0
M  V30 2150 H 201.683 -1.54786 0.350277 0
M  V30 2151 H 201.704 -3.4579 -1.58775 0
M  V30 2152 H 201.216 -3.87643 0.188345 0
M  V30 2153 H 199.317 -3.05305 -2.13588 0
M  V30 2154 H 199.43 -4.65317 -1.14093 0
M  V30 2155 H 197.794 -2.4489 -0.700085 0
M  V30 2156 H 198.577 -3.36073 0.700691 0
M  V30 2157 N 201.022 0.148545 -1.56898 0
M  V30 2158 C 202.433 0.708766 -1.72723 0
M  V30 2159 C 202.784 1.81734 -0.739395 0
M  V30 2160 O 201.909 2.16194 0.0943169 0
M  V30 2161 C 202.504 1.29245 -3.13179 0
M  V30 2162 C 201.063 1.79925 -3.30611 0
M  V30 2163 C 200.21 0.687111 -2.68652 0
M  V30 2164 H 203.161 -0.0771063 -1.58513 0
M  V30 2165 H 203.182 2.16224 -3.13093 0
M  V30 2166 H 202.694 0.485382 -3.85053 0
M  V30 2167 H 200.795 2.63203 -2.63732 0
M  V30 2168 H 200.908 1.92903 -4.38549 0
M  V30 2169 H 199.272 1.11335 -2.29078 0
M  V30 2170 H 200.055 -0.108483 -3.43129 0
M  V30 2171 N 202.5 1.5196 0.417844 0
M  V30 2172 C 203.748 1.65263 1.16329 0
M  V30 2173 C 204.069 0.380634 1.91249 0
M  V30 2174 O 203.339 -0.604214 1.86349 0
M  V30 2175 H 201.919 0.60912 0.432414 0
M  V30 2176 H 204.581 1.88969 0.477162 0
M  V30 2177 H 203.677 2.4896 1.88217 0
M  V30 2178 N 203.978 -0.674533 1.42435 0
M  V30 2179 C 204.941 -1.76986 1.45632 0
M  V30 2180 C 205.941 -1.5708 0.343871 0
M  V30 2181 O 207.131 -1.63367 0.604709 0
M  V30 2182 C 204.263 -3.15623 1.28822 0
M  V30 2183 H 205.456 -1.75539 2.43158 0
M  V30 2184 H 203.009 -0.884189 1.28887 0
M  V30 2185 H 203.744 -3.22696 0.322193 0
M  V30 2186 H 203.529 -3.31475 2.09444 0
M  V30 2187 H 205.019 -3.95537 1.33942 0
M  V30 2188 N 205.456 -1.28612 -0.910864 0
M  V30 2189 C 206.684 -1.18792 -1.69399 0
M  V30 2190 C 207.099 0.253039 -1.87097 0
M  V30 2191 O 206.456 1.17071 -1.40003 0
M  V30 2192 C 206.507 -1.88511 -3.08457 0
M  V30 2193 O 206.228 -3.26979 -2.91576 0
M  V30 2194 C 207.729 -1.85029 -4.02839 0
M  V30 2195 H 204.949 -0.412233 -0.529438 0
M  V30 2196 H 207.493 -1.69788 -1.13984 0
M  V30 2197 H 205.648 -1.41379 -3.60681 0
M  V30 2198 H 206.062 -3.61936 -3.79608 0
M  V30 2199 H 207.536 -2.38395 -4.97867 0
M  V30 2200 H 208.013 -0.823303 -4.31414 0
M  V30 2201 H 208.619 -2.31853 -3.56545 0
M  V30 2202 N 206.934 1.1197 -1.10907 0
M  V30 2203 C 208.345 1.65114 -0.871446 0
M  V30 2204 C 208.696 1.86885 0.597353 0
M  V30 2205 O 207.821 1.59896 1.45816 0
M  V30 2206 C 208.416 2.99944 -1.5754 0
M  V30 2207 C 206.975 3.50018 -1.38435 0
M  V30 2208 C 206.122 2.24941 -1.62164 0
M  V30 2209 H 209.073 0.956851 -1.2661 0
M  V30 2210 H 209.094 3.66651 -1.01721 0
M  V30 2211 H 208.606 2.84067 -2.64438 0
M  V30 2212 H 206.707 3.71071 -0.337214 0
M  V30 2213 H 206.82 4.29165 -2.12965 0
M  V30 2214 H 205.184 2.3229 -1.04467 0
M  V30 2215 H 205.967 2.11612 -2.70324 0
M  V30 2216 N 208.412 0.89855 1.29475 0
M  V30 2217 C 209.359 0.373819 2.27753 0
M  V30 2218 C 210.329 -0.543444 1.56958 0
M  V30 2219 O 211.514 -0.468934 1.84948 0
M  V30 2220 C 208.654 -0.393648 3.42848 0
M  V30 2221 C 207.767 0.554379 4.28428 0
M  V30 2222 C 206.902 -0.230026 5.30702 0
M  V30 2223 C 205.941 0.712599 6.07938 0
M  V30 2224 N 205.078 -0.0373283 7.0209 0
M  V30 2225 H 209.918 1.21699 2.72017 0
M  V30 2226 H 207.455 0.611456 1.33789 0
M  V30 2227 H 209.413 -0.85466 4.08352 0
M  V30 2228 H 208.043 -1.20128 2.99615 0
M  V30 2229 H 207.095 1.13391 3.63107 0
M  V30 2230 H 208.407 1.27597 4.82204 0
M  V30 2231 H 207.561 -0.752288 6.02018 0
M  V30 2232 H 206.3 -0.984758 4.77654 0
M  V30 2233 H 205.305 1.24637 5.35486 0
M  V30 2234 H 206.53 1.46664 6.63074 0
M  V30 2235 H 204.476 -0.774348 6.51414 0
M  V30 2236 H 204.393 0.624374 7.53417 0
M  V30 2237 H 205.661 -0.539891 7.77628 0
M  V30 2238 N 209.89 -1.43072 0.660911 0
M  V30 2239 C 211.138 -2.01323 0.177094 0
M  V30 2240 C 211.459 -1.5245 -1.2159 0
M  V30 2241 O 210.729 -0.740322 -1.81373 0
M  V30 2242 H 209.309 -0.744382 0.0624804 0
M  V30 2243 H 211.971 -1.75179 0.854305 0
M  V30 2244 H 211.067 -3.11649 0.167641 0
M  V30 2245 N 211.368 -0.403325 -1.52352 0
M  V30 2246 C 212.596 0.174012 -2.06167 0
M  V30 2247 C 213.011 1.39347 -1.27388 0
M  V30 2248 O 212.368 1.79597 -0.324201 0
M  V30 2249 C 212.419 0.530223 -3.5759 0
M  V30 2250 O 212.14 -0.640806 -4.33388 0
M  V30 2251 C 213.641 1.16192 -4.27802 0
M  V30 2252 H 210.861 0.0229464 -0.670608 0
M  V30 2253 H 213.405 -0.572604 -1.9632 0
M  V30 2254 H 211.56 1.22673 -3.67464 0
M  V30 2255 H 211.974 -0.344851 -5.23365 0
M  V30 2256 H 213.448 1.36141 -5.34948 0
M  V30 2257 H 213.925 2.13335 -3.83907 0
M  V30 2258 H 214.531 0.505775 -4.22282 0
M  V30 2259 N 212.846 1.57033 -0.133567 0
M  V30 2260 C 214.095 1.94861 0.520768 0
M  V30 2261 C 214.408 1.02012 1.66892 0
M  V30 2262 O 215.614 1.29365 2.38699 0
M  V30 2263 C 214.07 3.46362 0.977809 0
M  V30 2264 C 213.678 4.47773 -0.142674 0
M  V30 2265 C 215.422 3.93083 1.60269 0
M  V30 2266 C 213.329 5.90468 0.331883 0
M  V30 2267 H 212.259 0.727453 0.198315 0
M  V30 2268 H 214.91 1.82227 -0.215759 0
M  V30 2269 H 213.292 3.54282 1.7692 0
M  V30 2270 H 214.466 4.51536 -0.919317 0
M  V30 2271 H 212.781 4.10891 -0.675124 0
M  V30 2272 H 215.378 4.97121 1.96914 0
M  V30 2273 H 215.721 3.33876 2.48662 0
M  V30 2274 H 216.254 3.88025 0.876453 0
M  V30 2275 H 212.993 6.53463 -0.516341 0
M  V30 2276 H 212.513 5.90094 1.07469 0
M  V30 2277 H 214.192 6.42179 0.788332 0
M  V30 2278 N 214.325 -0.140222 1.56975 0
M  V30 2279 C 215.553 -0.866437 1.87884 0
M  V30 2280 C 215.968 -1.74428 0.722517 0
M  V30 2281 O 215.325 -1.79891 -0.30749 0
M  V30 2282 C 215.376 -1.71753 3.18093 0
M  V30 2283 O 215.097 -0.875056 4.29272 0
M  V30 2284 C 216.598 -2.55074 3.62563 0
M  V30 2285 H 213.818 -0.25019 0.622612 0
M  V30 2286 H 216.362 -0.130977 2.0408 0
M  V30 2287 H 214.517 -2.40598 3.03631 0
M  V30 2288 H 214.931 -1.46002 5.03769 0
M  V30 2289 H 216.405 -3.10356 4.5649 0
M  V30 2290 H 216.882 -3.31434 2.88181 0
M  V30 2291 H 217.488 -1.91509 3.79743 0
M  V30 2292 N 215.803 -1.52179 -0.40978 0
M  V30 2293 C 217.049 -1.66453 -1.15851 0
M  V30 2294 C 217.382 -0.392972 -1.90182 0
M  V30 2295 O 216.657 0.608579 -1.84734 0
M  V30 2296 C 216.94 -2.88612 -2.15349 0
M  V30 2297 C 216.793 -4.25815 -1.44918 0
M  V30 2298 C 218.112 -3.06294 -3.16026 0
M  V30 2299 H 215.231 -0.60575 -0.419805 0
M  V30 2300 H 217.873 -1.84732 -0.444314 0
M  V30 2301 H 216.023 -2.73158 -2.76255 0
M  V30 2302 H 217.695 -4.52995 -0.871365 0
M  V30 2303 H 215.938 -4.27247 -0.751159 0
M  V30 2304 H 216.609 -5.07337 -2.17516 0
M  V30 2305 H 219.085 -3.20641 -2.65195 0
M  V30 2306 H 217.961 -3.93283 -3.8291 0
M  V30 2307 H 218.222 -2.19579 -3.83715 0
M  V30 2308 N 217.281 0.66697 -1.42791 0
M  V30 2309 C 218.558 1.4234 -1.34159 0
M  V30 2310 C 218.938 2.11093 0.0172729 0
M  V30 2311 O 218.286 2.03808 1.03318 0
M  V30 2312 C 218.496 2.41942 -2.51526 0
M  V30 2313 C 219.844 3.06353 -2.93995 0
M  V30 2314 O 220.868 2.52269 -2.51473 0
M  V30 2315 O 219.727 4.04376 -3.67617 0
M  V30 2316 H 216.821 0.635277 -0.529483 0
M  V30 2317 H 219.367 0.695034 -1.54814 0
M  V30 2318 H 218.139 1.89991 -3.42081 0
M  V30 2319 H 217.762 3.22249 -2.32898 0
M  V30 2320 N 218.759 1.29093 0.90403 0
M  V30 2321 C 220.007 1.16583 1.65085 0
M  V30 2322 C 220.328 -0.283933 1.92922 0
M  V30 2323 O 219.598 -1.19509 1.55224 0
M  V30 2324 H 218.178 0.428467 0.611903 0
M  V30 2325 H 220.84 1.61959 1.08422 0
M  V30 2326 H 219.936 1.71266 2.6091 0
M  V30 2327 N 220.237 -1.11381 1.11499 0
M  V30 2328 C 221.485 -1.8277 0.862524 0
M  V30 2329 C 221.806 -1.85097 -0.613534 0
M  V30 2330 O 221.076 -1.32198 -1.4457 0
M  V30 2331 H 219.656 -0.676823 0.316101 0
M  V30 2332 H 222.318 -1.34816 1.4075 0
M  V30 2333 H 221.414 -2.86614 1.23527 0
M  V30 2334 N 221.715 -0.905404 -1.28997 0
M  V30 2335 C 222.943 -0.549846 -1.9946 0
M  V30 2336 C 223.358 0.866834 -1.67724 0
M  V30 2337 O 222.715 1.57298 -0.925404 0
M  V30 2338 C 222.766 -0.739387 -3.53858 0
M  V30 2339 O 222.487 -2.10031 -3.84472 0
M  V30 2340 C 223.988 -0.389541 -4.41585 0
M  V30 2341 H 221.208 -0.210429 -0.637151 0
M  V30 2342 H 223.752 -1.21632 -1.64396 0
M  V30 2343 H 221.907 -0.120023 -3.87214 0
M  V30 2344 H 222.321 -2.13385 -4.79132 0
M  V30 2345 H 223.795 -0.572972 -5.49018 0
M  V30 2346 H 224.272 0.673756 -4.34001 0
M  V30 2347 H 224.878 -0.986089 -4.1371 0
M  V30 2348 N 223.193 1.4272 -0.668489 0
M  V30 2349 C 224.423 2.05668 -0.196063 0
M  V30 2350 C 224.831 1.5028 1.14946 0
M  V30 2351 O 224.174 0.6348 1.72383 0
M  V30 2352 C 224.236 3.59469 -0.0468879 0
M  V30 2353 C 223.9 4.37518 -1.32012 0
M  V30 2354 C 224.897 4.68584 -2.25222 0
M  V30 2355 C 222.582 4.77266 -1.56596 0
M  V30 2356 C 224.576 5.38326 -3.41297 0
M  V30 2357 C 222.263 5.4675 -2.72962 0
M  V30 2358 C 223.261 5.77204 -3.65137 0
M  V30 2359 O 222.949 6.45264 -4.79468 0
M  V30 2360 H 222.681 0.669382 -0.0943599 0
M  V30 2361 H 225.235 1.83954 -0.913788 0
M  V30 2362 H 223.465 3.79817 0.726357 0
M  V30 2363 H 225.154 4.04071 0.384852 0
M  V30 2364 H 225.92 4.38382 -2.07477 0
M  V30 2365 H 221.799 4.52959 -0.857249 0
M  V30 2366 H 225.343 5.62014 -4.13263 0
M  V30 2367 H 221.24 5.76369 -2.90635 0
M  V30 2368 H 222.008 6.63753 -4.78931 0
M  V30 2369 N 224.671 0.411399 1.52136 0
M  V30 2370 C 225.581 -0.419774 2.30814 0
M  V30 2371 C 226.597 -1.0515 1.38634 0
M  V30 2372 O 227.773 -1.05252 1.71709 0
M  V30 2373 C 224.838 -1.52019 3.11594 0
M  V30 2374 C 223.899 -0.91129 4.19516 0
M  V30 2375 C 223.132 -1.95927 4.96436 0
M  V30 2376 O 223.355 -3.17775 4.73683 0
M  V30 2377 O 222.289 -1.56423 5.81219 0
M  V30 2378 H 226.115 0.221805 3.02889 0
M  V30 2379 H 223.7 0.174547 1.48377 0
M  V30 2380 H 225.582 -2.15898 3.61892 0
M  V30 2381 H 224.257 -2.14633 2.42311 0
M  V30 2382 H 223.164 -0.235157 3.7336 0
M  V30 2383 H 224.497 -0.32904 4.91099 0
M  V30 2384 N 226.149 -1.5696 0.141893 0
M  V30 2385 C 227.398 -1.95135 -0.510427 0
M  V30 2386 C 227.711 -1.02896 -1.66348 0
M  V30 2387 O 228.917 -1.30629 -2.38009 0
M  V30 2388 C 227.373 -3.46876 -0.959427 0
M  V30 2389 C 226.981 -4.47691 0.166419 0
M  V30 2390 C 228.725 -3.93927 -1.58183 0
M  V30 2391 C 226.632 -5.90636 -0.300565 0
M  V30 2392 H 225.562 -0.728494 -0.194454 0
M  V30 2393 H 228.213 -1.8211 0.22542 0
M  V30 2394 H 226.595 -3.55215 -1.75038 0
M  V30 2395 H 227.769 -4.51043 0.94325 0
M  V30 2396 H 226.084 -4.10527 0.696905 0
M  V30 2397 H 228.681 -4.98158 -1.94275 0
M  V30 2398 H 229.024 -3.3519 -2.46888 0
M  V30 2399 H 229.557 -3.88484 -0.855863 0
M  V30 2400 H 226.296 -6.5318 0.550989 0
M  V30 2401 H 225.816 -5.90655 -1.04338 0
M  V30 2402 H 227.495 -6.42588 -0.754265 0
M  V30 2403 N 227.627 0.131896 -1.57047 0
M  V30 2404 C 228.857 0.855219 -1.88068 0
M  V30 2405 C 229.265 1.74557 -0.729817 0
M  V30 2406 O 228.608 1.81083 0.308962 0
M  V30 2407 C 228.67 1.75119 -3.13964 0
M  V30 2408 C 228.334 1.03646 -4.45091 0
M  V30 2409 C 229.331 0.383276 -5.18485 0
M  V30 2410 C 227.016 1.02148 -4.91804 0
M  V30 2411 C 229.01 -0.275347 -6.36805 0
M  V30 2412 C 226.697 0.359047 -6.10044 0
M  V30 2413 C 227.695 -0.288222 -6.82392 0
M  V30 2414 O 227.383 -0.94011 -7.98384 0
M  V30 2415 H 227.115 0.251864 -0.627328 0
M  V30 2416 H 229.669 0.124782 -2.05021 0
M  V30 2417 H 227.899 2.52295 -2.9306 0
M  V30 2418 H 229.588 2.3478 -3.31109 0
M  V30 2419 H 230.354 0.386562 -4.83457 0
M  V30 2420 H 226.233 1.5147 -4.35405 0
M  V30 2421 H 229.777 -0.781148 -6.93213 0
M  V30 2422 H 225.674 0.35348 -6.44531 0
M  V30 2423 H 226.442 -0.84329 -8.14144 0
M  V30 2424 N 229.106 1.52395 0.401703 0
M  V30 2425 C 230.016 1.7917 1.51444 0
M  V30 2426 C 231.032 0.677691 1.6026 0
M  V30 2427 O 232.208 0.963909 1.76835 0
M  V30 2428 C 229.273 1.94347 2.87107 0
M  V30 2429 C 228.334 3.18257 2.88116 0
M  V30 2430 C 227.567 3.32701 4.17308 0
M  V30 2431 O 227.79 2.52238 5.11598 0
M  V30 2432 O 226.724 4.25891 4.25324 0
M  V30 2433 H 230.55 2.73633 1.31752 0
M  V30 2434 H 228.135 1.3733 0.588296 0
M  V30 2435 H 230.017 2.06109 3.67555 0
M  V30 2436 H 228.692 1.03073 3.06851 0
M  V30 2437 H 227.599 3.11947 2.06494 0
M  V30 2438 H 228.932 4.09336 2.73322 0
M  V30 2439 N 230.584 -0.659388 1.43143 0
M  V30 2440 C 231.812 -1.44723 1.47861 0
M  V30 2441 C 232.227 -1.88563 0.0945886 0
M  V30 2442 O 231.584 -1.59108 -0.893915 0
M  V30 2443 C 231.635 -2.68627 2.41913 0
M  V30 2444 O 231.356 -2.26623 3.74932 0
M  V30 2445 C 232.857 -3.62045 2.55809 0
M  V30 2446 H 230.077 -0.444801 0.502387 0
M  V30 2447 H 232.621 -0.808916 1.87821 0
M  V30 2448 H 230.776 -3.28613 2.05164 0
M  V30 2449 H 231.19 -3.06745 4.2545 0
M  V30 2450 H 232.664 -4.45666 3.25708 0
M  V30 2451 H 233.141 -4.08981 1.60099 0
M  V30 2452 H 233.747 -3.07944 2.93344 0
M  V30 2453 N 232.062 -1.29571 -0.897171 0
M  V30 2454 C 233.29 -1.20583 -1.68129 0
M  V30 2455 C 233.705 0.233181 -1.87354 0
M  V30 2456 O 233.062 1.15579 -1.41236 0
M  V30 2457 C 233.113 -1.91772 -3.06441 0
M  V30 2458 O 232.834 -3.30053 -2.88091 0
M  V30 2459 C 234.335 -1.89291 -4.00854 0
M  V30 2460 H 231.555 -0.417826 -0.525036 0
M  V30 2461 H 234.099 -1.70987 -1.12177 0
M  V30 2462 H 232.254 -1.45196 -3.59161 0
M  V30 2463 H 232.668 -3.65942 -3.75748 0
M  V30 2464 H 234.142 -2.43662 -4.95311 0
M  V30 2465 H 234.619 -0.869014 -4.30517 0
M  V30 2466 H 235.225 -2.35622 -3.54066 0
M  V30 2467 N 233.54 1.10788 -1.12088 0
M  V30 2468 C 234.956 1.34691 -0.856186 0
M  V30 2469 C 235.156 1.94791 0.515615 0
M  V30 2470 O 234.212 2.18524 1.26505 0
M  V30 2471 C 235.525 2.27208 -1.9697 0
M  V30 2472 C 237.073 2.40755 -2.00016 0
M  V30 2473 C 237.548 3.36598 -3.1059 0
M  V30 2474 N 239.039 3.44164 -3.10008 0
M  V30 2475 C 239.774 4.18284 -3.92206 0
M  V30 2476 N 239.27 4.95322 -4.84384 0
M  V30 2477 N 241.063 4.13865 -3.80357 0
M  V30 2478 H 233.214 0.70144 -2.00483 0
M  V30 2479 H 235.477 0.371405 -0.872217 0
M  V30 2480 H 235.183 1.90251 -2.958 0
M  V30 2481 H 235.057 3.27485 -1.87172 0
M  V30 2482 H 237.444 2.76982 -1.01808 0
M  V30 2483 H 237.525 1.40305 -2.13888 0
M  V30 2484 H 237.169 3.01096 -4.09028 0
M  V30 2485 H 237.099 4.36918 -2.93956 0
M  V30 2486 H 239.59 2.8922 -2.43228 0
M  V30 2487 H 239.903 5.49267 -5.43623 0
M  V30 2488 H 238.248 4.94459 -4.884 0
M  V30 2489 H 241.439 3.52773 -3.07683 0
M  V30 2490 H 241.612 4.71372 -4.44649 0
M  V30 2491 N 235.018 0.912232 1.28515 0
M  V30 2492 C 236.264 0.545405 1.95328 0
M  V30 2493 C 236.597 -0.908313 1.71649 0
M  V30 2494 O 235.872 -1.64575 1.03659 0
M  V30 2495 C 236.155 0.853483 3.4984 0
M  V30 2496 C 236.008 2.35982 3.82926 0
M  V30 2497 C 237.327 0.348589 4.38717 0
M  V30 2498 H 234.446 0.199626 0.709449 0
M  V30 2499 H 237.088 1.1412 1.5191 0
M  V30 2500 H 235.238 0.34643 3.86952 0
M  V30 2501 H 236.91 2.93738 3.55691 0
M  V30 2502 H 235.153 2.81543 3.30024 0
M  V30 2503 H 235.824 2.52593 4.90816 0
M  V30 2504 H 238.3 0.78294 4.08668 0
M  V30 2505 H 237.176 0.593242 5.45685 0
M  V30 2506 H 237.437 -0.751049 4.35674 0
M  V30 2507 N 236.496 -1.42363 0.676048 0
M  V30 2508 C 237.444 -2.32596 -0.0131507 0
M  V30 2509 C 238.438 -1.49891 -0.789238 0
M  V30 2510 O 239.644 -1.65955 -0.697061 0
M  V30 2511 H 236.019 -0.751647 -0.0230481 0
M  V30 2512 H 237.99 -2.88421 0.765243 0
M  V30 2513 C 236.739 -3.34479 -0.949702 0
M  V30 2514 H 236.062 -3.98158 -0.361938 0
M  V30 2515 H 237.502 -4.00199 -1.4006 0
M  V30 2516 C 235.961 -2.66838 -2.05667 0
M  V30 2517 O 236.491 -2.50124 -3.14326 0
M  V30 2518 N 234.697 -2.25843 -1.82875 0
M  V30 2519 H 234.244 -2.39637 -0.945085 0
M  V30 2520 H 234.202 -1.80918 -2.5713 0
M  V30 2521 N 237.974 -0.419461 -1.51915 0
M  V30 2522 C 238.906 0.43646 -2.25006 0
M  V30 2523 C 239.919 1.00149 -1.28351 0
M  V30 2524 O 241.108 0.898674 -1.54227 0
M  V30 2525 C 238.208 1.6206 -2.9764 0
M  V30 2526 C 237.381 1.17763 -4.21249 0
M  V30 2527 C 236.44 2.22985 -4.76617 0
M  V30 2528 O 235.466 1.83151 -5.38929 0
M  V30 2529 N 236.668 3.55271 -4.59089 0
M  V30 2530 H 239.433 -0.18989 -2.99098 0
M  V30 2531 H 236.994 -0.247386 -1.59999 0
M  V30 2532 H 238.986 2.32038 -3.31573 0
M  V30 2533 H 237.556 2.15266 -2.2667 0
M  V30 2534 H 236.776 0.305582 -3.93014 0
M  V30 2535 H 238.064 0.858781 -5.015 0
M  V30 2536 H 237.462 3.90377 -4.09417 0
M  V30 2537 H 236.019 4.21195 -4.97432 0
M  V30 2538 N 239.452 1.56882 -0.150215 0
M  V30 2539 C 240.863 1.82995 0.370076 0
M  V30 2540 C 241.214 1.06907 1.64515 0
M  V30 2541 O 240.339 0.315369 2.1409 0
M  V30 2542 C 240.934 3.31942 0.678208 0
M  V30 2543 C 239.493 3.58625 1.14301 0
M  V30 2544 C 238.64 2.76792 0.167778 0
M  V30 2545 H 241.591 1.54209 -0.374858 0
M  V30 2546 H 241.612 3.48272 1.53254 0
M  V30 2547 H 241.124 3.87294 -0.249991 0
M  V30 2548 H 239.225 3.08664 2.08704 0
M  V30 2549 H 239.338 4.67073 1.06676 0
M  V30 2550 H 237.702 2.45972 0.661037 0
M  V30 2551 H 238.485 3.34916 -0.754069 0
M  V30 2552 N 240.93 -0.123565 1.57115 0
M  V30 2553 C 242.155 -0.850398 1.89164 0
M  V30 2554 C 242.58 -1.7286 0.741688 0
M  V30 2555 O 241.938 -1.78665 -0.307958 0
M  V30 2556 C 241.986 -1.66353 3.19936 0
M  V30 2557 O 241.09 -2.77004 3.0552 0
M  V30 2558 H 240.431 -0.235454 0.620852 0
M  V30 2559 H 242.961 -0.107335 2.04318 0
M  V30 2560 H 242.971 -2.05372 3.52543 0
M  V30 2561 H 241.646 -1.01881 4.03228 0
M  V30 2562 H 240.223 -2.41221 2.84371 0
M  V30 2563 N 242.408 -1.52605 -0.393616 0
M  V30 2564 C 243.657 -1.66649 -1.13627 0
M  V30 2565 C 243.97 -0.410364 -1.91247 0
M  V30 2566 O 245.176 -0.430854 -2.68059 0
M  V30 2567 C 243.632 -2.9449 -2.06891 0
M  V30 2568 C 243.24 -4.27266 -1.34714 0
M  V30 2569 C 244.984 -3.17899 -2.81319 0
M  V30 2570 C 242.891 -5.46217 -2.26717 0
M  V30 2571 H 241.821 -0.62084 -0.427871 0
M  V30 2572 H 244.472 -1.791 -0.399428 0
M  V30 2573 H 242.854 -2.75774 -2.84191 0
M  V30 2574 H 244.028 -4.56518 -0.626714 0
M  V30 2575 H 242.343 -4.10081 -0.722643 0
M  V30 2576 H 244.94 -4.03949 -3.50328 0
M  V30 2577 H 245.283 -2.32777 -3.45139 0
M  V30 2578 H 245.816 -3.37159 -2.11113 0
M  V30 2579 H 242.555 -6.33733 -1.67521 0
M  V30 2580 H 242.075 -5.21283 -2.96689 0
M  V30 2581 H 243.754 -5.7991 -2.86903 0
M  V30 2582 N 243.887 0.651787 -1.4349 0
M  V30 2583 C 245.164 1.40909 -1.35661 0
M  V30 2584 C 245.544 2.11099 -0.00511733 0
M  V30 2585 O 244.892 2.04892 1.0115 0
M  V30 2586 C 245.102 2.3926 -2.54078 0
M  V30 2587 C 246.45 3.03217 -2.97228 0
M  V30 2588 O 247.474 2.49588 -2.54135 0
M  V30 2589 O 246.333 4.00455 -3.71885 0
M  V30 2590 H 243.427 0.629625 -0.536191 0
M  V30 2591 H 245.973 0.678575 -1.55542 0
M  V30 2592 H 244.745 1.86352 -3.44076 0
M  V30 2593 H 244.368 3.1976 -2.36303 0
M  V30 2594 N 245.365 1.30045 0.890287 0
M  V30 2595 C 246.613 1.18327 1.63839 0
M  V30 2596 C 246.934 -0.263455 1.93212 0
M  V30 2597 O 246.204 -1.17856 1.56482 0
M  V30 2598 H 244.784 0.434933 0.607324 0
M  V30 2599 H 247.446 1.631 1.06698 0
M  V30 2600 H 246.542 1.74024 2.59079 0
M  V30 2601 N 246.843 -1.10192 1.12674 0
M  V30 2602 C 248.071 -1.85983 0.906527 0
M  V30 2603 C 248.486 -1.80783 -0.544333 0
M  V30 2604 O 247.843 -1.19834 -1.37645 0
M  V30 2605 C 247.894 -3.34281 1.37618 0
M  V30 2606 O 247.615 -3.39401 2.77017 0
M  V30 2607 C 249.116 -4.26938 1.19325 0
M  V30 2608 H 246.336 -0.587716 0.323775 0
M  V30 2609 H 248.88 -1.39284 1.49734 0
M  V30 2610 H 247.035 -3.78436 0.828539 0
M  V30 2611 H 247.449 -4.31838 2.97684 0
M  V30 2612 H 248.923 -5.29181 1.57071 0
M  V30 2613 H 249.4 -4.38995 0.134097 0
M  V30 2614 H 250.006 -3.8859 1.72852 0
M  V30 2615 N 248.321 -0.919034 -1.28029 0
M  V30 2616 C 249.284 -0.416182 -2.2539 0
M  V30 2617 C 250.284 0.460438 -1.54067 0
M  V30 2618 O 251.474 0.262744 -1.72207 0
M  V30 2619 C 248.606 0.402707 -3.38513 0
M  V30 2620 H 249.799 -1.27629 -2.71387 0
M  V30 2621 H 247.352 -0.698919 -1.39803 0
M  V30 2622 H 248.087 1.282 -2.97885 0
M  V30 2623 H 247.872 -0.225698 -3.9145 0
M  V30 2624 H 249.362 0.745191 -4.10897 0
M  V30 2625 N 249.799 1.42003 -0.683588 0
M  V30 2626 C 251.027 2.05746 -0.218182 0
M  V30 2627 C 251.442 1.51396 1.12804 0
M  V30 2628 O 250.799 0.657303 1.70252 0
M  V30 2629 C 250.85 3.61171 -0.154131 0
M  V30 2630 O 250.571 4.13508 -1.44716 0
M  V30 2631 C 252.072 4.42042 0.333713 0
M  V30 2632 H 249.292 0.662888 -0.10402 0
M  V30 2633 H 251.836 1.81987 -0.9328 0
M  V30 2634 H 249.991 3.84012 0.511231 0
M  V30 2635 H 250.405 5.07453 -1.32632 0
M  V30 2636 H 251.879 5.51028 0.327423 0
M  V30 2637 H 252.356 4.17269 1.37053 0
M  V30 2638 H 252.962 4.24239 -0.300222 0
M  V30 2639 N 251.277 0.427512 1.51691 0
M  V30 2640 C 252.524 -0.142229 2.02 0
M  V30 2641 C 252.852 -1.43566 1.31221 0
M  V30 2642 O 252.107 -1.91298 0.412744 0
M  V30 2643 C 252.406 -0.418249 3.54944 0
M  V30 2644 C 252.072 0.788187 4.43958 0
M  V30 2645 C 250.734 1.11906 4.68007 0
M  V30 2646 C 253.086 1.59347 4.96244 0
M  V30 2647 C 250.414 2.25608 5.41588 0
M  V30 2648 C 252.766 2.7214 5.71072 0
M  V30 2649 C 251.43 3.05692 5.93387 0
M  V30 2650 H 250.7 -0.0520451 0.73917 0
M  V30 2651 H 253.347 0.572697 1.82736 0
M  V30 2652 H 251.652 -1.21496 3.72486 0
M  V30 2653 H 253.349 -0.872339 3.91397 0
M  V30 2654 H 249.939 0.520344 4.2543 0
M  V30 2655 H 254.123 1.35106 4.77556 0
M  V30 2656 H 249.379 2.51929 5.57083 0
M  V30 2657 H 253.553 3.34914 6.10578 0
M  V30 2658 H 251.18 3.9391 6.50184 0
M  V30 2659 N 252.755 -1.56801 0.158532 0
M  V30 2660 C 253.687 -2.14488 -0.807923 0
M  V30 2661 C 254.7 -1.09721 -1.20271 0
M  V30 2662 O 255.889 -1.36956 -1.14478 0
M  V30 2663 C 252.989 -2.66217 -2.09718 0
M  V30 2664 C 252.162 -3.95507 -1.86796 0
M  V30 2665 C 251.221 -4.3243 -2.99818 0
M  V30 2666 O 250.247 -5.00543 -2.71008 0
M  V30 2667 N 251.449 -3.92947 -4.27285 0
M  V30 2668 H 254.214 -2.98042 -0.314816 0
M  V30 2669 H 251.775 -1.61881 -0.0246692 0
M  V30 2670 H 253.767 -2.87924 -2.84398 0
M  V30 2671 H 252.337 -1.87324 -2.50257 0
M  V30 2672 H 251.557 -3.82309 -0.96089 0
M  V30 2673 H 252.845 -4.79972 -1.68833 0
M  V30 2674 H 252.243 -3.38087 -4.53557 0
M  V30 2675 H 250.8 -4.19681 -4.9871 0
M  V30 2676 N 254.233 0.115231 -1.57178 0
M  V30 2677 C 255.165 1.16694 -1.97269 0
M  V30 2678 C 256.178 1.37445 -0.872502 0
M  V30 2679 O 257.367 1.36454 -1.15077 0
M  V30 2680 C 254.467 2.52627 -2.25905 0
M  V30 2681 C 253.64 2.52427 -3.57211 0
M  V30 2682 C 252.699 3.70134 -3.74016 0
M  V30 2683 O 251.725 3.53546 -4.46087 0
M  V30 2684 N 252.927 4.88844 -3.13068 0
M  V30 2685 H 255.692 0.82588 -2.88096 0
M  V30 2686 H 253.253 0.304461 -1.59011 0
M  V30 2687 H 255.245 3.29937 -2.34359 0
M  V30 2688 H 253.815 2.789 -1.41186 0
M  V30 2689 H 253.035 1.60805 -3.5991 0
M  V30 2690 H 254.323 2.49353 -4.43509 0
M  V30 2691 H 253.721 5.05225 -2.54489 0
M  V30 2692 H 252.278 5.63817 -3.27037 0
M  V30 2693 N 255.711 1.52812 0.385517 0
M  V30 2694 C 256.941 1.71658 1.14966 0
M  V30 2695 C 257.349 0.436253 1.84102 0
M  V30 2696 O 256.692 -0.599313 1.73649 0
M  V30 2697 C 256.754 2.81309 2.23843 0
M  V30 2698 C 256.418 4.22313 1.74644 0
M  V30 2699 C 257.415 5.05352 1.22129 0
M  V30 2700 C 255.1 4.68648 1.80761 0
M  V30 2701 C 257.094 6.32807 0.763838 0
M  V30 2702 C 254.781 5.96086 1.34627 0
M  V30 2703 C 255.779 6.77996 0.825264 0
M  V30 2704 O 255.467 8.03045 0.370669 0
M  V30 2705 H 255.199 0.578022 0.350523 0
M  V30 2706 H 257.753 2.00263 0.456509 0
M  V30 2707 H 255.983 2.48133 2.96592 0
M  V30 2708 H 257.672 2.88524 2.85497 0
M  V30 2709 H 258.438 4.70736 1.16758 0
M  V30 2710 H 254.317 4.04979 2.20256 0
M  V30 2711 H 257.861 6.96689 0.356494 0
M  V30 2712 H 253.758 6.30205 1.39686 0
M  V30 2713 H 254.526 8.17021 0.491829 0
M  V30 2714 N 257.189 -0.644168 1.43834 0
M  V30 2715 C 258.435 -1.40431 1.47141 0
M  V30 2716 C 258.79 -1.92153 0.0975577 0
M  V30 2717 O 258.083 -1.69924 -0.885232 0
M  V30 2718 C 258.277 -2.59615 2.45631 0
M  V30 2719 C 258.106 -2.1956 3.92458 0
M  V30 2720 C 256.876 -2.07456 4.60749 0
M  V30 2721 C 259.074 -1.79281 4.8204 0
M  V30 2722 N 257.056 -1.60827 5.92459 0
M  V30 2723 C 258.427 -1.43801 6.03093 0
M  V30 2724 C 260.482 -1.66545 4.6922 0
M  V30 2725 C 259.185 -0.968599 7.12749 0
M  V30 2726 C 261.211 -1.21008 5.78888 0
M  V30 2727 C 260.573 -0.864711 6.99072 0
M  V30 2728 H 256.672 -0.509182 0.593513 0
M  V30 2729 H 259.256 -0.740351 1.80075 0
M  V30 2730 H 257.427 -3.23658 2.1471 0
M  V30 2731 H 259.159 -3.26357 2.39318 0
M  V30 2732 H 255.914 -2.275 4.1538 0
M  V30 2733 H 256.338 -1.39848 6.62398 0
M  V30 2734 H 260.98 -1.91883 3.7675 0
M  V30 2735 H 258.698 -0.702715 8.05039 0
M  V30 2736 H 262.284 -1.11631 5.7099 0
M  V30 2737 H 261.164 -0.517736 7.82489 0
M  V30 2738 N 258.668 -1.30515 -0.883378 0
M  V30 2739 C 259.893 -1.22487 -1.67367 0
M  V30 2740 C 260.318 0.208767 -1.86938 0
M  V30 2741 O 259.676 1.15015 -1.40148 0
M  V30 2742 C 259.724 -1.96041 -3.02655 0
M  V30 2743 O 258.828 -1.28859 -3.91751 0
M  V30 2744 H 258.169 -0.423573 -0.511353 0
M  V30 2745 H 260.699 -1.72362 -1.10239 0
M  V30 2746 H 260.709 -2.05124 -3.52687 0
M  V30 2747 H 259.384 -3.00307 -2.8773 0
M  V30 2748 H 257.961 -1.28141 -3.50192 0
M  V30 2749 N 260.146 1.09593 -1.13257 0
M  V30 2750 C 261.392 1.82003 -0.89458 0
M  V30 2751 C 261.725 1.85402 0.577906 0
M  V30 2752 O 261 1.32099 1.42759 0
M  V30 2753 C 261.283 3.28237 -1.48096 0
M  V30 2754 C 261.136 3.3312 -3.02244 0
M  V30 2755 C 262.455 4.24871 -1.14774 0
M  V30 2756 H 259.574 0.66077 -0.326424 0
M  V30 2757 H 262.216 1.28389 -1.40058 0
M  V30 2758 H 260.366 3.74024 -1.05062 0
M  V30 2759 H 262.038 2.95748 -3.54021 0
M  V30 2760 H 260.281 2.72756 -3.37323 0
M  V30 2761 H 260.952 4.3613 -3.38371 0
M  V30 2762 H 263.428 3.87361 -1.51957 0
M  V30 2763 H 262.304 5.25532 -1.58452 0
M  V30 2764 H 262.565 4.42058 -0.0611849 0
M  V30 2765 N 261.624 0.925811 1.2754 0
M  V30 2766 C 263.04 0.625767 1.46821 0
M  V30 2767 C 263.24 -0.825506 1.83814 0
M  V30 2768 O 262.296 -1.60356 1.95044 0
M  V30 2769 C 263.609 1.57402 2.56213 0
M  V30 2770 C 265.157 1.58204 2.70075 0
M  V30 2771 C 265.632 2.51721 3.82623 0
M  V30 2772 N 267.123 2.49917 3.89994 0
M  V30 2773 C 267.858 3.18968 4.76494 0
M  V30 2774 N 267.354 3.97391 5.67496 0
M  V30 2775 N 269.147 3.07996 4.70208 0
M  V30 2776 H 261.298 1.86409 1.01811 0
M  V30 2777 H 263.561 0.800213 0.508295 0
M  V30 2778 H 263.267 2.60925 2.35819 0
M  V30 2779 H 263.141 1.31428 3.53563 0
M  V30 2780 H 265.528 0.554124 2.89851 0
M  V30 2781 H 265.609 1.88226 1.73218 0
M  V30 2782 H 265.253 3.54622 3.63601 0
M  V30 2783 H 265.183 2.18996 4.78903 0
M  V30 2784 H 267.674 1.9296 3.24923 0
M  V30 2785 H 267.987 4.4707 6.30356 0
M  V30 2786 H 266.332 4.01495 5.67298 0
M  V30 2787 H 269.523 2.46223 3.9811 0
M  V30 2788 H 269.696 3.6208 5.37403 0
M  V30 2789 N 263.102 -1.41638 0.69111 0
M  V30 2790 C 264.33 -2.05628 0.22909 0
M  V30 2791 C 264.745 -1.51992 -1.11999 0
M  V30 2792 O 264.102 -0.666322 -1.69901 0
M  V30 2793 C 264.153 -3.61084 0.173283 0
M  V30 2794 O 263.874 -4.12735 1.46907 0
M  V30 2795 C 265.375 -4.42213 -0.310266 0
M  V30 2796 H 262.595 -0.662327 0.107534 0
M  V30 2797 H 265.139 -1.81489 0.942438 0
M  V30 2798 H 263.294 -3.84278 -0.490858 0
M  V30 2799 H 263.708 -5.06743 1.35322 0
M  V30 2800 H 265.182 -5.51194 -0.298196 0
M  V30 2801 H 265.659 -4.1799 -1.34838 0
M  V30 2802 H 266.265 -4.24074 0.322716 0
M  V30 2803 N 264.58 -0.43555 -1.51462 0
M  V30 2804 C 265.805 0.132627 -2.06976 0
M  V30 2805 C 266.23 1.35848 -1.30104 0
M  V30 2806 O 265.588 1.78112 -0.338493 0
M  V30 2807 C 265.636 0.43523 -3.57964 0
M  V30 2808 O 264.74 1.52198 -3.83288 0
M  V30 2809 H 264.081 0.00265 -0.663995 0
M  V30 2810 H 266.611 -0.616369 -1.95095 0
M  V30 2811 H 266.621 0.686206 -4.02188 0
M  V30 2812 H 265.296 -0.460739 -4.1334 0
M  V30 2813 H 263.873 1.2611 -3.50928 0
M  V30 2814 N 266.058 1.56714 -0.166846 0
M  V30 2815 C 267.005 2.17746 0.765193 0
M  V30 2816 C 267.975 1.11614 1.23011 0
M  V30 2817 O 269.16 1.39745 1.29908 0
M  V30 2818 C 266.3 2.81882 1.9909 0
M  V30 2819 C 265.413 4.02462 1.56997 0
M  V30 2820 C 264.548 4.54537 2.749 0
M  V30 2821 C 263.587 5.67538 2.29275 0
M  V30 2822 N 262.724 6.14142 3.40255 0
M  V30 2823 H 267.564 2.97048 0.237952 0
M  V30 2824 H 265.101 1.4672 0.105725 0
M  V30 2825 H 267.059 3.17221 2.70974 0
M  V30 2826 H 265.689 2.05191 2.49192 0
M  V30 2827 H 264.741 3.72973 0.748037 0
M  V30 2828 H 266.053 4.84273 1.19503 0
M  V30 2829 H 265.207 4.92035 3.54946 0
M  V30 2830 H 263.946 3.71774 3.1565 0
M  V30 2831 H 262.951 5.29597 1.47674 0
M  V30 2832 H 264.176 6.52099 1.89588 0
M  V30 2833 H 262.122 5.3431 3.8059 0
M  V30 2834 H 262.039 6.9093 3.06841 0
M  V30 2835 H 263.307 6.56289 4.206 0
M  V30 2836 N 267.536 -0.106894 1.57237 0
M  V30 2837 C 268.952 -0.46078 1.52804 0
M  V30 2838 C 269.152 -1.81184 0.881746 0
M  V30 2839 O 268.208 -2.48102 0.469224 0
M  V30 2840 C 269.521 -0.434127 2.9755 0
M  V30 2841 C 271.069 -0.516821 3.08704 0
M  V30 2842 C 271.544 -0.520436 4.55033 0
M  V30 2843 N 273.035 -0.58153 4.59535 0
M  V30 2844 C 273.77 -0.605973 5.70189 0
M  V30 2845 N 273.266 -0.587331 6.90306 0
M  V30 2846 N 275.059 -0.649895 5.5833 0
M  V30 2847 H 267.21 0.778203 1.9763 0
M  V30 2848 H 269.473 0.288403 0.903066 0
M  V30 2849 H 269.179 0.491197 3.48253 0
M  V30 2850 H 269.053 -1.25748 3.55622 0
M  V30 2851 H 271.44 -1.43256 2.57995 0
M  V30 2852 H 271.521 0.334449 2.53604 0
M  V30 2853 H 271.165 0.391313 5.0639 0
M  V30 2854 H 271.095 -1.38876 5.07958 0
M  V30 2855 H 273.586 -0.60161 3.73081 0
M  V30 2856 H 273.899 -0.60894 7.70397 0
M  V30 2857 H 272.244 -0.554564 6.92784 0
M  V30 2858 H 275.435 -0.661907 4.63397 0
M  V30 2859 H 275.608 -0.665476 6.44574 0
M  V30 2860 N 269.014 -1.53014 -0.377408 0
M  V30 2861 C 270.242 -1.72515 -1.14219 0
M  V30 2862 C 270.657 -0.448735 -1.8339 0
M  V30 2863 O 270.014 0.577592 -1.73119 0
M  V30 2864 C 270.065 -2.8826 -2.18148 0
M  V30 2865 O 269.786 -4.10962 -1.51795 0
M  V30 2866 C 271.287 -3.19536 -3.07264 0
M  V30 2867 H 268.507 -0.577301 -0.342001 0
M  V30 2868 H 271.051 -1.99712 -0.439935 0
M  V30 2869 H 269.206 -2.63492 -2.83991 0
M  V30 2870 H 269.62 -4.75693 -2.20945 0
M  V30 2871 H 271.094 -4.03959 -3.76193 0
M  V30 2872 H 271.571 -2.34403 -3.71419 0
M  V30 2873 H 272.177 -3.46186 -2.47053 0
M  V30 2874 N 270.492 0.636531 -1.44174 0
M  V30 2875 C 271.717 1.42847 -1.50364 0
M  V30 2876 C 272.142 1.87665 -0.127867 0
M  V30 2877 O 271.5 1.58408 0.88185 0
M  V30 2878 C 271.548 2.62854 -2.4686 0
M  V30 2879 O 270.652 3.62501 -1.9664 0
M  V30 2880 H 269.993 0.427642 -0.507955 0
M  V30 2881 H 272.523 0.777422 -1.89255 0
M  V30 2882 H 272.533 3.10465 -2.64718 0
M  V30 2883 H 271.208 2.29578 -3.46795 0
M  V30 2884 H 269.785 3.21735 -1.88523 0
M  V30 2885 N 271.97 1.30982 0.876444 0
M  V30 2886 C 273.218 1.20058 1.62575 0
M  V30 2887 C 273.539 -0.242947 1.93481 0
M  V30 2888 O 272.809 -1.1619 1.57724 0
M  V30 2889 H 271.389 0.44135 0.602677 0
M  V30 2890 H 274.051 1.64222 1.04962 0
M  V30 2891 H 273.147 1.76762 2.57219 0
M  V30 2892 N 273.449 -1.08991 1.13837 0
M  V30 2893 C 274.677 -1.85011 0.926202 0
M  V30 2894 C 275.092 -1.8135 -0.525127 0
M  V30 2895 O 274.449 -1.21287 -1.36366 0
M  V30 2896 C 274.5 -3.32802 1.41155 0
M  V30 2897 O 274.221 -3.36444 2.80601 0
M  V30 2898 C 275.722 -4.25649 1.23847 0
M  V30 2899 H 272.942 -0.584249 0.32999 0
M  V30 2900 H 275.486 -1.37688 1.51202 0
M  V30 2901 H 273.641 -3.77536 0.868631 0
M  V30 2902 H 274.055 -4.28657 3.02248 0
M  V30 2903 H 275.529 -5.27485 1.62675 0
M  V30 2904 H 276.006 -4.38828 0.18065 0
M  V30 2905 H 276.612 -3.86735 1.76964 0
M  V30 2906 N 274.927 -0.932562 -1.27047 0
M  V30 2907 C 276.176 -0.571351 -1.93439 0
M  V30 2908 C 276.489 0.892467 -1.74053 0
M  V30 2909 O 277.695 1.36267 -2.34826 0
M  V30 2910 C 276.151 -0.97106 -3.46552 0
M  V30 2911 C 275.759 -2.4559 -3.74686 0
M  V30 2912 C 277.503 -0.681333 -4.18997 0
M  V30 2913 C 275.41 -2.79475 -5.21198 0
M  V30 2914 H 274.34 -0.209966 -0.724176 0
M  V30 2915 H 276.991 -1.13403 -1.44263 0
M  V30 2916 H 275.373 -0.336983 -3.94564 0
M  V30 2917 H 276.547 -3.13829 -3.37414 0
M  V30 2918 H 274.862 -2.71802 -3.15456 0
M  V30 2919 H 277.459 -0.910939 -5.26883 0
M  V30 2920 H 277.802 0.381628 -4.14547 0
M  V30 2921 H 278.335 -1.27473 -3.76823 0
M  V30 2922 H 275.074 -3.847 -5.30741 0
M  V30 2923 H 274.594 -2.1589 -5.596 0
M  V30 2924 H 276.273 -2.67478 -5.89122 0
M  V30 2925 N 276.405 1.4127 -0.698611 0
M  V30 2926 C 277.63 2.06024 -0.238512 0
M  V30 2927 C 278.055 1.5224 1.10475 0
M  V30 2928 O 277.413 0.650623 1.69223 0
M  V30 2929 C 277.461 3.59988 -0.209952 0
M  V30 2930 O 276.565 4.04282 0.814235 0
M  V30 2931 H 275.906 0.653829 -0.115775 0
M  V30 2932 H 278.436 1.8098 -0.954326 0
M  V30 2933 H 278.446 4.07979 -0.0418436 0
M  V30 2934 H 277.121 3.98503 -1.1903 0
M  V30 2935 H 275.698 3.6779 0.615234 0
M  V30 2936 N 277.883 0.443576 1.51229 0
M  V30 2937 C 279.129 -0.120975 2.02439 0
M  V30 2938 C 279.462 -1.41815 1.32674 0
M  V30 2939 O 278.737 -1.89373 0.443622 0
M  V30 2940 C 279.02 -0.333291 3.58554 0
M  V30 2941 C 278.873 0.982968 4.38928 0
M  V30 2942 C 280.192 -1.10028 4.26124 0
M  V30 2943 H 277.311 -0.0424923 0.735774 0
M  V30 2944 H 279.953 0.583794 1.80809 0
M  V30 2945 H 278.103 -0.933614 3.77115 0
M  V30 2946 H 279.775 1.61775 4.32003 0
M  V30 2947 H 278.018 1.58611 4.03763 0
M  V30 2948 H 278.689 0.788379 5.46341 0
M  V30 2949 H 281.165 -0.591711 4.11871 0
M  V30 2950 H 280.041 -1.21761 5.35225 0
M  V30 2951 H 280.302 -2.12996 3.87408 0
M  V30 2952 N 279.361 -1.56624 0.175154 0
M  V30 2953 C 280.589 -2.01374 -0.474971 0
M  V30 2954 C 281.004 -1.05537 -1.56548 0
M  V30 2955 O 280.361 -0.0568668 -1.82411 0
M  V30 2956 C 280.412 -3.45923 -1.04975 0
M  V30 2957 O 280.133 -4.381 -0.00276605 0
M  V30 2958 C 281.634 -4.06093 -1.77773 0
M  V30 2959 H 278.854 -0.659962 -0.121206 0
M  V30 2960 H 281.398 -2.02601 0.27801 0
M  V30 2961 H 279.553 -3.45458 -1.75321 0
M  V30 2962 H 279.967 -5.22753 -0.427681 0
M  V30 2963 H 281.441 -5.09147 -2.13245 0
M  V30 2964 H 281.918 -3.48405 -2.67414 0
M  V30 2965 H 282.524 -4.10272 -1.12059 0
M  V30 2966 N 280.839 0.0985539 -1.57292 0
M  V30 2967 C 281.749 1.13824 -2.05137 0
M  V30 2968 C 282.765 1.44076 -0.975604 0
M  V30 2969 O 283.941 1.54786 -1.28853 0
M  V30 2970 C 281.006 2.43969 -2.46333 0
M  V30 2971 C 280.067 2.2093 -3.68087 0
M  V30 2972 C 279.3 3.44869 -4.0731 0
M  V30 2973 O 279.523 4.52972 -3.46659 0
M  V30 2974 O 278.457 3.34661 -5.00285 0
M  V30 2975 H 282.283 0.761881 -2.93988 0
M  V30 2976 H 279.868 0.310818 -1.46131 0
M  V30 2977 H 281.75 3.20609 -2.73473 0
M  V30 2978 H 280.425 2.81038 -1.60621 0
M  V30 2979 H 279.332 1.42081 -3.46069 0
M  V30 2980 H 280.665 1.88755 -4.54568 0
M  V30 2981 N 282.317 1.53212 0.369288 0
M  V30 2982 C 283.267 1.75769 1.45222 0
M  V30 2983 C 284.251 0.612136 1.48801 0
M  V30 2984 O 285.443 0.870674 1.54105 0
M  V30 2985 C 282.572 1.94769 2.82701 0
M  V30 2986 C 281.658 3.15315 2.83615 0
M  V30 2987 N 282.049 4.37295 2.54178 0
M  V30 2988 C 280.347 3.15962 3.14776 0
M  V30 2989 C 281.048 5.19015 2.62675 0
M  V30 2990 N 280.024 4.55142 2.97232 0
M  V30 2991 H 283.826 2.67691 1.2132 0
M  V30 2992 H 281.34 1.51787 0.577438 0
M  V30 2993 H 283.337 2.09056 3.60696 0
M  V30 2994 H 281.997 1.04073 3.07569 0
M  V30 2995 H 283.008 4.65091 2.27839 0
M  V30 2996 H 279.685 2.35144 3.44983 0
M  V30 2997 H 281.075 6.26305 2.43294 0
M  V30 2998 N 283.795 -0.628877 1.44509 0
M  V30 2999 C 285.042 -1.38839 1.47411 0
M  V30 3000 C 285.37 -1.94202 0.10757 0
M  V30 3001 O 284.625 -1.74243 -0.890947 0
M  V30 3002 C 284.924 -2.56995 2.48371 0
M  V30 3003 C 284.59 -2.19908 3.93639 0
M  V30 3004 C 283.252 -2.09506 4.33198 0
M  V30 3005 C 285.604 -1.9064 4.85083 0
M  V30 3006 C 282.932 -1.68028 5.62124 0
M  V30 3007 C 285.284 -1.50655 6.14399 0
M  V30 3008 C 283.948 -1.38796 6.5291 0
M  V30 3009 H 283.218 -0.508048 0.539414 0
M  V30 3010 H 285.865 -0.712913 1.77735 0
M  V30 3011 H 284.17 -3.29786 2.11538 0
M  V30 3012 H 285.867 -3.15223 2.47861 0
M  V30 3013 H 282.457 -2.28922 3.62343 0
M  V30 3014 H 286.641 -1.97585 4.55273 0
M  V30 3015 H 281.897 -1.57452 5.90778 0
M  V30 3016 H 286.071 -1.27048 6.84713 0
M  V30 3017 H 283.698 -1.06429 7.52713 0
M  V30 3018 N 285.273 -1.31445 -0.869486 0
M  V30 3019 C 286.22 -1.19135 -1.97675 0
M  V30 3020 C 287.19 -0.0770266 -1.65921 0
M  V30 3021 O 288.375 -0.249972 -1.89155 0
M  V30 3022 C 285.515 -0.905149 -3.33018 0
M  V30 3023 C 284.628 -2.10285 -3.77365 0
M  V30 3024 C 283.763 -1.75339 -5.01427 0
M  V30 3025 C 282.802 -2.91515 -5.38224 0
M  V30 3026 N 281.939 -2.56762 -6.53466 0
M  V30 3027 H 286.779 -2.13853 -2.07535 0
M  V30 3028 H 284.316 -1.06379 -1.01597 0
M  V30 3029 H 286.274 -0.719765 -4.10944 0
M  V30 3030 H 284.904 0.00519624 -3.228 0
M  V30 3031 H 283.956 -2.39899 -2.95216 0
M  V30 3032 H 285.268 -2.97237 -4.00564 0
M  V30 3033 H 284.422 -1.53266 -5.87022 0
M  V30 3034 H 283.161 -0.855801 -4.80133 0
M  V30 3035 H 282.166 -3.14237 -4.51149 0
M  V30 3036 H 283.391 -3.81985 -5.61484 0
M  V30 3037 H 281.337 -1.69526 -6.33717 0
M  V30 3038 H 281.254 -3.37243 -6.76612 0
M  V30 3039 H 282.522 -2.38083 -7.42251 0
M  V30 3040 N 286.751 1.08385 -1.14413 0
M  V30 3041 C 287.683 2.1519 -0.789036 0
M  V30 3042 C 288.696 1.61638 0.19417 0
M  V30 3043 O 289.885 1.78479 -0.0275711 0
M  V30 3044 C 286.985 3.38565 -0.15058 0
M  V30 3045 C 286.158 4.21501 -1.16857 0
M  V30 3046 C 285.217 5.23277 -0.553832 0
M  V30 3047 O 284.243 5.56041 -1.21686 0
M  V30 3048 N 285.445 5.76629 0.669296 0
M  V30 3049 H 288.21 2.46257 -1.70814 0
M  V30 3050 H 285.771 1.24198 -1.03858 0
M  V30 3051 H 287.763 4.03777 0.273181 0
M  V30 3052 H 286.333 3.05299 0.671667 0
M  V30 3053 H 285.553 3.52265 -1.76926 0
M  V30 3054 H 286.841 4.73731 -1.85624 0
M  V30 3055 H 286.239 5.52243 1.22654 0
M  V30 3056 H 284.796 6.43521 1.03556 0
M  V30 3057 N 288.23 0.939286 1.26551 0
M  V30 3058 C 289.476 0.596234 1.94465 0
M  V30 3059 C 289.831 -0.855013 1.72358 0
M  V30 3060 O 289.124 -1.6034 1.04889 0
M  V30 3061 C 289.318 0.872106 3.46596 0
M  V30 3062 C 289.147 2.34862 3.83497 0
M  V30 3063 C 287.917 3.00344 4.06352 0
M  V30 3064 C 290.115 3.32697 3.92195 0
M  V30 3065 N 288.097 4.38027 4.30123 0
M  V30 3066 C 289.468 4.55631 4.20476 0
M  V30 3067 C 291.523 3.27747 3.74815 0
M  V30 3068 C 290.226 5.74233 4.33185 0
M  V30 3069 C 292.252 4.45672 3.88755 0
M  V30 3070 C 291.614 5.67388 4.17433 0
M  V30 3071 H 287.713 0.268515 0.734455 0
M  V30 3072 H 290.297 1.2083 1.5267 0
M  V30 3073 H 288.468 0.289102 3.87323 0
M  V30 3074 H 290.2 0.490513 4.01716 0
M  V30 3075 H 286.955 2.50969 4.01636 0
M  V30 3076 H 287.379 5.09288 4.46044 0
M  V30 3077 H 292.021 2.34703 3.51673 0
M  V30 3078 H 289.739 6.67731 4.55149 0
M  V30 3079 H 293.325 4.43372 3.76713 0
M  V30 3080 H 292.205 6.57115 4.27983 0
M  V30 3081 N 289.708 -1.40897 0.706093 0
M  V30 3082 C 290.618 -2.3455 0.0482286 0
M  V30 3083 C 291.634 -1.56796 -0.754396 0
M  V30 3084 O 292.81 -1.89228 -0.689538 0
M  V30 3085 C 289.875 -3.35625 -0.869303 0
M  V30 3086 C 288.936 -4.29261 -0.0576994 0
M  V30 3087 C 288.169 -5.25508 -0.931531 0
M  V30 3088 O 288.392 -5.27472 -2.17092 0
M  V30 3089 O 287.326 -6.00727 -0.375587 0
M  V30 3090 H 291.152 -2.92407 0.820476 0
M  V30 3091 H 288.737 -1.4193 0.4665 0
M  V30 3092 H 290.619 -3.97635 -1.39514 0
M  V30 3093 H 289.294 -2.80196 -1.62086 0
M  V30 3094 H 288.201 -3.70566 0.512988 0
M  V30 3095 H 289.534 -4.87817 0.655426 0
M  V30 3096 N 291.186 -0.45159 -1.50991 0
M  V30 3097 C 292.602 -0.104647 -1.59257 0
M  V30 3098 C 292.802 1.38728 -1.4614 0
M  V30 3099 O 291.858 2.15866 -1.30989 0
M  V30 3100 C 293.171 -0.637468 -2.93865 0
M  V30 3101 C 294.719 -0.599166 -3.07212 0
M  V30 3102 C 295.194 -1.1092 -4.44366 0
M  V30 3103 N 296.685 -1.06778 -4.50725 0
M  V30 3104 C 297.42 -1.43314 -5.55201 0
M  V30 3105 N 296.916 -1.87204 -6.67028 0
M  V30 3106 N 298.709 -1.3504 -5.45638 0
M  V30 3107 H 290.86 -1.42214 -1.57762 0
M  V30 3108 H 293.123 -0.586921 -0.744465 0
M  V30 3109 H 292.829 -1.68187 -3.08879 0
M  V30 3110 H 292.703 -0.0702139 -3.77135 0
M  V30 3111 H 295.09 0.436277 -2.91857 0
M  V30 3112 H 295.171 -1.20299 -2.25747 0
M  V30 3113 H 294.815 -2.14318 -4.60467 0
M  V30 3114 H 294.745 -0.481773 -5.24392 0
M  V30 3115 H 297.236 -0.745643 -3.70471 0
M  V30 3116 H 297.549 -2.13282 -7.42786 0
M  V30 3117 H 295.894 -1.91142 -6.68199 0
M  V30 3118 H 299.085 -1.00607 -4.57161 0
M  V30 3119 H 299.258 -1.63841 -6.26945 0
M  V30 3120 N 292.664 1.56529 -0.183458 0
M  V30 3121 C 293.597 2.14417 0.781052 0
M  V30 3122 C 294.575 1.07761 1.21763 0
M  V30 3123 O 295.759 1.35807 1.30724 0
M  V30 3124 C 292.886 2.69361 2.05335 0
M  V30 3125 C 291.932 3.885 1.75982 0
M  V30 3126 S 292.765 5.27568 0.918256 0
M  V30 3127 C 293.921 5.85926 2.20095 0
M  V30 3128 H 294.154 2.95893 0.2889 0
M  V30 3129 H 291.687 1.54368 0.0313844 0
M  V30 3130 H 293.645 3.01662 2.78406 0
M  V30 3131 H 292.306 1.87949 2.51663 0
M  V30 3132 H 291.499 4.25314 2.70415 0
M  V30 3133 H 291.101 3.57149 1.10999 0
M  V30 3134 H 293.393 5.99579 3.15453 0
M  V30 3135 H 294.336 6.82761 1.87731 0
M  V30 3136 H 294.744 5.14438 2.32409 0
M  V30 3137 N 294.142 -0.090211 1.57342 0
M  V30 3138 C 295.39 -0.791241 1.85967 0
M  V30 3139 C 295.711 -1.7903 0.772859 0
M  V30 3140 O 294.981 -1.94872 -0.200398 0
M  V30 3141 H 293.561 -0.295205 0.686195 0
M  V30 3142 H 296.223 -0.0706782 1.94772 0
M  V30 3143 H 295.319 -1.31882 2.82867 0
M  V30 3144 N 295.62 -1.53406 -0.361157 0
M  V30 3145 C 296.553 -1.74946 -1.46524 0
M  V30 3146 C 297.531 -0.59795 -1.51206 0
M  V30 3147 O 298.715 -0.831062 -1.69191 0
M  V30 3148 C 295.842 -1.83224 -2.84863 0
M  V30 3149 C 294.888 -3.05233 -2.97885 0
M  V30 3150 S 295.721 -4.6466 -2.66179 0
M  V30 3151 C 296.877 -4.75793 -4.06659 0
M  V30 3152 H 297.11 -2.68319 -1.28033 0
M  V30 3153 H 294.643 -1.44051 -0.555764 0
M  V30 3154 H 296.601 -1.88679 -3.64569 0
M  V30 3155 H 295.262 -0.908948 -3.00661 0
M  V30 3156 H 294.455 -3.07648 -3.9921 0
M  V30 3157 H 294.057 -2.97913 -2.26106 0
M  V30 3158 H 296.349 -4.5612 -5.0096 0
M  V30 3159 H 297.292 -5.7786 -4.09247 0
M  V30 3160 H 297.7 -4.04389 -3.93865 0
M  V30 3161 N 297.098 0.621204 -1.44841 0
M  V30 3162 C 298.514 0.94048 -1.28946 0
M  V30 3163 C 298.714 2.00154 -0.23249 0
M  V30 3164 O 297.77 2.49651 0.378237 0
M  V30 3165 C 299.083 1.39433 -2.66419 0
M  V30 3166 C 300.631 1.50927 -2.74208 0
M  V30 3167 C 301.106 1.99692 -4.12174 0
M  V30 3168 N 302.597 2.06947 -4.144 0
M  V30 3169 C 303.332 2.45871 -5.1801 0
M  V30 3170 N 302.828 2.83862 -6.31977 0
M  V30 3171 N 304.621 2.46092 -5.05366 0
M  V30 3172 H 296.772 -0.0803548 -2.12248 0
M  V30 3173 H 299.035 0.0266913 -0.947624 0
M  V30 3174 H 298.741 0.688925 -3.44887 0
M  V30 3175 H 298.615 2.36347 -2.93973 0
M  V30 3176 H 301.002 2.20561 -1.96053 0
M  V30 3177 H 301.083 0.523627 -2.50383 0
M  V30 3178 H 300.727 1.30649 -4.90809 0
M  V30 3179 H 300.657 2.99146 -4.33381 0
M  V30 3180 H 303.148 1.80232 -3.32152 0
M  V30 3181 H 303.461 3.12405 -7.0684 0
M  V30 3182 H 301.806 2.8159 -6.35399 0
M  V30 3183 H 304.997 2.1581 -4.15384 0
M  V30 3184 H 305.17 2.76102 -5.86235 0
M  V30 3185 N 298.576 1.31904 0.862503 0
M  V30 3186 C 299.509 1.14514 1.97388 0
M  V30 3187 C 300.487 0.0466493 1.62533 0
M  V30 3188 O 301.671 0.204484 1.87388 0
M  V30 3189 C 298.798 0.751347 3.30261 0
M  V30 3190 C 297.844 1.85395 3.84098 0
M  V30 3191 S 298.677 3.46081 4.08642 0
M  V30 3192 C 299.833 3.08655 5.44502 0
M  V30 3193 H 300.066 2.08597 2.11836 0
M  V30 3194 H 297.599 1.16475 1.01356 0
M  V30 3195 H 299.557 0.530901 4.07052 0
M  V30 3196 H 298.218 -0.170493 3.13637 0
M  V30 3197 H 297.411 1.53122 4.80177 0
M  V30 3198 H 297.013 2.02984 3.14123 0
M  V30 3199 H 299.305 2.58012 6.26447 0
M  V30 3200 H 300.248 4.03726 5.81731 0
M  V30 3201 H 300.656 2.45891 5.08132 0
M  V30 3202 N 300.054 -1.07777 1.14986 0
M  V30 3203 C 301.302 -1.79934 0.920235 0
M  V30 3204 C 301.623 -1.86955 -0.554336 0
M  V30 3205 O 300.893 -1.36731 -1.40291 0
M  V30 3206 H 299.473 -0.666424 0.337473 0
M  V30 3207 H 302.135 -1.3027 1.44968 0
M  V30 3208 H 301.231 -2.82539 1.32583 0
M  V30 3209 N 301.532 -0.945985 -1.26051 0
M  V30 3210 C 302.479 -0.45809 -2.26208 0
M  V30 3211 C 303.449 0.484816 -1.58867 0
M  V30 3212 O 304.634 0.399969 -1.86561 0
M  V30 3213 C 301.774 0.266131 -3.44072 0
M  V30 3214 C 300.887 -0.713005 -4.26075 0
M  V30 3215 C 300.022 0.0329013 -5.3119 0
M  V30 3216 C 299.061 -0.93774 -6.04874 0
M  V30 3217 N 298.198 -0.223274 -7.01745 0
M  V30 3218 H 303.038 -1.3171 -2.67313 0
M  V30 3219 H 300.575 -0.66069 -1.31428 0
M  V30 3220 H 302.533 0.702514 -4.11243 0
M  V30 3221 H 301.163 1.08925 -3.03867 0
M  V30 3222 H 300.215 -1.26789 -3.58648 0
M  V30 3223 H 301.527 -1.45406 -4.77136 0
M  V30 3224 H 300.681 0.528335 -6.04395 0
M  V30 3225 H 299.42 0.806801 -4.8098 0
M  V30 3226 H 298.425 -1.44425 -5.30492 0
M  V30 3227 H 299.65 -1.71172 -6.57173 0
M  V30 3228 H 297.596 0.532046 -6.53839 0
M  V30 3229 H 297.513 -0.90357 -7.50581 0
M  V30 3230 H 298.781 0.250907 -7.79096 0
M  V30 3231 N 303.011 1.40521 -0.713556 0
M  V30 3232 C 303.944 2.28198 -0.00881422 0
M  V30 3233 C 304.922 1.43227 0.769735 0
M  V30 3234 O 306.106 1.72641 0.756799 0
M  V30 3235 C 303.233 3.23758 0.994899 0
M  V30 3236 C 302.279 4.25391 0.3074 0
M  V30 3237 S 303.112 5.26765 -0.963247 0
M  V30 3238 C 304.268 6.25888 0.0384143 0
M  V30 3239 H 304.501 2.87622 -0.752407 0
M  V30 3240 H 302.034 1.45925 -0.504502 0
M  V30 3241 H 303.992 3.79341 1.56879 0
M  V30 3242 H 302.653 2.63396 1.71118 0
M  V30 3243 H 301.846 4.92596 1.0661 0
M  V30 3244 H 301.448 3.73497 -0.193879 0
M  V30 3245 H 303.74 6.71683 0.885912 0
M  V30 3246 H 304.683 7.05552 -0.60019 0
M  V30 3247 H 305.091 5.63072 0.401233 0
M  V30 3248 N 304.489 0.459591 1.5075 0
M  V30 3249 C 305.719 -0.0972338 2.06371 0
M  V30 3250 C 306.127 -1.35074 1.32483 0
M  V30 3251 O 305.47 -1.79637 0.384226 0
M  V30 3252 C 305.532 -0.462759 3.56509 0
M  V30 3253 C 305.196 0.687084 4.51805 0
M  V30 3254 C 306.193 1.56578 4.95761 0
M  V30 3255 C 303.878 0.874144 4.94635 0
M  V30 3256 C 305.872 2.61604 5.81242 0
M  V30 3257 C 303.559 1.92765 5.79901 0
M  V30 3258 C 304.557 2.79697 6.23104 0
M  V30 3259 O 304.245 3.83235 7.06673 0
M  V30 3260 H 303.977 -0.00140687 0.675999 0
M  V30 3261 H 306.531 0.644011 1.95043 0
M  V30 3262 H 304.761 -1.25703 3.65699 0
M  V30 3263 H 306.45 -0.953323 3.94546 0
M  V30 3264 H 307.216 1.4329 4.6335 0
M  V30 3265 H 303.095 0.207006 4.60535 0
M  V30 3266 H 306.639 3.29489 6.14884 0
M  V30 3267 H 302.536 2.06064 6.11725 0
M  V30 3268 H 303.304 3.80084 7.24899 0
M  V30 3269 N 305.967 -1.56429 0.191757 0
M  V30 3270 C 306.877 -2.22541 -0.742481 0
M  V30 3271 C 307.893 -1.22342 -1.23727 0
M  V30 3272 O 309.069 -1.55069 -1.28513 0
M  V30 3273 C 306.134 -2.8692 -1.94623 0
M  V30 3274 C 305.195 -4.02378 -1.49633 0
M  V30 3275 C 304.428 -4.63678 -2.6427 0
M  V30 3276 O 304.651 -4.23895 -3.81666 0
M  V30 3277 O 303.585 -5.53202 -2.37174 0
M  V30 3278 H 307.411 -3.02977 -0.209462 0
M  V30 3279 H 304.996 -1.49353 -0.0373832 0
M  V30 3280 H 306.878 -3.27663 -2.64982 0
M  V30 3281 H 305.553 -2.09466 -2.46791 0
M  V30 3282 H 304.46 -3.66265 -0.761636 0
M  V30 3283 H 305.793 -4.81487 -1.02134 0
M  V30 3284 N 307.445 0.0818655 -1.57387 0
M  V30 3285 C 308.691 0.784074 -1.8703 0
M  V30 3286 C 309.024 1.77729 -0.782689 0
M  V30 3287 O 308.299 1.93384 0.208051 0
M  V30 3288 C 308.582 1.50105 -3.27323 0
M  V30 3289 C 308.435 0.524925 -4.46727 0
M  V30 3290 C 309.754 2.44843 -3.65705 0
M  V30 3291 H 306.873 0.283582 -0.680257 0
M  V30 3292 H 309.515 0.0474352 -1.89941 0
M  V30 3293 H 307.665 2.12897 -3.24972 0
M  V30 3294 H 309.337 -0.0970111 -4.61198 0
M  V30 3295 H 307.58 -0.160606 -4.33503 0
M  V30 3296 H 308.251 1.064 -5.41648 0
M  V30 3297 H 310.727 1.92135 -3.69085 0
M  V30 3298 H 309.603 2.92018 -4.64776 0
M  V30 3299 H 309.864 3.29197 -2.95096 0
M  V30 3300 N 308.923 1.53595 0.353017 0
M  V30 3301 C 309.886 1.80232 1.41594 0
M  V30 3302 C 310.886 0.673081 1.46035 0
M  V30 3303 O 312.076 0.941335 1.46576 0
M  V30 3304 C 309.208 1.93578 2.80607 0
M  V30 3305 H 310.401 2.75174 1.19244 0
M  V30 3306 H 307.954 1.44864 0.586872 0
M  V30 3307 H 308.689 1.00746 3.08254 0
M  V30 3308 H 308.474 2.75724 2.78781 0
M  V30 3309 H 309.964 2.15735 3.57558 0
M  V30 3310 N 310.401 -0.613514 1.45168 0
M  V30 3311 C 311.331 -1.7354 1.56225 0
M  V30 3312 C 312.312 -1.64981 0.41414 0
M  V30 3313 O 313.497 -1.83472 0.636526 0
M  V30 3314 C 310.627 -3.12128 1.52295 0
M  V30 3315 C 309.581 -3.35491 2.65762 0
M  V30 3316 C 308.907 -4.74291 2.46885 0
M  V30 3317 C 310.207 -3.26325 4.0781 0
M  V30 3318 H 311.901 -1.64543 2.50132 0
M  V30 3319 H 309.447 -0.790185 1.20383 0
M  V30 3320 H 311.4 -3.90404 1.58628 0
M  V30 3321 H 310.124 -3.2195 0.549139 0
M  V30 3322 H 308.783 -2.59603 2.58847 0
M  V30 3323 H 308.431 -4.80839 1.47657 0
M  V30 3324 H 308.131 -4.9088 3.22972 0
M  V30 3325 H 309.655 -5.54775 2.55063 0
M  V30 3326 H 311.069 -3.94483 4.16 0
M  V30 3327 H 309.466 -3.54445 4.8424 0
M  V30 3328 H 310.536 -2.23855 4.30136 0
M  V30 3329 N 311.879 -1.3236 -0.855495 0
M  V30 3330 C 313.107 -1.2587 -1.64208 0
M  V30 3331 C 313.522 0.173457 -1.88002 0
M  V30 3332 O 312.879 1.11027 -1.44842 0
M  V30 3333 C 312.93 -2.01424 -3.00184 0
M  V30 3334 O 312.651 -3.39051 -2.77445 0
M  V30 3335 C 314.152 -2.01948 -3.94629 0
M  V30 3336 H 311.372 -0.434318 -0.511477 0
M  V30 3337 H 313.916 -1.74469 -1.0668 0
M  V30 3338 H 312.071 -1.56549 -3.5436 0
M  V30 3339 H 312.485 -3.77711 -3.63916 0
M  V30 3340 H 313.959 -2.59297 -4.87308 0
M  V30 3341 H 314.436 -1.00554 -4.27534 0
M  V30 3342 H 315.042 -2.46767 -3.4639 0
M  V30 3343 N 313.357 1.07166 -1.15556 0
M  V30 3344 C 314.603 1.80065 -0.932984 0
M  V30 3345 C 314.936 1.86586 0.53845 0
M  V30 3346 O 314.211 1.35098 1.39924 0
M  V30 3347 C 314.494 3.25022 -1.55025 0
M  V30 3348 C 314.347 3.26634 -3.09242 0
M  V30 3349 C 315.666 4.22341 -1.2376 0
M  V30 3350 H 312.785 0.653697 -0.340366 0
M  V30 3351 H 315.427 1.25389 -1.4275 0
M  V30 3352 H 313.577 3.71712 -1.12972 0
M  V30 3353 H 315.249 2.88173 -3.60214 0
M  V30 3354 H 313.492 2.65539 -3.43033 0
M  V30 3355 H 314.163 4.28854 -3.47546 0
M  V30 3356 H 316.639 3.8405 -1.60139 0
M  V30 3357 H 315.515 5.22053 -1.69564 0
M  V30 3358 H 315.776 4.41828 -0.154938 0
M  V30 3359 N 314.835 0.952656 1.25548 0
M  V30 3360 C 315.745 0.47782 2.29682 0
M  V30 3361 C 316.761 -0.453859 1.67977 0
M  V30 3362 O 317.937 -0.330587 1.98668 0
M  V30 3363 C 315.002 -0.238655 3.45878 0
M  V30 3364 C 314.063 0.730994 4.23031 0
M  V30 3365 C 313.296 0.0486165 5.33678 0
M  V30 3366 O 313.519 -1.16612 5.58353 0
M  V30 3367 O 312.453 0.733152 5.97418 0
M  V30 3368 H 316.279 1.34312 2.72386 0
M  V30 3369 H 313.864 0.719026 1.30959 0
M  V30 3370 H 315.746 -0.641774 4.16484 0
M  V30 3371 H 314.421 -1.07916 3.05181 0
M  V30 3372 H 313.328 1.18428 3.5486 0
M  V30 3373 H 314.661 1.53946 4.67506 0
M  V30 3374 N 316.313 -1.40141 0.720998 0
M  V30 3375 C 317.561 -2.0039 0.262323 0
M  V30 3376 C 317.882 -1.57469 -1.15015 0
M  V30 3377 O 317.152 -0.816582 -1.78069 0
M  V30 3378 H 315.732 -0.741063 0.093996 0
M  V30 3379 H 318.394 -1.71398 0.927835 0
M  V30 3380 H 317.49 -3.10658 0.299671 0
M  V30 3381 N 317.792 -0.46758 -1.50504 0
M  V30 3382 C 319.022 0.086288 -2.0642 0
M  V30 3383 C 319.43 1.34369 -1.33197 0
M  V30 3384 O 318.773 1.79431 -0.393747 0
M  V30 3385 C 318.835 0.443846 -3.5675 0
M  V30 3386 C 318.499 -0.711035 -4.51435 0
M  V30 3387 C 319.496 -1.59205 -4.94924 0
M  V30 3388 C 317.181 -0.900363 -4.94165 0
M  V30 3389 C 319.175 -2.64683 -5.79846 0
M  V30 3390 C 316.862 -1.95837 -5.7887 0
M  V30 3391 C 317.86 -2.82997 -6.21612 0
M  V30 3392 O 317.548 -3.86977 -7.0463 0
M  V30 3393 H 317.28 -0.00217814 -0.675996 0
M  V30 3394 H 319.834 -0.654346 -1.94698 0
M  V30 3395 H 318.064 1.23762 -3.6636 0
M  V30 3396 H 319.753 0.932386 -3.95046 0
M  V30 3397 H 320.519 -1.45745 -4.62583 0
M  V30 3398 H 316.398 -0.231427 -4.60419 0
M  V30 3399 H 319.942 -3.32745 -6.13128 0
M  V30 3400 H 315.839 -2.09305 -6.10624 0
M  V30 3401 H 316.607 -3.83923 -7.22873 0
M  V30 3402 N 319.27 1.56325 -0.20005 0
M  V30 3403 C 320.202 2.16555 0.750771 0
M  V30 3404 C 321.215 1.12871 1.1732 0
M  V30 3405 O 322.404 1.39943 1.10807 0
M  V30 3406 C 319.504 2.71684 2.02586 0
M  V30 3407 C 318.677 4.00321 1.76244 0
M  V30 3408 C 317.736 4.40227 2.88248 0
M  V30 3409 O 316.762 5.07552 2.57642 0
M  V30 3410 N 317.964 4.04138 4.16717 0
M  V30 3411 H 320.729 2.98772 0.235685 0
M  V30 3412 H 318.29 1.6189 -0.0182594 0
M  V30 3413 H 320.282 2.95363 2.76664 0
M  V30 3414 H 318.852 1.93893 2.45202 0
M  V30 3415 H 318.072 3.84723 0.85919 0
M  V30 3416 H 319.36 4.84279 1.56048 0
M  V30 3417 H 318.758 3.49993 4.44434 0
M  V30 3418 H 317.315 4.32756 4.87407 0
M  V30 3419 N 320.748 -0.0735177 1.57428 0
M  V30 3420 C 321.973 -0.789787 1.91774 0
M  V30 3421 C 322.398 -1.70413 0.796306 0
M  V30 3422 O 321.756 -1.79555 -0.250961 0
M  V30 3423 C 321.804 -1.5609 3.25067 0
M  V30 3424 O 320.908 -2.67144 3.14178 0
M  V30 3425 H 320.249 -0.215582 0.628029 0
M  V30 3426 H 322.779 -0.0422781 2.04556 0
M  V30 3427 H 322.789 -1.94052 3.58898 0
M  V30 3428 H 321.464 -0.890015 4.06265 0
M  V30 3429 H 320.041 -2.32052 2.91901 0
M  V30 3430 N 322.226 -1.5378 -0.344866 0
M  V30 3431 C 323.451 -1.75211 -1.10977 0
M  V30 3432 C 323.876 -0.48936 -1.81623 0
M  V30 3433 O 323.234 0.557925 -1.72502 0
M  V30 3434 C 323.282 -2.93147 -2.09993 0
M  V30 3435 O 322.386 -2.63203 -3.17487 0
M  V30 3436 H 321.727 -0.581241 -0.321021 0
M  V30 3437 H 324.257 -2.00738 -0.395661 0
M  V30 3438 H 324.267 -3.19898 -2.53237 0
M  V30 3439 H 322.942 -3.84731 -1.5797 0
M  V30 3440 H 321.519 -2.47336 -2.79069 0
M  V30 3441 N 323.704 0.605807 -1.45491 0
M  V30 3442 C 324.952 1.36207 -1.49305 0
M  V30 3443 C 325.273 1.94519 -0.136863 0
M  V30 3444 O 324.543 1.77261 0.833983 0
M  V30 3445 H 323.123 0.50565 -0.549843 0
M  V30 3446 H 325.785 0.711239 -1.81459 0
M  V30 3447 H 324.881 2.18058 -2.23287 0
M  V30 3448 N 325.182 1.32811 0.848464 0
M  V30 3449 C 326.412 1.26556 1.63301 0
M  V30 3450 C 326.82 -0.1676 1.88456 0
M  V30 3451 O 326.163 -1.11713 1.45828 0
M  V30 3452 C 326.225 1.96202 3.01239 0
M  V30 3453 C 325.889 3.45528 2.99098 0
M  V30 3454 C 326.886 4.40903 2.75501 0
M  V30 3455 C 324.571 3.87558 3.19537 0
M  V30 3456 C 326.565 5.76282 2.72356 0
M  V30 3457 C 324.252 5.23044 3.16019 0
M  V30 3458 C 325.25 6.17217 2.92458 0
M  V30 3459 O 324.938 7.50223 2.88825 0
M  V30 3460 H 324.67 0.43771 0.515156 0
M  V30 3461 H 327.224 1.7559 1.0657 0
M  V30 3462 H 325.454 1.41746 3.59785 0
M  V30 3463 H 327.143 1.83573 3.62016 0
M  V30 3464 H 327.909 4.09756 2.5947 0
M  V30 3465 H 323.788 3.14674 3.369 0
M  V30 3466 H 327.332 6.4976 2.53886 0
M  V30 3467 H 323.229 5.53818 3.31596 0
M  V30 3468 H 323.997 7.59657 3.04735 0
M  V30 3469 N 326.66 -1.06551 1.16123 0
M  V30 3470 C 327.623 -2.12132 0.867906 0
M  V30 3471 C 328.623 -1.60224 -0.135944 0
M  V30 3472 O 329.813 -1.73943 0.0946422 0
M  V30 3473 C 326.945 -3.396 0.297419 0
M  V30 3474 H 328.138 -2.39586 1.80385 0
M  V30 3475 H 325.691 -1.22574 0.969812 0
M  V30 3476 H 326.426 -3.17794 -0.64633 0
M  V30 3477 H 326.211 -3.78581 1.02073 0
M  V30 3478 H 327.701 -4.17455 0.110052 0
M  V30 3479 N 328.138 -0.959301 -1.25041 0
M  V30 3480 C 329.086 -0.474437 -2.2771 0
M  V30 3481 C 330.08 0.457697 -1.631 0
M  V30 3482 O 331.286 0.333912 -1.76876 0
M  V30 3483 H 327.661 -0.134936 -0.739795 0
M  V30 3484 H 329.632 -1.35251 -2.65988 0
M  V30 3485 C 328.381 0.227884 -3.46952 0
M  V30 3486 H 327.704 -0.480248 -3.96905 0
M  V30 3487 H 329.144 0.531091 -4.20661 0
M  V30 3488 C 327.603 1.452 -3.04004 0
M  V30 3489 O 328.133 2.54949 -3.10426 0
M  V30 3490 N 326.339 1.31502 -2.59144 0
M  V30 3491 H 325.886 0.422065 -2.54119 0
M  V30 3492 H 325.844 2.13521 -2.30773 0
M  V30 3493 N 329.616 1.39756 -0.72842 0
M  V30 3494 C 330.862 2.00942 -0.273892 0
M  V30 3495 C 331.195 1.57656 1.13394 0
M  V30 3496 O 330.47 0.802434 1.77176 0
M  V30 3497 C 330.753 3.58211 -0.368346 0
M  V30 3498 C 330.606 4.11534 -1.81548 0
M  V30 3499 C 331.925 4.39372 0.253054 0
M  V30 3500 H 329.044 0.730047 -0.100996 0
M  V30 3501 H 331.686 1.66056 -0.923337 0
M  V30 3502 H 329.836 3.88061 0.184588 0
M  V30 3503 H 331.508 3.92431 -2.42478 0
M  V30 3504 H 329.751 3.65341 -2.33898 0
M  V30 3505 H 330.422 5.20682 -1.83288 0
M  V30 3506 H 332.898 4.15527 -0.218224 0
M  V30 3507 H 331.774 5.48677 0.156585 0
M  V30 3508 H 332.035 4.21358 1.33826 0
M  V30 3509 N 331.094 0.475555 1.50254 0
M  V30 3510 C 332.324 -0.0753399 2.06463 0
M  V30 3511 C 332.732 -1.33661 1.33908 0
M  V30 3512 O 332.075 -1.79219 0.403257 0
M  V30 3513 C 332.137 -0.424921 3.5698 0
M  V30 3514 C 331.801 0.734965 4.51051 0
M  V30 3515 C 332.798 1.61827 4.94073 0
M  V30 3516 C 330.483 0.926557 4.9368 0
M  V30 3517 C 332.477 2.67754 5.78434 0
M  V30 3518 C 330.164 1.98904 5.77824 0
M  V30 3519 C 331.162 2.8629 6.20103 0
M  V30 3520 O 330.85 3.90708 7.02568 0
M  V30 3521 H 330.582 0.00576308 0.675975 0
M  V30 3522 H 333.136 0.664662 1.94349 0
M  V30 3523 H 331.366 -1.21817 3.67012 0
M  V30 3524 H 333.055 -0.911422 3.95535 0
M  V30 3525 H 333.821 1.48196 4.61804 0
M  V30 3526 H 329.7 0.25584 4.6029 0
M  V30 3527 H 333.244 3.35992 6.11355 0
M  V30 3528 H 329.141 2.12541 6.09505 0
M  V30 3529 H 329.909 3.87751 7.20827 0
M  V30 3530 N 332.573 -1.56217 0.208337 0
M  V30 3531 C 333.52 -2.19699 -0.707192 0
M  V30 3532 C 334.49 -1.14836 -1.20008 0
M  V30 3533 O 335.675 -1.4314 -1.26157 0
M  V30 3534 C 332.815 -2.87061 -1.91546 0
M  V30 3535 C 331.928 -4.06483 -1.46271 0
M  V30 3536 C 331.063 -4.61665 -2.62752 0
M  V30 3537 C 330.102 -5.73417 -2.14147 0
M  V30 3538 N 329.239 -6.22948 -3.23853 0
M  V30 3539 H 334.079 -2.97575 -0.159111 0
M  V30 3540 H 331.616 -1.46948 -0.0667874 0
M  V30 3541 H 333.574 -3.24294 -2.62468 0
M  V30 3542 H 332.204 -2.11725 -2.43664 0
M  V30 3543 H 331.256 -3.74825 -0.648886 0
M  V30 3544 H 332.568 -4.87271 -1.06622 0
M  V30 3545 H 331.722 -5.01272 -3.41776 0
M  V30 3546 H 330.461 -3.80013 -3.05682 0
M  V30 3547 H 329.466 -5.33326 -1.33581 0
M  V30 3548 H 330.691 -6.56897 -1.72232 0
M  V30 3549 H 328.637 -5.44213 -3.6629 0
M  V30 3550 H 328.554 -6.98823 -2.88414 0
M  V30 3551 H 329.822 -6.6721 -4.03052 0
M  V30 3552 N 334.051 0.0651679 -1.57465 0
M  V30 3553 C 334.999 1.09542 -2.05191 0
M  V30 3554 C 335.993 1.39675 -0.958509 0
M  V30 3555 O 337.199 1.39003 -1.14359 0
M  V30 3556 H 333.574 0.370623 -0.654326 0
M  V30 3557 H 335.545 0.666802 -2.90854 0
M  V30 3558 C 334.294 2.39881 -2.51699 0
M  V30 3559 H 333.617 2.17547 -3.3543 0
M  V30 3560 H 335.057 3.104 -2.88839 0
M  V30 3561 C 333.516 3.0631 -1.40271 0
M  V30 3562 O 334.046 3.94664 -0.748523 0
M  V30 3563 N 332.252 2.67041 -1.14618 0
M  V30 3564 H 331.799 1.95281 -1.67997 0
M  V30 3565 H 331.757 3.1181 -0.402688 0
M  V30 3566 N 335.529 1.53961 0.336706 0
M  V30 3567 C 336.439 1.85432 1.43708 0
M  V30 3568 C 337.455 0.745053 1.57242 0
M  V30 3569 O 338.631 1.03804 1.72588 0
M  V30 3570 C 335.696 2.06349 2.78605 0
M  V30 3571 C 334.757 3.30191 2.74358 0
M  V30 3572 C 333.99 3.50101 4.02822 0
M  V30 3573 O 334.213 2.7371 5.00439 0
M  V30 3574 O 333.147 4.43547 4.06878 0
M  V30 3575 H 336.973 2.78975 1.20028 0
M  V30 3576 H 334.558 1.39701 0.52952 0
M  V30 3577 H 336.44 2.21513 3.58483 0
M  V30 3578 H 335.115 1.15995 3.02203 0
M  V30 3579 H 334.022 3.20425 1.93078 0
M  V30 3580 H 335.355 4.2056 2.55715 0
M  V30 3581 N 337.007 -0.598083 1.45811 0
M  V30 3582 C 338.256 -1.35295 1.49594 0
M  V30 3583 C 338.569 -1.95057 0.145679 0
M  V30 3584 O 339.775 -2.71431 0.0612099 0
M  V30 3585 C 338.231 -2.45124 2.63519 0
M  V30 3586 C 337.839 -1.91732 4.04899 0
M  V30 3587 C 339.583 -3.2205 2.76558 0
M  V30 3588 C 337.49 -2.991 5.1019 0
M  V30 3589 H 336.42 -0.508552 0.556679 0
M  V30 3590 H 339.071 -0.639977 1.71978 0
M  V30 3591 H 337.453 -3.19149 2.34435 0
M  V30 3592 H 338.627 -1.24352 4.43704 0
M  V30 3593 H 336.942 -1.27522 3.96393 0
M  V30 3594 H 339.539 -4.0215 3.52391 0
M  V30 3595 H 339.882 -3.73663 1.83526 0
M  V30 3596 H 340.415 -2.55127 3.05213 0
M  V30 3597 H 337.154 -2.52393 6.04961 0
M  V30 3598 H 336.674 -3.65017 4.75944 0
M  V30 3599 H 338.353 -3.63318 5.35359 0
M  V30 3600 N 338.485 -1.33259 -0.841409 0
M  V30 3601 C 339.901 -1.12538 -1.13169 0
M  V30 3602 C 340.101 0.0854037 -2.01319 0
M  V30 3603 O 339.157 0.766417 -2.40587 0
M  V30 3604 C 340.47 -2.41156 -1.79623 0
M  V30 3605 C 342.018 -2.47038 -1.922 0
M  V30 3606 C 342.493 -3.7561 -2.6207 0
M  V30 3607 N 343.984 -3.76667 -2.69585 0
M  V30 3608 C 344.719 -4.72861 -3.2433 0
M  V30 3609 N 344.215 -5.79428 -3.79783 0
M  V30 3610 N 346.008 -4.6034 -3.22558 0
M  V30 3611 H 338.159 -2.10868 -0.254676 0
M  V30 3612 H 340.422 -0.931615 -0.175493 0
M  V30 3613 H 340.128 -3.29747 -1.22311 0
M  V30 3614 H 340.002 -2.53114 -2.79666 0
M  V30 3615 H 342.389 -1.58898 -2.48667 0
M  V30 3616 H 342.47 -2.39022 -0.911148 0
M  V30 3617 H 342.114 -4.64131 -2.06263 0
M  V30 3618 H 342.044 -3.80902 -3.63622 0
M  V30 3619 H 344.535 -2.99648 -2.30259 0
M  V30 3620 H 344.848 -6.48867 -4.19752 0
M  V30 3621 H 343.193 -5.83166 -3.78078 0
M  V30 3622 H 346.384 -3.76244 -2.78492 0
M  V30 3623 H 346.557 -5.35478 -3.64921 0
M  V30 3624 N 339.963 1.05934 -1.16686 0
M  V30 3625 C 341.212 1.78188 -0.945085 0
M  V30 3626 C 341.525 1.88338 0.528021 0
M  V30 3627 O 342.731 2.57258 0.867799 0
M  V30 3628 C 341.187 3.20277 -1.64167 0
M  V30 3629 C 340.795 3.18281 -3.15279 0
M  V30 3630 C 342.539 3.97039 -1.502 0
M  V30 3631 C 340.446 4.55112 -3.7766 0
M  V30 3632 H 339.376 0.667866 -0.349959 0
M  V30 3633 H 342.027 1.18794 -1.39858 0
M  V30 3634 H 340.409 3.79952 -1.11589 0
M  V30 3635 H 341.583 2.68167 -3.74731 0
M  V30 3636 H 339.898 2.55018 -3.29173 0
M  V30 3637 H 342.495 4.98194 -1.94183 0
M  V30 3638 H 342.838 4.13845 -0.451461 0
M  V30 3639 H 343.371 3.43894 -1.99954 0
M  V30 3640 H 340.11 4.43512 -4.82677 0
M  V30 3641 H 339.63 5.05406 -3.22994 0
M  V30 3642 H 341.309 5.24064 -3.79428 0
M  V30 3643 N 341.441 0.965919 1.2453 0
M  V30 3644 C 342.689 0.625593 1.92174 0
M  V30 3645 C 343.01 -0.841652 1.75901 0
M  V30 3646 O 342.28 -1.60061 1.12948 0
M  V30 3647 H 340.86 0.228388 0.71123 0
M  V30 3648 H 343.522 1.2266 1.51461 0
M  V30 3649 H 342.618 0.864653 2.99884 0
M  V30 3650 N 342.919 -1.39368 0.735821 0
M  V30 3651 C 343.882 -2.2896 0.104874 0
M  V30 3652 C 344.882 -1.46347 -0.666274 0
M  V30 3653 O 346.072 -1.67014 -0.49517 0
M  V30 3654 C 343.204 -3.29857 -0.860656 0
M  V30 3655 H 344.397 -2.86259 0.894205 0
M  V30 3656 H 341.95 -1.48029 0.501704 0
M  V30 3657 H 342.685 -2.77615 -1.67631 0
M  V30 3658 H 342.47 -3.9087 -0.310327 0
M  V30 3659 H 343.96 -3.96893 -1.29867 0
M  V30 3660 N 344.397 -0.483516 -1.5 0
M  V30 3661 C 345.345 0.318061 -2.30415 0
M  V30 3662 C 346.339 0.978988 -1.38247 0
M  V30 3663 O 347.545 0.908673 -1.55381 0
M  V30 3664 H 343.92 0.121419 -0.742133 0
M  V30 3665 H 345.891 -0.380403 -2.95965 0
M  V30 3666 C 344.64 1.38013 -3.19136 0
M  V30 3667 H 343.963 0.880952 -3.89973 0
M  V30 3668 H 345.403 1.91332 -3.78375 0
M  V30 3669 C 343.862 2.38884 -2.37563 0
M  V30 3670 O 344.392 3.44412 -2.06744 0
M  V30 3671 N 342.598 2.10912 -1.99911 0
M  V30 3672 H 342.145 1.25118 -2.25174 0
M  V30 3673 H 342.103 2.78635 -1.45636 0
M  V30 3674 N 345.875 1.56104 -0.216619 0
M  V30 3675 C 347.286 1.844 0.292128 0
M  V30 3676 C 347.637 1.13788 1.59833 0
M  V30 3677 O 346.762 0.405888 2.12559 0
M  V30 3678 C 347.357 3.3452 0.53681 0
M  V30 3679 C 345.916 3.63151 0.989876 0
M  V30 3680 C 345.063 2.77255 0.0502302 0
M  V30 3681 H 348.014 1.52481 -0.439926 0
M  V30 3682 H 348.035 3.54459 1.38345 0
M  V30 3683 H 347.547 3.85885 -0.414031 0
M  V30 3684 H 345.648 3.17238 1.95425 0
M  V30 3685 H 345.761 4.71177 0.867698 0
M  V30 3686 H 344.125 2.48555 0.556117 0
M  V30 3687 H 344.908 3.31416 -0.89544 0
M  V30 3688 N 347.353 -0.0568162 1.57498 0
M  V30 3689 C 348.581 -0.765626 1.92213 0
M  V30 3690 C 348.996 -1.70353 0.813961 0
M  V30 3691 O 348.353 -1.81268 -0.211701 0
M  V30 3692 C 348.404 -1.5465 3.2675 0
M  V30 3693 O 348.125 -0.646278 4.33307 0
M  V30 3694 C 349.626 -2.35497 3.75574 0
M  V30 3695 H 346.846 -0.216835 0.634999 0
M  V30 3696 H 349.39 -0.0226146 2.04487 0
M  V30 3697 H 347.545 -2.24165 3.15957 0
M  V30 3698 H 347.959 -1.19093 5.108 0
M  V30 3699 H 349.433 -2.85722 4.72299 0
M  V30 3700 H 349.91 -3.15692 3.05344 0
M  V30 3701 H 350.516 -1.7111 3.8936 0
M  V30 3702 N 348.832 -1.54138 -0.328536 0
M  V30 3703 C 350.243 -1.63395 -0.903272 0
M  V30 3704 C 350.594 -0.524828 -1.8905 0
M  V30 3705 O 349.719 0.343068 -2.13663 0
M  V30 3706 C 350.314 -2.9618 -1.64507 0
M  V30 3707 C 348.873 -3.0765 -2.1686 0
M  V30 3708 C 348.02 -2.58933 -0.992416 0
M  V30 3709 H 350.971 -1.58344 -0.106253 0
M  V30 3710 H 350.992 -2.86061 -2.50897 0
M  V30 3711 H 350.504 -3.76884 -0.926302 0
M  V30 3712 H 348.605 -2.31611 -2.91868 0
M  V30 3713 H 348.718 -4.1337 -2.42202 0
M  V30 3714 H 347.082 -2.14706 -1.37016 0
M  V30 3715 H 347.865 -3.42089 -0.288041 0
M  V30 3716 N 350.31 0.590341 -1.46126 0
M  V30 3717 C 351.273 1.68194 -1.55703 0
M  V30 3718 C 352.273 1.54808 -0.434868 0
M  V30 3719 O 353.463 1.59564 -0.698928 0
M  V30 3720 C 350.595 3.07575 -1.47005 0
M  V30 3721 H 351.788 1.61064 -2.52979 0
M  V30 3722 H 349.341 0.807541 -1.33823 0
M  V30 3723 H 350.076 3.20268 -0.509785 0
M  V30 3724 H 349.861 3.187 -2.28414 0
M  V30 3725 H 351.351 3.87055 -1.56776 0
M  V30 3726 N 351.788 1.33704 0.83433 0
M  V30 3727 C 353.199 1.22813 1.4062 0
M  V30 3728 C 353.55 -0.151107 1.95617 0
M  V30 3729 O 352.675 -1.05092 1.89168 0
M  V30 3730 C 353.27 2.22355 2.55624 0
M  V30 3731 C 351.829 2.1529 3.08751 0
M  V30 3732 C 350.976 2.09589 1.8157 0
M  V30 3733 H 353.927 1.45236 0.639702 0
M  V30 3734 H 353.948 1.83391 3.33389 0
M  V30 3735 H 353.46 3.22728 2.15566 0
M  V30 3736 H 351.561 1.18235 3.53343 0
M  V30 3737 H 351.674 3.06038 3.68616 0
M  V30 3738 H 350.038 1.55134 2.02004 0
M  V30 3739 H 350.821 3.11777 1.43701 0
M  V30 3740 N 353.266 -1.05314 1.17247 0
M  V30 3741 C 354.491 -1.82509 0.985148 0
M  V30 3742 C 354.916 -1.82343 -0.461788 0
M  V30 3743 O 354.274 -1.23151 -1.33055 0
M  V30 3744 C 354.322 -3.26566 1.52929 0
M  V30 3745 O 353.426 -4.05666 0.742225 0
M  V30 3746 H 352.767 -0.564347 0.349869 0
M  V30 3747 H 355.297 -1.32718 1.55715 0
M  V30 3748 H 355.307 -3.77369 1.55103 0
M  V30 3749 H 353.982 -3.26001 2.58256 0
M  V30 3750 H 352.559 -3.64397 0.791794 0
M  V30 3751 N 354.744 -0.972509 -1.24016 0
M  V30 3752 C 355.676 -0.464375 -2.24446 0
M  V30 3753 C 356.689 0.4295 -1.57032 0
M  V30 3754 O 357.878 0.234902 -1.76948 0
M  V30 3755 C 354.978 0.348385 -3.37105 0
M  V30 3756 C 354.151 -0.53673 -4.34094 0
M  V30 3757 C 353.21 0.220838 -5.25736 0
M  V30 3758 O 352.236 -0.386867 -5.67884 0
M  V30 3759 N 353.438 1.50907 -5.60542 0
M  V30 3760 H 356.203 -1.32788 -2.68677 0
M  V30 3761 H 353.764 -0.844877 -1.38107 0
M  V30 3762 H 355.756 0.863341 -3.95384 0
M  V30 3763 H 354.326 1.11285 -2.92121 0
M  V30 3764 H 353.546 -1.23261 -3.74433 0
M  V30 3765 H 354.834 -1.14022 -4.95859 0
M  V30 3766 H 354.232 2.02444 -5.28236 0
M  V30 3767 H 352.789 1.96962 -6.21329 0
M  V30 3768 N 356.222 1.38976 -0.743202 0
M  V30 3769 C 357.447 2.05161 -0.303936 0
M  V30 3770 C 357.872 1.55677 1.05576 0
M  V30 3771 O 357.23 0.704131 1.67068 0
M  V30 3772 C 357.278 3.59138 -0.324373 0
M  V30 3773 O 356.382 4.06668 0.685204 0
M  V30 3774 H 355.723 0.649815 -0.136518 0
M  V30 3775 H 358.253 1.77852 -1.01142 0
M  V30 3776 H 358.263 4.07639 -0.171618 0
M  V30 3777 H 356.938 3.94515 -1.31647 0
M  V30 3778 H 355.515 3.69561 0.497913 0
M  V30 3779 N 357.7 0.491464 1.49741 0
M  V30 3780 C 359.111 0.0413169 1.86654 0
M  V30 3781 C 359.462 -1.36985 1.40462 0
M  V30 3782 O 358.587 -2.01917 0.778354 0
M  V30 3783 C 359.182 0.0682023 3.38731 0
M  V30 3784 C 357.741 -0.32656 3.74981 0
M  V30 3785 C 356.888 0.444888 2.73708 0
M  V30 3786 H 359.839 0.704733 1.42194 0
M  V30 3787 H 359.86 -0.729322 3.73445 0
M  V30 3788 H 359.372 1.09539 3.72321 0
M  V30 3789 H 357.473 -1.35734 3.46997 0
M  V30 3790 H 357.586 -0.013741 4.79098 0
M  V30 3791 H 355.95 -0.104062 2.54487 0
M  V30 3792 H 356.733 1.47197 3.10142 0
M  V30 3793 N 359.178 -1.55987 0.224894 0
M  V30 3794 C 360.427 -1.97566 -0.406273 0
M  V30 3795 C 360.74 -1.11569 -1.6066 0
M  V30 3796 O 361.946 -1.43062 -2.3075 0
M  V30 3797 C 360.402 -3.51474 -0.774207 0
M  V30 3798 C 360.01 -4.46179 0.403496 0
M  V30 3799 C 361.754 -4.01758 -1.37079 0
M  V30 3800 C 359.661 -5.91399 0.0129412 0
M  V30 3801 H 358.591 -0.737777 -0.155565 0
M  V30 3802 H 361.242 -1.80659 0.321635 0
M  V30 3803 H 359.624 -3.63994 -1.55963 0
M  V30 3804 H 360.798 -4.45409 1.18101 0
M  V30 3805 H 359.113 -4.06255 0.913536 0
M  V30 3806 H 361.71 -5.07756 -1.67596 0
M  V30 3807 H 362.053 -3.47805 -2.28773 0
M  V30 3808 H 362.586 -3.92475 -0.648733 0
M  V30 3809 H 359.325 -6.49341 0.896451 0
M  V30 3810 H 358.845 -5.95356 -0.728821 0
M  V30 3811 H 360.524 -6.45683 -0.412582 0
M  V30 3812 N 360.656 0.0484629 -1.57525 0
M  V30 3813 C 362.072 0.40375 -1.54409 0
M  V30 3814 C 362.272 1.77786 -0.948384 0
M  V30 3815 O 361.328 2.46189 -0.560983 0
M  V30 3816 C 362.641 0.323394 -2.98956 0
M  V30 3817 C 364.189 0.401892 -3.10409 0
M  V30 3818 C 364.664 0.351195 -4.56652 0
M  V30 3819 N 366.155 0.410576 -4.61377 0
M  V30 3820 C 366.89 0.393933 -5.72045 0
M  V30 3821 N 366.386 0.330724 -6.9201 0
M  V30 3822 N 368.179 0.442227 -5.60358 0
M  V30 3823 H 360.33 -0.851016 -1.94606 0
M  V30 3824 H 362.593 -0.321721 -0.89174 0
M  V30 3825 H 362.299 -0.62011 -3.4619 0
M  V30 3826 H 362.173 1.12463 -3.60044 0
M  V30 3827 H 364.56 1.33582 -2.63134 0
M  V30 3828 H 364.641 -0.428342 -2.52188 0
M  V30 3829 H 364.285 -0.578987 -5.04589 0
M  V30 3830 H 364.215 1.19928 -5.12762 0
M  V30 3831 H 366.706 0.462729 -3.75056 0
M  V30 3832 H 367.019 0.322592 -7.72126 0
M  V30 3833 H 365.364 0.29706 -6.94365 0
M  V30 3834 H 368.555 0.489464 -4.65534 0
M  V30 3835 H 368.728 0.425788 -6.466 0
M  V30 3836 N 362.134 1.5431 0.320358 0
M  V30 3837 C 363.55 1.45091 0.664889 0
M  V30 3838 C 363.75 0.626382 1.91517 0
M  V30 3839 O 362.806 0.126443 2.52183 0
M  V30 3840 C 364.119 2.88848 0.83591 0
M  V30 3841 C 365.667 2.9877 0.933046 0
M  V30 3842 C 366.142 4.43683 1.13621 0
M  V30 3843 N 367.633 4.47309 1.20287 0
M  V30 3844 C 368.368 5.56595 1.37801 0
M  V30 3845 N 367.864 6.75844 1.52338 0
M  V30 3846 N 369.657 5.44248 1.40535 0
M  V30 3847 H 361.808 2.06398 -0.501374 0
M  V30 3848 H 364.071 0.933963 -0.162534 0
M  V30 3849 H 363.777 3.51698 -0.0116092 0
M  V30 3850 H 363.651 3.35148 1.73078 0
M  V30 3851 H 366.038 2.36045 1.77107 0
M  V30 3852 H 366.119 2.55796 0.0145782 0
M  V30 3853 H 365.763 5.06995 0.303032 0
M  V30 3854 H 365.693 4.84269 2.0686 0
M  V30 3855 H 368.184 3.61388 1.10485 0
M  V30 3856 H 368.497 7.54892 1.65403 0
M  V30 3857 H 366.842 6.78746 1.4943 0
M  V30 3858 H 370.033 4.50038 1.28777 0
M  V30 3859 H 370.206 6.29473 1.53842 0
M  V30 3860 N 363.613 -0.582584 1.46437 0
M  V30 3861 C 364.89 -1.34276 1.4223 0
M  V30 3862 C 365.27 -2.10835 0.10583 0
M  V30 3863 O 364.618 -2.09485 -0.912596 0
M  V30 3864 C 364.828 -2.26865 2.65204 0
M  V30 3865 C 366.176 -2.88691 3.11356 0
M  V30 3866 O 367.2 -2.37178 2.65753 0
M  V30 3867 O 366.059 -3.82255 3.90568 0
M  V30 3868 H 363.153 -0.603326 0.565621 0
M  V30 3869 H 365.699 -0.603591 1.58603 0
M  V30 3870 H 364.471 -1.69724 3.52576 0
M  V30 3871 H 364.094 -3.08122 2.5129 0
M  V30 3872 N 365.091 -1.34144 -0.827227 0
M  V30 3873 C 366.054 -1.25264 -1.91942 0
M  V30 3874 C 367.054 -0.168866 -1.59911 0
M  V30 3875 O 368.244 -0.421198 -1.69031 0
M  V30 3876 C 365.376 -0.932952 -3.27885 0
M  V30 3877 H 366.569 -2.22357 -2.0124 0
M  V30 3878 H 364.122 -1.1837 -1.0207 0
M  V30 3879 H 364.857 0.0349917 -3.24281 0
M  V30 3880 H 364.642 -1.71682 -3.52516 0
M  V30 3881 H 366.132 -0.895874 -4.07877 0
M  V30 3882 N 366.569 1.04691 -1.17803 0
M  V30 3883 C 367.816 1.77782 -0.969532 0
M  V30 3884 C 368.144 1.87926 0.501401 0
M  V30 3885 O 367.399 1.37918 1.38842 0
M  V30 3886 C 367.698 3.21467 -1.56186 0
M  V30 3887 C 367.364 3.3137 -3.05786 0
M  V30 3888 C 366.026 3.3378 -3.46619 0
M  V30 3889 C 368.378 3.31976 -4.01797 0
M  V30 3890 C 365.706 3.34431 -4.82051 0
M  V30 3891 C 368.058 3.34167 -5.37136 0
M  V30 3892 C 366.722 3.34866 -5.77426 0
M  V30 3893 H 365.992 0.650549 -0.354777 0
M  V30 3894 H 368.639 1.23006 -1.46772 0
M  V30 3895 H 366.944 3.79203 -0.985515 0
M  V30 3896 H 368.641 3.76652 -1.37602 0
M  V30 3897 H 365.231 3.3021 -2.73238 0
M  V30 3898 H 369.415 3.29311 -3.71306 0
M  V30 3899 H 364.671 3.33285 -5.12573 0
M  V30 3900 H 368.845 3.33585 -6.11305 0
M  V30 3901 H 366.472 3.35124 -6.82346 0
M  V30 3902 N 368.047 0.979072 1.23499 0
M  V30 3903 C 369.272 0.664845 1.96455 0
M  V30 3904 C 369.697 -0.761287 1.72006 0
M  V30 3905 O 369.055 -1.51837 0.990713 0
M  V30 3906 C 369.103 0.959479 3.47601 0
M  V30 3907 O 368.207 0.0508168 4.12369 0
M  V30 3908 H 367.548 0.250185 0.615064 0
M  V30 3909 H 370.078 1.31231 1.5697 0
M  V30 3910 H 370.088 0.895642 3.98048 0
M  V30 3911 H 368.763 1.99876 3.64723 0
M  V30 3912 H 367.34 0.16895 3.72517 0
M  V30 3913 N 369.525 -1.3858 0.750561 0
M  V30 3914 C 370.774 -1.99424 0.302172 0
M  V30 3915 C 371.087 -1.60254 -1.12152 0
M  V30 3916 O 372.293 -2.14046 -1.67023 0
M  V30 3917 C 370.749 -3.56558 0.489307 0
M  V30 3918 C 370.357 -4.04682 1.92189 0
M  V30 3919 C 372.101 -4.24374 0.103478 0
M  V30 3920 C 370.008 -5.54446 2.05775 0
M  V30 3921 H 368.938 -0.746046 0.10923 0
M  V30 3922 H 371.589 -1.58383 0.92667 0
M  V30 3923 H 369.971 -3.95472 -0.204329 0
M  V30 3924 H 371.145 -3.77065 2.64875 0
M  V30 3925 H 369.46 -3.4958 2.26236 0
M  V30 3926 H 372.057 -5.34384 0.183787 0
M  V30 3927 H 372.4 -4.05468 -0.943481 0
M  V30 3928 H 372.933 -3.90688 0.748854 0
M  V30 3929 H 369.672 -5.78252 3.08714 0
M  V30 3930 H 369.192 -5.83816 1.37546 0
M  V30 3931 H 370.871 -6.20099 1.84626 0
M  V30 3932 N 371.003 -0.499398 -1.49478 0
M  V30 3933 C 372.252 0.0475259 -2.01644 0
M  V30 3934 C 372.565 1.38195 -1.38425 0
M  V30 3935 O 373.771 2.01547 -1.8191 0
M  V30 3936 C 372.227 0.135164 -3.59646 0
M  V30 3937 C 371.835 -1.19252 -4.31837 0
M  V30 3938 C 373.579 0.632538 -4.19761 0
M  V30 3939 C 371.486 -1.06713 -5.81693 0
M  V30 3940 H 370.416 0.0215349 -0.753692 0
M  V30 3941 H 373.067 -0.638577 -1.7203 0
M  V30 3942 H 371.449 0.885681 -3.85969 0
M  V30 3943 H 372.623 -1.9562 -4.17216 0
M  V30 3944 H 370.938 -1.62321 -3.83459 0
M  V30 3945 H 373.535 0.743833 -5.29501 0
M  V30 3946 H 373.878 1.63098 -3.83021 0
M  V30 3947 H 374.411 -0.0613987 -3.97753 0
M  V30 3948 H 371.15 -2.03979 -6.22955 0
M  V30 3949 H 370.67 -0.344307 -5.98811 0
M  V30 3950 H 372.349 -0.745208 -6.42694 0
M  V30 3951 N 372.481 1.55866 -0.233164 0
M  V30 3952 C 373.391 2.24431 0.683217 0
M  V30 3953 C 374.407 1.2558 1.2044 0
M  V30 3954 O 375.583 1.58422 1.24356 0
M  V30 3955 C 372.648 2.91979 1.86947 0
M  V30 3956 C 371.709 4.06204 1.38912 0
M  V30 3957 C 370.942 4.70522 2.51883 0
M  V30 3958 O 371.165 4.33865 3.70293 0
M  V30 3959 O 370.099 5.59296 2.22423 0
M  V30 3960 H 373.925 3.03426 0.129059 0
M  V30 3961 H 371.51 1.494 -0.0022283 0
M  V30 3962 H 373.392 3.34573 2.56201 0
M  V30 3963 H 372.067 2.15935 2.41151 0
M  V30 3964 H 370.974 3.68155 0.664259 0
M  V30 3965 H 372.307 4.84025 0.893328 0
M  V30 3966 N 373.959 -0.0401083 1.57549 0
M  V30 3967 C 374.922 -1.02871 2.04817 0
M  V30 3968 C 375.922 -1.29708 0.950388 0
M  V30 3969 O 377.112 -1.24897 1.21435 0
M  V30 3970 C 374.244 -2.36443 2.45576 0
M  V30 3971 H 375.437 -0.620631 2.93408 0
M  V30 3972 H 372.99 -0.286667 1.53649 0
M  V30 3973 H 373.725 -2.82021 1.60108 0
M  V30 3974 H 373.51 -2.18296 3.25713 0
M  V30 3975 H 375 -3.07441 2.82612 0
M  V30 3976 N 375.437 -1.54477 -0.31217 0
M  V30 3977 C 376.347 -1.87695 -1.4074 0
M  V30 3978 C 377.363 -0.769975 -1.56036 0
M  V30 3979 O 378.539 -1.06537 -1.70915 0
M  V30 3980 C 375.604 -2.10755 -2.75287 0
M  V30 3981 C 374.665 -3.34514 -2.69071 0
M  V30 3982 C 373.898 -3.56465 -3.97201 0
M  V30 3983 O 374.121 -2.81637 -4.96021 0
M  V30 3984 O 373.055 -4.49964 -3.9977 0
M  V30 3985 H 376.881 -2.80849 -1.15574 0
M  V30 3986 H 374.466 -1.40526 -0.507228 0
M  V30 3987 H 376.348 -2.27188 -3.54913 0
M  V30 3988 H 375.023 -1.20788 -3.0032 0
M  V30 3989 H 373.93 -3.23456 -1.87955 0
M  V30 3990 H 375.263 -4.24575 -2.48992 0
M  V30 3991 N 376.915 0.57481 -1.46744 0
M  V30 3992 C 377.825 1.711 -1.60505 0
M  V30 3993 C 378.841 1.67008 -0.488307 0
M  V30 3994 O 380.017 1.86774 -0.753495 0
M  V30 3995 C 377.082 3.07608 -1.59932 0
M  V30 3996 C 376.143 3.22904 -2.82898 0
M  V30 3997 C 375.376 4.529 -2.82343 0
M  V30 3998 O 375.599 5.37278 -1.91542 0
M  V30 3999 O 374.533 4.71611 -3.73987 0
M  V30 4000 H 378.359 1.62436 -2.56609 0
M  V30 4001 H 375.944 0.742779 -1.29627 0
M  V30 4002 H 377.826 3.88877 -1.62336 0
M  V30 4003 H 376.501 3.16692 -0.669898 0
M  V30 4004 H 375.408 2.41099 -2.86046 0
M  V30 4005 H 376.741 3.18715 -3.75076 0
M  V30 4006 N 378.394 1.34581 0.820102 0
M  V30 4007 C 379.624 1.29991 1.6058 0
M  V30 4008 C 380.032 -0.127588 1.88769 0
M  V30 4009 O 379.375 -1.08595 1.48165 0
M  V30 4010 C 379.437 2.02548 2.9701 0
M  V30 4011 C 379.101 3.51794 2.91701 0
M  V30 4012 C 380.098 4.46647 2.66087 0
M  V30 4013 C 377.783 3.94249 3.11245 0
M  V30 4014 C 379.777 5.81929 2.60071 0
M  V30 4015 C 377.464 5.2963 3.04853 0
M  V30 4016 C 378.462 6.23282 2.793 0
M  V30 4017 O 378.15 7.56181 2.72847 0
M  V30 4018 H 377.882 0.448539 0.505756 0
M  V30 4019 H 380.436 1.77811 1.02822 0
M  V30 4020 H 378.666 1.49345 3.56697 0
M  V30 4021 H 380.355 1.91211 3.58041 0
M  V30 4022 H 381.121 4.15168 2.5072 0
M  V30 4023 H 377 3.21749 3.30149 0
M  V30 4024 H 380.544 6.54999 2.40046 0
M  V30 4025 H 376.441 5.60727 3.19774 0
M  V30 4026 H 377.209 7.6595 2.88553 0
M  V30 4027 N 379.872 -1.04064 1.18357 0
M  V30 4028 C 380.82 -2.14187 0.907007 0
M  V30 4029 C 381.814 -1.68879 -0.132725 0
M  V30 4030 O 383.02 -1.79993 0.0154248 0
M  V30 4031 H 379.395 -0.699585 0.275835 0
M  V30 4032 H 381.366 -2.34711 1.84264 0
M  V30 4033 C 380.115 -3.44785 0.449254 0
M  V30 4034 H 379.438 -3.80058 1.24081 0
M  V30 4035 H 380.878 -4.22974 0.294737 0
M  V30 4036 C 379.337 -3.26391 -0.834909 0
M  V30 4037 O 379.867 -3.53973 -1.89911 0
M  V30 4038 N 378.073 -2.79726 -0.787523 0
M  V30 4039 H 377.62 -2.5748 0.0787347 0
M  V30 4040 H 377.578 -2.67798 -1.64716 0
M  V30 4041 N 381.35 -0.985608 -1.22978 0
M  V30 4042 C 382.575 -0.675254 -1.961 0
M  V30 4043 C 383 0.752154 -1.72407 0
M  V30 4044 O 382.358 1.5131 -0.998751 0
M  V30 4045 C 382.406 -0.977899 -3.47087 0
M  V30 4046 O 381.51 -0.072685 -4.12336 0
M  V30 4047 H 380.851 -0.253443 -0.613728 0
M  V30 4048 H 383.381 -1.32061 -1.56272 0
M  V30 4049 H 383.391 -0.916739 -3.97567 0
M  V30 4050 H 382.066 -2.01807 -3.63657 0
M  V30 4051 H 380.643 -0.188703 -3.72422 0
M  V30 4052 N 382.828 1.3818 -0.7579 0
M  V30 4053 C 384.056 2.04301 -0.326937 0
M  V30 4054 C 384.471 1.57163 1.0462 0
M  V30 4055 O 383.828 0.746626 1.66529 0
M  V30 4056 C 383.879 3.59846 -0.345363 0
M  V30 4057 O 383.6 4.05256 -1.66432 0
M  V30 4058 C 385.101 4.4319 0.098927 0
M  V30 4059 H 382.321 0.656443 -0.139012 0
M  V30 4060 H 384.865 1.76786 -1.02796 0
M  V30 4061 H 383.02 3.86182 0.306955 0
M  V30 4062 H 383.434 4.99709 -1.59345 0
M  V30 4063 H 384.908 5.51989 0.0348745 0
M  V30 4064 H 385.385 4.23947 1.14741 0
M  V30 4065 H 385.991 4.22051 -0.52468 0
M  V30 4066 N 384.306 0.507319 1.49211 0
M  V30 4067 C 385.254 -0.281364 2.30892 0
M  V30 4068 C 386.248 -0.95687 1.39787 0
M  V30 4069 O 387.454 -0.883838 1.56807 0
M  V30 4070 H 383.829 -0.109597 0.743971 0
M  V30 4071 H 385.8 0.42744 2.95323 0
M  V30 4072 C 384.549 -1.32918 3.21291 0
M  V30 4073 H 383.872 -0.818799 3.91326 0
M  V30 4074 H 385.312 -1.85288 3.81372 0
M  V30 4075 C 383.771 -2.35074 2.41333 0
M  V30 4076 O 384.301 -3.4108 2.12197 0
M  V30 4077 N 382.507 -2.07705 2.03241 0
M  V30 4078 H 382.054 -1.2152 2.27136 0
M  V30 4079 H 382.012 -2.76283 1.50051 0
M  V30 4080 N 385.784 -1.5574 0.241426 0
M  V30 4081 C 387.009 -2.0366 -0.392111 0
M  V30 4082 C 387.434 -1.11969 -1.51144 0
M  V30 4083 O 386.792 -0.111594 -1.80956 0
M  V30 4084 C 386.84 -3.49638 -0.882371 0
M  V30 4085 O 385.944 -3.6108 -1.99235 0
M  V30 4086 H 385.285 -0.658379 -0.0862122 0
M  V30 4087 H 387.815 -2.01302 0.365881 0
M  V30 4088 H 387.825 -3.90351 -1.18702 0
M  V30 4089 H 386.5 -4.15852 -0.0632361 0
M  V30 4090 H 385.077 -3.32262 -1.69282 0
M  V30 4091 N 387.262 0.0317525 -1.57568 0
M  V30 4092 C 388.487 0.738664 -1.938 0
M  V30 4093 C 388.912 1.68242 -0.841208 0
M  V30 4094 O 388.27 1.80157 0.203267 0
M  V30 4095 C 388.318 1.47417 -3.29091 0
M  V30 4096 O 387.422 2.5872 -3.2115 0
M  V30 4097 H 386.763 0.198856 -0.633524 0
M  V30 4098 H 389.293 -0.0119713 -2.04596 0
M  V30 4099 H 389.303 1.84468 -3.63917 0
M  V30 4100 H 387.978 0.781988 -4.08482 0
M  V30 4101 H 386.555 2.24231 -2.97951 0
M  V30 4102 N 388.74 1.54641 0.303973 0
M  V30 4103 C 389.968 1.77768 1.05858 0
M  V30 4104 C 390.383 0.535722 1.8104 0
M  V30 4105 O 389.74 -0.494337 1.75677 0
M  V30 4106 C 389.791 2.9834 2.04146 0
M  V30 4107 O 389.512 4.17736 1.32015 0
M  V30 4108 C 391.013 3.33832 2.91669 0
M  V30 4109 H 388.233 0.592961 0.314067 0
M  V30 4110 H 390.777 2.01583 0.344149 0
M  V30 4111 H 388.932 2.76742 2.71096 0
M  V30 4112 H 389.346 4.85693 1.97998 0
M  V30 4113 H 390.82 4.21448 3.56491 0
M  V30 4114 H 391.297 2.51857 3.59812 0
M  V30 4115 H 391.903 3.57579 2.30254 0
M  V30 4116 N 390.218 -0.567019 1.47046 0
M  V30 4117 C 391.148 -1.68482 1.61667 0
M  V30 4118 C 392.129 -1.6358 0.466418 0
M  V30 4119 O 393.314 -1.81354 0.694574 0
M  V30 4120 C 390.444 -3.07124 1.62148 0
M  V30 4121 C 389.398 -3.26867 2.76301 0
M  V30 4122 C 388.724 -4.66196 2.61849 0
M  V30 4123 C 390.024 -3.13186 4.17986 0
M  V30 4124 H 391.718 -1.56502 2.5524 0
M  V30 4125 H 389.264 -0.751486 1.22836 0
M  V30 4126 H 391.217 -3.8516 1.70968 0
M  V30 4127 H 389.941 -3.2004 0.651287 0
M  V30 4128 H 388.6 -2.51237 2.66975 0
M  V30 4129 H 388.248 -4.75898 1.62879 0
M  V30 4130 H 387.948 -4.80356 3.38425 0
M  V30 4131 H 389.472 -5.46379 2.72584 0
M  V30 4132 H 390.886 -3.81049 4.2834 0
M  V30 4133 H 389.283 -3.3886 4.95272 0
M  V30 4134 H 390.353 -2.10057 4.3704 0
M  V30 4135 N 391.696 -1.35014 -0.812953 0
M  V30 4136 C 392.628 -1.23262 -1.93233 0
M  V30 4137 C 393.641 -0.157371 -1.62038 0
M  V30 4138 O 394.83 -0.410096 -1.73725 0
M  V30 4139 C 391.93 -0.87392 -3.27438 0
M  V30 4140 C 391.103 -2.04622 -3.86586 0
M  V30 4141 C 390.162 -1.66432 -4.99186 0
M  V30 4142 O 389.188 -2.38222 -5.16951 0
M  V30 4143 N 390.39 -0.584248 -5.77552 0
M  V30 4144 H 393.155 -2.19699 -2.03844 0
M  V30 4145 H 390.716 -1.281 -0.99005 0
M  V30 4146 H 392.708 -0.600039 -4.00227 0
M  V30 4147 H 391.278 0.00057392 -3.126 0
M  V30 4148 H 390.498 -2.48427 -3.06068 0
M  V30 4149 H 391.786 -2.82999 -4.22835 0
M  V30 4150 H 391.184 0.0123526 -5.65699 0
M  V30 4151 H 389.741 -0.37013 -6.50748 0
M  V30 4152 N 393.175 1.03435 -1.18907 0
M  V30 4153 C 394.421 1.77005 -0.989798 0
M  V30 4154 C 394.754 1.88205 0.478816 0
M  V30 4155 O 394.029 1.39481 1.35556 0
M  V30 4156 C 394.312 3.19925 -1.65287 0
M  V30 4157 C 394.165 3.1663 -3.19477 0
M  V30 4158 C 395.484 4.18189 -1.37134 0
M  V30 4159 H 392.603 0.642538 -0.360991 0
M  V30 4160 H 395.245 1.20784 -1.46667 0
M  V30 4161 H 393.395 3.67929 -1.24741 0
M  V30 4162 H 395.067 2.76567 -3.692 0
M  V30 4163 H 393.31 2.54491 -3.51307 0
M  V30 4164 H 393.981 4.1758 -3.61013 0
M  V30 4165 H 396.457 3.78761 -1.72276 0
M  V30 4166 H 395.333 5.16394 -1.86087 0
M  V30 4167 H 395.594 4.41112 -0.295424 0
M  V30 4168 N 394.653 0.992116 1.22453 0
M  V30 4169 C 395.902 0.662992 1.90492 0
M  V30 4170 C 396.215 -0.808407 1.78113 0
M  V30 4171 O 397.421 -1.24908 2.41061 0
M  V30 4172 C 395.877 1.1353 3.41524 0
M  V30 4173 C 395.485 2.63187 3.62542 0
M  V30 4174 C 397.229 0.880465 4.15269 0
M  V30 4175 C 395.136 3.04024 5.0727 0
M  V30 4176 H 394.066 0.244278 0.713333 0
M  V30 4177 H 396.717 1.20157 1.38688 0
M  V30 4178 H 395.099 0.52485 3.92506 0
M  V30 4179 H 396.273 3.2957 3.22056 0
M  V30 4180 H 394.588 2.86543 3.02129 0
M  V30 4181 H 397.185 1.16128 5.21937 0
M  V30 4182 H 397.528 -0.183408 4.15896 0
M  V30 4183 H 398.061 1.45307 3.70312 0
M  V30 4184 H 394.8 4.09584 5.11782 0
M  V30 4185 H 394.32 2.42343 5.48662 0
M  V30 4186 H 395.999 2.95282 5.75689 0
M  V30 4187 N 396.131 -1.37776 0.765217 0
M  V30 4188 C 397.379 -1.99454 0.325943 0
M  V30 4189 C 397.7 -1.61049 -1.09947 0
M  V30 4190 O 396.97 -0.872821 -1.75381 0
M  V30 4191 H 395.55 -0.737697 0.117525 0
M  V30 4192 H 398.212 -1.68359 0.981895 0
M  V30 4193 H 397.308 -3.09547 0.398353 0
M  V30 4194 N 397.609 -0.515225 -1.4894 0
M  V30 4195 C 398.837 0.0206034 -2.0689 0
M  V30 4196 C 399.252 1.29514 -1.37374 0
M  V30 4197 O 398.609 1.76698 -0.456529 0
M  V30 4198 C 398.66 0.26351 -3.60538 0
M  V30 4199 O 398.381 -0.960517 -4.27441 0
M  V30 4200 C 399.882 0.841383 -4.35242 0
M  V30 4201 H 397.102 -0.0268608 -0.670462 0
M  V30 4202 H 399.646 -0.716651 -1.91532 0
M  V30 4203 H 397.801 0.950777 -3.75552 0
M  V30 4204 H 398.215 -0.73212 -5.19365 0
M  V30 4205 H 399.689 0.96085 -5.43573 0
M  V30 4206 H 400.166 1.8427 -3.98674 0
M  V30 4207 H 400.772 0.191143 -4.2487 0
M  V30 4208 N 399.087 1.5561 -0.249682 0
M  V30 4209 C 400.498 1.84979 0.252949 0
M  V30 4210 C 400.849 1.17153 1.57384 0
M  V30 4211 O 399.974 0.450884 2.11651 0
M  V30 4212 C 400.569 3.35584 0.465732 0
M  V30 4213 C 399.128 3.65169 0.912624 0
M  V30 4214 C 398.275 2.77299 -0.00859085 0
M  V30 4215 H 401.226 1.51513 -0.47217 0
M  V30 4216 H 401.247 3.57313 1.30795 0
M  V30 4217 H 400.759 3.8492 -0.49579 0
M  V30 4218 H 398.86 3.21312 1.88652 0
M  V30 4219 H 398.973 4.72912 0.767559 0
M  V30 4220 H 397.337 2.49678 0.50327 0
M  V30 4221 H 398.12 3.29442 -0.965537 0
M  V30 4222 N 400.565 -0.0233959 1.57583 0
M  V30 4223 C 401.513 -1.04063 2.08023 0
M  V30 4224 C 402.507 -1.37084 0.995204 0
M  V30 4225 O 403.713 -1.35923 1.18004 0
M  V30 4226 H 400.088 -0.353144 0.663922 0
M  V30 4227 H 402.059 -0.589453 2.9252 0
M  V30 4228 C 400.808 -2.33123 2.57971 0
M  V30 4229 H 400.131 -2.08577 3.4108 0
M  V30 4230 H 401.571 -3.02632 2.96967 0
M  V30 4231 C 400.03 -3.02483 1.48342 0
M  V30 4232 O 400.56 -3.92541 0.852898 0
M  V30 4233 N 398.766 -2.63909 1.21658 0
M  V30 4234 H 398.313 -1.90758 1.73116 0
M  V30 4235 H 398.271 -3.10633 0.485218 0
M  V30 4236 N 402.043 -1.548 -0.295768 0
M  V30 4237 C 402.991 -1.86874 -1.38495 0
M  V30 4238 C 403.985 -0.742938 -1.52239 0
M  V30 4239 O 405.191 -0.926999 -1.54294 0
M  V30 4240 H 401.566 -0.592786 -0.462719 0
M  V30 4241 H 403.537 -2.77904 -1.08682 0
M  V30 4242 C 402.286 -2.13732 -2.74252 0
M  V30 4243 H 401.609 -2.99835 -2.64459 0
M  V30 4244 H 403.049 -2.4011 -3.49461 0
M  V30 4245 C 401.508 -0.937539 -3.23592 0
M  V30 4246 O 402.038 -0.160665 -4.01379 0
M  V30 4247 N 400.244 -0.741478 -2.80981 0
M  V30 4248 H 399.791 -1.37489 -2.1784 0
M  V30 4249 H 399.749 0.0597103 -3.14343 0
M  V30 4250 N 403.521 0.559213 -1.47345 0
M  V30 4251 C 404.769 1.31388 -1.53563 0
M  V30 4252 C 405.09 1.93985 -0.198678 0
M  V30 4253 O 404.36 1.79825 0.777167 0
M  V30 4254 H 402.94 0.487901 -0.565652 0
M  V30 4255 H 405.602 0.65315 -1.8363 0
M  V30 4256 H 404.698 2.10844 -2.30111 0
M  V30 4257 N 404.999 1.35443 0.805782 0
M  V30 4258 C 406.415 1.15499 1.10146 0
M  V30 4259 C 406.615 -0.0319975 2.01475 0
M  V30 4260 O 405.671 -0.70236 2.42535 0
M  V30 4261 C 406.984 2.45833 1.73166 0
M  V30 4262 C 408.532 2.52047 1.85583 0
M  V30 4263 C 409.007 3.82427 2.52019 0
M  V30 4264 N 410.498 3.83682 2.59504 0
M  V30 4265 C 411.233 4.81294 3.11679 0
M  V30 4266 N 410.729 5.89294 3.64287 0
M  V30 4267 N 412.522 4.6873 3.1024 0
M  V30 4268 H 404.673 2.11469 0.198678 0
M  V30 4269 H 406.936 0.93594 0.150731 0
M  V30 4270 H 406.642 3.32874 1.13526 0
M  V30 4271 H 406.516 2.6044 2.72857 0
M  V30 4272 H 408.903 1.65435 2.44367 0
M  V30 4273 H 408.984 2.41354 0.847455 0
M  V30 4274 H 408.628 4.69437 1.93885 0
M  V30 4275 H 408.558 3.90409 3.53395 0
M  V30 4276 H 411.049 3.05648 2.22234 0
M  V30 4277 H 411.362 6.59768 4.02401 0
M  V30 4278 H 409.707 5.92985 3.62483 0
M  V30 4279 H 412.898 3.83496 2.68419 0
M  V30 4280 H 413.071 5.44965 3.50596 0
M  V30 4281 N 406.477 -1.02803 1.19454 0
M  V30 4282 C 407.725 -1.75869 0.995722 0
M  V30 4283 C 408.046 -1.89138 -0.474543 0
M  V30 4284 O 407.316 -1.42558 -1.34366 0
M  V30 4285 H 405.896 -0.651511 0.365435 0
M  V30 4286 H 408.558 -1.24004 1.50363 0
M  V30 4287 H 407.654 -2.76661 1.44447 0
M  V30 4288 N 407.956 -0.998596 -1.21925 0
M  V30 4289 C 409.205 -0.673085 -1.90138 0
M  V30 4290 C 409.518 0.79895 -1.78539 0
M  V30 4291 O 410.724 1.23628 -2.4172 0
M  V30 4292 C 409.18 -1.15339 -3.40918 0
M  V30 4293 C 408.788 -2.65106 -3.61141 0
M  V30 4294 C 410.532 -0.902476 -4.14796 0
M  V30 4295 C 408.439 -3.0671 -5.05651 0
M  V30 4296 H 407.369 -0.248057 -0.712028 0
M  V30 4297 H 410.02 -1.20891 -1.38049 0
M  V30 4298 H 408.402 -0.545658 -3.92223 0
M  V30 4299 H 409.576 -3.31274 -3.20304 0
M  V30 4300 H 407.891 -2.88142 -3.00605 0
M  V30 4301 H 410.488 -1.18895 -5.21314 0
M  V30 4302 H 410.831 0.161349 -4.15987 0
M  V30 4303 H 411.364 -1.47269 -3.69536 0
M  V30 4304 H 408.103 -4.12292 -5.09603 0
M  V30 4305 H 407.623 -2.45249 -5.47369 0
M  V30 4306 H 409.302 -2.9833 -5.74115 0
M  V30 4307 N 409.434 1.37368 -0.772513 0
M  V30 4308 C 410.682 1.99279 -0.336516 0
M  V30 4309 C 411.003 1.6163 1.09091 0
M  V30 4310 O 410.273 0.882109 1.74916 0
M  V30 4311 H 408.853 0.737063 -0.121435 0
M  V30 4312 H 411.515 1.67836 -0.990809 0
M  V30 4313 H 410.611 3.09332 -0.414763 0
M  V30 4314 N 410.912 0.523116 1.48665 0
M  V30 4315 C 412.142 -0.00961724 2.06598 0
M  V30 4316 C 412.55 -1.29333 1.38093 0
M  V30 4317 O 411.893 -1.77846 0.46007 0
M  V30 4318 C 411.955 -0.311135 3.58151 0
M  V30 4319 C 411.619 0.878092 4.48485 0
M  V30 4320 C 412.616 1.77464 4.88674 0
M  V30 4321 C 410.301 1.08315 4.90483 0
M  V30 4322 C 412.295 2.86021 5.69623 0
M  V30 4323 C 409.982 2.17187 5.71203 0
M  V30 4324 C 410.98 3.05873 6.10681 0
M  V30 4325 O 410.668 4.12862 6.89783 0
M  V30 4326 H 410.4 0.0272658 0.67545 0
M  V30 4327 H 412.954 0.726156 1.92136 0
M  V30 4328 H 411.184 -1.10079 3.70701 0
M  V30 4329 H 412.873 -0.785125 3.98234 0
M  V30 4330 H 413.639 1.62813 4.56855 0
M  V30 4331 H 409.518 0.402149 4.59243 0
M  V30 4332 H 413.062 3.55272 6.00356 0
M  V30 4333 H 408.959 2.31824 6.02435 0
M  V30 4334 H 409.727 4.10487 7.08126 0
M  V30 4335 N 412.39 -1.55475 0.257931 0
M  V30 4336 C 413.639 -1.98383 -0.364275 0
M  V30 4337 C 413.952 -1.14952 -1.58258 0
M  V30 4338 O 415.158 -1.47924 -2.27664 0
M  V30 4339 C 413.614 -3.53037 -0.699479 0
M  V30 4340 C 413.222 -4.45223 0.498046 0
M  V30 4341 C 414.966 -4.04575 -1.28526 0
M  V30 4342 C 412.873 -5.91238 0.138383 0
M  V30 4343 H 411.803 -0.740911 -0.13988 0
M  V30 4344 H 414.454 -1.79936 0.359883 0
M  V30 4345 H 412.836 -3.6722 -1.48207 0
M  V30 4346 H 414.01 -4.42803 1.27522 0
M  V30 4347 H 412.325 -4.04226 0.999503 0
M  V30 4348 H 414.922 -5.11196 -1.56788 0
M  V30 4349 H 415.265 -3.5258 -2.21344 0
M  V30 4350 H 415.798 -3.93762 -0.565337 0
M  V30 4351 H 412.537 -6.47294 1.03398 0
M  V30 4352 H 412.057 -5.96768 -0.602374 0
M  V30 4353 H 413.736 -6.46413 -0.27553 0
M  V30 4354 N 413.868 0.0150385 -1.57593 0
M  V30 4355 C 414.778 1.02791 -2.10882 0
M  V30 4356 C 415.794 1.38702 -1.0506 0
M  V30 4357 O 416.97 1.47739 -1.36877 0
M  V30 4358 C 414.035 2.30568 -2.58919 0
M  V30 4359 C 413.096 2.01108 -3.79281 0
M  V30 4360 C 412.329 3.22794 -4.25018 0
M  V30 4361 O 412.552 4.33959 -3.70183 0
M  V30 4362 O 411.486 3.07672 -5.17322 0
M  V30 4363 H 415.312 0.604973 -2.97613 0
M  V30 4364 H 412.897 0.23292 -1.47573 0
M  V30 4365 H 414.779 3.05662 -2.90084 0
M  V30 4366 H 413.454 2.72129 -1.75293 0
M  V30 4367 H 412.361 1.23537 -3.53114 0
M  V30 4368 H 413.694 1.64394 -4.63935 0
M  V30 4369 N 415.346 1.54954 0.287554 0
M  V30 4370 C 416.294 1.87606 1.37502 0
M  V30 4371 C 417.288 0.751001 1.51843 0
M  V30 4372 O 418.494 0.935169 1.53801 0
M  V30 4373 H 414.869 0.595231 0.459569 0
M  V30 4374 H 416.84 2.78477 1.07206 0
M  V30 4375 C 415.589 2.15183 2.73115 0
M  V30 4376 H 414.912 3.01234 2.62866 0
M  V30 4377 H 416.352 2.4196 3.48183 0
M  V30 4378 C 414.811 0.954686 3.2309 0
M  V30 4379 O 415.341 0.181949 4.01288 0
M  V30 4380 N 413.547 0.756368 2.80584 0
M  V30 4381 H 413.094 1.38643 2.17108 0
M  V30 4382 H 413.052 -0.0430391 3.14371 0
M  V30 4383 N 416.824 -0.551391 1.4764 0
M  V30 4384 C 418.072 -1.30572 1.54258 0
M  V30 4385 C 418.393 -1.93877 0.208963 0
M  V30 4386 O 417.663 -1.80234 -0.767619 0
M  V30 4387 H 416.243 -0.484894 0.568231 0
M  V30 4388 H 418.905 -0.643402 1.83974 0
M  V30 4389 H 418.001 -2.09621 2.31226 0
M  V30 4390 N 418.302 -1.35869 -0.798587 0
M  V30 4391 C 419.25 -1.29491 -1.93222 0
M  V30 4392 C 420.244 -0.18836 -1.6835 0
M  V30 4393 O 421.45 -0.354822 -1.76468 0
M  V30 4394 H 417.825 -0.402901 -0.63496 0
M  V30 4395 H 419.796 -2.25247 -1.9572 0
M  V30 4396 C 418.545 -1.09184 -3.30112 0
M  V30 4397 H 417.868 -1.93574 -3.49813 0
M  V30 4398 H 419.308 -1.08766 -4.09812 0
M  V30 4399 C 417.767 0.203959 -3.36282 0
M  V30 4400 O 418.297 1.19699 -3.83451 0
M  V30 4401 N 416.503 0.245488 -2.89561 0
M  V30 4402 H 416.05 -0.563223 -2.51367 0
M  V30 4403 H 416.008 1.11219 -2.94071 0
M  V30 4404 N 419.78 1.02168 -1.19998 0
M  V30 4405 C 421.008 1.79296 -1.03249 0
M  V30 4406 C 421.423 1.84103 0.418502 0
M  V30 4407 O 420.78 1.29031 1.29063 0
M  V30 4408 C 420.831 3.24007 -1.60319 0
M  V30 4409 O 420.552 3.19512 -2.99739 0
M  V30 4410 C 422.053 4.17704 -1.48453 0
M  V30 4411 H 419.273 0.564016 -0.363493 0
M  V30 4412 H 421.817 1.28639 -1.58973 0
M  V30 4413 H 419.972 3.7183 -1.08727 0
M  V30 4414 H 420.386 4.10306 -3.26725 0
M  V30 4415 H 421.86 5.17104 -1.93153 0
M  V30 4416 H 422.337 4.37029 -0.436193 0
M  V30 4417 H 422.943 3.7576 -1.99211 0
M  V30 4418 N 421.258 1.00505 1.21394 0
M  V30 4419 C 422.504 0.688793 1.90745 0
M  V30 4420 C 422.837 -0.778486 1.77914 0
M  V30 4421 O 422.112 -1.56433 1.15581 0
M  V30 4422 C 422.395 1.11063 3.42545 0
M  V30 4423 C 422.248 2.63737 3.64367 0
M  V30 4424 C 423.567 0.673059 4.34923 0
M  V30 4425 H 420.686 0.251702 0.692687 0
M  V30 4426 H 423.328 1.25074 1.43026 0
M  V30 4427 H 421.478 0.632508 3.83317 0
M  V30 4428 H 423.15 3.19313 3.32922 0
M  V30 4429 H 421.393 3.05248 3.08231 0
M  V30 4430 H 422.064 2.88305 4.70727 0
M  V30 4431 H 424.54 1.08392 4.01734 0
M  V30 4432 H 423.416 0.996383 5.39781 0
M  V30 4433 H 423.677 -0.425808 4.40045 0
M  V30 4434 N 422.737 -1.36956 0.779787 0
M  V30 4435 C 423.965 -2.03755 0.359398 0
M  V30 4436 C 424.38 -1.58807 -1.02106 0
M  V30 4437 O 423.737 -0.773024 -1.6532 0
M  V30 4438 C 423.788 -3.59251 0.402568 0
M  V30 4439 O 423.509 -4.02557 1.72858 0
M  V30 4440 C 425.01 -4.43291 -0.0284068 0
M  V30 4441 H 422.23 -0.654148 0.149437 0
M  V30 4442 H 424.774 -1.75128 1.05595 0
M  V30 4443 H 422.929 -3.86621 -0.245478 0
M  V30 4444 H 423.343 -4.97111 1.67275 0
M  V30 4445 H 424.817 -5.51975 0.0529466 0
M  V30 4446 H 425.294 -4.25719 -1.07982 0
M  V30 4447 H 425.9 -4.21163 0.591758 0
M  V30 4448 N 424.215 -0.530993 -1.48385 0
M  V30 4449 C 425.445 -0.00133928 -2.066 0
M  V30 4450 C 425.853 1.28599 -1.38777 0
M  V30 4451 O 425.196 1.77599 -0.469495 0
M  V30 4452 C 425.258 0.292137 -3.58311 0
M  V30 4453 C 424.922 -0.901864 -4.48013 0
M  V30 4454 C 425.919 -1.80053 -4.87726 0
M  V30 4455 C 423.604 -1.10915 -4.89901 0
M  V30 4456 C 425.598 -2.89038 -5.68098 0
M  V30 4457 C 423.285 -2.20213 -5.70043 0
M  V30 4458 C 424.283 -3.09107 -6.0905 0
M  V30 4459 O 423.971 -4.16514 -6.87583 0
M  V30 4460 H 423.703 -0.0308475 -0.675296 0
M  V30 4461 H 426.257 -0.736335 -1.91748 0
M  V30 4462 H 424.487 1.08112 -3.7128 0
M  V30 4463 H 426.176 0.763994 -3.98645 0
M  V30 4464 H 426.942 -1.65234 -4.55986 0
M  V30 4465 H 422.821 -0.426498 -4.59023 0
M  V30 4466 H 426.365 -3.58451 -5.98464 0
M  V30 4467 H 422.262 -2.35016 -6.01197 0
M  V30 4468 H 423.03 -4.14237 -7.05939 0
M  V30 4469 N 425.693 1.55336 -0.266172 0
M  V30 4470 C 426.918 2.04258 0.359661 0
M  V30 4471 C 427.343 1.14359 1.49344 0
M  V30 4472 O 426.701 0.140369 1.80756 0
M  V30 4473 C 426.749 3.50997 0.826635 0
M  V30 4474 O 425.853 3.64204 1.93466 0
M  V30 4475 H 425.194 0.659668 0.075727 0
M  V30 4476 H 427.724 2.00694 -0.39786 0
M  V30 4477 H 427.734 3.9219 1.12477 0
M  V30 4478 H 426.409 4.159 -0.00293032 0
M  V30 4479 H 424.986 3.34913 1.63974 0
M  V30 4480 N 427.171 -0.0066808 1.57599 0
M  V30 4481 C 428.119 -1.01851 2.09115 0
M  V30 4482 C 429.113 -1.36021 1.00969 0
M  V30 4483 O 430.319 -1.34663 1.19439 0
M  V30 4484 H 426.694 -0.346083 0.667631 0
M  V30 4485 H 428.665 -0.558394 2.93129 0
M  V30 4486 C 427.414 -2.30374 2.60429 0
M  V30 4487 H 426.737 -2.04947 3.43273 0
M  V30 4488 H 428.177 -2.99466 3.00161 0
M  V30 4489 C 426.636 -3.00893 1.51542 0
M  V30 4490 O 427.166 -3.91614 0.894484 0
M  V30 4491 N 425.372 -2.62603 1.2445 0
M  V30 4492 H 424.919 -1.88911 1.75129 0
M  V30 4493 H 424.877 -3.10101 0.518137 0
M  V30 4494 N 428.649 -1.55105 -0.279332 0
M  V30 4495 C 429.898 -1.74618 -1.00952 0
M  V30 4496 C 430.211 -0.551096 -1.87676 0
M  V30 4497 O 431.417 -0.628507 -2.64125 0
M  V30 4498 C 429.873 -3.09025 -1.84476 0
M  V30 4499 C 429.481 -4.36081 -1.0265 0
M  V30 4500 C 431.225 -3.37891 -2.56963 0
M  V30 4501 C 429.132 -5.6153 -1.85576 0
M  V30 4502 H 428.062 -0.650868 -0.38064 0
M  V30 4503 H 430.713 -1.81569 -0.265475 0
M  V30 4504 H 429.095 -2.96095 -2.62952 0
M  V30 4505 H 430.269 -4.59909 -0.286354 0
M  V30 4506 H 428.584 -4.14312 -0.416464 0
M  V30 4507 H 431.181 -4.28822 -3.19399 0
M  V30 4508 H 431.524 -2.57737 -3.26921 0
M  V30 4509 H 432.057 -3.5189 -1.85522 0
M  V30 4510 H 428.796 -6.44413 -1.2005 0
M  V30 4511 H 428.316 -5.41854 -2.57204 0
M  V30 4512 H 429.995 -5.99594 -2.43096 0
M  V30 4513 N 430.127 0.543554 -1.4793 0
M  V30 4514 C 431.404 1.30458 -1.4574 0
M  V30 4515 C 431.784 2.1048 -0.161692 0
M  V30 4516 O 431.132 2.11831 0.856734 0
M  V30 4517 C 431.342 2.19754 -2.71126 0
M  V30 4518 C 432.69 2.80334 -3.18901 0
M  V30 4519 O 433.714 2.30049 -2.71948 0
M  V30 4520 O 432.573 3.71766 -4.00565 0
M  V30 4521 H 429.667 0.588117 -0.581418 0
M  V30 4522 H 432.213 0.561328 -1.60147 0
M  V30 4523 H 430.985 1.60316 -3.56952 0
M  V30 4524 H 430.608 3.01351 -2.59371 0
M  V30 4525 N 431.605 1.3629 0.791371 0
M  V30 4526 C 432.852 1.30412 1.54916 0
M  V30 4527 C 433.18 -0.117162 1.94147 0
M  V30 4528 O 432.435 -1.08599 1.62803 0
M  V30 4529 C 432.734 2.17068 2.8393 0
M  V30 4530 C 432.4 3.65645 2.63846 0
M  V30 4531 C 431.062 4.0614 2.58077 0
M  V30 4532 C 433.414 4.59855 2.45322 0
M  V30 4533 C 430.742 5.3899 2.31748 0
M  V30 4534 C 433.094 5.9292 2.2052 0
M  V30 4535 C 431.758 6.32542 2.13183 0
M  V30 4536 H 431.028 0.47721 0.566879 0
M  V30 4537 H 433.675 1.68325 0.913172 0
M  V30 4538 H 431.98 1.72085 3.51986 0
M  V30 4539 H 433.677 2.09846 3.4171 0
M  V30 4540 H 430.267 3.33518 2.69191 0
M  V30 4541 H 434.451 4.29443 2.48782 0
M  V30 4542 H 429.707 5.68672 2.24548 0
M  V30 4543 H 433.881 6.65487 2.05182 0
M  V30 4544 H 431.508 7.35412 1.92544 0
M  V30 4545 N 433.083 -1.0153 1.20538 0
M  V30 4546 C 434.331 -1.74803 1.01432 0
M  V30 4547 C 434.652 -1.8963 -0.454456 0
M  V30 4548 O 433.922 -1.43975 -1.32846 0
M  V30 4549 H 432.502 -0.647598 0.372324 0
M  V30 4550 H 435.164 -1.22402 1.5167 0
M  V30 4551 H 434.26 -2.75114 1.47373 0
M  V30 4552 N 434.561 -1.01147 -1.20859 0
M  V30 4553 C 435.786 -0.716698 -1.94623 0
M  V30 4554 C 436.211 0.715415 -1.73964 0
M  V30 4555 O 435.569 1.49157 -1.03062 0
M  V30 4556 C 435.617 -1.0513 -3.44935 0
M  V30 4557 O 434.721 -0.160131 -4.12089 0
M  V30 4558 H 434.062 -0.266404 -0.608214 0
M  V30 4559 H 436.592 -1.35346 -1.53436 0
M  V30 4560 H 436.602 -1.00086 -3.95533 0
M  V30 4561 H 435.277 -2.09475 -3.59295 0
M  V30 4562 H 433.854 -0.267657 -3.71938 0
M  V30 4563 N 436.039 1.36541 -0.78704 0
M  V30 4564 C 437.287 1.98911 -0.357633 0
M  V30 4565 C 437.608 1.62778 1.07371 0
M  V30 4566 O 436.878 0.900612 1.73971 0
M  V30 4567 H 435.458 0.735734 -0.129246 0
M  V30 4568 H 438.12 1.66776 -1.00855 0
M  V30 4569 H 437.216 3.08874 -0.447549 0
M  V30 4570 N 437.518 0.538854 1.48102 0
M  V30 4571 C 438.481 -0.208395 2.28251 0
M  V30 4572 C 439.481 -0.859656 1.35892 0
M  V30 4573 O 440.671 -0.71834 1.58699 0
M  V30 4574 C 437.803 -1.30252 3.15035 0
M  V30 4575 H 438.996 0.495407 2.9578 0
M  V30 4576 H 436.549 0.295112 1.53489 0
M  V30 4577 H 437.284 -2.0393 2.52157 0
M  V30 4578 H 437.069 -0.840551 3.82985 0
M  V30 4579 H 438.559 -1.82787 3.75471 0
M  V30 4580 N 438.996 -1.55193 0.274407 0
M  V30 4581 C 440.224 -2.03987 -0.345943 0
M  V30 4582 C 440.639 -1.15279 -1.4952 0
M  V30 4583 O 439.996 -0.172759 -1.8168 0
M  V30 4584 C 440.047 -3.51898 -0.827631 0
M  V30 4585 O 439.768 -4.37231 0.275855 0
M  V30 4586 C 441.269 -4.16577 -1.51587 0
M  V30 4587 H 438.489 -0.666335 -0.0789892 0
M  V30 4588 H 441.033 -2.00423 0.406294 0
M  V30 4589 H 439.188 -3.55909 -1.52996 0
M  V30 4590 H 439.602 -5.24415 -0.0943638 0
M  V30 4591 H 441.076 -5.21678 -1.80433 0
M  V30 4592 H 441.553 -3.64707 -2.44716 0
M  V30 4593 H 442.159 -4.16568 -0.857409 0
M  V30 4594 N 440.474 -0.00167713 -1.576 0
M  V30 4595 C 441.722 0.681471 -1.90264 0
M  V30 4596 C 442.043 1.7422 -0.875924 0
M  V30 4597 O 441.313 1.95709 0.0864412 0
M  V30 4598 H 439.893 0.254696 -0.702239 0
M  V30 4599 H 442.555 -0.0429996 -1.94853 0
M  V30 4600 H 441.651 1.15166 -2.90075 0
M  V30 4601 N 441.952 1.55251 0.271103 0
M  V30 4602 C 443.199 1.75946 1.00245 0
M  V30 4603 C 443.527 0.561611 1.86215 0
M  V30 4604 O 442.782 -0.455832 1.90317 0
M  V30 4605 C 443.081 3.01879 1.91321 0
M  V30 4606 C 442.747 4.34337 1.21086 0
M  V30 4607 C 441.409 4.70338 1.01666 0
M  V30 4608 C 443.761 5.16325 0.71119 0
M  V30 4609 C 441.089 5.8588 0.310099 0
M  V30 4610 C 443.441 6.32597 0.0182157 0
M  V30 4611 C 442.105 6.67236 -0.18768 0
M  V30 4612 H 441.375 0.643833 0.366824 0
M  V30 4613 H 444.022 1.89521 0.27458 0
M  V30 4614 H 442.327 2.83212 2.70736 0
M  V30 4615 H 444.024 3.15088 2.48033 0
M  V30 4616 H 440.614 4.06043 1.37213 0
M  V30 4617 H 444.798 4.88987 0.848844 0
M  V30 4618 H 440.054 6.1124 0.139873 0
M  V30 4619 H 444.228 6.9538 -0.376711 0
M  V30 4620 H 441.855 7.56618 -0.73715 0
M  V30 4621 N 443.43 -0.535701 1.48216 0
M  V30 4622 C 444.655 -1.32149 1.59848 0
M  V30 4623 C 445.08 -1.86338 0.256842 0
M  V30 4624 O 444.438 -1.64107 -0.770632 0
M  V30 4625 C 444.486 -2.45224 2.64381 0
M  V30 4626 O 443.59 -3.48093 2.21144 0
M  V30 4627 H 442.931 -0.391634 0.536208 0
M  V30 4628 H 445.461 -0.645202 1.94161 0
M  V30 4629 H 445.471 -2.91491 2.85476 0
M  V30 4630 H 444.146 -2.05143 3.61786 0
M  V30 4631 H 442.723 -3.07984 2.10239 0
M  V30 4632 N 444.908 -1.36708 -0.784132 0
M  V30 4633 C 445.871 -1.31307 -1.87859 0
M  V30 4634 C 446.871 -0.219654 -1.59293 0
M  V30 4635 O 448.061 -0.47476 -1.67606 0
M  V30 4636 C 445.193 -1.03679 -3.24751 0
M  V30 4637 H 446.386 -2.28647 -1.94064 0
M  V30 4638 H 443.939 -1.21558 -0.98252 0
M  V30 4639 H 444.674 -0.0681936 -3.24228 0
M  V30 4640 H 444.459 -1.82811 -3.46876 0
M  V30 4641 H 445.949 -1.02518 -4.04821 0
M  V30 4642 N 446.386 1.0089 -1.21074 0
M  V30 4643 C 447.614 1.78191 -1.05145 0
M  V30 4644 C 448.029 1.84537 0.398952 0
M  V30 4645 O 447.386 1.30393 1.27687 0
M  V30 4646 C 447.437 3.22288 -1.63746 0
M  V30 4647 O 447.158 3.16315 -3.03111 0
M  V30 4648 C 448.659 4.16106 -1.52875 0
M  V30 4649 H 445.879 0.560129 -0.369454 0
M  V30 4650 H 448.423 1.26945 -1.60328 0
M  V30 4651 H 446.578 3.70655 -1.12664 0
M  V30 4652 H 446.992 4.06817 -3.31059 0
M  V30 4653 H 448.466 5.15026 -1.98626 0
M  V30 4654 H 448.943 4.36541 -0.482521 0
M  V30 4655 H 449.549 3.73625 -2.03185 0
M  V30 4656 N 447.864 1.01787 1.20321 0
M  V30 4657 C 449.11 0.708985 1.90003 0
M  V30 4658 C 449.443 -0.759572 1.78729 0
M  V30 4659 O 448.718 -1.55198 1.17234 0
M  V30 4660 C 449.001 1.1469 3.41348 0
M  V30 4661 C 448.854 2.67586 3.61549 0
M  V30 4662 C 450.173 0.71915 4.34185 0
M  V30 4663 H 447.292 0.259034 0.689978 0
M  V30 4664 H 449.934 1.26584 1.41692 0
M  V30 4665 H 448.084 0.673128 3.82624 0
M  V30 4666 H 449.756 3.22826 3.29517 0
M  V30 4667 H 447.999 3.085 3.04976 0
M  V30 4668 H 448.67 2.93281 4.67643 0
M  V30 4669 H 451.146 1.12647 4.00562 0
M  V30 4670 H 450.022 1.05358 5.38694 0
M  V30 4671 H 450.283 -0.379111 4.40472 0
M  V30 4672 N 449.342 -1.36122 0.79427 0
M  V30 4673 C 450.305 -2.28309 0.201889 0
M  V30 4674 C 451.305 -1.49041 -0.603603 0
M  V30 4675 O 452.495 -1.68964 -0.423888 0
M  V30 4676 C 449.627 -3.3321 -0.719978 0
M  V30 4677 H 450.82 -2.82208 1.01481 0
M  V30 4678 H 448.373 -1.45768 0.564037 0
M  V30 4679 H 449.108 -2.84475 -1.55706 0
M  V30 4680 H 448.893 -3.91835 -0.144266 0
M  V30 4681 H 450.383 -4.02044 -1.12916 0
M  V30 4682 N 450.82 -0.546701 -1.47814 0
M  V30 4683 C 452.048 -0.0232857 -2.06887 0
M  V30 4684 C 452.463 1.26571 -1.4009 0
M  V30 4685 O 451.82 1.7569 -0.493906 0
M  V30 4686 C 451.871 0.186975 -3.61016 0
M  V30 4687 O 451.592 -1.05097 -4.25307 0
M  V30 4688 C 453.093 0.748872 -4.36929 0
M  V30 4689 H 450.313 -0.0410763 -0.669742 0
M  V30 4690 H 452.857 -0.757117 -1.89968 0
M  V30 4691 H 451.012 0.870903 -3.77484 0
M  V30 4692 H 451.426 -0.842121 -5.17695 0
M  V30 4693 H 452.9 0.845334 -5.45489 0
M  V30 4694 H 453.377 1.75772 -4.02493 0
M  V30 4695 H 453.983 0.100979 -4.2518 0
M  V30 4696 N 452.299 1.55045 -0.282633 0
M  V30 4697 C 453.209 2.26491 0.61147 0
M  V30 4698 C 454.225 1.29348 1.16384 0
M  V30 4699 O 455.401 1.62298 1.19253 0
M  V30 4700 C 452.466 2.97779 1.77563 0
M  V30 4701 C 451.527 4.10418 1.25919 0
M  V30 4702 C 450.76 4.78297 2.36786 0
M  V30 4703 O 450.983 4.45426 3.56303 0
M  V30 4704 O 449.917 5.66089 2.04517 0
M  V30 4705 H 453.743 3.03683 0.0324615 0
M  V30 4706 H 451.328 1.49317 -0.0497576 0
M  V30 4707 H 453.21 3.42554 2.45427 0
M  V30 4708 H 451.885 2.23498 2.34159 0
M  V30 4709 H 450.792 3.70082 0.546797 0
M  V30 4710 H 452.125 4.86622 0.738887 0
M  V30 4711 N 453.777 0.010035 1.57597 0
M  V30 4712 C 455.023 -0.673697 1.91283 0
M  V30 4713 C 455.356 -1.72863 0.884979 0
M  V30 4714 O 454.631 -1.94268 -0.0949487 0
M  V30 4715 C 454.914 -1.30766 3.35518 0
M  V30 4716 C 454.767 -0.263578 4.49027 0
M  V30 4717 C 456.086 -2.23105 3.79358 0
M  V30 4718 H 453.205 -0.243439 0.695634 0
M  V30 4719 H 455.847 0.0633864 1.89894 0
M  V30 4720 H 453.997 -1.93588 3.36832 0
M  V30 4721 H 455.669 0.365738 4.59848 0
M  V30 4722 H 453.912 0.413077 4.31829 0
M  V30 4723 H 454.583 -0.746398 5.4693 0
M  V30 4724 H 457.059 -1.70289 3.79659 0
M  V30 4725 H 455.935 -2.64424 4.81011 0
M  V30 4726 H 456.196 -3.11433 3.13787 0
M  V30 4727 N 455.255 -1.55392 -0.262866 0
M  V30 4728 C 456.203 -1.8977 -1.345 0
M  V30 4729 C 457.197 -0.775063 -1.50629 0
M  V30 4730 O 458.403 -0.959519 -1.52293 0
M  V30 4731 H 454.778 -0.602467 -0.450041 0
M  V30 4732 H 456.749 -2.80147 -1.02762 0
M  V30 4733 C 455.498 -2.19501 -2.69657 0
M  V30 4734 H 454.821 -3.05378 -2.5804 0
M  V30 4735 H 456.261 -2.47469 -3.44289 0
M  V30 4736 C 454.72 -1.00597 -3.21531 0
M  V30 4737 O 455.25 -0.245768 -4.00947 0
M  V30 4738 N 453.456 -0.800911 -2.79345 0
M  V30 4739 H 453.003 -1.42079 -2.14875 0
M  V30 4740 H 452.961 -0.00697996 -3.14399 0
M  V30 4741 N 456.733 0.527833 -1.48498 0
M  V30 4742 C 457.961 1.30823 -1.6029 0
M  V30 4743 C 458.376 1.86945 -0.263974 0
M  V30 4744 O 457.733 1.6651 0.747034 0
M  V30 4745 C 457.784 2.45756 -2.65116 0
M  V30 4746 O 457.505 1.91946 -3.93813 0
M  V30 4747 C 459.006 3.37543 -2.87367 0
M  V30 4748 H 456.226 0.397763 -0.540394 0
M  V30 4749 H 458.77 0.636529 -1.94341 0
M  V30 4750 H 456.925 3.08806 -2.33917 0
M  V30 4751 H 457.339 2.67195 -4.51339 0
M  V30 4752 H 458.813 4.14532 -3.6451 0
M  V30 4753 H 459.29 3.92905 -1.9627 0
M  V30 4754 H 459.896 2.80283 -3.19878 0
M  V30 4755 N 458.211 1.37122 0.776871 0
M  V30 4756 C 459.436 1.354 1.57104 0
M  V30 4757 C 459.861 -0.0595562 1.88006 0
M  V30 4758 O 459.219 -1.03514 1.48844 0
M  V30 4759 C 459.267 2.19472 2.8612 0
M  V30 4760 O 458.371 1.59582 3.80273 0
M  V30 4761 H 457.712 0.462869 0.476076 0
M  V30 4762 H 460.242 1.80577 0.961932 0
M  V30 4763 H 460.252 2.32502 3.35271 0
M  V30 4764 H 458.927 3.22222 2.62956 0
M  V30 4765 H 457.504 1.55564 3.38902 0
M  V30 4766 N 459.689 -1.00246 1.21608 0
M  V30 4767 C 460.938 -1.73476 1.02902 0
M  V30 4768 C 461.251 -1.90643 -0.437561 0
M  V30 4769 O 462.457 -2.61105 -0.74407 0
M  V30 4770 C 460.913 -3.12079 1.79261 0
M  V30 4771 C 460.521 -3.02877 3.30106 0
M  V30 4772 C 462.265 -3.89421 1.68972 0
M  V30 4773 C 460.172 -4.36575 3.98944 0
M  V30 4774 H 459.102 -0.650408 0.381425 0
M  V30 4775 H 461.753 -1.11985 1.45367 0
M  V30 4776 H 460.135 -3.74196 1.2959 0
M  V30 4777 H 461.309 -2.49983 3.87098 0
M  V30 4778 H 459.624 -2.39022 3.40965 0
M  V30 4779 H 462.221 -4.88362 2.17731 0
M  V30 4780 H 462.564 -4.1122 0.648397 0
M  V30 4781 H 463.097 -3.33963 2.16133 0
M  V30 4782 H 459.836 -4.19978 5.03288 0
M  V30 4783 H 459.356 -4.8942 3.4674 0
M  V30 4784 H 461.035 -5.05364 4.04 0
M  V30 4785 N 461.167 -1.02423 -1.1978 0
M  V30 4786 C 462.099 -0.559152 -2.22275 0
M  V30 4787 C 463.112 0.36251 -1.58713 0
M  V30 4788 O 464.301 0.159641 -1.77785 0
M  V30 4789 C 461.401 0.205094 -3.38279 0
M  V30 4790 C 460.574 -0.720361 -4.31427 0
M  V30 4791 C 459.633 -0.00234368 -5.262 0
M  V30 4792 O 458.659 -0.627378 -5.65732 0
M  V30 4793 N 459.861 1.26996 -5.66438 0
M  V30 4794 H 462.626 -1.44064 -2.62804 0
M  V30 4795 H 460.187 -0.902692 -1.34399 0
M  V30 4796 H 462.179 0.694868 -3.9869 0
M  V30 4797 H 460.749 0.987947 -2.96578 0
M  V30 4798 H 459.969 -1.39031 -3.68869 0
M  V30 4799 H 461.257 -1.3495 -4.90577 0
M  V30 4800 H 460.655 1.79858 -5.36347 0
M  V30 4801 H 459.212 1.70432 -6.29123 0
M  V30 4802 N 462.645 1.35699 -0.801477 0
M  V30 4803 C 463.894 1.98165 -0.375979 0
M  V30 4804 C 464.207 1.64306 1.06127 0
M  V30 4805 O 465.413 2.20097 1.58964 0
M  V30 4806 C 463.869 3.54497 -0.621305 0
M  V30 4807 C 463.477 3.9727 -2.07076 0
M  V30 4808 C 465.221 4.23697 -0.26091 0
M  V30 4809 C 463.128 5.46427 -2.26211 0
M  V30 4810 H 462.058 0.741478 -0.136844 0
M  V30 4811 H 464.709 1.54834 -0.984814 0
M  V30 4812 H 463.091 3.95958 0.0574112 0
M  V30 4813 H 464.265 3.66974 -2.78687 0
M  V30 4814 H 462.58 3.40943 -2.39054 0
M  V30 4815 H 465.177 5.33334 -0.381994 0
M  V30 4816 H 465.52 4.0869 0.792344 0
M  V30 4817 H 466.053 3.87639 -0.893339 0
M  V30 4818 H 462.792 5.66396 -3.29963 0
M  V30 4819 H 462.312 5.78309 -1.59119 0
M  V30 4820 H 463.991 6.12819 -2.07513 0
M  V30 4821 N 464.123 0.554532 1.47522 0
M  V30 4822 C 465.539 0.214107 1.58157 0
M  V30 4823 C 465.739 -1.28331 1.55349 0
M  V30 4824 O 464.795 -2.06329 1.45549 0
M  V30 4825 C 466.108 0.838391 2.88776 0
M  V30 4826 C 467.656 0.809374 3.02354 0
M  V30 4827 C 468.131 1.41268 4.35669 0
M  V30 4828 N 469.622 1.37574 4.42298 0
M  V30 4829 C 470.357 1.8122 5.4401 0
M  V30 4830 N 469.853 2.3271 6.52547 0
M  V30 4831 N 471.646 1.72307 5.35039 0
M  V30 4832 H 463.797 1.52744 1.4759 0
M  V30 4833 H 466.06 0.636812 0.702264 0
M  V30 4834 H 465.766 1.89065 2.96559 0
M  V30 4835 H 465.64 0.329847 3.75755 0
M  V30 4836 H 468.027 -0.234187 2.94169 0
M  V30 4837 H 468.108 1.35565 2.16924 0
M  V30 4838 H 467.752 2.45529 4.4461 0
M  V30 4839 H 467.682 0.841871 5.19827 0
M  V30 4840 H 470.173 0.999081 3.64454 0
M  V30 4841 H 470.486 2.63944 7.26329 0
M  V30 4842 H 468.831 2.36719 6.53444 0
M  V30 4843 H 472.022 1.3186 4.49144 0
M  V30 4844 H 472.195 2.06641 6.14169 0
M  V30 4845 N 465.601 -1.54893 0.290851 0
M  V30 4846 C 466.826 -2.04804 -0.32712 0
M  V30 4847 C 467.251 -1.16721 -1.47506 0
M  V30 4848 O 466.609 -0.169107 -1.8051 0
M  V30 4849 C 466.657 -3.52268 -0.770689 0
M  V30 4850 O 465.761 -3.67236 -1.87647 0
M  V30 4851 H 465.102 -0.660789 -0.0652227 0
M  V30 4852 H 467.632 -2.00036 0.429739 0
M  V30 4853 H 467.642 -3.9393 -1.06223 0
M  V30 4854 H 466.317 -4.15843 0.069096 0
M  V30 4855 H 464.894 -3.37479 -1.58626 0
M  V30 4856 N 467.08 -0.0183926 -1.57589 0
M  V30 4857 C 468.357 0.700621 -1.82622 0
M  V30 4858 C 468.737 1.90951 -0.90005 0
M  V30 4859 O 468.085 2.28452 0.0469145 0
M  V30 4860 C 468.295 1.08899 -3.31575 0
M  V30 4861 C 469.643 1.48514 -3.9778 0
M  V30 4862 O 470.667 1.18227 -3.36007 0
M  V30 4863 O 469.526 2.04903 -5.06633 0
M  V30 4864 H 466.62 0.342743 -0.752633 0
M  V30 4865 H 469.166 -0.0452548 -1.6964 0
M  V30 4866 H 467.938 0.228113 -3.90635 0
M  V30 4867 H 467.561 1.89338 -3.49624 0
M  V30 4868 N 468.558 1.5553 0.254621 0
M  V30 4869 C 469.783 1.81383 1.00573 0
M  V30 4870 C 470.208 0.594419 1.78461 0
M  V30 4871 O 469.566 -0.456403 1.75461 0
M  V30 4872 C 469.614 3.04892 1.92545 0
M  V30 4873 O 468.718 2.81266 3.01601 0
M  V30 4874 H 468.059 0.598969 0.286587 0
M  V30 4875 H 470.589 2.02703 0.277952 0
M  V30 4876 H 470.599 3.34119 2.34155 0
M  V30 4877 H 469.274 3.93287 1.3527 0
M  V30 4878 H 467.851 2.63185 2.64174 0
M  V30 4879 N 470.036 -0.519951 1.48776 0
M  V30 4880 C 471.447 -1.10177 1.50725 0
M  V30 4881 C 471.798 -1.94153 0.282678 0
M  V30 4882 O 470.923 -2.07645 -0.609298 0
M  V30 4883 C 471.518 -2.00482 2.73116 0
M  V30 4884 C 470.077 -2.53862 2.77905 0
M  V30 4885 C 469.224 -1.31047 2.44381 0
M  V30 4886 H 472.175 -0.30473 1.55747 0
M  V30 4887 H 472.196 -2.8491 2.52203 0
M  V30 4888 H 471.708 -1.39335 3.62225 0
M  V30 4889 H 469.809 -3.18702 1.93029 0
M  V30 4890 H 469.922 -2.9231 3.79594 0
M  V30 4891 H 468.286 -1.62953 1.95751 0
M  V30 4892 H 469.069 -0.71637 3.35743 0
M  V30 4893 N 471.514 -1.37532 -0.769588 0
M  V30 4894 C 472.742 -1.36059 -1.55871 0
M  V30 4895 C 473.157 0.053544 -1.88724 0
M  V30 4896 O 472.514 1.01591 -1.5161 0
M  V30 4897 C 472.565 -2.20107 -2.86767 0
M  V30 4898 O 472.286 -3.56009 -2.55321 0
M  V30 4899 C 473.787 -2.26636 -3.80987 0
M  V30 4900 H 471.007 -0.465967 -0.482821 0
M  V30 4901 H 473.551 -1.80901 -0.953686 0
M  V30 4902 H 471.706 -1.78768 -3.43687 0
M  V30 4903 H 472.12 -4.0009 -3.39158 0
M  V30 4904 H 473.594 -2.89763 -4.69831 0
M  V30 4905 H 474.071 -1.2754 -4.20274 0
M  V30 4906 H 474.677 -2.68296 -3.29996 0
M  V30 4907 N 472.992 0.995999 -1.22138 0
M  V30 4908 C 474.24 1.73167 -1.042 0
M  V30 4909 C 474.561 1.90329 0.42423 0
M  V30 4910 O 473.831 1.4607 1.30539 0
M  V30 4911 H 472.411 0.641593 -0.38258 0
M  V30 4912 H 475.073 1.19974 -1.53598 0
M  V30 4913 H 474.169 2.72734 -1.51731 0
M  V30 4914 N 474.47 1.03057 1.19235 0
M  V30 4915 C 475.698 0.747697 1.92917 0
M  V30 4916 C 476.113 -0.69372 1.75593 0
M  V30 4917 O 475.47 -1.47191 1.07894 0
M  V30 4918 C 475.521 1.09159 3.44625 0
M  V30 4919 O 475.242 2.47641 3.61394 0
M  V30 4920 C 476.743 0.831763 4.35427 0
M  V30 4921 H 473.963 0.273453 0.612751 0
M  V30 4922 H 476.507 1.37552 1.51327 0
M  V30 4923 H 474.662 0.508919 3.84043 0
M  V30 4924 H 475.076 2.60499 4.55237 0
M  V30 4925 H 476.55 1.12233 5.4047 0
M  V30 4926 H 477.027 -0.233769 4.38577 0
M  V30 4927 H 477.633 1.39725 4.01693 0
M  V30 4928 N 475.948 -1.35272 0.808662 0
M  V30 4929 C 476.878 -2.32315 0.234981 0
M  V30 4930 C 477.859 -1.57572 -0.64071 0
M  V30 4931 O 479.044 -1.8563 -0.570551 0
M  V30 4932 C 476.174 -3.41801 -0.615601 0
M  V30 4933 C 475.128 -4.27694 0.161767 0
M  V30 4934 C 474.454 -5.28519 -0.810649 0
M  V30 4935 C 475.754 -5.04231 1.36193 0
M  V30 4936 H 477.448 -2.80543 1.04575 0
M  V30 4937 H 474.994 -1.3488 0.504315 0
M  V30 4938 H 476.947 -4.08693 -1.02702 0
M  V30 4939 H 475.671 -2.92186 -1.45928 0
M  V30 4940 H 474.33 -3.62384 0.554382 0
M  V30 4941 H 473.978 -4.75171 -1.64988 0
M  V30 4942 H 473.678 -5.8686 -0.294822 0
M  V30 4943 H 475.202 -5.98283 -1.22023 0
M  V30 4944 H 476.616 -5.64058 1.02528 0
M  V30 4945 H 475.013 -5.72077 1.81239 0
M  V30 4946 H 476.083 -4.34753 2.14751 0
M  V30 4947 N 477.426 -0.562348 -1.47226 0
M  V30 4948 C 478.356 0.170627 -2.32876 0
M  V30 4949 C 479.337 0.903748 -1.44106 0
M  V30 4950 O 480.522 0.883206 -1.72954 0
M  V30 4951 C 477.652 1.19786 -3.25989 0
M  V30 4952 C 476.606 0.580875 -4.2404 0
M  V30 4953 C 475.932 1.71311 -5.06514 0
M  V30 4954 C 477.232 -0.468714 -5.20193 0
M  V30 4955 H 478.926 -0.544441 -2.94408 0
M  V30 4956 H 476.472 -0.263271 -1.41573 0
M  V30 4957 H 478.425 1.71884 -3.84752 0
M  V30 4958 H 477.149 1.94294 -2.62521 0
M  V30 4959 H 475.808 0.0811538 -3.6651 0
M  V30 4960 H 475.456 2.44736 -4.39447 0
M  V30 4961 H 475.156 1.30604 -5.72902 0
M  V30 4962 H 476.68 2.23725 -5.68137 0
M  V30 4963 H 478.094 -0.0336028 -5.7329 0
M  V30 4964 H 476.491 -0.794957 -5.94811 0
M  V30 4965 H 477.561 -1.36269 -4.65359 0
M  V30 4966 N 478.904 1.54736 -0.299062 0
M  V30 4967 C 480.152 1.99706 0.31017 0
M  V30 4968 C 480.473 1.18896 1.54559 0
M  V30 4969 O 479.743 0.284445 1.93824 0
M  V30 4970 H 478.323 0.737686 0.117596 0
M  V30 4971 H 480.985 1.9054 -0.409943 0
M  V30 4972 H 480.081 3.06596 0.58355 0
M  V30 4973 N 480.382 0.0267497 1.57577 0
M  V30 4974 C 481.61 -0.662661 1.96001 0
M  V30 4975 C 482.025 -1.65799 0.903117 0
M  V30 4976 O 481.382 -1.82135 -0.115317 0
M  V30 4977 C 481.433 -1.37112 3.34488 0
M  V30 4978 O 481.154 -0.415683 4.36123 0
M  V30 4979 C 482.655 -2.15257 3.8753 0
M  V30 4980 H 479.875 -0.18287 0.6456 0
M  V30 4981 H 482.419 0.0858116 2.0432 0
M  V30 4982 H 480.574 -2.07101 3.27395 0
M  V30 4983 H 480.988 -0.918496 5.16395 0
M  V30 4984 H 482.462 -2.60285 4.86781 0
M  V30 4985 H 482.939 -2.99063 3.21649 0
M  V30 4986 H 483.545 -1.50231 3.97883 0
M  V30 4987 N 481.861 -1.55662 -0.24637 0
M  V30 4988 C 482.791 -1.93377 -1.30873 0
M  V30 4989 C 483.772 -0.798773 -1.50179 0
M  V30 4990 O 484.957 -1.0591 -1.62778 0
M  V30 4991 C 482.087 -2.22893 -2.66338 0
M  V30 4992 C 481.041 -3.38649 -2.61727 0
M  V30 4993 C 480.367 -3.53708 -4.00992 0
M  V30 4994 C 481.667 -4.74323 -2.18666 0
M  V30 4995 H 483.361 -2.82363 -0.995552 0
M  V30 4996 H 480.907 -1.35854 -0.477464 0
M  V30 4997 H 482.86 -2.47866 -3.40794 0
M  V30 4998 H 481.584 -1.30733 -2.99293 0
M  V30 4999 H 480.243 -3.13685 -1.89729 0
M  V30 5000 H 479.891 -2.58967 -4.31214 0
M  V30 5001 H 479.591 -4.31551 -3.98795 0
M  V30 5002 H 481.115 -3.81003 -4.77147 0
M  V30 5003 H 482.529 -4.98665 -2.82854 0
M  V30 5004 H 480.926 -5.55273 -2.27579 0
M  V30 5005 H 481.996 -4.71349 -1.13834 0
M  V30 5006 N 483.339 0.512053 -1.4905 0
M  V30 5007 C 484.569 1.28928 -1.61434 0
M  V30 5008 C 484.977 1.87107 -0.280647 0
M  V30 5009 O 484.32 1.68024 0.742537 0
M  V30 5010 C 484.382 2.466 -2.61588 0
M  V30 5011 C 484.046 2.09375 -4.06216 0
M  V30 5012 C 485.043 1.63994 -4.93358 0
M  V30 5013 C 482.728 2.19348 -4.51876 0
M  V30 5014 C 484.722 1.29076 -6.24194 0
M  V30 5015 C 482.409 1.84041 -5.82728 0
M  V30 5016 C 483.407 1.38978 -6.68711 0
M  V30 5017 O 483.095 1.04144 -7.97126 0
M  V30 5018 H 482.827 0.397668 -0.546659 0
M  V30 5019 H 485.381 0.622507 -1.9574 0
M  V30 5020 H 483.611 3.16318 -2.22441 0
M  V30 5021 H 485.3 3.08642 -2.63619 0
M  V30 5022 H 486.066 1.55744 -4.59313 0
M  V30 5023 H 481.945 2.53376 -3.85125 0
M  V30 5024 H 485.489 0.938303 -6.91261 0
M  V30 5025 H 481.386 1.91938 -6.16304 0
M  V30 5026 H 482.154 1.17387 -8.10039 0
M  V30 5027 N 484.817 1.37938 0.762283 0
M  V30 5028 C 486.063 1.33866 1.52341 0
M  V30 5029 C 486.396 -0.0738961 1.94059 0
M  V30 5030 O 485.671 -1.03326 1.64785 0
M  V30 5031 C 485.954 2.28644 2.78197 0
M  V30 5032 C 485.807 3.78722 2.42672 0
M  V30 5033 C 487.126 2.21702 3.80179 0
M  V30 5034 H 484.245 0.487593 0.55265 0
M  V30 5035 H 486.887 1.68717 0.873767 0
M  V30 5036 H 485.037 1.99055 3.33631 0
M  V30 5037 H 486.709 4.18948 1.93081 0
M  V30 5038 H 484.952 3.96827 1.75244 0
M  V30 5039 H 485.623 4.40486 3.3268 0
M  V30 5040 H 488.099 2.47805 3.34263 0
M  V30 5041 H 486.975 2.90143 4.65949 0
M  V30 5042 H 487.236 1.21301 4.25133 0
M  V30 5043 N 486.295 -0.989507 1.22664 0
M  V30 5044 C 487.52 -1.77031 1.08051 0
M  V30 5045 C 487.945 -1.84535 -0.364483 0
M  V30 5046 O 487.303 -1.3003 -1.2634 0
M  V30 5047 C 487.351 -3.18 1.70024 0
M  V30 5048 O 486.455 -4.01161 0.956216 0
M  V30 5049 H 485.796 -0.545008 0.379292 0
M  V30 5050 H 488.326 -1.24277 1.62531 0
M  V30 5051 H 488.336 -3.68616 1.74888 0
M  V30 5052 H 487.011 -3.11853 2.75174 0
M  V30 5053 H 485.588 -3.59687 0.98384 0
M  V30 5054 N 487.773 -1.03688 -1.18687 0
M  V30 5055 C 488.998 -0.757819 -1.93059 0
M  V30 5056 C 489.423 0.678353 -1.75442 0
M  V30 5057 O 488.781 1.46938 -1.06203 0
M  V30 5058 C 488.829 -1.12423 -3.42627 0
M  V30 5059 O 487.933 -0.247505 -4.11657 0
M  V30 5060 H 487.274 -0.279245 -0.602427 0
M  V30 5061 H 489.804 -1.3857 -1.5053 0
M  V30 5062 H 489.814 -1.08454 -3.93322 0
M  V30 5063 H 488.489 -2.17049 -3.54771 0
M  V30 5064 H 487.066 -0.34649 -3.71287 0
M  V30 5065 N 489.251 1.34841 -0.815825 0
M  V30 5066 C 490.479 2.0273 -0.413294 0
M  V30 5067 C 490.894 1.61459 0.978599 0
M  V30 5068 O 490.251 0.816584 1.63212 0
M  V30 5069 C 490.302 3.58058 -0.497676 0
M  V30 5070 O 490.023 3.97832 -1.8347 0
M  V30 5071 C 491.524 4.4321 -0.0891339 0
M  V30 5072 H 488.744 0.649956 -0.166728 0
M  V30 5073 H 491.288 1.72267 -1.10201 0
M  V30 5074 H 489.443 3.87136 0.142886 0
M  V30 5075 H 489.857 4.92501 -1.80396 0
M  V30 5076 H 491.331 5.5164 -0.199274 0
M  V30 5077 H 491.808 4.28432 0.966571 0
M  V30 5078 H 492.414 4.19446 -0.703214 0
M  V30 5079 N 490.729 0.570148 1.46925 0
M  V30 5080 C 491.977 0.0508523 2.02036 0
M  V30 5081 C 492.298 -1.30885 1.44548 0
M  V30 5082 O 491.568 -1.85647 0.625453 0
M  V30 5083 H 490.148 0.0158088 0.746833 0
M  V30 5084 H 492.81 0.743086 1.80178 0
M  V30 5085 H 491.906 -0.027575 3.12088 0
M  V30 5086 N 492.207 -1.54576 0.307264 0
M  V30 5087 C 493.432 -2.05139 -0.305379 0
M  V30 5088 C 493.857 -1.18278 -1.46259 0
M  V30 5089 O 493.215 -0.188243 -1.8032 0
M  V30 5090 C 493.263 -3.53066 -0.733283 0
M  V30 5091 O 492.367 -3.69206 -1.83741 0
M  V30 5092 H 491.708 -0.661444 -0.0582105 0
M  V30 5093 H 494.238 -1.99569 0.450931 0
M  V30 5094 H 494.248 -3.95034 -1.02039 0
M  V30 5095 H 492.923 -4.15746 0.113198 0
M  V30 5096 H 491.5 -3.39143 -1.55037 0
M  V30 5097 N 493.685 -0.035106 -1.57561 0
M  V30 5098 C 494.931 0.637362 -1.93156 0
M  V30 5099 C 495.286 1.69391 -0.912392 0
M  V30 5100 O 494.579 1.91469 0.070735 0
M  V30 5101 C 494.773 1.29149 -3.3325 0
M  V30 5102 C 494.602 0.29983 -4.48699 0
M  V30 5103 C 493.372 -0.102454 -5.05196 0
M  V30 5104 C 495.57 -0.448297 -5.12342 0
M  V30 5105 N 493.552 -1.08866 -6.0417 0
M  V30 5106 C 494.923 -1.28807 -6.06472 0
M  V30 5107 C 496.978 -0.508351 -4.95298 0
M  V30 5108 C 495.681 -2.18248 -6.85391 0
M  V30 5109 C 497.707 -1.39013 -5.7483 0
M  V30 5110 C 497.069 -2.21766 -6.6858 0
M  V30 5111 H 493.168 0.205358 -0.754554 0
M  V30 5112 H 495.752 -0.103682 -1.94424 0
M  V30 5113 H 493.923 2.00264 -3.3279 0
M  V30 5114 H 495.655 1.92147 -3.56177 0
M  V30 5115 H 492.41 0.273223 -4.72811 0
M  V30 5116 H 492.834 -1.57817 -6.58348 0
M  V30 5117 H 497.476 0.117197 -4.22638 0
M  V30 5118 H 495.194 -2.81855 -7.57353 0
M  V30 5119 H 498.78 -1.44096 -5.63673 0
M  V30 5120 H 497.66 -2.88892 -7.29048 0
M  V30 5121 N 495.163 1.55791 0.238111 0
M  V30 5122 C 496.111 1.91885 1.31464 0
M  V30 5123 C 497.105 0.798929 1.49377 0
M  V30 5124 O 498.311 0.983626 1.50747 0
M  V30 5125 H 494.686 0.609551 0.440399 0
M  V30 5126 H 496.657 2.81747 0.982925 0
M  V30 5127 C 495.406 2.23763 2.6613 0
M  V30 5128 H 494.729 3.09444 2.53149 0
M  V30 5129 H 496.169 2.52915 3.40309 0
M  V30 5130 C 494.628 1.05699 3.1989 0
M  V30 5131 O 495.158 0.309524 4.00506 0
M  V30 5132 N 493.364 0.845251 2.78036 0
M  V30 5133 H 492.911 1.4548 2.12588 0
M  V30 5134 H 492.869 0.0569973 3.14348 0
M  V30 5135 N 496.642 -0.504142 1.49319 0
M  V30 5136 C 497.87 -1.28256 1.62351 0
M  V30 5137 C 498.285 -1.86502 0.293682 0
M  V30 5138 O 497.642 -1.67678 -0.720449 0
M  V30 5139 C 497.693 -2.41507 2.68992 0
M  V30 5140 O 497.414 -1.85656 3.96817 0
M  V30 5141 C 498.915 -3.32929 2.927 0
M  V30 5142 H 496.135 -0.389115 0.546654 0
M  V30 5143 H 498.679 -0.605531 1.95329 0
M  V30 5144 H 496.834 -3.05046 2.38801 0
M  V30 5145 H 497.248 -2.59981 4.55533 0
M  V30 5146 H 498.722 -4.0868 3.71058 0
M  V30 5147 H 499.199 -3.89733 2.02496 0
M  V30 5148 H 499.805 -2.75158 3.24296 0
M  V30 5149 N 498.12 -1.38341 -0.754957 0
M  V30 5150 C 499.35 -1.37504 -1.54195 0
M  V30 5151 C 499.758 0.0373787 -1.89163 0
M  V30 5152 O 499.101 1.01402 -1.53178 0
M  V30 5153 C 499.163 -2.16488 -2.87008 0
M  V30 5154 C 498.827 -3.65311 -2.74585 0
M  V30 5155 C 499.824 -4.58834 -2.44474 0
M  V30 5156 C 497.509 -4.08649 -2.9208 0
M  V30 5157 C 499.503 -5.93675 -2.32011 0
M  V30 5158 C 497.19 -5.43571 -2.79237 0
M  V30 5159 C 498.188 -6.35898 -2.49245 0
M  V30 5160 O 497.876 -7.68338 -2.36458 0
M  V30 5161 H 497.608 -0.472159 -0.483779 0
M  V30 5162 H 500.162 -1.82515 -0.94221 0
M  V30 5163 H 498.392 -1.66194 -3.49166 0
M  V30 5164 H 500.081 -2.08076 -3.4851 0
M  V30 5165 H 500.847 -4.26657 -2.30627 0
M  V30 5166 H 496.726 -3.37134 -3.14422 0
M  V30 5167 H 500.27 -6.65706 -2.08522 0
M  V30 5168 H 496.167 -5.75345 -2.92657 0
M  V30 5169 H 496.935 -7.78845 -2.5168 0
M  V30 5170 N 499.598 0.982988 -1.23187 0
M  V30 5171 C 500.53 2.07729 -0.968572 0
M  V30 5172 C 501.543 1.62702 0.0564821 0
M  V30 5173 O 502.732 1.77603 -0.178733 0
M  V30 5174 C 499.832 3.36071 -0.436974 0
M  V30 5175 C 499.005 4.10081 -1.52159 0
M  V30 5176 C 498.064 5.16701 -0.99532 0
M  V30 5177 O 497.09 5.43727 -1.68373 0
M  V30 5178 N 498.292 5.80226 0.178192 0
M  V30 5179 H 501.057 2.30894 -1.9107 0
M  V30 5180 H 498.618 1.14949 -1.1401 0
M  V30 5181 H 500.61 4.04639 -0.0700051 0
M  V30 5182 H 499.18 3.09893 0.410509 0
M  V30 5183 H 498.4 3.36004 -2.06144 0
M  V30 5184 H 499.688 4.56295 -2.25105 0
M  V30 5185 H 499.086 5.60651 0.754096 0
M  V30 5186 H 497.643 6.49982 0.486449 0
M  V30 5187 N 501.076 1.04316 1.18135 0
M  V30 5188 C 502.304 0.768117 1.92113 0
M  V30 5189 C 502.719 -0.675057 1.76319 0
M  V30 5190 O 502.076 -1.46038 1.09449 0
M  V30 5191 C 502.127 1.12808 3.43448 0
M  V30 5192 O 501.848 2.5146 3.58747 0
M  V30 5193 C 503.349 0.8779 4.3452 0
M  V30 5194 H 500.569 0.279937 0.609817 0
M  V30 5195 H 503.113 1.39149 1.49859 0
M  V30 5196 H 501.268 0.549623 3.83481 0
M  V30 5197 H 501.682 2.65313 4.52448 0
M  V30 5198 H 503.156 1.17959 5.39249 0
M  V30 5199 H 503.633 -0.187239 4.38801 0
M  V30 5200 H 504.239 1.43977 4.00188 0
M  V30 5201 N 502.554 -1.34406 0.822964 0
M  V30 5202 C 503.8 -1.98578 0.411666 0
M  V30 5203 C 504.133 -1.65093 -1.02264 0
M  V30 5204 O 503.408 -0.92258 -1.71227 0
M  V30 5205 C 503.691 -3.54823 0.614235 0
M  V30 5206 C 503.544 -3.9805 2.09466 0
M  V30 5207 C 504.863 -4.40071 0.050221 0
M  V30 5208 H 501.982 -0.721355 0.151047 0
M  V30 5209 H 504.624 -1.59301 1.03554 0
M  V30 5210 H 502.774 -3.88411 0.0831774 0
M  V30 5211 H 504.446 -3.74795 2.68936 0
M  V30 5212 H 502.689 -3.4836 2.5851 0
M  V30 5213 H 503.36 -5.06819 2.18721 0
M  V30 5214 H 505.836 -4.13037 0.503953 0
M  V30 5215 H 504.712 -5.48452 0.221759 0
M  V30 5216 H 504.973 -4.29576 -1.04482 0
M  V30 5217 N 504.032 -0.577932 -1.46621 0
M  V30 5218 C 505.257 -0.0652536 -2.07297 0
M  V30 5219 C 505.682 1.22828 -1.4246 0
M  V30 5220 O 505.04 1.74075 -0.506718 0
M  V30 5221 C 505.088 0.0920589 -3.60482 0
M  V30 5222 O 504.192 1.14972 -3.96049 0
M  V30 5223 H 503.533 -0.06065 -0.661224 0
M  V30 5224 H 506.063 -0.799515 -1.88332 0
M  V30 5225 H 506.073 0.299741 -4.06897 0
M  V30 5226 H 504.748 -0.852612 -4.07067 0
M  V30 5227 H 503.325 0.920879 -3.61351 0
M  V30 5228 N 505.51 1.54411 -0.315457 0
M  V30 5229 C 506.738 2.04833 0.291738 0
M  V30 5230 C 507.153 1.19203 1.46411 0
M  V30 5231 O 506.51 0.220867 1.81159 0
M  V30 5232 C 506.561 3.53969 0.73404 0
M  V30 5233 O 506.282 4.36346 -0.391682 0
M  V30 5234 C 507.783 4.2045 1.40489 0
M  V30 5235 H 505.003 0.668195 0.0612947 0
M  V30 5236 H 507.547 1.99276 -0.45929 0
M  V30 5237 H 505.702 3.5984 1.43506 0
M  V30 5238 H 506.116 5.24481 -0.0447088 0
M  V30 5239 H 507.59 5.26278 1.66539 0
M  V30 5240 H 508.067 3.71067 2.3496 0
M  V30 5241 H 508.673 4.18694 0.746662 0
M  V30 5242 N 506.988 0.0434614 1.5754 0
M  V30 5243 C 507.936 -0.951465 2.1225 0
M  V30 5244 C 508.93 -1.3274 1.05245 0
M  V30 5245 O 510.136 -1.30795 1.23663 0
M  V30 5246 H 506.511 -0.324667 0.678303 0
M  V30 5247 H 508.482 -0.464855 2.94757 0
M  V30 5248 C 507.231 -2.21972 2.67626 0
M  V30 5249 H 506.554 -1.93923 3.4962 0
M  V30 5250 H 507.994 -2.89765 3.09536 0
M  V30 5251 C 506.453 -2.95919 1.61038 0
M  V30 5252 O 506.983 -3.8857 1.01862 0
M  V30 5253 N 505.189 -2.58511 1.32741 0
M  V30 5254 H 504.736 -1.83244 1.81051 0
M  V30 5255 H 504.694 -3.08296 0.616531 0
M  V30 5256 N 508.466 -1.55915 -0.229846 0
M  V30 5257 C 509.715 -1.77742 -0.953455 0
M  V30 5258 C 510.028 -0.610524 -1.85828 0
M  V30 5259 O 511.234 -0.712219 -2.61992 0
M  V30 5260 C 509.69 -3.14738 -1.74551 0
M  V30 5261 C 509.298 -4.39126 -0.887242 0
M  V30 5262 C 511.042 -3.45895 -2.46084 0
M  V30 5263 C 508.949 -5.67149 -1.67617 0
M  V30 5264 H 507.879 -0.662648 -0.359741 0
M  V30 5265 H 510.53 -1.82322 -0.207576 0
M  V30 5266 H 508.912 -3.04311 -2.53399 0
M  V30 5267 H 510.086 -4.60588 -0.139892 0
M  V30 5268 H 508.401 -4.15427 -0.284443 0
M  V30 5269 H 510.998 -4.38767 -3.05594 0
M  V30 5270 H 511.341 -2.68007 -3.18556 0
M  V30 5271 H 511.874 -3.57614 -1.74233 0
M  V30 5272 H 508.613 -6.47906 -0.994881 0
M  V30 5273 H 508.133 -5.49763 -2.39836 0
M  V30 5274 H 509.812 -6.07025 -2.23898 0
M  V30 5275 N 509.944 0.496216 -1.49584 0
M  V30 5276 C 511.169 1.27865 -1.63295 0
M  V30 5277 C 511.594 1.85592 -0.306156 0
M  V30 5278 O 510.952 1.66092 0.726851 0
M  V30 5279 C 511 2.38128 -2.7079 0
M  V30 5280 O 510.104 3.42108 -2.30296 0
M  V30 5281 H 509.445 0.377279 -0.546403 0
M  V30 5282 H 511.975 0.593497 -1.95803 0
M  V30 5283 H 511.985 2.8382 -2.93104 0
M  V30 5284 H 510.66 1.95479 -3.67098 0
M  V30 5285 H 509.237 3.02301 -2.18331 0
M  V30 5286 N 511.423 1.38739 0.74761 0
M  V30 5287 C 512.37 1.36449 1.86146 0
M  V30 5288 C 513.34 0.226098 1.64554 0
M  V30 5289 O 514.525 0.41926 1.86137 0
M  V30 5290 C 511.665 1.2013 3.23516 0
M  V30 5291 C 510.778 2.43407 3.56899 0
M  V30 5292 C 509.913 2.19773 4.83605 0
M  V30 5293 C 508.952 3.3879 5.09792 0
M  V30 5294 N 508.089 3.14553 6.27695 0
M  V30 5295 H 512.929 2.3167 1.87438 0
M  V30 5296 H 510.466 1.15094 0.916063 0
M  V30 5297 H 512.424 1.08683 4.02795 0
M  V30 5298 H 511.054 0.285453 3.21535 0
M  V30 5299 H 510.106 2.65504 2.72418 0
M  V30 5300 H 511.418 3.32094 3.72176 0
M  V30 5301 H 510.572 2.05496 5.70838 0
M  V30 5302 H 509.311 1.28461 4.70478 0
M  V30 5303 H 508.316 3.53579 4.21025 0
M  V30 5304 H 509.541 4.30986 5.24812 0
M  V30 5305 H 507.487 2.25893 6.1588 0
M  V30 5306 H 507.404 3.96791 6.435 0
M  V30 5307 H 508.672 3.03943 7.17801 0
M  V30 5308 N 512.901 -0.976442 1.23707 0
M  V30 5309 C 514.15 -1.71254 1.06559 0
M  V30 5310 C 514.463 -1.91528 -0.397024 0
M  V30 5311 O 515.669 -2.62625 -0.688518 0
M  V30 5312 C 514.125 -3.08207 1.8584 0
M  V30 5313 C 513.733 -2.95806 3.36456 0
M  V30 5314 C 515.477 -3.85749 1.77194 0
M  V30 5315 C 513.384 -4.28015 4.08114 0
M  V30 5316 H 512.314 -0.642171 0.395136 0
M  V30 5317 H 514.965 -1.08877 1.4771 0
M  V30 5318 H 513.347 -3.71363 1.37498 0
M  V30 5319 H 514.521 -2.41716 3.92314 0
M  V30 5320 H 512.836 -2.31736 3.45959 0
M  V30 5321 H 515.433 -4.83633 2.28041 0
M  V30 5322 H 515.776 -4.09752 0.735477 0
M  V30 5323 H 516.309 -3.29303 2.23169 0
M  V30 5324 H 513.048 -4.09208 5.12083 0
M  V30 5325 H 512.568 -4.81955 3.57043 0
M  V30 5326 H 514.247 -4.96681 4.14629 0
M  V30 5327 N 514.379 -1.04941 -1.1758 0
M  V30 5328 C 515.607 -0.778294 -1.91703 0
M  V30 5329 C 516.022 0.665697 -1.76675 0
M  V30 5330 O 515.379 1.45456 -1.10222 0
M  V30 5331 C 515.43 -1.14628 -3.42845 0
M  V30 5332 O 515.151 -2.53359 -3.57409 0
M  V30 5333 C 516.652 -0.900931 -4.34049 0
M  V30 5334 H 513.872 -0.283167 -0.608323 0
M  V30 5335 H 516.416 -1.39942 -1.49119 0
M  V30 5336 H 514.571 -0.569953 -3.83184 0
M  V30 5337 H 514.985 -2.67709 -4.51035 0
M  V30 5338 H 516.459 -1.20817 -5.38616 0
M  V30 5339 H 516.936 0.163966 -4.38894 0
M  V30 5340 H 517.542 -1.46097 -3.99419 0
M  V30 5341 N 515.857 1.33968 -0.830081 0
M  V30 5342 C 517.105 1.97672 -0.420734 0
M  V30 5343 C 517.426 1.66111 1.02138 0
M  V30 5344 O 516.696 0.955503 1.71017 0
M  V30 5345 H 515.276 0.73125 -0.152587 0
M  V30 5346 H 517.938 1.63483 -1.0611 0
M  V30 5347 H 517.034 3.07294 -0.545588 0
M  V30 5348 N 517.335 0.585699 1.46312 0
M  V30 5349 C 518.581 0.0725284 2.0267 0
M  V30 5350 C 518.914 -1.28523 1.45586 0
M  V30 5351 O 518.189 -1.84283 0.622101 0
M  V30 5352 C 518.472 0.0099788 3.60099 0
M  V30 5353 C 518.325 1.39685 4.27561 0
M  V30 5354 C 519.644 -0.689117 4.34671 0
M  V30 5355 H 516.763 0.0278307 0.736474 0
M  V30 5356 H 519.405 0.753472 1.74421 0
M  V30 5357 H 517.555 -0.56992 3.84297 0
M  V30 5358 H 519.227 2.02215 4.14617 0
M  V30 5359 H 517.47 1.96374 3.86807 0
M  V30 5360 H 518.141 1.30553 5.36339 0
M  V30 5361 H 520.617 -0.196446 4.15636 0
M  V30 5362 H 519.493 -0.701921 5.44393 0
M  V30 5363 H 519.754 -1.75101 4.05946 0
M  V30 5364 N 518.813 -1.54241 0.323641 0
M  V30 5365 C 519.763 -2.21071 -0.557833 0
M  V30 5366 C 520.747 -1.19126 -1.08157 0
M  V30 5367 O 521.939 -1.44755 -1.01857 0
M  V30 5368 C 519.068 -2.97208 -1.71821 0
M  V30 5369 C 518.154 -4.06491 -1.20936 0
M  V30 5370 N 518.545 -5.04052 -0.420202 0
M  V30 5371 C 516.843 -4.20443 -1.48808 0
M  V30 5372 C 517.544 -5.81516 -0.146413 0
M  V30 5373 N 516.52 -5.38641 -0.732562 0
M  V30 5374 H 520.322 -2.93853 0.0523921 0
M  V30 5375 H 517.836 -1.61883 0.129502 0
M  V30 5376 H 519.833 -3.4357 -2.36146 0
M  V30 5377 H 518.493 -2.25947 -2.33191 0
M  V30 5378 H 519.504 -5.17862 -0.0630401 0
M  V30 5379 H 516.181 -3.60396 -2.10762 0
M  V30 5380 H 517.571 -6.70119 0.488895 0
M  V30 5381 N 520.291 -0.0518155 -1.57515 0
M  V30 5382 C 521.568 0.661727 -1.84067 0
M  V30 5383 C 521.948 1.88999 -0.940351 0
M  V30 5384 O 521.296 2.285 -0.00155404 0
M  V30 5385 C 521.506 1.01841 -3.3381 0
M  V30 5386 C 522.854 1.40043 -4.00841 0
M  V30 5387 O 523.878 1.11073 -3.38439 0
M  V30 5388 O 522.737 1.94111 -5.10865 0
M  V30 5389 H 519.831 0.326702 -0.759733 0
M  V30 5390 H 522.377 -0.0812277 -1.69505 0
M  V30 5391 H 521.149 0.145202 -3.91031 0
M  V30 5392 H 520.772 1.81879 -3.53562 0
M  V30 5393 N 521.769 1.56035 0.221574 0
M  V30 5394 C 523.018 1.78245 0.944016 0
M  V30 5395 C 523.331 0.620371 1.85501 0
M  V30 5396 O 524.537 0.726103 2.6161 0
M  V30 5397 C 522.993 3.15659 1.7288 0
M  V30 5398 C 522.601 4.39591 0.863942 0
M  V30 5399 C 524.345 3.47195 2.44246 0
M  V30 5400 C 522.252 5.6803 1.64607 0
M  V30 5401 H 521.182 0.664547 0.356222 0
M  V30 5402 H 523.833 1.8243 0.197904 0
M  V30 5403 H 522.215 3.0565 2.51781 0
M  V30 5404 H 523.389 4.60655 0.115464 0
M  V30 5405 H 521.704 4.15572 0.262407 0
M  V30 5406 H 524.301 4.40381 3.03263 0
M  V30 5407 H 524.644 2.69693 3.1713 0
M  V30 5408 H 525.177 3.58533 1.72334 0
M  V30 5409 H 521.916 6.48425 0.960507 0
M  V30 5410 H 521.436 5.51027 2.36917 0
M  V30 5411 H 523.115 6.08203 2.20675 0
M  V30 5412 N 523.247 -0.488276 1.49845 0
M  V30 5413 C 524.493 -1.24341 1.6021 0
M  V30 5414 C 524.826 -1.91967 0.293651 0
M  V30 5415 O 524.101 -1.81323 -0.703718 0
M  V30 5416 C 524.384 -2.3005 2.77036 0
M  V30 5417 C 524.237 -1.66842 4.17713 0
M  V30 5418 C 525.556 -3.31509 2.89464 0
M  V30 5419 H 522.675 -0.450704 0.583125 0
M  V30 5420 H 525.317 -0.539673 1.82174 0
M  V30 5421 H 523.467 -2.90071 2.58439 0
M  V30 5422 H 525.139 -1.1055 4.47858 0
M  V30 5423 H 523.382 -0.972079 4.22768 0
M  V30 5424 H 524.053 -2.43576 4.95353 0
M  V30 5425 H 526.529 -2.81493 3.06433 0
M  V30 5426 H 525.405 -4.02822 3.72861 0
M  V30 5427 H 525.666 -3.94603 1.99351 0
M  V30 5428 N 524.725 -1.39134 -0.740242 0
M  V30 5429 C 525.655 -1.40165 -1.86751 0
M  V30 5430 C 526.636 -0.265708 -1.68012 0
M  V30 5431 O 527.821 -0.47076 -1.88408 0
M  V30 5432 C 524.951 -1.2392 -3.2444 0
M  V30 5433 C 523.905 -2.34858 -3.57807 0
M  V30 5434 C 523.231 -2.03707 -4.94376 0
M  V30 5435 C 524.531 -3.77159 -3.61315 0
M  V30 5436 H 526.225 -2.345 -1.86145 0
M  V30 5437 H 523.771 -1.12875 -0.89416 0
M  V30 5438 H 525.724 -1.23263 -4.02969 0
M  V30 5439 H 524.448 -0.26051 -3.25559 0
M  V30 5440 H 523.107 -2.34723 -2.81604 0
M  V30 5441 H 522.755 -1.04289 -4.9207 0
M  V30 5442 H 522.455 -2.78016 -5.17669 0
M  V30 5443 H 523.979 -2.04691 -5.75268 0
M  V30 5444 H 525.393 -3.79252 -4.29931 0
M  V30 5445 H 523.79 -4.50784 -3.96124 0
M  V30 5446 H 524.86 -4.08513 -2.61238 0
M  V30 5447 N 526.204 0.969867 -1.24223 0
M  V30 5448 C 527.45 1.7151 -1.08223 0
M  V30 5449 C 527.783 1.90478 0.37838 0
M  V30 5450 O 527.058 1.4647 1.27971 0
M  V30 5451 C 527.341 3.10714 -1.82013 0
M  V30 5452 C 527.194 2.9925 -3.35811 0
M  V30 5453 C 528.513 4.10332 -1.59108 0
M  V30 5454 H 525.632 0.622499 -0.394543 0
M  V30 5455 H 528.274 1.1284 -1.52863 0
M  V30 5456 H 526.424 3.608 -1.44068 0
M  V30 5457 H 528.096 2.56608 -3.83341 0
M  V30 5458 H 526.339 2.35512 -3.64303 0
M  V30 5459 H 527.01 3.97857 -3.82641 0
M  V30 5460 H 529.486 3.69097 -1.92111 0
M  V30 5461 H 528.362 5.05804 -2.13198 0
M  V30 5462 H 528.623 4.38926 -0.528832 0
M  V30 5463 N 527.682 1.05563 1.17022 0
M  V30 5464 C 528.929 0.767937 1.87374 0
M  V30 5465 C 529.257 -0.705224 1.81265 0
M  V30 5466 O 528.512 -1.5318 1.21796 0
M  V30 5467 C 528.811 1.19849 3.36706 0
M  V30 5468 C 528.477 2.6745 3.63017 0
M  V30 5469 C 527.139 3.0777 3.69907 0
M  V30 5470 C 529.491 3.62811 3.74189 0
M  V30 5471 C 526.819 4.42307 3.85463 0
M  V30 5472 C 529.171 4.97087 3.91264 0
M  V30 5473 C 527.835 5.37055 3.96394 0
M  V30 5474 H 527.105 0.281008 0.68565 0
M  V30 5475 H 529.752 1.32339 1.38415 0
M  V30 5476 H 528.057 0.562096 3.87747 0
M  V30 5477 H 529.754 0.953038 3.8951 0
M  V30 5478 H 526.344 2.35228 3.58282 0
M  V30 5479 H 530.528 3.32798 3.68183 0
M  V30 5480 H 525.784 4.72769 3.87684 0
M  V30 5481 H 529.958 5.70869 3.9885 0
M  V30 5482 H 527.585 6.41308 4.082 0
M  V30 5483 N 529.16 -1.33526 0.837174 0
M  V30 5484 C 530.385 -2.0258 0.444545 0
M  V30 5485 C 530.81 -1.6258 -0.946006 0
M  V30 5486 O 530.168 -0.817548 -1.6182 0
M  V30 5487 C 530.216 -3.5605 0.571006 0
M  V30 5488 O 529.32 -4.10422 -0.403431 0
M  V30 5489 H 528.661 -0.638866 0.180958 0
M  V30 5490 H 531.191 -1.70462 1.13154 0
M  V30 5491 H 531.201 -4.05488 0.452024 0
M  V30 5492 H 529.876 -3.84509 1.58512 0
M  V30 5493 H 528.453 -3.72113 -0.242147 0
M  V30 5494 N 530.638 -0.59345 -1.46 0
M  V30 5495 C 531.886 -0.082988 -2.0193 0
M  V30 5496 C 532.207 1.28569 -1.46612 0
M  V30 5497 O 531.477 1.84629 -0.654909 0
M  V30 5498 H 530.057 -0.0276882 -0.746487 0
M  V30 5499 H 532.719 -0.771657 -1.78973 0
M  V30 5500 H 531.815 -0.022079 -3.12092 0
M  V30 5501 N 532.116 1.54067 -0.331816 0
M  V30 5502 C 533.527 1.86059 0.15454 0
M  V30 5503 C 533.878 1.25331 1.50952 0
M  V30 5504 O 533.003 0.562441 2.08963 0
M  V30 5505 C 533.598 3.37581 0.287192 0
M  V30 5506 C 532.157 3.69493 0.717773 0
M  V30 5507 C 531.304 2.76863 -0.155569 0
M  V30 5508 H 534.255 1.48797 -0.55182 0
M  V30 5509 H 534.276 3.63744 1.11671 0
M  V30 5510 H 533.788 3.81751 -0.699131 0
M  V30 5511 H 531.889 3.3086 1.71354 0
M  V30 5512 H 532.002 4.76315 0.5158 0
M  V30 5513 H 530.366 2.51995 0.370213 0
M  V30 5514 H 531.149 3.23861 -1.13881 0
M  V30 5515 N 533.594 0.0601682 1.57485 0
M  V30 5516 C 534.84 -0.612501 1.93329 0
M  V30 5517 C 535.173 -1.6996 0.939526 0
M  V30 5518 O 534.448 -1.94472 -0.0330957 0
M  V30 5519 C 534.731 -1.20025 3.39508 0
M  V30 5520 C 534.584 -0.12059 4.49638 0
M  V30 5521 C 535.903 -2.10923 3.86264 0
M  V30 5522 H 533.022 -0.221185 0.703027 0
M  V30 5523 H 535.664 0.123768 1.89596 0
M  V30 5524 H 533.814 -1.82774 3.42821 0
M  V30 5525 H 535.486 0.51185 4.58452 0
M  V30 5526 H 533.729 0.550251 4.30296 0
M  V30 5527 H 534.4 -0.572019 5.49028 0
M  V30 5528 H 536.876 -1.58124 3.84884 0
M  V30 5529 H 535.752 -2.48987 4.8918 0
M  V30 5530 H 536.013 -3.01292 3.23536 0
M  V30 5531 N 535.072 -1.5615 -0.213296 0
M  V30 5532 C 536.02 -1.93953 -1.28394 0
M  V30 5533 C 537.014 -0.822592 -1.48087 0
M  V30 5534 O 538.22 -1.00748 -1.49164 0
M  V30 5535 H 534.595 -0.61648 -0.430646 0
M  V30 5536 H 536.566 -2.83275 -0.937977 0
M  V30 5537 C 535.315 -2.27969 -2.62537 0
M  V30 5538 H 534.638 -3.13432 -2.48194 0
M  V30 5539 H 536.078 -2.58297 -3.36242 0
M  V30 5540 C 534.537 -1.10775 -3.18167 0
M  V30 5541 O 535.067 -0.373201 -3.99963 0
M  V30 5542 N 533.273 -0.889377 -2.76656 0
M  V30 5543 H 532.82 -1.48843 -2.10246 0
M  V30 5544 H 532.778 -0.107 -3.14218 0
M  V30 5545 N 536.55 0.480323 -1.50102 0
M  V30 5546 C 537.796 1.23489 -1.60867 0
M  V30 5547 C 538.129 1.91809 -0.303827 0
M  V30 5548 O 537.404 1.81694 0.694092 0
M  V30 5549 C 537.687 2.28578 -2.78252 0
M  V30 5550 C 537.54 1.64624 -4.18592 0
M  V30 5551 C 538.859 3.2997 -2.91218 0
M  V30 5552 H 535.978 0.447605 -0.585507 0
M  V30 5553 H 538.62 0.530005 -1.82458 0
M  V30 5554 H 536.77 2.88697 -2.59974 0
M  V30 5555 H 538.442 1.08173 -4.48438 0
M  V30 5556 H 536.685 0.949645 -4.23278 0
M  V30 5557 H 537.356 2.40946 -4.96638 0
M  V30 5558 H 539.832 2.79864 -3.07921 0
M  V30 5559 H 538.708 4.00839 -3.74993 0
M  V30 5560 H 538.969 3.93541 -2.0144 0
M  V30 5561 N 538.028 1.39524 0.732853 0
M  V30 5562 C 539.305 1.27373 1.48444 0
M  V30 5563 C 539.685 -0.115725 2.10783 0
M  V30 5564 O 539.033 -1.12713 1.98766 0
M  V30 5565 C 539.243 2.39966 2.53412 0
M  V30 5566 C 540.591 2.79384 3.19733 0
M  V30 5567 O 541.615 2.39431 2.63725 0
M  V30 5568 O 540.474 3.48353 4.21085 0
M  V30 5569 H 537.568 0.499272 0.659285 0
M  V30 5570 H 540.114 1.51403 0.766496 0
M  V30 5571 H 538.886 3.32845 2.05742 0
M  V30 5572 H 538.509 2.17612 3.32762 0
M  V30 5573 N 539.506 -0.963266 1.24736 0
M  V30 5574 C 540.454 -2.07985 1.04139 0
M  V30 5575 C 541.448 -1.69381 -0.0250556 0
M  V30 5576 O 542.654 -1.79531 0.129863 0
M  V30 5577 H 539.029 -0.680627 0.319768 0
M  V30 5578 H 541 -2.22517 1.98818 0
M  V30 5579 C 539.749 -3.4123 0.667615 0
M  V30 5580 H 539.072 -3.71397 1.48 0
M  V30 5581 H 540.512 -4.20244 0.563136 0
M  V30 5582 C 538.971 -3.3104 -0.625647 0
M  V30 5583 O 539.501 -3.65334 -1.67016 0
M  V30 5584 N 537.707 -2.84168 -0.608033 0
M  V30 5585 H 537.254 -2.56458 0.242323 0
M  V30 5586 H 537.212 -2.77732 -1.47352 0
M  V30 5587 N 540.985 -1.06182 -1.16461 0
M  V30 5588 C 542.232 -0.777863 -1.86964 0
M  V30 5589 C 542.56 0.695602 -1.81636 0
M  V30 5590 O 541.815 1.52532 -1.22607 0
M  V30 5591 C 542.114 -1.21633 -3.36066 0
M  V30 5592 C 541.78 -2.69371 -3.61594 0
M  V30 5593 C 540.442 -3.09727 -3.6827 0
M  V30 5594 C 542.794 -3.64791 -3.7226 0
M  V30 5595 C 540.122 -4.44345 -3.83112 0
M  V30 5596 C 542.474 -4.99155 -3.88623 0
M  V30 5597 C 541.138 -5.39149 -3.93541 0
M  V30 5598 H 540.408 -0.28464 -0.68415 0
M  V30 5599 H 543.055 -1.33071 -1.37711 0
M  V30 5600 H 541.36 -0.582651 -3.87443 0
M  V30 5601 H 543.057 -0.973682 -3.88999 0
M  V30 5602 H 539.647 -2.37124 -3.57029 0
M  V30 5603 H 543.831 -3.34746 -3.66413 0
M  V30 5604 H 539.087 -4.74819 -3.85172 0
M  V30 5605 H 543.261 -5.72976 -3.95817 0
M  V30 5606 H 540.888 -6.43464 -4.04794 0
M  V30 5607 N 542.463 1.3308 -0.844243 0
M  V30 5608 C 543.712 1.96868 -0.438833 0
M  V30 5609 C 544.025 1.67599 1.00846 0
M  V30 5610 O 545.231 2.25043 1.51881 0
M  V30 5611 C 543.687 3.5234 -0.73377 0
M  V30 5612 C 543.295 3.90481 -2.1961 0
M  V30 5613 C 545.039 4.22653 -0.395574 0
M  V30 5614 C 542.946 5.38954 -2.43481 0
M  V30 5615 H 541.876 0.736749 -0.160364 0
M  V30 5616 H 544.527 1.51623 -1.03358 0
M  V30 5617 H 542.909 3.95941 -0.068589 0
M  V30 5618 H 544.083 3.57922 -2.90221 0
M  V30 5619 H 542.398 3.33165 -2.4978 0
M  V30 5620 H 544.995 5.31848 -0.551477 0
M  V30 5621 H 545.338 4.11004 0.661921 0
M  V30 5622 H 545.871 3.84601 -1.01621 0
M  V30 5623 H 542.61 5.55612 -3.47816 0
M  V30 5624 H 542.13 5.72954 -1.77437 0
M  V30 5625 H 543.809 6.05907 -2.26905 0
M  V30 5626 N 543.941 0.601185 1.45683 0
M  V30 5627 C 545.188 0.0938811 2.02282 0
M  V30 5628 C 545.516 -1.27315 1.47041 0
M  V30 5629 O 544.771 -1.85193 0.632623 0
M  V30 5630 C 545.07 -0.00222425 3.574 0
M  V30 5631 C 544.736 1.29963 4.31764 0
M  V30 5632 C 543.398 1.65625 4.51798 0
M  V30 5633 C 545.75 2.1603 4.74321 0
M  V30 5634 C 543.078 2.87119 5.11644 0
M  V30 5635 C 545.43 3.36766 5.3551 0
M  V30 5636 C 544.094 3.72689 5.53768 0
M  V30 5637 H 543.364 0.0343535 0.740203 0
M  V30 5638 H 546.011 0.781522 1.74827 0
M  V30 5639 H 544.316 -0.773096 3.84097 0
M  V30 5640 H 546.013 -0.410794 3.9889 0
M  V30 5641 H 542.603 1.01204 4.1648 0
M  V30 5642 H 546.787 1.89778 4.58582 0
M  V30 5643 H 542.043 3.15065 5.2397 0
M  V30 5644 H 546.217 4.03713 5.67441 0
M  V30 5645 H 543.844 4.66918 5.99909 0
M  V30 5646 N 545.419 -1.53889 0.339982 0
M  V30 5647 C 546.644 -2.05741 -0.261798 0
M  V30 5648 C 547.069 -1.21354 -1.43718 0
M  V30 5649 O 546.427 -0.22645 -1.7988 0
M  V30 5650 C 546.475 -3.54542 -0.658228 0
M  V30 5651 O 545.579 -3.7302 -1.75869 0
M  V30 5652 H 544.92 -0.662529 -0.0441672 0
M  V30 5653 H 547.45 -1.98568 0.493161 0
M  V30 5654 H 547.46 -3.9711 -0.936368 0
M  V30 5655 H 546.135 -4.15412 0.201358 0
M  V30 5656 H 544.712 -3.42355 -1.47809 0
M  V30 5657 N 546.897 -0.0685191 -1.57451 0
M  V30 5658 C 548.313 0.288101 -1.56978 0
M  V30 5659 C 548.513 1.70262 -1.07765 0
M  V30 5660 O 547.569 2.4135 -0.742054 0
M  V30 5661 C 548.882 0.100745 -3.00531 0
M  V30 5662 C 550.43 0.170531 -3.12535 0
M  V30 5663 C 550.905 0.0114944 -4.57999 0
M  V30 5664 N 552.396 0.0672065 -4.63151 0
M  V30 5665 C 553.131 -0.0314813 -5.73391 0
M  V30 5666 N 552.627 -0.183503 -6.92557 0
M  V30 5667 N 554.42 0.0253489 -5.62094 0
M  V30 5668 H 546.571 -0.993026 -1.87757 0
M  V30 5669 H 548.834 -0.386981 -0.865419 0
M  V30 5670 H 548.54 -0.875197 -3.40636 0
M  V30 5671 H 548.414 0.854457 -3.67395 0
M  V30 5672 H 550.801 1.13696 -2.72318 0
M  V30 5673 H 550.882 -0.614229 -2.48316 0
M  V30 5674 H 550.526 -0.951684 -4.98904 0
M  V30 5675 H 550.456 0.815617 -5.20245 0
M  V30 5676 H 552.947 0.183246 -3.77455 0
M  V30 5677 H 553.26 -0.251041 -7.72392 0
M  V30 5678 H 551.605 -0.218822 -6.94655 0
M  V30 5679 H 554.796 0.142794 -4.67882 0
M  V30 5680 H 554.969 -0.0550166 -6.47977 0
M  V30 5681 N 548.375 1.56261 0.205012 0
M  V30 5682 C 549.6 1.84491 0.947512 0
M  V30 5683 C 550.025 0.650894 1.76479 0
M  V30 5684 O 549.383 -0.40035 1.76824 0
M  V30 5685 C 549.431 3.10863 1.82747 0
M  V30 5686 O 548.535 2.90719 2.925 0
M  V30 5687 H 547.876 0.607783 0.267386 0
M  V30 5688 H 550.406 2.03485 0.213323 0
M  V30 5689 H 550.416 3.41399 2.23407 0
M  V30 5690 H 549.091 3.97392 1.2269 0
M  V30 5691 H 547.668 2.71457 2.55667 0
M  V30 5692 N 549.853 -0.472356 1.50355 0
M  V30 5693 C 551.078 -1.25251 1.65309 0
M  V30 5694 C 551.503 -1.85081 0.335643 0
M  V30 5695 O 550.861 -1.67227 -0.700335 0
M  V30 5696 C 550.909 -2.3379 2.74544 0
M  V30 5697 O 550.013 -3.38401 2.35709 0
M  V30 5698 H 549.354 -0.368539 0.552336 0
M  V30 5699 H 551.884 -0.562271 1.96722 0
M  V30 5700 H 551.894 -2.79121 2.97583 0
M  V30 5701 H 550.569 -1.89614 3.70161 0
M  V30 5702 H 549.146 -2.9879 2.23112 0
M  V30 5703 N 551.331 -1.39911 -0.725443 0
M  V30 5704 C 552.742 -1.33599 -1.30415 0
M  V30 5705 C 553.093 -0.00481792 -1.96199 0
M  V30 5706 O 552.218 0.897275 -1.96921 0
M  V30 5707 C 552.813 -2.41965 -2.37146 0
M  V30 5708 C 551.372 -2.39144 -2.90667 0
M  V30 5709 C 550.519 -2.23355 -1.64341 0
M  V30 5710 H 553.47 -1.4986 -0.522267 0
M  V30 5711 H 553.491 -2.09304 -3.17761 0
M  V30 5712 H 553.003 -3.38837 -1.89238 0
M  V30 5713 H 551.104 -1.4594 -3.4283 0
M  V30 5714 H 551.217 -3.34362 -3.43131 0
M  V30 5715 H 549.581 -1.70696 -1.89037 0
M  V30 5716 H 550.364 -3.2221 -1.18471 0
M  V30 5717 N 552.809 0.956637 -1.25245 0
M  V30 5718 C 554.055 1.70352 -1.10036 0
M  V30 5719 C 554.388 1.90869 0.358156 0
M  V30 5720 O 553.663 1.47819 1.26411 0
M  V30 5721 C 553.946 3.08766 -1.85298 0
M  V30 5722 C 553.799 2.95672 -3.38966 0
M  V30 5723 C 555.118 4.08622 -1.63451 0
M  V30 5724 H 552.237 0.618279 -0.401123 0
M  V30 5725 H 554.879 1.11212 -1.54051 0
M  V30 5726 H 553.029 3.59252 -1.47887 0
M  V30 5727 H 554.701 2.52527 -3.86041 0
M  V30 5728 H 552.944 2.31634 -3.6678 0
M  V30 5729 H 553.615 3.93776 -3.86839 0
M  V30 5730 H 556.091 3.67038 -1.96015 0
M  V30 5731 H 554.967 5.03514 -2.18551 0
M  V30 5732 H 555.228 4.3834 -0.575357 0
M  V30 5733 N 554.287 1.06798 1.15896 0
M  V30 5734 C 555.698 0.811355 1.68149 0
M  V30 5735 C 556.049 -0.664339 1.8461 0
M  V30 5736 O 555.174 -1.51485 1.54535 0
M  V30 5737 C 555.769 1.46624 3.05429 0
M  V30 5738 C 554.328 1.25726 3.54781 0
M  V30 5739 C 553.475 1.53949 2.3064 0
M  V30 5740 H 556.426 1.23078 1.00187 0
M  V30 5741 H 556.447 0.88437 3.7008 0
M  V30 5742 H 555.959 2.54025 2.93416 0
M  V30 5743 H 554.06 0.20322 3.72045 0
M  V30 5744 H 554.173 1.97354 4.36564 0
M  V30 5745 H 552.537 0.96025 2.35905 0
M  V30 5746 H 553.32 2.6252 2.2122 0
M  V30 5747 N 555.766 -1.3263 0.851289 0
M  V30 5748 C 556.729 -2.27247 0.298541 0
M  V30 5749 C 557.729 -1.51467 -0.539847 0
M  V30 5750 O 558.919 -1.7061 -0.351843 0
M  V30 5751 C 556.051 -3.35964 -0.578004 0
M  V30 5752 H 557.244 -2.7765 1.13359 0
M  V30 5753 H 554.797 -1.43245 0.625354 0
M  V30 5754 H 555.532 -2.90823 -1.435 0
M  V30 5755 H 555.317 -3.92094 0.0220539 0
M  V30 5756 H 556.807 -4.06472 -0.957626 0
M  V30 5757 N 557.244 -0.608902 -1.45362 0
M  V30 5758 C 558.655 -0.189511 -1.85736 0
M  V30 5759 C 559.006 1.2539 -1.50903 0
M  V30 5760 O 558.131 1.95094 -0.936347 0
M  V30 5761 C 558.726 -0.33716 -3.37118 0
M  V30 5762 C 557.285 0.0275487 -3.7639 0
M  V30 5763 C 556.432 -0.660983 -2.69307 0
M  V30 5764 H 559.383 -0.815499 -1.36144 0
M  V30 5765 H 559.404 0.430257 -3.7806 0
M  V30 5766 H 558.916 -1.38779 -3.62439 0
M  V30 5767 H 557.017 1.0773 -3.56686 0
M  V30 5768 H 557.13 -0.367018 -4.77692 0
M  V30 5769 H 555.494 -0.0984958 -2.54509 0
M  V30 5770 H 556.277 -1.71377 -2.97464 0
M  V30 5771 N 558.722 1.53707 -0.348139 0
M  V30 5772 C 559.97 2.00591 0.246478 0
M  V30 5773 C 560.291 1.23753 1.50699 0
M  V30 5774 O 559.561 0.345964 1.92821 0
M  V30 5775 H 558.141 0.741053 0.0940679 0
M  V30 5776 H 560.803 1.89139 -0.470354 0
M  V30 5777 H 559.899 3.08297 0.485714 0
M  V30 5778 N 560.2 0.0768682 1.57412 0
M  V30 5779 C 561.477 -0.632359 1.85096 0
M  V30 5780 C 561.857 -1.87479 0.9703 0
M  V30 5781 O 561.205 -2.28469 0.0379062 0
M  V30 5782 C 561.415 -0.965174 3.35388 0
M  V30 5783 C 562.763 -1.33648 4.03018 0
M  V30 5784 O 563.787 -1.05675 3.40164 0
M  V30 5785 O 562.646 -1.85959 5.13889 0
M  V30 5786 H 559.74 -0.314574 0.764835 0
M  V30 5787 H 562.286 0.108184 1.69355 0
M  V30 5788 H 561.058 -0.0829745 3.91212 0
M  V30 5789 H 560.681 -1.76231 3.5641 0
M  V30 5790 N 561.678 -1.56367 -0.196722 0
M  V30 5791 C 562.626 -1.95304 -1.2633 0
M  V30 5792 C 563.62 -0.838252 -1.47206 0
M  V30 5793 O 564.826 -1.02325 -1.48087 0
M  V30 5794 H 561.201 -0.621013 -0.424083 0
M  V30 5795 H 563.172 -2.84254 -0.907879 0
M  V30 5796 C 561.921 -2.3074 -2.60104 0
M  V30 5797 H 561.244 -3.16047 -2.44856 0
M  V30 5798 H 562.684 -2.61849 -3.33484 0
M  V30 5799 C 561.143 -1.14143 -3.16975 0
M  V30 5800 O 561.673 -0.415602 -3.99544 0
M  V30 5801 N 559.879 -0.91867 -2.75697 0
M  V30 5802 H 559.426 -1.51065 -2.08656 0
M  V30 5803 H 559.384 -0.140321 -3.14087 0
M  V30 5804 N 563.156 0.464375 -1.50603 0
M  V30 5805 C 564.384 1.23907 -1.65695 0
M  V30 5806 C 564.799 1.85658 -0.343027 0
M  V30 5807 O 564.156 1.69529 0.675739 0
M  V30 5808 C 564.207 2.3429 -2.75301 0
M  V30 5809 O 563.928 1.7507 -4.01599 0
M  V30 5810 C 565.429 3.25051 -3.01424 0
M  V30 5811 H 562.649 0.374485 -0.556778 0
M  V30 5812 H 565.193 0.55353 -1.96866 0
M  V30 5813 H 563.348 2.98607 -2.46804 0
M  V30 5814 H 563.762 2.47812 -4.62266 0
M  V30 5815 H 565.236 3.98699 -3.81763 0
M  V30 5816 H 565.713 3.84227 -2.12758 0
M  V30 5817 H 566.319 2.66463 -3.31477 0
M  V30 5818 N 564.634 1.40294 0.718013 0
M  V30 5819 C 566.05 1.2227 1.02577 0
M  V30 5820 C 566.25 0.0961976 2.0127 0
M  V30 5821 O 565.306 -0.546695 2.46511 0
M  V30 5822 C 566.619 2.56348 1.57182 0
M  V30 5823 C 568.167 2.6334 1.69178 0
M  V30 5824 C 568.642 3.9768 2.27188 0
M  V30 5825 N 570.133 3.99409 2.34578 0
M  V30 5826 C 570.868 5.00141 2.8044 0
M  V30 5827 N 570.364 6.11268 3.26073 0
M  V30 5828 N 572.157 4.87511 2.79802 0
M  V30 5829 H 564.308 2.12304 0.0637899 0
M  V30 5830 H 566.571 0.943632 0.0909036 0
M  V30 5831 H 566.277 3.3942 0.921262 0
M  V30 5832 H 566.151 2.77266 2.55741 0
M  V30 5833 H 568.538 1.80641 2.33351 0
M  V30 5834 H 568.619 2.46255 0.692247 0
M  V30 5835 H 568.263 4.80817 1.63638 0
M  V30 5836 H 568.193 4.12093 3.27852 0
M  V30 5837 H 570.684 3.19162 2.02346 0
M  V30 5838 H 570.997 6.84023 3.59628 0
M  V30 5839 H 569.342 6.14837 3.24038 0
M  V30 5840 H 572.533 3.9979 2.43487 0
M  V30 5841 H 572.706 5.66158 3.15228 0
M  V30 5842 N 566.112 -0.949982 1.2575 0
M  V30 5843 C 567.389 -1.6718 1.01539 0
M  V30 5844 C 567.769 -2.06095 -0.456942 0
M  V30 5845 O 567.117 -1.77792 -1.43534 0
M  V30 5846 C 567.327 -2.8906 1.95564 0
M  V30 5847 C 568.675 -3.60909 2.23673 0
M  V30 5848 O 569.699 -2.9915 1.9336 0
M  V30 5849 O 568.558 -4.72127 2.75243 0
M  V30 5850 H 565.652 -0.731697 0.385419 0
M  V30 5851 H 568.198 -1.00249 1.36924 0
M  V30 5852 H 566.97 -2.57128 2.94959 0
M  V30 5853 H 566.593 -3.63719 1.60605 0
M  V30 5854 N 567.59 -1.07411 -1.15328 0
M  V30 5855 C 568.553 -0.698914 -2.18284 0
M  V30 5856 C 569.553 0.261149 -1.58665 0
M  V30 5857 O 570.743 0.0420277 -1.74149 0
M  V30 5858 C 567.875 -0.0302427 -3.40887 0
M  V30 5859 H 569.068 -1.61045 -2.52991 0
M  V30 5860 H 566.621 -0.870724 -1.298 0
M  V30 5861 H 567.356 0.893505 -3.11748 0
M  V30 5862 H 567.141 -0.720759 -3.85419 0
M  V30 5863 H 568.631 0.21759 -4.17033 0
M  V30 5864 N 569.068 1.32177 -0.85831 0
M  V30 5865 C 570.298 2.01021 -0.476889 0
M  V30 5866 C 570.706 1.64653 0.931995 0
M  V30 5867 O 570.049 0.865713 1.62022 0
M  V30 5868 C 570.111 3.55413 -0.540528 0
M  V30 5869 C 569.775 4.1522 -1.90895 0
M  V30 5870 C 570.772 4.3318 -2.87491 0
M  V30 5871 C 568.457 4.51212 -2.20709 0
M  V30 5872 C 570.451 4.86306 -4.1205 0
M  V30 5873 C 568.138 5.04042 -3.45521 0
M  V30 5874 C 569.136 5.21538 -4.41007 0
M  V30 5875 O 568.824 5.73238 -5.63608 0
M  V30 5876 H 568.556 0.650059 -0.18547 0
M  V30 5877 H 571.11 1.69648 -1.15796 0
M  V30 5878 H 569.34 3.86196 0.19741 0
M  V30 5879 H 571.029 4.05526 -0.174191 0
M  V30 5880 H 571.795 4.05704 -2.65762 0
M  V30 5881 H 567.674 4.36878 -1.4717 0
M  V30 5882 H 571.218 4.99877 -4.86589 0
M  V30 5883 H 567.115 5.30952 -3.67098 0
M  V30 5884 H 567.883 5.91625 -5.65617 0
M  V30 5885 N 570.547 0.616602 1.45037 0
M  V30 5886 C 571.772 0.120192 2.07051 0
M  V30 5887 C 572.197 -1.19008 1.45666 0
M  V30 5888 O 571.555 -1.7267 0.552692 0
M  V30 5889 C 571.603 0.00354901 3.606 0
M  V30 5890 O 570.707 -1.04431 3.98958 0
M  V30 5891 H 570.048 0.0781599 0.659384 0
M  V30 5892 H 572.578 0.849167 1.86146 0
M  V30 5893 H 572.588 -0.191754 4.07549 0
M  V30 5894 H 571.263 0.960239 4.04663 0
M  V30 5895 H 569.84 -0.824749 3.63665 0
M  V30 5896 N 572.025 -1.5352 0.356285 0
M  V30 5897 C 573.274 -2.00298 -0.237373 0
M  V30 5898 C 573.587 -1.24784 -1.50627 0
M  V30 5899 O 574.793 -1.62103 -2.17795 0
M  V30 5900 C 573.249 -3.56771 -0.473545 0
M  V30 5901 C 572.857 -4.41154 0.780183 0
M  V30 5902 C 574.601 -4.1193 -1.02537 0
M  V30 5903 C 572.508 -5.89161 0.514108 0
M  V30 5904 H 571.438 -0.748307 -0.092478 0
M  V30 5905 H 574.089 -1.77283 0.473588 0
M  V30 5906 H 572.471 -3.75902 -1.24553 0
M  V30 5907 H 573.645 -4.33797 1.55425 0
M  V30 5908 H 571.96 -3.97052 1.25455 0
M  V30 5909 H 574.557 -5.20133 -1.2396 0
M  V30 5910 H 574.9 -3.65943 -1.98473 0
M  V30 5911 H 575.433 -3.96561 -0.313775 0
M  V30 5912 H 572.172 -6.39408 1.44355 0
M  V30 5913 H 571.692 -5.9939 -0.221632 0
M  V30 5914 H 573.371 -6.46857 0.136122 0
M  V30 5915 N 573.503 -0.0852151 -1.57369 0
M  V30 5916 C 574.752 0.580443 -1.93168 0
M  V30 5917 C 575.065 1.6995 -0.968319 0
M  V30 5918 O 576.271 2.42564 -1.21963 0
M  V30 5919 C 574.727 1.08386 -3.43192 0
M  V30 5920 C 574.335 -0.00491388 -4.48 0
M  V30 5921 C 576.079 1.72281 -3.87968 0
M  V30 5922 C 573.986 0.513299 -5.89168 0
M  V30 5923 H 572.916 0.22059 -0.72101 0
M  V30 5924 H 575.567 -0.159621 -1.82804 0
M  V30 5925 H 573.949 1.8773 -3.48674 0
M  V30 5926 H 575.123 -0.780032 -4.5415 0
M  V30 5927 H 573.438 -0.548453 -4.12772 0
M  V30 5928 H 576.035 2.12108 -4.9083 0
M  V30 5929 H 576.378 2.58811 -3.26071 0
M  V30 5930 H 576.911 0.995359 -3.85146 0
M  V30 5931 H 573.65 -0.315153 -6.54742 0
M  V30 5932 H 573.17 1.25564 -5.8651 0
M  V30 5933 H 574.849 0.985433 -6.39451 0
M  V30 5934 N 574.981 1.5647 0.188427 0
M  V30 5935 C 575.913 1.91611 1.25769 0
M  V30 5936 C 576.926 0.807436 1.41366 0
M  V30 5937 O 578.115 1.08586 1.41673 0
M  V30 5938 C 575.215 2.13874 2.6289 0
M  V30 5939 C 574.388 3.45047 2.68815 0
M  V30 5940 C 573.447 3.56342 3.87178 0
M  V30 5941 O 572.473 4.29109 3.73971 0
M  V30 5942 N 573.675 2.89924 5.02916 0
M  V30 5943 H 576.44 2.8393 0.959373 0
M  V30 5944 H 574.001 1.57418 0.378306 0
M  V30 5945 H 575.993 2.18713 3.4051 0
M  V30 5946 H 574.563 1.28022 2.85183 0
M  V30 5947 H 573.783 3.52017 1.77419 0
M  V30 5948 H 575.071 4.31395 2.6977 0
M  V30 5949 H 574.469 2.30644 5.16546 0
M  V30 5950 H 573.026 3.0038 5.78459 0
M  V30 5951 N 576.459 -0.456382 1.50847 0
M  V30 5952 C 577.422 -1.53493 1.70213 0
M  V30 5953 C 578.422 -1.50264 0.572481 0
M  V30 5954 O 579.612 -1.52623 0.839751 0
M  V30 5955 C 576.744 -2.93091 1.741 0
M  V30 5956 H 577.937 -1.37633 2.66453 0
M  V30 5957 H 575.49 -0.683776 1.4055 0
M  V30 5958 H 576.225 -3.14378 0.796063 0
M  V30 5959 H 576.01 -2.9684 2.5618 0
M  V30 5960 H 577.5 -3.71368 1.90987 0
M  V30 5961 N 577.937 -1.40673 -0.710563 0
M  V30 5962 C 578.847 -1.43663 -1.85467 0
M  V30 5963 C 579.863 -0.328721 -1.70867 0
M  V30 5964 O 581.039 -0.574098 -1.93044 0
M  V30 5965 C 578.104 -1.30226 -3.21313 0
M  V30 5966 C 577.165 -2.51204 -3.48131 0
M  V30 5967 C 576.398 -2.38398 -4.77495 0
M  V30 5968 O 576.621 -1.40048 -5.5294 0
M  V30 5969 O 575.555 -3.2787 -5.04762 0
M  V30 5970 H 579.381 -2.40156 -1.859 0
M  V30 5971 H 576.966 -1.22049 -0.861652 0
M  V30 5972 H 578.848 -1.2496 -4.02446 0
M  V30 5973 H 577.523 -0.368419 -3.21597 0
M  V30 5974 H 576.43 -2.62048 -2.66987 0
M  V30 5975 H 577.763 -3.43366 -3.52648 0
M  V30 5976 N 579.415 0.9433 -1.26252 0
M  V30 5977 C 580.692 1.66639 -1.02424 0
M  V30 5978 C 581.072 2.06335 0.446006 0
M  V30 5979 O 580.42 1.78551 1.42589 0
M  V30 5980 C 580.63 2.88019 -1.97094 0
M  V30 5981 C 581.978 3.59718 -2.25584 0
M  V30 5982 O 583.002 2.9812 -1.94943 0
M  V30 5983 O 581.861 4.7066 -2.77743 0
M  V30 5984 H 578.955 0.729643 -0.389294 0
M  V30 5985 H 581.501 0.995218 -1.37454 0
M  V30 5986 H 580.273 2.5556 -2.96319 0
M  V30 5987 H 579.896 3.62863 -1.62532 0
M  V30 5988 N 580.893 1.08022 1.14757 0
M  V30 5989 C 582.123 0.827646 1.89298 0
M  V30 5990 C 582.531 -0.623506 1.78631 0
M  V30 5991 O 581.874 -1.43991 1.14071 0
M  V30 5992 C 581.936 1.16553 3.40082 0
M  V30 5993 C 581.6 2.61866 3.74533 0
M  V30 5994 C 582.597 3.60116 3.74984 0
M  V30 5995 C 580.282 2.97619 4.04633 0
M  V30 5996 C 582.276 4.92151 4.05051 0
M  V30 5997 C 579.963 4.2985 4.34364 0
M  V30 5998 C 580.961 5.26926 4.34555 0
M  V30 5999 O 580.649 6.5678 4.63568 0
M  V30 6000 H 580.381 0.298396 0.606577 0
M  V30 6001 H 582.935 1.44187 1.46285 0
M  V30 6002 H 581.165 0.494296 3.83528 0
M  V30 6003 H 582.854 0.894407 3.95923 0
M  V30 6004 H 583.62 3.33837 3.51821 0
M  V30 6005 H 579.499 2.22702 4.03639 0
M  V30 6006 H 583.043 5.67915 4.05115 0
M  V30 6007 H 578.94 4.55879 4.56995 0
M  V30 6008 H 579.708 6.62035 4.81303 0
M  V30 6009 N 582.371 -1.3172 0.865308 0
M  V30 6010 C 583.648 -1.91574 0.394789 0
M  V30 6011 C 584.028 -1.78769 -1.12271 0
M  V30 6012 O 583.376 -1.19245 -1.94918 0
M  V30 6013 C 583.586 -3.37957 0.870982 0
M  V30 6014 C 584.934 -4.15073 0.894384 0
M  V30 6015 O 585.958 -3.4672 0.816325 0
M  V30 6016 O 584.817 -5.37151 1.00651 0
M  V30 6017 H 581.911 -0.818649 0.117229 0
M  V30 6018 H 584.457 -1.4042 0.952913 0
M  V30 6019 H 583.229 -3.41269 1.91444 0
M  V30 6020 H 582.852 -3.96534 0.290907 0
M  V30 6021 N 583.85 -0.624285 -1.44708 0
M  V30 6022 C 585.075 -0.131171 -2.06985 0
M  V30 6023 C 585.5 1.18234 -1.46295 0
M  V30 6024 O 584.858 1.72375 -0.561842 0
M  V30 6025 C 584.906 -0.0226724 -3.60593 0
M  V30 6026 O 584.01 1.02314 -3.99507 0
M  V30 6027 H 583.351 -0.0816556 -0.65896 0
M  V30 6028 H 585.88 -0.859027 -1.85693 0
M  V30 6029 H 585.891 0.170138 -4.07645 0
M  V30 6030 H 584.566 -0.981685 -4.04148 0
M  V30 6031 H 583.143 0.805452 -3.64097 0
M  V30 6032 N 585.328 1.53329 -0.364422 0
M  V30 6033 C 586.553 2.06132 0.229033 0
M  V30 6034 C 586.978 1.23625 1.41769 0
M  V30 6035 O 586.336 0.255038 1.79497 0
M  V30 6036 C 586.384 3.55544 0.60174 0
M  V30 6037 O 585.488 3.75771 1.69912 0
M  V30 6038 H 584.829 0.663148 0.0336213 0
M  V30 6039 H 587.359 1.97758 -0.524689 0
M  V30 6040 H 587.369 3.98549 0.873073 0
M  V30 6041 H 586.044 4.15039 -0.267421 0
M  V30 6042 H 584.621 3.44663 1.42343 0
M  V30 6043 N 586.806 0.0935595 1.57322 0
M  V30 6044 C 588.036 -0.578095 1.98347 0
M  V30 6045 C 588.444 -1.62357 0.971441 0
M  V30 6046 O 587.787 -1.83639 -0.0473959 0
M  V30 6047 C 587.849 -1.28525 3.3574 0
M  V30 6048 C 587.513 -0.390714 4.55327 0
M  V30 6049 C 588.51 0.360522 5.18648 0
M  V30 6050 C 586.195 -0.309221 5.01347 0
M  V30 6051 C 588.189 1.18125 6.26359 0
M  V30 6052 C 585.876 0.515157 6.08925 0
M  V30 6053 C 586.874 1.25904 6.71295 0
M  V30 6054 O 586.562 2.06978 7.76798 0
M  V30 6055 H 586.294 -0.159767 0.656849 0
M  V30 6056 H 588.848 0.169058 2.04703 0
M  V30 6057 H 587.078 -2.07894 3.26063 0
M  V30 6058 H 588.767 -1.85128 3.61223 0
M  V30 6059 H 589.533 0.307285 4.84026 0
M  V30 6060 H 585.412 -0.877881 4.52564 0
M  V30 6061 H 588.956 1.76236 6.74971 0
M  V30 6062 H 584.853 0.56988 6.42979 0
M  V30 6063 H 585.621 1.99644 7.93779 0
M  V30 6064 N 588.284 -1.56567 -0.180126 0
M  V30 6065 C 589.532 -1.81133 -0.896392 0
M  V30 6066 C 589.853 -0.669114 -1.83161 0
M  V30 6067 O 589.123 0.311616 -1.93406 0
M  V30 6068 H 587.703 -0.668172 -0.333999 0
M  V30 6069 H 590.365 -1.94048 -0.182051 0
M  V30 6070 H 589.461 -2.74854 -1.47857 0
M  V30 6071 N 589.762 0.448376 -1.51087 0
M  V30 6072 C 591.173 1.0286 -1.5581 0
M  V30 6073 C 591.524 1.92583 -0.374989 0
M  V30 6074 O 590.649 2.10316 0.509533 0
M  V30 6075 C 591.244 1.87223 -2.8237 0
M  V30 6076 C 589.803 2.40314 -2.897 0
M  V30 6077 C 588.95 1.19238 -2.50355 0
M  V30 6078 H 591.901 0.230075 -1.57023 0
M  V30 6079 H 591.922 2.72553 -2.6551 0
M  V30 6080 H 591.434 1.21894 -3.68461 0
M  V30 6081 H 589.535 3.09129 -2.08014 0
M  V30 6082 H 589.648 2.73866 -3.93108 0
M  V30 6083 H 588.012 1.53428 -2.03303 0
M  V30 6084 H 588.795 0.555367 -3.38778 0
M  V30 6085 N 591.24 1.41047 0.703093 0
M  V30 6086 C 592.188 1.42494 1.83843 0
M  V30 6087 C 593.182 0.303885 1.66652 0
M  V30 6088 O 594.388 0.475544 1.73605 0
M  V30 6089 H 590.763 0.445685 0.605697 0
M  V30 6090 H 592.734 2.38194 1.79739 0
M  V30 6091 C 591.483 1.31666 3.21807 0
M  V30 6092 H 590.806 2.17212 3.35647 0
M  V30 6093 H 592.246 1.36738 4.01346 0
M  V30 6094 C 590.705 0.0281828 3.36888 0
M  V30 6095 O 591.235 -0.929995 3.90786 0
M  V30 6096 N 589.441 -0.0454322 2.90564 0
M  V30 6097 H 588.988 0.735046 2.4689 0
M  V30 6098 H 588.946 -0.906968 3.01034 0
M  V30 6099 N 592.718 -0.936591 1.26751 0
M  V30 6100 C 593.648 -2.05315 1.11212 0
M  V30 6101 C 594.629 -1.70092 0.0160262 0
M  V30 6102 O 595.814 -1.93279 0.188894 0
M  V30 6103 C 592.944 -3.39123 0.749171 0
M  V30 6104 C 591.898 -3.88425 1.79751 0
M  V30 6105 C 591.224 -5.18936 1.28876 0
M  V30 6106 C 592.524 -4.12798 3.19992 0
M  V30 6107 H 594.218 -2.18573 2.04613 0
M  V30 6108 H 591.764 -1.05027 0.985159 0
M  V30 6109 H 593.717 -4.16704 0.627323 0
M  V30 6110 H 592.441 -3.25855 -0.220543 0
M  V30 6111 H 591.1 -3.13028 1.90811 0
M  V30 6112 H 590.748 -5.02051 0.308757 0
M  V30 6113 H 590.448 -5.52892 1.98958 0
M  V30 6114 H 591.972 -5.99096 1.17967 0
M  V30 6115 H 593.386 -4.80977 3.11983 0
M  V30 6116 H 591.783 -4.58044 3.87705 0
M  V30 6117 H 592.853 -3.18412 3.65707 0
M  V30 6118 N 594.196 -1.08629 -1.14182 0
M  V30 6119 C 595.128 -0.676189 -2.18998 0
M  V30 6120 C 596.141 0.277871 -1.60411 0
M  V30 6121 O 597.33 0.0651771 -1.78381 0
M  V30 6122 C 594.43 0.0254916 -3.3889 0
M  V30 6123 C 593.603 -0.948039 -4.27002 0
M  V30 6124 C 592.662 -0.281268 -5.25448 0
M  V30 6125 O 591.688 -0.926378 -5.61611 0
M  V30 6126 N 592.89 0.967923 -5.72374 0
M  V30 6127 H 595.655 -1.57792 -2.54798 0
M  V30 6128 H 593.216 -0.972665 -1.29425 0
M  V30 6129 H 595.208 0.482554 -4.01813 0
M  V30 6130 H 593.778 0.829348 -3.01398 0
M  V30 6131 H 592.998 -1.58388 -3.6098 0
M  V30 6132 H 594.286 -1.60765 -4.82734 0
M  V30 6133 H 593.684 1.51175 -5.45126 0
M  V30 6134 H 592.241 1.36844 -6.37273 0
M  V30 6135 N 595.674 1.31259 -0.872281 0
M  V30 6136 C 596.923 1.95893 -0.480493 0
M  V30 6137 C 597.236 1.697 0.972688 0
M  V30 6138 O 598.442 2.28214 1.47073 0
M  V30 6139 C 596.898 3.50705 -0.808342 0
M  V30 6140 C 596.506 3.85735 -2.27844 0
M  V30 6141 C 598.25 4.21719 -0.485136 0
M  V30 6142 C 596.157 5.33668 -2.54858 0
M  V30 6143 H 595.087 0.733182 -0.175955 0
M  V30 6144 H 597.738 1.49396 -1.0655 0
M  V30 6145 H 596.12 3.95706 -0.152558 0
M  V30 6146 H 597.294 3.51686 -2.97748 0
M  V30 6147 H 595.609 3.27792 -2.56791 0
M  V30 6148 H 598.206 5.30559 -0.664166 0
M  V30 6149 H 598.549 4.12316 0.574592 0
M  V30 6150 H 599.082 3.82359 -1.09756 0
M  V30 6151 H 595.821 5.48109 -3.59523 0
M  V30 6152 H 595.341 5.69061 -1.8955 0
M  V30 6153 H 597.02 6.00958 -2.39706 0
M  V30 6154 N 597.152 0.631951 1.44375 0
M  V30 6155 C 598.399 0.136767 2.02038 0
M  V30 6156 C 598.727 -1.24168 1.49709 0
M  V30 6157 O 597.982 -1.83809 0.671763 0
M  V30 6158 C 598.281 0.0735861 3.57324 0
M  V30 6159 C 597.947 1.39092 4.28911 0
M  V30 6160 C 596.609 1.75171 4.48184 0
M  V30 6161 C 598.961 2.26042 4.69632 0
M  V30 6162 C 596.289 2.97907 5.05439 0
M  V30 6163 C 598.641 3.4805 5.28246 0
M  V30 6164 C 597.305 3.84351 5.45738 0
M  V30 6165 H 596.575 0.0500466 0.739308 0
M  V30 6166 H 599.222 0.818429 1.7313 0
M  V30 6167 H 597.527 -0.691449 3.8565 0
M  V30 6168 H 599.224 -0.326091 3.99672 0
M  V30 6169 H 595.814 1.10015 4.1424 0
M  V30 6170 H 599.998 1.99463 4.54454 0
M  V30 6171 H 595.254 3.26108 5.17169 0
M  V30 6172 H 599.428 4.15658 5.5875 0
M  V30 6173 H 597.055 4.79538 5.8987 0
M  V30 6174 N 598.631 -1.53133 0.372548 0
M  V30 6175 C 599.856 -2.0625 -0.218098 0
M  V30 6176 C 600.281 -1.24375 -1.41111 0
M  V30 6177 O 599.639 -0.264554 -1.79359 0
M  V30 6178 C 599.687 -3.55858 -0.582876 0
M  V30 6179 O 598.791 -3.76667 -1.67917 0
M  V30 6180 H 598.132 -0.663317 -0.030104 0
M  V30 6181 H 600.662 -1.97477 0.535169 0
M  V30 6182 H 600.672 -3.99007 -0.851925 0
M  V30 6183 H 599.347 -4.14892 0.289428 0
M  V30 6184 H 597.924 -3.45413 -1.40513 0
M  V30 6185 N 600.109 -0.101901 -1.5727 0
M  V30 6186 C 601.039 0.851544 -2.17419 0
M  V30 6187 C 602.02 1.28942 -1.10941 0
M  V30 6188 O 603.205 1.35509 -1.39107 0
M  V30 6189 C 600.335 2.10816 -2.75996 0
M  V30 6190 C 599.289 1.80867 -3.87906 0
M  V30 6191 C 598.615 3.13413 -4.33216 0
M  V30 6192 C 599.915 1.0903 -5.10793 0
M  V30 6193 H 601.609 0.350381 -2.97343 0
M  V30 6194 H 599.155 0.16709 -1.43027 0
M  V30 6195 H 601.108 2.77959 -3.16729 0
M  V30 6196 H 599.832 2.63227 -1.93337 0
M  V30 6197 H 598.491 1.16119 -3.47724 0
M  V30 6198 H 598.139 3.63725 -3.47438 0
M  V30 6199 H 597.839 2.94155 -5.08671 0
M  V30 6200 H 599.363 3.81704 -4.76586 0
M  V30 6201 H 600.777 1.66295 -5.48652 0
M  V30 6202 H 599.174 0.99927 -5.91722 0
M  V30 6203 H 600.244 0.0741704 -4.84843 0
M  V30 6204 N 601.587 1.56661 0.17182 0
M  V30 6205 C 602.998 1.71652 0.734329 0
M  V30 6206 C 603.349 0.712335 1.82812 0
M  V30 6207 O 602.474 -0.126401 2.16031 0
M  V30 6208 C 603.069 3.11226 1.3388 0
M  V30 6209 C 601.628 3.27904 1.84813 0
M  V30 6210 C 600.775 2.67603 0.726917 0
M  V30 6211 H 603.726 1.5861 -0.0535665 0
M  V30 6212 H 603.747 3.09849 2.20849 0
M  V30 6213 H 603.259 3.8429 0.54249 0
M  V30 6214 H 601.36 2.59796 2.6709 0
M  V30 6215 H 601.473 4.35637 1.99392 0
M  V30 6216 H 599.837 2.274 1.14723 0
M  V30 6217 H 600.62 3.43252 -0.0575334 0
M  V30 6218 N 603.065 -0.440357 1.51323 0
M  V30 6219 C 604.313 -1.18769 1.63518 0
M  V30 6220 C 604.634 -1.91793 0.352201 0
M  V30 6221 O 603.904 -1.85432 -0.631811 0
M  V30 6222 H 602.484 -0.441408 0.602634 0
M  V30 6223 H 605.146 -0.505162 1.8824 0
M  V30 6224 H 604.242 -1.91892 2.46138 0
M  V30 6225 N 604.543 -1.41418 -0.695603 0
M  V30 6226 C 605.791 -1.40496 -1.45277 0
M  V30 6227 C 606.112 -0.0149538 -1.94994 0
M  V30 6228 O 605.382 0.9432 -1.71699 0
M  V30 6229 H 603.962 -0.517147 -0.539044 0
M  V30 6230 H 606.624 -1.76656 -0.823321 0
M  V30 6231 H 605.72 -2.09214 -2.31595 0
M  V30 6232 N 606.021 0.929856 -1.27246 0
M  V30 6233 C 607.269 1.674 -1.13233 0
M  V30 6234 C 607.59 1.92311 0.322744 0
M  V30 6235 O 606.86 1.52784 1.22612 0
M  V30 6236 H 605.44 0.620411 -0.416052 0
M  V30 6237 H 608.102 1.11663 -1.59741 0
M  V30 6238 H 607.198 2.64308 -1.65975 0
M  V30 6239 N 607.499 1.09233 1.13605 0
M  V30 6240 C 608.724 0.849067 1.89224 0
M  V30 6241 C 609.149 -0.593875 1.78479 0
M  V30 6242 O 608.507 -1.41703 1.13092 0
M  V30 6243 C 608.555 1.28642 3.36873 0
M  V30 6244 O 607.659 0.44363 4.10007 0
M  V30 6245 H 607 0.30767 0.588417 0
M  V30 6246 H 609.53 1.45595 1.43748 0
M  V30 6247 H 609.54 1.27096 3.87699 0
M  V30 6248 H 608.215 2.33729 3.44011 0
M  V30 6249 H 606.792 0.523241 3.69211 0
M  V30 6250 N 608.977 -1.30795 0.87923 0
M  V30 6251 C 609.94 -2.26563 0.346676 0
M  V30 6252 C 610.94 -1.52578 -0.507597 0
M  V30 6253 O 612.13 -1.71318 -0.315575 0
M  V30 6254 C 609.262 -3.37115 -0.506611 0
M  V30 6255 H 610.455 -2.75183 1.19223 0
M  V30 6256 H 608.008 -1.41886 0.655598 0
M  V30 6257 H 608.743 -2.93802 -1.37299 0
M  V30 6258 H 608.528 -3.91959 0.105218 0
M  V30 6259 H 610.018 -4.08412 -0.871192 0
M  V30 6260 N 610.455 -0.639598 -1.44038 0
M  V30 6261 C 611.704 -0.144885 -2.01179 0
M  V30 6262 C 612.017 1.24372 -1.50967 0
M  V30 6263 O 613.223 1.83291 -2.00292 0
M  V30 6264 C 611.679 -0.208244 -3.59297 0
M  V30 6265 C 611.287 -1.59869 -4.18504 0
M  V30 6266 C 613.031 0.229568 -4.23879 0
M  V30 6267 C 610.938 -1.61671 -5.68873 0
M  V30 6268 H 609.868 -0.0504005 -0.752314 0
M  V30 6269 H 612.519 -0.799639 -1.65161 0
M  V30 6270 H 610.901 0.513767 -3.92653 0
M  V30 6271 H 612.075 -2.34496 -3.96671 0
M  V30 6272 H 610.39 -1.98131 -3.66242 0
M  V30 6273 H 612.987 0.235758 -5.3418 0
M  V30 6274 H 613.33 1.25848 -3.96822 0
M  V30 6275 H 613.863 -0.440233 -3.95357 0
M  V30 6276 H 610.602 -2.62427 -6.00677 0
M  V30 6277 H 610.122 -0.913489 -5.92803 0
M  V30 6278 H 611.801 -1.35439 -6.32665 0
M  V30 6279 N 611.933 1.52934 -0.380664 0
M  V30 6280 C 613.181 2.01069 0.203874 0
M  V30 6281 C 613.502 1.26922 1.4804 0
M  V30 6282 O 612.772 0.386787 1.92044 0
M  V30 6283 H 611.352 0.742882 0.0783279 0
M  V30 6284 H 614.014 1.88099 -0.510368 0
M  V30 6285 H 613.11 3.09258 0.42021 0
M  V30 6286 N 613.412 0.11024 1.57214 0
M  V30 6287 C 614.642 -0.557025 1.98949 0
M  V30 6288 C 615.05 -1.61317 0.988606 0
M  V30 6289 O 614.393 -1.83679 -0.0279159 0
M  V30 6290 C 614.455 -1.24956 3.37085 0
M  V30 6291 C 614.119 -0.342398 4.55716 0
M  V30 6292 C 615.116 0.415511 5.18237 0
M  V30 6293 C 612.801 -0.256029 5.01647 0
M  V30 6294 C 614.795 1.24761 6.25071 0
M  V30 6295 C 612.482 0.579713 6.08344 0
M  V30 6296 C 613.48 1.33017 6.69922 0
M  V30 6297 O 613.168 2.15205 7.74559 0
M  V30 6298 H 612.9 -0.152792 0.658506 0
M  V30 6299 H 615.454 0.19076 2.04512 0
M  V30 6300 H 613.684 -2.04424 3.2825 0
M  V30 6301 H 615.373 -1.81286 3.63167 0
M  V30 6302 H 616.139 0.358605 4.83672 0
M  V30 6303 H 612.018 -0.829831 4.5347 0
M  V30 6304 H 615.562 1.83386 6.73064 0
M  V30 6305 H 611.459 0.638044 6.42339 0
M  V30 6306 H 612.227 2.08052 7.91617 0
M  V30 6307 N 614.89 -1.56749 -0.16351 0
M  V30 6308 C 616.139 -1.81626 -0.877211 0
M  V30 6309 C 616.452 -0.688791 -1.83071 0
M  V30 6310 O 617.658 -0.822697 -2.58735 0
M  V30 6311 C 616.114 -3.21858 -1.61045 0
M  V30 6312 C 615.722 -4.42494 -0.700195 0
M  V30 6313 C 617.466 -3.56021 -2.31192 0
M  V30 6314 C 615.373 -5.73748 -1.43412 0
M  V30 6315 H 614.303 -0.67731 -0.331312 0
M  V30 6316 H 616.954 -1.83039 -0.13006 0
M  V30 6317 H 615.336 -3.14784 -2.40264 0
M  V30 6318 H 616.51 -4.60766 0.0555849 0
M  V30 6319 H 614.825 -4.1626 -0.10799 0
M  V30 6320 H 617.422 -4.51333 -2.8671 0
M  V30 6321 H 617.765 -2.81277 -3.06902 0
M  V30 6322 H 618.298 -3.64682 -1.58909 0
M  V30 6323 H 615.037 -6.51543 -0.719186 0
M  V30 6324 H 614.557 -5.5944 -2.16302 0
M  V30 6325 H 616.236 -6.15975 -1.9795 0
M  V30 6326 N 616.368 0.432326 -1.51554 0
M  V30 6327 C 617.278 1.55023 -1.76082 0
M  V30 6328 C 618.294 1.61593 -0.645265 0
M  V30 6329 O 619.47 1.78742 -0.928086 0
M  V30 6330 C 616.535 2.90964 -1.88523 0
M  V30 6331 C 615.596 2.9447 -3.12388 0
M  V30 6332 C 614.829 4.23926 -3.24225 0
M  V30 6333 O 615.052 5.16576 -2.4188 0
M  V30 6334 O 613.986 4.33818 -4.17235 0
M  V30 6335 H 617.812 1.37238 -2.70923 0
M  V30 6336 H 615.397 0.615845 -1.36117 0
M  V30 6337 H 617.279 3.71633 -1.98662 0
M  V30 6338 H 615.954 3.08865 -0.9687 0
M  V30 6339 H 614.861 2.12737 -3.07723 0
M  V30 6340 H 616.194 2.81514 -4.03746 0
M  V30 6341 N 617.846 1.41785 0.688094 0
M  V30 6342 C 618.794 1.44436 1.82321 0
M  V30 6343 C 619.788 0.321544 1.6632 0
M  V30 6344 O 620.994 0.493931 1.73091 0
M  V30 6345 H 617.369 0.452084 0.600936 0
M  V30 6346 H 619.34 2.40087 1.77202 0
M  V30 6347 C 618.089 1.35071 3.20392 0
M  V30 6348 H 617.412 2.2076 3.33324 0
M  V30 6349 H 618.852 1.40988 3.99873 0
M  V30 6350 C 617.311 0.0639127 3.36839 0
M  V30 6351 O 617.841 -0.888495 3.91751 0
M  V30 6352 N 616.047 -0.0146114 2.90596 0
M  V30 6353 H 615.594 0.761191 2.46097 0
M  V30 6354 H 615.552 -0.874988 3.01979 0
M  V30 6355 N 619.324 -0.923095 1.27737 0
M  V30 6356 C 620.572 -1.66797 1.14119 0
M  V30 6357 C 620.893 -1.92479 -0.312541 0
M  V30 6358 O 620.163 -1.53432 -1.218 0
M  V30 6359 H 618.743 -0.618196 0.419336 0
M  V30 6360 H 621.405 -1.10815 1.60331 0
M  V30 6361 H 620.501 -2.63424 1.67374 0
M  V30 6362 N 620.802 -1.09834 -1.13024 0
M  V30 6363 C 622.032 -0.857657 -1.87957 0
M  V30 6364 C 622.44 0.595008 -1.796 0
M  V30 6365 O 621.783 1.42158 -1.16347 0
M  V30 6366 C 621.845 -1.21949 -3.38185 0
M  V30 6367 C 621.509 -2.67791 -3.7032 0
M  V30 6368 C 622.506 -3.66036 -3.69207 0
M  V30 6369 C 620.191 -3.04019 -3.99847 0
M  V30 6370 C 622.185 -4.98533 -3.9717 0
M  V30 6371 C 619.872 -4.36706 -4.27471 0
M  V30 6372 C 620.87 -5.33772 -4.26118 0
M  V30 6373 O 620.558 -6.64072 -4.53061 0
M  V30 6374 H 620.29 -0.308009 -0.601753 0
M  V30 6375 H 622.844 -1.46496 -1.43973 0
M  V30 6376 H 621.074 -0.555249 -3.82693 0
M  V30 6377 H 622.763 -0.957281 -3.9445 0
M  V30 6378 H 623.529 -3.39392 -3.46465 0
M  V30 6379 H 619.408 -2.29096 -4.00045 0
M  V30 6380 H 622.952 -5.74288 -3.96029 0
M  V30 6381 H 618.849 -4.63091 -4.49685 0
M  V30 6382 H 619.617 -6.69608 -4.7071 0
M  V30 6383 N 622.28 1.30327 -0.886154 0
M  V30 6384 C 623.505 2.0079 -0.519425 0
M  V30 6385 C 623.93 1.65979 0.885013 0
M  V30 6386 O 623.288 0.877043 1.58675 0
M  V30 6387 C 623.336 3.53686 -0.702758 0
M  V30 6388 O 622.44 4.11637 0.250828 0
M  V30 6389 H 621.781 0.63171 -0.204544 0
M  V30 6390 H 624.311 1.66145 -1.19402 0
M  V30 6391 H 624.321 4.03531 -0.602207 0
M  V30 6392 H 622.996 3.78361 -1.72673 0
M  V30 6393 H 621.573 3.72755 0.103873 0
M  V30 6394 N 623.758 0.647228 1.43697 0
M  V30 6395 C 624.986 0.16575 2.06235 0
M  V30 6396 C 625.401 -1.1662 1.48476 0
M  V30 6397 O 624.758 -1.7187 0.613762 0
M  V30 6398 C 624.809 0.0621651 3.61447 0
M  V30 6399 O 624.53 1.34146 4.17057 0
M  V30 6400 C 626.031 -0.446102 4.4105 0
M  V30 6401 H 623.251 0.0871158 0.665321 0
M  V30 6402 H 625.795 0.886183 1.84301 0
M  V30 6403 H 623.95 -0.608794 3.82587 0
M  V30 6404 H 624.364 1.19675 5.10664 0
M  V30 6405 H 625.838 -0.46755 5.50016 0
M  V30 6406 H 626.315 -1.47627 4.13646 0
M  V30 6407 H 626.921 0.192159 4.24866 0
M  V30 6408 N 625.236 -1.5273 0.388769 0
M  V30 6409 C 626.464 -2.05992 -0.193677 0
M  V30 6410 C 626.879 -1.26053 -1.40557 0
M  V30 6411 O 626.236 -0.307049 -1.79898 0
M  V30 6412 C 626.287 -3.57068 -0.564321 0
M  V30 6413 O 626.008 -4.3398 0.599422 0
M  V30 6414 C 627.509 -4.26674 -1.20269 0
M  V30 6415 H 624.729 -0.670358 -0.0293445 0
M  V30 6416 H 627.273 -1.96857 0.553844 0
M  V30 6417 H 625.428 -3.66277 -1.26174 0
M  V30 6418 H 625.842 -5.2367 0.294895 0
M  V30 6419 H 627.316 -5.33625 -1.4124 0
M  V30 6420 H 627.793 -3.81854 -2.16989 0
M  V30 6421 H 628.399 -4.2178 -0.546047 0
M  V30 6422 N 626.714 -0.118576 -1.57153 0
M  V30 6423 C 627.944 0.546466 -1.99242 0
M  V30 6424 C 628.352 1.60791 -0.997148 0
M  V30 6425 O 627.695 1.83691 0.0181745 0
M  V30 6426 C 627.757 1.23167 -3.37743 0
M  V30 6427 C 627.421 0.318226 -4.55891 0
M  V30 6428 C 628.418 -0.442988 -5.18009 0
M  V30 6429 C 626.103 0.229421 -5.01776 0
M  V30 6430 C 628.097 -1.28074 -6.244 0
M  V30 6431 C 625.784 -0.611966 -6.08028 0
M  V30 6432 C 626.782 -1.36568 -6.69207 0
M  V30 6433 O 626.47 -2.1931 -7.73407 0
M  V30 6434 H 626.202 0.149297 -0.659307 0
M  V30 6435 H 628.756 -0.201603 -2.04408 0
M  V30 6436 H 626.986 2.0268 -3.29329 0
M  V30 6437 H 628.675 1.79358 -3.64123 0
M  V30 6438 H 629.441 -0.38425 -4.83475 0
M  V30 6439 H 625.32 0.805771 -4.53903 0
M  V30 6440 H 628.864 -1.86952 -6.72082 0
M  V30 6441 H 624.761 -0.6721 -6.41991 0
M  V30 6442 H 625.529 -2.12247 -7.90502 0
M  V30 6443 N 628.193 1.56834 0.155195 0
M  V30 6444 C 629.141 1.98584 1.21107 0
M  V30 6445 C 630.135 0.876987 1.44932 0
M  V30 6446 O 631.341 1.06215 1.45322 0
M  V30 6447 H 627.716 0.632039 0.407469 0
M  V30 6448 H 629.687 2.86561 0.832195 0
M  V30 6449 C 628.436 2.37555 2.53895 0
M  V30 6450 H 627.759 3.22428 2.3639 0
M  V30 6451 H 629.199 2.70598 3.26424 0
M  V30 6452 C 627.658 1.22507 3.13837 0
M  V30 6453 O 628.188 0.521388 3.98302 0
M  V30 6454 N 626.394 0.991444 2.73164 0
M  V30 6455 H 625.941 1.56544 2.04577 0
M  V30 6456 H 625.899 0.223546 3.13604 0
M  V30 6457 N 629.671 -0.424282 1.51781 0
M  V30 6458 C 630.619 -1.53649 1.74628 0
M  V30 6459 C 631.613 -1.57923 0.612922 0
M  V30 6460 O 632.819 -1.61511 0.794618 0
M  V30 6461 H 629.194 -0.510706 0.551981 0
M  V30 6462 H 631.165 -1.31558 2.67834 0
M  V30 6463 C 629.914 -2.91177 1.9003 0
M  V30 6464 H 629.237 -2.88625 2.76651 0
M  V30 6465 H 630.677 -3.6833 2.10021 0
M  V30 6466 C 629.136 -3.30303 0.663435 0
M  V30 6467 O 629.666 -4.01315 -0.175812 0
M  V30 6468 N 627.872 -2.86201 0.503723 0
M  V30 6469 H 627.419 -2.28583 1.18776 0
M  V30 6470 H 627.377 -3.12741 -0.322575 0
M  V30 6471 N 631.149 -1.42148 -0.680565 0
M  V30 6472 C 632.395 -1.42521 -1.44277 0
M  V30 6473 C 632.728 -0.0393718 -1.9416 0
M  V30 6474 O 632.003 0.935425 -1.70529 0
M  V30 6475 C 632.286 -2.44475 -2.64394 0
M  V30 6476 C 632.139 -3.92226 -2.20179 0
M  V30 6477 C 633.458 -2.43491 -3.66606 0
M  V30 6478 H 630.577 -0.518985 -0.523282 0
M  V30 6479 H 633.219 -1.73524 -0.773914 0
M  V30 6480 H 631.369 -2.18168 -3.21458 0
M  V30 6481 H 633.041 -4.29493 -1.68327 0
M  V30 6482 H 631.284 -4.0637 -1.5181 0
M  V30 6483 H 631.955 -4.59133 -3.06433 0
M  V30 6484 H 634.431 -2.66872 -3.19247 0
M  V30 6485 H 633.307 -3.16816 -4.4824 0
M  V30 6486 H 633.568 -1.45881 -4.17338 0
M  V30 6487 N 632.627 0.916307 -1.28225 0
M  V30 6488 C 633.575 2.03977 -1.11786 0
M  V30 6489 C 634.569 1.69358 -0.0378265 0
M  V30 6490 O 635.775 1.78925 -0.196405 0
M  V30 6491 H 632.15 0.66829 -0.344809 0
M  V30 6492 H 634.121 2.14985 -2.06939 0
M  V30 6493 C 632.87 3.38518 -0.7938 0
M  V30 6494 H 632.193 3.65649 -1.61682 0
M  V30 6495 H 633.633 4.17864 -0.718719 0
M  V30 6496 C 632.092 3.33134 0.502353 0
M  V30 6497 O 632.622 3.71281 1.53341 0
M  V30 6498 N 630.828 2.86229 0.502147 0
M  V30 6499 H 630.375 2.55382 -0.337338 0
M  V30 6500 H 630.333 2.83009 1.36942 0
M  V30 6501 N 634.105 1.10431 1.1244 0
M  V30 6502 C 635.352 0.846717 1.83948 0
M  V30 6503 C 635.68 -0.627709 1.84093 0
M  V30 6504 O 634.935 -1.47876 1.28184 0
M  V30 6505 C 635.234 1.34022 3.3132 0
M  V30 6506 C 634.9 2.82606 3.51347 0
M  V30 6507 C 633.562 3.23182 3.56521 0
M  V30 6508 C 635.914 3.78356 3.58464 0
M  V30 6509 C 633.242 4.58258 3.66356 0
M  V30 6510 C 635.594 5.13234 3.69829 0
M  V30 6511 C 634.258 5.53384 3.73259 0
M  V30 6512 H 633.528 0.309836 0.673114 0
M  V30 6513 H 636.175 1.38091 1.32677 0
M  V30 6514 H 634.48 0.726047 3.85014 0
M  V30 6515 H 636.177 1.11739 3.85118 0
M  V30 6516 H 632.767 2.50212 3.47983 0
M  V30 6517 H 636.951 3.48115 3.53737 0
M  V30 6518 H 632.207 4.88787 3.67284 0
M  V30 6519 H 636.381 5.87272 3.74279 0
M  V30 6520 H 634.008 6.58045 3.80633 0
M  V30 6521 N 635.583 -1.29855 0.893053 0
M  V30 6522 C 636.546 -2.26183 0.370687 0
M  V30 6523 C 637.546 -1.53108 -0.491385 0
M  V30 6524 O 638.736 -1.71643 -0.297386 0
M  V30 6525 C 635.868 -3.37633 -0.470827 0
M  V30 6526 H 637.061 -2.73903 1.22135 0
M  V30 6527 H 634.614 -1.41183 0.67061 0
M  V30 6528 H 635.349 -2.95241 -1.34175 0
M  V30 6529 H 635.134 -3.91825 0.146784 0
M  V30 6530 H 636.624 -4.09313 -0.827825 0
M  V30 6531 N 637.061 -0.65484 -1.43351 0
M  V30 6532 C 638.009 0.0476784 -2.32551 0
M  V30 6533 C 639.003 0.811403 -1.48703 0
M  V30 6534 O 640.209 0.721621 -1.64902 0
M  V30 6535 H 636.584 0.0342038 -0.751222 0
M  V30 6536 H 638.555 -0.722342 -2.89525 0
M  V30 6537 C 637.304 0.999251 -3.33032 0
M  V30 6538 H 636.627 0.421005 -3.97577 0
M  V30 6539 H 638.067 1.45986 -3.98076 0
M  V30 6540 C 636.526 2.09606 -2.63756 0
M  V30 6541 O 637.056 3.18004 -2.4543 0
M  V30 6542 N 635.262 1.86207 -2.23103 0
M  V30 6543 H 634.809 0.980555 -2.38208 0
M  V30 6544 H 634.767 2.59787 -1.77081 0
M  V30 6545 N 638.539 1.52521 -0.396863 0
M  V30 6546 C 639.787 2.01274 0.182536 0
M  V30 6547 C 640.108 1.28485 1.46685 0
M  V30 6548 O 639.378 0.407134 1.91623 0
M  V30 6549 H 637.958 0.743671 0.0704442 0
M  V30 6550 H 640.62 1.87547 -0.530289 0
M  V30 6551 H 639.716 3.09687 0.387385 0
M  V30 6552 N 640.017 0.126909 1.57088 0
M  V30 6553 C 640.947 -0.816847 2.18746 0
M  V30 6554 C 641.928 -1.27161 1.12979 0
M  V30 6555 O 643.113 -1.33279 1.41246 0
M  V30 6556 C 640.243 -2.06398 2.79315 0
M  V30 6557 C 639.197 -1.74673 3.90735 0
M  V30 6558 C 638.523 -3.06482 4.38147 0
M  V30 6559 C 639.823 -1.0089 5.12463 0
M  V30 6560 H 641.517 -0.303032 2.97863 0
M  V30 6561 H 639.063 -0.144314 1.43275 0
M  V30 6562 H 641.016 -2.72885 3.2111 0
M  V30 6563 H 639.74 -2.60118 1.975 0
M  V30 6564 H 638.399 -1.10572 3.49527 0
M  V30 6565 H 638.047 -3.58152 3.5318 0
M  V30 6566 H 637.747 -2.86025 5.13287 0
M  V30 6567 H 639.271 -3.74073 4.82599 0
M  V30 6568 H 640.685 -1.57546 5.51228 0
M  V30 6569 H 639.082 -0.905006 5.93237 0
M  V30 6570 H 640.152 0.00297335 4.849 0
M  V30 6571 N 641.495 -1.56914 -0.146875 0
M  V30 6572 C 642.72 -1.87881 -0.878386 0
M  V30 6573 C 643.145 -0.715945 -1.73942 0
M  V30 6574 O 642.503 0.334447 -1.78189 0
M  V30 6575 C 642.551 -3.17431 -1.71084 0
M  V30 6576 O 641.655 -3.01374 -2.81509 0
M  V30 6577 H 640.996 -0.617289 -0.244644 0
M  V30 6578 H 643.526 -2.04136 -0.137654 0
M  V30 6579 H 643.536 -3.49455 -2.10582 0
M  V30 6580 H 642.211 -4.01671 -1.07856 0
M  V30 6581 H 640.788 -2.80758 -2.45416 0
M  V30 6582 N 642.974 0.416227 -1.52004 0
M  V30 6583 C 644.199 1.19029 -1.69843 0
M  V30 6584 C 644.624 1.83708 -0.404103 0
M  V30 6585 O 643.982 1.69711 0.637787 0
M  V30 6586 C 644.03 2.23439 -2.83032 0
M  V30 6587 O 643.134 3.29419 -2.48106 0
M  V30 6588 H 642.475 0.347785 -0.565634 0
M  V30 6589 H 645.005 0.488871 -1.98674 0
M  V30 6590 H 645.015 2.67884 -3.07737 0
M  V30 6591 H 643.69 1.75745 -3.76944 0
M  V30 6592 H 642.267 2.90303 -2.34048 0
M  V30 6593 N 644.452 1.42507 0.673017 0
M  V30 6594 C 645.701 1.42364 1.42883 0
M  V30 6595 C 646.014 0.0441598 1.9555 0
M  V30 6596 O 647.22 -0.0798679 2.71382 0
M  V30 6597 C 645.676 2.5043 2.58482 0
M  V30 6598 C 645.284 3.94392 2.12506 0
M  V30 6599 C 647.028 2.59455 3.35981 0
M  V30 6600 C 644.935 4.93964 3.25198 0
M  V30 6601 H 643.865 0.52951 0.536782 0
M  V30 6602 H 646.516 1.68422 0.728448 0
M  V30 6603 H 644.898 2.1754 3.30896 0
M  V30 6604 H 646.072 4.36645 1.47233 0
M  V30 6605 H 644.387 3.89233 1.4794 0
M  V30 6606 H 646.984 3.31025 4.19912 0
M  V30 6607 H 647.327 1.63869 3.82691 0
M  V30 6608 H 647.86 2.91549 2.70637 0
M  V30 6609 H 644.599 5.91034 2.83477 0
M  V30 6610 H 644.119 4.56341 3.89247 0
M  V30 6611 H 645.798 5.15763 3.90637 0
M  V30 6612 N 645.93 -0.909495 1.28709 0
M  V30 6613 C 647.158 -1.69272 1.18973 0
M  V30 6614 C 647.573 -1.87123 -0.251048 0
M  V30 6615 O 646.93 -1.40127 -1.16922 0
M  V30 6616 C 646.981 -3.08257 1.88839 0
M  V30 6617 O 646.702 -2.91228 3.27289 0
M  V30 6618 C 648.203 -4.02642 1.85457 0
M  V30 6619 H 645.423 -0.528999 0.412797 0
M  V30 6620 H 647.967 -1.13803 1.69909 0
M  V30 6621 H 646.122 -3.6053 1.41762 0
M  V30 6622 H 646.536 -3.79223 3.6234 0
M  V30 6623 H 648.01 -4.97613 2.38925 0
M  V30 6624 H 648.487 -4.31327 0.827893 0
M  V30 6625 H 649.093 -3.56298 2.32233 0
M  V30 6626 N 647.408 -1.11026 -1.11852 0
M  V30 6627 C 648.371 -0.768006 -2.1595 0
M  V30 6628 C 649.371 0.210538 -1.59416 0
M  V30 6629 O 650.561 -0.0133978 -1.74195 0
M  V30 6630 C 647.693 -0.138678 -3.40618 0
M  V30 6631 H 648.886 -1.69012 -2.4774 0
M  V30 6632 H 646.439 -0.911578 -1.26964 0
M  V30 6633 H 647.174 0.793872 -3.14433 0
M  V30 6634 H 646.959 -0.843012 -3.8293 0
M  V30 6635 H 648.449 0.0848039 -4.17514 0
M  V30 6636 N 648.886 1.2938 -0.899927 0
M  V30 6637 C 650.302 1.48052 -0.596059 0
M  V30 6638 C 650.502 1.82114 0.862372 0
M  V30 6639 O 649.558 1.91774 1.64253 0
M  V30 6640 C 650.871 2.59332 -1.52208 0
M  V30 6641 C 652.419 2.73208 -1.5273 0
M  V30 6642 C 652.894 3.87617 -2.43961 0
M  V30 6643 N 654.385 3.9495 -2.42009 0
M  V30 6644 C 655.12 4.82824 -3.09303 0
M  V30 6645 N 654.616 5.75387 -3.85877 0
M  V30 6646 N 656.409 4.76317 -2.98459 0
M  V30 6647 H 648.56 1.05546 -1.8432 0
M  V30 6648 H 650.823 0.524314 -0.78981 0
M  V30 6649 H 650.529 2.41029 -2.56121 0
M  V30 6650 H 650.403 3.56139 -1.24278 0
M  V30 6651 H 652.79 2.90908 -0.495614 0
M  V30 6652 H 652.871 1.76975 -1.84698 0
M  V30 6653 H 652.515 3.70672 -3.47224 0
M  V30 6654 H 652.445 4.83218 -2.09303 0
M  V30 6655 H 654.936 3.28744 -1.86375 0
M  V30 6656 H 655.249 6.39235 -4.34279 0
M  V30 6657 H 653.594 5.75272 -3.89984 0
M  V30 6658 H 656.785 4.0299 -2.38152 0
M  V30 6659 H 656.958 5.44589 -3.51179 0
M  V30 6660 N 650.364 0.662433 1.43002 0
M  V30 6661 C 651.61 0.179857 2.02001 0
M  V30 6662 C 651.943 -1.20625 1.52195 0
M  V30 6663 O 651.218 -1.80726 0.718911 0
M  V30 6664 C 651.501 0.200845 3.59539 0
M  V30 6665 C 651.354 1.62153 4.19555 0
M  V30 6666 C 652.673 -0.457738 4.37713 0
M  V30 6667 H 649.792 0.0668305 0.733964 0
M  V30 6668 H 652.434 0.84487 1.70182 0
M  V30 6669 H 650.584 -0.365411 3.86778 0
M  V30 6670 H 652.256 2.23908 4.03315 0
M  V30 6671 H 650.499 2.16601 3.75854 0
M  V30 6672 H 651.17 1.58799 5.28665 0
M  V30 6673 H 653.646 0.0241495 4.16093 0
M  V30 6674 H 652.522 -0.412363 5.47349 0
M  V30 6675 H 652.783 -1.53336 4.14657 0
M  V30 6676 N 651.842 -1.52309 0.404946 0
M  V30 6677 C 652.805 -2.25491 -0.410651 0
M  V30 6678 C 653.805 -1.27704 -0.977154 0
M  V30 6679 O 654.995 -1.51679 -0.856691 0
M  V30 6680 C 652.127 -3.02197 -1.57765 0
M  V30 6681 H 653.32 -2.99015 0.230277 0
M  V30 6682 H 650.873 -1.55506 0.157377 0
M  V30 6683 H 651.608 -2.33013 -2.25556 0
M  V30 6684 H 651.393 -3.73987 -1.17797 0
M  V30 6685 H 652.883 -3.57719 -2.15469 0
M  V30 6686 N 653.32 -0.135238 -1.57019 0
M  V30 6687 C 654.548 0.526066 -2.001 0
M  V30 6688 C 654.963 1.59184 -1.01519 0
M  V30 6689 O 654.32 1.82497 -0.0104258 0
M  V30 6690 C 654.371 1.13744 -3.43139 0
M  V30 6691 O 654.092 0.114259 -4.37951 0
M  V30 6692 C 655.593 1.8805 -4.01438 0
M  V30 6693 H 652.813 0.137962 -0.656664 0
M  V30 6694 H 655.357 -0.226359 -2.03243 0
M  V30 6695 H 653.512 1.84056 -3.40885 0
M  V30 6696 H 653.926 0.56058 -5.21496 0
M  V30 6697 H 655.4 2.26133 -5.03555 0
M  V30 6698 H 655.877 2.76194 -3.41487 0
M  V30 6699 H 656.483 1.22464 -4.07287 0
M  V30 6700 N 654.798 1.5699 0.138552 0
M  V30 6701 C 655.73 1.95515 1.1961 0
M  V30 6702 C 656.743 0.852002 1.38726 0
M  V30 6703 O 657.932 1.13038 1.38147 0
M  V30 6704 C 655.032 2.2213 2.55952 0
M  V30 6705 C 654.205 3.53424 2.57702 0
M  V30 6706 C 653.264 3.6848 3.75645 0
M  V30 6707 O 652.29 4.4079 3.60129 0
M  V30 6708 N 653.492 3.05777 4.93438 0
M  V30 6709 H 656.257 2.86838 0.868557 0
M  V30 6710 H 653.818 1.58542 0.328033 0
M  V30 6711 H 655.81 2.29435 3.33379 0
M  V30 6712 H 654.38 1.3703 2.80965 0
M  V30 6713 H 653.6 3.57484 1.6613 0
M  V30 6714 H 654.888 4.39759 2.55909 0
M  V30 6715 H 654.286 2.46961 5.08947 0
M  V30 6716 H 652.843 3.18631 5.6861 0
M  V30 6717 N 656.276 -0.40816 1.52223 0
M  V30 6718 C 657.525 -1.15212 1.65557 0
M  V30 6719 C 657.838 -1.9163 0.392096 0
M  V30 6720 O 659.044 -2.68458 0.405256 0
M  V30 6721 C 657.5 -2.09691 2.92502 0
M  V30 6722 C 657.108 -1.38785 4.25961 0
M  V30 6723 C 658.852 -2.8434 3.152 0
M  V30 6724 C 656.759 -2.31919 5.44029 0
M  V30 6725 H 655.689 -0.433776 0.616729 0
M  V30 6726 H 658.34 -0.4165 1.78711 0
M  V30 6727 H 656.722 -2.8681 2.7305 0
M  V30 6728 H 657.896 -0.670248 4.55899 0
M  V30 6729 H 656.211 -0.761741 4.09373 0
M  V30 6730 H 658.808 -3.54166 4.00587 0
M  V30 6731 H 659.151 -3.47344 2.29473 0
M  V30 6732 H 659.684 -2.14321 3.35129 0
M  V30 6733 H 656.423 -1.7356 6.32105 0
M  V30 6734 H 655.943 -3.0165 5.18428 0
M  V30 6735 H 657.622 -2.92424 5.77146 0
M  V30 6736 N 657.755 -1.42862 -0.66545 0
M  V30 6737 C 658.98 -1.47456 -1.45848 0
M  V30 6738 C 659.405 -0.0900312 -1.87884 0
M  V30 6739 O 658.763 0.913587 -1.56599 0
M  V30 6740 C 658.811 -2.41514 -2.67774 0
M  V30 6741 O 657.915 -1.89296 -3.66389 0
M  V30 6742 H 657.256 -0.499236 -0.437789 0
M  V30 6743 H 659.786 -1.8765 -0.815394 0
M  V30 6744 H 659.796 -2.58409 -3.15735 0
M  V30 6745 H 658.471 -3.42099 -2.36519 0
M  V30 6746 H 657.048 -1.82003 -3.25468 0
M  V30 6747 N 659.233 0.902656 -1.29189 0
M  V30 6748 C 660.461 1.68639 -1.19869 0
M  V30 6749 C 660.876 1.87254 0.241121 0
M  V30 6750 O 660.233 1.40745 1.16177 0
M  V30 6751 C 660.284 3.07251 -1.90471 0
M  V30 6752 O 660.005 2.89488 -3.28829 0
M  V30 6753 C 661.506 4.01653 -1.8759 0
M  V30 6754 H 658.726 0.526802 -0.415596 0
M  V30 6755 H 661.27 1.12901 -1.7051 0
M  V30 6756 H 659.425 3.59774 -1.43672 0
M  V30 6757 H 659.839 3.77296 -3.64346 0
M  V30 6758 H 661.313 4.96339 -2.4156 0
M  V30 6759 H 661.79 4.30881 -0.850756 0
M  V30 6760 H 662.396 3.55061 -2.34119 0
M  V30 6761 N 660.711 1.11618 1.11262 0
M  V30 6762 C 661.936 0.889013 1.8738 0
M  V30 6763 C 662.361 -0.555884 1.79698 0
M  V30 6764 O 661.719 -1.39272 1.16073 0
M  V30 6765 C 661.767 1.35759 3.34069 0
M  V30 6766 O 660.871 0.530499 4.08974 0
M  V30 6767 H 660.212 0.320082 0.581759 0
M  V30 6768 H 662.742 1.48611 1.40627 0
M  V30 6769 H 662.752 1.35291 3.84916 0
M  V30 6770 H 661.427 2.40973 3.38976 0
M  V30 6771 H 660.004 0.601439 3.68018 0
M  V30 6772 N 662.189 -1.289 0.906776 0
M  V30 6773 C 663.438 -1.9455 0.532262 0
M  V30 6774 C 663.751 -1.72219 -0.927353 0
M  V30 6775 O 664.957 -2.32033 -1.40971 0
M  V30 6776 C 663.413 -3.48438 0.901041 0
M  V30 6777 C 663.021 -3.79558 2.37991 0
M  V30 6778 C 664.765 -4.20284 0.596777 0
M  V30 6779 C 662.672 -5.26723 2.68918 0
M  V30 6780 H 661.602 -0.728259 0.195333 0
M  V30 6781 H 664.253 -1.46519 1.10474 0
M  V30 6782 H 662.635 -3.95162 0.257419 0
M  V30 6783 H 663.809 -3.43668 3.06967 0
M  V30 6784 H 662.124 -3.20868 2.65391 0
M  V30 6785 H 664.721 -5.28612 0.8046 0
M  V30 6786 H 665.064 -4.13694 -0.465072 0
M  V30 6787 H 665.597 -3.79315 1.19855 0
M  V30 6788 H 662.336 -5.38384 3.73928 0
M  V30 6789 H 661.856 -5.63836 2.04571 0
M  V30 6790 H 663.535 -5.94391 2.55555 0
M  V30 6791 N 663.667 -0.670007 -1.42649 0
M  V30 6792 C 664.599 0.0501746 -2.29145 0
M  V30 6793 C 665.612 0.770331 -1.43422 0
M  V30 6794 O 666.801 0.625288 -1.6719 0
M  V30 6795 C 663.901 1.09463 -3.20735 0
M  V30 6796 C 663.074 0.44926 -4.35087 0
M  V30 6797 C 662.133 1.39285 -5.07431 0
M  V30 6798 O 661.159 0.894997 -5.6212 0
M  V30 6799 N 662.361 2.72631 -5.12496 0
M  V30 6800 H 665.126 -0.692312 -2.91594 0
M  V30 6801 H 662.687 -0.514056 -1.53522 0
M  V30 6802 H 664.679 1.72705 -3.65999 0
M  V30 6803 H 663.249 1.73891 -2.59771 0
M  V30 6804 H 662.469 -0.362573 -3.92529 0
M  V30 6805 H 663.757 -0.000544776 -5.088 0
M  V30 6806 H 663.155 3.15623 -4.69467 0
M  V30 6807 H 661.712 3.31132 -5.61422 0
M  V30 6808 N 665.145 1.52092 -0.413018 0
M  V30 6809 C 666.391 2.02154 0.161737 0
M  V30 6810 C 666.724 1.29789 1.44459 0
M  V30 6811 O 665.999 0.405378 1.90229 0
M  V30 6812 C 666.282 3.5781 0.405463 0
M  V30 6813 C 666.135 4.40819 -0.894335 0
M  V30 6814 C 667.454 4.23821 1.18591 0
M  V30 6815 H 664.573 0.734769 0.0573077 0
M  V30 6816 H 667.215 1.81948 -0.547247 0
M  V30 6817 H 665.365 3.75158 1.0094 0
M  V30 6818 H 667.037 4.35175 -1.53039 0
M  V30 6819 H 665.28 4.06877 -1.50444 0
M  V30 6820 H 665.951 5.47819 -0.678144 0
M  V30 6821 H 668.427 4.10596 0.674573 0
M  V30 6822 H 667.303 5.32663 1.3252 0
M  V30 6823 H 667.564 3.83038 2.20758 0
M  V30 6824 N 666.623 0.143563 1.56945 0
M  V30 6825 C 668.039 -0.212877 1.58174 0
M  V30 6826 C 668.239 -1.64926 1.15766 0
M  V30 6827 O 667.295 -2.37535 0.856361 0
M  V30 6828 C 668.608 0.0427573 3.0067 0
M  V30 6829 C 670.156 -0.0212221 3.12993 0
M  V30 6830 C 670.631 0.207036 4.57532 0
M  V30 6831 N 672.122 0.153845 4.62944 0
M  V30 6832 C 672.857 0.305018 5.72588 0
M  V30 6833 N 672.353 0.513722 6.90893 0
M  V30 6834 N 674.146 0.242862 5.61575 0
M  V30 6835 H 666.297 1.08148 1.82805 0
M  V30 6836 H 668.56 0.427831 0.84597 0
M  V30 6837 H 668.266 1.03672 3.36073 0
M  V30 6838 H 668.14 -0.678195 3.71053 0
M  V30 6839 H 670.527 -1.00574 2.77433 0
M  V30 6840 H 670.608 0.732004 2.45103 0
M  V30 6841 H 670.252 1.18863 4.93795 0
M  V30 6842 H 670.182 -0.566473 5.23544 0
M  V30 6843 H 672.673 -0.00294866 3.779 0
M  V30 6844 H 672.986 0.619273 7.70315 0
M  V30 6845 H 671.331 0.550001 6.9282 0
M  V30 6846 H 674.522 0.0806015 4.68031 0
M  V30 6847 H 674.695 0.364112 6.46976 0
M  V30 6848 N 668.101 -1.57061 -0.130224 0
M  V30 6849 C 669.064 -1.98593 -1.14426 0
M  V30 6850 C 670.064 -0.874584 -1.34936 0
M  V30 6851 O 671.254 -1.14086 -1.31643 0
M  V30 6852 C 668.386 -2.31639 -2.50112 0
M  V30 6853 H 669.579 -2.89374 -0.787561 0
M  V30 6854 H 667.132 -1.51756 -0.374146 0
M  V30 6855 H 667.867 -1.43703 -2.90723 0
M  V30 6856 H 667.652 -3.12684 -2.36583 0
M  V30 6857 H 669.142 -2.64551 -3.23114 0
M  V30 6858 N 669.579 0.400081 -1.52437 0
M  V30 6859 C 670.827 1.14392 -1.6661 0
M  V30 6860 C 671.148 1.90792 -0.402927 0
M  V30 6861 O 670.418 1.87042 0.582425 0
M  V30 6862 H 668.998 0.425275 -0.614125 0
M  V30 6863 H 671.66 0.455076 -1.89513 0
M  V30 6864 H 670.756 1.85298 -2.51139 0
M  V30 6865 N 671.057 1.43213 0.657864 0
M  V30 6866 C 672.305 1.44298 1.41501 0
M  V30 6867 C 672.626 0.0666478 1.94886 0
M  V30 6868 O 671.896 -0.897345 1.74139 0
M  V30 6869 H 670.476 0.531257 0.525143 0
M  V30 6870 H 673.138 1.78777 0.776195 0
M  V30 6871 H 672.234 2.1528 2.25966 0
M  V30 6872 N 672.536 -0.895792 1.29666 0
M  V30 6873 C 673.499 -1.98189 1.15124 0
M  V30 6874 C 674.499 -1.60572 0.0855717 0
M  V30 6875 O 675.689 -1.70991 0.332826 0
M  V30 6876 C 672.821 -3.32289 0.761372 0
M  V30 6877 H 674.014 -2.12518 2.11603 0
M  V30 6878 H 671.567 -1.0808 1.12908 0
M  V30 6879 H 672.302 -3.23662 -0.203393 0
M  V30 6880 H 672.087 -3.60958 1.53139 0
M  V30 6881 H 673.577 -4.1198 0.682792 0
M  V30 6882 N 674.014 -1.12206 -1.10668 0
M  V30 6883 C 675.242 -0.898635 -1.86366 0
M  V30 6884 C 675.657 0.551991 -1.80551 0
M  V30 6885 O 675.014 1.38152 -1.19249 0
M  V30 6886 C 675.065 -1.36199 -3.34861 0
M  V30 6887 O 674.786 -2.75576 -3.40573 0
M  V30 6888 C 676.287 -1.17515 -4.2744 0
M  V30 6889 H 673.507 -0.321281 -0.589084 0
M  V30 6890 H 676.051 -1.49142 -1.39918 0
M  V30 6891 H 674.206 -0.81249 -3.78784 0
M  V30 6892 H 674.62 -2.95851 -4.33096 0
M  V30 6893 H 676.094 -1.54827 -5.29842 0
M  V30 6894 H 676.571 -0.115486 -4.39048 0
M  V30 6895 H 677.177 -1.71203 -3.89319 0
M  V30 6896 N 675.492 1.28418 -0.913599 0
M  V30 6897 C 676.74 1.94596 -0.545594 0
M  V30 6898 C 677.061 1.7227 0.913668 0
M  V30 6899 O 676.331 1.06233 1.64595 0
M  V30 6900 H 674.911 0.720065 -0.198783 0
M  V30 6901 H 677.573 1.56404 -1.16292 0
M  V30 6902 H 676.669 3.03202 -0.739911 0
M  V30 6903 N 676.97 0.677563 1.42291 0
M  V30 6904 C 678.198 0.209459 2.05837 0
M  V30 6905 C 678.613 -1.13444 1.50917 0
M  V30 6906 O 677.97 -1.70529 0.65008 0
M  V30 6907 C 678.021 0.138819 3.61233 0
M  V30 6908 O 677.742 1.42962 4.14118 0
M  V30 6909 C 679.243 -0.352449 4.41897 0
M  V30 6910 H 676.463 0.101209 0.663323 0
M  V30 6911 H 679.007 0.925077 1.8238 0
M  V30 6912 H 677.162 -0.527505 3.83792 0
M  V30 6913 H 677.576 1.3048 5.08011 0
M  V30 6914 H 679.05 -0.350778 5.50884 0
M  V30 6915 H 679.527 -1.3882 4.16684 0
M  V30 6916 H 680.133 0.282236 4.24362 0
M  V30 6917 N 678.448 -1.51871 0.421078 0
M  V30 6918 C 679.378 -2.30231 -0.389363 0
M  V30 6919 C 680.359 -1.34946 -1.03555 0
M  V30 6920 O 681.544 -1.63859 -1.04229 0
M  V30 6921 C 678.674 -3.13247 -1.49979 0
M  V30 6922 C 677.628 -4.16677 -0.977966 0
M  V30 6923 C 676.954 -4.88112 -2.1829 0
M  V30 6924 C 678.254 -5.22295 -0.0236775 0
M  V30 6925 H 679.948 -2.98229 0.264524 0
M  V30 6926 H 677.494 -1.43424 0.12866 0
M  V30 6927 H 679.447 -3.66838 -2.07383 0
M  V30 6928 H 678.171 -2.4304 -2.18173 0
M  V30 6929 H 676.83 -3.64114 -0.426245 0
M  V30 6930 H 676.478 -4.14423 -2.85066 0
M  V30 6931 H 676.178 -5.58041 -1.84021 0
M  V30 6932 H 677.702 -5.44521 -2.76278 0
M  V30 6933 H 679.116 -5.71055 -0.506899 0
M  V30 6934 H 677.513 -5.99656 0.230782 0
M  V30 6935 H 678.583 -4.76131 0.917999 0
M  V30 6936 N 679.926 -0.151884 -1.56866 0
M  V30 6937 C 680.856 0.781943 -2.20018 0
M  V30 6938 C 681.837 1.25347 -1.14987 0
M  V30 6939 O 683.022 1.31015 -1.43348 0
M  V30 6940 C 680.152 2.01928 -2.82564 0
M  V30 6941 C 679.106 1.68434 -3.93464 0
M  V30 6942 C 678.432 2.99472 -4.42968 0
M  V30 6943 C 679.732 0.927244 -5.14003 0
M  V30 6944 H 681.426 0.255607 -2.98307 0
M  V30 6945 H 678.972 0.121502 -1.43486 0
M  V30 6946 H 680.925 2.67741 -3.25411 0
M  V30 6947 H 679.649 2.56943 -2.01614 0
M  V30 6948 H 678.308 1.04998 -3.51242 0
M  V30 6949 H 677.956 3.52488 -3.58834 0
M  V30 6950 H 677.656 2.77823 -5.17772 0
M  V30 6951 H 679.18 3.66348 -4.88489 0
M  V30 6952 H 680.594 1.48756 -5.53665 0
M  V30 6953 H 678.991 0.810513 -5.94601 0
M  V30 6954 H 680.061 -0.0801163 -4.84834 0
M  V30 6955 N 681.404 1.57128 0.121893 0
M  V30 6956 C 682.652 1.84335 0.828548 0
M  V30 6957 C 682.973 0.736632 1.80551 0
M  V30 6958 O 682.243 -0.23962 1.94429 0
M  V30 6959 H 680.823 0.680108 0.30897 0
M  V30 6960 H 683.485 1.9459 0.109906 0
M  V30 6961 H 682.581 2.80152 1.37554 0
M  V30 6962 N 682.882 -0.391992 1.52647 0
M  V30 6963 C 684.11 -1.1586 1.71418 0
M  V30 6964 C 684.525 -1.8381 0.431216 0
M  V30 6965 O 683.882 -1.7256 -0.594085 0
M  V30 6966 C 683.933 -2.20888 2.86165 0
M  V30 6967 O 683.654 -1.5571 4.09495 0
M  V30 6968 C 685.155 -3.103 3.1659 0
M  V30 6969 H 682.375 -0.347494 0.574011 0
M  V30 6970 H 684.919 -0.458972 1.99283 0
M  V30 6971 H 683.074 -2.86492 2.6077 0
M  V30 6972 H 683.488 -2.25474 4.73563 0
M  V30 6973 H 684.962 -3.8003 4.00351 0
M  V30 6974 H 685.439 -3.73639 2.30848 0
M  V30 6975 H 686.045 -2.50345 3.43813 0
M  V30 6976 N 684.36 -1.4356 -0.65026 0
M  V30 6977 C 685.609 -1.44619 -1.406 0
M  V30 6978 C 685.922 -0.0752645 -1.95455 0
M  V30 6979 O 687.128 0.0366832 -2.71475 0
M  V30 6980 C 685.584 -2.54511 -2.54465 0
M  V30 6981 C 685.192 -3.97723 -2.06204 0
M  V30 6982 C 686.936 -2.64768 -3.31811 0
M  V30 6983 C 684.843 -4.99075 -3.17298 0
M  V30 6984 H 683.773 -0.537983 -0.52829 0
M  V30 6985 H 686.424 -1.69559 -0.701561 0
M  V30 6986 H 684.806 -2.22777 -3.27393 0
M  V30 6987 H 685.98 -4.38932 -1.40267 0
M  V30 6988 H 684.295 -3.91538 -1.41729 0
M  V30 6989 H 686.892 -3.37664 -4.14593 0
M  V30 6990 H 687.235 -1.69936 -3.80036 0
M  V30 6991 H 687.768 -2.95817 -2.65964 0
M  V30 6992 H 684.507 -5.95469 -2.74038 0
M  V30 6993 H 684.027 -4.62476 -3.81937 0
M  V30 6994 H 685.706 -5.21913 -3.82382 0
M  V30 6995 N 685.838 0.888903 -1.30139 0
M  V30 6996 C 687.068 1.67115 -1.21474 0
M  V30 6997 C 687.476 1.87852 0.225472 0
M  V30 6998 O 686.819 1.42324 1.16145 0
M  V30 6999 C 686.881 3.0713 -1.86846 0
M  V30 7000 C 686.545 3.09582 -3.36167 0
M  V30 7001 C 687.542 2.88929 -4.32222 0
M  V30 7002 C 685.227 3.31304 -3.77549 0
M  V30 7003 C 687.221 2.89949 -5.67634 0
M  V30 7004 C 684.908 3.31954 -5.13079 0
M  V30 7005 C 685.906 3.113 -6.07932 0
M  V30 7006 O 685.594 3.11758 -7.40987 0
M  V30 7007 H 685.326 0.528372 -0.421662 0
M  V30 7008 H 687.88 1.11919 -1.7223 0
M  V30 7009 H 686.11 3.63973 -1.30615 0
M  V30 7010 H 687.799 3.6749 -1.72354 0
M  V30 7011 H 688.565 2.71948 -4.01584 0
M  V30 7012 H 684.444 3.46417 -3.04165 0
M  V30 7013 H 687.988 2.73746 -6.41645 0
M  V30 7014 H 683.885 3.48469 -5.43359 0
M  V30 7015 H 684.653 3.27951 -7.49927 0
M  V30 7016 N 687.317 1.12792 1.10072 0
M  V30 7017 C 688.563 0.886857 1.82381 0
M  V30 7018 C 688.896 -0.58576 1.85155 0
M  V30 7019 O 688.171 -1.43317 1.31493 0
M  V30 7020 C 688.454 1.46703 3.28862 0
M  V30 7021 C 688.307 3.00829 3.34398 0
M  V30 7022 C 689.626 1.12971 4.25353 0
M  V30 7023 H 686.745 0.32362 0.662148 0
M  V30 7024 H 689.387 1.39513 1.28982 0
M  V30 7025 H 687.537 1.03476 3.74466 0
M  V30 7026 H 689.209 3.52764 2.97247 0
M  V30 7027 H 687.452 3.36164 2.74183 0
M  V30 7028 H 688.123 3.36519 4.3756 0
M  V30 7029 H 690.599 1.50313 3.88001 0
M  V30 7030 H 689.475 1.56223 5.26199 0
M  V30 7031 H 689.736 0.0424452 4.4208 0
M  V30 7032 N 688.795 -1.27931 0.920396 0
M  V30 7033 C 690.206 -1.76707 0.602616 0
M  V30 7034 C 690.557 -1.75249 -0.882159 0
M  V30 7035 O 689.682 -1.35135 -1.69019 0
M  V30 7036 C 690.277 -3.20884 1.08714 0
M  V30 7037 C 688.836 -3.67356 0.820157 0
M  V30 7038 C 687.983 -2.47525 1.25006 0
M  V30 7039 H 690.934 -1.14301 1.10095 0
M  V30 7040 H 690.955 -3.78045 0.431535 0
M  V30 7041 H 690.467 -3.21913 2.1678 0
M  V30 7042 H 688.568 -3.7178 -0.247012 0
M  V30 7043 H 688.681 -4.57181 1.43257 0
M  V30 7044 H 687.045 -2.45765 0.668698 0
M  V30 7045 H 687.828 -2.51269 2.3392 0
M  V30 7046 N 690.273 -0.685099 -1.4193 0
M  V30 7047 C 691.498 -0.218842 -2.06242 0
M  V30 7048 C 691.923 1.11923 -1.51178 0
M  V30 7049 O 691.281 1.69837 -0.634446 0
M  V30 7050 C 691.329 -0.175592 -3.60172 0
M  V30 7051 O 690.433 0.852776 -4.03487 0
M  V30 7052 H 689.774 -0.109531 -0.654904 0
M  V30 7053 H 692.304 -0.937013 -1.81882 0
M  V30 7054 H 692.314 -0.00291151 -4.08 0
M  V30 7055 H 690.989 -1.15222 -3.99621 0
M  V30 7056 H 689.566 0.650301 -3.67186 0
M  V30 7057 N 691.751 1.51645 -0.429126 0
M  V30 7058 C 692.979 2.06433 0.138994 0
M  V30 7059 C 693.394 1.29735 1.37165 0
M  V30 7060 O 692.751 0.354638 1.79021 0
M  V30 7061 C 692.802 3.58439 0.469452 0
M  V30 7062 O 692.523 4.32238 -0.714273 0
M  V30 7063 C 694.024 4.29712 1.08914 0
M  V30 7064 H 691.244 0.6709 0.0115608 0
M  V30 7065 H 693.788 1.9532 -0.605843 0
M  V30 7066 H 691.943 3.69494 1.16419 0
M  V30 7067 H 692.357 5.22704 -0.433633 0
M  V30 7068 H 693.831 5.37182 1.27042 0
M  V30 7069 H 694.308 3.87473 2.06788 0
M  V30 7070 H 694.914 4.2308 0.434028 0
M  V30 7071 N 693.229 0.160201 1.56784 0
M  V30 7072 C 694.177 -0.791402 2.18723 0
M  V30 7073 C 695.171 -1.24567 1.14801 0
M  V30 7074 O 696.377 -1.21262 1.33025 0
M  V30 7075 H 692.752 -0.273458 0.700517 0
M  V30 7076 H 694.723 -0.244931 2.97393 0
M  V30 7077 C 693.472 -2.01509 2.83354 0
M  V30 7078 H 692.795 -1.67454 3.63041 0
M  V30 7079 H 694.235 -2.66006 3.30177 0
M  V30 7080 C 692.694 -2.83159 1.82545 0
M  V30 7081 O 693.224 -3.79944 1.30405 0
M  V30 7082 N 691.43 -2.47953 1.51552 0
M  V30 7083 H 690.977 -1.69309 1.94144 0
M  V30 7084 H 690.935 -3.02873 0.843519 0
M  V30 7085 N 694.707 -1.5719 -0.113559 0
M  V30 7086 C 695.932 -1.89702 -0.838336 0
M  V30 7087 C 696.357 -0.752679 -1.72384 0
M  V30 7088 O 695.715 0.296575 -1.78858 0
M  V30 7089 C 695.763 -3.20989 -1.64312 0
M  V30 7090 O 694.867 -3.07278 -2.75053 0
M  V30 7091 H 694.208 -0.622339 -0.231496 0
M  V30 7092 H 696.738 -2.04382 -0.0943228 0
M  V30 7093 H 696.748 -3.53843 -2.03123 0
M  V30 7094 H 695.423 -4.03869 -0.993119 0
M  V30 7095 H 694 -2.85901 -2.39406 0
M  V30 7096 N 696.185 0.383891 -1.52853 0
M  V30 7097 C 697.431 1.12667 -1.69345 0
M  V30 7098 C 697.786 1.87519 -0.430635 0
M  V30 7099 O 697.079 1.82742 0.575846 0
M  V30 7100 C 697.273 2.12881 -2.87082 0
M  V30 7101 C 697.102 1.47873 -4.24692 0
M  V30 7102 C 695.872 1.24064 -4.89833 0
M  V30 7103 C 698.07 0.926118 -5.05893 0
M  V30 7104 N 696.052 0.552138 -6.11412 0
M  V30 7105 C 697.423 0.365966 -6.18919 0
M  V30 7106 C 699.478 0.823023 -4.91051 0
M  V30 7107 C 698.181 -0.287204 -7.18726 0
M  V30 7108 C 700.207 0.183666 -5.91115 0
M  V30 7109 C 699.569 -0.365693 -7.0345 0
M  V30 7110 H 695.668 0.398064 -0.673104 0
M  V30 7111 H 698.252 0.415504 -1.90215 0
M  V30 7112 H 696.423 2.81329 -2.67784 0
M  V30 7113 H 698.155 2.79703 -2.92486 0
M  V30 7114 H 694.91 1.51701 -4.48647 0
M  V30 7115 H 695.334 0.223783 -6.7663 0
M  V30 7116 H 699.976 1.23354 -4.04405 0
M  V30 7117 H 697.694 -0.709719 -8.04977 0
M  V30 7118 H 701.28 0.105074 -5.81705 0
M  V30 7119 H 700.16 -0.85261 -7.79551 0
M  V30 7120 N 697.663 1.43903 0.642637 0
M  V30 7121 C 698.94 1.36556 1.40043 0
M  V30 7122 C 699.32 0.0185588 2.11092 0
M  V30 7123 O 698.668 -0.998438 2.05532 0
M  V30 7124 C 698.878 2.55596 2.37638 0
M  V30 7125 C 700.226 2.99153 3.01318 0
M  V30 7126 O 701.25 2.55719 2.47965 0
M  V30 7127 O 700.109 3.74427 3.98078 0
M  V30 7128 H 697.203 0.540189 0.626198 0
M  V30 7129 H 699.749 1.55971 0.668657 0
M  V30 7130 H 698.521 3.45256 1.84158 0
M  V30 7131 H 698.144 2.38334 3.18249 0
M  V30 7132 N 699.141 -0.881989 1.30609 0
M  V30 7133 C 700.366 -1.67236 1.22665 0
M  V30 7134 C 700.791 -1.8696 -0.206777 0
M  V30 7135 O 700.149 -1.4027 -1.14865 0
M  V30 7136 C 700.197 -3.02446 1.96363 0
M  V30 7137 O 699.301 -3.91614 1.29276 0
M  V30 7138 H 698.642 -0.510902 0.424117 0
M  V30 7139 H 701.172 -1.10055 1.72479 0
M  V30 7140 H 701.182 -3.52468 2.055 0
M  V30 7141 H 699.857 -2.8741 3.00613 0
M  V30 7142 H 698.434 -3.50055 1.28514 0
M  V30 7143 N 700.619 -1.13374 -1.09472 0
M  V30 7144 C 701.849 -0.917019 -1.85133 0
M  V30 7145 C 702.257 0.537568 -1.81402 0
M  V30 7146 O 701.6 1.38385 -1.20811 0
M  V30 7147 C 701.662 -1.32646 -3.34134 0
M  V30 7148 C 701.326 -2.79437 -3.61613 0
M  V30 7149 C 702.323 -3.77596 -3.57375 0
M  V30 7150 C 700.008 -3.16586 -3.89973 0
M  V30 7151 C 702.002 -5.10916 -3.81108 0
M  V30 7152 C 699.689 -4.50085 -4.13361 0
M  V30 7153 C 700.687 -5.47059 -4.0892 0
M  V30 7154 O 700.375 -6.78149 -4.31705 0
M  V30 7155 H 700.107 -0.326997 -0.591649 0
M  V30 7156 H 702.661 -1.51002 -1.39239 0
M  V30 7157 H 700.891 -0.676719 -3.80733 0
M  V30 7158 H 702.58 -1.08229 -3.91205 0
M  V30 7159 H 703.346 -3.50242 -3.35493 0
M  V30 7160 H 699.225 -2.41707 -3.92554 0
M  V30 7161 H 702.769 -5.86597 -3.77558 0
M  V30 7162 H 698.666 -4.77163 -4.34724 0
M  V30 7163 H 699.434 -6.84244 -4.49168 0
M  V30 7164 N 702.098 1.27442 -0.927168 0
M  V30 7165 C 703.03 2.25975 -0.383158 0
M  V30 7166 C 704.043 1.55382 0.485832 0
M  V30 7167 O 705.232 1.75986 0.298541 0
M  V30 7168 C 702.332 3.35629 0.469688 0
M  V30 7169 C 701.505 4.35747 -0.379886 0
M  V30 7170 C 700.564 5.24598 0.410227 0
M  V30 7171 O 699.59 5.68909 -0.181888 0
M  V30 7172 N 700.792 5.54737 1.71017 0
M  V30 7173 H 703.557 2.7329 -1.23015 0
M  V30 7174 H 701.118 1.41063 -0.794539 0
M  V30 7175 H 703.11 3.92015 1.00532 0
M  V30 7176 H 701.68 2.87919 1.21744 0
M  V30 7177 H 700.9 3.78634 -1.09682 0
M  V30 7178 H 702.188 4.99648 -0.960717 0
M  V30 7179 H 701.586 5.20594 2.21356 0
M  V30 7180 H 700.143 6.13824 2.19234 0
M  V30 7181 N 703.576 0.692616 1.41565 0
M  V30 7182 C 704.524 0.0139952 2.32596 0
M  V30 7183 C 705.518 -0.771691 1.50802 0
M  V30 7184 O 706.724 -0.677646 1.66757 0
M  V30 7185 H 703.099 -0.0142745 0.751865 0
M  V30 7186 H 705.07 0.798851 2.87508 0
M  V30 7187 C 703.819 -0.910602 3.35564 0
M  V30 7188 H 703.142 -0.315446 3.98554 0
M  V30 7189 H 704.582 -1.3538 4.01806 0
M  V30 7190 C 703.041 -2.02539 2.6922 0
M  V30 7191 O 703.571 -3.11386 2.53775 0
M  V30 7192 N 701.777 -1.80227 2.27962 0
M  V30 7193 H 701.324 -0.917054 2.40724 0
M  V30 7194 H 701.282 -2.55001 1.83907 0
M  V30 7195 N 705.054 -1.51416 0.437162 0
M  V30 7196 C 706.3 -2.02386 -0.129555 0
M  V30 7197 C 706.633 -1.32071 -1.42376 0
M  V30 7198 O 705.908 -0.43559 -1.8956 0
M  V30 7199 C 706.191 -3.5841 -0.348487 0
M  V30 7200 C 706.044 -4.39341 0.964352 0
M  V30 7201 C 707.363 -4.25654 -1.11834 0
M  V30 7202 H 704.482 -0.735587 -0.0456109 0
M  V30 7203 H 707.124 -1.81055 0.576124 0
M  V30 7204 H 705.274 -3.76716 -0.949592 0
M  V30 7205 H 706.946 -4.32685 1.59942 0
M  V30 7206 H 705.189 -4.04432 1.56898 0
M  V30 7207 H 705.86 -5.4667 0.765212 0
M  V30 7208 H 708.336 -4.11617 -0.609165 0
M  V30 7209 H 707.212 -5.34704 -1.24029 0
M  V30 7210 H 707.473 -3.86502 -2.14636 0
M  V30 7211 N 706.532 -0.168513 -1.56696 0
M  V30 7212 C 707.76 0.483503 -2.01171 0
M  V30 7213 C 708.175 1.56994 -1.04872 0
M  V30 7214 O 707.532 1.82434 -0.0491337 0
M  V30 7215 C 707.583 1.0644 -3.45475 0
M  V30 7216 O 707.304 0.0213375 -4.38095 0
M  V30 7217 C 708.805 1.79493 -4.05336 0
M  V30 7218 H 706.025 0.124002 -0.659443 0
M  V30 7219 H 708.569 -0.269419 -2.02717 0
M  V30 7220 H 706.724 1.76784 -3.44712 0
M  V30 7221 H 707.138 0.449837 -5.22567 0
M  V30 7222 H 708.612 2.15401 -5.08238 0
M  V30 7223 H 709.089 2.68889 -3.47269 0
M  V30 7224 H 709.695 1.13798 -4.09793 0
M  V30 7225 N 708.01 1.57248 0.105221 0
M  V30 7226 C 708.973 2.00388 1.11252 0
M  V30 7227 C 709.973 0.89594 1.33527 0
M  V30 7228 O 711.163 1.16166 1.29811 0
M  V30 7229 C 708.295 2.35589 2.46395 0
M  V30 7230 H 709.488 2.90591 0.741424 0
M  V30 7231 H 707.041 1.52332 0.349956 0
M  V30 7232 H 707.776 1.4831 2.884 0
M  V30 7233 H 707.561 3.16408 2.31578 0
M  V30 7234 H 709.051 2.69658 3.18864 0
M  V30 7235 N 709.488 -0.375779 1.53054 0
M  V30 7236 C 710.436 -1.48015 1.79428 0
M  V30 7237 C 711.43 -1.55893 0.662854 0
M  V30 7238 O 712.636 -1.58901 0.845599 0
M  V30 7239 H 709.011 -0.492887 0.56795 0
M  V30 7240 H 710.982 -1.22971 2.71884 0
M  V30 7241 C 709.731 -2.84984 1.99197 0
M  V30 7242 H 709.054 -2.79677 2.85693 0
M  V30 7243 H 710.494 -3.61462 2.21633 0
M  V30 7244 C 708.953 -3.28025 0.768183 0
M  V30 7245 O 709.483 -4.01671 -0.0480482 0
M  V30 7246 N 707.689 -2.84454 0.594521 0
M  V30 7247 H 707.236 -2.24688 1.25988 0
M  V30 7248 H 707.194 -3.13609 -0.222916 0
M  V30 7249 N 710.966 -1.44241 -0.634997 0
M  V30 7250 C 711.896 -1.53632 -1.7584 0
M  V30 7251 C 712.877 -0.389603 -1.65578 0
M  V30 7252 O 714.062 -0.609219 -1.84397 0
M  V30 7253 C 711.192 -1.47644 -3.14354 0
M  V30 7254 C 710.146 -2.60752 -3.394 0
M  V30 7255 C 709.472 -2.39817 -4.77904 0
M  V30 7256 C 710.772 -4.02921 -3.32343 0
M  V30 7257 H 712.466 -2.47662 -1.68238 0
M  V30 7258 H 710.012 -1.19197 -0.807969 0
M  V30 7259 H 711.965 -1.52815 -3.92716 0
M  V30 7260 H 710.689 -0.501284 -3.2273 0
M  V30 7261 H 709.348 -2.54965 -2.63417 0
M  V30 7262 H 708.996 -1.40502 -4.82978 0
M  V30 7263 H 708.696 -3.15649 -4.9562 0
M  V30 7264 H 710.22 -2.46799 -5.585 0
M  V30 7265 H 711.634 -4.10098 -4.00615 0
M  V30 7266 H 710.031 -4.78925 -3.61595 0
M  V30 7267 H 711.101 -4.26766 -2.30215 0
M  V30 7268 N 712.444 0.87505 -1.31075 0
M  V30 7269 C 713.669 1.66583 -1.23551 0
M  V30 7270 C 714.094 1.87067 0.19686 0
M  V30 7271 O 713.452 1.40877 1.1412 0
M  V30 7272 C 713.5 3.01401 -1.97965 0
M  V30 7273 O 712.604 3.90923 -1.31351 0
M  V30 7274 H 711.945 0.508645 -0.426821 0
M  V30 7275 H 714.475 1.09139 -1.7306 0
M  V30 7276 H 714.485 3.51374 -2.07366 0
M  V30 7277 H 713.16 2.85812 -3.02133 0
M  V30 7278 H 711.737 3.49369 -1.30368 0
M  V30 7279 N 713.922 1.13953 1.08869 0
M  V30 7280 C 714.87 0.817664 2.17754 0
M  V30 7281 C 715.864 -0.202444 1.68186 0
M  V30 7282 O 717.07 -0.0590159 1.79903 0
M  V30 7283 H 713.445 0.246671 0.710392 0
M  V30 7284 H 715.416 1.74401 2.4213 0
M  V30 7285 C 714.165 0.3063 3.46348 0
M  V30 7286 H 713.488 1.08259 3.84864 0
M  V30 7287 H 714.928 0.119584 4.23831 0
M  V30 7288 C 713.387 -0.969158 3.22659 0
M  V30 7289 O 713.917 -2.04386 3.45817 0
M  V30 7290 N 712.123 -0.902516 2.7623 0
M  V30 7291 H 711.67 -0.027801 2.57585 0
M  V30 7292 H 711.628 -1.75649 2.60758 0
M  V30 7293 N 715.4 -1.26948 0.933913 0
M  V30 7294 C 716.649 -1.93378 0.573409 0
M  V30 7295 C 716.962 -1.74148 -0.890614 0
M  V30 7296 O 718.168 -2.34971 -1.36017 0
M  V30 7297 C 716.624 -3.46449 0.974747 0
M  V30 7298 C 716.232 -3.74425 2.45988 0
M  V30 7299 C 717.976 -4.18924 0.685791 0
M  V30 7300 C 715.883 -5.209 2.8003 0
M  V30 7301 H 714.813 -0.723952 0.210736 0
M  V30 7302 H 717.464 -1.44143 1.13557 0
M  V30 7303 H 715.846 -3.94528 0.341181 0
M  V30 7304 H 717.02 -3.37079 3.14188 0
M  V30 7305 H 715.335 -3.15167 2.72138 0
M  V30 7306 H 717.932 -5.26786 0.916546 0
M  V30 7307 H 718.275 -4.14587 -0.377217 0
M  V30 7308 H 718.808 -3.76687 1.27874 0
M  V30 7309 H 715.547 -5.30332 3.85264 0
M  V30 7310 H 715.067 -5.59369 2.16485 0
M  V30 7311 H 716.746 -5.88837 2.68105 0
M  V30 7312 N 716.879 -0.700114 -1.41195 0
M  V30 7313 C 718.107 -0.242179 -2.05478 0
M  V30 7314 C 718.522 1.11029 -1.52702 0
M  V30 7315 O 717.879 1.69473 -0.677127 0
M  V30 7316 C 717.93 -0.196271 -3.60967 0
M  V30 7317 O 717.651 -1.49532 -4.11791 0
M  V30 7318 C 719.152 0.282102 -4.42401 0
M  V30 7319 H 716.372 -0.111749 -0.661629 0
M  V30 7320 H 718.916 -0.953975 -1.80885 0
M  V30 7321 H 717.071 0.46638 -3.84582 0
M  V30 7322 H 717.485 -1.38545 -5.05871 0
M  V30 7323 H 718.959 0.263093 -5.51373 0
M  V30 7324 H 719.436 1.32174 -4.1884 0
M  V30 7325 H 720.042 -0.349712 -4.2386 0
M  V30 7326 N 718.357 1.51182 -0.445186 0
M  V30 7327 C 719.605 2.01753 0.11841 0
M  V30 7328 C 719.926 1.33087 1.42523 0
M  V30 7329 O 719.196 0.467891 1.9023 0
M  V30 7330 H 717.776 0.745536 0.0467492 0
M  V30 7331 H 720.438 1.85765 -0.589688 0
M  V30 7332 H 719.534 3.10762 0.288665 0
M  V30 7333 N 719.835 0.176821 1.56605 0
M  V30 7334 C 721.081 -0.467406 1.9734 0
M  V30 7335 C 721.414 -1.62523 1.06301 0
M  V30 7336 O 720.689 -1.94182 0.11125 0
M  V30 7337 C 720.972 -0.945106 3.47476 0
M  V30 7338 C 720.825 0.213273 4.49294 0
M  V30 7339 C 722.144 -1.8169 4.00845 0
M  V30 7340 H 719.263 -0.168426 0.717497 0
M  V30 7341 H 721.905 0.264065 1.88156 0
M  V30 7342 H 720.055 -1.56841 3.55434 0
M  V30 7343 H 721.727 0.850508 4.53392 0
M  V30 7344 H 719.97 0.867918 4.25029 0
M  V30 7345 H 720.641 -0.163187 5.51759 0
M  V30 7346 H 723.117 -1.29139 3.95553 0
M  V30 7347 H 721.993 -2.12015 5.06301 0
M  V30 7348 H 722.254 -2.76463 3.44994 0
M  V30 7349 N 721.313 -1.57302 -0.09688 0
M  V30 7350 C 722.263 -1.98369 -1.12399 0
M  V30 7351 C 723.247 -0.861872 -1.3587 0
M  V30 7352 O 724.439 -1.1257 -1.36591 0
M  V30 7353 C 721.568 -2.41017 -2.4447 0
M  V30 7354 C 720.654 -3.59881 -2.24381 0
M  V30 7355 N 721.045 -4.74872 -1.74155 0
M  V30 7356 C 719.343 -3.65943 -2.54954 0
M  V30 7357 C 720.044 -5.56823 -1.68294 0
M  V30 7358 N 719.02 -4.99942 -2.13444 0
M  V30 7359 H 722.822 -2.84726 -0.728575 0
M  V30 7360 H 720.336 -1.59523 -0.304332 0
M  V30 7361 H 722.333 -2.68665 -3.18786 0
M  V30 7362 H 720.993 -1.56036 -2.84751 0
M  V30 7363 H 722.004 -4.97657 -1.43379 0
M  V30 7364 H 718.681 -2.9162 -2.98771 0
M  V30 7365 H 720.071 -6.59099 -1.30528 0
M  V30 7366 N 722.791 0.367657 -1.53252 0
M  V30 7367 C 724.068 1.12606 -1.59935 0
M  V30 7368 C 724.448 2.07167 -0.405606 0
M  V30 7369 O 723.796 2.20364 0.604323 0
M  V30 7370 C 724.006 1.86699 -2.94863 0
M  V30 7371 C 725.354 2.41306 -3.49366 0
M  V30 7372 O 726.378 1.96828 -2.96879 0
M  V30 7373 O 725.237 3.2261 -4.41118 0
M  V30 7374 H 722.331 0.516438 -0.645926 0
M  V30 7375 H 724.877 0.371088 -1.65593 0
M  V30 7376 H 723.649 1.17674 -3.73187 0
M  V30 7377 H 723.272 2.6911 -2.92687 0
M  V30 7378 N 724.269 1.44576 0.627338 0
M  V30 7379 C 725.518 1.46837 1.38281 0
M  V30 7380 C 725.831 0.10635 1.95311 0
M  V30 7381 O 727.037 0.00651084 2.71499 0
M  V30 7382 C 725.493 2.58527 2.50384 0
M  V30 7383 C 725.101 4.00953 1.99851 0
M  V30 7384 C 726.845 2.70013 3.27557 0
M  V30 7385 C 724.752 5.0406 3.09318 0
M  V30 7386 H 723.682 0.546319 0.519664 0
M  V30 7387 H 726.333 1.70654 0.674497 0
M  V30 7388 H 724.715 2.27957 3.23808 0
M  V30 7389 H 725.889 4.41108 1.33267 0
M  V30 7390 H 724.204 3.93743 1.35482 0
M  V30 7391 H 726.801 3.44217 4.09168 0
M  V30 7392 H 727.144 1.75961 3.77284 0
M  V30 7393 H 727.677 3.00011 2.61224 0
M  V30 7394 H 724.416 5.99753 2.6453 0
M  V30 7395 H 723.936 4.68493 3.74532 0
M  V30 7396 H 725.615 5.2793 3.74031 0
M  V30 7397 N 725.747 -0.868086 1.31537 0
M  V30 7398 C 726.975 -1.65402 1.24298 0
M  V30 7399 C 727.39 -1.87827 -0.191389 0
M  V30 7400 O 726.747 -1.43776 -1.12404 0
M  V30 7401 C 726.798 -3.02093 1.9855 0
M  V30 7402 O 726.519 -2.80668 3.36388 0
M  V30 7403 C 728.02 -3.96538 1.98173 0
M  V30 7404 H 725.24 -0.515598 0.429417 0
M  V30 7405 H 727.784 -1.0834 1.73444 0
M  V30 7406 H 725.939 -3.55838 1.53161 0
M  V30 7407 H 726.353 -3.67504 3.74221 0
M  V30 7408 H 727.827 -4.8976 2.54635 0
M  V30 7409 H 728.304 -4.28474 0.964697 0
M  V30 7410 H 728.91 -3.48729 2.4345 0
M  V30 7411 N 727.225 -1.14528 -1.08264 0
M  V30 7412 C 728.155 -0.856356 -2.1723 0
M  V30 7413 C 729.136 0.189251 -1.69044 0
M  V30 7414 O 730.321 0.0456119 -1.94146 0
M  V30 7415 C 727.451 -0.334662 -3.45684 0
M  V30 7416 C 726.405 -1.31588 -4.0727 0
M  V30 7417 C 725.731 -0.653428 -5.30692 0
M  V30 7418 C 727.031 -2.67866 -4.48381 0
M  V30 7419 H 728.725 -1.76755 -2.41657 0
M  V30 7420 H 726.271 -0.851287 -1.16143 0
M  V30 7421 H 728.224 -0.120128 -4.21229 0
M  V30 7422 H 726.948 0.611967 -3.20815 0
M  V30 7423 H 725.607 -1.51661 -3.33758 0
M  V30 7424 H 725.255 0.299054 -5.0211 0
M  V30 7425 H 724.955 -1.30817 -5.72853 0
M  V30 7426 H 726.479 -0.448453 -6.08951 0
M  V30 7427 H 727.893 -2.51692 -5.15096 0
M  V30 7428 H 726.29 -3.29627 -5.01464 0
M  V30 7429 H 727.36 -3.24632 -3.60198 0
M  V30 7430 N 728.703 1.26451 -0.940633 0
M  V30 7431 C 729.949 1.94065 -0.58878 0
M  V30 7432 C 730.282 1.7363 0.869853 0
M  V30 7433 O 729.557 1.073 1.62225 0
M  V30 7434 C 729.84 3.47852 -0.931199 0
M  V30 7435 C 729.693 3.77575 -2.44453 0
M  V30 7436 C 731.012 4.37832 -0.446229 0
M  V30 7437 H 728.131 0.704827 -0.21538 0
M  V30 7438 H 730.773 1.4933 -1.17475 0
M  V30 7439 H 728.923 3.86085 -0.432539 0
M  V30 7440 H 730.595 3.49059 -3.01588 0
M  V30 7441 H 728.838 3.23671 -2.88825 0
M  V30 7442 H 729.509 4.85068 -2.63464 0
M  V30 7443 H 731.985 4.06822 -0.873778 0
M  V30 7444 H 730.861 5.44228 -0.714648 0
M  V30 7445 H 731.122 4.37239 0.653815 0
M  V30 7446 N 730.181 0.707592 1.40822 0
M  V30 7447 C 731.428 0.243671 2.01029 0
M  V30 7448 C 731.756 -1.16057 1.5608 0
M  V30 7449 O 731.011 -1.7999 0.768251 0
M  V30 7450 C 731.31 0.262892 3.56432 0
M  V30 7451 C 730.976 1.61632 4.20935 0
M  V30 7452 C 729.638 1.98682 4.38268 0
M  V30 7453 C 731.99 2.50619 4.5699 0
M  V30 7454 C 729.318 3.2428 4.88937 0
M  V30 7455 C 731.67 3.75562 5.09054 0
M  V30 7456 C 730.334 4.12739 5.24598 0
M  V30 7457 H 729.604 0.0891654 0.735616 0
M  V30 7458 H 732.251 0.909051 1.68548 0
M  V30 7459 H 730.556 -0.486052 3.88773 0
M  V30 7460 H 732.253 -0.113775 4.00839 0
M  V30 7461 H 728.843 1.31818 4.07826 0
M  V30 7462 H 733.027 2.23272 4.43242 0
M  V30 7463 H 728.283 3.53064 4.99155 0
M  V30 7464 H 732.457 4.44692 5.35931 0
M  V30 7465 H 730.084 5.10132 5.63622 0
M  V30 7466 N 731.66 -1.50943 0.453197 0
M  V30 7467 C 732.885 -2.07116 -0.108463 0
M  V30 7468 C 733.31 -1.31681 -1.3432 0
M  V30 7469 O 732.668 -0.359256 -1.77705 0
M  V30 7470 C 732.716 -3.58447 -0.393424 0
M  V30 7471 O 731.82 -3.85038 -1.47714 0
M  V30 7472 H 731.161 -0.66398 0.0050993 0
M  V30 7473 H 733.691 -1.94362 0.639095 0
M  V30 7474 H 733.701 -4.02961 -0.639222 0
M  V30 7475 H 732.376 -4.12774 0.508946 0
M  V30 7476 H 730.953 -3.52376 -1.22006 0
M  V30 7477 N 733.138 -0.185124 -1.56509 0
M  V30 7478 C 734.386 0.455357 -1.96903 0
M  V30 7479 C 734.707 1.62839 -1.07277 0
M  V30 7480 O 733.977 1.95385 -0.141966 0
M  V30 7481 H 732.557 0.171218 -0.727113 0
M  V30 7482 H 735.219 -0.26953 -1.93027 0
M  V30 7483 H 734.315 0.80616 -3.01509 0
M  V30 7484 N 734.616 1.57351 0.0885366 0
M  V30 7485 C 736.027 1.75303 0.642308 0
M  V30 7486 C 736.378 0.808238 1.78779 0
M  V30 7487 O 735.503 -0.01171 2.16397 0
M  V30 7488 C 736.098 3.17885 1.17194 0
M  V30 7489 C 734.657 3.37239 1.67172 0
M  V30 7490 C 733.804 2.7108 0.584045 0
M  V30 7491 H 736.755 1.58103 -0.137567 0
M  V30 7492 H 736.776 3.2112 2.04114 0
M  V30 7493 H 736.288 3.86625 0.338024 0
M  V30 7494 H 734.389 2.73588 2.52943 0
M  V30 7495 H 734.502 4.45594 1.76019 0
M  V30 7496 H 732.866 2.33161 1.02508 0
M  V30 7497 H 733.649 3.42464 -0.239403 0
M  V30 7498 N 736.094 -0.359525 1.53444 0
M  V30 7499 C 737.34 -1.10315 1.70172 0
M  V30 7500 C 737.673 -1.88788 0.455287 0
M  V30 7501 O 736.948 -1.86635 -0.547514 0
M  V30 7502 C 737.231 -2.05744 2.95536 0
M  V30 7503 C 737.084 -1.3084 4.3035 0
M  V30 7504 C 738.403 -3.05784 3.16518 0
M  V30 7505 H 735.522 -0.399662 0.619225 0
M  V30 7506 H 738.164 -0.383338 1.86093 0
M  V30 7507 H 736.314 -2.67125 2.82093 0
M  V30 7508 H 737.986 -0.721959 4.55615 0
M  V30 7509 H 736.229 -0.610283 4.29486 0
M  V30 7510 H 736.9 -2.00718 5.14214 0
M  V30 7511 H 739.376 -2.5451 3.29187 0
M  V30 7512 H 738.252 -3.69772 4.05659 0
M  V30 7513 H 738.513 -3.76289 2.32076 0
M  V30 7514 N 737.572 -1.44907 -0.619662 0
M  V30 7515 C 738.52 -1.52971 -1.75222 0
M  V30 7516 C 739.514 -0.400531 -1.64597 0
M  V30 7517 O 740.72 -0.575952 -1.70537 0
M  V30 7518 H 737.095 -0.480241 -0.578682 0
M  V30 7519 H 739.066 -2.48269 -1.65545 0
M  V30 7520 C 737.815 -1.50204 -3.13583 0
M  V30 7521 H 737.138 -2.36412 -3.22412 0
M  V30 7522 H 738.578 -1.59905 -3.92691 0
M  V30 7523 C 737.037 -0.22455 -3.36151 0
M  V30 7524 O 737.567 0.700574 -3.95544 0
M  V30 7525 N 735.773 -0.124052 -2.90335 0
M  V30 7526 H 735.32 -0.87774 -2.42185 0
M  V30 7527 H 735.278 0.729914 -3.0581 0
M  V30 7528 N 739.05 0.861098 -1.31996 0
M  V30 7529 C 740.296 1.61721 -1.22369 0
M  V30 7530 C 740.629 1.93 0.215587 0
M  V30 7531 O 739.904 1.56789 1.15098 0
M  V30 7532 C 740.187 2.9417 -2.07691 0
M  V30 7533 C 740.04 2.69714 -3.59965 0
M  V30 7534 C 741.359 3.95372 -1.93312 0
M  V30 7535 H 738.478 0.586822 -0.44588 0
M  V30 7536 H 741.12 0.994788 -1.61876 0
M  V30 7537 H 739.27 3.47292 -1.74128 0
M  V30 7538 H 740.942 2.23196 -4.03709 0
M  V30 7539 H 739.185 2.03789 -3.82952 0
M  V30 7540 H 739.856 3.63996 -4.14983 0
M  V30 7541 H 742.332 3.51487 -2.22701 0
M  V30 7542 H 741.208 4.85916 -2.55298 0
M  V30 7543 H 741.469 4.32865 -0.898922 0
M  V30 7544 N 740.528 1.15101 1.07655 0
M  V30 7545 C 741.805 0.834578 1.76902 0
M  V30 7546 C 742.185 -0.670431 2.00171 0
M  V30 7547 O 741.533 -1.61378 1.6177 0
M  V30 7548 C 741.743 1.64191 3.07965 0
M  V30 7549 C 743.091 1.84615 3.82364 0
M  V30 7550 O 744.115 1.60941 3.17768 0
M  V30 7551 O 742.974 2.24244 4.98374 0
M  V30 7552 H 740.068 0.306608 0.768063 0
M  V30 7553 H 742.614 1.25663 1.14048 0
M  V30 7554 H 741.386 2.66386 2.86626 0
M  V30 7555 H 741.009 1.216 3.78549 0
M  V30 7556 N 742.006 -1.2595 0.947325 0
M  V30 7557 C 743.236 -1.97258 0.614235 0
M  V30 7558 C 743.644 -1.70682 -0.816355 0
M  V30 7559 O 742.987 -0.97527 -1.55673 0
M  V30 7560 C 743.049 -3.50845 0.784081 0
M  V30 7561 C 742.713 -4.01084 2.19045 0
M  V30 7562 C 743.71 -4.12347 3.16648 0
M  V30 7563 C 741.395 -4.34936 2.51268 0
M  V30 7564 C 743.389 -4.56766 4.44572 0
M  V30 7565 C 741.076 -4.79043 3.79422 0
M  V30 7566 C 742.074 -4.89919 4.75887 0
M  V30 7567 O 741.762 -5.3305 6.01758 0
M  V30 7568 H 741.494 -0.635738 0.22981 0
M  V30 7569 H 744.048 -1.61268 1.27207 0
M  V30 7570 H 742.278 -3.86638 0.069101 0
M  V30 7571 H 743.967 -4.03363 0.453135 0
M  V30 7572 H 744.733 -3.86432 2.93079 0
M  V30 7573 H 740.612 -4.25702 1.76916 0
M  V30 7574 H 744.156 -4.6517 5.19868 0
M  V30 7575 H 740.053 -5.04402 4.02802 0
M  V30 7576 H 740.821 -5.51255 6.05029 0
M  V30 7577 N 743.484 -0.715051 -1.40445 0
M  V30 7578 C 744.731 -0.254328 -2.00897 0
M  V30 7579 C 745.059 1.15228 -1.56693 0
M  V30 7580 O 744.314 1.7958 -0.777786 0
M  V30 7581 C 744.613 -0.281791 -3.56287 0
M  V30 7582 C 744.279 -1.63862 -4.20071 0
M  V30 7583 C 742.941 -2.01003 -4.37208 0
M  V30 7584 C 745.293 -2.53039 -4.55654 0
M  V30 7585 C 742.621 -3.26869 -4.8721 0
M  V30 7586 C 744.973 -3.78256 -5.07055 0
M  V30 7587 C 743.637 -4.15515 -5.22401 0
M  V30 7588 H 742.907 -0.0930652 -0.735133 0
M  V30 7589 H 745.554 -0.917977 -1.68064 0
M  V30 7590 H 743.859 0.465428 -3.89026 0
M  V30 7591 H 745.556 0.0925158 -4.00893 0
M  V30 7592 H 742.146 -1.33979 -4.07121 0
M  V30 7593 H 746.33 -2.2562 -4.42051 0
M  V30 7594 H 741.586 -3.55706 -4.97276 0
M  V30 7595 H 745.76 -4.47528 -5.33565 0
M  V30 7596 H 743.387 -5.13114 -5.60909 0
M  V30 7597 N 744.962 1.50701 -0.461195 0
M  V30 7598 C 746.208 2.02566 0.0973411 0
M  V30 7599 C 746.541 1.3432 1.40257 0
M  V30 7600 O 745.816 0.465692 1.88843 0
M  V30 7601 C 746.099 3.58919 0.291423 0
M  V30 7602 C 745.952 4.37751 -1.03413 0
M  V30 7603 C 747.271 4.27379 1.05048 0
M  V30 7604 H 744.39 0.73622 0.0339026 0
M  V30 7605 H 747.032 1.80115 -0.604855 0
M  V30 7606 H 745.182 3.78179 0.889539 0
M  V30 7607 H 746.854 4.30085 -1.66806 0
M  V30 7608 H 745.097 4.01885 -1.63313 0
M  V30 7609 H 745.768 5.45384 -0.852085 0
M  V30 7610 H 748.244 4.12534 0.543603 0
M  V30 7611 H 747.12 5.36609 1.15506 0
M  V30 7612 H 747.381 3.89868 2.0846 0
M  V30 7613 N 746.441 0.193421 1.56409 0
M  V30 7614 C 747.688 -0.445789 1.97532 0
M  V30 7615 C 748.016 -1.61744 1.08024 0
M  V30 7616 O 747.271 -1.95338 0.118982 0
M  V30 7617 C 747.57 -0.949718 3.44551 0
M  V30 7618 C 747.236 0.108383 4.5077 0
M  V30 7619 C 745.898 0.399126 4.79542 0
M  V30 7620 C 748.25 0.825423 5.14622 0
M  V30 7621 C 745.578 1.41192 5.69457 0
M  V30 7622 C 747.93 1.82735 6.05632 0
M  V30 7623 C 746.594 2.12531 6.32761 0
M  V30 7624 H 745.864 -0.163126 0.722822 0
M  V30 7625 H 748.511 0.290035 1.89291 0
M  V30 7626 H 746.816 -1.76378 3.49854 0
M  V30 7627 H 748.513 -1.45367 3.73724 0
M  V30 7628 H 745.103 -0.128392 4.28408 0
M  V30 7629 H 749.287 0.61403 4.92487 0
M  V30 7630 H 744.543 1.6487 5.88751 0
M  V30 7631 H 748.717 2.3882 6.5417 0
M  V30 7632 H 746.344 2.91155 7.02234 0
M  V30 7633 N 747.919 -1.57396 -0.0801906 0
M  V30 7634 C 749.147 -1.91055 -0.794075 0
M  V30 7635 C 749.562 -0.788583 -1.71542 0
M  V30 7636 O 748.919 0.238587 -1.80934 0
M  V30 7637 C 748.97 -3.24418 -1.59484 0
M  V30 7638 O 748.691 -4.323 -0.710532 0
M  V30 7639 C 750.192 -3.72037 -2.41046 0
M  V30 7640 H 747.412 -0.63171 -0.226238 0
M  V30 7641 H 749.956 -2.04431 -0.0529685 0
M  V30 7642 H 748.111 -3.12595 -2.2883 0
M  V30 7643 H 748.525 -5.08976 -1.26663 0
M  V30 7644 H 749.999 -4.68006 -2.92702 0
M  V30 7645 H 750.476 -3.00624 -3.2019 0
M  V30 7646 H 751.082 -3.86777 -1.76871 0
M  V30 7647 N 749.397 0.351382 -1.53633 0
M  V30 7648 C 750.808 0.927429 -1.62036 0
M  V30 7649 C 751.159 1.89809 -0.496706 0
M  V30 7650 O 750.284 2.1313 0.374749 0
M  V30 7651 C 750.879 1.68886 -2.93706 0
M  V30 7652 C 749.438 2.21404 -3.04397 0
M  V30 7653 C 748.585 1.03075 -2.57431 0
M  V30 7654 H 751.536 0.129748 -1.58169 0
M  V30 7655 H 751.557 2.55116 -2.82305 0
M  V30 7656 H 751.069 0.982149 -3.75467 0
M  V30 7657 H 749.17 2.95274 -2.27253 0
M  V30 7658 H 749.283 2.48312 -4.09729 0
M  V30 7659 H 747.647 1.40188 -2.12649 0
M  V30 7660 H 748.43 0.338793 -3.41624 0
M  V30 7661 N 750.875 1.45233 0.611969 0
M  V30 7662 C 751.838 1.53189 1.70487 0
M  V30 7663 C 752.838 0.411839 1.55437 0
M  V30 7664 O 754.028 0.675164 1.60584 0
M  V30 7665 C 751.16 1.42422 3.09723 0
M  V30 7666 H 752.353 2.5056 1.64802 0
M  V30 7667 H 749.906 1.32609 0.827318 0
M  V30 7668 H 750.641 0.462185 3.2099 0
M  V30 7669 H 750.426 2.23658 3.22055 0
M  V30 7670 H 751.916 1.51012 3.89339 0
M  V30 7671 N 752.353 -0.854086 1.3245 0
M  V30 7672 C 753.301 -1.98411 1.21391 0
M  V30 7673 C 754.295 -1.68984 0.118586 0
M  V30 7674 O 755.501 -1.77784 0.281549 0
M  V30 7675 H 751.876 -0.651077 0.376301 0
M  V30 7676 H 753.847 -2.04867 2.16961 0
M  V30 7677 C 752.596 -3.34345 0.954407 0
M  V30 7678 H 751.919 -3.57518 1.78944 0
M  V30 7679 H 753.359 -4.13959 0.917269 0
M  V30 7680 C 751.818 -3.35151 -0.342838 0
M  V30 7681 O 752.348 -3.78174 -1.35452 0
M  V30 7682 N 750.554 -2.88298 -0.365012 0
M  V30 7683 H 750.101 -2.53481 0.4588 0
M  V30 7684 H 750.059 -2.8922 -1.23284 0
M  V30 7685 N 753.831 -1.1567 -1.07043 0
M  V30 7686 C 755.077 -0.9349 -1.79965 0
M  V30 7687 C 755.41 0.536464 -1.86643 0
M  V30 7688 O 754.685 1.39781 -1.35247 0
M  V30 7689 C 754.968 -1.55371 -3.24857 0
M  V30 7690 C 754.821 -3.09589 -3.26305 0
M  V30 7691 C 756.14 -1.24209 -4.22209 0
M  V30 7692 H 753.259 -0.341061 -0.653335 0
M  V30 7693 H 755.901 -1.42883 -1.25237 0
M  V30 7694 H 754.051 -1.13368 -3.71591 0
M  V30 7695 H 755.723 -3.60521 -2.87789 0
M  V30 7696 H 753.966 -3.43315 -2.65174 0
M  V30 7697 H 754.637 -3.48002 -4.28484 0
M  V30 7698 H 757.113 -1.60548 -3.8388 0
M  V30 7699 H 755.989 -1.70119 -5.21872 0
M  V30 7700 H 756.25 -0.15964 -4.41812 0
M  V30 7701 N 755.309 1.25446 -0.953992 0
M  V30 7702 C 756.257 2.27909 -0.46478 0
M  V30 7703 C 757.251 1.62904 0.464607 0
M  V30 7704 O 758.457 1.76733 0.341407 0
M  V30 7705 H 754.832 0.74036 -0.131798 0
M  V30 7706 H 756.803 2.66559 -1.34122 0
M  V30 7707 C 755.552 3.46853 0.242589 0
M  V30 7708 H 754.875 3.97105 -0.463418 0
M  V30 7709 H 756.315 4.20432 0.548919 0
M  V30 7710 C 754.774 3.03386 1.46487 0
M  V30 7711 O 755.304 3.09342 2.56262 0
M  V30 7712 N 753.51 2.58584 1.32599 0
M  V30 7713 H 753.057 2.53938 0.432834 0
M  V30 7714 H 753.015 2.29866 2.14497 0
M  V30 7715 N 756.787 0.722489 1.40064 0
M  V30 7716 C 758.012 0.273446 2.05589 0
M  V30 7717 C 758.437 -1.07875 1.54093 0
M  V30 7718 O 757.795 -1.68095 0.679252 0
M  V30 7719 C 757.843 0.271023 3.5958 0
M  V30 7720 O 756.947 -0.745499 4.05606 0
M  V30 7721 H 756.288 0.126856 0.65177 0
M  V30 7722 H 758.818 0.984906 1.79334 0
M  V30 7723 H 758.828 0.111084 4.07849 0
M  V30 7724 H 757.503 1.25776 3.96425 0
M  V30 7725 H 756.08 -0.552719 3.68781 0
M  V30 7726 N 758.265 -1.50454 0.469181 0
M  V30 7727 C 759.513 -2.01916 -0.0862982 0
M  V30 7728 C 759.834 -1.35337 -1.40388 0
M  V30 7729 O 759.104 -0.498096 -1.89462 0
M  V30 7730 H 757.684 -0.746185 -0.0348825 0
M  V30 7731 H 760.346 -1.84804 0.619167 0
M  V30 7732 H 759.442 -3.11182 -0.239189 0
M  V30 7733 N 759.743 -0.201713 -1.56304 0
M  V30 7734 C 761.154 0.309711 -1.84113 0
M  V30 7735 C 761.505 1.60912 -1.12258 0
M  V30 7736 O 760.63 2.12937 -0.385587 0
M  V30 7737 C 761.225 0.568706 -3.33993 0
M  V30 7738 C 759.784 1.02448 -3.6219 0
M  V30 7739 C 758.931 0.0766842 -2.77194 0
M  V30 7740 H 761.882 -0.425356 -1.52893 0
M  V30 7741 H 761.903 1.41721 -3.53122 0
M  V30 7742 H 761.415 -0.37719 -3.86263 0
M  V30 7743 H 759.516 1.98443 -3.15359 0
M  V30 7744 H 759.629 0.912619 -4.70328 0
M  V30 7745 H 757.993 0.579809 -2.48013 0
M  V30 7746 H 758.776 -0.863774 -3.32256 0
M  V30 7747 N 761.222 1.57436 0.0718424 0
M  V30 7748 C 762.45 1.91474 0.783932 0
M  V30 7749 C 762.865 0.797669 1.71122 0
M  V30 7750 O 762.222 -0.228989 1.81058 0
M  V30 7751 C 762.273 3.25259 1.57761 0
M  V30 7752 O 761.994 4.3267 0.687596 0
M  V30 7753 C 763.495 3.7331 2.3907 0
M  V30 7754 H 760.715 0.632901 0.222885 0
M  V30 7755 H 763.259 2.04457 0.0421262 0
M  V30 7756 H 761.414 3.13804 2.27169 0
M  V30 7757 H 761.828 5.09641 1.23962 0
M  V30 7758 H 763.302 4.69551 2.90216 0
M  V30 7759 H 763.779 3.02318 3.18591 0
M  V30 7760 H 764.385 3.8771 1.74818 0
M  V30 7761 N 762.7 -0.34323 1.53817 0
M  V30 7762 C 763.925 -1.1079 1.75329 0
M  V30 7763 C 764.35 -1.81571 0.491293 0
M  V30 7764 O 763.708 -1.72561 -0.556089 0
M  V30 7765 C 763.756 -2.09681 2.9337 0
M  V30 7766 O 762.86 -3.17207 2.63541 0
M  V30 7767 H 762.201 -0.320402 0.581583 0
M  V30 7768 H 764.731 -0.393525 2.0078 0
M  V30 7769 H 764.741 -2.52897 3.20168 0
M  V30 7770 H 763.416 -1.5756 3.84899 0
M  V30 7771 H 761.993 -2.78806 2.47632 0
M  V30 7772 N 764.178 -1.45556 -0.604258 0
M  V30 7773 C 765.589 -1.44171 -1.18624 0
M  V30 7774 C 765.94 -0.171081 -1.95453 0
M  V30 7775 O 765.065 0.727156 -2.03817 0
M  V30 7776 C 765.66 -2.61193 -2.15786 0
M  V30 7777 C 764.219 -2.62918 -2.69353 0
M  V30 7778 C 763.366 -2.36479 -1.4482 0
M  V30 7779 H 766.317 -1.53747 -0.393381 0
M  V30 7780 H 766.338 -2.35481 -2.98879 0
M  V30 7781 H 765.85 -3.53656 -1.59841 0
M  V30 7782 H 763.951 -1.7447 -3.29228 0
M  V30 7783 H 764.064 -3.6224 -3.13559 0
M  V30 7784 H 762.428 -1.86103 -1.73891 0
M  V30 7785 H 763.211 -3.31091 -0.907376 0
M  V30 7786 N 765.656 0.84705 -1.32902 0
M  V30 7787 C 766.902 1.60414 -1.24078 0
M  V30 7788 C 767.235 1.93217 0.195105 0
M  V30 7789 O 766.51 1.58001 1.13428 0
M  V30 7790 C 766.793 2.91951 -2.108 0
M  V30 7791 C 766.646 2.6588 -3.62805 0
M  V30 7792 C 767.965 3.93299 -1.97494 0
M  V30 7793 H 765.084 0.58206 -0.452079 0
M  V30 7794 H 767.726 0.977562 -1.62922 0
M  V30 7795 H 765.876 3.45425 -1.77802 0
M  V30 7796 H 767.548 2.18902 -4.06054 0
M  V30 7797 H 765.791 1.99716 -3.85092 0
M  V30 7798 H 766.462 3.59574 -4.1882 0
M  V30 7799 H 768.938 3.49105 -2.26417 0
M  V30 7800 H 767.814 4.8318 -2.60438 0
M  V30 7801 H 768.075 4.31887 -0.944782 0
M  V30 7802 N 767.134 1.16236 1.06428 0
M  V30 7803 C 768.382 0.941171 1.78847 0
M  V30 7804 C 768.703 -0.53248 1.87589 0
M  V30 7805 O 767.973 -1.38686 1.38358 0
M  V30 7806 H 766.553 0.345228 0.66244 0
M  V30 7807 H 769.215 1.46479 1.28569 0
M  V30 7808 H 768.311 1.35871 2.80972 0
M  V30 7809 N 768.612 -1.24939 0.960631 0
M  V30 7810 C 769.86 -1.92437 0.617441 0
M  V30 7811 C 770.181 -1.75543 -0.849101 0
M  V30 7812 O 769.451 -1.12269 -1.60538 0
M  V30 7813 H 768.031 -0.712192 0.225371 0
M  V30 7814 H 770.693 -1.5198 1.22017 0
M  V30 7815 H 769.789 -3.00247 0.851933 0
M  V30 7816 N 770.09 -0.729906 -1.39679 0
M  V30 7817 C 771.318 -0.285709 -2.04918 0
M  V30 7818 C 771.733 1.07765 -1.55023 0
M  V30 7819 O 771.09 1.67999 -0.712923 0
M  V30 7820 C 771.141 -0.272793 -3.60469 0
M  V30 7821 O 770.862 -1.58233 -4.08527 0
M  V30 7822 C 772.363 0.188199 -4.429 0
M  V30 7823 H 769.583 -0.125758 -0.65911 0
M  V30 7824 H 772.127 -0.992129 -1.78821 0
M  V30 7825 H 770.282 0.384699 -3.85485 0
M  V30 7826 H 770.696 -1.49245 -5.02818 0
M  V30 7827 H 772.17 0.14608 -5.51807 0
M  V30 7828 H 772.647 1.2326 -4.21549 0
M  V30 7829 H 773.253 -0.439541 -4.23023 0
M  V30 7830 N 771.568 1.50203 -0.477153 0
M  V30 7831 C 772.984 1.59056 -0.131663 0
M  V30 7832 C 773.184 1.48473 1.36227 0
M  V30 7833 O 772.24 1.34635 2.13611 0
M  V30 7834 C 773.553 2.92741 -0.687254 0
M  V30 7835 C 775.101 3.0615 -0.651223 0
M  V30 7836 C 775.576 4.42419 -1.18446 0
M  V30 7837 N 777.067 4.48847 -1.14413 0
M  V30 7838 C 777.802 5.52689 -1.52717 0
M  V30 7839 N 777.298 6.63754 -1.98499 0
M  V30 7840 N 779.091 5.43267 -1.44282 0
M  V30 7841 H 771.242 1.55325 -1.44872 0
M  V30 7842 H 773.505 0.734395 -0.599473 0
M  V30 7843 H 773.211 3.0598 -1.73405 0
M  V30 7844 H 773.085 3.76961 -0.134215 0
M  V30 7845 H 775.472 2.92556 0.386677 0
M  V30 7846 H 775.553 2.23673 -1.24114 0
M  V30 7847 H 775.197 4.56763 -2.22103 0
M  V30 7848 H 775.127 5.23498 -0.570709 0
M  V30 7849 H 777.618 3.69152 -0.808416 0
M  V30 7850 H 777.931 7.39059 -2.25859 0
M  V30 7851 H 776.276 6.64858 -2.02456 0
M  V30 7852 H 779.467 4.55387 -1.08352 0
M  V30 7853 H 779.64 6.24074 -1.74459 0
M  V30 7854 N 773.046 0.209999 1.56195 0
M  V30 7855 C 774.271 -0.433064 2.02828 0
M  V30 7856 C 774.696 -1.5337 1.08901 0
M  V30 7857 O 774.054 -1.81144 0.0751132 0
M  V30 7858 C 774.102 -0.952635 3.47789 0
M  V30 7859 O 773.206 -2.0647 3.56993 0
M  V30 7860 H 772.547 -0.0994594 0.656509 0
M  V30 7861 H 775.077 0.32525 2.01998 0
M  V30 7862 H 775.087 -1.26542 3.8788 0
M  V30 7863 H 773.762 -0.147007 4.1564 0
M  V30 7864 H 772.339 -1.75942 3.28784 0
M  V30 7865 N 774.524 -1.57472 -0.0634922 0
M  V30 7866 C 775.487 -2.03268 -1.059 0
M  V30 7867 C 776.487 -0.931028 -1.31105 0
M  V30 7868 O 777.677 -1.19567 -1.26686 0
M  V30 7869 C 774.809 -2.42039 -2.40062 0
M  V30 7870 H 776.002 -2.92454 -0.664119 0
M  V30 7871 H 773.555 -1.53206 -0.309444 0
M  V30 7872 H 774.29 -1.55904 -2.84367 0
M  V30 7873 H 774.075 -3.22437 -2.23108 0
M  V30 7874 H 775.565 -2.78017 -3.11603 0
M  V30 7875 N 776.003 0.335068 -1.53997 0
M  V30 7876 C 777.25 1.07435 -1.71651 0
M  V30 7877 C 777.578 1.88378 -0.48413 0
M  V30 7878 O 776.833 1.8827 0.534139 0
M  V30 7879 C 777.132 2.0364 -2.9371 0
M  V30 7880 C 776.798 1.38942 -4.28959 0
M  V30 7881 C 775.46 1.21027 -4.65732 0
M  V30 7882 C 777.812 0.924083 -5.12943 0
M  V30 7883 C 775.14 0.552097 -5.84097 0
M  V30 7884 C 777.492 0.27978 -6.31981 0
M  V30 7885 C 776.156 0.0883843 -6.67441 0
M  V30 7886 H 775.426 0.393133 -0.628114 0
M  V30 7887 H 778.073 0.352712 -1.88224 0
M  V30 7888 H 776.378 2.82215 -2.71775 0
M  V30 7889 H 778.075 2.6085 -3.04562 0
M  V30 7890 H 774.665 1.53885 -4.00022 0
M  V30 7891 H 778.849 1.05032 -4.85059 0
M  V30 7892 H 774.105 0.392502 -6.10139 0
M  V30 7893 H 778.279 -0.0888479 -6.96343 0
M  V30 7894 H 775.906 -0.423657 -7.59019 0
M  V30 7895 N 777.481 1.45874 0.596531 0
M  V30 7896 C 778.706 1.54247 1.38646 0
M  V30 7897 C 779.131 0.179571 1.87241 0
M  V30 7898 O 778.489 -0.837831 1.6078 0
M  V30 7899 C 778.537 2.54015 2.55946 0
M  V30 7900 O 777.641 2.06561 3.5694 0
M  V30 7901 H 776.982 0.519555 0.413471 0
M  V30 7902 H 779.512 1.91327 0.724936 0
M  V30 7903 H 779.522 2.73179 3.03047 0
M  V30 7904 H 778.197 3.52994 2.19928 0
M  V30 7905 H 776.774 1.97324 3.16414 0
M  V30 7906 N 778.959 -0.83999 1.33349 0
M  V30 7907 C 779.907 -1.97113 1.23488 0
M  V30 7908 C 780.901 -1.68849 0.136503 0
M  V30 7909 O 782.107 -1.77476 0.300389 0
M  V30 7910 H 778.482 -0.647049 0.383185 0
M  V30 7911 H 780.453 -2.02554 2.19122 0
M  V30 7912 C 779.202 -3.33314 0.989815 0
M  V30 7913 H 778.525 -3.556 1.82726 0
M  V30 7914 H 779.965 -4.12963 0.961123 0
M  V30 7915 C 778.424 -3.35496 -0.307272 0
M  V30 7916 O 778.954 -3.79589 -1.31434 0
M  V30 7917 N 777.16 -2.88669 -0.334414 0
M  V30 7918 H 776.707 -2.5298 0.485659 0
M  V30 7919 H 776.665 -2.90512 -1.20209 0
M  V30 7920 N 780.437 -1.16799 -1.0581 0
M  V30 7921 C 781.686 -0.94698 -1.78088 0
M  V30 7922 C 781.999 0.526016 -1.88394 0
M  V30 7923 O 783.205 0.865061 -2.5735 0
M  V30 7924 C 781.661 -1.64508 -3.20102 0
M  V30 7925 C 781.269 -3.15618 -3.17946 0
M  V30 7926 C 783.013 -1.50622 -3.96879 0
M  V30 7927 C 780.92 -3.78144 -4.5471 0
M  V30 7928 H 779.85 -0.35067 -0.667493 0
M  V30 7929 H 782.501 -1.39985 -1.18645 0
M  V30 7930 H 780.883 -1.11993 -3.79834 0
M  V30 7931 H 782.057 -3.75016 -2.67768 0
M  V30 7932 H 780.372 -3.29444 -2.54667 0
M  V30 7933 H 782.969 -1.94713 -4.97987 0
M  V30 7934 H 783.312 -0.455864 -4.13797 0
M  V30 7935 H 783.845 -2.00319 -3.43682 0
M  V30 7936 H 780.584 -4.83149 -4.42998 0
M  V30 7937 H 780.104 -3.23532 -5.05062 0
M  V30 7938 H 781.783 -3.79986 -5.2366 0
M  V30 7939 N 781.915 1.24427 -0.967243 0
M  V30 7940 C 782.847 2.24641 -0.454856 0
M  V30 7941 C 783.86 1.56849 0.436152 0
M  V30 7942 O 785.049 1.76846 0.242401 0
M  V30 7943 C 782.149 3.36954 0.362672 0
M  V30 7944 C 781.322 4.34318 -0.518324 0
M  V30 7945 C 780.381 5.25638 0.243122 0
M  V30 7946 O 779.407 5.68043 -0.362791 0
M  V30 7947 N 780.609 5.59897 1.53282 0
M  V30 7948 H 783.374 2.69238 -1.31648 0
M  V30 7949 H 780.935 1.38464 -0.839015 0
M  V30 7950 H 782.927 3.95014 0.880094 0
M  V30 7951 H 781.497 2.91646 1.12522 0
M  V30 7952 H 780.717 3.74953 -1.21672 0
M  V30 7953 H 782.005 4.96338 -1.11919 0
M  V30 7954 H 781.403 5.27373 2.04682 0
M  V30 7955 H 779.96 6.20488 1.99594 0
M  V30 7956 N 783.393 0.737304 1.3929 0
M  V30 7957 C 784.356 0.10731 2.28949 0
M  V30 7958 C 785.356 -0.664716 1.46418 0
M  V30 7959 O 786.546 -0.493392 1.67067 0
M  V30 7960 C 783.678 -0.857145 3.29948 0
M  V30 7961 H 784.871 0.89725 2.86163 0
M  V30 7962 H 782.424 0.503279 1.47976 0
M  V30 7963 H 783.159 -1.67336 2.77794 0
M  V30 7964 H 782.944 -0.306167 3.90903 0
M  V30 7965 H 784.434 -1.29444 3.97031 0
M  V30 7966 N 784.871 -1.49948 0.485112 0
M  V30 7967 C 785.781 -2.32587 -0.306697 0
M  V30 7968 C 786.797 -1.43598 -0.982632 0
M  V30 7969 O 787.973 -1.76638 -0.967519 0
M  V30 7970 C 785.038 -3.18638 -1.3664 0
M  V30 7971 C 784.099 -4.23462 -0.705589 0
M  V30 7972 C 783.332 -5.05401 -1.7148 0
M  V30 7973 O 783.555 -4.88618 -2.94293 0
M  V30 7974 O 782.489 -5.88157 -1.27889 0
M  V30 7975 H 786.315 -3.01447 0.369272 0
M  V30 7976 H 783.9 -1.47349 0.246709 0
M  V30 7977 H 785.782 -3.71992 -1.9799 0
M  V30 7978 H 784.457 -2.52491 -2.02559 0
M  V30 7979 H 783.364 -3.74063 -0.0527733 0
M  V30 7980 H 784.697 -4.92119 -0.0891187 0
M  V30 7981 N 786.349 -0.21828 -1.56081 0
M  V30 7982 C 787.626 0.463143 -1.90038 0
M  V30 7983 C 788.006 1.77982 -1.13515 0
M  V30 7984 O 787.354 2.27199 -0.24345 0
M  V30 7985 C 787.564 0.659292 -3.42716 0
M  V30 7986 C 788.912 0.968203 -4.13414 0
M  V30 7987 O 789.936 0.746195 -3.48296 0
M  V30 7988 O 788.795 1.38936 -5.28544 0
M  V30 7989 H 785.889 0.244435 -0.790051 0
M  V30 7990 H 788.435 -0.260221 -1.67693 0
M  V30 7991 H 787.207 -0.269584 -3.9037 0
M  V30 7992 H 786.83 1.43426 -3.7083 0
M  V30 7993 N 787.827 1.57504 0.0551401 0
M  V30 7994 C 789.057 1.92015 0.762472 0
M  V30 7995 C 789.465 0.814088 1.7079 0
M  V30 7996 O 788.808 -0.220273 1.82375 0
M  V30 7997 C 788.87 3.22132 1.59598 0
M  V30 7998 C 788.534 4.49617 0.818141 0
M  V30 7999 C 789.531 5.19738 0.129933 0
M  V30 8000 C 787.216 4.96201 0.780387 0
M  V30 8001 C 789.21 6.34704 -0.585616 0
M  V30 8002 C 786.897 6.11069 0.0610756 0
M  V30 8003 C 787.895 6.80174 -0.62071 0
M  V30 8004 O 787.583 7.92849 -1.3284 0
M  V30 8005 H 787.315 0.638866 0.220967 0
M  V30 8006 H 789.869 2.05385 0.0246362 0
M  V30 8007 H 788.099 3.05016 2.37701 0
M  V30 8008 H 789.788 3.42166 2.18351 0
M  V30 8009 H 790.554 4.84767 0.150299 0
M  V30 8010 H 786.433 4.42275 1.30054 0
M  V30 8011 H 789.977 6.88578 -1.11833 0
M  V30 8012 H 785.874 6.45488 0.0386945 0
M  V30 8013 H 786.642 8.09062 -1.23938 0
M  V30 8014 N 789.305 -0.326896 1.54172 0
M  V30 8015 C 790.582 -1.08326 1.62864 0
M  V30 8016 C 790.962 -2.06018 0.46039 0
M  V30 8017 O 790.31 -2.21889 -0.545685 0
M  V30 8018 C 790.52 -1.78816 2.9971 0
M  V30 8019 C 791.868 -2.31958 3.55641 0
M  V30 8020 O 792.892 -1.88888 3.01993 0
M  V30 8021 O 791.751 -3.10801 4.49517 0
M  V30 8022 H 788.845 -0.499131 0.659392 0
M  V30 8023 H 791.391 -0.327054 1.66519 0
M  V30 8024 H 790.163 -1.07739 3.76176 0
M  V30 8025 H 789.786 -2.61255 2.99719 0
M  V30 8026 N 790.784 -1.46188 -0.588786 0
M  V30 8027 C 792.009 -1.5498 -1.37826 0
M  V30 8028 C 792.434 -0.189498 -1.87143 0
M  V30 8029 O 791.792 0.829293 -1.61222 0
M  V30 8030 C 791.84 -2.55369 -2.54596 0
M  V30 8031 O 790.944 -2.08452 -3.55839 0
M  V30 8032 H 790.285 -0.521741 -0.41071 0
M  V30 8033 H 792.815 -1.91708 -0.714779 0
M  V30 8034 H 792.825 -2.74782 -3.01594 0
M  V30 8035 H 791.5 -3.54155 -2.18052 0
M  V30 8036 H 790.077 -1.98999 -3.15363 0
M  V30 8037 N 792.262 0.832906 -1.33792 0
M  V30 8038 C 793.487 1.62568 -1.28788 0
M  V30 8039 C 793.912 1.87599 0.137246 0
M  V30 8040 O 793.27 1.44436 1.0958 0
M  V30 8041 C 793.318 2.9495 -2.07453 0
M  V30 8042 O 792.422 3.86546 -1.43722 0
M  V30 8043 H 791.763 0.494809 -0.442787 0
M  V30 8044 H 794.293 1.03578 -1.76445 0
M  V30 8045 H 794.303 3.44599 -2.1844 0
M  V30 8046 H 792.978 2.76055 -3.11073 0
M  V30 8047 H 791.555 3.45044 -1.41417 0
M  V30 8048 N 793.74 1.17359 1.05189 0
M  V30 8049 C 794.97 0.985099 1.81602 0
M  V30 8050 C 795.378 -0.469872 1.83273 0
M  V30 8051 O 794.721 -1.33806 1.25864 0
M  V30 8052 C 794.783 1.44956 3.2898 0
M  V30 8053 C 794.447 2.92666 3.50993 0
M  V30 8054 C 795.444 3.906 3.43115 0
M  V30 8055 C 793.129 3.30841 3.77954 0
M  V30 8056 C 795.123 5.24709 3.61883 0
M  V30 8057 C 792.81 4.65116 3.96371 0
M  V30 8058 C 793.808 5.61859 3.88335 0
M  V30 8059 O 793.496 6.93704 4.06238 0
M  V30 8060 H 793.228 0.348731 0.579105 0
M  V30 8061 H 795.782 1.56066 1.33539 0
M  V30 8062 H 794.012 0.817559 3.77959 0
M  V30 8063 H 795.701 1.22674 3.86919 0
M  V30 8064 H 796.467 3.62453 3.22262 0
M  V30 8065 H 792.346 2.5611 3.83313 0
M  V30 8066 H 795.89 6.00205 3.55527 0
M  V30 8067 H 791.787 4.92969 4.16715 0
M  V30 8068 H 792.555 7.00443 4.23463 0
M  V30 8069 N 795.218 -1.23913 0.973828 0
M  V30 8070 C 796.466 -1.91771 0.637817 0
M  V30 8071 C 796.787 -1.76434 -0.830435 0
M  V30 8072 O 796.057 -1.13965 -1.59339 0
M  V30 8073 H 794.637 -0.709761 0.232912 0
M  V30 8074 H 797.299 -1.50677 1.23622 0
M  V30 8075 H 796.395 -2.99327 0.883731 0
M  V30 8076 N 796.696 -0.74468 -1.38897 0
M  V30 8077 C 798.107 -0.36568 -1.83084 0
M  V30 8078 C 798.458 1.10436 -1.62168 0
M  V30 8079 O 797.583 1.85281 -1.11804 0
M  V30 8080 C 798.178 -0.656946 -3.3237 0
M  V30 8081 C 796.737 -0.331329 -3.74939 0
M  V30 8082 C 795.884 -0.914661 -2.61781 0
M  V30 8083 H 798.835 -0.941551 -1.27752 0
M  V30 8084 H 798.856 0.0679546 -3.80439 0
M  V30 8085 H 798.368 -1.72693 -3.47561 0
M  V30 8086 H 796.469 0.732426 -3.6533 0
M  V30 8087 H 796.582 -0.820655 -4.72019 0
M  V30 8088 H 794.946 -0.34063 -2.52412 0
M  V30 8089 H 795.729 -1.98949 -2.79775 0
M  V30 8090 N 798.174 1.49689 -0.493057 0
M  V30 8091 C 799.122 2.30613 0.303383 0
M  V30 8092 C 800.116 1.38867 0.970165 0
M  V30 8093 O 801.322 1.55956 0.898761 0
M  V30 8094 H 797.697 0.742891 0.116691 0
M  V30 8095 H 799.668 2.95717 -0.39924 0
M  V30 8096 C 798.417 3.20008 1.35978 0
M  V30 8097 H 797.74 3.90526 0.856103 0
M  V30 8098 H 799.18 3.79586 1.88919 0
M  V30 8099 C 797.639 2.39079 2.37367 0
M  V30 8100 O 798.169 2.08933 3.43089 0
M  V30 8101 N 796.375 2.0125 2.09635 0
M  V30 8102 H 795.922 2.25966 1.23682 0
M  V30 8103 H 795.88 1.47408 2.77702 0
M  V30 8104 N 799.652 0.226554 1.55963 0
M  V30 8105 C 800.582 -0.676079 2.23498 0
M  V30 8106 C 801.563 -1.19718 1.20837 0
M  V30 8107 O 802.748 -1.24027 1.49436 0
M  V30 8108 C 799.878 -1.88217 2.91876 0
M  V30 8109 C 798.832 -1.4947 4.01052 0
M  V30 8110 C 798.158 -2.77997 4.56751 0
M  V30 8111 C 799.458 -0.680951 5.17842 0
M  V30 8112 H 801.152 -0.112989 2.99187 0
M  V30 8113 H 798.698 -0.0529046 1.43903 0
M  V30 8114 H 800.651 -2.51911 3.37815 0
M  V30 8115 H 799.375 -2.47031 2.13643 0
M  V30 8116 H 798.034 -0.881199 3.55852 0
M  V30 8117 H 797.682 -3.34966 3.75243 0
M  V30 8118 H 797.382 -2.52803 5.30438 0
M  V30 8119 H 798.906 -3.42625 5.05411 0
M  V30 8120 H 800.32 -1.22171 5.60131 0
M  V30 8121 H 798.717 -0.525898 5.97791 0
M  V30 8122 H 799.787 0.311346 4.83899 0
M  V30 8123 N 801.13 -1.57531 -0.0467866 0
M  V30 8124 C 802.062 -2.02156 -1.08007 0
M  V30 8125 C 803.075 -0.931434 -1.33522 0
M  V30 8126 O 804.264 -1.209 -1.31321 0
M  V30 8127 C 801.364 -2.36675 -2.42566 0
M  V30 8128 C 800.537 -3.67848 -2.36658 0
M  V30 8129 C 799.596 -3.89754 -3.53523 0
M  V30 8130 O 798.622 -4.61036 -3.33818 0
M  V30 8131 N 799.824 -3.34025 -4.74771 0
M  V30 8132 H 802.589 -2.91414 -0.699845 0
M  V30 8133 H 800.15 -1.60185 -0.235041 0
M  V30 8134 H 802.142 -2.48482 -3.19435 0
M  V30 8135 H 800.712 -1.53178 -2.72498 0
M  V30 8136 H 799.932 -3.66561 -1.45005 0
M  V30 8137 H 801.22 -4.53931 -2.29835 0
M  V30 8138 H 800.618 -2.76214 -4.93683 0
M  V30 8139 H 799.175 -3.51241 -5.49066 0
M  V30 8140 N 802.608 0.318715 -1.54344 0
M  V30 8141 C 803.857 1.05363 -1.71993 0
M  V30 8142 C 804.17 1.89018 -0.503155 0
M  V30 8143 O 805.376 2.65639 -0.561085 0
M  V30 8144 C 803.832 1.92281 -3.0423 0
M  V30 8145 C 803.44 1.13715 -4.33328 0
M  V30 8146 C 805.184 2.65479 -3.31242 0
M  V30 8147 C 803.091 1.99806 -5.56625 0
M  V30 8148 H 802.021 0.397081 -0.64097 0
M  V30 8149 H 804.672 0.311598 -1.80835 0
M  V30 8150 H 803.054 2.70402 -2.89307 0
M  V30 8151 H 804.228 0.403305 -4.59032 0
M  V30 8152 H 802.543 0.521769 -4.13118 0
M  V30 8153 H 805.14 3.30209 -4.20555 0
M  V30 8154 H 805.483 3.33374 -2.49334 0
M  V30 8155 H 806.016 1.94417 -3.47054 0
M  V30 8156 H 802.755 1.36411 -6.41149 0
M  V30 8157 H 802.275 2.70911 -5.35133 0
M  V30 8158 H 803.954 2.58277 -5.93213 0
M  V30 8159 N 804.086 1.46499 0.581025 0
M  V30 8160 C 805.333 1.51896 1.33918 0
M  V30 8161 C 805.661 0.171361 1.93744 0
M  V30 8162 O 804.916 -0.833178 1.77078 0
M  V30 8163 C 805.215 2.56686 2.48691 0
M  V30 8164 C 804.881 4.00656 2.06847 0
M  V30 8165 C 803.543 4.39852 1.9515 0
M  V30 8166 C 805.895 4.91089 1.74589 0
M  V30 8167 C 803.223 5.67345 1.49456 0
M  V30 8168 C 805.575 6.1902 1.30373 0
M  V30 8169 C 804.239 6.57121 1.17255 0
M  V30 8170 H 803.509 0.555826 0.490039 0
M  V30 8171 H 806.156 1.79983 0.654092 0
M  V30 8172 H 804.461 2.22266 3.22653 0
M  V30 8173 H 806.158 2.58091 3.06904 0
M  V30 8174 H 802.748 3.69674 2.16886 0
M  V30 8175 H 806.932 4.61523 1.8251 0
M  V30 8176 H 802.188 5.95635 1.37944 0
M  V30 8177 H 806.362 6.8852 1.04467 0
M  V30 8178 H 803.989 7.55805 0.816236 0
M  V30 8179 N 805.565 -0.825799 1.34232 0
M  V30 8180 C 806.79 -1.61883 1.29648 0
M  V30 8181 C 807.215 -1.87669 -0.127295 0
M  V30 8182 O 806.573 -1.45016 -1.08813 0
M  V30 8183 C 806.621 -2.93846 2.09014 0
M  V30 8184 O 805.725 -3.85778 1.4577 0
M  V30 8185 H 805.066 -0.492454 0.445405 0
M  V30 8186 H 807.596 -1.02641 1.76992 0
M  V30 8187 H 807.606 -3.43435 2.20264 0
M  V30 8188 H 806.281 -2.74401 3.12533 0
M  V30 8189 H 804.858 -3.4429 1.43245 0
M  V30 8190 N 807.043 -1.17915 -1.04565 0
M  V30 8191 C 807.973 -0.925033 -2.14395 0
M  V30 8192 C 808.954 0.135375 -1.6956 0
M  V30 8193 O 810.139 -0.0161774 -1.94193 0
M  V30 8194 C 807.269 -0.444469 -3.44444 0
M  V30 8195 C 806.223 -1.44478 -4.02877 0
M  V30 8196 C 805.549 -0.821933 -5.28345 0
M  V30 8197 C 806.849 -2.81995 -4.39632 0
M  V30 8198 H 808.543 -1.84354 -2.35911 0
M  V30 8199 H 806.089 -0.887806 -1.13375 0
M  V30 8200 H 808.042 -0.254078 -4.20633 0
M  V30 8201 H 806.766 0.509592 -3.226 0
M  V30 8202 H 805.425 -1.62203 -3.28764 0
M  V30 8203 H 805.073 0.139161 -5.02807 0
M  V30 8204 H 804.773 -1.48976 -5.68401 0
M  V30 8205 H 806.297 -0.641959 -6.07216 0
M  V30 8206 H 807.711 -2.67952 -5.06828 0
M  V30 8207 H 806.108 -3.45414 -4.90723 0
M  V30 8208 H 807.178 -3.35927 -3.49687 0
M  V30 8209 N 808.521 1.23394 -0.980386 0
M  V30 8210 C 809.932 1.73631 -0.686239 0
M  V30 8211 C 810.283 1.79259 0.797541 0
M  V30 8212 O 809.408 1.43046 1.62379 0
M  V30 8213 C 810.003 3.15332 -1.239 0
M  V30 8214 C 808.562 3.63024 -0.994494 0
M  V30 8215 C 807.709 2.41279 -1.36673 0
M  V30 8216 H 810.66 1.08918 -1.15423 0
M  V30 8217 H 810.681 3.75556 -0.611414 0
M  V30 8218 H 810.193 3.11204 -2.31892 0
M  V30 8219 H 808.294 3.72535 0.0693492 0
M  V30 8220 H 808.407 4.49825 -1.64906 0
M  V30 8221 H 806.771 2.42295 -0.785195 0
M  V30 8222 H 807.554 2.39822 -2.45642 0
M  V30 8223 N 809.999 0.752036 1.385 0
M  V30 8224 C 811.247 0.306895 1.99756 0
M  V30 8225 C 811.568 -1.11478 1.59992 0
M  V30 8226 O 810.838 -1.76206 0.856045 0
M  V30 8227 H 809.418 0.11048 0.738785 0
M  V30 8228 H 812.08 0.965785 1.69289 0
M  V30 8229 H 811.176 0.368797 3.09913 0
M  V30 8230 N 811.477 -1.49425 0.500989 0
M  V30 8231 C 812.725 -2.02053 -0.0434495 0
M  V30 8232 C 813.046 -1.38285 -1.37486 0
M  V30 8233 O 812.316 -0.538171 -1.88363 0
M  V30 8234 H 810.896 -0.746757 -0.0190469 0
M  V30 8235 H 813.558 -1.83449 0.658227 0
M  V30 8236 H 812.654 -3.11619 -0.173129 0
M  V30 8237 N 812.955 -0.234822 -1.55841 0
M  V30 8238 C 814.203 0.392483 -1.98252 0
M  V30 8239 C 814.524 1.59344 -1.12404 0
M  V30 8240 O 813.794 1.94834 -0.204055 0
M  V30 8241 H 812.374 0.147999 -0.732192 0
M  V30 8242 H 815.036 -0.330804 -1.92072 0
M  V30 8243 H 814.132 0.709829 -3.03921 0
M  V30 8244 N 814.433 1.57553 0.0384317 0
M  V30 8245 C 815.658 1.93485 0.746872 0
M  V30 8246 C 816.083 0.834069 1.68597 0
M  V30 8247 O 815.441 -0.210902 1.80069 0
M  V30 8248 C 815.489 3.28463 1.4881 0
M  V30 8249 O 814.593 3.20051 2.60079 0
M  V30 8250 H 813.934 0.632675 0.201539 0
M  V30 8251 H 816.464 2.046 -0.00329815 0
M  V30 8252 H 816.474 3.63132 1.86009 0
M  V30 8253 H 815.149 4.08147 0.799297 0
M  V30 8254 H 813.726 2.96998 2.25492 0
M  V30 8255 N 815.911 -0.310526 1.54511 0
M  V30 8256 C 816.874 -1.3657 1.84068 0
M  V30 8257 C 817.874 -1.44123 0.713097 0
M  V30 8258 O 819.064 -1.43924 0.981399 0
M  V30 8259 C 816.196 -2.75162 2.01243 0
M  V30 8260 H 817.389 -1.1161 2.78358 0
M  V30 8261 H 814.942 -0.546699 1.46427 0
M  V30 8262 H 815.677 -3.05359 1.09208 0
M  V30 8263 H 815.462 -2.71071 2.83307 0
M  V30 8264 H 816.952 -3.51473 2.25514 0
M  V30 8265 N 817.389 -1.46805 -0.573248 0
M  V30 8266 C 818.638 -1.51868 -1.32736 0
M  V30 8267 C 818.951 -0.178765 -1.94781 0
M  V30 8268 O 820.157 -0.107272 -2.71288 0
M  V30 8269 C 818.613 -2.67641 -2.40616 0
M  V30 8270 C 818.221 -4.08094 -1.84832 0
M  V30 8271 C 819.965 -2.81984 -3.17309 0
M  V30 8272 C 817.872 -5.15193 -2.90397 0
M  V30 8273 H 816.802 -0.56523 -0.49903 0
M  V30 8274 H 819.453 -1.7304 -0.610695 0
M  V30 8275 H 817.835 -2.39818 -3.15124 0
M  V30 8276 H 819.009 -4.45751 -1.16803 0
M  V30 8277 H 817.324 -3.985 -1.20775 0
M  V30 8278 H 819.921 -3.59166 -3.96111 0
M  V30 8279 H 820.264 -1.89842 -3.70494 0
M  V30 8280 H 820.797 -3.095 -2.4991 0
M  V30 8281 H 817.536 -6.09158 -2.42088 0
M  V30 8282 H 817.056 -4.82071 -3.56886 0
M  V30 8283 H 818.735 -5.41448 -3.54179 0
M  V30 8284 N 818.867 0.818669 -1.34668 0
M  V30 8285 C 820.115 1.57201 -1.27013 0
M  V30 8286 C 820.436 1.94354 0.158599 0
M  V30 8287 O 819.706 1.62626 1.09223 0
M  V30 8288 H 818.286 0.582919 -0.467135 0
M  V30 8289 H 820.948 0.977234 -1.6863 0
M  V30 8290 H 820.044 2.49291 -1.87778 0
M  V30 8291 N 820.346 1.18468 1.03938 0
M  V30 8292 C 821.576 1.0043 1.80547 0
M  V30 8293 C 821.984 -0.450407 1.83761 0
M  V30 8294 O 821.327 -1.32463 1.27276 0
M  V30 8295 C 821.389 1.48437 3.27424 0
M  V30 8296 C 821.053 2.96372 3.47869 0
M  V30 8297 C 822.05 3.94217 3.38953 0
M  V30 8298 C 819.735 3.34831 3.74424 0
M  V30 8299 C 821.729 5.28517 3.56298 0
M  V30 8300 C 819.416 4.69294 3.91416 0
M  V30 8301 C 820.414 5.65946 3.82354 0
M  V30 8302 O 820.102 6.97974 3.98858 0
M  V30 8303 H 819.834 0.354853 0.575374 0
M  V30 8304 H 822.388 1.57473 1.31876 0
M  V30 8305 H 820.618 0.857601 3.7707 0
M  V30 8306 H 822.307 1.2677 3.85596 0
M  V30 8307 H 823.073 3.6585 3.184 0
M  V30 8308 H 818.952 2.60161 3.80575 0
M  V30 8309 H 822.496 6.03943 3.49141 0
M  V30 8310 H 818.393 4.97361 4.11463 0
M  V30 8311 H 819.161 7.04895 4.1601 0
M  V30 8312 N 821.824 -1.22873 0.986916 0
M  V30 8313 C 823.073 -1.90772 0.654911 0
M  V30 8314 C 823.386 -1.77768 -0.81595 0
M  V30 8315 O 824.592 -2.40529 -1.25929 0
M  V30 8316 C 823.048 -3.42003 1.12081 0
M  V30 8317 C 822.656 -3.63655 2.61647 0
M  V30 8318 C 824.4 -4.15638 0.862854 0
M  V30 8319 C 822.307 -5.08555 3.01871 0
M  V30 8320 H 821.237 -0.714362 0.241252 0
M  V30 8321 H 823.888 -1.39196 1.19568 0
M  V30 8322 H 822.27 -3.92725 0.508207 0
M  V30 8323 H 823.444 -3.2345 3.28202 0
M  V30 8324 H 821.759 -3.03341 2.8526 0
M  V30 8325 H 824.356 -5.22425 1.13915 0
M  V30 8326 H 824.699 -4.15814 -0.201036 0
M  V30 8327 H 825.232 -3.70924 1.43736 0
M  V30 8328 H 821.971 -5.13514 4.07411 0
M  V30 8329 H 821.491 -5.49684 2.40015 0
M  V30 8330 H 823.17 -5.76936 2.92839 0
M  V30 8331 N 823.302 -0.75937 -1.38099 0
M  V30 8332 C 824.212 -0.13774 -2.34195 0
M  V30 8333 C 825.228 0.693985 -1.59561 0
M  V30 8334 O 826.404 0.616792 -1.91723 0
M  V30 8335 C 823.469 0.740535 -3.38699 0
M  V30 8336 C 822.53 -0.106225 -4.29169 0
M  V30 8337 C 821.763 0.730225 -5.28681 0
M  V30 8338 O 821.986 1.96796 -5.35376 0
M  V30 8339 O 820.92 0.145969 -6.01723 0
M  V30 8340 H 824.746 -0.931512 -2.89061 0
M  V30 8341 H 822.331 -0.520345 -1.40046 0
M  V30 8342 H 824.213 1.24232 -4.02672 0
M  V30 8343 H 822.888 1.51271 -2.8618 0
M  V30 8344 H 821.795 -0.654088 -3.68337 0
M  V30 8345 H 823.128 -0.841186 -4.84959 0
M  V30 8346 N 824.78 1.49157 -0.508906 0
M  V30 8347 C 825.728 2.30922 0.278906 0
M  V30 8348 C 826.722 1.39889 0.955382 0
M  V30 8349 O 827.928 1.56901 0.882169 0
M  V30 8350 H 824.303 0.744087 0.108805 0
M  V30 8351 H 826.274 2.95277 -0.430583 0
M  V30 8352 C 825.023 3.21432 1.32576 0
M  V30 8353 H 824.346 3.91413 0.814634 0
M  V30 8354 H 825.786 3.81568 1.84882 0
M  V30 8355 C 824.245 2.41583 2.34817 0
M  V30 8356 O 824.775 2.1256 3.40854 0
M  V30 8357 N 822.981 2.03462 2.07489 0
M  V30 8358 H 822.528 2.27265 1.21278 0
M  V30 8359 H 822.486 1.50345 2.76123 0
M  V30 8360 N 826.258 0.243083 1.55714 0
M  V30 8361 C 827.506 -0.381964 1.98458 0
M  V30 8362 C 827.827 -1.58745 1.13247 0
M  V30 8363 O 827.097 -1.94723 0.214384 0
M  V30 8364 H 825.677 -0.144114 0.732967 0
M  V30 8365 H 828.339 0.340985 1.91894 0
M  V30 8366 H 827.435 -0.693702 3.04293 0
M  V30 8367 N 827.736 -1.57571 -0.0300757 0
M  V30 8368 C 828.966 -1.93204 -0.731828 0
M  V30 8369 C 829.374 -0.841156 -1.69473 0
M  V30 8370 O 828.717 0.191231 -1.82702 0
M  V30 8371 C 828.779 -3.2463 -1.54453 0
M  V30 8372 C 828.443 -4.50862 -0.746507 0
M  V30 8373 C 829.44 -5.19879 -0.0472309 0
M  V30 8374 C 827.125 -4.9738 -0.701347 0
M  V30 8375 C 829.119 -6.33692 0.686518 0
M  V30 8376 C 826.806 -6.11089 0.036148 0
M  V30 8377 C 827.804 -6.791 0.728841 0
M  V30 8378 O 827.492 -7.90635 1.45436 0
M  V30 8379 H 827.224 -0.6423 -0.210775 0
M  V30 8380 H 829.778 -2.05398 0.00804194 0
M  V30 8381 H 828.008 -3.0876 -2.32818 0
M  V30 8382 H 829.697 -3.45597 -2.1288 0
M  V30 8383 H 830.463 -4.84945 -0.0731582 0
M  V30 8384 H 826.342 -4.44288 -1.23001 0
M  V30 8385 H 829.886 -6.86711 1.22773 0
M  V30 8386 H 825.783 -6.45468 0.064002 0
M  V30 8387 H 826.551 -8.06988 1.36794 0
M  V30 8388 N 829.214 0.302327 -1.54673 0
M  V30 8389 C 830.439 1.06103 -1.78205 0
M  V30 8390 C 830.864 1.80204 -0.53926 0
M  V30 8391 O 830.222 1.73975 0.510142 0
M  V30 8392 C 830.27 2.01829 -2.98827 0
M  V30 8393 O 829.374 3.10108 -2.71858 0
M  V30 8394 H 828.715 0.30487 -0.589873 0
M  V30 8395 H 831.245 0.340153 -2.01753 0
M  V30 8396 H 831.255 2.44319 -3.2676 0
M  V30 8397 H 829.93 1.473 -3.88942 0
M  V30 8398 H 828.507 2.72142 -2.54937 0
M  V30 8399 N 830.692 1.47107 0.565454 0
M  V30 8400 C 831.92 1.56909 1.3486 0
M  V30 8401 C 832.335 0.216312 1.87557 0
M  V30 8402 O 831.692 -0.789168 1.64555 0
M  V30 8403 C 831.743 2.58776 2.52423 0
M  V30 8404 O 831.464 3.888 2.01906 0
M  V30 8405 C 832.965 2.78683 3.44747 0
M  V30 8406 H 830.185 0.530096 0.411387 0
M  V30 8407 H 832.729 1.92658 0.685782 0
M  V30 8408 H 830.884 2.25983 3.1466 0
M  V30 8409 H 831.298 4.44393 2.78595 0
M  V30 8410 H 832.772 3.53842 4.23674 0
M  V30 8411 H 833.249 1.86208 3.97773 0
M  V30 8412 H 833.855 3.12641 2.88333 0
M  V30 8413 N 832.17 -0.811516 1.35101 0
M  V30 8414 C 833.398 -1.59981 1.31201 0
M  V30 8415 C 833.813 -1.8847 -0.111552 0
M  V30 8416 O 833.17 -1.48414 -1.06205 0
M  V30 8417 C 833.221 -2.934 2.11184 0
M  V30 8418 O 832.942 -2.66148 3.4799 0
M  V30 8419 C 834.443 -3.87776 2.14813 0
M  V30 8420 H 831.663 -0.496921 0.450899 0
M  V30 8421 H 834.207 -1.00886 1.77883 0
M  V30 8422 H 832.362 -3.49022 1.68115 0
M  V30 8423 H 832.776 -3.51301 3.89471 0
M  V30 8424 H 834.25 -4.7852 2.75178 0
M  V30 8425 H 834.727 -4.23997 1.14556 0
M  V30 8426 H 835.333 -3.3809 2.58022 0
M  V30 8427 N 833.648 -1.19017 -1.03309 0
M  V30 8428 C 834.878 -1.01387 -1.80012 0
M  V30 8429 C 835.286 0.440655 -1.83997 0
M  V30 8430 O 834.629 1.31786 -1.27977 0
M  V30 8431 C 834.691 -1.50171 -3.26633 0
M  V30 8432 C 834.355 -2.98213 -3.46292 0
M  V30 8433 C 835.352 -3.96009 -3.36857 0
M  V30 8434 C 833.037 -3.36812 -3.72643 0
M  V30 8435 C 835.031 -5.30399 -3.5349 0
M  V30 8436 C 832.718 -4.71363 -3.88922 0
M  V30 8437 C 833.716 -5.67966 -3.79347 0
M  V30 8438 O 833.404 -7.00079 -3.95151 0
M  V30 8439 H 833.136 -0.357899 -0.573484 0
M  V30 8440 H 835.69 -1.58171 -1.31039 0
M  V30 8441 H 833.92 -0.877586 -3.7661 0
M  V30 8442 H 835.609 -1.28814 -3.84918 0
M  V30 8443 H 836.375 -3.67534 -3.16455 0
M  V30 8444 H 832.254 -2.62175 -3.7919 0
M  V30 8445 H 835.798 -6.05786 -3.45933 0
M  V30 8446 H 831.695 -4.99536 -4.0882 0
M  V30 8447 H 832.463 -7.07092 -4.12266 0
M  V30 8448 N 835.127 1.22348 -0.993418 0
M  V30 8449 C 836.074 2.24294 -0.544118 0
M  V30 8450 C 837.044 1.60602 0.42381 0
M  V30 8451 O 838.229 1.87952 0.328453 0
M  V30 8452 C 835.369 3.44837 0.134578 0
M  V30 8453 C 834.482 4.23043 -0.875151 0
M  V30 8454 C 833.617 5.30928 -0.169919 0
M  V30 8455 C 832.656 6.00853 -1.16798 0
M  V30 8456 N 831.793 7.00381 -0.491021 0
M  V30 8457 H 836.633 2.6209 -1.4182 0
M  V30 8458 H 834.17 1.2881 -0.710384 0
M  V30 8459 H 836.128 4.13625 0.544998 0
M  V30 8460 H 834.758 3.07804 0.972446 0
M  V30 8461 H 833.81 3.53546 -1.40389 0
M  V30 8462 H 835.122 4.71237 -1.63516 0
M  V30 8463 H 834.276 6.05972 0.297205 0
M  V30 8464 H 833.015 4.8371 0.622586 0
M  V30 8465 H 832.02 5.24591 -1.64573 0
M  V30 8466 H 833.245 6.50159 -1.96137 0
M  V30 8467 H 831.191 6.55393 0.282037 0
M  V30 8468 H 831.108 7.46584 -1.18947 0
M  V30 8469 H 832.376 7.79486 -0.0467169 0
M  V30 8470 N 836.605 0.766683 1.37694 0
M  V30 8471 C 837.553 0.137269 2.32195 0
M  V30 8472 C 838.547 -0.69067 1.54681 0
M  V30 8473 O 839.753 -0.588299 1.70115 0
M  V30 8474 H 836.128 0.0256003 0.751564 0
M  V30 8475 H 838.099 0.950129 2.82869 0
M  V30 8476 C 836.848 -0.731446 3.39919 0
M  V30 8477 H 836.171 -0.103738 3.99665 0
M  V30 8478 H 837.611 -1.13891 4.08417 0
M  V30 8479 C 836.07 -1.87984 2.79578 0
M  V30 8480 O 836.6 -2.97496 2.69924 0
M  V30 8481 N 834.806 -1.6789 2.37195 0
M  V30 8482 H 834.353 -0.788162 2.45246 0
M  V30 8483 H 834.311 -2.44894 1.97165 0
M  V30 8484 N 838.083 -1.48885 0.516809 0
M  V30 8485 C 839.332 -2.01686 -0.0239899 0
M  V30 8486 C 839.645 -1.40029 -1.3657 0
M  V30 8487 O 840.851 -1.84249 -1.9941 0
M  V30 8488 C 839.307 -3.59779 -0.0931825 0
M  V30 8489 C 838.915 -4.30416 1.24283 0
M  V30 8490 C 840.659 -4.20471 -0.583507 0
M  V30 8491 C 838.566 -5.80408 1.13494 0
M  V30 8492 H 837.496 -0.753892 -0.0127376 0
M  V30 8493 H 840.147 -1.71273 0.65861 0
M  V30 8494 H 838.529 -3.86976 -0.840577 0
M  V30 8495 H 839.703 -4.14905 2.00476 0
M  V30 8496 H 838.018 -3.81539 1.66785 0
M  V30 8497 H 840.615 -5.30333 -0.681987 0
M  V30 8498 H 840.958 -3.84898 -1.58617 0
M  V30 8499 H 841.491 -3.97654 0.107814 0
M  V30 8500 H 838.23 -6.20532 2.11235 0
M  V30 8501 H 837.75 -5.98368 0.414167 0
M  V30 8502 H 839.429 -6.41781 0.820162 0
M  V30 8503 N 839.561 -0.251338 -1.55583 0
M  V30 8504 C 840.838 0.422729 -1.90977 0
M  V30 8505 C 841.218 1.75534 -1.17265 0
M  V30 8506 O 840.566 2.26632 -0.291588 0
M  V30 8507 C 840.776 0.586448 -3.44037 0
M  V30 8508 C 842.124 0.880294 -4.15375 0
M  V30 8509 O 843.148 0.672148 -3.49801 0
M  V30 8510 O 842.007 1.27694 -5.31372 0
M  V30 8511 H 839.101 0.227622 -0.795058 0
M  V30 8512 H 841.647 -0.295733 -1.67103 0
M  V30 8513 H 840.419 -0.352327 -3.89711 0
M  V30 8514 H 840.042 1.35528 -3.73789 0
M  V30 8515 N 841.039 1.57585 0.0217189 0
M  V30 8516 C 842.286 1.89606 0.711045 0
M  V30 8517 C 842.614 0.849535 1.74966 0
M  V30 8518 O 841.869 -0.14856 1.95135 0
M  V30 8519 C 842.168 3.28377 1.41079 0
M  V30 8520 C 841.834 4.48035 0.507454 0
M  V30 8521 C 840.496 4.80504 0.258672 0
M  V30 8522 C 842.848 5.21071 -0.115793 0
M  V30 8523 C 840.176 5.83393 -0.622013 0
M  V30 8524 C 842.528 6.24897 -0.984224 0
M  V30 8525 C 841.192 6.55836 -1.2424 0
M  V30 8526 H 840.462 0.693817 0.26019 0
M  V30 8527 H 843.109 1.91478 -0.0291424 0
M  V30 8528 H 841.414 3.22528 2.22448 0
M  V30 8529 H 843.111 3.50404 1.94982 0
M  V30 8530 H 839.701 4.22653 0.711516 0
M  V30 8531 H 843.885 4.96259 0.0634327 0
M  V30 8532 H 839.141 6.05736 -0.830267 0
M  V30 8533 H 843.315 6.8063 -1.47363 0
M  V30 8534 H 840.942 7.35383 -1.92653 0
M  V30 8535 N 842.517 -0.29412 1.54831 0
M  V30 8536 C 843.765 -1.02643 1.74094 0
M  V30 8537 C 844.086 -1.87563 0.533402 0
M  V30 8538 O 843.356 -1.9061 -0.452192 0
M  V30 8539 H 841.936 -0.381959 0.641963 0
M  V30 8540 H 844.598 -0.323444 1.92197 0
M  V30 8541 H 843.694 -1.67558 2.63307 0
M  V30 8542 N 843.995 -1.47404 -0.557645 0
M  V30 8543 C 845.272 -1.44488 -1.31843 0
M  V30 8544 C 845.652 -0.1416 -2.10625 0
M  V30 8545 O 845 0.876908 -2.11004 0
M  V30 8546 C 845.21 -2.69016 -2.22331 0
M  V30 8547 C 846.558 -3.16212 -2.83364 0
M  V30 8548 O 847.582 -2.69741 -2.32634 0
M  V30 8549 O 846.441 -3.96999 -3.75571 0
M  V30 8550 H 843.535 -0.57578 -0.593639 0
M  V30 8551 H 846.081 -1.59605 -0.576584 0
M  V30 8552 H 844.853 -3.55406 -1.63715 0
M  V30 8553 H 844.476 -2.56484 -3.03812 0
M  V30 8554 N 845.473 0.80434 -1.35529 0
M  V30 8555 C 846.721 1.55845 -1.28673 0
M  V30 8556 C 847.042 1.94511 0.137976 0
M  V30 8557 O 846.312 1.63775 1.07492 0
M  V30 8558 H 844.892 0.577931 -0.473291 0
M  V30 8559 H 847.554 0.959293 -1.69657 0
M  V30 8560 H 846.65 2.47285 -1.90411 0
M  V30 8561 N 846.951 1.19563 1.02676 0
M  V30 8562 C 847.914 0.937182 2.09164 0
M  V30 8563 C 848.914 -0.0831927 1.60585 0
M  V30 8564 O 850.104 0.15178 1.73538 0
M  V30 8565 C 847.236 0.408912 3.38439 0
M  V30 8566 H 848.429 1.88164 2.33526 0
M  V30 8567 H 845.982 1.00959 1.19319 0
M  V30 8568 H 846.717 -0.541497 3.19747 0
M  V30 8569 H 846.502 1.14464 3.7502 0
M  V30 8570 H 847.992 0.247242 4.16867 0
M  V30 8571 N 848.429 -1.21819 0.999893 0
M  V30 8572 C 849.657 -1.94758 0.698359 0
M  V30 8573 C 850.072 -1.73771 -0.738183 0
M  V30 8574 O 849.429 -1.04113 -1.49889 0
M  V30 8575 C 849.48 -3.47292 1.00353 0
M  V30 8576 O 849.201 -3.67579 2.38363 0
M  V30 8577 C 850.702 -4.37403 0.72068 0
M  V30 8578 H 847.922 -0.619512 0.257771 0
M  V30 8579 H 850.466 -1.54778 1.33656 0
M  V30 8580 H 848.621 -3.85213 0.411018 0
M  V30 8581 H 849.035 -4.61719 2.48829 0
M  V30 8582 H 850.509 -5.43151 0.984422 0
M  V30 8583 H 850.986 -4.3784 -0.345309 0
M  V30 8584 H 851.592 -4.05119 1.29456 0
M  V30 8585 N 849.908 -0.773975 -1.37286 0
M  V30 8586 C 851.133 -0.349561 -2.04433 0
M  V30 8587 C 851.558 1.02082 -1.5799 0
M  V30 8588 O 850.916 1.65458 -0.741172 0
M  V30 8589 C 850.964 -0.404292 -3.58326 0
M  V30 8590 O 850.068 0.594447 -4.08093 0
M  V30 8591 H 849.409 -0.150959 -0.646612 0
M  V30 8592 H 851.939 -1.05079 -1.75555 0
M  V30 8593 H 851.949 -0.262378 -4.07155 0
M  V30 8594 H 850.624 -1.40403 -3.91484 0
M  V30 8595 H 849.201 0.415468 -3.70578 0
M  V30 8596 N 851.386 1.48609 -0.524698 0
M  V30 8597 C 852.632 2.02797 0.0113382 0
M  V30 8598 C 852.965 1.40147 1.34433 0
M  V30 8599 O 852.24 0.545368 1.86698 0
M  V30 8600 C 852.523 3.59832 0.138931 0
M  V30 8601 C 852.376 4.32971 -1.21886 0
M  V30 8602 C 853.695 4.3145 0.868265 0
M  V30 8603 H 850.814 0.736995 0.00264645 0
M  V30 8604 H 853.456 1.77388 -0.680704 0
M  V30 8605 H 851.606 3.81612 0.72834 0
M  V30 8606 H 853.278 4.22624 -1.84897 0
M  V30 8607 H 851.521 3.94597 -1.80211 0
M  V30 8608 H 852.192 5.41279 -1.08263 0
M  V30 8609 H 854.668 4.14468 0.368145 0
M  V30 8610 H 853.544 5.41025 0.926428 0
M  V30 8611 H 853.805 3.98358 1.91737 0
M  V30 8612 N 852.864 0.259585 1.55447 0
M  V30 8613 C 854.092 -0.365392 2.03648 0
M  V30 8614 C 854.507 -1.50613 1.13847 0
M  V30 8615 O 853.864 -1.81837 0.155414 0
M  V30 8616 C 853.915 -0.861172 3.51093 0
M  V30 8617 O 853.636 0.234121 4.37474 0
M  V30 8618 C 855.137 -1.55555 4.15111 0
M  V30 8619 H 852.357 -0.0853439 0.66555 0
M  V30 8620 H 854.901 0.387151 2.00802 0
M  V30 8621 H 853.056 -1.56385 3.54433 0
M  V30 8622 H 853.47 -0.1444 5.24301 0
M  V30 8623 H 854.944 -1.85403 5.19932 0
M  V30 8624 H 855.421 -2.48185 3.62355 0
M  V30 8625 H 856.027 -0.89712 4.15731 0
M  V30 8626 N 854.342 -1.57594 -0.0133615 0
M  V30 8627 C 855.305 -2.06534 -0.993799 0
M  V30 8628 C 856.305 -0.972267 -1.28077 0
M  V30 8629 O 857.495 -1.23537 -1.22818 0
M  V30 8630 C 854.627 -2.49554 -2.3224 0
M  V30 8631 H 855.82 -2.94419 -0.570741 0
M  V30 8632 H 853.373 -1.54113 -0.260546 0
M  V30 8633 H 854.108 -1.64872 -2.79263 0
M  V30 8634 H 853.893 -3.29371 -2.12737 0
M  V30 8635 H 855.383 -2.8779 -3.026 0
M  V30 8636 N 855.82 0.285905 -1.54985 0
M  V30 8637 C 857.236 0.632405 -1.46536 0
M  V30 8638 C 857.436 1.90074 -0.668888 0
M  V30 8639 O 856.492 2.51839 -0.182586 0
M  V30 8640 C 857.805 0.771361 -2.90638 0
M  V30 8641 C 859.353 0.866262 -3.00774 0
M  V30 8642 C 859.828 1.0371 -4.46103 0
M  V30 8643 N 861.319 1.10294 -4.49877 0
M  V30 8644 C 862.054 1.25369 -5.59527 0
M  V30 8645 N 861.55 1.37246 -6.7907 0
M  V30 8646 N 863.343 1.28377 -5.47244 0
M  V30 8647 H 855.494 -0.547226 -2.0523 0
M  V30 8648 H 857.757 -0.183298 -0.930111 0
M  V30 8649 H 857.463 -0.0899485 -3.51585 0
M  V30 8650 H 857.337 1.65569 -3.3892 0
M  V30 8651 H 859.724 1.71805 -2.39931 0
M  V30 8652 H 859.805 -0.0424049 -2.55765 0
M  V30 8653 H 859.449 0.190021 -5.07544 0
M  V30 8654 H 859.379 1.96022 -4.88757 0
M  V30 8655 H 861.87 1.02407 -3.6376 0
M  V30 8656 H 862.183 1.48546 -7.58389 0
M  V30 8657 H 860.528 1.34274 -6.81906 0
M  V30 8658 H 863.719 1.1872 -4.52795 0
M  V30 8659 H 863.892 1.39782 -6.32744 0
M  V30 8660 N 857.298 1.47698 0.54982 0
M  V30 8661 C 858.544 1.54931 1.30859 0
M  V30 8662 C 858.877 0.214021 1.93017 0
M  V30 8663 O 858.152 -0.778093 1.78258 0
M  V30 8664 C 858.435 2.67286 2.41309 0
M  V30 8665 C 858.288 4.10457 1.83971 0
M  V30 8666 C 859.607 2.75509 3.43195 0
M  V30 8667 H 856.726 0.56399 0.474431 0
M  V30 8668 H 859.368 1.79787 0.614541 0
M  V30 8669 H 857.518 2.46224 3.0051 0
M  V30 8670 H 859.19 4.42903 1.28974 0
M  V30 8671 H 857.433 4.18387 1.14606 0
M  V30 8672 H 858.104 4.84857 2.63851 0
M  V30 8673 H 860.58 2.94531 2.93923 0
M  V30 8674 H 859.456 3.55886 4.17895 0
M  V30 8675 H 859.717 1.82863 4.02509 0
M  V30 8676 N 858.776 -0.797141 1.35954 0
M  V30 8677 C 859.739 -1.89104 1.29508 0
M  V30 8678 C 860.739 -1.59495 0.204444 0
M  V30 8679 O 861.929 -1.68051 0.458746 0
M  V30 8680 C 859.061 -3.25726 1.00576 0
M  V30 8681 H 860.254 -1.96237 2.26785 0
M  V30 8682 H 857.807 -0.994075 1.20614 0
M  V30 8683 H 858.542 -3.24279 0.0372519 0
M  V30 8684 H 858.327 -3.48604 1.79492 0
M  V30 8685 H 859.817 -4.0578 0.986508 0
M  V30 8686 N 860.254 -1.20106 -1.0204 0
M  V30 8687 C 861.482 -1.0344 -1.79186 0
M  V30 8688 C 861.897 0.416542 -1.84148 0
M  V30 8689 O 861.254 1.28925 -1.29168 0
M  V30 8690 C 861.305 -1.60663 -3.23836 0
M  V30 8691 O 861.026 -3.00079 -3.19193 0
M  V30 8692 C 862.527 -1.48897 -4.17546 0
M  V30 8693 H 859.747 -0.364093 -0.563629 0
M  V30 8694 H 862.291 -1.5911 -1.28469 0
M  V30 8695 H 860.446 -1.09122 -3.71714 0
M  V30 8696 H 860.86 -3.27162 -4.09958 0
M  V30 8697 H 862.334 -1.93703 -5.16898 0
M  V30 8698 H 862.811 -0.440843 -4.36982 0
M  V30 8699 H 863.417 -1.9961 -3.75547 0
M  V30 8700 N 861.732 1.21287 -1.00634 0
M  V30 8701 C 862.664 2.2308 -0.526094 0
M  V30 8702 C 863.677 1.58157 0.386031 0
M  V30 8703 O 864.866 1.77528 0.186016 0
M  V30 8704 C 861.966 3.37937 0.255289 0
M  V30 8705 C 861.139 4.32449 -0.656236 0
M  V30 8706 C 860.198 5.26145 0.0757714 0
M  V30 8707 O 859.224 5.66601 -0.543325 0
M  V30 8708 N 860.426 5.6449 1.35391 0
M  V30 8709 H 863.191 2.64913 -1.40147 0
M  V30 8710 H 860.752 1.35724 -0.882641 0
M  V30 8711 H 862.744 3.97614 0.753977 0
M  V30 8712 H 861.314 2.95078 1.03187 0
M  V30 8713 H 860.534 3.70892 -1.3354 0
M  V30 8714 H 861.822 4.92526 -1.27653 0
M  V30 8715 H 861.22 5.33617 1.878 0
M  V30 8716 H 859.777 6.26524 1.79753 0
M  V30 8717 N 863.21 0.781244 1.36873 0
M  V30 8718 C 864.158 0.161889 2.32036 0
M  V30 8719 C 865.152 -0.674225 1.55405 0
M  V30 8720 O 866.358 -0.570223 1.70729 0
M  V30 8721 H 862.733 0.0335702 0.75125 0
M  V30 8722 H 864.704 0.980078 2.81846 0
M  V30 8723 C 863.453 -0.695352 3.40676 0
M  V30 8724 H 862.776 -0.0613425 3.99753 0
M  V30 8725 H 864.216 -1.09553 4.09602 0
M  V30 8726 C 862.675 -1.85008 2.81556 0
M  V30 8727 O 863.205 -2.94616 2.73065 0
M  V30 8728 N 861.411 -1.65364 2.38962 0
M  V30 8729 H 860.958 -0.762106 2.46068 0
M  V30 8730 H 860.916 -2.42789 1.99752 0
M  V30 8731 N 864.689 -1.48329 0.532571 0
M  V30 8732 C 865.652 -2.2816 -0.218069 0
M  V30 8733 C 866.652 -1.35526 -0.865409 0
M  V30 8734 O 867.842 -1.58394 -0.725061 0
M  V30 8735 C 864.974 -3.1448 -1.31586 0
M  V30 8736 H 866.167 -2.95987 0.482865 0
M  V30 8737 H 863.72 -1.53612 0.288603 0
M  V30 8738 H 864.455 -2.5129 -2.04997 0
M  V30 8739 H 864.24 -3.82625 -0.856779 0
M  V30 8740 H 865.73 -3.74693 -1.84377 0
M  V30 8741 N 866.167 -0.267825 -1.55308 0
M  V30 8742 C 867.395 0.354587 -2.03839 0
M  V30 8743 C 867.81 1.50007 -1.14644 0
M  V30 8744 O 867.167 1.81752 -0.165055 0
M  V30 8745 C 867.218 0.84254 -3.51544 0
M  V30 8746 O 866.939 -0.257318 -4.37344 0
M  V30 8747 C 868.44 1.53351 -4.15931 0
M  V30 8748 H 865.66 0.0818131 -0.665994 0
M  V30 8749 H 868.204 -0.397795 -2.00594 0
M  V30 8750 H 866.359 1.54503 -3.55257 0
M  V30 8751 H 866.773 0.116593 -5.2437 0
M  V30 8752 H 868.247 1.82643 -5.20908 0
M  V30 8753 H 868.724 2.4626 -3.63666 0
M  V30 8754 H 869.33 0.87506 -4.162 0
M  V30 8755 N 867.645 1.57599 0.00500368 0
M  V30 8756 C 868.873 1.94626 0.702016 0
M  V30 8757 C 869.288 0.86953 1.67585 0
M  V30 8758 O 868.645 -0.15199 1.81866 0
M  V30 8759 C 868.696 3.31658 1.43824 0
M  V30 8760 O 868.417 4.35197 0.503467 0
M  V30 8761 C 869.918 3.83114 2.23021 0
M  V30 8762 H 867.138 0.641785 0.195841 0
M  V30 8763 H 869.682 2.04451 -0.0446287 0
M  V30 8764 H 867.837 3.23156 2.13655 0
M  V30 8765 H 868.251 5.1444 1.02235 0
M  V30 8766 H 869.725 4.81438 2.7004 0
M  V30 8767 H 870.202 3.15559 3.05482 0
M  V30 8768 H 870.808 3.94775 1.58216 0
M  V30 8769 N 869.123 -0.277682 1.55134 0
M  V30 8770 C 870.372 -1.00766 1.74726 0
M  V30 8771 C 870.685 -1.87617 0.553092 0
M  V30 8772 O 871.891 -2.64058 0.631318 0
M  V30 8773 C 870.347 -1.84147 3.09221 0
M  V30 8774 C 869.955 -1.02186 4.3619 0
M  V30 8775 C 871.699 -2.56604 3.38164 0
M  V30 8776 C 869.606 -1.84978 5.61727 0
M  V30 8777 H 868.536 -0.379948 0.651273 0
M  V30 8778 H 871.187 -0.263543 1.81598 0
M  V30 8779 H 869.569 -2.62637 2.96375 0
M  V30 8780 H 870.743 -0.281459 4.5994 0
M  V30 8781 H 869.058 -0.412054 4.14356 0
M  V30 8782 H 871.655 -3.18942 4.29162 0
M  V30 8783 H 871.998 -3.26647 2.58085 0
M  V30 8784 H 872.531 -1.85147 3.52087 0
M  V30 8785 H 869.27 -1.19365 6.4454 0
M  V30 8786 H 868.79 -2.56628 5.42128 0
M  V30 8787 H 870.469 -2.42458 5.99853 0
M  V30 8788 N 870.601 -1.47988 -0.541979 0
M  V30 8789 C 871.533 -1.5769 -1.66332 0
M  V30 8790 C 872.546 -0.461994 -1.56107 0
M  V30 8791 O 873.735 -0.732306 -1.62787 0
M  V30 8792 C 870.835 -1.47939 -3.04905 0
M  V30 8793 C 870.008 -2.74263 -3.40733 0
M  V30 8794 C 869.067 -2.58133 -4.58534 0
M  V30 8795 O 868.093 -3.31991 -4.62354 0
M  V30 8796 N 869.295 -1.6696 -5.55972 0
M  V30 8797 H 872.06 -2.54389 -1.5845 0
M  V30 8798 H 869.621 -1.4456 -0.728979 0
M  V30 8799 H 871.613 -1.34861 -3.81569 0
M  V30 8800 H 870.183 -0.592626 -3.06931 0
M  V30 8801 H 869.403 -3.01992 -2.53366 0
M  V30 8802 H 870.691 -3.58094 -3.6145 0
M  V30 8803 H 870.089 -1.06134 -5.55655 0
M  V30 8804 H 868.646 -1.59826 -6.31901 0
M  V30 8805 N 872.079 0.78992 -1.36375 0
M  V30 8806 C 873.325 1.55007 -1.3077 0
M  V30 8807 C 873.658 1.93871 0.112979 0
M  V30 8808 O 872.933 1.6267 1.06625 0
M  V30 8809 C 873.216 2.82748 -2.22993 0
M  V30 8810 C 873.069 2.50253 -3.73756 0
M  V30 8811 C 874.388 3.84569 -2.13998 0
M  V30 8812 H 871.507 0.562362 -0.476359 0
M  V30 8813 H 874.149 0.907582 -1.66922 0
M  V30 8814 H 872.299 3.37573 -1.92292 0
M  V30 8815 H 873.971 2.01482 -4.14973 0
M  V30 8816 H 872.214 1.83203 -3.93216 0
M  V30 8817 H 872.885 3.41487 -4.33694 0
M  V30 8818 H 875.361 3.39188 -2.4102 0
M  V30 8819 H 874.237 4.717 -2.80697 0
M  V30 8820 H 874.498 4.27491 -1.12711 0
M  V30 8821 N 873.557 1.20646 1.01402 0
M  V30 8822 C 874.973 0.961866 1.27359 0
M  V30 8823 C 875.173 -0.357083 1.98311 0
M  V30 8824 O 874.229 -1.08498 2.28001 0
M  V30 8825 C 875.542 2.14627 2.10609 0
M  V30 8826 C 877.09 2.18753 2.23866 0
M  V30 8827 C 877.565 3.36686 3.10494 0
M  V30 8828 N 879.056 3.36716 3.18083 0
M  V30 8829 C 879.791 4.24615 3.85343 0
M  V30 8830 N 879.287 5.22697 4.54708 0
M  V30 8831 N 881.08 4.12449 3.81893 0
M  V30 8832 H 873.231 2.05481 0.537721 0
M  V30 8833 H 875.494 0.899292 0.299963 0
M  V30 8834 H 875.2 3.10159 1.65814 0
M  V30 8835 H 875.074 2.12935 3.11349 0
M  V30 8836 H 877.461 1.23782 2.67885 0
M  V30 8837 H 877.542 2.24492 1.22626 0
M  V30 8838 H 877.186 4.31945 2.67181 0
M  V30 8839 H 877.116 3.28185 4.11828 0
M  V30 8840 H 879.607 2.65728 2.68695 0
M  V30 8841 H 879.92 5.86087 5.03708 0
M  V30 8842 H 878.265 5.26631 4.53525 0
M  V30 8843 H 881.456 3.35091 3.26851 0
M  V30 8844 H 881.629 4.81162 4.34035 0
M  V30 8845 N 875.035 -1.20752 1.01276 0
M  V30 8846 C 875.965 -2.25658 0.600064 0
M  V30 8847 C 876.946 -1.65733 -0.38298 0
M  V30 8848 O 878.131 -1.92324 -0.269256 0
M  V30 8849 C 875.261 -3.47237 -0.0663197 0
M  V30 8850 C 874.215 -4.1973 0.83731 0
M  V30 8851 C 873.541 -5.34687 0.0369102 0
M  V30 8852 C 874.841 -4.76286 2.14357 0
M  V30 8853 H 876.535 -2.60432 1.477 0
M  V30 8854 H 874.081 -1.25187 0.711634 0
M  V30 8855 H 876.034 -4.19803 -0.366563 0
M  V30 8856 H 874.758 -3.11615 -0.977944 0
M  V30 8857 H 873.417 -3.49024 1.1215 0
M  V30 8858 H 873.065 -4.95309 -0.876244 0
M  V30 8859 H 872.765 -5.84119 0.63865 0
M  V30 8860 H 874.289 -6.10059 -0.256968 0
M  V30 8861 H 875.703 -5.40691 1.90595 0
M  V30 8862 H 874.1 -5.36139 2.69583 0
M  V30 8863 H 875.17 -3.9524 2.80916 0
M  V30 8864 N 876.513 -0.788492 -1.36457 0
M  V30 8865 C 877.761 -0.359749 -1.98872 0
M  V30 8866 C 878.082 1.07197 -1.62892 0
M  V30 8867 O 877.352 1.73875 -0.902463 0
M  V30 8868 H 875.932 -0.130029 -0.735596 0
M  V30 8869 H 878.594 -1.01033 -1.66668 0
M  V30 8870 H 877.69 -0.450835 -3.08827 0
M  V30 8871 N 877.991 1.48044 -0.54043 0
M  V30 8872 C 879.216 2.07396 -0.0124765 0
M  V30 8873 C 879.641 1.39288 1.26414 0
M  V30 8874 O 878.999 0.462252 1.75308 0
M  V30 8875 C 879.047 3.60131 0.18377 0
M  V30 8876 O 878.151 3.92995 1.25014 0
M  V30 8877 H 877.492 0.662554 -0.0438026 0
M  V30 8878 H 880.022 1.90306 -0.751327 0
M  V30 8879 H 880.032 4.06003 0.403197 0
M  V30 8880 H 878.707 4.09105 -0.74874 0
M  V30 8881 H 877.284 3.5889 1.01254 0
M  V30 8882 N 879.47 0.276058 1.55163 0
M  V30 8883 C 880.881 -0.221516 1.85381 0
M  V30 8884 C 881.232 -1.55372 1.19808 0
M  V30 8885 O 880.357 -2.10855 0.486742 0
M  V30 8886 C 880.952 -0.408706 3.36326 0
M  V30 8887 C 879.511 -0.850512 3.66665 0
M  V30 8888 C 878.658 0.055656 2.77244 0
M  V30 8889 H 881.609 0.497819 1.5069 0
M  V30 8890 H 881.63 -1.24711 3.59482 0
M  V30 8891 H 881.142 0.561052 3.84023 0
M  V30 8892 H 879.243 -1.83171 3.24468 0
M  V30 8893 H 879.356 -0.687181 4.74146 0
M  V30 8894 H 877.72 -0.460819 2.50497 0
M  V30 8895 H 878.503 1.02131 3.27756 0
M  V30 8896 N 880.948 -1.576 0.00335426 0
M  V30 8897 C 882.173 -1.95398 -0.695311 0
M  V30 8898 C 882.598 -0.878476 -1.66326 0
M  V30 8899 O 881.956 0.163086 -1.80565 0
M  V30 8900 C 882.004 -3.32293 -1.40049 0
M  V30 8901 O 881.108 -3.26834 -2.51502 0
M  V30 8902 H 880.449 -0.637796 -0.184694 0
M  V30 8903 H 882.979 -2.04519 0.057543 0
M  V30 8904 H 882.989 -3.67936 -1.76316 0
M  V30 8905 H 881.664 -4.10123 -0.690803 0
M  V30 8906 H 880.241 -3.02872 -2.17539 0
M  V30 8907 N 882.426 0.269451 -1.5528 0
M  V30 8908 C 883.674 0.998604 -1.75705 0
M  V30 8909 C 883.995 1.86691 -0.563175 0
M  V30 8910 O 883.265 1.91305 0.421811 0
M  V30 8911 H 881.845 0.371698 -0.647958 0
M  V30 8912 H 884.507 0.292826 -1.92688 0
M  V30 8913 H 883.603 1.63348 -2.6594 0
M  V30 8914 N 883.904 1.48273 0.534124 0
M  V30 8915 C 885.132 1.59734 1.31501 0
M  V30 8916 C 885.547 0.256047 1.87056 0
M  V30 8917 O 884.904 -0.754086 1.66192 0
M  V30 8918 C 884.955 2.64072 2.46877 0
M  V30 8919 O 884.676 3.92995 1.93613 0
M  V30 8920 C 886.177 2.85933 3.38758 0
M  V30 8921 H 883.397 0.538703 0.40005 0
M  V30 8922 H 885.941 1.9407 0.644762 0
M  V30 8923 H 884.096 2.32606 3.09795 0
M  V30 8924 H 884.51 4.50203 2.69106 0
M  V30 8925 H 885.984 3.62749 4.16073 0
M  V30 8926 H 886.461 1.94603 3.93734 0
M  V30 8927 H 887.067 3.18687 2.81636 0
M  V30 8928 N 885.382 -0.782676 1.36792 0
M  V30 8929 C 886.312 -1.90973 1.34356 0
M  V30 8930 C 887.293 -1.6875 0.213917 0
M  V30 8931 O 888.478 -1.89766 0.412601 0
M  V30 8932 C 885.608 -3.28097 1.13884 0
M  V30 8933 C 884.562 -3.6486 2.23744 0
M  V30 8934 C 883.888 -5.00406 1.88408 0
M  V30 8935 C 885.188 -3.72742 3.6587 0
M  V30 8936 H 886.882 -1.93268 2.28665 0
M  V30 8937 H 884.428 -0.928447 1.10072 0
M  V30 8938 H 886.381 -4.06569 1.10813 0
M  V30 8939 H 885.105 -3.26206 0.160275 0
M  V30 8940 H 883.764 -2.88689 2.25952 0
M  V30 8941 H 883.412 -4.95044 0.891083 0
M  V30 8942 H 883.112 -5.25973 2.61966 0
M  V30 8943 H 884.636 -5.81291 1.86905 0
M  V30 8944 H 886.05 -4.4139 3.65852 0
M  V30 8945 H 884.447 -4.09798 4.38389 0
M  V30 8946 H 885.517 -2.73676 4.00287 0
M  V30 8947 N 886.86 -1.21182 -1.00761 0
M  V30 8948 C 887.79 -0.992773 -2.11344 0
M  V30 8949 C 888.771 0.0813618 -1.69905 0
M  V30 8950 O 889.956 -0.0779503 -1.94043 0
M  V30 8951 C 887.086 -0.553826 -3.42856 0
M  V30 8952 C 886.04 -1.57223 -3.98077 0
M  V30 8953 C 885.366 -0.989605 -5.25463 0
M  V30 8954 C 886.666 -2.95839 -4.30438 0
M  V30 8955 H 888.36 -1.91766 -2.29927 0
M  V30 8956 H 885.906 -0.923426 -1.10494 0
M  V30 8957 H 887.859 -0.387771 -4.19612 0
M  V30 8958 H 886.583 0.406702 -3.24058 0
M  V30 8959 H 885.242 -1.7258 -3.23437 0
M  V30 8960 H 884.89 -0.0208743 -5.02996 0
M  V30 8961 H 884.59 -1.66984 -5.63374 0
M  V30 8962 H 886.114 -0.834815 -6.04866 0
M  V30 8963 H 887.528 -2.8394 -4.98047 0
M  V30 8964 H 885.925 -3.60851 -4.79486 0
M  V30 8965 H 886.995 -3.46882 -3.38823 0
M  V30 8966 N 888.338 1.20213 -1.01915 0
M  V30 8967 C 889.586 1.89272 -0.708552 0
M  V30 8968 C 889.907 1.79394 0.76438 0
M  V30 8969 O 889.177 1.198 1.54999 0
M  V30 8970 H 887.757 0.700628 -0.259094 0
M  V30 8971 H 890.419 1.45985 -1.29129 0
M  V30 8972 H 889.515 2.95841 -0.994215 0
M  V30 8973 N 889.816 0.795718 1.36037 0
M  V30 8974 C 891.044 0.383153 2.03321 0
M  V30 8975 C 891.459 -1.00246 1.59988 0
M  V30 8976 O 890.816 -1.64406 0.792265 0
M  V30 8977 C 890.867 0.444467 3.58757 0
M  V30 8978 O 890.588 1.77544 4.00512 0
M  V30 8979 C 892.089 0.0233291 4.43294 0
M  V30 8980 H 889.309 0.157061 0.652359 0
M  V30 8981 H 891.853 1.07632 1.73884 0
M  V30 8982 H 890.008 -0.200341 3.86882 0
M  V30 8983 H 890.422 1.73065 4.95125 0
M  V30 8984 H 891.896 0.117361 5.51875 0
M  V30 8985 H 892.373 -1.03007 4.2695 0
M  V30 8986 H 892.979 0.64087 4.20444 0
M  V30 8987 N 891.294 -1.47756 0.548274 0
M  V30 8988 C 892.543 -2.01691 0.0187961 0
M  V30 8989 C 892.856 -1.42894 -1.33569 0
M  V30 8990 O 894.062 -1.88438 -1.95457 0
M  V30 8991 C 892.518 -3.59896 -0.016847 0
M  V30 8992 C 892.126 -4.27683 1.33385 0
M  V30 8993 C 893.87 -4.21614 -0.494188 0
M  V30 8994 C 891.777 -5.7787 1.2578 0
M  V30 8995 H 890.707 -0.753993 0.00325648 0
M  V30 8996 H 893.358 -1.69838 0.694792 0
M  V30 8997 H 891.74 -3.88672 -0.758304 0
M  V30 8998 H 892.914 -4.10559 2.09232 0
M  V30 8999 H 891.229 -3.77915 1.7484 0
M  V30 9000 H 893.826 -5.3166 -0.569342 0
M  V30 9001 H 894.169 -3.88176 -1.50417 0
M  V30 9002 H 894.702 -3.97336 0.192138 0
M  V30 9003 H 891.441 -6.15912 2.2435 0
M  V30 9004 H 890.961 -5.97355 0.540997 0
M  V30 9005 H 892.64 -6.39897 0.956109 0
M  V30 9006 N 892.772 -0.284283 -1.55015 0
M  V30 9007 C 894.002 0.332465 -2.03907 0
M  V30 9008 C 894.41 1.49331 -1.16177 0
M  V30 9009 O 893.753 1.82851 -0.176395 0
M  V30 9010 C 893.815 0.867193 -3.48884 0
M  V30 9011 C 893.479 -0.166198 -4.56698 0
M  V30 9012 C 894.476 -0.988898 -5.10408 0
M  V30 9013 C 892.161 -0.303081 -5.01385 0
M  V30 9014 C 894.155 -1.93458 -6.07333 0
M  V30 9015 C 891.842 -1.25223 -5.98133 0
M  V30 9016 C 892.84 -2.06647 -6.50988 0
M  V30 9017 O 892.528 -2.99955 -7.45843 0
M  V30 9018 H 892.26 0.0786597 -0.671408 0
M  V30 9019 H 894.814 -0.416871 -2.01125 0
M  V30 9020 H 893.044 1.66676 -3.48935 0
M  V30 9021 H 894.733 1.39802 -3.81065 0
M  V30 9022 H 895.499 -0.89393 -4.76691 0
M  V30 9023 H 891.378 0.320711 -4.59883 0
M  V30 9024 H 894.922 -2.57053 -6.48513 0
M  V30 9025 H 890.819 -1.34798 -6.31268 0
M  V30 9026 H 891.587 -2.94742 -7.6359 0
M  V30 9027 N 894.251 1.57596 -0.0117121 0
M  V30 9028 C 895.497 1.91355 0.671661 0
M  V30 9029 C 895.83 0.886818 1.72769 0
M  V30 9030 O 895.105 -0.0928813 1.94278 0
M  V30 9031 C 895.388 3.35657 1.30409 0
M  V30 9032 C 895.241 4.49055 0.2588 0
M  V30 9033 C 896.56 3.79595 2.22701 0
M  V30 9034 H 893.679 0.695893 0.242698 0
M  V30 9035 H 896.321 1.89887 -0.0654071 0
M  V30 9036 H 894.471 3.37038 1.9323 0
M  V30 9037 H 896.143 4.59809 -0.370631 0
M  V30 9038 H 894.386 4.31785 -0.417672 0
M  V30 9039 H 895.057 5.4701 0.740578 0
M  V30 9040 H 897.533 3.7984 1.69885 0
M  V30 9041 H 896.409 4.81292 2.63912 0
M  V30 9042 H 896.67 3.14118 3.11098 0
M  V30 9043 N 895.729 -0.261212 1.5542 0
M  V30 9044 C 896.977 -0.989272 1.76232 0
M  V30 9045 C 897.298 -1.86389 0.573067 0
M  V30 9046 O 896.568 -1.91526 -0.41166 0
M  V30 9047 H 895.148 -0.368256 0.64992 0
M  V30 9048 H 897.81 -0.282603 1.9284 0
M  V30 9049 H 896.906 -1.61935 2.66802 0
M  V30 9050 N 897.207 -1.48554 -0.526253 0
M  V30 9051 C 898.432 -1.60686 -1.31129 0
M  V30 9052 C 898.857 -0.268701 -1.86171 0
M  V30 9053 O 898.215 0.760167 -1.64594 0
M  V30 9054 C 898.263 -2.65938 -2.43536 0
M  V30 9055 O 897.367 -2.23356 -3.46678 0
M  V30 9056 H 896.708 -0.538691 -0.388211 0
M  V30 9057 H 899.238 -1.94567 -0.632826 0
M  V30 9058 H 899.248 -2.87327 -2.89668 0
M  V30 9059 H 897.923 -3.63085 -2.02835 0
M  V30 9060 H 896.5 -2.12196 -3.06639 0
M  V30 9061 N 898.685 0.775411 -1.37205 0
M  V30 9062 C 899.913 1.56446 -1.35397 0
M  V30 9063 C 900.328 1.887 0.0615437 0
M  V30 9064 O 899.685 1.51178 1.02233 0
M  V30 9065 C 899.736 2.87697 -2.18889 0
M  V30 9066 O 899.457 2.56828 -3.54924 0
M  V30 9067 C 900.958 3.81944 -2.25019 0
M  V30 9068 H 898.178 0.484792 -0.463916 0
M  V30 9069 H 900.722 0.961346 -1.80495 0
M  V30 9070 H 898.877 3.44442 -1.7731 0
M  V30 9071 H 899.291 3.40851 -3.98649 0
M  V30 9072 H 900.765 4.71055 -2.87769 0
M  V30 9073 H 901.242 4.20811 -1.25757 0
M  V30 9074 H 901.848 3.3113 -2.66895 0
M  V30 9075 N 900.163 1.21714 1.00117 0
M  V30 9076 C 901.411 1.03465 1.73607 0
M  V30 9077 C 901.732 -0.432295 1.90148 0
M  V30 9078 O 901.002 -1.31157 1.45515 0
M  V30 9079 H 899.582 0.379857 0.643209 0
M  V30 9080 H 902.244 1.53088 1.20624 0
M  V30 9081 H 901.34 1.50574 2.73375 0
M  V30 9082 N 901.641 -1.19671 1.02551 0
M  V30 9083 C 902.866 -1.93774 0.739363 0
M  V30 9084 C 903.291 -1.74787 -0.695064 0
M  V30 9085 O 902.649 -1.04796 -1.47944 0
M  V30 9086 C 902.697 -3.43684 1.09149 0
M  V30 9087 O 901.801 -4.11874 0.208213 0
M  V30 9088 H 901.142 -0.605064 0.273484 0
M  V30 9089 H 903.672 -1.51846 1.37128 0
M  V30 9090 H 903.682 -3.94339 1.04695 0
M  V30 9091 H 902.357 -3.56826 2.13654 0
M  V30 9092 H 900.934 -3.716 0.311045 0
M  V30 9093 N 903.119 -0.802921 -1.35613 0
M  V30 9094 C 904.366 -0.381576 -1.98872 0
M  V30 9095 C 904.694 1.0503 -1.63704 0
M  V30 9096 O 903.949 1.7427 -0.890418 0
M  V30 9097 C 904.248 -0.507806 -3.53774 0
M  V30 9098 C 903.914 -1.90245 -4.088 0
M  V30 9099 C 902.576 -2.28401 -4.2354 0
M  V30 9100 C 904.928 -2.81504 -4.3864 0
M  V30 9101 C 902.256 -3.57192 -4.65436 0
M  V30 9102 C 904.608 -4.09737 -4.81973 0
M  V30 9103 C 903.272 -4.47897 -4.94919 0
M  V30 9104 H 902.542 -0.139629 -0.727726 0
M  V30 9105 H 905.189 -1.023 -1.61886 0
M  V30 9106 H 903.494 0.21708 -3.91198 0
M  V30 9107 H 905.191 -0.162625 -4.0067 0
M  V30 9108 H 901.781 -1.596 -3.97776 0
M  V30 9109 H 905.965 -2.53276 -4.26808 0
M  V30 9110 H 901.221 -3.86611 -4.73648 0
M  V30 9111 H 905.395 -4.80555 -5.04024 0
M  V30 9112 H 903.022 -5.47747 -5.27141 0
M  V30 9113 N 904.597 1.47463 -0.556102 0
M  V30 9114 C 905.874 1.9557 0.0339892 0
M  V30 9115 C 906.254 1.49869 1.48669 0
M  V30 9116 O 905.602 0.737019 2.16288 0
M  V30 9117 C 905.812 3.48826 -0.110343 0
M  V30 9118 C 907.16 4.24585 0.0355716 0
M  V30 9119 O 908.184 3.5618 -0.0378356 0
M  V30 9120 O 907.043 5.46158 0.193299 0
M  V30 9121 H 904.137 0.824461 0.0647521 0
M  V30 9122 H 906.683 1.57868 -0.622547 0
M  V30 9123 H 905.455 3.74891 -1.12126 0
M  V30 9124 H 905.078 3.9329 0.583855 0
M  V30 9125 N 906.075 0.2925 1.54862 0
M  V30 9126 C 907.303 -0.322113 2.04377 0
M  V30 9127 C 907.718 -1.48164 1.17016 0
M  V30 9128 O 907.075 -1.81466 0.19395 0
M  V30 9129 C 907.126 -0.786506 3.5284 0
M  V30 9130 O 906.847 0.326863 4.36879 0
M  V30 9131 C 908.348 -1.46715 4.18318 0
M  V30 9132 H 905.568 -0.0712074 0.667211 0
M  V30 9133 H 908.112 0.429657 1.99935 0
M  V30 9134 H 906.267 -1.48832 3.5767 0
M  V30 9135 H 906.681 -0.0331558 5.2449 0
M  V30 9136 H 908.155 -1.74333 5.23748 0
M  V30 9137 H 908.632 -2.40443 3.67538 0
M  V30 9138 H 909.238 -0.808735 4.1754 0
M  V30 9139 N 907.553 -1.57587 0.0200696 0
M  V30 9140 C 908.783 -1.95435 -0.669991 0
M  V30 9141 C 909.191 -0.894647 -1.66711 0
M  V30 9142 O 908.534 0.133009 -1.83218 0
M  V30 9143 C 908.596 -3.29379 -1.44047 0
M  V30 9144 C 908.26 -4.53008 -0.602691 0
M  V30 9145 C 909.257 -5.19766 0.118188 0
M  V30 9146 C 906.942 -4.99359 -0.542754 0
M  V30 9147 C 908.936 -6.31187 0.887774 0
M  V30 9148 C 906.623 -6.10665 0.230543 0
M  V30 9149 C 907.621 -6.76438 0.944522 0
M  V30 9150 O 907.309 -7.85608 1.70516 0
M  V30 9151 H 907.041 -0.648681 -0.190234 0
M  V30 9152 H 909.595 -2.05269 0.0733838 0
M  V30 9153 H 907.825 -3.1601 -2.22878 0
M  V30 9154 H 909.514 -3.52194 -2.01777 0
M  V30 9155 H 910.28 -4.84932 0.0811604 0
M  V30 9156 H 906.159 -4.47976 -1.08804 0
M  V30 9157 H 909.703 -6.82458 1.44558 0
M  V30 9158 H 905.6 -6.44938 0.26932 0
M  V30 9159 H 906.368 -8.02228 1.62398 0
M  V30 9160 N 909.032 0.252966 -1.55557 0
M  V30 9161 C 910.448 0.60118 -1.47844 0
M  V30 9162 C 910.648 1.88612 -0.709055 0
M  V30 9163 O 909.704 2.51395 -0.235964 0
M  V30 9164 C 911.017 0.709539 -2.92209 0
M  V30 9165 C 912.565 0.802269 -3.02544 0
M  V30 9166 C 913.04 0.94224 -4.48203 0
M  V30 9167 N 914.531 1.00726 -4.52116 0
M  V30 9168 C 915.266 1.13472 -5.6206 0
M  V30 9169 N 914.762 1.22811 -6.81828 0
M  V30 9170 N 916.555 1.1674 -5.49844 0
M  V30 9171 H 908.706 -0.590635 -2.04023 0
M  V30 9172 H 910.969 -0.202986 -0.926013 0
M  V30 9173 H 910.675 -0.164505 -3.51315 0
M  V30 9174 H 910.549 1.58343 -3.42356 0
M  V30 9175 H 912.936 1.66677 -2.43522 0
M  V30 9176 H 913.017 -0.0966469 -2.55617 0
M  V30 9177 H 912.661 0.0823209 -5.07833 0
M  V30 9178 H 912.591 1.85611 -4.92805 0
M  V30 9179 H 915.082 0.946684 -3.6585 0
M  V30 9180 H 915.395 1.32426 -7.61369 0
M  V30 9181 H 913.74 1.19779 -6.84601 0
M  V30 9182 H 916.931 1.09089 -4.55211 0
M  V30 9183 H 917.104 1.26329 -6.35567 0
M  V30 9184 N 910.51 1.48831 0.518367 0
M  V30 9185 C 911.787 1.47933 1.27966 0
M  V30 9186 C 912.167 0.197393 2.10175 0
M  V30 9187 O 911.515 -0.820656 2.13255 0
M  V30 9188 C 911.725 2.74816 2.15121 0
M  V30 9189 C 913.073 3.23613 2.74881 0
M  V30 9190 O 914.097 2.75814 2.254 0
M  V30 9191 O 912.956 4.06818 3.64913 0
M  V30 9192 H 910.05 0.591316 0.578164 0
M  V30 9193 H 912.596 1.61077 0.534065 0
M  V30 9194 H 911.368 3.59621 1.54234 0
M  V30 9195 H 910.991 2.64449 2.96905 0
M  V30 9196 N 911.988 -0.768124 1.37614 0
M  V30 9197 C 913.234 -1.52907 1.33219 0
M  V30 9198 C 913.567 -1.94026 -0.0821218 0
M  V30 9199 O 912.842 -1.64345 -1.04023 0
M  V30 9200 C 913.125 -2.79164 2.27463 0
M  V30 9201 C 912.978 -2.44276 3.7769 0
M  V30 9202 C 914.297 -3.81115 2.20089 0
M  V30 9203 H 911.416 -0.554712 0.485246 0
M  V30 9204 H 914.058 -0.880911 1.68345 0
M  V30 9205 H 912.208 -3.34472 1.97639 0
M  V30 9206 H 913.88 -1.94855 4.18126 0
M  V30 9207 H 912.123 -1.76925 3.96081 0
M  V30 9208 H 912.794 -3.34544 4.39072 0
M  V30 9209 H 915.27 -3.35311 2.46386 0
M  V30 9210 H 914.146 -4.67174 2.88166 0
M  V30 9211 H 914.407 -4.25644 1.19498 0
M  V30 9212 N 913.466 -1.22244 -0.994698 0
M  V30 9213 C 914.691 -1.07299 -1.77487 0
M  V30 9214 C 915.116 0.372302 -1.84379 0
M  V30 9215 O 914.474 1.2689 -1.29494 0
M  V30 9216 C 914.522 -1.68675 -3.18718 0
M  V30 9217 O 913.626 -0.939202 -4.01563 0
M  V30 9218 H 912.967 -0.376979 -0.546611 0
M  V30 9219 H 915.497 -1.62003 -1.24965 0
M  V30 9220 H 915.507 -1.73324 -3.69354 0
M  V30 9221 H 914.182 -2.73849 -3.13017 0
M  V30 9222 H 912.759 -0.968583 -3.60101 0
M  V30 9223 N 914.944 1.19125 -1.03184 0
M  V30 9224 C 915.907 2.20662 -0.619766 0
M  V30 9225 C 916.907 1.57621 0.318179 0
M  V30 9226 O 918.097 1.73885 0.104783 0
M  V30 9227 C 915.229 3.40774 0.0926696 0
M  V30 9228 H 916.422 2.58633 -1.5182 0
M  V30 9229 H 913.975 1.32855 -0.823364 0
M  V30 9230 H 914.71 3.08324 1.00531 0
M  V30 9231 H 914.495 3.87766 -0.581344 0
M  V30 9232 H 915.985 4.15977 0.367792 0
M  V30 9233 N 916.422 0.810101 1.35185 0
M  V30 9234 C 917.65 0.404696 2.02903 0
M  V30 9235 C 918.065 -0.985434 1.61042 0
M  V30 9236 O 917.422 -1.63557 0.809658 0
M  V30 9237 C 917.473 0.482493 3.58266 0
M  V30 9238 O 917.194 1.81782 3.98606 0
M  V30 9239 C 918.695 0.070345 4.43244 0
M  V30 9240 H 915.915 0.163972 0.650657 0
M  V30 9241 H 918.459 1.0947 1.72733 0
M  V30 9242 H 916.614 -0.159296 3.87072 0
M  V30 9243 H 917.028 1.78306 4.93262 0
M  V30 9244 H 918.502 0.175888 5.5172 0
M  V30 9245 H 918.979 -0.984724 4.28018 0
M  V30 9246 H 919.585 0.685427 4.1974 0
M  V30 9247 N 917.9 -1.47166 0.563914 0
M  V30 9248 C 919.149 -2.0166 0.0401871 0
M  V30 9249 C 919.462 -1.44303 -1.32046 0
M  V30 9250 O 920.668 -1.905 -1.93448 0
M  V30 9251 C 919.124 -3.59894 0.0213257 0
M  V30 9252 C 918.732 -4.26244 1.37914 0
M  V30 9253 C 920.476 -4.22114 -0.449442 0
M  V30 9254 C 918.383 -5.76503 1.31902 0
M  V30 9255 H 917.313 -0.753916 0.0112534 0
M  V30 9256 H 919.964 -1.69091 0.712766 0
M  V30 9257 H 918.346 -3.89454 -0.717038 0
M  V30 9258 H 919.52 -4.08317 2.13574 0
M  V30 9259 H 917.835 -3.76039 1.78839 0
M  V30 9260 H 920.432 -5.32234 -0.51292 0
M  V30 9261 H 920.775 -3.89749 -1.46291 0
M  V30 9262 H 921.308 -3.9711 0.23427 0
M  V30 9263 H 918.047 -6.13498 2.3087 0
M  V30 9264 H 917.567 -5.96748 0.604324 0
M  V30 9265 H 919.246 -6.38846 1.02392 0
M  V30 9266 N 919.378 -0.300708 -1.54705 0
M  V30 9267 C 920.603 0.314073 -2.05008 0
M  V30 9268 C 921.028 1.46759 -1.17657 0
M  V30 9269 O 920.386 1.80398 -0.180598 0
M  V30 9270 C 920.434 0.748243 -3.52752 0
M  V30 9271 O 919.538 1.85305 -3.68424 0
M  V30 9272 H 918.879 0.0610139 -0.661191 0
M  V30 9273 H 921.409 -0.442467 -1.99758 0
M  V30 9274 H 921.419 1.03713 -3.94598 0
M  V30 9275 H 920.094 -0.095573 -4.1579 0
M  V30 9276 H 918.671 1.56473 -3.38483 0
M  V30 9277 N 920.856 1.57574 -0.0284266 0
M  V30 9278 C 921.804 2.11332 0.971675 0
M  V30 9279 C 922.798 1.03974 1.33738 0
M  V30 9280 O 924.004 1.22409 1.31969 0
M  V30 9281 H 920.379 0.675174 0.331125 0
M  V30 9282 H 922.35 2.943 0.49296 0
M  V30 9283 C 921.099 2.65496 2.24516 0
M  V30 9284 H 920.422 3.47753 1.9725 0
M  V30 9285 H 921.862 3.06757 2.92705 0
M  V30 9286 C 920.321 1.58207 2.97443 0
M  V30 9287 O 920.851 0.981496 3.89525 0
M  V30 9288 N 919.057 1.30269 2.59766 0
M  V30 9289 H 918.604 1.79294 1.84963 0
M  V30 9290 H 918.562 0.587085 3.0887 0
M  V30 9291 N 922.334 -0.244713 1.55689 0
M  V30 9292 C 923.562 -0.989944 1.8168 0
M  V30 9293 C 923.977 -1.78863 0.604449 0
M  V30 9294 O 923.334 -1.77437 -0.426907 0
M  V30 9295 C 923.385 -1.92607 3.05916 0
M  V30 9296 O 923.106 -1.1597 4.22472 0
M  V30 9297 C 924.607 -2.78711 3.44724 0
M  V30 9298 H 921.827 -0.2912 0.604519 0
M  V30 9299 H 924.371 -0.266938 2.0275 0
M  V30 9300 H 922.526 -2.60333 2.8689 0
M  V30 9301 H 922.94 -1.79311 4.92898 0
M  V30 9302 H 924.414 -3.40141 4.34751 0
M  V30 9303 H 924.891 -3.49935 2.6541 0
M  V30 9304 H 925.497 -2.16435 3.66109 0
M  V30 9305 N 923.813 -1.49104 -0.510467 0
M  V30 9306 C 924.776 -1.64569 -1.59529 0
M  V30 9307 C 925.776 -0.517937 -1.5223 0
M  V30 9308 O 926.966 -0.784183 -1.55551 0
M  V30 9309 C 924.098 -1.6342 -2.99177 0
M  V30 9310 H 925.291 -2.61318 -1.4715 0
M  V30 9311 H 922.844 -1.37993 -0.734001 0
M  V30 9312 H 923.579 -0.68221 -3.17043 0
M  V30 9313 H 923.364 -2.45312 -3.05883 0
M  V30 9314 H 924.854 -1.77474 -3.78011 0
M  V30 9315 N 925.291 0.760815 -1.38019 0
M  V30 9316 C 926.539 1.51673 -1.33566 0
M  V30 9317 C 926.86 1.94852 0.076024 0
M  V30 9318 O 926.13 1.67112 1.02227 0
M  V30 9319 H 924.71 0.562581 -0.491438 0
M  V30 9320 H 927.372 0.904832 -1.72623 0
M  V30 9321 H 926.468 2.41102 -1.98182 0
M  V30 9322 N 926.769 1.22769 0.988202 0
M  V30 9323 C 928.015 1.05665 1.73097 0
M  V30 9324 C 928.348 -0.406615 1.89895 0
M  V30 9325 O 927.623 -1.30132 1.44554 0
M  V30 9326 C 927.906 1.77381 3.13382 0
M  V30 9327 C 927.759 3.31332 3.04203 0
M  V30 9328 C 929.078 1.52999 4.12649 0
M  V30 9329 H 926.197 0.385258 0.628288 0
M  V30 9330 H 928.839 1.51171 1.15097 0
M  V30 9331 H 926.989 1.38696 3.62899 0
M  V30 9332 H 928.661 3.79489 2.6227 0
M  V30 9333 H 926.904 3.60767 2.40894 0
M  V30 9334 H 927.575 3.76692 4.03493 0
M  V30 9335 H 930.051 1.86611 3.71908 0
M  V30 9336 H 928.927 2.05666 5.08913 0
M  V30 9337 H 929.188 0.463615 4.39662 0
M  V30 9338 N 928.247 -1.18576 1.03814 0
M  V30 9339 C 929.194 -2.2212 0.626988 0
M  V30 9340 C 930.164 -1.62064 -0.363912 0
M  V30 9341 O 931.349 -1.89041 -0.258469 0
M  V30 9342 C 928.489 -3.45099 -0.00650133 0
M  V30 9343 C 927.602 -4.19503 1.03156 0
M  V30 9344 C 926.737 -5.29932 0.366852 0
M  V30 9345 C 925.776 -5.96104 1.39018 0
M  V30 9346 N 924.913 -6.98076 0.750625 0
M  V30 9347 H 929.753 -2.56646 1.51449 0
M  V30 9348 H 927.29 -1.26084 0.757702 0
M  V30 9349 H 929.248 -4.15363 -0.391108 0
M  V30 9350 H 927.878 -3.11201 -0.857536 0
M  V30 9351 H 926.93 -3.48092 1.53414 0
M  V30 9352 H 928.242 -4.64843 1.80893 0
M  V30 9353 H 927.396 -6.06657 -0.0720979 0
M  V30 9354 H 926.135 -4.85687 -0.442631 0
M  V30 9355 H 925.14 -5.18122 1.8393 0
M  V30 9356 H 926.365 -6.42432 2.20132 0
M  V30 9357 H 924.311 -6.55989 -0.0385981 0
M  V30 9358 H 924.228 -7.41655 1.46574 0
M  V30 9359 H 925.496 -7.78776 0.335986 0
M  V30 9360 N 929.725 -0.817259 -1.34754 0
M  V30 9361 C 931.002 -0.325468 -1.92873 0
M  V30 9362 C 931.382 1.18643 -1.74606 0
M  V30 9363 O 930.73 1.9909 -1.1214 0
M  V30 9364 C 930.94 -0.74858 -3.40877 0
M  V30 9365 C 932.288 -0.744165 -4.18028 0
M  V30 9366 O 933.312 -0.690799 -3.49437 0
M  V30 9367 O 932.171 -0.812207 -5.40431 0
M  V30 9368 H 929.265 -0.0876397 -0.822343 0
M  V30 9369 H 931.811 -0.901671 -1.43764 0
M  V30 9370 H 930.583 -1.79017 -3.47949 0
M  V30 9371 H 930.206 -0.147764 -3.97325 0
M  V30 9372 N 931.203 1.46865 -0.571711 0
M  V30 9373 C 932.452 2.01636 -0.050881 0
M  V30 9374 C 932.765 1.45001 1.31279 0
M  V30 9375 O 933.971 1.91523 1.92435 0
M  V30 9376 C 932.427 3.59877 -0.0404114 0
M  V30 9377 C 932.035 4.25506 -1.40172 0
M  V30 9378 C 933.779 4.22346 0.42705 0
M  V30 9379 C 931.686 5.75795 -1.34958 0
M  V30 9380 H 930.616 0.753846 -0.0152514 0
M  V30 9381 H 933.267 1.68711 -0.721723 0
M  V30 9382 H 931.649 3.89829 0.696374 0
M  V30 9383 H 932.823 4.07178 -2.15737 0
M  V30 9384 H 931.138 3.75086 -1.8083 0
M  V30 9385 H 933.735 5.32499 0.484688 0
M  V30 9386 H 934.078 3.9052 1.44222 0
M  V30 9387 H 934.611 3.9698 -0.255326 0
M  V30 9388 H 931.35 6.12265 -2.3412 0
M  V30 9389 H 930.87 5.96419 -0.635962 0
M  V30 9390 H 932.549 6.38294 -1.05779 0
M  V30 9391 N 932.681 0.308908 1.54543 0
M  V30 9392 C 933.927 -0.298478 2.00592 0
M  V30 9393 C 934.26 -1.52929 1.19692 0
M  V30 9394 O 933.535 -1.9254 0.27542 0
M  V30 9395 C 933.818 -0.647218 3.54236 0
M  V30 9396 C 933.671 0.593284 4.4587 0
M  V30 9397 C 934.99 -1.47064 4.14801 0
M  V30 9398 H 932.109 -0.107012 0.72919 0
M  V30 9399 H 934.751 0.422578 1.85241 0
M  V30 9400 H 932.901 -1.26153 3.67447 0
M  V30 9401 H 934.573 1.2317 4.44552 0
M  V30 9402 H 932.816 1.22501 4.16144 0
M  V30 9403 H 933.487 0.305018 5.51157 0
M  V30 9404 H 935.963 -0.951511 4.05075 0
M  V30 9405 H 934.839 -1.68343 5.22448 0
M  V30 9406 H 935.1 -2.4623 3.67183 0
M  V30 9407 N 934.159 -1.57557 0.0367827 0
M  V30 9408 C 935.089 -2.13712 -0.940719 0
M  V30 9409 C 936.07 -1.05515 -1.33419 0
M  V30 9410 O 937.255 -1.33385 -1.41146 0
M  V30 9411 C 934.385 -2.67043 -2.22048 0
M  V30 9412 C 933.339 -3.80096 -1.96752 0
M  V30 9413 C 932.665 -4.19886 -3.31059 0
M  V30 9414 C 933.965 -5.05848 -1.30058 0
M  V30 9415 H 935.659 -2.9564 -0.473033 0
M  V30 9416 H 933.205 -1.42214 -0.226089 0
M  V30 9417 H 935.158 -3.04964 -2.90818 0
M  V30 9418 H 933.882 -1.82287 -2.70996 0
M  V30 9419 H 932.541 -3.42625 -1.30398 0
M  V30 9420 H 932.189 -3.32101 -3.77781 0
M  V30 9421 H 931.889 -4.96073 -3.14937 0
M  V30 9422 H 933.413 -4.60395 -4.01084 0
M  V30 9423 H 934.827 -5.41306 -1.8884 0
M  V30 9424 H 933.224 -5.87084 -1.24309 0
M  V30 9425 H 934.294 -4.84122 -0.274591 0
M  V30 9426 N 935.637 0.236453 -1.55816 0
M  V30 9427 C 936.883 0.964439 -1.784 0
M  V30 9428 C 937.216 1.84573 -0.603868 0
M  V30 9429 O 936.491 1.90395 0.397473 0
M  V30 9430 C 936.774 1.81608 -3.10951 0
M  V30 9431 C 936.627 0.962283 -4.39386 0
M  V30 9432 C 937.946 2.79665 -3.39817 0
M  V30 9433 H 935.065 0.349192 -0.649026 0
M  V30 9434 H 937.707 0.234247 -1.8855 0
M  V30 9435 H 935.857 2.43864 -3.02428 0
M  V30 9436 H 937.529 0.35762 -4.59912 0
M  V30 9437 H 935.772 0.267062 -4.32977 0
M  V30 9438 H 936.443 1.59222 -5.28538 0
M  V30 9439 H 938.919 2.27546 -3.4837 0
M  V30 9440 H 937.795 3.36367 -4.33761 0
M  V30 9441 H 938.056 3.56657 -2.61244 0
M  V30 9442 N 937.115 1.49373 0.502552 0
M  V30 9443 C 938.362 1.58781 1.25678 0
M  V30 9444 C 938.69 0.273819 1.92563 0
M  V30 9445 O 937.945 -0.738141 1.81246 0
M  V30 9446 C 938.244 2.69508 2.34735 0
M  V30 9447 C 937.91 4.11057 1.85318 0
M  V30 9448 C 936.572 4.49578 1.7156 0
M  V30 9449 C 938.924 4.99653 1.48312 0
M  V30 9450 C 936.252 5.74469 1.19172 0
M  V30 9451 C 938.604 6.2506 0.97377 0
M  V30 9452 C 937.268 6.62412 0.822573 0
M  V30 9453 H 936.538 0.581021 0.459887 0
M  V30 9454 H 939.185 1.83197 0.557767 0
M  V30 9455 H 937.49 2.39057 3.10418 0
M  V30 9456 H 939.187 2.73997 2.92791 0
M  V30 9457 H 935.777 3.80651 1.96985 0
M  V30 9458 H 939.961 4.70549 1.57789 0
M  V30 9459 H 935.217 6.0211 1.06176 0
M  V30 9460 H 939.391 6.93089 0.678233 0
M  V30 9461 H 937.018 7.59069 0.414453 0
M  V30 9462 N 938.594 -0.753485 1.38421 0
M  V30 9463 C 939.819 -1.54783 1.38047 0
M  V30 9464 C 940.244 -1.8808 -0.0276371 0
M  V30 9465 O 939.602 -1.5058 -1.00973 0
M  V30 9466 C 939.65 -2.82353 2.24297 0
M  V30 9467 O 938.754 -3.77509 1.66014 0
M  V30 9468 H 938.095 -0.468151 0.470883 0
M  V30 9469 H 940.625 -0.931144 1.82184 0
M  V30 9470 H 940.635 -3.31277 2.38159 0
M  V30 9471 H 939.31 -2.57449 3.26639 0
M  V30 9472 H 937.887 -3.36212 1.61294 0
M  V30 9473 N 940.072 -1.23292 -0.981677 0
M  V30 9474 C 941.32 -1.06214 -1.71939 0
M  V30 9475 C 941.641 0.401989 -1.90812 0
M  V30 9476 O 940.911 1.28825 -1.47584 0
M  V30 9477 H 939.491 -0.390042 -0.637084 0
M  V30 9478 H 942.153 -1.54988 -1.18173 0
M  V30 9479 H 941.249 -1.54904 -2.70945 0
M  V30 9480 N 941.55 1.18024 -1.04442 0
M  V30 9481 C 942.961 1.69749 -0.777312 0
M  V30 9482 C 943.312 1.83234 0.701399 0
M  V30 9483 O 942.437 1.51452 1.54568 0
M  V30 9484 C 943.032 3.08321 -1.40441 0
M  V30 9485 C 941.591 3.57243 -1.18553 0
M  V30 9486 C 940.738 2.33695 -1.49271 0
M  V30 9487 H 943.689 1.02647 -1.21035 0
M  V30 9488 H 943.71 3.71787 -0.809628 0
M  V30 9489 H 943.222 2.98474 -2.48062 0
M  V30 9490 H 941.323 3.72379 -0.128221 0
M  V30 9491 H 941.436 4.40451 -1.88519 0
M  V30 9492 H 939.8 2.37792 -0.912526 0
M  V30 9493 H 940.583 2.26464 -2.5801 0
M  V30 9494 N 943.028 0.824394 1.34319 0
M  V30 9495 C 944.274 0.413779 1.98534 0
M  V30 9496 C 944.607 -1.02089 1.65201 0
M  V30 9497 O 943.882 -1.71129 0.924402 0
M  V30 9498 C 944.165 0.61801 3.54757 0
M  V30 9499 C 944.018 2.0989 3.97827 0
M  V30 9500 C 945.337 0.0549041 4.40066 0
M  V30 9501 H 942.456 0.151815 0.721194 0
M  V30 9502 H 945.098 1.03723 1.5919 0
M  V30 9503 H 943.248 0.0873107 3.88402 0
M  V30 9504 H 944.92 2.69335 3.74508 0
M  V30 9505 H 943.163 2.58881 3.48085 0
M  V30 9506 H 943.834 2.1926 5.06586 0
M  V30 9507 H 946.31 0.508348 4.12983 0
M  V30 9508 H 945.186 0.227595 5.48428 0
M  V30 9509 H 945.447 -1.04025 4.29687 0
M  V30 9510 N 944.506 -1.46559 0.579492 0
M  V30 9511 C 945.454 -2.3199 -0.168413 0
M  V30 9512 C 946.448 -1.44288 -0.887551 0
M  V30 9513 O 947.654 -1.60931 -0.806305 0
M  V30 9514 H 944.029 -0.748431 -0.0731799 0
M  V30 9515 H 946 -2.92886 0.570973 0
M  V30 9516 C 944.749 -3.27392 -1.1709 0
M  V30 9517 H 944.072 -3.94853 -0.626958 0
M  V30 9518 H 945.512 -3.89955 -1.66467 0
M  V30 9519 C 943.971 -2.52511 -2.23024 0
M  V30 9520 O 944.501 -2.2858 -3.30324 0
M  V30 9521 N 942.707 -2.1313 -1.97545 0
M  V30 9522 H 942.254 -2.32793 -1.10297 0
M  V30 9523 H 942.212 -1.63348 -2.68635 0
M  V30 9524 N 945.984 -0.3171 -1.54377 0
M  V30 9525 C 947.23 0.287836 -2.00747 0
M  V30 9526 C 947.563 1.52292 -1.20502 0
M  V30 9527 O 946.838 1.92391 -0.285626 0
M  V30 9528 C 947.121 0.628423 -3.54574 0
M  V30 9529 C 946.974 -0.616922 -4.45549 0
M  V30 9530 C 948.293 1.44862 -4.15575 0
M  V30 9531 H 945.412 0.103144 -0.729747 0
M  V30 9532 H 948.054 -0.432396 -1.85014 0
M  V30 9533 H 946.204 1.24203 -3.68111 0
M  V30 9534 H 947.876 -1.25526 -4.43893 0
M  V30 9535 H 946.119 -1.24706 -4.15489 0
M  V30 9536 H 946.79 -0.334243 -5.50987 0
M  V30 9537 H 949.266 0.930015 -4.05574 0
M  V30 9538 H 948.142 1.6557 -5.23333 0
M  V30 9539 H 948.403 2.44279 -3.68484 0
M  V30 9540 N 947.462 1.57535 -0.0451378 0
M  V30 9541 C 948.739 1.83785 0.669523 0
M  V30 9542 C 949.119 0.932331 1.89396 0
M  V30 9543 O 948.467 -0.00813229 2.28499 0
M  V30 9544 C 948.677 3.33376 1.03255 0
M  V30 9545 C 950.025 4.00243 1.41741 0
M  V30 9546 O 951.049 3.37965 1.12507 0
M  V30 9547 O 949.908 5.10038 1.96275 0
M  V30 9548 H 947.002 0.758342 0.329919 0
M  V30 9549 H 949.548 1.69538 -0.0740415 0
M  V30 9550 H 948.32 3.90965 0.161777 0
M  V30 9551 H 947.943 3.52787 1.83376 0
M  V30 9552 N 948.94 -0.228186 1.55939 0
M  V30 9553 C 950.186 -0.950604 1.7982 0
M  V30 9554 C 950.541 -1.82236 0.617079 0
M  V30 9555 O 949.834 -1.87607 -0.389102 0
M  V30 9556 C 950.028 -1.82924 3.0704 0
M  V30 9557 C 949.857 -1.04403 4.37413 0
M  V30 9558 C 948.627 -0.741613 4.99828 0
M  V30 9559 C 950.825 -0.412534 5.12643 0
M  V30 9560 N 948.807 0.0656922 6.13865 0
M  V30 9561 C 950.178 0.258471 6.19461 0
M  V30 9562 C 952.233 -0.324893 4.96839 0
M  V30 9563 C 950.936 1.00873 7.12192 0
M  V30 9564 C 952.962 0.411878 5.89964 0
M  V30 9565 C 952.324 1.07145 6.96203 0
M  V30 9566 H 948.423 -0.328336 0.709732 0
M  V30 9567 H 951.007 -0.222056 1.9343 0
M  V30 9568 H 949.178 -2.52966 2.94725 0
M  V30 9569 H 950.91 -2.48863 3.19139 0
M  V30 9570 H 947.665 -1.05801 4.61631 0
M  V30 9571 H 948.089 0.457986 6.75449 0
M  V30 9572 H 952.731 -0.820485 4.14762 0
M  V30 9573 H 950.449 1.51586 7.93755 0
M  V30 9574 H 954.035 0.480606 5.79812 0
M  V30 9575 H 952.915 1.63245 7.67021 0
M  V30 9576 N 950.418 -1.49637 -0.494624 0
M  V30 9577 C 951.665 -1.59445 -1.24834 0
M  V30 9578 C 951.993 -0.284028 -1.92415 0
M  V30 9579 O 951.248 0.728519 -1.81634 0
M  V30 9580 C 951.547 -2.70749 -2.33302 0
M  V30 9581 C 951.213 -4.12034 -1.83135 0
M  V30 9582 C 949.875 -4.50482 -1.69173 0
M  V30 9583 C 952.227 -5.00432 -1.4566 0
M  V30 9584 C 949.555 -5.75093 -1.16124 0
M  V30 9585 C 951.907 -6.25568 -0.940608 0
M  V30 9586 C 950.571 -6.62839 -0.787432 0
M  V30 9587 H 949.841 -0.583451 -0.456799 0
M  V30 9588 H 952.488 -1.8349 -0.548044 0
M  V30 9589 H 950.793 -2.407 -3.09145 0
M  V30 9590 H 952.49 -2.75546 -2.91334 0
M  V30 9591 H 949.08 -3.8169 -1.94964 0
M  V30 9592 H 953.264 -4.71379 -1.55291 0
M  V30 9593 H 948.52 -6.02665 -1.02982 0
M  V30 9594 H 952.694 -6.93439 -0.641467 0
M  V30 9595 H 950.321 -7.59279 -0.374191 0
M  V30 9596 N 951.896 0.746133 -1.38819 0
M  V30 9597 C 953.142 1.50768 -1.35635 0
M  V30 9598 C 953.475 1.94132 0.0512435 0
M  V30 9599 O 952.75 1.65979 1.01396 0
M  V30 9600 C 953.033 2.7551 -2.31875 0
M  V30 9601 C 952.886 2.38236 -3.81528 0
M  V30 9602 C 954.205 3.77566 -2.26124 0
M  V30 9603 H 951.324 0.546922 -0.494009 0
M  V30 9604 H 953.966 0.854017 -1.69725 0
M  V30 9605 H 952.116 3.31285 -2.02935 0
M  V30 9606 H 953.788 1.88178 -4.21173 0
M  V30 9607 H 952.031 1.70601 -3.98846 0
M  V30 9608 H 952.702 3.27517 -4.44339 0
M  V30 9609 H 955.178 3.31349 -2.51689 0
M  V30 9610 H 954.054 4.62531 -2.95561 0
M  V30 9611 H 954.315 4.23689 -1.26254 0
M  V30 9612 N 953.375 1.23811 0.975125 0
M  V30 9613 C 954.622 1.07336 1.71712 0
M  V30 9614 C 954.95 -0.388954 1.90571 0
M  V30 9615 O 954.205 -1.30409 1.45918 0
M  V30 9616 C 954.504 1.74994 3.11628 0
M  V30 9617 C 954.17 3.24918 3.12632 0
M  V30 9618 C 952.832 3.65822 3.12614 0
M  V30 9619 C 955.184 4.20797 3.07538 0
M  V30 9620 C 952.512 5.01054 3.05224 0
M  V30 9621 C 954.864 5.56027 3.0169 0
M  V30 9622 C 953.528 5.96287 2.99996 0
M  V30 9623 H 952.798 0.392771 0.62834 0
M  V30 9624 H 955.445 1.53815 1.14075 0
M  V30 9625 H 953.75 1.20889 3.72684 0
M  V30 9626 H 955.447 1.5972 3.67819 0
M  V30 9627 H 952.037 2.92359 3.13407 0
M  V30 9628 H 956.221 3.902 3.06688 0
M  V30 9629 H 951.477 5.31454 3.02268 0
M  V30 9630 H 955.651 6.3003 2.96706 0
M  V30 9631 H 953.278 7.01037 2.94025 0
M  V30 9632 N 954.853 -1.17469 1.05066 0
M  V30 9633 C 956.078 -1.92162 0.780298 0
M  V30 9634 C 956.503 -1.76222 -0.657832 0
M  V30 9635 O 955.861 -1.0791 -1.45688 0
M  V30 9636 C 955.909 -3.41292 1.16414 0
M  V30 9637 O 955.013 -4.1134 0.295531 0
M  V30 9638 H 954.354 -0.599127 0.286257 0
M  V30 9639 H 956.884 -1.48903 1.40318 0
M  V30 9640 H 956.894 -3.92029 1.13036 0
M  V30 9641 H 955.569 -3.52214 2.21175 0
M  V30 9642 H 954.146 -3.70857 0.389797 0
M  V30 9643 N 956.331 -0.831506 -1.3388 0
M  V30 9644 C 957.278 -0.257449 -2.2936 0
M  V30 9645 C 958.248 0.622604 -1.5399 0
M  V30 9646 O 959.433 0.562432 -1.82322 0
M  V30 9647 C 956.573 0.567587 -3.404 0
M  V30 9648 C 955.686 -0.335666 -4.30694 0
M  V30 9649 C 954.821 0.499762 -5.28844 0
M  V30 9650 C 953.86 -0.402343 -6.10776 0
M  V30 9651 N 952.997 0.39452 -7.00991 0
M  V30 9652 H 957.837 -1.077 -2.77857 0
M  V30 9653 H 955.374 -0.542589 -1.36727 0
M  V30 9654 H 957.332 1.06133 -4.03474 0
M  V30 9655 H 955.962 1.35217 -2.93115 0
M  V30 9656 H 955.014 -0.94768 -3.68406 0
M  V30 9657 H 956.326 -1.02896 -4.88072 0
M  V30 9658 H 955.48 1.05763 -5.9741 0
M  V30 9659 H 954.219 1.22652 -4.72025 0
M  V30 9660 H 953.224 -0.972288 -5.41135 0
M  V30 9661 H 954.449 -1.12735 -6.69677 0
M  V30 9662 H 952.395 1.1048 -6.4663 0
M  V30 9663 H 952.312 -0.240209 -7.55618 0
M  V30 9664 H 953.58 0.934867 -7.73874 0
M  V30 9665 N 957.809 1.4625 -0.587256 0
M  V30 9666 C 959.034 2.07252 -0.0784517 0
M  V30 9667 C 959.459 1.43239 1.21919 0
M  V30 9668 O 958.817 0.517791 1.73749 0
M  V30 9669 C 958.865 3.60534 0.0691037 0
M  V30 9670 O 957.969 3.96773 1.12448 0
M  V30 9671 H 957.31 0.660825 -0.064859 0
M  V30 9672 H 959.84 1.87819 -0.811491 0
M  V30 9673 H 959.85 4.0708 0.273826 0
M  V30 9674 H 958.525 4.06516 -0.878514 0
M  V30 9675 H 957.102 3.6193 0.897852 0
M  V30 9676 N 959.287 0.325282 1.54207 0
M  V30 9677 C 960.535 -0.276229 2.00203 0
M  V30 9678 C 960.856 -1.52519 1.21503 0
M  V30 9679 O 960.126 -1.93313 0.317302 0
M  V30 9680 H 958.706 -0.105059 0.739575 0
M  V30 9681 H 961.368 0.442225 1.89817 0
M  V30 9682 H 960.464 -0.531427 3.07542 0
M  V30 9683 N 960.765 -1.57509 0.0534917 0
M  V30 9684 C 961.993 -1.97098 -0.629298 0
M  V30 9685 C 962.408 -0.931128 -1.64242 0
M  V30 9686 O 961.765 0.0843866 -1.82305 0
M  V30 9687 C 961.816 -3.36767 -1.31415 0
M  V30 9688 O 961.537 -4.36766 -0.341599 0
M  V30 9689 C 963.038 -3.91127 -2.08649 0
M  V30 9690 H 960.258 -0.648611 -0.171886 0
M  V30 9691 H 962.802 -2.04145 0.120479 0
M  V30 9692 H 960.957 -3.30863 -2.01515 0
M  V30 9693 H 961.371 -5.1788 -0.830715 0
M  V30 9694 H 962.845 -4.91129 -2.51985 0
M  V30 9695 H 963.322 -3.26679 -2.9356 0
M  V30 9696 H 963.928 -4.00376 -1.43456 0
M  V30 9697 O 962.282 0.08758 -1.61262 0
M  V30 9698 H 962.973 0.715334 -1.80007 0
M  V30 END ATOM
M  V30 BEGIN BOND
M  V30 END BOND
M  V30 END CTAB
M  END
$$$$
