drugbank_target|P0ABQ0 Coenzyme A biosynthesis bifunctional protein CoaBC (DB02431; DB03403)
 OpenBabel12092120033D

  0  0  0     0  0            999 V3000
M  V30 BEGIN CTAB
M  V30 COUNTS 6163 6215 0 0 0
M  V30 BEGIN ATOM
M  V30 1 H -0.908 1.98254 -0.117106 0
M  V30 2 N 0 1.576 0 0
M  V30 3 C 0.933 2.03868 1.02534 0
M  V30 4 C 1.911 0.928543 1.3348 0
M  V30 5 O 3.095 1.19667 1.45644 0
M  V30 6 C 0.222 2.43627 2.35294 0
M  V30 7 C -0.732 3.65373 2.2001 0
M  V30 8 S 0.101 5.13292 1.52614 0
M  V30 9 C 1.257 5.56322 2.86805 0
M  V30 10 H 1.49 2.90518 0.631377 0
M  V30 11 H -0.977 1.52953 0.210867 0
M  V30 12 H 0.981 2.67203 3.11629 0
M  V30 13 H -0.358 1.57376 2.7183 0
M  V30 14 H -1.165 3.90944 3.18086 0
M  V30 15 H -1.563 3.418 1.51819 0
M  V30 16 H 0.729 5.58782 3.83104 0
M  V30 17 H 1.672 6.56266 2.65933 0
M  V30 18 H 2.08 4.83886 2.90714 0
M  V30 19 N 1.4781 -0.272755 1.55222 0
M  V30 20 C 2.7031 -1.02683 1.80197 0
M  V30 21 C 3.1281 -1.79142 0.573551 0
M  V30 22 O 2.4861 -1.74917 -0.476849 0
M  V30 23 C 2.5341 -1.9609 3.02624 0
M  V30 24 O 1.6381 -3.04863 2.77727 0
M  V30 25 H 0.9791 -0.293557 0.595584 0
M  V30 26 H 3.5091 -0.30159 2.02365 0
M  V30 27 H 3.5191 -2.38039 3.31363 0
M  V30 28 H 2.1941 -1.39851 3.91682 0
M  V30 29 H 0.7711 -2.67228 2.60084 0
M  V30 30 N 2.9562 -1.48159 -0.537278 0
M  V30 31 C 3.8862 -1.65029 -1.6519 0
M  V30 32 C 4.8672 -0.499281 -1.62607 0
M  V30 33 O 6.0522 -0.730972 -1.79918 0
M  V30 34 C 3.1822 -1.68303 -3.03795 0
M  V30 35 C 2.1362 -2.8283 -3.21234 0
M  V30 36 C 1.4622 -2.71189 -4.60826 0
M  V30 37 C 2.7622 -4.24211 -3.04701 0
M  V30 38 H 4.4562 -2.58341 -1.51328 0
M  V30 39 H 2.0022 -1.24325 -0.726585 0
M  V30 40 H 3.9552 -1.78693 -3.81637 0
M  V30 41 H 2.6792 -0.715635 -3.18663 0
M  V30 42 H 1.3382 -2.71983 -2.45807 0
M  V30 43 H 0.9862 -1.72435 -4.7252 0
M  V30 44 H 0.6862 -3.48035 -4.7344 0
M  V30 45 H 2.2102 -2.83537 -5.40777 0
M  V30 46 H 3.6242 -4.3593 -3.72341 0
M  V30 47 H 2.0212 -5.01998 -3.28813 0
M  V30 48 H 3.0912 -4.41184 -2.01209 0
M  V30 49 N 4.4343 0.785586 -1.36625 0
M  V30 50 C 5.3973 1.87999 -1.31107 0
M  V30 51 C 6.3973 1.59316 -0.217959 0
M  V30 52 O 7.5873 1.67656 -0.472977 0
M  V30 53 C 4.7193 3.24861 -1.03334 0
M  V30 54 H 5.9123 1.94307 -2.2844 0
M  V30 55 H 3.4653 0.983813 -1.21453 0
M  V30 56 H 4.2003 3.24235 -0.0647432 0
M  V30 57 H 3.9853 3.4707 -1.82441 0
M  V30 58 H 5.4753 4.04929 -1.02088 0
M  V30 59 N 5.9124 1.20967 1.01018 0
M  V30 60 C 7.1604 1.02172 1.74371 0
M  V30 61 C 7.4814 -0.446414 1.89821 0
M  V30 62 O 6.7514 -1.32234 1.44537 0
M  V30 63 H 5.3314 0.375066 0.646014 0
M  V30 64 H 7.9934 1.52187 1.21758 0
M  V30 65 H 7.0894 1.48538 2.74487 0
M  V30 66 N 7.3905 -1.2043 1.01659 0
M  V30 67 C 8.3375 -2.23215 0.586822 0
M  V30 68 C 9.3075 -1.61382 -0.393085 0
M  V30 69 O 10.4925 -1.88544 -0.292525 0
M  V30 70 C 7.6325 -3.45032 -0.0687464 0
M  V30 71 C 6.7455 -4.21296 0.955724 0
M  V30 72 C 5.8805 -5.30507 0.271208 0
M  V30 73 C 4.9195 -5.98515 1.28244 0
M  V30 74 N 4.0565 -6.99316 0.62459 0
M  V30 75 H 8.8965 -2.59336 1.46796 0
M  V30 76 H 6.4335 -1.27431 0.734836 0
M  V30 77 H 8.3915 -4.1459 -0.465965 0
M  V30 78 H 7.0215 -3.09604 -0.913529 0
M  V30 79 H 6.0735 -3.50803 1.4711 0
M  V30 80 H 7.3855 -4.6803 1.72479 0
M  V30 81 H 6.5395 -6.06428 -0.18151 0
M  V30 82 H 5.2785 -4.8481 -0.530163 0
M  V30 83 H 4.2835 -5.21355 1.74554 0
M  V30 84 H 5.5085 -6.46298 2.08509 0
M  V30 85 H 3.4545 -6.55812 -0.156914 0
M  V30 86 H 3.3715 -7.44178 1.33172 0
M  V30 87 H 4.6395 -7.79255 0.195462 0
M  V30 88 N 8.8686 -0.792821 -1.36206 0
M  V30 89 C 9.8156 -0.191653 -2.30003 0
M  V30 90 C 10.7856 0.666453 -1.52143 0
M  V30 91 O 11.9706 0.61442 -1.80636 0
M  V30 92 C 9.1106 0.664848 -3.38635 0
M  V30 93 C 8.2236 -0.212175 -4.31479 0
M  V30 94 C 7.3586 0.651022 -5.27196 0
M  V30 95 C 6.3976 -0.227247 -6.11678 0
M  V30 96 N 5.5346 0.595127 -6.99573 0
M  V30 97 H 10.3746 -0.996978 -2.80828 0
M  V30 98 H 7.9116 -0.503206 -1.38225 0
M  V30 99 H 9.8696 1.17645 -4.00269 0
M  V30 100 H 8.4996 1.43557 -2.89122 0
M  V30 101 H 7.5516 -0.841777 -3.70969 0
M  V30 102 H 8.8636 -0.888751 -4.90818 0
M  V30 103 H 8.0176 1.2283 -5.94136 0
M  V30 104 H 6.7566 1.36121 -4.68319 0
M  V30 105 H 5.7616 -0.816904 -5.43697 0
M  V30 106 H 6.9866 -0.93509 -6.72631 0
M  V30 107 H 4.9326 1.28955 -6.432 0
M  V30 108 H 4.8496 -0.0236952 -7.55996 0
M  V30 109 H 6.1176 1.15613 -7.70879 0
M  V30 110 N 10.3467 1.47872 -0.545128 0
M  V30 111 C 11.5957 2.01695 -0.0145033 0
M  V30 112 C 11.9087 1.42609 1.33873 0
M  V30 113 O 13.1147 1.88021 1.95858 0
M  V30 114 C 11.5707 3.59892 0.0245068 0
M  V30 115 C 11.1787 4.27966 -1.32475 0
M  V30 116 C 12.9227 4.21507 0.50316 0
M  V30 117 C 10.8297 5.78136 -1.2455 0
M  V30 118 H 9.7597 0.753998 -0.00165172 0
M  V30 119 H 12.4107 1.69985 -0.691175 0
M  V30 120 H 10.7927 3.88509 0.766575 0
M  V30 121 H 11.9667 4.11003 -2.08357 0
M  V30 122 H 10.2817 3.78286 -1.74036 0
M  V30 123 H 12.8787 5.31538 0.580656 0
M  V30 124 H 13.2217 3.87855 1.51243 0
M  V30 125 H 13.7547 3.97376 -0.183681 0
M  V30 126 H 10.4937 6.16388 -2.23039 0
M  V30 127 H 10.0137 5.97469 -0.528282 0
M  V30 128 H 11.6927 6.40099 -0.942488 0
M  V30 129 N 11.8248 0.280983 1.55075 0
M  V30 130 C 13.0708 -0.33461 2.00021 0
M  V30 131 C 13.4038 -1.55063 1.16915 0
M  V30 132 O 12.6788 -1.93006 0.240646 0
M  V30 133 C 12.9618 -0.711007 3.53011 0
M  V30 134 C 12.8148 0.512766 4.46868 0
M  V30 135 C 14.1338 -1.54522 4.12081 0
M  V30 136 H 11.2528 -0.120147 0.727141 0
M  V30 137 H 13.8948 0.389097 1.85973 0
M  V30 138 H 12.0448 -1.32761 3.65112 0
M  V30 139 H 13.7168 1.15131 4.46702 0
M  V30 140 H 11.9598 1.14975 4.18286 0
M  V30 141 H 12.6308 0.205556 5.51617 0
M  V30 142 H 15.1068 -1.02442 4.03293 0
M  V30 143 H 13.9828 -1.77739 5.19327 0
M  V30 144 H 14.2438 -2.52813 3.62682 0
M  V30 145 N 13.3029 -1.57598 0.00835791 0
M  V30 146 C 14.2329 -2.1198 -0.979113 0
M  V30 147 C 15.2139 -1.03091 -1.35301 0
M  V30 148 O 16.3989 -1.30818 -1.43528 0
M  V30 149 C 13.5289 -2.62995 -2.26828 0
M  V30 150 C 12.4829 -3.76485 -2.03576 0
M  V30 151 C 11.8089 -4.13846 -3.38579 0
M  V30 152 C 13.1089 -5.0342 -1.39161 0
M  V30 153 H 14.8029 -2.94738 -0.526281 0
M  V30 154 H 12.3489 -1.41783 -0.251704 0
M  V30 155 H 14.3019 -2.99669 -2.96271 0
M  V30 156 H 13.0259 -1.7737 -2.7424 0
M  V30 157 H 11.6849 -3.40217 -1.36557 0
M  V30 158 H 11.3329 -3.25232 -3.83709 0
M  V30 159 H 11.0329 -4.90312 -3.23834 0
M  V30 160 H 12.5569 -4.53086 -4.09323 0
M  V30 161 H 13.9709 -5.37812 -1.98573 0
M  V30 162 H 12.3679 -5.84746 -1.34878 0
M  V30 163 H 13.4379 -4.83548 -0.361868 0
M  V30 164 N 14.781 0.264519 -1.55364 0
M  V30 165 C 16.029 0.993021 -1.76021 0
M  V30 166 C 16.35 1.86511 -0.569099 0
M  V30 167 O 15.62 1.91438 0.415735 0
M  V30 168 H 14.2 0.369639 -0.649135 0
M  V30 169 H 16.862 0.286707 -1.9278 0
M  V30 170 H 15.958 1.62502 -2.66457 0
M  V30 171 N 16.2591 1.48442 0.529413 0
M  V30 172 C 17.5051 1.5672 1.28711 0
M  V30 173 C 17.8381 0.2406 1.92704 0
M  V30 174 O 17.1131 -0.753454 1.79313 0
M  V30 175 C 17.3961 2.70587 2.37603 0
M  V30 176 C 17.2491 4.12953 1.78297 0
M  V30 177 C 18.5681 2.80212 3.39366 0
M  V30 178 H 15.6871 0.570474 0.466613 0
M  V30 179 H 18.3291 1.80617 0.589706 0
M  V30 180 H 16.4791 2.50342 2.97088 0
M  V30 181 H 18.1511 4.44639 1.22858 0
M  V30 182 H 16.3941 4.19927 1.0883 0
M  V30 183 H 17.0651 4.88448 2.57144 0
M  V30 184 H 19.5411 2.98553 2.89836 0
M  V30 185 H 18.4171 3.61611 4.12951 0
M  V30 186 H 18.6781 1.88393 3.99951 0
M  V30 187 N 17.7372 -0.778329 1.37039 0
M  V30 188 C 18.9622 -1.57248 1.35233 0
M  V30 189 C 19.3872 -1.87999 -0.0615568 0
M  V30 190 O 18.7452 -1.48734 -1.03672 0
M  V30 191 C 18.7932 -2.86353 2.19167 0
M  V30 192 O 17.8972 -3.80442 1.59178 0
M  V30 193 H 17.2382 -0.476569 0.462362 0
M  V30 194 H 19.7682 -0.963853 1.80474 0
M  V30 195 H 19.7782 -3.35519 2.32145 0
M  V30 196 H 18.4532 -2.63299 3.21942 0
M  V30 197 H 17.0302 -3.39067 1.55203 0
M  V30 198 N 19.2153 -1.21501 -1.00376 0
M  V30 199 C 20.4633 -1.03095 -1.73827 0
M  V30 200 C 20.7843 0.436341 -1.90055 0
M  V30 201 O 20.0543 1.31466 -1.45236 0
M  V30 202 H 18.6343 -0.378487 -0.644016 0
M  V30 203 H 21.2963 -1.52831 -1.20949 0
M  V30 204 H 20.3923 -1.49991 -2.73695 0
M  V30 205 N 20.6934 1.19889 -1.02296 0
M  V30 206 C 21.9414 1.89046 -0.714558 0
M  V30 207 C 22.2624 1.79636 0.758681 0
M  V30 208 O 21.5324 1.20292 1.54618 0
M  V30 209 H 20.1124 0.699802 -0.261317 0
M  V30 210 H 22.7744 1.45574 -1.29592 0
M  V30 211 H 21.8704 2.95524 -1.0036 0
M  V30 212 N 22.1715 0.800033 1.35784 0
M  V30 213 C 23.4205 0.37387 1.98205 0
M  V30 214 C 23.7335 -1.06302 1.64193 0
M  V30 215 O 24.9395 -1.59198 2.19928 0
M  V30 216 C 23.3955 0.617532 3.54562 0
M  V30 217 C 23.0035 2.06654 3.9749 0
M  V30 218 C 24.7475 0.256401 4.23725 0
M  V30 219 C 22.6545 2.2563 5.46667 0
M  V30 220 H 21.5845 0.136055 0.741623 0
M  V30 221 H 24.2355 0.983166 1.54939 0
M  V30 222 H 22.6175 -0.0616248 3.95952 0
M  V30 223 H 23.7915 2.78296 3.67271 0
M  V30 224 H 22.1065 2.38691 3.41197 0
M  V30 225 H 24.7035 0.376318 5.33374 0
M  V30 226 H 25.0465 -0.796692 4.08606 0
M  V30 227 H 25.5795 0.889214 3.87734 0
M  V30 228 H 22.3185 3.2936 5.66747 0
M  V30 229 H 21.8385 1.58504 5.78478 0
M  V30 230 H 23.5175 2.06861 6.1304 0
M  V30 231 N 23.6496 -1.47581 0.552962 0
M  V30 232 C 24.6126 -2.28439 -0.186605 0
M  V30 233 C 25.6126 -1.36706 -0.84665 0
M  V30 234 O 26.8026 -1.59378 -0.703164 0
M  V30 235 C 23.9346 -3.16264 -1.2724 0
M  V30 236 H 25.1276 -2.95294 0.523609 0
M  V30 237 H 22.6806 -1.532 0.309745 0
M  V30 238 H 23.4156 -2.54091 -2.01514 0
M  V30 239 H 23.2006 -3.83769 -0.803968 0
M  V30 240 H 24.6906 -3.77198 -1.79196 0
M  V30 241 N 25.1277 -0.289203 -1.54924 0
M  V30 242 C 26.0907 0.579144 -2.21762 0
M  V30 243 C 27.0907 1.07047 -1.1999 0
M  V30 244 O 28.2807 0.968384 -1.44803 0
M  V30 245 C 25.4127 1.80055 -2.8947 0
M  V30 246 H 26.6057 -0.00464908 -2.999 0
M  V30 247 H 24.1587 -0.0399306 -1.56249 0
M  V30 248 H 24.8937 2.42449 -2.15381 0
M  V30 249 H 24.6787 1.45602 -3.64064 0
M  V30 250 H 26.1687 2.41773 -3.40493 0
M  V30 251 N 26.6058 1.57591 -0.0167156 0
M  V30 252 C 27.8358 1.95292 0.674149 0
M  V30 253 C 28.2438 0.891097 1.66901 0
M  V30 254 O 27.5868 -0.136908 1.83189 0
M  V30 255 C 27.6488 3.29072 1.44747 0
M  V30 256 C 27.3128 4.52879 0.612331 0
M  V30 257 C 28.3098 5.1979 -0.107126 0
M  V30 258 C 25.9948 4.99242 0.553381 0
M  V30 259 C 27.9888 6.31375 -0.874339 0
M  V30 260 C 25.6758 6.10713 -0.217546 0
M  V30 261 C 26.6738 6.76637 -0.930123 0
M  V30 262 O 26.3618 7.85969 -1.68844 0
M  V30 263 H 26.0938 0.648275 0.191615 0
M  V30 264 H 28.6478 2.05284 -0.0690148 0
M  V30 265 H 26.8778 3.15535 2.2355 0
M  V30 266 H 28.5668 3.51764 2.02526 0
M  V30 267 H 29.3328 4.84948 -0.0708392 0
M  V30 268 H 25.2118 4.47744 1.09757 0
M  V30 269 H 28.7558 6.82764 -1.43106 0
M  V30 270 H 24.6528 6.44994 -0.255593 0
M  V30 271 H 25.4208 8.02571 -1.6069 0
M  V30 272 N 28.0839 -0.256276 1.55502 0
M  V30 273 C 29.0309 -1.31714 1.89526 0
M  V30 274 C 30.0009 -1.4828 0.748479 0
M  V30 275 O 31.1859 -1.62416 1.00128 0
M  V30 276 C 28.3259 -2.66933 2.18725 0
M  V30 277 C 27.4389 -2.58452 3.4616 0
M  V30 278 C 26.5739 -3.85961 3.64976 0
M  V30 279 C 25.6129 -3.72059 4.86044 0
M  V30 280 N 24.7499 -4.9144 5.01429 0
M  V30 281 H 29.5899 -1.01998 2.80001 0
M  V30 282 H 27.1269 -0.492413 1.38613 0
M  V30 283 H 29.0849 -3.4563 2.33657 0
M  V30 284 H 27.7149 -2.94816 1.31466 0
M  V30 285 H 26.7669 -1.71374 3.3961 0
M  V30 286 H 28.0789 -2.44085 4.34999 0
M  V30 287 H 27.2329 -4.73101 3.79816 0
M  V30 288 H 25.9719 -4.03215 2.74353 0
M  V30 289 H 24.9769 -2.83302 4.7119 0
M  V30 290 H 26.2019 -3.56309 5.78118 0
M  V30 291 H 24.1479 -5.09072 4.13741 0
M  V30 292 H 24.0649 -4.79668 5.84341 0
M  V30 293 H 25.3329 -5.80104 5.20672 0
M  V30 294 N 29.562 -1.4872 -0.521534 0
M  V30 295 C 30.79 -1.60843 -1.30142 0
M  V30 296 C 31.205 -0.271897 -1.86832 0
M  V30 297 O 30.562 0.739969 -1.66825 0
M  V30 298 C 30.613 -2.66155 -2.4463 0
M  V30 299 O 30.334 -3.94623 -1.90275 0
M  V30 300 C 31.835 -2.88795 -3.36322 0
M  V30 301 H 29.055 -0.542075 -0.395468 0
M  V30 302 H 31.599 -1.94609 -0.628285 0
M  V30 303 H 29.754 -2.35224 -3.07812 0
M  V30 304 H 30.168 -4.52468 -2.65279 0
M  V30 305 H 31.642 -3.66264 -4.12983 0
M  V30 306 H 32.119 -1.97934 -3.9207 0
M  V30 307 H 32.725 -3.21063 -2.78924 0
M  V30 308 N 31.0401 0.771051 -1.3745 0
M  V30 309 C 32.4511 1.34737 -1.29239 0
M  V30 310 C 32.8021 1.96109 0.0596908 0
M  V30 311 O 31.9271 1.93865 0.961534 0
M  V30 312 C 32.5221 2.44973 -2.34037 0
M  V30 313 C 31.0811 2.98372 -2.29458 0
M  V30 314 C 30.2281 1.71595 -2.17831 0
M  V30 315 H 33.1791 0.571256 -1.48062 0
M  V30 316 H 33.2001 3.24471 -1.98744 0
M  V30 317 H 32.7121 2.00276 -3.32432 0
M  V30 318 H 30.8131 3.47443 -1.34589 0
M  V30 319 H 30.9261 3.53939 -3.229 0
M  V30 320 H 29.2901 1.94547 -1.64388 0
M  V30 321 H 30.0731 1.29001 -3.18141 0
M  V30 322 N 32.5182 1.22032 0.997298 0
M  V30 323 C 33.4282 1.00271 2.12092 0
M  V30 324 C 34.4442 -0.047621 1.73935 0
M  V30 325 O 35.6202 0.144136 2.00884 0
M  V30 326 C 32.6852 0.578449 3.4184 0
M  V30 327 C 31.7462 1.70189 3.94125 0
M  V30 328 C 30.9792 1.29778 5.17681 0
M  V30 329 O 31.2022 0.174676 5.70132 0
M  V30 330 O 30.1362 2.11261 5.63607 0
M  V30 331 H 33.9622 1.94398 2.3333 0
M  V30 332 H 31.5472 1.00587 1.10465 0
M  V30 333 H 33.4292 0.351998 4.19927 0
M  V30 334 H 32.1042 -0.334019 3.21972 0
M  V30 335 H 31.0112 1.98282 3.1723 0
M  V30 336 H 32.3442 2.59206 4.18417 0
M  V30 337 N 33.9963 -1.19345 1.0293 0
M  V30 338 C 34.9263 -2.2481 0.631105 0
M  V30 339 C 35.9073 -1.66245 -0.360104 0
M  V30 340 O 37.0923 -1.92677 -0.242726 0
M  V30 341 C 34.2223 -3.47295 -0.0184607 0
M  V30 342 C 33.1763 -4.18536 0.895073 0
M  V30 343 C 32.5023 -5.34586 0.110592 0
M  V30 344 C 33.8023 -4.73287 2.209 0
M  V30 345 H 35.4963 -2.58372 1.51275 0
M  V30 346 H 33.0423 -1.24194 0.728818 0
M  V30 347 H 34.9953 -4.20268 -0.308675 0
M  V30 348 H 33.7193 -3.12933 -0.934907 0
M  V30 349 H 32.3783 -3.47446 1.16949 0
M  V30 350 H 32.0263 -4.96469 -0.807902 0
M  V30 351 H 31.7263 -5.83183 0.719087 0
M  V30 352 H 33.2503 -6.10355 -0.172871 0
M  V30 353 H 34.6643 -5.38013 1.98028 0
M  V30 354 H 33.0613 -5.32373 2.76946 0
M  V30 355 H 34.1313 -3.91331 2.86336 0
M  V30 356 N 35.4744 -0.807222 -1.35358 0
M  V30 357 C 36.7204 -0.388463 -1.99045 0
M  V30 358 C 37.0534 1.04184 -1.63888 0
M  V30 359 O 36.3284 1.72292 -0.902535 0
M  V30 360 C 36.6114 -0.572783 -3.55515 0
M  V30 361 C 36.4644 -2.04807 -4.00468 0
M  V30 362 C 37.7834 0.00114064 -4.401 0
M  V30 363 H 34.9024 -0.142619 -0.723069 0
M  V30 364 H 37.5444 -1.01687 -1.60498 0
M  V30 365 H 35.6944 -0.0378425 -3.88482 0
M  V30 366 H 37.3664 -2.64544 -3.77908 0
M  V30 367 H 35.6094 -2.54427 -3.51353 0
M  V30 368 H 36.2804 -2.12792 -5.09337 0
M  V30 369 H 38.7564 -0.455716 -4.13597 0
M  V30 370 H 37.6324 -0.157737 -5.48673 0
M  V30 371 H 37.8934 1.09488 -4.28328 0
M  V30 372 N 36.9525 1.47285 -0.560781 0
M  V30 373 C 38.3685 1.58065 -0.22081 0
M  V30 374 C 38.5685 1.55892 1.27671 0
M  V30 375 O 37.6245 1.46422 2.0571 0
M  V30 376 C 38.9375 2.88418 -0.850625 0
M  V30 377 C 40.4855 3.02009 -0.822184 0
M  V30 378 C 40.9605 4.35066 -1.43113 0
M  V30 379 N 42.4515 4.41711 -1.39448 0
M  V30 380 C 43.1865 5.43237 -1.83525 0
M  V30 381 N 42.6825 6.51555 -2.35474 0
M  V30 382 N 44.4755 5.34304 -1.74574 0
M  V30 383 H 36.6265 1.46941 -1.53369 0
M  V30 384 H 38.8895 0.699558 -0.639783 0
M  V30 385 H 38.5955 2.95755 -1.9032 0
M  V30 386 H 38.4695 3.75612 -0.345773 0
M  V30 387 H 40.8565 2.94266 0.221714 0
M  V30 388 H 40.9375 2.16347 -1.36483 0
M  V30 389 H 40.5815 4.43565 -2.47412 0
M  V30 390 H 40.5115 5.19465 -0.863899 0
M  V30 391 H 43.0025 3.64027 -1.01452 0
M  V30 392 H 43.3155 7.25203 -2.67021 0
M  V30 393 H 41.6605 6.52435 -2.39487 0
M  V30 394 H 44.8515 4.48581 -1.33763 0
M  V30 395 H 45.0245 6.13288 -2.09242 0
M  V30 396 N 38.4306 0.297415 1.54768 0
M  V30 397 C 39.8466 -0.0560823 1.59501 0
M  V30 398 C 40.0466 -1.52725 1.31444 0
M  V30 399 O 39.1026 -2.27947 1.08611 0
M  V30 400 C 40.4156 0.338631 2.98787 0
M  V30 401 C 41.9636 0.287097 3.11681 0
M  V30 402 C 42.4386 0.656579 4.53269 0
M  V30 403 N 43.9296 0.608977 4.59179 0
M  V30 404 C 44.6646 0.867385 5.66802 0
M  V30 405 N 44.1606 1.19157 6.82476 0
M  V30 406 N 45.9536 0.794687 5.56454 0
M  V30 407 H 38.1046 1.25624 1.71267 0
M  V30 408 H 40.3676 0.509057 0.799728 0
M  V30 409 H 40.0736 1.36263 3.2423 0
M  V30 410 H 39.9476 -0.309508 3.75928 0
M  V30 411 H 42.3346 -0.727649 2.85988 0
M  V30 412 H 42.4156 0.969809 2.36703 0
M  V30 413 H 42.0596 1.66912 4.7969 0
M  V30 414 H 41.9896 -0.0481649 5.26578 0
M  V30 415 H 44.4806 0.369198 3.76092 0
M  V30 416 H 44.7936 1.37482 7.60473 0
M  V30 417 H 43.1386 1.22958 6.84037 0
M  V30 418 H 46.3296 0.541098 4.64962 0
M  V30 419 H 46.5026 0.999445 6.40246 0
M  V30 420 N 39.9087 -1.5758 0.0250728 0
M  V30 421 C 40.8387 -2.13007 -0.956575 0
M  V30 422 C 41.8197 -1.0452 -1.342 0
M  V30 423 O 43.0047 -1.32332 -1.42133 0
M  V30 424 C 40.1347 -2.65386 -2.24026 0
M  V30 425 C 39.0887 -3.78623 -1.99571 0
M  V30 426 C 38.4147 -4.17414 -3.3417 0
M  V30 427 C 39.7147 -5.04867 -1.33814 0
M  V30 428 H 41.4087 -2.9528 -0.494991 0
M  V30 429 H 38.9547 -1.42042 -0.236651 0
M  V30 430 H 40.9077 -3.02794 -2.93076 0
M  V30 431 H 39.6317 -1.80268 -2.72343 0
M  V30 432 H 38.2907 -3.41646 -1.32941 0
M  V30 433 H 37.9387 -3.29284 -3.80238 0
M  V30 434 H 37.6387 -4.93719 -3.18615 0
M  V30 435 H 39.1627 -4.57402 -4.04495 0
M  V30 436 H 40.5767 -5.39888 -1.92857 0
M  V30 437 H 38.9737 -5.86144 -1.28669 0
M  V30 438 H 40.0437 -4.83904 -0.310561 0
M  V30 439 N 41.3868 0.248026 -1.55636 0
M  V30 440 C 42.8028 0.596483 -1.48035 0
M  V30 441 C 43.0028 1.88386 -0.715039 0
M  V30 442 O 42.0588 2.51319 -0.243944 0
M  V30 443 C 43.3718 0.700258 -2.92433 0
M  V30 444 C 44.9198 0.792659 -3.02797 0
M  V30 445 C 45.3948 0.928005 -4.485 0
M  V30 446 N 46.8858 0.992903 -4.52433 0
M  V30 447 C 47.6208 1.11687 -5.62418 0
M  V30 448 N 47.1168 1.20645 -6.82214 0
M  V30 449 N 48.9098 1.14994 -5.50212 0
M  V30 450 H 41.0608 -0.597109 -2.03834 0
M  V30 451 H 43.3238 -0.205925 -0.925364 0
M  V30 452 H 43.0298 -0.175658 -3.51261 0
M  V30 453 H 42.9038 1.57255 -3.42857 0
M  V30 454 H 45.2908 1.65903 -2.4405 0
M  V30 455 H 45.3718 -0.104762 -2.55585 0
M  V30 456 H 45.0158 0.0661971 -5.07857 0
M  V30 457 H 44.9458 1.84045 -4.93391 0
M  V30 458 H 47.4368 0.935064 -3.66149 0
M  V30 459 H 47.7498 1.30008 -7.61786 0
M  V30 460 H 46.0948 1.17605 -6.84977 0
M  V30 461 H 49.2858 1.07643 -4.55555 0
M  V30 462 H 49.4588 1.24311 -6.35965 0
M  V30 463 N 42.8649 1.48995 0.513639 0
M  V30 464 C 44.1419 1.48338 1.27495 0
M  V30 465 C 44.5219 0.204065 2.10111 0
M  V30 466 O 43.8699 -0.813881 2.13514 0
M  V30 467 C 44.0799 2.75498 2.14247 0
M  V30 468 C 45.4279 3.24484 2.73852 0
M  V30 469 O 46.4519 2.76528 2.24523 0
M  V30 470 O 45.3109 4.07974 3.6362 0
M  V30 471 H 42.4049 0.593149 0.576284 0
M  V30 472 H 44.9509 1.61246 0.528948 0
M  V30 473 H 43.7229 3.60109 1.53092 0
M  V30 474 H 43.3459 2.6539 2.96064 0
M  V30 475 N 44.343 -0.763751 1.37857 0
M  V30 476 C 45.759 -1.06542 1.18832 0
M  V30 477 C 45.959 -2.01478 0.0299722 0
M  V30 478 O 45.015 -2.4458 -0.627447 0
M  V30 479 C 46.328 -1.65525 2.51042 0
M  V30 480 C 47.876 -1.77745 2.57635 0
M  V30 481 C 48.351 -2.4014 3.89996 0
M  V30 482 N 49.842 -2.47582 3.91481 0
M  V30 483 C 50.577 -2.96732 4.9065 0
M  V30 484 N 50.073 -3.45993 6.00217 0
M  V30 485 N 51.866 -2.95679 4.78048 0
M  V30 486 H 44.017 -0.133556 2.1198 0
M  V30 487 H 46.28 -0.121879 0.940133 0
M  V30 488 H 45.986 -1.03236 3.36207 0
M  V30 489 H 45.86 -2.64719 2.68707 0
M  V30 490 H 48.247 -2.39164 1.72872 0
M  V30 491 H 48.328 -0.772836 2.43846 0
M  V30 492 H 47.972 -1.79358 4.75177 0
M  V30 493 H 47.902 -3.41223 4.01092 0
M  V30 494 H 50.393 -2.1273 3.12337 0
M  V30 495 H 50.706 -3.81922 6.7183 0
M  V30 496 H 49.051 -3.44077 6.03851 0
M  V30 497 H 52.242 -2.56499 3.91568 0
M  V30 498 H 52.415 -3.33672 5.55488 0
M  V30 499 N 45.8211 -1.22559 -0.990812 0
M  V30 500 C 47.0691 -1.04933 -1.72724 0
M  V30 501 C 47.3901 0.416158 -1.90508 0
M  V30 502 O 46.6601 1.29918 -1.46622 0
M  V30 503 H 45.2401 -0.385296 -0.639965 0
M  V30 504 H 47.9021 -1.54105 -1.19322 0
M  V30 505 H 46.9981 -1.52886 -2.72089 0
M  V30 506 N 47.2992 1.18797 -1.03562 0
M  V30 507 C 48.2622 2.20464 -0.626769 0
M  V30 508 C 49.2622 1.57721 0.313173 0
M  V30 509 O 50.4522 1.73917 0.0992615 0
M  V30 510 C 47.5842 3.40802 0.0818498 0
M  V30 511 H 48.7772 2.58149 -1.5264 0
M  V30 512 H 46.3302 1.32593 -0.827578 0
M  V30 513 H 47.0652 3.08642 0.995518 0
M  V30 514 H 46.8502 3.8758 -0.593652 0
M  V30 515 H 48.3402 4.16092 0.354584 0
M  V30 516 N 48.7773 0.814389 1.34928 0
M  V30 517 C 50.0543 0.321363 1.92942 0
M  V30 518 C 50.4343 -1.19014 1.74353 0
M  V30 519 O 49.7823 -1.99328 1.11716 0
M  V30 520 C 49.9923 0.741323 3.41036 0
M  V30 521 C 51.3403 0.735266 4.18185 0
M  V30 522 O 52.3643 0.68336 3.49584 0
M  V30 523 O 51.2233 0.800703 5.40602 0
M  V30 524 H 48.3173 0.0858893 0.822528 0
M  V30 525 H 50.8633 0.898609 1.43955 0
M  V30 526 H 49.6353 1.78276 3.4833 0
M  V30 527 H 49.2583 0.139307 3.97356 0
M  V30 528 N 50.2554 -1.46986 0.568584 0
M  V30 529 C 51.5014 -2.02741 0.0488709 0
M  V30 530 C 51.8344 -1.44077 -1.30214 0
M  V30 531 O 51.1094 -0.600552 -1.84996 0
M  V30 532 C 51.3924 -3.60086 -0.032047 0
M  V30 533 C 51.2454 -4.29162 1.34686 0
M  V30 534 C 52.5644 -4.33838 -0.739798 0
M  V30 535 H 49.6834 -0.736749 0.0192338 0
M  V30 536 H 52.3254 -1.75289 0.733065 0
M  V30 537 H 50.4754 -3.83606 -0.61473 0
M  V30 538 H 52.1474 -4.16948 1.97362 0
M  V30 539 H 50.3904 -3.89073 1.91846 0
M  V30 540 H 51.0614 -5.37826 1.24285 0
M  V30 541 H 53.5374 -4.15378 -0.244939 0
M  V30 542 H 52.4134 -5.43537 -0.765406 0
M  V30 543 H 52.6744 -4.03875 -1.79827 0
M  V30 544 N 51.7335 -0.305618 -1.54608 0
M  V30 545 C 53.1495 0.0476228 -1.59529 0
M  V30 546 C 53.3495 1.52025 -1.32252 0
M  V30 547 O 52.4055 2.27368 -1.09818 0
M  V30 548 C 53.7185 -0.354471 -2.98603 0
M  V30 549 C 55.2665 -0.303622 -3.11524 0
M  V30 550 C 55.7415 -0.680608 -4.52915 0
M  V30 551 N 57.2325 -0.63332 -4.5885 0
M  V30 552 C 57.9675 -0.897432 -5.66334 0
M  V30 553 N 57.4635 -1.22775 -6.81834 0
M  V30 554 N 59.2565 -0.824186 -5.56025 0
M  V30 555 H 51.4075 -1.2653 -1.70599 0
M  V30 556 H 53.6705 -0.513291 -0.797017 0
M  V30 557 H 53.3765 -1.3798 -3.23503 0
M  V30 558 H 53.2505 0.289568 -3.76087 0
M  V30 559 H 55.6375 0.712472 -2.8637 0
M  V30 560 H 55.7185 -0.982348 -2.36185 0
M  V30 561 H 55.3625 -1.69453 -4.78799 0
M  V30 562 H 55.2925 0.0202385 -5.26596 0
M  V30 563 H 57.7835 -0.389138 -3.75891 0
M  V30 564 H 58.0965 -1.41513 -7.59733 0
M  V30 565 H 56.4415 -1.26583 -6.83375 0
M  V30 566 H 59.6325 -0.565748 -4.64669 0
M  V30 567 H 59.8055 -1.03338 -6.39707 0
M  V30 568 N 53.2116 1.57565 -0.0334293 0
M  V30 569 C 54.4576 1.92262 0.645226 0
M  V30 570 C 54.7906 0.910543 1.71531 0
M  V30 571 O 54.0656 -0.066099 1.94388 0
M  V30 572 C 54.3486 3.37422 1.2577 0
M  V30 573 C 54.2016 4.49369 0.196891 0
M  V30 574 C 55.5206 3.82628 2.17449 0
M  V30 575 H 52.6396 0.699171 0.233085 0
M  V30 576 H 55.2816 1.89779 -0.0915694 0
M  V30 577 H 53.4316 3.39669 1.88566 0
M  V30 578 H 55.1036 4.59254 -0.433962 0
M  V30 579 H 53.3466 4.31168 -0.477137 0
M  V30 580 H 54.0176 5.47978 0.665124 0
M  V30 581 H 56.4936 3.82145 1.64634 0
M  V30 582 H 55.3696 4.84883 2.57254 0
M  V30 583 H 55.6306 3.18376 3.0674 0
M  V30 584 N 54.6897 -0.239769 1.55765 0
M  V30 585 C 55.6527 -1.28038 1.90103 0
M  V30 586 C 56.6527 -1.40723 0.778055 0
M  V30 587 O 57.8427 -1.39301 1.04599 0
M  V30 588 C 54.9747 -2.65702 2.13577 0
M  V30 589 H 56.1677 -0.988048 2.83157 0
M  V30 590 H 53.7207 -0.479382 1.48767 0
M  V30 591 H 54.4557 -3.00063 1.23015 0
M  V30 592 H 54.2407 -2.57875 2.95369 0
M  V30 593 H 55.7307 -3.40828 2.41301 0
M  V30 594 N 56.1678 -1.49265 -0.50573 0
M  V30 595 C 57.1008 -1.60183 -1.62532 0
M  V30 596 C 58.0788 -0.451107 -1.56217 0
M  V30 597 O 59.2628 -0.666016 -1.76342 0
M  V30 598 C 56.3898 -1.55238 -3.01029 0
M  V30 599 C 55.4358 -2.7545 -3.25621 0
M  V30 600 S 56.2688 -4.37174 -3.09256 0
M  V30 601 C 57.4248 -4.34866 -4.50158 0
M  V30 602 H 57.6578 -2.54894 -1.53025 0
M  V30 603 H 55.1908 -1.38098 -0.690535 0
M  V30 604 H 57.1488 -1.53071 -3.80893 0
M  V30 605 H 55.8098 -0.618238 -3.07956 0
M  V30 606 H 55.0028 -2.68197 -4.26716 0
M  V30 607 H 54.6048 -2.75005 -2.53472 0
M  V30 608 H 56.8968 -4.06295 -5.42154 0
M  V30 609 H 57.8398 -5.36223 -4.62462 0
M  V30 610 H 58.2478 -3.65007 -4.30616 0
M  V30 611 N 57.6459 0.756429 -1.3826 0
M  V30 612 C 58.8739 1.54565 -1.3754 0
M  V30 613 C 59.2889 1.88767 0.0355331 0
M  V30 614 O 58.6459 1.52572 1.0014 0
M  V30 615 C 58.6969 2.84654 -2.22833 0
M  V30 616 O 58.4179 2.51912 -3.5843 0
M  V30 617 C 59.9189 3.78807 -2.30261 0
M  V30 618 H 57.1389 0.478353 -0.470553 0
M  V30 619 H 59.6829 0.936381 -1.81803 0
M  V30 620 H 57.8379 3.41965 -1.8204 0
M  V30 621 H 58.2519 3.35325 -4.03308 0
M  V30 622 H 59.7259 4.67045 -2.94233 0
M  V30 623 H 60.2029 4.19038 -1.31545 0
M  V30 624 H 60.8089 3.2742 -2.71433 0
M  V30 625 N 59.124 1.23083 0.984299 0
M  V30 626 C 60.034 1.02515 2.11016 0
M  V30 627 C 61.05 -0.0291702 1.73976 0
M  V30 628 O 62.226 0.165434 2.00719 0
M  V30 629 C 59.291 0.614673 3.41208 0
M  V30 630 C 58.352 1.74359 3.92297 0
M  V30 631 C 57.585 1.35261 5.16275 0
M  V30 632 O 57.808 0.235136 5.69915 0
M  V30 633 O 56.742 2.17227 5.61334 0
M  V30 634 H 60.568 1.96862 2.31255 0
M  V30 635 H 58.153 1.01753 1.09392 0
M  V30 636 H 60.035 0.396518 4.1953 0
M  V30 637 H 58.71 -0.299851 3.22308 0
M  V30 638 H 57.617 2.01635 3.1511 0
M  V30 639 H 58.95 2.63629 4.15645 0
M  V30 640 N 60.6021 -1.18246 1.0419 0
M  V30 641 C 61.5651 -2.20128 0.638452 0
M  V30 642 C 62.5651 -1.57885 -0.304805 0
M  V30 643 O 63.7551 -1.73967 -0.0900369 0
M  V30 644 C 60.8871 -3.4084 -0.0637751 0
M  V30 645 H 62.0801 -2.57336 1.54007 0
M  V30 646 H 59.6331 -1.32152 0.834598 0
M  V30 647 H 60.3681 -3.09166 -0.979136 0
M  V30 648 H 60.1531 -3.8726 0.614198 0
M  V30 649 H 61.6431 -4.16274 -0.332512 0
M  V30 650 N 62.0802 -0.821533 -1.34494 0
M  V30 651 C 63.0432 -0.247847 -2.27856 0
M  V30 652 C 64.0432 0.573453 -1.50227 0
M  V30 653 O 65.2332 0.389759 -1.69784 0
M  V30 654 C 62.3652 0.652698 -3.34593 0
M  V30 655 H 63.5582 -1.07146 -2.80107 0
M  V30 656 H 61.1112 -0.593291 -1.44602 0
M  V30 657 H 61.8462 1.49943 -2.87555 0
M  V30 658 H 61.6312 0.065292 -3.92046 0
M  V30 659 H 63.1212 1.04793 -4.04238 0
M  V30 660 N 63.5583 1.46682 -0.576371 0
M  V30 661 C 64.5053 2.30241 0.160499 0
M  V30 662 C 65.4753 1.40233 0.890162 0
M  V30 663 O 66.6603 1.69186 0.882084 0
M  V30 664 C 63.8003 3.24578 1.1723 0
M  V30 665 C 62.9133 4.29684 0.446736 0
M  V30 666 C 62.0483 5.11154 1.44551 0
M  V30 667 C 61.0873 6.08015 0.70599 0
M  V30 668 N 60.2243 6.82376 1.65251 0
M  V30 669 H 65.0643 2.92727 -0.558127 0
M  V30 670 H 62.6013 1.44272 -0.287056 0
M  V30 671 H 64.5593 3.77711 1.77172 0
M  V30 672 H 63.1893 2.63916 1.85872 0
M  V30 673 H 62.2413 3.79458 -0.267594 0
M  V30 674 H 63.5533 4.98626 -0.131686 0
M  V30 675 H 62.7073 5.68533 2.11791 0
M  V30 676 H 61.4463 4.42158 2.05786 0
M  V30 677 H 60.4513 5.49796 0.0197725 0
M  V30 678 H 61.6763 6.79028 0.09912 0
M  V30 679 H 59.6223 6.16094 2.25308 0
M  V30 680 H 59.5393 7.47556 1.12673 0
M  V30 681 H 60.8073 7.44316 2.31546 0
M  V30 682 N 65.0364 0.313813 1.54444 0
M  V30 683 C 65.9994 -0.54379 2.22656 0
M  V30 684 C 66.9994 -1.05124 1.21678 0
M  V30 685 O 68.1894 -0.945225 1.46325 0
M  V30 686 C 65.3214 -1.75427 2.92298 0
M  V30 687 H 66.5144 0.0523599 2.99854 0
M  V30 688 H 64.0674 0.0647834 1.56166 0
M  V30 689 H 64.8024 -2.38991 2.19211 0
M  V30 690 H 64.5874 -1.39791 3.66334 0
M  V30 691 H 66.0774 -2.36325 3.44297 0
M  V30 692 N 66.5145 -1.57545 0.0417849 0
M  V30 693 C 67.7615 -1.92317 -0.634082 0
M  V30 694 C 68.0895 -0.919334 -1.71402 0
M  V30 695 O 67.3445 0.0698253 -1.95575 0
M  V30 696 C 67.6435 -3.33794 -1.27735 0
M  V30 697 C 67.3095 -4.49716 -0.326543 0
M  V30 698 C 65.9715 -4.81156 -0.0648814 0
M  V30 699 C 68.3235 -5.20182 0.325623 0
M  V30 700 C 65.6515 -5.80414 0.856539 0
M  V30 701 C 68.0035 -6.20424 1.23518 0
M  V30 702 C 66.6675 -6.50298 1.5056 0
M  V30 703 H 65.9375 -0.703736 -0.232027 0
M  V30 704 H 68.5845 -1.91205 0.106259 0
M  V30 705 H 66.8895 -3.31228 -2.09274 0
M  V30 706 H 68.5865 -3.57975 -1.80707 0
M  V30 707 H 65.1765 -4.25176 -0.540665 0
M  V30 708 H 69.3605 -4.96112 0.136546 0
M  V30 709 H 64.6165 -6.019 1.07363 0
M  V30 710 H 68.7905 -6.74141 1.74664 0
M  V30 711 H 66.4175 -7.27025 2.22123 0
M  V30 712 N 67.9926 0.231505 -1.5589 0
M  V30 713 C 69.2416 0.955346 -1.7764 0
M  V30 714 C 69.5546 1.85893 -0.608546 0
M  V30 715 O 70.7606 2.62067 -0.70943 0
M  V30 716 C 69.2166 1.74886 -3.14552 0
M  V30 717 C 68.8246 0.891915 -4.39032 0
M  V30 718 C 70.5686 2.46452 -3.45633 0
M  V30 719 C 68.4756 1.68221 -5.66971 0
M  V30 720 H 67.4056 0.360446 -0.662265 0
M  V30 721 H 70.0566 0.209516 -1.823 0
M  V30 722 H 68.4386 2.53723 -3.04041 0
M  V30 723 H 69.6126 0.144793 -4.60572 0
M  V30 724 H 67.9276 0.288863 -4.15397 0
M  V30 725 H 70.5246 3.06061 -4.38441 0
M  V30 726 H 70.8676 3.18841 -2.67668 0
M  V30 727 H 71.4006 1.74613 -3.57428 0
M  V30 728 H 68.1396 1.00178 -6.478 0
M  V30 729 H 67.6596 2.4042 -5.49507 0
M  V30 730 H 69.3386 2.24544 -6.06786 0
M  V30 731 N 69.4707 1.49531 0.497807 0
M  V30 732 C 70.6987 1.62893 1.27567 0
M  V30 733 C 71.1137 0.301585 1.86376 0
M  V30 734 O 70.4707 -0.713335 1.67982 0
M  V30 735 C 70.5217 2.70013 2.40364 0
M  V30 736 O 70.2427 3.976 1.83972 0
M  V30 737 C 71.7437 2.94109 3.31685 0
M  V30 738 H 68.9637 0.548298 0.386794 0
M  V30 739 H 71.5077 1.95584 0.597245 0
M  V30 740 H 69.6627 2.40092 3.04031 0
M  V30 741 H 70.0767 4.56631 2.58047 0
M  V30 742 H 71.5507 3.72788 4.07104 0
M  V30 743 H 72.0277 2.04147 3.88871 0
M  V30 744 H 72.6337 3.2546 2.73781 0
M  V30 745 N 70.9488 -0.749086 1.3866 0
M  V30 746 C 72.3598 -1.32664 1.31366 0
M  V30 747 C 72.7108 -1.96179 -0.028484 0
M  V30 748 O 71.8358 -1.9537 -0.93057 0
M  V30 749 C 72.4308 -2.41219 2.37905 0
M  V30 750 C 70.9898 -2.94684 2.34176 0
M  V30 751 C 70.1368 -1.68108 2.20533 0
M  V30 752 H 73.0878 -0.547628 1.48952 0
M  V30 753 H 73.1088 -3.21268 2.0388 0
M  V30 754 H 72.6208 -1.94962 3.35576 0
M  V30 755 H 70.7218 -3.45258 1.401 0
M  V30 756 H 70.8348 -3.48757 3.2849 0
M  V30 757 H 69.1988 -1.91907 1.67463 0
M  V30 758 H 69.9818 -1.23923 3.20153 0
M  V30 759 N 72.4269 -1.23603 -0.977757 0
M  V30 760 C 73.3569 -1.04401 -2.0886 0
M  V30 761 C 74.3379 0.0399052 -1.70053 0
M  V30 762 O 75.5229 -0.125246 -1.93796 0
M  V30 763 C 72.6529 -0.637269 -3.41403 0
M  V30 764 C 71.6069 -1.66883 -3.94124 0
M  V30 765 C 70.9329 -1.11745 -5.22893 0
M  V30 766 C 72.2329 -3.06247 -4.23096 0
M  V30 767 H 73.9269 -1.97316 -2.25182 0
M  V30 768 H 71.4729 -0.950096 -1.08209 0
M  V30 769 H 73.4259 -0.48998 -4.18542 0
M  V30 770 H 72.1499 0.327557 -3.24953 0
M  V30 771 H 70.8089 -1.80416 -3.19133 0
M  V30 772 H 70.4569 -0.143527 -5.02795 0
M  V30 773 H 70.1569 -1.80672 -5.59134 0
M  V30 774 H 71.6809 -0.982067 -6.02651 0
M  V30 775 H 73.0949 -2.96001 -4.90975 0
M  V30 776 H 71.4919 -3.72436 -4.70544 0
M  V30 777 H 72.5619 -3.55041 -3.30263 0
M  V30 778 N 73.905 1.17692 -1.04816 0
M  V30 779 C 75.13 1.92327 -0.776207 0
M  V30 780 C 75.555 1.76082 0.661581 0
M  V30 781 O 74.913 1.076 1.45917 0
M  V30 782 C 74.961 3.41539 -1.15687 0
M  V30 783 O 74.065 4.11402 -0.286775 0
M  V30 784 H 73.406 0.599735 -0.284981 0
M  V30 785 H 75.936 1.49201 -1.4 0
M  V30 786 H 75.946 3.92269 -1.12202 0
M  V30 787 H 74.621 3.52684 -2.20425 0
M  V30 788 H 73.198 3.70939 -0.381903 0
M  V30 789 N 75.3831 0.828654 1.34056 0
M  V30 790 C 76.3131 0.269443 2.3194 0
M  V30 791 C 77.2941 -0.617247 1.58506 0
M  V30 792 O 78.4791 -0.542931 1.86456 0
M  V30 793 C 75.6091 -0.564793 3.42677 0
M  V30 794 C 74.5631 0.225241 4.27407 0
M  V30 795 C 73.8891 -0.7321 5.29664 0
M  V30 796 C 75.1891 1.43663 5.02154 0
M  V30 797 H 76.8831 1.08728 2.7896 0
M  V30 798 H 74.4291 0.524283 1.34117 0
M  V30 799 H 76.3821 -0.966233 4.10173 0
M  V30 800 H 75.1061 -1.41574 2.9432 0
M  V30 801 H 73.7651 0.608117 3.61521 0
M  V30 802 H 73.4131 -1.57916 4.77568 0
M  V30 803 H 73.1131 -0.20767 5.87233 0
M  V30 804 H 74.6371 -1.13128 6.00029 0
M  V30 805 H 76.0511 1.1089 5.62473 0
M  V30 806 H 74.4481 1.89711 5.69324 0
M  V30 807 H 75.5181 2.21181 4.31517 0
M  V30 808 N 76.8612 -1.46375 0.584142 0
M  V30 809 C 77.7932 -2.28443 -0.186119 0
M  V30 810 C 78.8062 -1.38596 -0.854115 0
M  V30 811 O 79.9952 -1.63183 -0.723438 0
M  V30 812 C 77.0952 -3.13671 -1.28311 0
M  V30 813 C 76.2682 -4.31652 -0.706758 0
M  V30 814 C 75.3272 -4.98267 -1.69163 0
M  V30 815 O 74.3532 -5.55815 -1.22712 0
M  V30 816 N 75.5552 -4.95408 -3.02575 0
M  V30 817 H 78.3202 -2.9519 0.517986 0
M  V30 818 H 75.8812 -1.56303 0.42201 0
M  V30 819 H 77.8732 -3.55101 -1.94128 0
M  V30 820 H 76.4432 -2.48989 -1.89005 0
M  V30 821 H 75.6632 -3.93989 0.128908 0
M  V30 822 H 76.9512 -5.07906 -0.301506 0
M  V30 823 H 76.3492 -4.49902 -3.42936 0
M  V30 824 H 74.9062 -5.40774 -3.63877 0
M  V30 825 N 78.3393 -0.321999 -1.54275 0
M  V30 826 C 79.3023 0.531975 -2.22941 0
M  V30 827 C 80.3023 1.04478 -1.22234 0
M  V30 828 O 81.4923 0.937452 -1.46825 0
M  V30 829 C 78.6243 1.73874 -2.93224 0
M  V30 830 H 79.8173 -0.0682612 -2.99822 0
M  V30 831 H 77.3703 -0.0730644 -1.56129 0
M  V30 832 H 78.1053 2.37825 -2.20476 0
M  V30 833 H 77.8903 1.37847 -3.6707 0
M  V30 834 H 79.3803 2.34496 -3.45545 0
M  V30 835 N 79.8174 1.5752 -0.0501392 0
M  V30 836 C 81.0634 1.92936 0.624798 0
M  V30 837 C 81.3964 0.928685 1.70555 0
M  V30 838 O 80.6714 -0.0454779 1.94447 0
M  V30 839 C 80.9544 3.38737 1.22185 0
M  V30 840 C 80.8074 4.49552 0.149218 0
M  V30 841 C 82.1264 3.84913 2.13378 0
M  V30 842 H 79.2454 0.701604 0.225657 0
M  V30 843 H 81.8874 1.89671 -0.111693 0
M  V30 844 H 80.0374 3.4165 1.84953 0
M  V30 845 H 81.7094 4.58768 -0.482648 0
M  V30 846 H 79.9524 4.30638 -0.522841 0
M  V30 847 H 80.6234 5.48653 0.606966 0
M  V30 848 H 83.0994 3.8387 1.60572 0
M  V30 849 H 81.9754 4.87584 2.52097 0
M  V30 850 H 82.2364 3.21611 3.03346 0
M  V30 851 N 81.2955 -0.223234 1.56011 0
M  V30 852 C 82.5205 -0.968978 1.83373 0
M  V30 853 C 82.9455 -1.77227 0.630254 0
M  V30 854 O 82.3035 -1.76345 -0.420959 0
M  V30 855 C 82.3515 -1.86363 3.08709 0
M  V30 856 O 81.4555 -2.95873 2.87285 0
M  V30 857 H 80.7965 -0.274461 0.604622 0
M  V30 858 H 83.3265 -0.237056 2.03222 0
M  V30 859 H 83.3365 -2.27376 3.38768 0
M  V30 860 H 82.0115 -1.27319 3.95933 0
M  V30 861 H 80.5885 -2.58818 2.68454 0
M  V30 862 N 82.7736 -1.49793 -0.48987 0
M  V30 863 C 84.0216 -1.59525 -1.24081 0
M  V30 864 C 84.3426 -0.288953 -1.92847 0
M  V30 865 O 83.6126 0.692436 -1.83254 0
M  V30 866 H 82.1926 -0.587796 -0.460983 0
M  V30 867 H 84.8546 -1.86477 -0.566778 0
M  V30 868 H 83.9506 -2.39696 -1.99881 0
M  V30 869 N 84.2517 0.741722 -1.39055 0
M  V30 870 C 85.4817 1.52876 -1.3897 0
M  V30 871 C 85.8897 1.8919 0.0193266 0
M  V30 872 O 85.2327 1.54138 0.999356 0
M  V30 873 C 85.2947 2.84929 -2.19216 0
M  V30 874 C 84.9587 2.71086 -3.67915 0
M  V30 875 C 85.9557 2.40084 -4.61146 0
M  V30 876 C 83.6407 2.88168 -4.11418 0
M  V30 877 C 85.6347 2.26335 -5.95862 0
M  V30 878 C 83.3217 2.74037 -5.46211 0
M  V30 879 C 84.3197 2.43166 -6.38247 0
M  V30 880 O 84.0077 2.29115 -7.70559 0
M  V30 881 H 83.7397 0.479252 -0.476753 0
M  V30 882 H 86.2937 0.924751 -1.83405 0
M  V30 883 H 84.5237 3.47564 -1.69518 0
M  V30 884 H 86.2127 3.46509 -2.11392 0
M  V30 885 H 86.9787 2.26545 -4.28838 0
M  V30 886 H 82.8577 3.11191 -3.40119 0
M  V30 887 H 86.4017 2.0216 -6.67665 0
M  V30 888 H 82.2987 2.87153 -5.78112 0
M  V30 889 H 83.0667 2.44237 -7.81211 0
M  V30 890 N 85.7298 1.2412 0.971189 0
M  V30 891 C 87.1408 1.07236 1.52831 0
M  V30 892 C 87.4918 -0.357352 1.92918 0
M  V30 893 O 86.6168 -1.24528 1.76979 0
M  V30 894 C 87.2118 1.94043 2.77728 0
M  V30 895 C 85.7708 1.81394 3.29808 0
M  V30 896 C 84.9178 1.89189 2.02738 0
M  V30 897 H 87.8688 1.37648 0.789864 0
M  V30 898 H 87.8898 1.47066 3.5093 0
M  V30 899 H 87.4018 2.98093 2.4852 0
M  V30 900 H 85.5028 0.801634 3.63874 0
M  V30 901 H 85.6158 2.65294 3.98944 0
M  V30 902 H 83.9798 1.32877 2.17292 0
M  V30 903 H 84.7628 2.94812 1.759 0
M  V30 904 N 87.2079 -1.17134 1.05439 0
M  V30 905 C 88.4539 -1.87733 0.767077 0
M  V30 906 C 88.7869 -1.8098 -0.704253 0
M  V30 907 O 88.0619 -1.21951 -1.5152 0
M  V30 908 C 88.3449 -3.37659 1.25133 0
M  V30 909 C 88.1979 -3.53149 2.78578 0
M  V30 910 C 89.5169 -4.31768 0.852324 0
M  V30 911 H 86.6359 -0.681687 0.280129 0
M  V30 912 H 89.2779 -1.37732 1.30881 0
M  V30 913 H 87.4279 -3.80373 0.790469 0
M  V30 914 H 89.0999 -3.19434 3.32806 0
M  V30 915 H 87.3429 -2.95345 3.17732 0
M  V30 916 H 88.0139 -4.58403 3.07523 0
M  V30 917 H 90.4899 -3.96909 1.24911 0
M  V30 918 H 89.3659 -5.35199 1.21873 0
M  V30 919 H 89.6269 -4.41429 -0.243485 0
M  V30 920 N 88.686 -0.835752 -1.33615 0
M  V30 921 C 89.911 -0.442389 -2.02627 0
M  V30 922 C 90.336 0.947735 -1.62479 0
M  V30 923 O 89.694 1.61907 -0.815826 0
M  V30 924 C 89.742 -0.567216 -3.56111 0
M  V30 925 O 88.846 0.407799 -4.10379 0
M  V30 926 H 88.187 -0.180278 -0.639059 0
M  V30 927 H 90.717 -1.12972 -1.70583 0
M  V30 928 H 90.727 -0.447708 -4.05536 0
M  V30 929 H 89.402 -1.58103 -3.84677 0
M  V30 930 H 87.979 0.246107 -3.72087 0
M  V30 931 N 90.1641 1.46063 -0.591896 0
M  V30 932 C 91.4411 1.95595 -0.0137119 0
M  V30 933 C 91.8211 1.5345 1.4497 0
M  V30 934 O 91.1691 0.789543 2.14426 0
M  V30 935 C 91.3791 3.48453 -0.195373 0
M  V30 936 C 92.7271 4.24546 -0.0679765 0
M  V30 937 O 93.7511 3.55982 -0.124681 0
M  V30 938 O 92.6101 5.46467 0.0600579 0
M  V30 939 H 89.7041 0.825795 0.0446279 0
M  V30 940 H 92.2501 1.56303 -0.660859 0
M  V30 941 H 91.0221 3.72045 -1.21235 0
M  V30 942 H 90.6451 3.94597 0.487775 0
M  V30 943 N 91.6422 0.330177 1.54103 0
M  V30 944 C 92.8672 -0.274893 2.0557 0
M  V30 945 C 93.2922 -1.44487 1.20437 0
M  V30 946 O 92.6502 -1.80021 0.214991 0
M  V30 947 C 92.6982 -0.68079 3.54115 0
M  V30 948 O 91.8022 -1.7824 3.71893 0
M  V30 949 H 91.1432 -0.0483849 0.662235 0
M  V30 950 H 93.6732 0.480508 1.98878 0
M  V30 951 H 93.6832 -0.961635 3.96505 0
M  V30 952 H 92.3582 0.174903 4.15532 0
M  V30 953 H 90.9352 -1.49985 3.41407 0
M  V30 954 N 93.1203 -1.57491 0.0584922 0
M  V30 955 C 94.0503 -2.14988 -0.911178 0
M  V30 956 C 95.0313 -1.07343 -1.31952 0
M  V30 957 O 96.2163 -1.35318 -1.39294 0
M  V30 958 C 93.3463 -2.70078 -2.18347 0
M  V30 959 C 92.3003 -3.82771 -1.91495 0
M  V30 960 C 91.6263 -4.24408 -3.25241 0
M  V30 961 C 92.9263 -5.07592 -1.23075 0
M  V30 962 H 94.6203 -2.96263 -0.432246 0
M  V30 963 H 92.1663 -1.42512 -0.206469 0
M  V30 964 H 94.1193 -3.08943 -2.86587 0
M  V30 965 H 92.8433 -1.86005 -2.68458 0
M  V30 966 H 91.5023 -3.44389 -1.25664 0
M  V30 967 H 91.1503 -3.37275 -3.73168 0
M  V30 968 H 90.8503 -5.00366 -3.08071 0
M  V30 969 H 92.3743 -4.65879 -3.94701 0
M  V30 970 H 93.7883 -5.43857 -1.81362 0
M  V30 971 H 92.1853 -5.88741 -1.16207 0
M  V30 972 H 93.2553 -4.84454 -0.207847 0
M  V30 973 N 94.5984 0.214957 -1.56127 0
M  V30 974 C 95.5284 1.2695 -1.95974 0
M  V30 975 C 96.5094 1.48539 -0.828868 0
M  V30 976 O 97.6944 1.60611 -1.09168 0
M  V30 977 C 94.8244 2.61794 -2.28214 0
M  V30 978 C 93.7784 2.54851 -3.43853 0
M  V30 979 C 93.1044 3.93785 -3.61715 0
M  V30 980 C 94.4044 2.09065 -4.78632 0
M  V30 981 H 96.0984 0.93846 -2.84312 0
M  V30 982 H 93.6444 0.449996 -1.36788 0
M  V30 983 H 95.5974 3.35731 -2.54682 0
M  V30 984 H 94.3214 2.96599 -1.36736 0
M  V30 985 H 92.9804 1.8337 -3.17444 0
M  V30 986 H 92.6284 4.25908 -2.67602 0
M  V30 987 H 92.3284 3.90019 -4.39498 0
M  V30 988 H 93.8524 4.69374 -3.90539 0
M  V30 989 H 95.2664 2.7275 -5.04262 0
M  V30 990 H 93.6634 2.16346 -5.59745 0
M  V30 991 H 94.7334 1.04315 -4.73547 0
M  V30 992 N 96.0765 1.50051 0.48192 0
M  V30 993 C 97.3535 1.51009 1.2432 0
M  V30 994 C 97.7335 0.248587 2.09631 0
M  V30 995 O 97.0815 -0.768409 2.15192 0
M  V30 996 C 97.2915 2.79981 2.08355 0
M  V30 997 C 98.6395 3.3022 2.66908 0
M  V30 998 O 99.6635 2.81228 2.18607 0
M  V30 999 O 98.5225 4.15595 3.54884 0
M  V30 1000 H 95.6165 0.605239 0.563573 0
M  V30 1001 H 98.1625 1.62332 0.494627 0
M  V30 1002 H 96.9345 3.63275 1.45419 0
M  V30 1003 H 96.5575 2.7161 2.90368 0
M  V30 1004 N 97.5546 -0.734337 1.39446 0
M  V30 1005 C 98.9656 -1.31264 1.32766 0
M  V30 1006 C 99.3166 -1.96198 -0.00767497 0
M  V30 1007 O 98.4416 -1.96346 -0.909796 0
M  V30 1008 C 99.0366 -2.38682 2.4045 0
M  V30 1009 C 97.5956 -2.92184 2.37288 0
M  V30 1010 C 96.7426 -1.6576 2.22304 0
M  V30 1011 H 99.6936 -0.531799 1.49525 0
M  V30 1012 H 99.7146 -3.19087 2.07276 0
M  V30 1013 H 99.2266 -1.91392 3.37625 0
M  V30 1014 H 97.3276 -3.43752 1.43754 0
M  V30 1015 H 97.4406 -3.45253 3.3217 0
M  V30 1016 H 95.8046 -1.9012 1.69489 0
M  V30 1017 H 96.5876 -1.20521 3.21449 0
M  V30 1018 N 99.0327 -1.24633 -0.964593 0
M  V30 1019 C 99.9957 -1.0424 -2.04124 0
M  V30 1020 C 100.996 0.00137563 -1.608 0
M  V30 1021 O 102.186 -0.239883 -1.7254 0
M  V30 1022 C 99.3177 -0.580588 -3.3592 0
M  V30 1023 H 100.511 -1.99803 -2.23649 0
M  V30 1024 H 98.0637 -1.06899 -1.14027 0
M  V30 1025 H 98.7987 0.3781 -3.22088 0
M  V30 1026 H 98.5837 -1.33398 -3.6871 0
M  V30 1027 H 100.074 -0.459034 -4.15069 0
M  V30 1028 N 100.511 1.16574 -1.06058 0
M  V30 1029 C 101.474 2.19085 -0.673392 0
M  V30 1030 C 102.474 1.5835 0.279648 0
M  V30 1031 O 103.664 1.74088 0.0623488 0
M  V30 1032 C 100.796 3.40899 0.00954234 0
M  V30 1033 H 101.989 2.54853 -1.58081 0
M  V30 1034 H 99.5418 1.30808 -0.855516 0
M  V30 1035 H 100.277 3.10684 0.929826 0
M  V30 1036 H 100.062 3.86233 -0.67573 0
M  V30 1037 H 101.552 4.1675 0.266245 0
M  V30 1038 N 101.989 0.842826 1.3317 0
M  V30 1039 C 102.899 0.281444 2.32906 0
M  V30 1040 C 103.915 -0.594587 1.63526 0
M  V30 1041 O 105.091 -0.49777 1.95152 0
M  V30 1042 C 102.156 -0.530929 3.42611 0
M  V30 1043 C 101.217 0.369843 4.27704 0
M  V30 1044 C 100.45 -0.403853 5.3217 0
M  V30 1045 O 100.673 -1.63513 5.46461 0
M  V30 1046 O 99.6069 0.224199 6.01482 0
M  V30 1047 H 103.433 1.10744 2.82789 0
M  V30 1048 H 101.018 0.60545 1.36582 0
M  V30 1049 H 102.9 -0.992437 4.09547 0
M  V30 1050 H 101.575 -1.33392 2.94938 0
M  V30 1051 H 100.482 0.879275 3.6362 0
M  V30 1052 H 101.815 1.13771 4.78871 0
M  V30 1053 N 103.467 -1.45747 0.599634 0
M  V30 1054 C 104.43 -2.28917 -0.113835 0
M  V30 1055 C 105.43 -1.3933 -0.802729 0
M  V30 1056 O 106.62 -1.61534 -0.652103 0
M  V30 1057 C 103.752 -3.20152 -1.17114 0
M  V30 1058 H 104.945 -2.93478 0.617289 0
M  V30 1059 H 102.498 -1.52137 0.358327 0
M  V30 1060 H 103.233 -2.60374 -1.93329 0
M  V30 1061 H 103.018 -3.86133 -0.681468 0
M  V30 1062 H 104.508 -3.82708 -1.67105 0
M  V30 1063 N 104.945 -0.338344 -1.53925 0
M  V30 1064 C 105.908 0.508299 -2.23493 0
M  V30 1065 C 106.908 1.03175 -1.23335 0
M  V30 1066 O 108.098 0.921826 -1.47811 0
M  V30 1067 C 105.23 1.70754 -2.95052 0
M  V30 1068 H 106.423 -0.100058 -2.99733 0
M  V30 1069 H 103.976 -0.0896198 -1.56043 0
M  V30 1070 H 104.711 2.35474 -2.22986 0
M  V30 1071 H 104.496 1.33946 -3.68512 0
M  V30 1072 H 105.986 2.30818 -3.48013 0
M  V30 1073 N 106.423 1.57458 -0.0668435 0
M  V30 1074 C 107.356 2.08033 0.93795 0
M  V30 1075 C 108.334 0.984321 1.29421 0
M  V30 1076 O 109.518 1.25736 1.40437 0
M  V30 1077 C 106.645 2.53388 2.24749 0
M  V30 1078 C 105.691 3.74376 2.04315 0
M  V30 1079 S 106.524 5.19303 1.30706 0
M  V30 1080 C 107.68 5.67986 2.62951 0
M  V30 1081 H 107.913 2.92935 0.50759 0
M  V30 1082 H 105.446 1.5371 0.145804 0
M  V30 1083 H 107.404 2.8018 3.00016 0
M  V30 1084 H 106.065 1.68763 2.64911 0
M  V30 1085 H 105.258 4.04083 3.01218 0
M  V30 1086 H 104.86 3.47931 1.37186 0
M  V30 1087 H 107.152 5.74528 3.5906 0
M  V30 1088 H 108.095 6.66955 2.3786 0
M  V30 1089 H 108.503 4.95781 2.69929 0
M  V30 1090 N 107.901 -0.206675 1.56239 0
M  V30 1091 C 109.149 -0.927007 1.79586 0
M  V30 1092 C 109.47 -1.8427 0.637929 0
M  V30 1093 O 108.74 -1.92849 -0.344398 0
M  V30 1094 H 107.32 -0.345292 0.662407 0
M  V30 1095 H 109.982 -0.21496 1.93711 0
M  V30 1096 H 109.078 -1.52501 2.72305 0
M  V30 1097 N 109.379 -1.50304 -0.473955 0
M  V30 1098 C 110.329 -1.65347 -1.56985 0
M  V30 1099 C 111.313 -0.508176 -1.52664 0
M  V30 1100 O 112.505 -0.762446 -1.59737 0
M  V30 1101 C 109.634 -1.74832 -2.95447 0
M  V30 1102 C 108.72 -2.95028 -3.04662 0
M  V30 1103 N 109.111 -4.18747 -2.83698 0
M  V30 1104 C 107.409 -2.93527 -3.35795 0
M  V30 1105 C 108.11 -4.99687 -2.97805 0
M  V30 1106 N 107.086 -4.33585 -3.2788 0
M  V30 1107 H 110.888 -2.58698 -1.39472 0
M  V30 1108 H 108.402 -1.47449 -0.680629 0
M  V30 1109 H 110.399 -1.83712 -3.7424 0
M  V30 1110 H 109.059 -0.826376 -3.14008 0
M  V30 1111 H 110.07 -4.48291 -2.59337 0
M  V30 1112 H 106.747 -2.10821 -3.60362 0
M  V30 1113 H 108.137 -6.08057 -2.85861 0
M  V30 1114 N 110.857 0.726932 -1.39834 0
M  V30 1115 C 112.106 1.48214 -1.36805 0
M  V30 1116 C 112.419 1.95576 0.0305291 0
M  V30 1117 O 113.625 2.7088 0.183417 0
M  V30 1118 C 112.081 2.67854 -2.40379 0
M  V30 1119 C 111.689 2.27408 -3.85992 0
M  V30 1120 C 113.433 3.45641 -2.46439 0
M  V30 1121 C 111.34 3.43819 -4.81189 0
M  V30 1122 H 110.27 0.556606 -0.508631 0
M  V30 1123 H 112.921 0.792216 -1.65518 0
M  V30 1124 H 111.303 3.3896 -2.04749 0
M  V30 1125 H 112.477 1.63795 -4.30706 0
M  V30 1126 H 110.792 1.62692 -3.83302 0
M  V30 1127 H 113.389 4.32244 -3.14753 0
M  V30 1128 H 113.732 3.88669 -1.49139 0
M  V30 1129 H 114.265 2.8157 -2.81004 0
M  V30 1130 H 111.004 3.05834 -5.79781 0
M  V30 1131 H 110.524 4.06385 -4.41148 0
M  V30 1132 H 112.203 4.10043 -5.00474 0
M  V30 1133 N 112.336 1.25143 0.95797 0
M  V30 1134 C 113.246 1.06968 2.08794 0
M  V30 1135 C 114.262 0.00773911 1.73998 0
M  V30 1136 O 115.438 0.207972 2.00323 0
M  V30 1137 C 112.503 0.68691 3.39827 0
M  V30 1138 C 111.564 1.82641 3.88511 0
M  V30 1139 C 110.797 1.46181 5.1329 0
M  V30 1140 O 111.02 0.355971 5.69288 0
M  V30 1141 O 109.954 2.29085 5.566 0
M  V30 1142 H 113.78 2.01723 2.27027 0
M  V30 1143 H 111.365 1.04051 1.07209 0
M  V30 1144 H 113.247 0.485417 4.18595 0
M  V30 1145 H 111.922 -0.231417 3.22872 0
M  V30 1146 H 110.829 2.08274 3.10762 0
M  V30 1147 H 112.162 2.72386 4.09959 0
M  V30 1148 N 113.814 -1.1601 1.06675 0
M  V30 1149 C 114.744 -2.22688 0.702307 0
M  V30 1150 C 115.725 -1.67306 -0.307032 0
M  V30 1151 O 116.91 -1.93352 -0.181305 0
M  V30 1152 C 114.04 -3.47178 0.092038 0
M  V30 1153 C 112.994 -4.15477 1.02777 0
M  V30 1154 C 112.32 -5.33963 0.28061 0
M  V30 1155 C 113.62 -4.66019 2.35846 0
M  V30 1156 H 115.314 -2.53429 1.59419 0
M  V30 1157 H 112.86 -1.21813 0.767961 0
M  V30 1158 H 114.813 -4.21037 -0.174814 0
M  V30 1159 H 113.537 -3.15749 -0.834877 0
M  V30 1160 H 112.196 -3.43549 1.27944 0
M  V30 1161 H 111.844 -4.98788 -0.649545 0
M  V30 1162 H 111.544 -5.806 0.904258 0
M  V30 1163 H 113.068 -6.10596 0.021396 0
M  V30 1164 H 114.482 -5.3144 2.15045 0
M  V30 1165 H 112.879 -5.23293 2.93743 0
M  V30 1166 H 113.949 -3.82023 2.98641 0
M  V30 1167 N 115.292 -0.849877 -1.32721 0
M  V30 1168 C 116.54 -0.450032 -1.97026 0
M  V30 1169 C 116.861 0.996604 -1.67609 0
M  V30 1170 O 116.131 1.6958 -0.980786 0
M  V30 1171 H 114.711 -0.163426 -0.728904 0
M  V30 1172 H 117.373 -1.08526 -1.6189 0
M  V30 1173 H 116.469 -0.591146 -3.0645 0
M  V30 1174 N 116.77 1.45427 -0.607355 0
M  V30 1175 C 117.717 2.3053 0.111625 0
M  V30 1176 C 118.687 1.4209 0.860216 0
M  V30 1177 O 119.872 1.71019 0.845998 0
M  V30 1178 C 117.012 3.26992 1.10319 0
M  V30 1179 C 116.125 4.30535 0.355493 0
M  V30 1180 C 115.26 5.14105 1.33676 0
M  V30 1181 C 114.299 6.09376 0.576862 0
M  V30 1182 N 113.436 6.85727 1.5074 0
M  V30 1183 H 118.276 2.91477 -0.620093 0
M  V30 1184 H 115.813 1.43631 -0.317594 0
M  V30 1185 H 117.771 3.81385 1.6912 0
M  V30 1186 H 116.401 2.67799 1.80232 0
M  V30 1187 H 115.453 3.78805 -0.348023 0
M  V30 1188 H 116.765 4.98235 -0.237423 0
M  V30 1189 H 115.919 5.72897 1.99684 0
M  V30 1190 H 114.658 4.46423 1.9636 0
M  V30 1191 H 113.663 5.49715 -0.0968519 0
M  V30 1192 H 114.888 6.79085 -0.0449341 0
M  V30 1193 H 112.834 6.20735 2.12189 0
M  V30 1194 H 112.751 7.49778 0.967913 0
M  V30 1195 H 114.019 7.4906 2.15706 0
M  V30 1196 N 118.248 0.346503 1.53744 0
M  V30 1197 C 119.494 -0.242135 2.01954 0
M  V30 1198 C 119.849 -1.47962 1.22984 0
M  V30 1199 O 119.142 -1.89077 0.309924 0
M  V30 1200 C 119.336 -0.605809 3.52228 0
M  V30 1201 C 119.165 0.594882 4.45748 0
M  V30 1202 C 117.935 1.1011 4.93157 0
M  V30 1203 C 120.133 1.45425 4.93311 0
M  V30 1204 N 118.115 2.26381 5.70636 0
M  V30 1205 C 119.486 2.46383 5.68942 0
M  V30 1206 C 121.541 1.47935 4.75415 0
M  V30 1207 C 120.244 3.49684 6.28581 0
M  V30 1208 C 122.27 2.50119 5.35905 0
M  V30 1209 C 121.632 3.49803 6.11406 0
M  V30 1210 H 117.731 -0.0518296 0.780281 0
M  V30 1211 H 120.315 0.486736 1.88518 0
M  V30 1212 H 118.486 -1.30378 3.65864 0
M  V30 1213 H 120.218 -1.17789 3.87179 0
M  V30 1214 H 116.973 0.668721 4.68855 0
M  V30 1215 H 117.397 2.85094 6.14044 0
M  V30 1216 H 122.039 0.722274 4.16585 0
M  V30 1217 H 119.757 4.26285 6.86518 0
M  V30 1218 H 123.343 2.52892 5.23963 0
M  V30 1219 H 122.223 4.27576 6.5738 0
M  V30 1220 N 119.726 -1.57421 0.075193 0
M  V30 1221 C 120.689 -2.11791 -0.876203 0
M  V30 1222 C 121.689 -1.04268 -1.22412 0
M  V30 1223 O 122.879 -1.30242 -1.15684 0
M  V30 1224 C 120.011 -2.62207 -2.17854 0
M  V30 1225 H 121.204 -2.9716 -0.40444 0
M  V30 1226 H 118.757 -1.55333 -0.173557 0
M  V30 1227 H 119.492 -1.803 -2.6956 0
M  V30 1228 H 119.277 -3.40802 -1.93897 0
M  V30 1229 H 120.767 -3.04335 -2.85955 0
M  V30 1230 N 121.204 0.198386 -1.56346 0
M  V30 1231 C 122.481 0.944982 -1.71258 0
M  V30 1232 C 122.861 2.0151 -0.629048 0
M  V30 1233 O 122.209 2.25639 0.360473 0
M  V30 1234 C 122.419 1.5344 -3.1346 0
M  V30 1235 C 123.767 2.01778 -3.73591 0
M  V30 1236 O 124.791 1.63288 -3.16568 0
M  V30 1237 O 123.65 2.72594 -4.73661 0
M  V30 1238 H 120.744 0.442939 -0.69838 0
M  V30 1239 H 123.29 0.188342 -1.68652 0
M  V30 1240 H 122.062 0.762869 -3.83792 0
M  V30 1241 H 121.685 2.35596 -3.20282 0
M  V30 1242 N 122.682 1.50554 0.465978 0
M  V30 1243 C 123.612 1.72722 1.57128 0
M  V30 1244 C 124.593 0.576294 1.6004 0
M  V30 1245 O 125.778 0.81598 1.76225 0
M  V30 1246 C 122.908 1.82605 2.95419 0
M  V30 1247 C 121.862 2.97835 3.07373 0
M  V30 1248 C 121.188 2.92867 4.47363 0
M  V30 1249 C 122.488 4.38265 2.84114 0
M  V30 1250 H 124.182 2.65267 1.38829 0
M  V30 1251 H 121.728 1.2765 0.666441 0
M  V30 1252 H 123.681 1.96698 3.72677 0
M  V30 1253 H 122.405 0.866858 3.14886 0
M  V30 1254 H 121.064 2.83401 2.3255 0
M  V30 1255 H 120.712 1.94783 4.63755 0
M  V30 1256 H 120.412 3.70227 4.56296 0
M  V30 1257 H 121.936 3.09015 5.26633 0
M  V30 1258 H 123.35 4.53198 3.51118 0
M  V30 1259 H 121.747 5.17115 3.04487 0
M  V30 1260 H 122.817 4.50281 1.7993 0
M  V30 1261 N 124.16 -0.719506 1.40217 0
M  V30 1262 C 125.406 -1.48152 1.38488 0
M  V30 1263 C 125.739 -1.94195 -0.0141867 0
M  V30 1264 O 125.014 -1.67884 -0.982096 0
M  V30 1265 C 125.297 -2.71035 2.37091 0
M  V30 1266 C 125.15 -2.30912 3.86005 0
M  V30 1267 C 126.469 -3.73182 2.33288 0
M  V30 1268 H 123.588 -0.537395 0.504357 0
M  V30 1269 H 126.23 -0.821472 1.71324 0
M  V30 1270 H 124.38 -3.27352 2.0922 0
M  V30 1271 H 126.052 -1.80107 4.24687 0
M  V30 1272 H 124.295 -1.62958 4.02029 0
M  V30 1273 H 124.966 -3.18978 4.50508 0
M  V30 1274 H 127.442 -3.26485 2.57966 0
M  V30 1275 H 126.318 -4.56806 3.04334 0
M  V30 1276 H 126.579 -4.21202 1.34317 0
M  V30 1277 N 125.638 -1.25649 -0.95132 0
M  V30 1278 C 126.887 -1.09988 -1.69073 0
M  V30 1279 C 127.2 0.358355 -1.92289 0
M  V30 1280 O 128.406 0.635466 -2.63958 0
M  V30 1281 C 126.862 -1.92012 -3.044 0
M  V30 1282 C 126.47 -3.42347 -2.88968 0
M  V30 1283 C 128.214 -1.8493 -3.82101 0
M  V30 1284 C 126.121 -4.16655 -4.19705 0
M  V30 1285 H 125.051 -0.407993 -0.63408 0
M  V30 1286 H 127.702 -1.49873 -1.05879 0
M  V30 1287 H 126.084 -1.44952 -3.68517 0
M  V30 1288 H 127.258 -3.97104 -2.33762 0
M  V30 1289 H 125.573 -3.50557 -2.24719 0
M  V30 1290 H 128.17 -2.37739 -4.78941 0
M  V30 1291 H 128.513 -0.817883 -4.08187 0
M  V30 1292 H 129.046 -2.29758 -3.2474 0
M  V30 1293 H 125.785 -5.20224 -3.98807 0
M  V30 1294 H 125.305 -3.66681 -4.74663 0
M  V30 1295 H 126.984 -4.24551 -4.88227 0
M  V30 1296 N 127.117 1.15442 -1.07289 0
M  V30 1297 C 128.047 2.22312 -0.714107 0
M  V30 1298 C 129.028 1.67467 0.298155 0
M  V30 1299 O 130.213 1.93445 0.171048 0
M  V30 1300 C 127.343 3.47124 -0.110448 0
M  V30 1301 C 126.297 4.14926 -1.04979 0
M  V30 1302 C 125.623 5.33807 -0.308924 0
M  V30 1303 C 126.923 4.64762 -2.38314 0
M  V30 1304 H 128.617 2.5258 -1.6076 0
M  V30 1305 H 126.163 1.21404 -0.77441 0
M  V30 1306 H 128.116 4.21124 0.152482 0
M  V30 1307 H 126.84 3.16187 0.81812 0
M  V30 1308 H 125.499 3.42866 -1.29764 0
M  V30 1309 H 125.147 4.99126 0.623084 0
M  V30 1310 H 124.847 5.80113 -0.935036 0
M  V30 1311 H 126.371 6.10576 -0.0537771 0
M  V30 1312 H 127.785 5.30292 -2.1786 0
M  V30 1313 H 126.182 5.21728 -2.96514 0
M  V30 1314 H 127.252 3.80434 -3.00663 0
M  V30 1315 N 128.595 0.856903 1.32268 0
M  V30 1316 C 129.558 0.308171 2.27119 0
M  V30 1317 C 130.558 -0.533421 1.51695 0
M  V30 1318 O 131.748 -0.344607 1.70757 0
M  V30 1319 C 128.88 -0.563757 3.36206 0
M  V30 1320 H 130.073 1.14535 2.77167 0
M  V30 1321 H 127.626 0.631421 1.42978 0
M  V30 1322 H 128.361 -1.42266 2.91429 0
M  V30 1323 H 128.146 0.0386749 3.92081 0
M  V30 1324 H 129.636 -0.940386 4.06874 0
M  V30 1325 N 130.073 -1.45103 0.615059 0
M  V30 1326 C 131.484 -1.85654 0.197383 0
M  V30 1327 C 131.835 -1.51433 -1.24749 0
M  V30 1328 O 130.96 -0.944608 -1.94695 0
M  V30 1329 C 131.555 -3.36972 0.351448 0
M  V30 1330 C 130.114 -3.76398 -0.011593 0
M  V30 1331 C 129.261 -2.69024 0.672394 0
M  V30 1332 H 132.212 -1.35797 0.821263 0
M  V30 1333 H 132.233 -3.78239 -0.414227 0
M  V30 1334 H 131.745 -3.61847 1.40314 0
M  V30 1335 H 129.846 -3.5714 -1.06217 0
M  V30 1336 H 129.959 -4.77532 0.387265 0
M  V30 1337 H 128.323 -2.54465 0.109284 0
M  V30 1338 H 129.106 -2.96735 1.72636 0
M  V30 1339 N 131.551 -0.354651 -1.53558 0
M  V30 1340 C 132.514 0.484566 -2.24019 0
M  V30 1341 C 133.514 1.01861 -1.24422 0
M  V30 1342 O 134.704 0.906097 -1.4878 0
M  V30 1343 C 131.836 1.67615 -2.96847 0
M  V30 1344 H 133.029 -0.131843 -2.9961 0
M  V30 1345 H 130.582 -0.106165 -1.55939 0
M  V30 1346 H 131.317 2.33095 -2.25471 0
M  V30 1347 H 131.102 1.30029 -3.69912 0
M  V30 1348 H 132.592 2.27114 -3.50441 0
M  V30 1349 N 133.029 1.57378 -0.0835403 0
M  V30 1350 C 134.257 1.98263 0.59157 0
M  V30 1351 C 134.672 0.962302 1.62435 0
M  V30 1352 O 134.029 -0.049581 1.82433 0
M  V30 1353 C 134.08 3.39214 1.24965 0
M  V30 1354 O 133.801 4.37339 0.258186 0
M  V30 1355 C 135.302 3.95038 2.01147 0
M  V30 1356 H 132.522 0.651773 0.159477 0
M  V30 1357 H 135.066 2.03878 -0.159415 0
M  V30 1358 H 133.221 3.34649 1.95164 0
M  V30 1359 H 133.635 5.19371 0.731734 0
M  V30 1360 H 135.109 4.95848 2.42567 0
M  V30 1361 H 135.586 3.32222 2.87272 0
M  V30 1362 H 136.192 4.0304 1.35789 0
M  V30 1363 N 134.507 -0.190092 1.56449 0
M  V30 1364 C 135.47 -1.21925 1.9408 0
M  V30 1365 C 136.47 -1.38176 0.822431 0
M  V30 1366 O 137.66 -1.35903 1.08977 0
M  V30 1367 C 134.792 -2.58773 2.21922 0
M  V30 1368 H 135.985 -0.897464 2.86157 0
M  V30 1369 H 133.538 -0.43181 1.50217 0
M  V30 1370 H 134.273 -2.95998 1.32499 0
M  V30 1371 H 134.058 -2.48348 3.03424 0
M  V30 1372 H 135.548 -3.32978 2.52022 0
M  V30 1373 N 135.985 -1.50799 -0.457987 0
M  V30 1374 C 137.262 -1.52968 -1.21902 0
M  V30 1375 C 137.642 -0.281906 -2.09209 0
M  V30 1376 O 136.99 0.734076 -2.16388 0
M  V30 1377 C 137.2 -2.8326 -2.03875 0
M  V30 1378 C 138.548 -3.34425 -2.6162 0
M  V30 1379 O 139.572 -2.8467 -2.14106 0
M  V30 1380 O 138.431 -4.21188 -3.48228 0
M  V30 1381 H 135.525 -0.614129 -0.553873 0
M  V30 1382 H 138.071 -1.63098 -0.468739 0
M  V30 1383 H 136.843 -3.65543 -1.39621 0
M  V30 1384 H 136.466 -2.76195 -2.8601 0
M  V30 1385 N 137.463 0.71206 -1.40597 0
M  V30 1386 C 138.393 1.83889 -1.43899 0
M  V30 1387 C 139.374 1.67442 -0.299504 0
M  V30 1388 O 140.559 1.87421 -0.508624 0
M  V30 1389 C 137.689 3.21877 -1.30431 0
M  V30 1390 C 136.643 3.53002 -2.42019 0
M  V30 1391 C 135.969 4.90172 -2.13626 0
M  V30 1392 C 137.269 3.53643 -3.84362 0
M  V30 1393 H 138.963 1.81383 -2.38203 0
M  V30 1394 H 136.509 0.871237 -1.14654 0
M  V30 1395 H 138.462 4.00404 -1.31357 0
M  V30 1396 H 137.186 3.24968 -0.326049 0
M  V30 1397 H 135.845 2.76818 -2.40349 0
M  V30 1398 H 135.493 4.89869 -1.14182 0
M  V30 1399 H 135.193 5.11962 -2.88389 0
M  V30 1400 H 136.717 5.71028 -2.1624 0
M  V30 1401 H 138.131 4.22203 -3.87837 0
M  V30 1402 H 136.528 3.86961 -4.58673 0
M  V30 1403 H 137.598 2.52954 -4.13693 0
M  V30 1404 N 138.941 1.26152 0.944643 0
M  V30 1405 C 140.19 1.10883 1.68487 0
M  V30 1406 C 140.503 -0.348153 1.92477 0
M  V30 1407 O 141.709 -0.621459 2.64292 0
M  V30 1408 C 140.165 1.93624 3.03377 0
M  V30 1409 C 139.773 3.43875 2.87148 0
M  V30 1410 C 141.517 1.86954 3.81115 0
M  V30 1411 C 139.424 4.18875 4.1749 0
M  V30 1412 H 138.354 0.41135 0.631907 0
M  V30 1413 H 141.005 1.50433 1.05082 0
M  V30 1414 H 139.387 1.46904 3.67743 0
M  V30 1415 H 140.561 3.98338 2.31653 0
M  V30 1416 H 138.876 3.51744 2.22856 0
M  V30 1417 H 141.473 2.40275 4.77673 0
M  V30 1418 H 141.816 0.839518 4.07747 0
M  V30 1419 H 142.349 2.31477 3.23517 0
M  V30 1420 H 139.088 5.22332 3.96043 0
M  V30 1421 H 138.608 3.69193 4.72712 0
M  V30 1422 H 140.287 4.27134 4.85968 0
M  V30 1423 N 140.419 -1.14872 1.07899 0
M  V30 1424 C 141.382 -2.17986 0.708161 0
M  V30 1425 C 142.382 -1.58775 -0.25442 0
M  V30 1426 O 143.572 -1.74166 -0.034645 0
M  V30 1427 C 140.704 -3.40871 0.0446929 0
M  V30 1428 H 141.897 -2.52306 1.62116 0
M  V30 1429 H 139.45 -1.2943 0.876218 0
M  V30 1430 H 140.185 -3.12124 -0.880281 0
M  V30 1431 H 139.97 -3.8511 0.737091 0
M  V30 1432 H 141.46 -4.17121 -0.19991 0
M  V30 1433 N 141.898 -0.863906 -1.31812 0
M  V30 1434 C 143.314 -0.555004 -1.49639 0
M  V30 1435 C 143.514 0.912266 -1.79666 0
M  V30 1436 O 142.57 1.69479 -1.87171 0
M  V30 1437 C 143.883 -1.44998 -2.63431 0
M  V30 1438 C 145.431 -1.45138 -2.77316 0
M  V30 1439 C 145.906 -2.33179 -3.94197 0
M  V30 1440 N 147.397 -2.31025 -4.01474 0
M  V30 1441 C 148.132 -2.95871 -4.9117 0
M  V30 1442 N 147.628 -3.69863 -5.8581 0
M  V30 1443 N 149.421 -2.85211 -4.84367 0
M  V30 1444 H 141.572 -1.81339 -1.10589 0
M  V30 1445 H 143.835 -0.77505 -0.545895 0
M  V30 1446 H 143.541 -2.49377 -2.48 0
M  V30 1447 H 143.415 -1.14409 -3.59431 0
M  V30 1448 H 145.802 -0.415201 -2.92164 0
M  V30 1449 H 145.883 -1.79747 -1.82001 0
M  V30 1450 H 145.527 -3.3687 -3.80107 0
M  V30 1451 H 145.457 -1.95897 -4.88807 0
M  V30 1452 H 147.948 -1.77238 -3.33759 0
M  V30 1453 H 148.261 -4.16486 -6.50968 0
M  V30 1454 H 146.606 -3.73971 -5.85808 0
M  V30 1455 H 149.797 -2.26948 -4.09405 0
M  V30 1456 H 149.97 -3.36027 -5.54066 0
M  V30 1457 N 143.376 1.44774 -0.622745 0
M  V30 1458 C 144.622 2.0242 -0.124083 0
M  V30 1459 C 144.955 1.4881 1.24777 0
M  V30 1460 O 144.23 0.668799 1.8264 0
M  V30 1461 C 144.513 3.59957 -0.101619 0
M  V30 1462 C 144.366 4.23867 -1.50521 0
M  V30 1463 C 145.685 4.36284 0.578272 0
M  V30 1464 H 142.804 0.735528 -0.0465645 0
M  V30 1465 H 145.446 1.72447 -0.797617 0
M  V30 1466 H 143.596 3.85623 0.471934 0
M  V30 1467 H 145.268 4.09336 -2.12701 0
M  V30 1468 H 143.511 3.81684 -2.06154 0
M  V30 1469 H 144.182 5.32843 -1.4416 0
M  V30 1470 H 146.658 4.16001 0.0906057 0
M  V30 1471 H 145.534 5.46004 0.563149 0
M  V30 1472 H 145.795 4.10271 1.64713 0
M  V30 1473 N 144.854 0.36279 1.53368 0
M  V30 1474 C 145.817 -0.472679 2.24273 0
M  V30 1475 C 146.817 -1.012 1.24961 0
M  V30 1476 O 148.007 -0.898194 1.49259 0
M  V30 1477 C 145.139 -1.66039 2.97731 0
M  V30 1478 H 146.332 0.14773 2.99536 0
M  V30 1479 H 143.885 0.114434 1.55881 0
M  V30 1480 H 144.62 -2.31896 2.26704 0
M  V30 1481 H 144.405 -1.28066 3.70596 0
M  V30 1482 H 145.895 -2.25252 3.51641 0
M  V30 1483 N 146.332 -1.57332 0.0918853 0
M  V30 1484 C 147.295 -2.12708 -0.85369 0
M  V30 1485 C 148.295 -1.05561 -1.213 0
M  V30 1486 O 149.485 -1.31461 -1.14296 0
M  V30 1487 C 146.617 -2.64503 -2.15061 0
M  V30 1488 H 147.81 -2.97573 -0.3729 0
M  V30 1489 H 145.363 -1.55509 -0.157072 0
M  V30 1490 H 146.098 -1.83149 -2.67632 0
M  V30 1491 H 145.883 -3.4284 -1.90272 0
M  V30 1492 H 147.373 -3.07351 -2.82711 0
M  V30 1493 N 147.81 0.181792 -1.56548 0
M  V30 1494 C 149.058 0.89832 -1.81038 0
M  V30 1495 C 149.379 1.83232 -0.667164 0
M  V30 1496 O 148.649 1.93372 0.313673 0
M  V30 1497 H 147.229 0.33471 -0.667816 0
M  V30 1498 H 149.891 0.184116 -1.94028 0
M  V30 1499 H 148.987 1.4815 -2.74696 0
M  V30 1500 N 149.288 1.51039 0.449983 0
M  V30 1501 C 150.221 1.66105 1.56474 0
M  V30 1502 C 151.199 0.508776 1.54435 0
M  V30 1503 O 152.383 0.731005 1.73749 0
M  V30 1504 C 149.51 1.66304 2.9506 0
M  V30 1505 C 148.556 2.87346 3.15174 0
M  V30 1506 S 149.389 4.4835 2.92818 0
M  V30 1507 C 150.545 4.51274 4.33708 0
M  V30 1508 H 150.778 2.60397 1.43459 0
M  V30 1509 H 148.311 1.40565 0.638805 0
M  V30 1510 H 150.269 1.67103 3.74949 0
M  V30 1511 H 148.93 0.732108 3.05449 0
M  V30 1512 H 148.123 2.83849 4.16468 0
M  V30 1513 H 147.725 2.84223 2.43091 0
M  V30 1514 H 150.017 4.26136 5.26701 0
M  V30 1515 H 150.96 5.53017 4.42242 0
M  V30 1516 H 151.368 3.80738 4.16772 0
M  V30 1517 N 150.766 -0.704594 1.40972 0
M  V30 1518 C 151.729 -1.80035 1.41845 0
M  V30 1519 C 152.729 -1.57774 0.310474 0
M  V30 1520 O 153.919 -1.64613 0.56992 0
M  V30 1521 C 151.051 -3.18284 1.22098 0
M  V30 1522 H 152.244 -1.80658 2.3938 0
M  V30 1523 H 149.797 -0.911329 1.26982 0
M  V30 1524 H 150.532 -3.23306 0.253672 0
M  V30 1525 H 150.317 -3.35843 2.02366 0
M  V30 1526 H 151.807 -3.98289 1.25522 0
M  V30 1527 N 152.244 -1.26651 -0.937939 0
M  V30 1528 C 153.192 -1.08308 -2.05845 0
M  V30 1529 C 154.186 -0.0090757 -1.69398 0
M  V30 1530 O 155.392 -0.166007 -1.79233 0
M  V30 1531 H 151.767 -0.333416 -0.674046 0
M  V30 1532 H 153.738 -2.03261 -2.18467 0
M  V30 1533 C 152.487 -0.736229 -3.39816 0
M  V30 1534 H 151.81 -1.55453 -3.6834 0
M  V30 1535 H 153.25 -0.64769 -4.19024 0
M  V30 1536 C 151.709 0.558824 -3.32233 0
M  V30 1537 O 152.239 1.59621 -3.68624 0
M  V30 1538 N 150.445 0.550657 -2.85335 0
M  V30 1539 H 149.992 -0.293943 -2.55917 0
M  V30 1540 H 149.95 1.41726 -2.80644 0
M  V30 1541 N 153.722 1.14298 -1.08507 0
M  V30 1542 C 154.999 1.81544 -0.728088 0
M  V30 1543 C 155.379 1.95838 0.78808 0
M  V30 1544 O 154.727 1.51904 1.70697 0
M  V30 1545 C 154.937 3.17169 -1.45619 0
M  V30 1546 C 156.285 3.9265 -1.61591 0
M  V30 1547 O 157.309 3.26762 -1.41793 0
M  V30 1548 O 156.168 5.10807 -1.94263 0
M  V30 1549 H 153.262 0.78491 -0.260471 0
M  V30 1550 H 155.808 1.21307 -1.18671 0
M  V30 1551 H 154.58 3.01934 -2.489 0
M  V30 1552 H 154.203 3.851 -0.989124 0
M  V30 1553 N 155.201 0.870884 1.31352 0
M  V30 1554 C 156.131 0.343096 2.30966 0
M  V30 1555 C 157.112 -0.566507 1.60389 0
M  V30 1556 O 158.297 -0.483336 1.88089 0
M  V30 1557 C 155.427 -0.455487 3.443 0
M  V30 1558 C 154.381 0.361103 4.26474 0
M  V30 1559 C 153.707 -0.563221 5.31725 0
M  V30 1560 C 155.007 1.59566 4.97329 0
M  V30 1561 H 156.701 1.17548 2.75359 0
M  V30 1562 H 154.247 0.566686 1.32381 0
M  V30 1563 H 156.2 -0.83525 4.13039 0
M  V30 1564 H 154.924 -1.32139 2.98675 0
M  V30 1565 H 153.583 0.722825 3.59403 0
M  V30 1566 H 153.231 -1.42643 4.82351 0
M  V30 1567 H 152.931 -0.0207409 5.87596 0
M  V30 1568 H 154.455 -0.939808 6.03324 0
M  V30 1569 H 155.869 1.28728 5.58661 0
M  V30 1570 H 154.266 2.07728 5.63 0
M  V30 1571 H 155.336 2.34798 4.24262 0
M  V30 1572 N 156.679 -1.44442 0.630414 0
M  V30 1573 C 157.925 -2.02351 0.134816 0
M  V30 1574 C 158.258 -1.4947 -1.23986 0
M  V30 1575 O 157.533 -0.678475 -1.82283 0
M  V30 1576 C 157.816 -3.59898 0.120707 0
M  V30 1577 C 157.669 -4.23063 1.52767 0
M  V30 1578 C 158.988 -4.36585 -0.555127 0
M  V30 1579 H 156.107 -0.73527 0.0504646 0
M  V30 1580 H 158.749 -1.72022 0.806751 0
M  V30 1581 H 156.899 -3.85868 -0.451477 0
M  V30 1582 H 158.571 -4.08202 2.14869 0
M  V30 1583 H 156.814 -3.80586 2.08175 0
M  V30 1584 H 157.485 -5.32071 1.46984 0
M  V30 1585 H 159.961 -4.16044 -0.0685429 0
M  V30 1586 H 158.837 -5.46294 -0.534185 0
M  V30 1587 H 159.098 -4.11138 -1.62535 0
M  V30 1588 N 158.157 -0.370918 -1.53173 0
M  V30 1589 C 159.382 0.220293 -2.06227 0
M  V30 1590 C 159.807 1.41243 -1.24225 0
M  V30 1591 O 159.165 1.79387 -0.262645 0
M  V30 1592 C 159.213 0.586663 -3.55796 0
M  V30 1593 O 158.317 1.68317 -3.76488 0
M  V30 1594 H 157.658 0.0308099 -0.663285 0
M  V30 1595 H 160.188 -0.533068 -1.97534 0
M  V30 1596 H 160.198 0.85617 -3.98916 0
M  V30 1597 H 158.873 -0.285013 -4.14922 0
M  V30 1598 H 157.45 1.40881 -3.45264 0
M  V30 1599 N 159.635 1.57281 -0.100228 0
M  V30 1600 C 160.863 1.98879 0.570509 0
M  V30 1601 C 161.278 0.979476 1.61405 0
M  V30 1602 O 160.635 -0.0302288 1.82475 0
M  V30 1603 C 160.686 3.4052 1.2136 0
M  V30 1604 O 160.407 4.37588 0.211786 0
M  V30 1605 C 161.908 3.97149 1.96945 0
M  V30 1606 H 159.128 0.653428 0.152555 0
M  V30 1607 H 161.672 2.03697 -0.18103 0
M  V30 1608 H 159.827 3.367 1.91603 0
M  V30 1609 H 160.241 5.20118 0.676607 0
M  V30 1610 H 161.715 4.98393 2.37294 0
M  V30 1611 H 162.192 3.3525 2.83733 0
M  V30 1612 H 162.798 4.04458 1.31506 0
M  V30 1613 N 161.113 -0.173488 1.56642 0
M  V30 1614 C 162.362 -0.888758 1.81063 0
M  V30 1615 C 162.675 -1.83506 0.67712 0
M  V30 1616 O 163.881 -2.59254 0.806206 0
M  V30 1617 C 162.337 -1.63091 3.20826 0
M  V30 1618 C 161.945 -0.728357 4.4204 0
M  V30 1619 C 163.689 -2.33454 3.54541 0
M  V30 1620 C 161.596 -1.47062 5.72823 0
M  V30 1621 H 160.526 -0.335618 0.675186 0
M  V30 1622 H 163.177 -0.141712 1.82952 0
M  V30 1623 H 161.559 -2.42263 3.13248 0
M  V30 1624 H 162.733 0.0262449 4.60793 0
M  V30 1625 H 161.048 -0.134492 4.16183 0
M  V30 1626 H 163.645 -2.89578 4.49498 0
M  V30 1627 H 163.988 -3.08687 2.79317 0
M  V30 1628 H 164.521 -1.61227 3.63663 0
M  V30 1629 H 161.26 -0.760658 6.51072 0
M  V30 1630 H 160.78 -2.1986 5.58052 0
M  V30 1631 H 162.459 -2.01868 6.14702 0
M  V30 1632 N 162.591 -1.51276 -0.441967 0
M  V30 1633 C 163.831 -1.65372 -1.20132 0
M  V30 1634 C 164.195 -0.359871 -1.88597 0
M  V30 1635 O 165.396 -0.376551 -2.66149 0
M  V30 1636 C 163.667 -2.8207 -2.1948 0
M  V30 1637 S 165.226 -3.16467 -3.03964 0
M  V30 1638 H 162.044 -0.582669 -0.407453 0
M  V30 1639 H 164.646 -1.89166 -0.493609 0
M  V30 1640 H 163.35 -3.74523 -1.67812 0
M  V30 1641 H 162.881 -2.6045 -2.94838 0
M  V30 1642 H 164.896 -2.62543 -4.21053 0
M  V30 1643 N 164.069 0.697108 -1.41344 0
M  V30 1644 C 164.999 1.82353 -1.45841 0
M  V30 1645 C 165.98 1.67115 -0.317247 0
M  V30 1646 O 167.165 1.86871 -0.528474 0
M  V30 1647 C 164.295 3.20476 -1.33838 0
M  V30 1648 C 163.249 3.50415 -2.4575 0
M  V30 1649 C 162.575 4.87878 -2.18813 0
M  V30 1650 C 163.875 3.49546 -3.88091 0
M  V30 1651 H 165.569 1.78846 -2.40113 0
M  V30 1652 H 163.115 0.859028 -1.15571 0
M  V30 1653 H 165.068 3.98988 -1.35596 0
M  V30 1654 H 163.792 3.24604 -0.360498 0
M  V30 1655 H 162.451 2.74253 -2.43271 0
M  V30 1656 H 162.099 4.8863 -1.19371 0
M  V30 1657 H 161.799 5.08875 -2.93803 0
M  V30 1658 H 163.323 5.68702 -2.22284 0
M  V30 1659 H 164.737 4.18066 -3.92293 0
M  V30 1660 H 163.134 3.82075 -4.62751 0
M  V30 1661 H 164.204 2.48552 -4.16353 0
M  V30 1662 N 165.547 1.27147 0.931209 0
M  V30 1663 C 166.51 1.09615 2.01289 0
M  V30 1664 C 167.51 0.0412581 1.60747 0
M  V30 1665 O 168.7 0.285545 1.71844 0
M  V30 1666 C 165.832 0.669447 3.34262 0
M  V30 1667 H 167.025 2.05662 2.18273 0
M  V30 1668 H 164.578 1.09885 1.11153 0
M  V30 1669 H 165.313 -0.292572 3.22978 0
M  V30 1670 H 165.098 1.43127 3.65044 0
M  V30 1671 H 166.588 0.568921 4.13706 0
M  V30 1672 N 167.025 -1.13721 1.09112 0
M  V30 1673 C 168.253 -1.88773 0.846899 0
M  V30 1674 C 168.668 -1.7896 -0.601572 0
M  V30 1675 O 168.025 -1.15394 -1.41388 0
M  V30 1676 C 168.076 -3.3849 1.26913 0
M  V30 1677 O 167.797 -3.48043 2.66079 0
M  V30 1678 C 169.298 -4.30518 1.05682 0
M  V30 1679 H 166.518 -0.59772 0.304914 0
M  V30 1680 H 169.062 -1.43977 1.45227 0
M  V30 1681 H 167.217 -3.80881 0.707723 0
M  V30 1682 H 167.631 -4.4109 2.83795 0
M  V30 1683 H 169.105 -5.3391 1.40156 0
M  V30 1684 H 169.582 -4.392 -0.00563416 0
M  V30 1685 H 170.188 -3.93893 1.60402 0
M  V30 1686 N 168.503 -0.877838 -1.30888 0
M  V30 1687 C 169.914 -0.544193 -1.78593 0
M  V30 1688 C 170.265 0.939301 -1.72254 0
M  V30 1689 O 169.39 1.7337 -1.29505 0
M  V30 1690 C 169.985 -0.98105 -3.24285 0
M  V30 1691 C 168.544 -0.698935 -3.69854 0
M  V30 1692 C 167.691 -1.168 -2.51502 0
M  V30 1693 H 170.642 -1.06278 -1.17859 0
M  V30 1694 H 170.663 -0.307009 -3.79259 0
M  V30 1695 H 170.175 -2.06079 -3.28866 0
M  V30 1696 H 168.276 0.369112 -3.70767 0
M  V30 1697 H 168.389 -1.28148 -4.61644 0
M  V30 1698 H 166.753 -0.587535 -2.47831 0
M  V30 1699 H 167.536 -2.25533 -2.58824 0
M  V30 1700 N 169.982 1.44106 -0.638065 0
M  V30 1701 C 170.945 2.29138 0.0531013 0
M  V30 1702 C 171.945 1.41409 0.765506 0
M  V30 1703 O 173.135 1.63206 0.609046 0
M  V30 1704 C 170.267 3.23144 1.08584 0
M  V30 1705 H 171.46 2.91739 -0.694883 0
M  V30 1706 H 169.013 1.51134 -0.398538 0
M  V30 1707 H 169.748 2.65408 1.86357 0
M  V30 1708 H 169.533 3.87804 0.578852 0
M  V30 1709 H 171.023 3.87004 1.56899 0
M  V30 1710 N 171.46 0.379036 1.52974 0
M  V30 1711 C 172.871 -0.0972525 1.86447 0
M  V30 1712 C 173.222 -1.47027 1.29914 0
M  V30 1713 O 172.347 -2.07135 0.626433 0
M  V30 1714 C 172.942 -0.183248 3.38304 0
M  V30 1715 C 171.501 -0.603812 3.71525 0
M  V30 1716 C 170.648 0.240632 2.76254 0
M  V30 1717 H 173.599 0.597316 1.4703 0
M  V30 1718 H 173.62 -1.00432 3.67006 0
M  V30 1719 H 173.132 0.816191 3.79421 0
M  V30 1720 H 171.233 -1.61099 3.35973 0
M  V30 1721 H 171.346 -0.369086 4.77676 0
M  V30 1722 H 169.71 -0.292548 2.53014 0
M  V30 1723 H 170.493 1.23786 3.20206 0
M  V30 1724 N 172.938 -1.57226 0.108567 0
M  V30 1725 C 174.184 -1.95121 -0.552761 0
M  V30 1726 C 174.517 -0.991345 -1.66991 0
M  V30 1727 O 173.792 -0.0267211 -1.94482 0
M  V30 1728 C 174.075 -3.43039 -1.09528 0
M  V30 1729 C 173.928 -4.49797 0.0177332 0
M  V30 1730 C 175.247 -3.92567 -1.98945 0
M  V30 1731 H 172.366 -0.709496 -0.199461 0
M  V30 1732 H 175.008 -1.89126 0.182011 0
M  V30 1733 H 173.158 -3.48279 -1.72146 0
M  V30 1734 H 174.83 -4.56661 0.652584 0
M  V30 1735 H 173.073 -4.284 0.682309 0
M  V30 1736 H 173.744 -5.50528 -0.402919 0
M  V30 1737 H 176.22 -3.89565 -1.46214 0
M  V30 1738 H 175.096 -4.96605 -2.33827 0
M  V30 1739 H 175.357 -3.32648 -2.91201 0
M  V30 1740 N 174.416 0.165178 -1.56732 0
M  V30 1741 C 175.379 1.18822 -1.95995 0
M  V30 1742 C 176.379 1.3685 -0.84431 0
M  V30 1743 O 177.569 1.34152 -1.11126 0
M  V30 1744 C 174.701 2.5521 -2.26011 0
M  V30 1745 H 175.894 0.851825 -2.87548 0
M  V30 1746 H 173.447 0.407857 -1.50885 0
M  V30 1747 H 174.182 2.93852 -1.37191 0
M  V30 1748 H 173.967 2.43489 -3.07336 0
M  V30 1749 H 175.457 3.28927 -2.57288 0
M  V30 1750 N 175.894 1.51508 0.433938 0
M  V30 1751 C 177.14 1.64588 1.18484 0
M  V30 1752 C 177.473 0.362666 1.90784 0
M  V30 1753 O 176.748 -0.637892 1.83742 0
M  V30 1754 C 177.031 2.85149 2.19913 0
M  V30 1755 C 176.884 4.23456 1.51674 0
M  V30 1756 C 178.203 3.01227 3.20858 0
M  V30 1757 H 175.322 0.598994 0.429389 0
M  V30 1758 H 177.964 1.84002 0.473647 0
M  V30 1759 H 176.114 2.68729 2.80566 0
M  V30 1760 H 177.786 4.51552 0.943322 0
M  V30 1761 H 176.029 4.25998 0.819035 0
M  V30 1762 H 176.7 5.03812 2.2556 0
M  V30 1763 H 179.176 3.16382 2.70263 0
M  V30 1764 H 178.052 3.87141 3.89118 0
M  V30 1765 H 178.313 2.13447 3.8716 0
M  V30 1766 N 177.372 -0.689602 1.41712 0
M  V30 1767 C 178.302 -1.81577 1.46806 0
M  V30 1768 C 179.283 -1.66945 0.326105 0
M  V30 1769 O 180.468 -1.86588 0.538377 0
M  V30 1770 C 177.598 -3.19762 1.35535 0
M  V30 1771 C 176.552 -3.49107 2.47605 0
M  V30 1772 C 175.878 -4.86711 2.21397 0
M  V30 1773 C 177.178 -3.47483 3.89939 0
M  V30 1774 H 178.872 -1.7757 2.41058 0
M  V30 1775 H 176.418 -0.852887 1.16025 0
M  V30 1776 H 178.371 -3.98263 1.3771 0
M  V30 1777 H 177.095 -3.24409 0.377708 0
M  V30 1778 H 175.754 -2.72959 2.44722 0
M  V30 1779 H 175.402 -4.8799 1.21961 0
M  V30 1780 H 175.102 -5.0731 2.96497 0
M  V30 1781 H 176.626 -5.67515 2.25297 0
M  V30 1782 H 178.04 -4.1598 3.94505 0
M  V30 1783 H 176.437 -3.79615 4.64771 0
M  V30 1784 H 177.507 -2.46341 4.17665 0
M  V30 1785 N 178.85 -1.27639 -0.924453 0
M  V30 1786 C 180.261 -1.12834 -1.48746 0
M  V30 1787 C 180.612 0.285505 -1.94112 0
M  V30 1788 O 179.737 1.17874 -1.81479 0
M  V30 1789 C 180.332 -2.04217 -2.70334 0
M  V30 1790 C 178.891 -1.93509 -3.22848 0
M  V30 1791 C 178.038 -1.96583 -1.95577 0
M  V30 1792 H 180.989 -1.40484 -0.738233 0
M  V30 1793 H 181.01 -1.59989 -3.4523 0
M  V30 1794 H 180.522 -3.07111 -2.37285 0
M  V30 1795 H 178.623 -0.936131 -3.60649 0
M  V30 1796 H 178.736 -2.79917 -3.88823 0
M  V30 1797 H 177.1 -1.4085 -2.12211 0
M  V30 1798 H 177.883 -3.01137 -1.64837 0
M  V30 1799 N 180.328 1.1314 -1.09713 0
M  V30 1800 C 181.291 2.16831 -0.742751 0
M  V30 1801 C 182.291 1.59159 0.229129 0
M  V30 1802 O 183.481 1.74199 0.00693237 0
M  V30 1803 C 180.613 3.40756 -0.0989168 0
M  V30 1804 H 181.806 2.49695 -1.66109 0
M  V30 1805 H 179.359 1.2802 -0.896699 0
M  V30 1806 H 180.094 3.13485 0.830514 0
M  V30 1807 H 179.879 3.83888 -0.798265 0
M  V30 1808 H 181.369 4.17386 0.133524 0
M  V30 1809 N 181.806 0.884767 1.30421 0
M  V30 1810 C 182.739 0.295999 2.26272 0
M  V30 1811 C 183.717 -0.58332 1.51777 0
M  V30 1812 O 184.901 -0.53346 1.80794 0
M  V30 1813 C 182.028 -0.57944 3.33707 0
M  V30 1814 C 181.074 0.230525 4.25877 0
M  V30 1815 S 181.907 1.61867 5.1045 0
M  V30 1816 C 183.063 0.749756 6.21393 0
M  V30 1817 H 183.296 1.10848 2.75862 0
M  V30 1818 H 180.829 0.684178 1.38414 0
M  V30 1819 H 182.787 -1.07879 3.96071 0
M  V30 1820 H 181.448 -1.36601 2.82841 0
M  V30 1821 H 180.641 -0.437542 5.02097 0
M  V30 1822 H 180.243 0.662493 3.68086 0
M  V30 1823 H 182.535 -0.0333547 6.77492 0
M  V30 1824 H 183.478 1.48356 6.92384 0
M  V30 1825 H 183.886 0.310751 5.63644 0
M  V30 1826 N 183.284 -1.43765 0.645699 0
M  V30 1827 C 184.232 -2.32516 -0.0624849 0
M  V30 1828 C 185.226 -1.48183 -0.820855 0
M  V30 1829 O 186.432 -1.64439 -0.732106 0
M  V30 1830 H 182.807 -0.750989 -0.0389864 0
M  V30 1831 H 184.778 -2.89979 0.703892 0
M  V30 1832 C 183.527 -3.32389 -1.02044 0
M  V30 1833 H 182.85 -3.97301 -0.446312 0
M  V30 1834 H 184.29 -3.97138 -1.48517 0
M  V30 1835 C 182.749 -2.62416 -2.11281 0
M  V30 1836 O 183.279 -2.434 -3.19561 0
M  V30 1837 N 181.485 -2.21913 -1.87624 0
M  V30 1838 H 181.032 -2.37578 -0.995703 0
M  V30 1839 H 180.99 -1.75424 -2.6091 0
M  V30 1840 N 184.763 -0.387143 -1.52771 0
M  V30 1841 C 185.695 0.484089 -2.2403 0
M  V30 1842 C 186.708 1.02849 -1.26198 0
M  V30 1843 O 187.897 0.931186 -1.52286 0
M  V30 1844 C 184.997 1.68337 -2.94136 0
M  V30 1845 C 184.17 1.26672 -4.18656 0
M  V30 1846 C 183.229 2.33045 -4.7178 0
M  V30 1847 O 182.255 1.94541 -5.34923 0
M  V30 1848 N 183.457 3.64929 -4.5145 0
M  V30 1849 H 186.222 -0.126404 -2.99433 0
M  V30 1850 H 183.783 -0.213392 -1.60488 0
M  V30 1851 H 185.775 2.39019 -3.26577 0
M  V30 1852 H 184.345 2.20025 -2.22053 0
M  V30 1853 H 183.565 0.388878 -3.92277 0
M  V30 1854 H 184.853 0.964964 -4.99566 0
M  V30 1855 H 184.251 3.98974 -4.01044 0
M  V30 1856 H 182.808 4.31651 -4.88386 0
M  V30 1857 N 186.241 1.57166 -0.116904 0
M  V30 1858 C 187.173 2.12271 0.864507 0
M  V30 1859 C 188.186 1.06494 1.23138 0
M  V30 1860 O 189.375 1.33873 1.18069 0
M  V30 1861 C 186.475 2.60564 2.16702 0
M  V30 1862 C 185.648 3.90416 1.97216 0
M  V30 1863 C 184.707 4.24329 3.11178 0
M  V30 1864 O 183.733 4.93182 2.84184 0
M  V30 1865 N 184.935 3.8148 4.37554 0
M  V30 1866 H 187.7 2.97102 0.393726 0
M  V30 1867 H 185.261 1.61759 0.0675805 0
M  V30 1868 H 187.253 2.80282 2.91932 0
M  V30 1869 H 185.823 1.80623 2.55135 0
M  V30 1870 H 185.043 3.79627 1.06192 0
M  V30 1871 H 186.331 4.75327 1.81499 0
M  V30 1872 H 185.729 3.25943 4.62361 0
M  V30 1873 H 184.286 4.06311 5.09661 0
M  V30 1874 N 187.719 -0.156864 1.56817 0
M  V30 1875 C 188.652 -1.22316 1.9265 0
M  V30 1876 C 189.63 -1.42059 0.791076 0
M  V30 1877 O 190.814 -1.56831 1.04576 0
M  V30 1878 C 187.941 -2.58375 2.18998 0
M  V30 1879 C 186.987 -2.55284 3.41661 0
M  V30 1880 S 187.82 -2.02946 4.95553 0
M  V30 1881 C 188.976 -3.40753 5.25013 0
M  V30 1882 H 189.209 -0.917403 2.82791 0
M  V30 1883 H 186.742 -0.362059 1.50095 0
M  V30 1884 H 188.7 -3.36677 2.34859 0
M  V30 1885 H 187.361 -2.86145 1.29538 0
M  V30 1886 H 186.554 -3.55418 3.57343 0
M  V30 1887 H 186.156 -1.85086 3.24991 0
M  V30 1888 H 188.448 -4.36819 5.17876 0
M  V30 1889 H 189.391 -3.29933 6.26538 0
M  V30 1890 H 189.799 -3.37433 4.52548 0
M  V30 1891 N 189.197 -1.51736 -0.425897 0
M  V30 1892 C 190.427 -1.68549 -1.19476 0
M  V30 1893 C 190.835 -0.387288 -1.85194 0
M  V30 1894 O 190.178 0.645142 -1.71999 0
M  V30 1895 C 190.24 -2.75275 -2.31223 0
M  V30 1896 C 189.904 -4.17534 -1.8578 0
M  V30 1897 C 190.901 -5.01936 -1.35485 0
M  V30 1898 C 188.586 -4.6369 -1.93123 0
M  V30 1899 C 190.58 -6.30559 -0.931347 0
M  V30 1900 C 188.267 -5.92307 -1.50384 0
M  V30 1901 C 189.265 -6.75569 -1.00473 0
M  V30 1902 O 188.953 -8.0178 -0.583452 0
M  V30 1903 H 188.685 -0.568525 -0.365725 0
M  V30 1904 H 191.239 -1.98982 -0.509444 0
M  V30 1905 H 189.469 -2.40182 -3.03067 0
M  V30 1906 H 191.158 -2.80853 -2.93047 0
M  V30 1907 H 191.924 -4.67475 -1.29197 0
M  V30 1908 H 187.803 -3.98997 -2.30916 0
M  V30 1909 H 191.347 -6.95498 -0.541084 0
M  V30 1910 H 187.244 -6.2628 -1.56346 0
M  V30 1911 H 188.012 -8.1543 -0.708275 0
M  V30 1912 N 190.675 0.682077 -1.42076 0
M  V30 1913 C 192.091 0.994324 -1.24841 0
M  V30 1914 C 192.291 2.0096 -0.147389 0
M  V30 1915 O 191.347 2.47822 0.483782 0
M  V30 1916 C 192.66 1.50607 -2.60265 0
M  V30 1917 C 194.208 1.62421 -2.6756 0
M  V30 1918 C 194.683 2.16994 -4.03333 0
M  V30 1919 N 196.174 2.24337 -4.0525 0
M  V30 1920 C 196.909 2.67621 -5.07116 0
M  V30 1921 N 196.405 3.1041 -6.19368 0
M  V30 1922 N 198.198 2.67305 -4.94474 0
M  V30 1923 H 190.349 0.00973908 -2.12398 0
M  V30 1924 H 192.612 0.0668593 -0.945639 0
M  V30 1925 H 192.318 0.834583 -3.41654 0
M  V30 1926 H 192.192 2.48602 -2.83684 0
M  V30 1927 H 194.579 2.28678 -1.86521 0
M  V30 1928 H 194.66 0.629352 -2.47937 0
M  V30 1929 H 194.304 1.51349 -4.84826 0
M  V30 1930 H 194.234 3.17258 -4.20304 0
M  V30 1931 H 196.725 1.94158 -3.24209 0
M  V30 1932 H 197.038 3.42103 -6.92954 0
M  V30 1933 H 195.383 3.08286 -6.22884 0
M  V30 1934 H 198.574 2.33233 -4.05857 0
M  V30 1935 H 198.747 3.00718 -5.73997 0
M  V30 1936 N 192.153 1.28127 0.917671 0
M  V30 1937 C 193.116 1.11744 2.00115 0
M  V30 1938 C 194.116 0.0583052 1.60694 0
M  V30 1939 O 195.306 0.303755 1.71531 0
M  V30 1940 C 192.438 0.704862 3.33533 0
M  V30 1941 H 193.631 2.07966 2.16079 0
M  V30 1942 H 191.184 1.11058 1.09981 0
M  V30 1943 H 191.919 -0.258299 3.2327 0
M  V30 1944 H 191.704 1.4699 3.63505 0
M  V30 1945 H 193.194 0.612768 4.1308 0
M  V30 1946 N 193.631 -1.12557 1.10312 0
M  V30 1947 C 194.594 -2.16434 0.75424 0
M  V30 1948 C 195.594 -1.59278 -0.220685 0
M  V30 1949 O 196.784 -1.742 0.00230591 0
M  V30 1950 C 193.916 -3.40699 0.116987 0
M  V30 1951 H 195.109 -2.48811 1.67431 0
M  V30 1952 H 192.662 -1.27542 0.903475 0
M  V30 1953 H 193.397 -3.13921 -0.813877 0
M  V30 1954 H 193.182 -3.83459 0.818613 0
M  V30 1955 H 194.672 -4.17451 -0.111387 0
M  V30 1956 N 195.109 -0.891671 -1.2995 0
M  V30 1957 C 196.072 -0.36828 -2.26222 0
M  V30 1958 C 197.072 0.493014 -1.53056 0
M  V30 1959 O 198.262 0.299213 -1.71611 0
M  V30 1960 C 195.394 0.47442 -3.37583 0
M  V30 1961 H 196.587 -1.21844 -2.74033 0
M  V30 1962 H 194.14 -0.669107 -1.41254 0
M  V30 1963 H 194.875 1.34489 -2.95099 0
M  V30 1964 H 194.66 -0.142615 -3.91841 0
M  V30 1965 H 196.15 0.83218 -4.09224 0
M  V30 1966 N 196.587 1.43421 -0.653314 0
M  V30 1967 C 197.815 2.06163 -0.174491 0
M  V30 1968 C 198.23 1.48969 1.1599 0
M  V30 1969 O 197.587 0.621042 1.71608 0
M  V30 1970 C 197.638 3.61417 -0.0774865 0
M  V30 1971 O 197.359 4.16485 -1.35912 0
M  V30 1972 C 198.86 4.41235 0.427402 0
M  V30 1973 H 196.08 0.664946 -0.0899353 0
M  V30 1974 H 198.624 1.83924 -0.893988 0
M  V30 1975 H 196.779 3.82841 0.59257 0
M  V30 1976 H 197.193 5.10153 -1.21839 0
M  V30 1977 H 198.667 5.5021 0.44423 0
M  V30 1978 H 199.144 4.14268 1.45873 0
M  V30 1979 H 199.75 4.2478 -0.210167 0
M  V30 1980 N 198.065 0.39524 1.52563 0
M  V30 1981 C 198.997 -0.472201 2.24283 0
M  V30 1982 C 200.01 -1.02178 1.26742 0
M  V30 1983 O 201.199 -0.923097 1.52778 0
M  V30 1984 C 198.299 -1.66775 2.95024 0
M  V30 1985 C 197.472 -1.2445 4.19322 0
M  V30 1986 C 196.531 -2.30539 4.7301 0
M  V30 1987 O 195.557 -1.91702 5.35947 0
M  V30 1988 N 196.759 -3.6253 4.53379 0
M  V30 1989 H 199.524 0.142282 2.99362 0
M  V30 1990 H 197.085 0.2219 1.60372 0
M  V30 1991 H 199.077 -2.37283 3.27839 0
M  V30 1992 H 197.647 -2.18845 2.23217 0
M  V30 1993 H 196.867 -0.368069 3.92478 0
M  V30 1994 H 198.155 -0.938457 5.0007 0
M  V30 1995 H 197.553 -3.96841 4.03154 0
M  V30 1996 H 196.11 -4.29055 4.90668 0
M  V30 1997 N 199.544 -1.57102 0.125237 0
M  V30 1998 C 200.494 -2.12202 -0.833936 0
M  V30 1999 C 201.478 -1.04433 -1.22403 0
M  V30 2000 O 202.67 -1.30655 -1.19408 0
M  V30 2001 C 199.799 -2.72994 -2.08157 0
M  V30 2002 C 198.885 -3.87852 -1.71556 0
M  V30 2003 N 199.276 -4.9464 -1.05662 0
M  V30 2004 C 197.574 -3.98153 -2.00973 0
M  V30 2005 C 198.275 -5.74953 -0.883376 0
M  V30 2006 N 197.251 -5.24985 -1.41036 0
M  V30 2007 H 201.053 -2.92141 -0.321035 0
M  V30 2008 H 198.567 -1.62217 -0.0770315 0
M  V30 2009 H 200.564 -3.10816 -2.77847 0
M  V30 2010 H 199.224 -1.9452 -2.59985 0
M  V30 2011 H 200.235 -5.12872 -0.719878 0
M  V30 2012 H 196.912 -3.30728 -2.54804 0
M  V30 2013 H 198.302 -6.70904 -0.365675 0
M  V30 2014 N 201.022 0.148545 -1.56898 0
M  V30 2015 C 201.97 1.20265 -1.99096 0
M  V30 2016 C 202.964 1.44559 -0.883123 0
M  V30 2017 O 204.17 1.4487 -1.0683 0
M  V30 2018 H 200.545 0.404786 -0.63376 0
M  V30 2019 H 202.516 0.82004 -2.86911 0
M  V30 2020 C 201.265 2.52886 -2.3863 0
M  V30 2021 H 200.588 2.35021 -3.23427 0
M  V30 2022 H 202.028 3.25274 -2.7198 0
M  V30 2023 C 200.487 3.13315 -1.23837 0
M  V30 2024 O 201.017 3.98077 -0.538268 0
M  V30 2025 N 199.223 2.72742 -1.00301 0
M  V30 2026 H 198.77 2.03912 -1.5741 0
M  V30 2027 H 198.728 3.13507 -0.236838 0
M  V30 2028 N 202.5 1.5196 0.417844 0
M  V30 2029 C 203.43 1.77634 1.51554 0
M  V30 2030 C 204.411 0.626918 1.58126 0
M  V30 2031 O 205.596 0.871632 1.7354 0
M  V30 2032 C 202.726 1.91911 2.8946 0
M  V30 2033 C 201.68 3.07463 2.97743 0
M  V30 2034 C 201.006 3.06951 4.37819 0
M  V30 2035 C 202.306 4.47082 2.70027 0
M  V30 2036 H 204 2.6955 1.3032 0
M  V30 2037 H 201.546 1.29706 0.625492 0
M  V30 2038 H 203.499 2.08455 3.6623 0
M  V30 2039 H 202.223 0.966598 3.11969 0
M  V30 2040 H 200.882 2.90656 2.23416 0
M  V30 2041 H 200.53 2.09438 4.57323 0
M  V30 2042 H 200.23 3.84556 4.44286 0
M  V30 2043 H 201.754 3.25613 5.16535 0
M  V30 2044 H 203.168 4.6414 3.36522 0
M  V30 2045 H 201.565 5.2654 2.87881 0
M  V30 2046 H 202.635 4.55777 1.65514 0
M  V30 2047 N 203.978 -0.674533 1.42435 0
M  V30 2048 C 204.888 -1.81751 1.48337 0
M  V30 2049 C 205.904 -1.69975 0.372099 0
M  V30 2050 O 207.08 -1.91521 0.62304 0
M  V30 2051 C 204.145 -3.17895 1.38361 0
M  V30 2052 C 203.206 -3.41625 2.59982 0
M  V30 2053 C 202.439 -4.71274 2.50473 0
M  V30 2054 O 202.662 -5.49197 1.54075 0
M  V30 2055 O 201.596 -4.96254 3.4061 0
M  V30 2056 H 205.422 -1.79728 2.44809 0
M  V30 2057 H 203.007 -0.830312 1.24202 0
M  V30 2058 H 204.889 -3.99136 1.35161 0
M  V30 2059 H 203.564 -3.20555 0.450144 0
M  V30 2060 H 202.471 -2.60231 2.68757 0
M  V30 2061 H 203.804 -3.43796 3.52229 0
M  V30 2062 N 205.456 -1.28612 -0.910864 0
M  V30 2063 C 206.702 -1.16106 -1.66274 0
M  V30 2064 C 207.035 0.289113 -1.92036 0
M  V30 2065 O 206.31 1.21 -1.52281 0
M  V30 2066 C 206.593 -1.96309 -3.01885 0
M  V30 2067 C 206.446 -3.49405 -2.8326 0
M  V30 2068 C 207.765 -1.78076 -4.02463 0
M  V30 2069 H 204.884 -0.423152 -0.603417 0
M  V30 2070 H 207.526 -1.57961 -1.05586 0
M  V30 2071 H 205.676 -1.60742 -3.53687 0
M  V30 2072 H 207.348 -3.94894 -2.38446 0
M  V30 2073 H 205.591 -3.74893 -2.18261 0
M  V30 2074 H 206.262 -4.00784 -3.79574 0
M  V30 2075 H 208.738 -2.0912 -3.59733 0
M  V30 2076 H 207.614 -2.36561 -4.95308 0
M  V30 2077 H 207.875 -0.733008 -4.35981 0
M  V30 2078 N 206.934 1.1197 -1.10907 0
M  V30 2079 C 207.864 2.19928 -0.784473 0
M  V30 2080 C 208.845 1.6833 0.244726 0
M  V30 2081 O 210.03 1.93892 0.109418 0
M  V30 2082 C 207.16 3.46597 -0.220827 0
M  V30 2083 C 206.114 4.11376 -1.18127 0
M  V30 2084 C 205.44 5.32554 -0.478594 0
M  V30 2085 C 206.74 4.56945 -2.52979 0
M  V30 2086 H 208.434 2.47337 -1.68715 0
M  V30 2087 H 205.98 1.18879 -0.812642 0
M  V30 2088 H 207.933 4.21396 0.0184278 0
M  V30 2089 H 206.657 3.1863 0.717113 0
M  V30 2090 H 205.316 3.38564 -1.40606 0
M  V30 2091 H 204.964 5.00856 0.463976 0
M  V30 2092 H 204.664 5.76844 -1.11912 0
M  V30 2093 H 206.188 6.10096 -0.248 0
M  V30 2094 H 207.602 5.23093 -2.3462 0
M  V30 2095 H 205.999 5.1203 -3.12962 0
M  V30 2096 H 207.069 3.70676 -3.12614 0
M  V30 2097 N 208.412 0.89855 1.29475 0
M  V30 2098 C 209.375 0.380272 2.26023 0
M  V30 2099 C 210.375 -0.484891 1.53315 0
M  V30 2100 O 211.565 -0.290108 1.71767 0
M  V30 2101 C 208.697 -0.45651 3.3783 0
M  V30 2102 H 209.89 1.23295 2.73383 0
M  V30 2103 H 207.443 0.676589 1.40897 0
M  V30 2104 H 208.178 -1.32922 2.95808 0
M  V30 2105 H 207.963 0.163393 3.91759 0
M  V30 2106 H 209.453 -0.810466 4.0966 0
M  V30 2107 N 209.89 -1.43072 0.660911 0
M  V30 2108 C 211.115 -2.06584 0.183805 0
M  V30 2109 C 211.54 -1.49257 -1.14472 0
M  V30 2110 O 210.898 -0.605528 -1.70889 0
M  V30 2111 C 210.946 -3.60418 0.114434 0
M  V30 2112 O 210.05 -4.01981 -0.921137 0
M  V30 2113 H 209.391 -0.656669 0.0983994 0
M  V30 2114 H 211.921 -1.83447 0.906006 0
M  V30 2115 H 211.931 -4.07946 -0.0663394 0
M  V30 2116 H 210.606 -4.01519 1.08422 0
M  V30 2117 H 209.183 -3.66029 -0.71253 0
M  V30 2118 N 211.368 -0.403325 -1.52352 0
M  V30 2119 C 212.784 -0.0539281 -1.59509 0
M  V30 2120 C 212.984 1.43307 -1.41652 0
M  V30 2121 O 212.04 2.19924 -1.24056 0
M  V30 2122 C 213.353 -0.543654 -2.95745 0
M  V30 2123 C 214.901 -0.501125 -3.08962 0
M  V30 2124 C 215.376 -0.967267 -4.47669 0
M  V30 2125 N 216.867 -0.923849 -4.53893 0
M  V30 2126 C 217.602 -1.25578 -5.5948 0
M  V30 2127 N 217.098 -1.65889 -6.72646 0
M  V30 2128 N 218.891 -1.17613 -5.49658 0
M  V30 2129 H 211.042 -1.37123 -1.62206 0
M  V30 2130 H 213.305 -0.56294 -0.76276 0
M  V30 2131 H 213.011 -1.58275 -3.14073 0
M  V30 2132 H 212.885 0.0498042 -3.77167 0
M  V30 2133 H 215.272 0.528909 -2.90321 0
M  V30 2134 H 215.353 -1.13056 -2.2946 0
M  V30 2135 H 214.997 -1.9956 -4.67053 0
M  V30 2136 H 214.927 -0.314698 -5.25659 0
M  V30 2137 H 217.418 -0.627403 -3.72655 0
M  V30 2138 H 217.731 -1.89543 -7.49195 0
M  V30 2139 H 216.076 -1.69787 -6.73942 0
M  V30 2140 H 219.267 -0.860115 -4.6013 0
M  V30 2141 H 219.44 -1.43812 -6.3184 0
M  V30 2142 N 212.846 1.57033 -0.133567 0
M  V30 2143 C 214.094 1.953 0.519848 0
M  V30 2144 C 214.415 1.01866 1.66278 0
M  V30 2145 O 213.685 0.0776513 1.95746 0
M  V30 2146 H 212.265 0.721091 0.195032 0
M  V30 2147 H 214.927 1.93809 -0.205921 0
M  V30 2148 H 214.023 2.98695 0.904854 0
M  V30 2149 N 214.325 -0.140222 1.56975 0
M  V30 2150 C 215.255 -1.17456 2.01808 0
M  V30 2151 C 216.236 -1.44415 0.898794 0
M  V30 2152 O 217.421 -1.5522 1.16707 0
M  V30 2153 C 214.551 -2.50607 2.40444 0
M  V30 2154 C 213.505 -2.38155 3.55621 0
M  V30 2155 C 212.831 -3.76078 3.80091 0
M  V30 2156 C 214.131 -1.85991 4.88062 0
M  V30 2157 H 215.825 -0.801743 2.88466 0
M  V30 2158 H 213.371 -0.38422 1.38779 0
M  V30 2159 H 215.324 -3.23197 2.7041 0
M  V30 2160 H 214.048 -2.89737 1.50732 0
M  V30 2161 H 212.707 -1.68016 3.25832 0
M  V30 2162 H 212.355 -4.12656 2.87618 0
M  V30 2163 H 212.055 -3.68606 4.57606 0
M  V30 2164 H 213.579 -4.50206 4.12488 0
M  V30 2165 H 214.993 -2.4838 5.16701 0
M  V30 2166 H 213.39 -1.89393 5.6943 0
M  V30 2167 H 214.46 -0.816023 4.77984 0
M  V30 2168 N 215.803 -1.52179 -0.40978 0
M  V30 2169 C 216.733 -1.78435 -1.5061 0
M  V30 2170 C 217.714 -0.635295 -1.57791 0
M  V30 2171 O 218.899 -0.880823 -1.73076 0
M  V30 2172 C 216.029 -1.93444 -2.88439 0
M  V30 2173 C 214.983 -3.09038 -2.96108 0
M  V30 2174 C 214.309 -3.09268 -4.36185 0
M  V30 2175 C 215.609 -4.48508 -2.67652 0
M  V30 2176 H 217.303 -2.70237 -1.28889 0
M  V30 2177 H 214.849 -1.30036 -0.618605 0
M  V30 2178 H 216.802 -2.10394 -3.65119 0
M  V30 2179 H 215.526 -0.983129 -3.11452 0
M  V30 2180 H 214.185 -2.91837 -2.21872 0
M  V30 2181 H 213.833 -2.11861 -4.56206 0
M  V30 2182 H 213.533 -3.86907 -4.42241 0
M  V30 2183 H 215.057 -3.28348 -5.14801 0
M  V30 2184 H 216.471 -4.65918 -3.34056 0
M  V30 2185 H 214.868 -5.28059 -2.85085 0
M  V30 2186 H 215.938 -4.56649 -1.63095 0
M  V30 2187 N 217.281 0.66697 -1.42791 0
M  V30 2188 C 218.53 1.42278 -1.42968 0
M  V30 2189 C 218.843 1.9553 -0.0524489 0
M  V30 2190 O 220.049 2.71414 0.068363 0
M  V30 2191 C 218.505 2.57418 -2.51524 0
M  V30 2192 C 218.113 2.10832 -3.9529 0
M  V30 2193 C 219.857 3.34878 -2.60877 0
M  V30 2194 C 217.764 3.23101 -4.95338 0
M  V30 2195 H 216.694 0.534533 -0.531781 0
M  V30 2196 H 219.345 0.721302 -1.68729 0
M  V30 2197 H 217.727 3.29971 -2.18941 0
M  V30 2198 H 218.901 1.4538 -4.37266 0
M  V30 2199 H 217.216 1.46289 -3.89857 0
M  V30 2200 H 219.813 4.18505 -3.32802 0
M  V30 2201 H 220.156 3.81993 -1.6549 0
M  V30 2202 H 220.689 2.69398 -2.92693 0
M  V30 2203 H 217.428 2.80969 -5.9223 0
M  V30 2204 H 216.948 3.87309 -4.57987 0
M  V30 2205 H 218.627 3.88447 -5.17415 0
M  V30 2206 N 218.759 1.29093 0.90403 0
M  V30 2207 C 220.005 1.17996 1.65676 0
M  V30 2208 C 220.36 -0.266816 1.90541 0
M  V30 2209 O 219.653 -1.19 1.50165 0
M  V30 2210 C 219.847 1.92224 3.01305 0
M  V30 2211 C 219.676 3.43972 2.89678 0
M  V30 2212 C 218.446 4.1332 2.90679 0
M  V30 2213 C 220.644 4.39546 2.67028 0
M  V30 2214 N 218.626 5.51463 2.69743 0
M  V30 2215 C 219.997 5.65119 2.5503 0
M  V30 2216 C 222.052 4.29359 2.52101 0
M  V30 2217 C 220.755 6.81663 2.29626 0
M  V30 2218 C 222.781 5.4565 2.28079 0
M  V30 2219 C 222.143 6.70193 2.16843 0
M  V30 2220 H 218.242 0.486759 0.612037 0
M  V30 2221 H 220.826 1.62868 1.06688 0
M  V30 2222 H 218.997 1.49773 3.58361 0
M  V30 2223 H 220.729 1.73429 3.65656 0
M  V30 2224 H 217.484 3.64984 3.01801 0
M  V30 2225 H 217.908 6.24105 2.6234 0
M  V30 2226 H 222.55 3.33769 2.59534 0
M  V30 2227 H 220.268 7.77313 2.20932 0
M  V30 2228 H 223.854 5.39664 2.1738 0
M  V30 2229 H 222.734 7.58659 1.98511 0
M  V30 2230 N 220.237 -1.11381 1.11499 0
M  V30 2231 C 221.485 -1.8277 0.862524 0
M  V30 2232 C 221.806 -1.85097 -0.613534 0
M  V30 2233 O 221.076 -1.32198 -1.4457 0
M  V30 2234 H 219.656 -0.676823 0.316101 0
M  V30 2235 H 222.318 -1.34816 1.4075 0
M  V30 2236 H 221.414 -2.86614 1.23527 0
M  V30 2237 N 221.715 -0.905404 -1.28997 0
M  V30 2238 C 223.126 -0.581953 -1.77398 0
M  V30 2239 C 223.477 0.902552 -1.74208 0
M  V30 2240 O 222.602 1.70584 -1.33154 0
M  V30 2241 C 223.197 -1.04961 -3.22131 0
M  V30 2242 C 221.756 -0.777229 -3.68288 0
M  V30 2243 C 220.903 -1.22109 -2.48967 0
M  V30 2244 H 223.854 -1.08754 -1.15578 0
M  V30 2245 H 223.875 -0.387387 -3.78523 0
M  V30 2246 H 223.387 -2.13008 -3.24421 0
M  V30 2247 H 221.488 0.290383 -3.71467 0
M  V30 2248 H 221.601 -1.37911 -4.58822 0
M  V30 2249 H 219.965 -0.639971 -2.46529 0
M  V30 2250 H 220.748 -2.30972 -2.53982 0
M  V30 2251 N 223.193 1.4272 -0.668489 0
M  V30 2252 C 224.47 1.95248 -0.117373 0
M  V30 2253 C 224.85 1.60919 1.36632 0
M  V30 2254 O 224.198 0.902095 2.09939 0
M  V30 2255 C 224.408 3.46927 -0.379806 0
M  V30 2256 C 225.756 4.23588 -0.292923 0
M  V30 2257 O 226.78 3.5482 -0.313204 0
M  V30 2258 O 225.639 5.46017 -0.229697 0
M  V30 2259 H 222.733 0.827 0.00079152 0
M  V30 2260 H 225.279 1.52581 -0.742783 0
M  V30 2261 H 224.051 3.65096 -1.40786 0
M  V30 2262 H 223.674 3.96627 0.277923 0
M  V30 2263 N 224.671 0.411399 1.52136 0
M  V30 2264 C 225.896 -0.165538 2.06738 0
M  V30 2265 C 226.321 -1.379 1.27926 0
M  V30 2266 O 225.679 -1.78628 0.310114 0
M  V30 2267 C 225.727 -0.492124 3.57226 0
M  V30 2268 O 224.831 -1.58276 3.80818 0
M  V30 2269 H 224.172 -0.0132132 0.663869 0
M  V30 2270 H 226.702 0.585253 1.96051 0
M  V30 2271 H 226.712 -0.750104 4.01045 0
M  V30 2272 H 225.387 0.394922 4.14021 0
M  V30 2273 H 223.964 -1.31677 3.48877 0
M  V30 2274 N 226.149 -1.5696 0.141893 0
M  V30 2275 C 227.397 -1.95573 -0.509484 0
M  V30 2276 C 227.718 -1.02746 -1.65736 0
M  V30 2277 O 226.988 -0.0880311 -1.95702 0
M  V30 2278 H 225.568 -0.722115 -0.191205 0
M  V30 2279 H 228.23 -1.93697 0.216196 0
M  V30 2280 H 227.326 -2.99171 -0.889 0
M  V30 2281 N 227.627 0.131896 -1.57047 0
M  V30 2282 C 228.852 0.860418 -1.8871 0
M  V30 2283 C 229.277 1.73251 -0.73251 0
M  V30 2284 O 228.635 1.785 0.317429 0
M  V30 2285 C 228.683 1.68047 -3.19049 0
M  V30 2286 O 227.787 2.7862 -3.04047 0
M  V30 2287 H 227.128 0.238743 -0.619595 0
M  V30 2288 H 229.658 0.118169 -2.04258 0
M  V30 2289 H 229.668 2.07238 -3.51449 0
M  V30 2290 H 228.343 1.04018 -4.02682 0
M  V30 2291 H 226.92 2.42726 -2.83088 0
M  V30 2292 N 229.106 1.52395 0.401703 0
M  V30 2293 C 230.038 1.72505 1.50912 0
M  V30 2294 C 231.051 0.605468 1.51122 0
M  V30 2295 O 232.24 0.880828 1.55254 0
M  V30 2296 C 229.34 1.75711 2.89791 0
M  V30 2297 C 228.513 3.04824 3.1369 0
M  V30 2298 C 227.572 2.99743 4.32482 0
M  V30 2299 O 226.598 3.73635 4.29402 0
M  V30 2300 N 227.8 2.18047 5.37992 0
M  V30 2301 H 230.565 2.68049 1.34052 0
M  V30 2302 H 228.126 1.50724 0.591084 0
M  V30 2303 H 230.118 1.69834 3.6734 0
M  V30 2304 H 228.688 0.876092 3.00072 0
M  V30 2305 H 227.908 3.2429 2.24119 0
M  V30 2306 H 229.196 3.90221 3.26504 0
M  V30 2307 H 228.594 1.57456 5.43345 0
M  V30 2308 H 227.151 2.18021 6.14256 0
M  V30 2309 N 230.584 -0.659388 1.43143 0
M  V30 2310 C 231.547 -1.75432 1.47501 0
M  V30 2311 C 232.547 -1.56707 0.360512 0
M  V30 2312 O 233.737 -1.62717 0.622002 0
M  V30 2313 C 230.869 -3.14239 1.32162 0
M  V30 2314 H 232.062 -1.7295 2.45006 0
M  V30 2315 H 229.615 -0.870469 1.29817 0
M  V30 2316 H 230.35 -3.22336 0.356401 0
M  V30 2317 H 230.135 -3.29235 2.12948 0
M  V30 2318 H 231.625 -3.94094 1.3813 0
M  V30 2319 N 232.062 -1.29571 -0.897171 0
M  V30 2320 C 233.302 -1.18959 -1.66217 0
M  V30 2321 C 233.666 0.254271 -1.90309 0
M  V30 2322 O 234.867 0.483407 -2.64417 0
M  V30 2323 C 233.138 -1.98302 -2.9734 0
M  V30 2324 S 234.697 -2.04253 -3.88364 0
M  V30 2325 H 231.515 -0.424137 -0.570639 0
M  V30 2326 H 234.117 -1.6389 -1.06585 0
M  V30 2327 H 232.821 -3.02342 -2.77521 0
M  V30 2328 H 232.352 -1.53986 -3.62011 0
M  V30 2329 H 234.367 -1.16105 -4.82425 0
M  V30 2330 N 233.54 1.10788 -1.12088 0
M  V30 2331 C 234.788 1.8231 -0.872205 0
M  V30 2332 C 235.109 1.85419 0.603709 0
M  V30 2333 O 234.379 1.32963 1.43867 0
M  V30 2334 H 232.959 0.675137 -0.319686 0
M  V30 2335 H 235.621 1.34068 -1.41463 0
M  V30 2336 H 234.717 2.85955 -1.25045 0
M  V30 2337 N 235.018 0.912232 1.28515 0
M  V30 2338 C 236.295 0.463597 1.90027 0
M  V30 2339 C 236.675 -1.05753 1.82701 0
M  V30 2340 O 236.023 -1.90492 1.26194 0
M  V30 2341 C 236.233 0.992253 3.34597 0
M  V30 2342 C 237.581 1.04344 4.11579 0
M  V30 2343 O 238.605 0.94079 3.43551 0
M  V30 2344 O 237.464 1.1995 5.33174 0
M  V30 2345 H 234.558 0.146666 0.813891 0
M  V30 2346 H 237.104 1.00292 1.36893 0
M  V30 2347 H 235.876 2.03623 3.34146 0
M  V30 2348 H 235.499 0.433672 3.95228 0
M  V30 2349 N 236.496 -1.42363 0.676048 0
M  V30 2350 C 237.745 -2.00745 0.196037 0
M  V30 2351 C 238.058 -1.54083 -1.20489 0
M  V30 2352 O 239.264 -2.04891 -1.78134 0
M  V30 2353 C 237.72 -3.58651 0.299616 0
M  V30 2354 C 237.328 -4.143 1.70468 0
M  V30 2355 C 239.072 -4.24326 -0.121619 0
M  V30 2356 C 236.979 -5.64574 1.76096 0
M  V30 2357 H 235.909 -0.750787 0.0695301 0
M  V30 2358 H 238.56 -1.63072 0.841412 0
M  V30 2359 H 236.942 -3.93833 -0.413673 0
M  V30 2360 H 238.116 -3.90575 2.44515 0
M  V30 2361 H 236.431 -3.61081 2.07387 0
M  V30 2362 H 239.028 -5.34607 -0.0997362 0
M  V30 2363 H 239.371 -3.99897 -1.15708 0
M  V30 2364 H 239.904 -3.94108 0.540706 0
M  V30 2365 H 236.643 -5.93804 2.77628 0
M  V30 2366 H 236.163 -5.90286 1.06406 0
M  V30 2367 H 237.842 -6.29013 1.51496 0
M  V30 2368 N 237.974 -0.419461 -1.51915 0
M  V30 2369 C 239.222 0.152637 -2.01523 0
M  V30 2370 C 239.543 1.44762 -1.30649 0
M  V30 2371 O 238.813 1.90997 -0.435535 0
M  V30 2372 H 237.393 0.0593966 -0.744635 0
M  V30 2373 H 240.055 -0.558073 -1.86739 0
M  V30 2374 H 239.151 0.341369 -3.10227 0
M  V30 2375 N 239.452 1.56882 -0.150215 0
M  V30 2376 C 240.863 1.82995 0.370076 0
M  V30 2377 C 241.214 1.06907 1.64515 0
M  V30 2378 O 240.339 0.315369 2.1409 0
M  V30 2379 C 240.934 3.31942 0.678208 0
M  V30 2380 C 239.493 3.58625 1.14301 0
M  V30 2381 C 238.64 2.76792 0.167778 0
M  V30 2382 H 241.591 1.54209 -0.374858 0
M  V30 2383 H 241.612 3.48272 1.53254 0
M  V30 2384 H 241.124 3.87294 -0.249991 0
M  V30 2385 H 239.225 3.08664 2.08704 0
M  V30 2386 H 239.338 4.67073 1.06676 0
M  V30 2387 H 237.702 2.45972 0.661037 0
M  V30 2388 H 238.485 3.34916 -0.754069 0
M  V30 2389 N 240.93 -0.123565 1.57115 0
M  V30 2390 C 242.178 -0.83051 1.84247 0
M  V30 2391 C 242.499 -1.80629 0.73471 0
M  V30 2392 O 241.769 -1.94403 -0.241688 0
M  V30 2393 H 240.349 -0.309694 0.679778 0
M  V30 2394 H 243.011 -0.111976 1.94578 0
M  V30 2395 H 242.107 -1.37852 2.80006 0
M  V30 2396 N 242.408 -1.52605 -0.393616 0
M  V30 2397 C 243.824 -1.41753 -0.733357 0
M  V30 2398 C 244.024 -0.534293 -1.94287 0
M  V30 2399 O 243.08 -0.0059787 -2.52499 0
M  V30 2400 C 244.393 -2.84531 -0.972772 0
M  V30 2401 C 245.941 -2.93978 -1.07453 0
M  V30 2402 C 246.416 -4.37756 -1.3466 0
M  V30 2403 N 247.907 -4.4106 -1.41492 0
M  V30 2404 C 248.642 -5.49387 -1.642 0
M  V30 2405 N 248.138 -6.67806 -1.8441 0
M  V30 2406 N 249.931 -5.36923 -1.66342 0
M  V30 2407 H 242.082 -2.08555 0.402328 0
M  V30 2408 H 244.345 -0.940654 0.117789 0
M  V30 2409 H 244.051 -3.51353 -0.156204 0
M  V30 2410 H 243.925 -3.26508 -1.88871 0
M  V30 2411 H 246.312 -2.27326 -1.88167 0
M  V30 2412 H 246.393 -2.55435 -0.136605 0
M  V30 2413 H 246.037 -5.04972 -0.544581 0
M  V30 2414 H 245.967 -4.73848 -2.2973 0
M  V30 2415 H 248.458 -3.55705 -1.27601 0
M  V30 2416 H 248.771 -7.46141 -2.01231 0
M  V30 2417 H 247.116 -6.70843 -1.81644 0
M  V30 2418 H 250.307 -4.43381 -1.50102 0
M  V30 2419 H 250.48 -6.21416 -1.837 0
M  V30 2420 N 243.887 0.651787 -1.4349 0
M  V30 2421 C 244.82 1.77668 -1.43211 0
M  V30 2422 C 245.798 1.59931 -0.29338 0
M  V30 2423 O 246.982 1.82095 -0.487191 0
M  V30 2424 C 244.109 3.14986 -1.24505 0
M  V30 2425 C 243.155 3.51421 -2.41673 0
M  V30 2426 S 243.988 3.51234 -4.04222 0
M  V30 2427 C 245.144 4.91206 -3.87902 0
M  V30 2428 H 245.377 1.77635 -2.38397 0
M  V30 2429 H 242.91 0.824558 -1.30539 0
M  V30 2430 H 244.868 3.94237 -1.144 0
M  V30 2431 H 243.529 3.1258 -0.308651 0
M  V30 2432 H 242.722 4.51291 -2.24393 0
M  V30 2433 H 242.324 2.79585 -2.48411 0
M  V30 2434 H 244.616 5.79902 -3.50315 0
M  V30 2435 H 245.559 5.13537 -4.8753 0
M  V30 2436 H 245.967 4.64808 -3.20334 0
M  V30 2437 N 245.365 1.30045 0.890287 0
M  V30 2438 C 246.295 1.18541 2.01172 0
M  V30 2439 C 247.276 0.0773356 1.69924 0
M  V30 2440 O 248.461 0.25845 1.92473 0
M  V30 2441 C 245.591 0.870941 3.36202 0
M  V30 2442 C 244.545 1.93637 3.81692 0
M  V30 2443 C 243.871 1.475 5.13953 0
M  V30 2444 C 245.171 3.34666 4.00994 0
M  V30 2445 H 246.865 2.12359 2.11054 0
M  V30 2446 H 244.411 1.02238 1.01407 0
M  V30 2447 H 246.364 0.777141 4.14172 0
M  V30 2448 H 245.088 -0.102926 3.26438 0
M  V30 2449 H 243.747 2.01972 3.05946 0
M  V30 2450 H 243.395 0.489551 5.00612 0
M  V30 2451 H 243.095 2.1876 5.4536 0
M  V30 2452 H 244.619 1.39489 5.94454 0
M  V30 2453 H 246.033 3.2912 4.69417 0
M  V30 2454 H 244.43 4.03966 4.43769 0
M  V30 2455 H 245.5 3.76949 3.05021 0
M  V30 2456 N 246.843 -1.10192 1.12674 0
M  V30 2457 C 248.12 -1.78717 0.794965 0
M  V30 2458 C 248.5 -1.98628 -0.714853 0
M  V30 2459 O 247.848 -1.58135 -1.64941 0
M  V30 2460 C 248.058 -3.11546 1.5729 0
M  V30 2461 C 249.406 -3.86382 1.76052 0
M  V30 2462 O 250.43 -3.21274 1.53823 0
M  V30 2463 O 249.289 -5.03246 2.13087 0
M  V30 2464 H 246.383 -0.774702 0.289423 0
M  V30 2465 H 248.929 -1.16819 1.23091 0
M  V30 2466 H 247.701 -2.92489 2.59935 0
M  V30 2467 H 247.324 -3.81164 1.13137 0
M  V30 2468 N 248.321 -0.919034 -1.28029 0
M  V30 2469 C 249.732 -0.600735 -1.76771 0
M  V30 2470 C 250.083 0.884024 -1.75156 0
M  V30 2471 O 249.208 1.69163 -1.34956 0
M  V30 2472 C 249.803 -1.08372 -3.21 0
M  V30 2473 C 248.362 -0.816248 -3.67443 0
M  V30 2474 C 247.509 -1.24742 -2.47658 0
M  V30 2475 H 250.46 -1.09974 -1.14418 0
M  V30 2476 H 250.481 -0.427512 -3.78091 0
M  V30 2477 H 249.993 -2.16437 -3.22144 0
M  V30 2478 H 248.094 0.250968 -3.71754 0
M  V30 2479 H 248.207 -1.4277 -4.57333 0
M  V30 2480 H 246.571 -0.666083 -2.45836 0
M  V30 2481 H 247.354 -2.33653 -2.51518 0
M  V30 2482 N 249.799 1.42003 -0.683588 0
M  V30 2483 C 250.729 2.33487 -0.024866 0
M  V30 2484 C 251.71 1.51163 0.779975 0
M  V30 2485 O 252.895 1.79739 0.735362 0
M  V30 2486 C 250.025 3.3487 0.920836 0
M  V30 2487 C 248.979 4.27414 0.223958 0
M  V30 2488 C 248.305 5.19074 1.2832 0
M  V30 2489 C 249.605 5.14445 -0.90242 0
M  V30 2490 H 251.299 2.88819 -0.788921 0
M  V30 2491 H 248.845 1.38873 -0.38083 0
M  V30 2492 H 250.798 3.97787 1.39081 0
M  V30 2493 H 249.522 2.77861 1.71642 0
M  V30 2494 H 248.181 3.65904 -0.225864 0
M  V30 2495 H 247.829 4.58387 2.071 0
M  V30 2496 H 247.529 5.81822 0.821995 0
M  V30 2497 H 249.053 5.84867 1.75392 0
M  V30 2498 H 250.467 5.70998 -0.513272 0
M  V30 2499 H 248.864 5.86072 -1.28997 0
M  V30 2500 H 249.934 4.52322 -1.74737 0
M  V30 2501 N 251.277 0.427512 1.51691 0
M  V30 2502 C 252.505 -0.141191 2.06418 0
M  V30 2503 C 252.92 -1.37303 1.29589 0
M  V30 2504 O 252.277 -1.79059 0.352732 0
M  V30 2505 C 252.328 -0.473266 3.58389 0
M  V30 2506 O 252.049 0.709673 4.32314 0
M  V30 2507 C 253.55 -1.09371 4.29596 0
M  V30 2508 H 250.77 -0.0122747 0.670888 0
M  V30 2509 H 253.314 0.603764 1.95384 0
M  V30 2510 H 251.469 -1.16812 3.69369 0
M  V30 2511 H 251.883 0.42807 5.2275 0
M  V30 2512 H 253.357 -1.27613 5.37046 0
M  V30 2513 H 253.834 -2.072 3.87253 0
M  V30 2514 H 254.44 -0.43853 4.23033 0
M  V30 2515 N 252.755 -1.56801 0.158532 0
M  V30 2516 C 254.004 -1.95665 -0.489702 0
M  V30 2517 C 254.317 -1.04654 -1.65248 0
M  V30 2518 O 255.523 -1.33146 -2.3661 0
M  V30 2519 C 253.979 -3.47874 -0.922582 0
M  V30 2520 C 253.587 -4.47489 0.213893 0
M  V30 2521 C 255.331 -3.95583 -1.53996 0
M  V30 2522 C 253.238 -5.90921 -0.237903 0
M  V30 2523 H 252.168 -0.730516 -0.186716 0
M  V30 2524 H 254.819 -1.81861 0.244722 0
M  V30 2525 H 253.201 -3.57051 -1.71261 0
M  V30 2526 H 254.375 -4.50017 0.991036 0
M  V30 2527 H 252.69 -4.09764 0.740407 0
M  V30 2528 H 255.287 -5.0019 -1.8898 0
M  V30 2529 H 255.63 -3.37789 -2.43319 0
M  V30 2530 H 256.163 -3.8937 -0.814611 0
M  V30 2531 H 252.902 -6.52559 0.620236 0
M  V30 2532 H 252.422 -5.91729 -0.980676 0
M  V30 2533 H 254.101 -6.43352 -0.686067 0
M  V30 2534 N 254.233 0.115231 -1.57178 0
M  V30 2535 C 255.479 0.82357 -1.85325 0
M  V30 2536 C 255.812 1.79349 -0.744814 0
M  V30 2537 O 255.087 1.92899 0.249024 0
M  V30 2538 C 255.37 1.57014 -3.24066 0
M  V30 2539 C 255.223 0.619565 -4.45513 0
M  V30 2540 C 256.542 2.52545 -3.60429 0
M  V30 2541 H 253.661 0.297948 -0.674089 0
M  V30 2542 H 256.303 0.0877138 -1.89797 0
M  V30 2543 H 254.453 2.19742 -3.20383 0
M  V30 2544 H 256.125 0.000837639 -4.613 0
M  V30 2545 H 254.368 -0.0686174 -4.33746 0
M  V30 2546 H 255.039 1.17866 -5.3927 0
M  V30 2547 H 257.515 1.9992 -3.64926 0
M  V30 2548 H 256.391 3.01811 -4.58477 0
M  V30 2549 H 256.652 3.35383 -2.88047 0
M  V30 2550 N 255.711 1.52812 0.385517 0
M  V30 2551 C 256.988 1.5861 1.14465 0
M  V30 2552 C 257.368 0.381402 2.07626 0
M  V30 2553 O 256.716 -0.629999 2.19643 0
M  V30 2554 C 256.926 2.92664 1.90128 0
M  V30 2555 C 258.274 3.46526 2.45367 0
M  V30 2556 O 259.298 2.94562 2.0028 0
M  V30 2557 O 258.157 4.37323 3.27736 0
M  V30 2558 H 255.251 0.639855 0.523941 0
M  V30 2559 H 257.797 1.65149 0.390389 0
M  V30 2560 H 256.569 3.71788 1.22022 0
M  V30 2561 H 256.192 2.89527 2.72507 0
M  V30 2562 N 257.189 -0.644168 1.43834 0
M  V30 2563 C 258.122 -1.76906 1.44151 0
M  V30 2564 C 259.1 -1.59774 0.301857 0
M  V30 2565 O 260.284 -1.81834 0.496841 0
M  V30 2566 C 257.411 -3.14321 1.26174 0
M  V30 2567 C 256.457 -3.50134 2.43533 0
M  V30 2568 S 257.29 -3.49085 4.06079 0
M  V30 2569 C 258.446 -4.89142 3.90501 0
M  V30 2570 H 258.679 -1.76368 2.39336 0
M  V30 2571 H 256.212 -0.817624 1.30974 0
M  V30 2572 H 258.17 -3.93625 1.16489 0
M  V30 2573 H 256.831 -3.12412 0.325224 0
M  V30 2574 H 256.024 -4.50095 2.26783 0
M  V30 2575 H 255.626 -2.78264 2.4989 0
M  V30 2576 H 257.918 -5.78036 3.53385 0
M  V30 2577 H 258.861 -5.10945 4.90246 0
M  V30 2578 H 259.269 -4.63102 3.22795 0
M  V30 2579 N 258.668 -1.30515 -0.883378 0
M  V30 2580 C 259.631 -1.1701 -1.97082 0
M  V30 2581 C 260.631 -0.10089 -1.60483 0
M  V30 2582 O 261.821 -0.349127 -1.70666 0
M  V30 2583 C 258.953 -0.793045 -3.31547 0
M  V30 2584 H 260.146 -2.13622 -2.10489 0
M  V30 2585 H 257.699 -1.13935 -1.06998 0
M  V30 2586 H 258.434 0.172499 -3.23841 0
M  V30 2587 H 258.219 -1.56576 -3.5948 0
M  V30 2588 H 259.709 -0.722073 -4.1131 0
M  V30 2589 N 260.146 1.09593 -1.13257 0
M  V30 2590 C 261.392 1.82003 -0.89458 0
M  V30 2591 C 261.725 1.85402 0.577906 0
M  V30 2592 O 261 1.32099 1.42759 0
M  V30 2593 C 261.283 3.28237 -1.48096 0
M  V30 2594 C 261.136 3.3312 -3.02244 0
M  V30 2595 C 262.455 4.24871 -1.14774 0
M  V30 2596 H 259.574 0.66077 -0.326424 0
M  V30 2597 H 262.216 1.28389 -1.40058 0
M  V30 2598 H 260.366 3.74024 -1.05062 0
M  V30 2599 H 262.038 2.95748 -3.54021 0
M  V30 2600 H 260.281 2.72756 -3.37323 0
M  V30 2601 H 260.952 4.3613 -3.38371 0
M  V30 2602 H 263.428 3.87361 -1.51957 0
M  V30 2603 H 262.304 5.25532 -1.58452 0
M  V30 2604 H 262.565 4.42058 -0.0611849 0
M  V30 2605 N 261.624 0.925811 1.2754 0
M  V30 2606 C 262.587 0.428129 2.25166 0
M  V30 2607 C 263.587 -0.452261 1.54309 0
M  V30 2608 O 264.777 -0.253608 1.72344 0
M  V30 2609 C 261.909 -0.384749 3.38722 0
M  V30 2610 H 263.102 1.29066 2.70706 0
M  V30 2611 H 260.655 0.706323 1.3943 0
M  V30 2612 H 261.39 -1.26618 2.98561 0
M  V30 2613 H 261.175 0.246454 3.91325 0
M  V30 2614 H 262.665 -0.723389 4.11287 0
M  V30 2615 N 263.102 -1.41638 0.69111 0
M  V30 2616 C 264.052 -2.28 -0.000107832 0
M  V30 2617 C 265.036 -1.41964 -0.757304 0
M  V30 2618 O 266.228 -1.65274 -0.633532 0
M  V30 2619 C 263.357 -3.30209 -0.938983 0
M  V30 2620 C 262.443 -4.23725 -0.17827 0
M  V30 2621 N 262.834 -4.99017 0.825563 0
M  V30 2622 C 261.132 -4.44071 -0.414392 0
M  V30 2623 C 261.833 -5.67431 1.28052 0
M  V30 2624 N 260.809 -5.40197 0.607304 0
M  V30 2625 H 264.611 -2.83644 0.769617 0
M  V30 2626 H 262.125 -1.53797 0.521562 0
M  V30 2627 H 264.122 -3.90898 -1.44929 0
M  V30 2628 H 262.782 -2.76126 -1.70836 0
M  V30 2629 H 263.793 -5.03671 1.20566 0
M  V30 2630 H 260.47 -4.01004 -1.162 0
M  V30 2631 H 261.86 -6.37801 2.11327 0
M  V30 2632 N 264.58 -0.43555 -1.51462 0
M  V30 2633 C 265.827 0.131514 -2.02072 0
M  V30 2634 C 266.155 1.42868 -1.31981 0
M  V30 2635 O 265.41 1.91076 -0.422883 0
M  V30 2636 C 265.709 0.39942 -3.55161 0
M  V30 2637 C 265.375 -0.81172 -4.43533 0
M  V30 2638 C 264.037 -1.14387 -4.67407 0
M  V30 2639 C 266.389 -1.61976 -4.95392 0
M  V30 2640 C 263.717 -2.28477 -5.40384 0
M  V30 2641 C 266.069 -2.75164 -5.6962 0
M  V30 2642 C 264.733 -3.08835 -5.91758 0
M  V30 2643 H 264.003 0.0481244 -0.739436 0
M  V30 2644 H 266.65 -0.58238 -1.8243 0
M  V30 2645 H 264.955 1.19519 -3.73125 0
M  V30 2646 H 266.652 0.85157 -3.91854 0
M  V30 2647 H 263.242 -0.542898 -4.25148 0
M  V30 2648 H 267.426 -1.37637 -4.76833 0
M  V30 2649 H 262.682 -2.5488 -5.55739 0
M  V30 2650 H 266.856 -3.38147 -6.08793 0
M  V30 2651 H 264.483 -3.97353 -6.48086 0
M  V30 2652 N 266.058 1.56714 -0.166846 0
M  V30 2653 C 267.283 2.01557 0.488833 0
M  V30 2654 C 267.708 1.0463 1.56314 0
M  V30 2655 O 267.066 0.0251304 1.81283 0
M  V30 2656 C 267.114 3.4503 1.04818 0
M  V30 2657 O 266.218 3.51163 2.16236 0
M  V30 2658 H 265.559 0.653516 0.117526 0
M  V30 2659 H 268.089 2.02818 -0.269421 0
M  V30 2660 H 268.099 3.84243 1.37191 0
M  V30 2661 H 266.774 4.15077 0.261572 0
M  V30 2662 H 265.351 3.23807 1.84942 0
M  V30 2663 N 267.536 -0.106894 1.57237 0
M  V30 2664 C 268.947 -0.662723 1.74542 0
M  V30 2665 C 269.298 -1.7971 0.787319 0
M  V30 2666 O 268.423 -2.16368 -0.0369636 0
M  V30 2667 C 269.018 -1.20896 3.16496 0
M  V30 2668 C 267.577 -1.71096 3.35266 0
M  V30 2669 C 266.724 -0.615642 2.7038 0
M  V30 2670 H 269.675 0.119106 1.58252 0
M  V30 2671 H 269.696 -2.07847 3.18716 0
M  V30 2672 H 269.208 -0.383122 3.86204 0
M  V30 2673 H 267.309 -2.56119 2.70618 0
M  V30 2674 H 267.422 -1.81208 4.43509 0
M  V30 2675 H 265.786 -1.05222 2.31949 0
M  V30 2676 H 266.569 0.199419 3.4272 0
M  V30 2677 N 269.014 -1.53014 -0.377408 0
M  V30 2678 C 270.26 -1.68872 -1.12294 0
M  V30 2679 C 270.593 -0.433224 -1.89306 0
M  V30 2680 O 269.868 0.569258 -1.85983 0
M  V30 2681 C 270.151 -2.93115 -2.09179 0
M  V30 2682 C 270.004 -4.28794 -1.35853 0
M  V30 2683 C 271.323 -3.12928 -3.09458 0
M  V30 2684 H 268.442 -0.614518 -0.406862 0
M  V30 2685 H 271.084 -1.85633 -0.40503 0
M  V30 2686 H 269.234 -2.78956 -2.70399 0
M  V30 2687 H 270.906 -4.54742 -0.775082 0
M  V30 2688 H 269.149 -4.28744 -0.660364 0
M  V30 2689 H 269.82 -5.11837 -2.06706 0
M  V30 2690 H 272.296 -3.26194 -2.58334 0
M  V30 2691 H 271.172 -4.01316 -3.74482 0
M  V30 2692 H 271.433 -2.27669 -3.78971 0
M  V30 2693 N 270.492 0.636531 -1.44174 0
M  V30 2694 C 271.44 1.76995 -1.50915 0
M  V30 2695 C 272.434 1.65053 -0.381295 0
M  V30 2696 O 273.64 1.71197 -0.55601 0
M  V30 2697 H 270.015 0.584247 -0.473455 0
M  V30 2698 H 271.986 1.68432 -2.4632 0
M  V30 2699 C 270.735 3.15314 -1.46534 0
M  V30 2700 H 270.058 3.25149 -2.32633 0
M  V30 2701 H 271.498 3.9453 -1.55312 0
M  V30 2702 C 269.957 3.3639 -0.185305 0
M  V30 2703 O 270.487 3.94699 0.746688 0
M  V30 2704 N 268.693 2.9046 -0.0901606 0
M  V30 2705 H 268.24 2.43193 -0.849416 0
M  V30 2706 H 268.198 3.04937 0.765553 0
M  V30 2707 N 271.97 1.30982 0.876444 0
M  V30 2708 C 273.247 1.10942 1.61094 0
M  V30 2709 C 273.627 -0.338223 2.08373 0
M  V30 2710 O 272.975 -1.33122 1.85717 0
M  V30 2711 C 273.185 2.11789 2.77392 0
M  V30 2712 C 274.533 2.43965 3.47514 0
M  V30 2713 O 275.557 2.10166 2.87591 0
M  V30 2714 O 274.416 3.01817 4.55597 0
M  V30 2715 H 271.51 0.42667 0.708436 0
M  V30 2716 H 274.056 1.42438 0.922474 0
M  V30 2717 H 272.828 3.09194 2.39823 0
M  V30 2718 H 272.451 1.81161 3.5393 0
M  V30 2719 N 273.449 -1.08991 1.13837 0
M  V30 2720 C 274.379 -2.17771 0.842507 0
M  V30 2721 C 275.36 -1.6892 -0.20001 0
M  V30 2722 O 276.545 -1.94113 -0.0579731 0
M  V30 2723 C 273.675 -3.4589 0.312644 0
M  V30 2724 C 272.629 -4.08099 1.28992 0
M  V30 2725 C 271.955 -5.31098 0.619623 0
M  V30 2726 C 273.255 -4.50077 2.65005 0
M  V30 2727 H 274.949 -2.42777 1.75213 0
M  V30 2728 H 272.495 -1.16682 0.843875 0
M  V30 2729 H 274.448 -4.21297 0.0933043 0
M  V30 2730 H 273.172 -3.20419 -0.632382 0
M  V30 2731 H 271.831 -3.34717 1.49533 0
M  V30 2732 H 271.479 -5.0191 -0.33102 0
M  V30 2733 H 271.179 -5.73674 1.27167 0
M  V30 2734 H 272.703 -6.09224 0.409669 0
M  V30 2735 H 274.117 -5.16688 2.48407 0
M  V30 2736 H 272.514 -5.03553 3.26427 0
M  V30 2737 H 273.584 -3.62257 3.22332 0
M  V30 2738 N 274.927 -0.932562 -1.27047 0
M  V30 2739 C 275.874 -0.434072 -2.26681 0
M  V30 2740 C 276.844 0.501639 -1.58344 0
M  V30 2741 O 278.029 0.419734 -1.86126 0
M  V30 2742 C 275.169 0.30261 -3.43771 0
M  V30 2743 C 274.282 -0.667774 -4.26808 0
M  V30 2744 C 273.417 0.0892393 -5.31125 0
M  V30 2745 C 272.456 -0.873532 -6.05835 0
M  V30 2746 N 271.593 -0.148832 -7.01942 0
M  V30 2747 H 276.433 -1.28868 -2.68695 0
M  V30 2748 H 273.97 -0.646713 -1.32121 0
M  V30 2749 H 275.928 0.746092 -4.10474 0
M  V30 2750 H 274.558 1.12142 -3.02695 0
M  V30 2751 H 273.61 -1.22978 -3.59973 0
M  V30 2752 H 274.922 -1.40337 -4.78651 0
M  V30 2753 H 274.076 0.592409 -6.03801 0
M  V30 2754 H 272.815 0.85777 -4.80097 0
M  V30 2755 H 271.82 -1.38791 -5.31994 0
M  V30 2756 H 273.045 -1.64193 -6.58952 0
M  V30 2757 H 270.991 0.601365 -6.53238 0
M  V30 2758 H 270.908 -0.82391 -7.51497 0
M  V30 2759 H 272.176 0.333527 -7.78786 0
M  V30 2760 N 276.405 1.4127 -0.698611 0
M  V30 2761 C 277.355 2.27997 -0.0119836 0
M  V30 2762 C 278.339 1.42363 0.749765 0
M  V30 2763 O 279.531 1.65607 0.624758 0
M  V30 2764 C 276.66 3.30702 0.921458 0
M  V30 2765 C 275.746 4.23814 0.155796 0
M  V30 2766 N 276.137 4.98572 -0.852015 0
M  V30 2767 C 274.435 4.44284 0.390836 0
M  V30 2768 C 275.136 5.66744 -1.3106 0
M  V30 2769 N 274.112 5.39867 -0.635944 0
M  V30 2770 H 277.914 2.83232 -0.784649 0
M  V30 2771 H 275.428 1.53518 -0.529711 0
M  V30 2772 H 277.425 3.91661 1.42854 0
M  V30 2773 H 276.085 2.77028 1.69369 0
M  V30 2774 H 277.096 5.03024 -1.23235 0
M  V30 2775 H 273.773 4.01614 1.14071 0
M  V30 2776 H 275.163 6.36672 -2.14707 0
M  V30 2777 N 277.883 0.443576 1.51229 0
M  V30 2778 C 278.813 -0.355142 2.30783 0
M  V30 2779 C 279.794 -1.0154 1.36468 0
M  V30 2780 O 280.979 -1.01785 1.65389 0
M  V30 2781 C 278.109 -1.45312 3.15439 0
M  V30 2782 C 277.063 -0.916002 4.18083 0
M  V30 2783 C 276.389 -2.1102 4.91299 0
M  V30 2784 C 277.689 0.0538602 5.22272 0
M  V30 2785 H 279.383 0.308767 2.97804 0
M  V30 2786 H 276.929 0.149937 1.43217 0
M  V30 2787 H 278.882 -2.01914 3.69876 0
M  V30 2788 H 277.606 -2.14541 2.46252 0
M  V30 2789 H 276.265 -0.372145 3.64706 0
M  V30 2790 H 275.913 -2.78882 4.18609 0
M  V30 2791 H 275.613 -1.75717 5.60712 0
M  V30 2792 H 277.137 -2.68164 5.48562 0
M  V30 2793 H 278.551 -0.422069 5.71744 0
M  V30 2794 H 276.948 0.319776 5.99247 0
M  V30 2795 H 278.018 0.98858 4.74716 0
M  V30 2796 N 279.361 -1.56624 0.175154 0
M  V30 2797 C 280.309 -2.19468 -0.770495 0
M  V30 2798 C 281.303 -1.15985 -1.23466 0
M  V30 2799 O 282.509 -1.34176 -1.19987 0
M  V30 2800 H 278.884 -0.703095 -0.266761 0
M  V30 2801 H 280.855 -2.97613 -0.216542 0
M  V30 2802 C 279.604 -2.85264 -1.98796 0
M  V30 2803 H 278.927 -3.64623 -1.63983 0
M  V30 2804 H 280.367 -3.327 -2.62843 0
M  V30 2805 C 278.826 -1.85239 -2.81404 0
M  V30 2806 O 279.356 -1.34024 -3.78682 0
M  V30 2807 N 277.562 -1.53911 -2.46495 0
M  V30 2808 H 277.109 -1.95751 -1.67449 0
M  V30 2809 H 277.067 -0.872382 -3.02054 0
M  V30 2810 N 280.839 0.0985539 -1.57292 0
M  V30 2811 C 282.088 0.801358 -1.85098 0
M  V30 2812 C 282.401 1.80066 -0.763902 0
M  V30 2813 O 283.607 2.55112 -0.928981 0
M  V30 2814 C 282.063 1.47599 -3.28242 0
M  V30 2815 C 281.671 0.516624 -4.45011 0
M  V30 2816 C 283.415 2.16272 -3.65276 0
M  V30 2817 C 281.322 1.19564 -5.79188 0
M  V30 2818 H 280.252 0.303022 -0.69043 0
M  V30 2819 H 282.903 0.0542623 -1.8342 0
M  V30 2820 H 281.285 2.27042 -3.2445 0
M  V30 2821 H 282.459 -0.246065 -4.60143 0
M  V30 2822 H 280.774 -0.064227 -4.1635 0
M  V30 2823 H 283.371 2.67802 -4.62803 0
M  V30 2824 H 283.714 2.95009 -2.93727 0
M  V30 2825 H 284.247 1.43693 -3.70941 0
M  V30 2826 H 280.986 0.449157 -6.53959 0
M  V30 2827 H 280.506 1.92984 -5.67906 0
M  V30 2828 H 282.185 1.7231 -6.23633 0
M  V30 2829 N 282.317 1.53212 0.369288 0
M  V30 2830 C 283.25 1.74166 1.4745 0
M  V30 2831 C 284.228 0.589923 1.51521 0
M  V30 2832 O 285.412 0.822078 1.69629 0
M  V30 2833 C 282.539 1.81711 2.8583 0
M  V30 2834 C 281.585 3.03649 2.99499 0
M  V30 2835 S 282.418 4.63242 2.6864 0
M  V30 2836 C 283.574 4.7363 4.09177 0
M  V30 2837 H 283.807 2.67636 1.29454 0
M  V30 2838 H 281.34 1.43754 0.563396 0
M  V30 2839 H 283.298 1.86743 3.65564 0
M  V30 2840 H 281.959 0.89299 3.01139 0
M  V30 2841 H 281.152 3.05526 4.00836 0
M  V30 2842 H 280.754 2.9671 2.27683 0
M  V30 2843 H 283.046 4.53456 5.03372 0
M  V30 2844 H 283.989 5.75682 4.12306 0
M  V30 2845 H 284.397 4.02295 3.96004 0
M  V30 2846 N 283.795 -0.628877 1.44509 0
M  V30 2847 C 285.044 -1.38437 1.4669 0
M  V30 2848 C 285.357 -1.95322 0.104272 0
M  V30 2849 O 286.563 -2.715 0.00362163 0
M  V30 2850 C 285.019 -2.50659 2.5826 0
M  V30 2851 C 284.627 -2.00277 4.0074 0
M  V30 2852 C 286.371 -3.27844 2.69664 0
M  V30 2853 C 284.278 -3.09854 5.0373 0
M  V30 2854 H 283.208 -0.520245 0.545766 0
M  V30 2855 H 285.859 -0.676313 1.70582 0
M  V30 2856 H 284.241 -3.2405 2.27612 0
M  V30 2857 H 285.415 -1.33736 4.40966 0
M  V30 2858 H 283.73 -1.35901 3.93599 0
M  V30 2859 H 286.327 -4.09534 3.43781 0
M  V30 2860 H 286.67 -3.77471 1.75559 0
M  V30 2861 H 287.203 -2.61543 2.99733 0
M  V30 2862 H 283.942 -2.65168 5.99472 0
M  V30 2863 H 283.462 -3.7503 4.68095 0
M  V30 2864 H 285.141 -3.74592 5.27532 0
M  V30 2865 N 285.273 -1.31445 -0.869486 0
M  V30 2866 C 286.501 -1.24122 -1.65534 0
M  V30 2867 C 286.916 0.193387 -1.87807 0
M  V30 2868 O 286.273 1.12557 -1.43656 0
M  V30 2869 C 286.324 -1.98229 -3.02304 0
M  V30 2870 O 286.045 -3.3609 -2.81026 0
M  V30 2871 C 287.546 -1.97751 -3.96749 0
M  V30 2872 H 284.766 -0.428868 -0.516055 0
M  V30 2873 H 287.31 -1.73328 -1.08525 0
M  V30 2874 H 285.465 -1.52782 -3.56001 0
M  V30 2875 H 285.879 -3.7383 -3.67902 0
M  V30 2876 H 287.353 -2.54114 -4.90031 0
M  V30 2877 H 287.83 -0.960137 -4.28577 0
M  V30 2878 H 288.436 -2.43079 -3.48988 0
M  V30 2879 N 286.751 1.08385 -1.14413 0
M  V30 2880 C 287.714 2.13486 -0.834048 0
M  V30 2881 C 288.714 1.59988 0.161418 0
M  V30 2882 O 289.904 1.74071 -0.0669575 0
M  V30 2883 C 287.036 3.4003 -0.243354 0
M  V30 2884 H 288.229 2.42425 -1.7655 0
M  V30 2885 H 285.782 1.24101 -0.950189 0
M  V30 2886 H 286.517 3.16726 0.696807 0
M  V30 2887 H 286.302 3.80157 -0.960367 0
M  V30 2888 H 287.792 4.17577 -0.0436242 0
M  V30 2889 N 288.23 0.939286 1.26551 0
M  V30 2890 C 289.478 0.58469 1.93457 0
M  V30 2891 C 289.799 -0.878774 1.74076 0
M  V30 2892 O 289.069 -1.62421 1.09528 0
M  V30 2893 H 287.649 0.21325 0.715914 0
M  V30 2894 H 290.311 1.1942 1.54029 0
M  V30 2895 H 289.407 0.800849 3.0165 0
M  V30 2896 N 289.708 -1.40897 0.706093 0
M  V30 2897 C 291.119 -1.84023 0.315052 0
M  V30 2898 C 291.47 -1.5906 -1.14866 0
M  V30 2899 O 290.595 -1.06651 -1.88293 0
M  V30 2900 C 291.19 -3.34055 0.565038 0
M  V30 2901 C 289.749 -3.7571 0.227806 0
M  V30 2902 C 288.896 -2.64204 0.842122 0
M  V30 2903 H 291.847 -1.303 0.905963 0
M  V30 2904 H 291.868 -3.80107 -0.172843 0
M  V30 2905 H 291.38 -3.52192 1.63042 0
M  V30 2906 H 289.481 -3.63172 -0.832895 0
M  V30 2907 H 289.594 -4.74103 0.690174 0
M  V30 2908 H 287.958 -2.53255 0.270893 0
M  V30 2909 H 288.741 -2.85155 1.91158 0
M  V30 2910 N 291.186 -0.45159 -1.50991 0
M  V30 2911 C 292.414 0.108334 -2.06616 0
M  V30 2912 C 292.829 1.35224 -1.31757 0
M  V30 2913 O 292.186 1.78475 -0.381174 0
M  V30 2914 C 292.237 0.41619 -3.59096 0
M  V30 2915 O 291.958 -0.778361 -4.3113 0
M  V30 2916 C 293.459 1.02523 -4.31282 0
M  V30 2917 H 290.679 0.00159995 -0.670998 0
M  V30 2918 H 293.223 -0.634771 -1.94399 0
M  V30 2919 H 291.378 1.10921 -3.71181 0
M  V30 2920 H 291.792 -0.511181 -5.22003 0
M  V30 2921 H 293.266 1.19053 -5.39009 0
M  V30 2922 H 293.743 2.01013 -3.905 0
M  V30 2923 H 294.349 0.371173 -4.23677 0
M  V30 2924 N 292.664 1.56529 -0.183458 0
M  V30 2925 C 294.08 1.58664 0.172554 0
M  V30 2926 C 294.28 1.19925 1.61926 0
M  V30 2927 O 293.336 0.916534 2.35278 0
M  V30 2928 C 294.649 3.00463 -0.119262 0
M  V30 2929 C 296.197 3.12945 -0.0584396 0
M  V30 2930 C 296.672 4.56857 -0.323408 0
M  V30 2931 N 298.163 4.62403 -0.271612 0
M  V30 2932 C 298.898 5.71626 -0.450639 0
M  V30 2933 N 298.394 6.89362 -0.689384 0
M  V30 2934 N 300.187 5.60775 -0.385701 0
M  V30 2935 H 292.338 1.79994 -1.12765 0
M  V30 2936 H 294.601 0.834808 -0.449222 0
M  V30 2937 H 294.307 3.33326 -1.12192 0
M  V30 2938 H 294.181 3.72659 0.583544 0
M  V30 2939 H 296.568 2.79902 0.934805 0
M  V30 2940 H 296.649 2.4316 -0.794144 0
M  V30 2941 H 296.293 4.9061 -1.31392 0
M  V30 2942 H 296.223 5.24816 0.43305 0
M  V30 2943 H 298.714 3.77785 -0.0932256 0
M  V30 2944 H 299.027 7.68489 -0.815113 0
M  V30 2945 H 297.372 6.91196 -0.726142 0
M  V30 2946 H 300.563 4.67674 -0.199687 0
M  V30 2947 H 300.736 6.4584 -0.528646 0
M  V30 2948 N 294.142 -0.090211 1.57342 0
M  V30 2949 C 295.052 -1.12735 2.05738 0
M  V30 2950 C 296.068 -1.43557 0.983231 0
M  V30 2951 O 297.244 -1.54101 1.29672 0
M  V30 2952 C 294.309 -2.42659 2.47624 0
M  V30 2953 C 293.37 -2.18975 3.69254 0
M  V30 2954 C 292.603 -3.42704 4.09133 0
M  V30 2955 O 292.826 -4.51127 3.49057 0
M  V30 2956 O 291.76 -3.32003 5.02053 0
M  V30 2957 H 295.586 -0.746279 2.94388 0
M  V30 2958 H 293.171 -0.303064 1.46294 0
M  V30 2959 H 295.053 -3.19155 2.7517 0
M  V30 2960 H 293.728 -2.80182 1.62109 0
M  V30 2961 H 292.635 -1.40244 3.46818 0
M  V30 2962 H 293.968 -1.86342 4.55563 0
M  V30 2963 N 295.62 -1.53406 -0.361157 0
M  V30 2964 C 297.031 -1.61442 -0.937728 0
M  V30 2965 C 297.382 -0.48461 -1.90121 0
M  V30 2966 O 296.507 0.388312 -2.12888 0
M  V30 2967 C 297.102 -2.92624 -1.70753 0
M  V30 2968 C 295.661 -3.02981 -2.23337 0
M  V30 2969 C 294.808 -2.5677 -1.04712 0
M  V30 2970 H 297.759 -1.58083 -0.139816 0
M  V30 2971 H 297.78 -2.80675 -2.56908 0
M  V30 2972 H 297.292 -3.74834 -1.00604 0
M  V30 2973 H 295.393 -2.25368 -2.96715 0
M  V30 2974 H 295.506 -4.0814 -2.50916 0
M  V30 2975 H 293.87 -2.11752 -1.41539 0
M  V30 2976 H 294.653 -3.41402 -0.360539 0
M  V30 2977 N 297.098 0.621204 -1.44841 0
M  V30 2978 C 298.028 1.74366 -1.55303 0
M  V30 2979 C 299.009 1.65199 -0.405385 0
M  V30 2980 O 300.194 1.83807 -0.626787 0
M  V30 2981 C 297.324 3.12931 -1.50637 0
M  V30 2982 C 296.278 3.36896 -2.63979 0
M  V30 2983 C 295.604 4.75594 -2.44366 0
M  V30 2984 C 296.904 3.28483 -4.06074 0
M  V30 2985 H 298.598 1.65867 -2.49256 0
M  V30 2986 H 296.144 0.796558 -1.19962 0
M  V30 2987 H 298.097 3.9124 -1.56555 0
M  V30 2988 H 296.821 3.22237 -0.532057 0
M  V30 2989 H 295.48 2.60972 -2.57467 0
M  V30 2990 H 295.128 4.81616 -1.45105 0
M  V30 2991 H 294.828 4.92586 -3.20364 0
M  V30 2992 H 296.352 5.5612 -2.52117 0
M  V30 2993 H 297.766 3.96684 -4.13902 0
M  V30 2994 H 296.163 3.57008 -4.82354 0
M  V30 2995 H 297.233 2.26133 -4.28943 0
M  V30 2996 N 298.576 1.31904 0.862503 0
M  V30 2997 C 299.853 1.12644 1.59908 0
M  V30 2998 C 300.233 -0.316104 2.0872 0
M  V30 2999 O 299.581 -1.31145 1.87118 0
M  V30 3000 C 299.791 2.1472 2.7513 0
M  V30 3001 C 301.139 2.47637 3.44907 0
M  V30 3002 O 302.163 2.13205 2.85346 0
M  V30 3003 O 301.022 3.06632 4.52371 0
M  V30 3004 H 298.116 0.43416 0.703871 0
M  V30 3005 H 300.662 1.43408 0.907314 0
M  V30 3006 H 299.434 3.1172 2.3653 0
M  V30 3007 H 299.057 1.84905 3.51989 0
M  V30 3008 N 300.054 -1.07777 1.14986 0
M  V30 3009 C 301.465 -1.61766 0.932127 0
M  V30 3010 C 301.816 -1.88974 -0.527581 0
M  V30 3011 O 300.941 -1.65198 -1.39781 0
M  V30 3012 C 301.536 -2.93891 1.68563 0
M  V30 3013 C 300.095 -3.44639 1.5133 0
M  V30 3014 C 299.242 -2.18767 1.704 0
M  V30 3015 H 302.193 -0.909201 1.30074 0
M  V30 3016 H 302.214 -3.62623 1.15259 0
M  V30 3017 H 301.726 -2.74057 2.74799 0
M  V30 3018 H 299.827 -3.69564 0.474702 0
M  V30 3019 H 299.94 -4.20966 2.28746 0
M  V30 3020 H 298.304 -2.28253 1.13016 0
M  V30 3021 H 299.087 -2.01433 2.77992 0
M  V30 3022 N 301.532 -0.945985 -1.26051 0
M  V30 3023 C 302.778 -0.597002 -1.93814 0
M  V30 3024 C 303.111 0.862484 -1.73997 0
M  V30 3025 O 302.386 1.61769 -1.07986 0
M  V30 3026 C 302.669 -0.945937 -3.47454 0
M  V30 3027 C 302.522 -2.46052 -3.76535 0
M  V30 3028 C 303.841 -0.464785 -4.37639 0
M  V30 3029 H 300.96 -0.218366 -0.703907 0
M  V30 3030 H 303.602 -1.18107 -1.48831 0
M  V30 3031 H 301.752 -0.448902 -3.85898 0
M  V30 3032 H 303.424 -3.03065 -3.47778 0
M  V30 3033 H 301.667 -2.90194 -3.22444 0
M  V30 3034 H 302.338 -2.65517 -4.83947 0
M  V30 3035 H 304.814 -0.891016 -4.06448 0
M  V30 3036 H 303.69 -0.737712 -5.4392 0
M  V30 3037 H 303.951 0.635274 -4.37512 0
M  V30 3038 N 303.011 1.40521 -0.713556 0
M  V30 3039 C 304.427 1.54839 -0.386907 0
M  V30 3040 C 304.627 1.68532 1.1045 0
M  V30 3041 O 303.683 1.67377 1.89053 0
M  V30 3042 C 304.996 2.77792 -1.15118 0
M  V30 3043 C 306.544 2.91607 -1.13729 0
M  V30 3044 C 307.019 4.1747 -1.88368 0
M  V30 3045 N 308.51 4.24466 -1.85427 0
M  V30 3046 C 309.245 5.20755 -2.40004 0
M  V30 3047 N 308.741 6.22965 -3.03129 0
M  V30 3048 N 310.534 5.1282 -2.30158 0
M  V30 3049 H 302.685 1.29879 -1.68063 0
M  V30 3050 H 304.948 0.627896 -0.710247 0
M  V30 3051 H 304.654 2.73944 -2.20561 0
M  V30 3052 H 304.528 3.6984 -0.741477 0
M  V30 3053 H 306.915 2.94959 -0.0910608 0
M  V30 3054 H 306.996 2.00682 -1.5862 0
M  V30 3055 H 306.64 4.1488 -2.9298 0
M  V30 3056 H 306.57 5.074 -1.40898 0
M  V30 3057 H 309.061 3.51241 -1.3942 0
M  V30 3058 H 309.374 6.92859 -3.42295 0
M  V30 3059 H 307.719 6.23415 -3.07212 0
M  V30 3060 H 310.91 4.31899 -1.80501 0
M  V30 3061 H 311.083 5.87689 -2.72993 0
M  V30 3062 N 304.489 0.459591 1.5075 0
M  V30 3063 C 305.719 -0.0972338 2.06371 0
M  V30 3064 C 306.127 -1.35074 1.32483 0
M  V30 3065 O 305.47 -1.79637 0.384226 0
M  V30 3066 C 305.532 -0.462759 3.56509 0
M  V30 3067 C 305.196 0.687084 4.51805 0
M  V30 3068 C 306.193 1.56578 4.95761 0
M  V30 3069 C 303.878 0.874144 4.94635 0
M  V30 3070 C 305.872 2.61604 5.81242 0
M  V30 3071 C 303.559 1.92765 5.79901 0
M  V30 3072 C 304.557 2.79697 6.23104 0
M  V30 3073 O 304.245 3.83235 7.06673 0
M  V30 3074 H 303.977 -0.00140687 0.675999 0
M  V30 3075 H 306.531 0.644011 1.95043 0
M  V30 3076 H 304.761 -1.25703 3.65699 0
M  V30 3077 H 306.45 -0.953323 3.94546 0
M  V30 3078 H 307.216 1.4329 4.6335 0
M  V30 3079 H 303.095 0.207006 4.60535 0
M  V30 3080 H 306.639 3.29489 6.14884 0
M  V30 3081 H 302.536 2.06064 6.11725 0
M  V30 3082 H 303.304 3.80084 7.24899 0
M  V30 3083 N 305.967 -1.56429 0.191757 0
M  V30 3084 C 307.216 -1.9666 -0.448088 0
M  V30 3085 C 307.529 -1.08136 -1.62991 0
M  V30 3086 O 308.735 -1.38135 -2.33733 0
M  V30 3087 C 307.191 -3.49753 -0.848585 0
M  V30 3088 C 306.799 -4.46935 0.308764 0
M  V30 3089 C 308.543 -3.9876 -1.4557 0
M  V30 3090 C 306.45 -5.91293 -0.112506 0
M  V30 3091 H 305.38 -0.734312 -0.171179 0
M  V30 3092 H 308.031 -1.81301 0.283242 0
M  V30 3093 H 306.413 -3.60604 -1.63649 0
M  V30 3094 H 307.587 -4.47813 1.08627 0
M  V30 3095 H 305.902 -4.08102 0.827158 0
M  V30 3096 H 308.499 -5.04086 -1.78328 0
M  V30 3097 H 308.842 -3.42875 -2.36099 0
M  V30 3098 H 309.375 -3.9101 -0.731836 0
M  V30 3099 H 306.114 -6.51097 0.758514 0
M  V30 3100 H 305.634 -5.93676 -0.854941 0
M  V30 3101 H 307.313 -6.44663 -0.549448 0
M  V30 3102 N 307.445 0.0818655 -1.57387 0
M  V30 3103 C 308.67 0.799946 -1.91352 0
M  V30 3104 C 309.095 1.70833 -0.787258 0
M  V30 3105 O 308.453 1.79419 0.26048 0
M  V30 3106 C 308.501 1.57812 -3.24234 0
M  V30 3107 O 307.605 2.68806 -3.12757 0
M  V30 3108 H 306.946 0.21891 -0.626877 0
M  V30 3109 H 309.476 0.0531256 -2.04531 0
M  V30 3110 H 309.486 1.95952 -3.57864 0
M  V30 3111 H 308.161 0.911548 -4.05788 0
M  V30 3112 H 306.738 2.33597 -2.90666 0
M  V30 3113 N 308.923 1.53595 0.353017 0
M  V30 3114 C 309.871 1.81605 1.45335 0
M  V30 3115 C 310.865 0.685923 1.54892 0
M  V30 3116 O 312.071 0.869095 1.57628 0
M  V30 3117 H 308.446 0.575204 0.484401 0
M  V30 3118 H 310.417 2.73679 1.18921 0
M  V30 3119 C 309.166 2.03406 2.81995 0
M  V30 3120 H 308.489 2.89814 2.75405 0
M  V30 3121 H 309.929 2.26975 3.58132 0
M  V30 3122 C 308.388 0.816794 3.26849 0
M  V30 3123 O 308.918 0.0115856 4.01698 0
M  V30 3124 N 307.124 0.636682 2.8354 0
M  V30 3125 H 306.671 1.2931 2.22793 0
M  V30 3126 H 306.629 -0.176336 3.13905 0
M  V30 3127 N 310.401 -0.613514 1.45168 0
M  V30 3128 C 311.351 -1.71871 1.49815 0
M  V30 3129 C 312.335 -1.56774 0.362021 0
M  V30 3130 O 313.527 -1.66212 0.608493 0
M  V30 3131 C 310.656 -3.1061 1.46207 0
M  V30 3132 C 309.742 -3.31114 2.64999 0
M  V30 3133 N 310.133 -3.21904 3.90143 0
M  V30 3134 C 308.431 -3.61966 2.6057 0
M  V30 3135 C 309.132 -3.43577 4.69393 0
M  V30 3136 N 308.108 -3.67287 4.00751 0
M  V30 3137 H 311.91 -1.63235 2.444 0
M  V30 3138 H 309.424 -0.816577 1.40377 0
M  V30 3139 H 311.421 -3.8989 1.4762 0
M  V30 3140 H 310.081 -3.20399 0.52673 0
M  V30 3141 H 311.092 -3.00436 4.21852 0
M  V30 3142 H 307.769 -3.78629 1.75916 0
M  V30 3143 H 309.159 -3.41901 5.78406 0
M  V30 3144 N 311.879 -1.3236 -0.855495 0
M  V30 3145 C 313.104 -1.2601 -1.64731 0
M  V30 3146 C 313.529 0.169068 -1.87339 0
M  V30 3147 O 312.887 1.12016 -1.42556 0
M  V30 3148 C 312.935 -2.02417 -2.98429 0
M  V30 3149 O 312.039 -1.3714 -3.8893 0
M  V30 3150 H 311.38 -0.434325 -0.502253 0
M  V30 3151 H 313.91 -1.74661 -1.06558 0
M  V30 3152 H 313.92 -2.12559 -3.48257 0
M  V30 3153 H 312.595 -3.06343 -2.81295 0
M  V30 3154 H 311.172 -1.3554 -3.47395 0
M  V30 3155 N 313.357 1.07166 -1.15556 0
M  V30 3156 C 314.582 1.84053 -0.955988 0
M  V30 3157 C 315.007 1.81586 0.490739 0
M  V30 3158 O 314.365 1.21018 1.34997 0
M  V30 3159 C 314.413 3.28957 -1.47714 0
M  V30 3160 O 313.517 4.06795 -0.677593 0
M  V30 3161 H 312.858 0.569842 -0.340847 0
M  V30 3162 H 315.388 1.35178 -1.53584 0
M  V30 3163 H 315.398 3.79788 -1.4908 0
M  V30 3164 H 314.073 3.30068 -2.53037 0
M  V30 3165 H 312.65 3.6561 -0.733721 0
M  V30 3166 N 314.835 0.952656 1.25548 0
M  V30 3167 C 316.083 0.605176 1.92826 0
M  V30 3168 C 316.404 -0.860261 1.74999 0
M  V30 3169 O 315.674 -1.6125 1.11244 0
M  V30 3170 H 314.254 0.220832 0.713612 0
M  V30 3171 H 316.916 1.21047 1.52754 0
M  V30 3172 H 316.012 0.832798 3.00784 0
M  V30 3173 N 316.313 -1.40141 0.720998 0
M  V30 3174 C 317.26 -2.30688 0.071919 0
M  V30 3175 C 318.23 -1.48476 -0.744584 0
M  V30 3176 O 319.415 -1.77201 -0.707423 0
M  V30 3177 C 316.555 -3.34724 -0.839855 0
M  V30 3178 C 315.668 -4.31998 -0.0122438 0
M  V30 3179 C 314.803 -5.23102 -0.923995 0
M  V30 3180 C 313.842 -6.12033 -0.0907969 0
M  V30 3181 N 312.979 -6.95537 -0.957718 0
M  V30 3182 H 317.819 -2.85628 0.849755 0
M  V30 3183 H 315.356 -1.40653 0.430726 0
M  V30 3184 H 317.314 -3.93618 -1.38279 0
M  V30 3185 H 315.944 -2.81274 -1.58381 0
M  V30 3186 H 314.996 -3.74841 0.64794 0
M  V30 3187 H 316.308 -4.94772 0.632595 0
M  V30 3188 H 315.462 -5.86953 -1.53527 0
M  V30 3189 H 314.201 -4.60615 -1.60264 0
M  V30 3190 H 313.206 -5.47207 0.533377 0
M  V30 3191 H 314.431 -6.76581 0.584428 0
M  V30 3192 H 312.377 -6.35633 -1.62192 0
M  V30 3193 H 312.294 -7.55099 -0.36904 0
M  V30 3194 H 313.562 -7.63832 -1.555 0
M  V30 3195 N 317.792 -0.46758 -1.50504 0
M  V30 3196 C 318.725 0.374324 -2.25109 0
M  V30 3197 C 319.703 0.99921 -1.28275 0
M  V30 3198 O 320.887 1.03583 -1.57489 0
M  V30 3199 C 318.014 1.52419 -3.02467 0
M  V30 3200 C 317.06 1.01702 -4.14197 0
M  V30 3201 S 317.893 -0.0654477 -5.3546 0
M  V30 3202 C 319.049 1.08837 -6.16365 0
M  V30 3203 H 319.282 -0.258983 -2.9617 0
M  V30 3204 H 316.815 -0.252421 -1.52323 0
M  V30 3205 H 318.773 2.18322 -3.47628 0
M  V30 3206 H 317.434 2.129 -2.30938 0
M  V30 3207 H 316.627 1.87776 -4.67714 0
M  V30 3208 H 316.229 0.435757 -3.71453 0
M  V30 3209 H 318.521 2.00071 -6.47285 0
M  V30 3210 H 319.464 0.592538 -7.05616 0
M  V30 3211 H 319.872 1.34061 -5.4835 0
M  V30 3212 N 319.27 1.56325 -0.20005 0
M  V30 3213 C 320.518 1.97329 0.436547 0
M  V30 3214 C 320.839 1.08826 1.61808 0
M  V30 3215 O 320.109 0.160604 1.95241 0
M  V30 3216 H 318.689 0.728714 0.164272 0
M  V30 3217 H 321.351 1.92761 -0.287937 0
M  V30 3218 H 320.447 3.02264 0.777353 0
M  V30 3219 N 320.748 -0.0735177 1.57428 0
M  V30 3220 C 321.995 -0.772999 1.87166 0
M  V30 3221 C 322.323 -1.77665 0.791551 0
M  V30 3222 O 321.578 -1.94541 -0.212636 0
M  V30 3223 C 321.877 -1.51799 3.23561 0
M  V30 3224 C 321.543 -0.654484 4.46125 0
M  V30 3225 C 320.205 -0.416511 4.79394 0
M  V30 3226 C 322.557 -0.0555862 5.2117 0
M  V30 3227 C 319.885 0.429869 5.85123 0
M  V30 3228 C 322.237 0.778239 6.27795 0
M  V30 3229 C 320.901 1.0261 6.59566 0
M  V30 3230 H 320.171 -0.282861 0.684888 0
M  V30 3231 H 322.818 -0.0338272 1.9147 0
M  V30 3232 H 321.123 -2.32932 3.1504 0
M  V30 3233 H 322.82 -2.06397 3.43804 0
M  V30 3234 H 319.41 -0.850091 4.20085 0
M  V30 3235 H 323.594 -0.226558 4.95783 0
M  V30 3236 H 318.85 0.630665 6.08139 0
M  V30 3237 H 323.024 1.24906 6.85107 0
M  V30 3238 H 320.651 1.68371 7.4132 0
M  V30 3239 N 322.226 -1.5378 -0.344866 0
M  V30 3240 C 323.189 -1.80981 -1.40637 0
M  V30 3241 C 324.189 -0.680816 -1.45676 0
M  V30 3242 O 325.379 -0.949095 -1.46075 0
M  V30 3243 C 322.511 -1.95063 -2.79577 0
M  V30 3244 H 323.704 -2.75803 -1.17783 0
M  V30 3245 H 321.257 -1.45173 -0.579181 0
M  V30 3246 H 321.992 -1.02379 -3.07716 0
M  V30 3247 H 321.777 -2.77198 -2.77315 0
M  V30 3248 H 323.267 -2.17629 -3.56409 0
M  V30 3249 N 323.704 0.605807 -1.45491 0
M  V30 3250 C 324.953 1.36086 -1.48874 0
M  V30 3251 C 325.266 1.95131 -0.135333 0
M  V30 3252 O 326.472 2.7146 -0.0468144 0
M  V30 3253 C 324.928 2.46518 -2.62215 0
M  V30 3254 C 324.536 1.93877 -4.03876 0
M  V30 3255 C 326.28 3.23512 -2.74846 0
M  V30 3256 C 324.187 3.01801 -5.08596 0
M  V30 3257 H 323.117 0.511497 -0.553974 0
M  V30 3258 H 325.768 0.649089 -1.71636 0
M  V30 3259 H 324.15 3.20388 -2.32739 0
M  V30 3260 H 325.324 1.26704 -4.43038 0
M  V30 3261 H 323.639 1.29622 -3.95711 0
M  V30 3262 H 326.236 4.04013 -3.50253 0
M  V30 3263 H 326.579 3.74631 -1.81542 0
M  V30 3264 H 327.112 2.56742 -3.03856 0
M  V30 3265 H 323.851 2.55597 -6.03614 0
M  V30 3266 H 323.371 3.67535 -4.74002 0
M  V30 3267 H 325.05 3.66152 -5.33424 0
M  V30 3268 N 325.182 1.32811 0.848464 0
M  V30 3269 C 326.145 1.22194 1.9391 0
M  V30 3270 C 327.145 0.143404 1.60159 0
M  V30 3271 O 328.335 0.394253 1.6968 0
M  V30 3272 C 325.467 0.88067 3.29328 0
M  V30 3273 H 326.66 2.19127 2.04752 0
M  V30 3274 H 324.213 1.16731 1.0394 0
M  V30 3275 H 324.948 -0.0865776 3.24184 0
M  V30 3276 H 324.733 1.66052 3.55203 0
M  V30 3277 H 326.223 0.830871 4.09251 0
M  V30 3278 N 326.66 -1.06551 1.16123 0
M  V30 3279 C 327.623 -2.12132 0.867906 0
M  V30 3280 C 328.623 -1.60224 -0.135944 0
M  V30 3281 O 329.813 -1.73943 0.0946422 0
M  V30 3282 C 326.945 -3.396 0.297419 0
M  V30 3283 H 328.138 -2.39586 1.80385 0
M  V30 3284 H 325.691 -1.22574 0.969812 0
M  V30 3285 H 326.426 -3.17794 -0.64633 0
M  V30 3286 H 326.211 -3.78581 1.02073 0
M  V30 3287 H 327.701 -4.17455 0.110052 0
M  V30 3288 N 328.138 -0.959301 -1.25041 0
M  V30 3289 C 329.101 -0.487677 -2.23952 0
M  V30 3290 C 330.101 0.41119 -1.55454 0
M  V30 3291 O 331.291 0.207825 -1.72956 0
M  V30 3292 C 328.423 0.294807 -3.39623 0
M  V30 3293 H 329.616 -1.36198 -2.67189 0
M  V30 3294 H 327.169 -0.743042 -1.37508 0
M  V30 3295 H 327.904 1.18658 -3.01813 0
M  V30 3296 H 327.689 -0.35012 -3.90534 0
M  V30 3297 H 329.179 0.614089 -4.1306 0
M  V30 3298 N 329.616 1.39756 -0.72842 0
M  V30 3299 C 330.579 2.29012 -0.0927297 0
M  V30 3300 C 331.579 1.45992 0.674025 0
M  V30 3301 O 332.769 1.66749 0.50402 0
M  V30 3302 C 329.901 3.29396 0.878137 0
M  V30 3303 H 331.094 2.86729 -0.879011 0
M  V30 3304 H 328.647 1.48293 -0.493847 0
M  V30 3305 H 329.382 2.76722 1.69101 0
M  V30 3306 H 329.167 3.907 0.331051 0
M  V30 3307 H 330.657 3.96199 1.3197 0
M  V30 3308 N 331.094 0.475555 1.50254 0
M  V30 3309 C 332.057 -0.305016 2.27161 0
M  V30 3310 C 333.057 -0.916519 1.32123 0
M  V30 3311 O 334.247 -0.785003 1.5551 0
M  V30 3312 C 331.379 -1.43496 3.09227 0
M  V30 3313 H 332.572 0.369511 2.97615 0
M  V30 3314 H 330.125 0.229747 1.54602 0
M  V30 3315 H 330.86 -2.14441 2.43281 0
M  V30 3316 H 330.645 -1.00223 3.79075 0
M  V30 3317 H 332.135 -1.98548 3.67381 0
M  V30 3318 N 332.573 -1.56217 0.208337 0
M  V30 3319 C 333.989 -1.58919 -0.14729 0
M  V30 3320 C 334.189 -1.22486 -1.59998 0
M  V30 3321 O 333.245 -0.953849 -2.3379 0
M  V30 3322 C 334.558 -3.00236 0.167048 0
M  V30 3323 C 336.106 -3.12813 0.108219 0
M  V30 3324 C 336.581 -4.56284 0.396049 0
M  V30 3325 N 338.072 -4.61912 0.345142 0
M  V30 3326 C 338.807 -5.70837 0.541523 0
M  V30 3327 N 338.303 -6.88178 0.798968 0
M  V30 3328 N 340.096 -5.60091 0.474867 0
M  V30 3329 H 332.247 -1.78177 1.15614 0
M  V30 3330 H 334.51 -0.827555 0.462446 0
M  V30 3331 H 334.216 -3.31499 1.1748 0
M  V30 3332 H 334.09 -3.7354 -0.524184 0
M  V30 3333 H 336.477 -2.81354 -0.890157 0
M  V30 3334 H 336.558 -2.41866 0.832729 0
M  V30 3335 H 336.202 -4.88458 1.3918 0
M  V30 3336 H 336.132 -5.25439 -0.349502 0
M  V30 3337 H 338.623 -3.77589 0.153316 0
M  V30 3338 H 338.936 -7.67095 0.93727 0
M  V30 3339 H 337.281 -6.89953 0.836013 0
M  V30 3340 H 340.472 -4.67297 0.274064 0
M  V30 3341 H 340.645 -6.44917 0.631326 0
M  V30 3342 N 334.051 0.0651679 -1.57465 0
M  V30 3343 C 335.467 0.420105 -1.53972 0
M  V30 3344 C 335.667 1.78782 -0.929474 0
M  V30 3345 O 334.723 2.46771 -0.534839 0
M  V30 3346 C 336.036 0.355084 -2.98596 0
M  V30 3347 C 337.584 0.434792 -3.09965 0
M  V30 3348 C 338.059 0.399609 -4.56253 0
M  V30 3349 N 339.55 0.459488 -4.60915 0
M  V30 3350 C 340.285 0.454584 -5.71595 0
M  V30 3351 N 339.781 0.404102 -6.9162 0
M  V30 3352 N 341.574 0.501635 -5.59857 0
M  V30 3353 H 333.725 -0.830328 -1.95498 0
M  V30 3354 H 335.988 -0.312244 -0.895102 0
M  V30 3355 H 335.694 -0.583357 -3.46828 0
M  V30 3356 H 335.568 1.16275 -3.58831 0
M  V30 3357 H 337.955 1.36366 -2.61703 0
M  V30 3358 H 338.036 -0.40157 -2.52628 0
M  V30 3359 H 337.68 -0.525436 -5.05175 0
M  V30 3360 H 337.61 1.25359 -5.11461 0
M  V30 3361 H 340.101 0.502482 -3.74544 0
M  V30 3362 H 340.414 0.404468 -7.71741 0
M  V30 3363 H 338.759 0.37069 -6.94011 0
M  V30 3364 H 341.95 0.538812 -4.64989 0
M  V30 3365 H 342.123 0.494345 -6.46112 0
M  V30 3366 N 335.529 1.53961 0.336706 0
M  V30 3367 C 336.777 1.71197 1.07405 0
M  V30 3368 C 337.098 0.481475 1.88962 0
M  V30 3369 O 336.368 -0.504585 1.8929 0
M  V30 3370 H 334.948 0.631185 0.399517 0
M  V30 3371 H 337.61 1.91232 0.376323 0
M  V30 3372 H 336.706 2.58587 1.74755 0
M  V30 3373 N 337.007 -0.598083 1.45811 0
M  V30 3374 C 337.97 -1.69018 1.54808 0
M  V30 3375 C 338.97 -1.55037 0.426652 0
M  V30 3376 O 340.16 -1.59932 0.690456 0
M  V30 3377 C 337.292 -3.0835 1.45371 0
M  V30 3378 H 338.485 -1.62403 2.52121 0
M  V30 3379 H 336.038 -0.814626 1.33392 0
M  V30 3380 H 336.773 -3.20534 0.492793 0
M  V30 3381 H 336.558 -3.19907 2.26721 0
M  V30 3382 H 338.048 -3.8788 1.54721 0
M  V30 3383 N 338.485 -1.33259 -0.841409 0
M  V30 3384 C 339.433 -1.23279 -1.97244 0
M  V30 3385 C 340.427 -0.134706 -1.68864 0
M  V30 3386 O 341.633 -0.298501 -1.77508 0
M  V30 3387 H 338.008 -0.382497 -0.647457 0
M  V30 3388 H 339.979 -2.18906 -2.02787 0
M  V30 3389 C 338.728 -0.986268 -3.33419 0
M  V30 3390 H 338.051 -1.82347 -3.55794 0
M  V30 3391 H 339.491 -0.956728 -4.13065 0
M  V30 3392 C 337.95 0.310842 -3.35463 0
M  V30 3393 O 338.48 1.31838 -3.79449 0
M  V30 3394 N 336.686 0.337485 -2.88634 0
M  V30 3395 H 336.233 -0.482967 -2.53032 0
M  V30 3396 H 336.191 1.20518 -2.90384 0
M  V30 3397 N 339.963 1.05934 -1.16686 0
M  V30 3398 C 341.209 1.79065 -0.95203 0
M  V30 3399 C 341.542 1.87147 0.518629 0
M  V30 3400 O 340.817 1.36574 1.38484 0
M  V30 3401 C 341.1 3.23359 -1.58464 0
M  V30 3402 C 340.953 3.23336 -3.12689 0
M  V30 3403 C 342.272 4.21004 -1.28232 0
M  V30 3404 H 339.391 0.65005 -0.34728 0
M  V30 3405 H 342.033 1.23868 -1.44072 0
M  V30 3406 H 340.183 3.70493 -1.16908 0
M  V30 3407 H 341.855 2.84336 -3.6325 0
M  V30 3408 H 340.098 2.61886 -3.4583 0
M  V30 3409 H 340.769 4.25144 -3.52075 0
M  V30 3410 H 343.245 3.8233 -1.64203 0
M  V30 3411 H 342.121 5.20225 -1.75092 0
M  V30 3412 H 342.382 4.41639 -0.201791 0
M  V30 3413 N 341.441 0.965919 1.2453 0
M  V30 3414 C 342.669 0.644385 1.96609 0
M  V30 3415 C 343.084 -0.785823 1.71669 0
M  V30 3416 O 342.441 -1.52703 0.999399 0
M  V30 3417 C 342.492 0.907375 3.49927 0
M  V30 3418 O 342.213 2.28136 3.74013 0
M  V30 3419 C 343.714 0.599784 4.39224 0
M  V30 3420 H 340.934 0.240588 0.626385 0
M  V30 3421 H 343.478 1.29337 1.58405 0
M  V30 3422 H 341.633 0.304631 3.862 0
M  V30 3423 H 342.047 2.36002 4.68405 0
M  V30 3424 H 343.521 0.834263 5.45659 0
M  V30 3425 H 343.998 -0.465921 4.36722 0
M  V30 3426 H 344.604 1.18235 4.08535 0
M  V30 3427 N 342.919 -1.39368 0.735821 0
M  V30 3428 C 343.849 -2.33234 0.111506 0
M  V30 3429 C 344.83 -1.53954 -0.723334 0
M  V30 3430 O 346.015 -1.82344 -0.668147 0
M  V30 3431 C 343.145 -3.38057 -0.795917 0
M  V30 3432 C 342.099 -4.2795 -0.065172 0
M  V30 3433 C 341.425 -5.23479 -1.08967 0
M  V30 3434 C 342.725 -5.10741 1.09273 0
M  V30 3435 H 344.419 -2.85692 0.895571 0
M  V30 3436 H 341.965 -1.37364 0.432109 0
M  V30 3437 H 343.918 -4.02675 -1.24221 0
M  V30 3438 H 342.642 -2.8404 -1.61211 0
M  V30 3439 H 341.301 -3.64813 0.361511 0
M  V30 3440 H 340.949 -4.65758 -1.89944 0
M  V30 3441 H 340.649 -5.84472 -0.605489 0
M  V30 3442 H 342.173 -5.90974 -1.53565 0
M  V30 3443 H 343.587 -5.68699 0.724841 0
M  V30 3444 H 341.984 -5.8088 1.50659 0
M  V30 3445 H 343.054 -4.45525 1.91404 0
M  V30 3446 N 344.397 -0.483516 -1.5 0
M  V30 3447 C 345.643 0.0672592 -2.02688 0
M  V30 3448 C 345.976 1.38247 -1.36387 0
M  V30 3449 O 345.251 1.88131 -0.493675 0
M  V30 3450 C 345.534 0.238109 -3.59312 0
M  V30 3451 C 345.387 -1.099 -4.36168 0
M  V30 3452 C 346.706 0.986916 -4.28892 0
M  V30 3453 H 343.825 0.0229696 -0.736642 0
M  V30 3454 H 346.467 -0.631527 -1.79197 0
M  V30 3455 H 344.617 0.8333 -3.79458 0
M  V30 3456 H 346.289 -1.73172 -4.27562 0
M  V30 3457 H 344.532 -1.69261 -3.99416 0
M  V30 3458 H 345.203 -0.932954 -5.44059 0
M  V30 3459 H 347.679 0.482302 -4.13295 0
M  V30 3460 H 346.555 1.07527 -5.38265 0
M  V30 3461 H 346.816 2.0265 -3.92919 0
M  V30 3462 N 345.875 1.56104 -0.216619 0
M  V30 3463 C 347.1 2.0301 0.424462 0
M  V30 3464 C 347.525 1.0955 1.52907 0
M  V30 3465 O 346.883 0.0827914 1.81111 0
M  V30 3466 C 346.931 3.4819 0.937883 0
M  V30 3467 O 346.035 3.57865 2.04955 0
M  V30 3468 H 345.376 0.656925 0.0966755 0
M  V30 3469 H 347.906 2.01859 -0.33381 0
M  V30 3470 H 347.916 3.88413 1.24897 0
M  V30 3471 H 346.591 4.15699 0.129387 0
M  V30 3472 H 345.168 3.29527 1.74546 0
M  V30 3473 N 347.353 -0.0568162 1.57498 0
M  V30 3474 C 348.601 -0.751617 1.87604 0
M  V30 3475 C 348.922 -1.77351 0.81066 0
M  V30 3476 O 348.192 -1.95254 -0.159018 0
M  V30 3477 H 346.772 -0.280583 0.692302 0
M  V30 3478 H 349.434 -0.0293483 1.94878 0
M  V30 3479 H 348.53 -1.25852 2.856 0
M  V30 3480 N 348.832 -1.54138 -0.328536 0
M  V30 3481 C 350.243 -1.63395 -0.903272 0
M  V30 3482 C 350.594 -0.524828 -1.8905 0
M  V30 3483 O 349.719 0.343068 -2.13663 0
M  V30 3484 C 350.314 -2.9618 -1.64507 0
M  V30 3485 C 348.873 -3.0765 -2.1686 0
M  V30 3486 C 348.02 -2.58933 -0.992416 0
M  V30 3487 H 350.971 -1.58344 -0.106253 0
M  V30 3488 H 350.992 -2.86061 -2.50897 0
M  V30 3489 H 350.504 -3.76884 -0.926302 0
M  V30 3490 H 348.605 -2.31611 -2.91868 0
M  V30 3491 H 348.718 -4.1337 -2.42202 0
M  V30 3492 H 347.082 -2.14706 -1.37016 0
M  V30 3493 H 347.865 -3.42089 -0.288041 0
M  V30 3494 N 350.31 0.590341 -1.46126 0
M  V30 3495 C 351.556 1.35082 -1.51264 0
M  V30 3496 C 351.889 1.93534 -0.160711 0
M  V30 3497 O 351.164 1.76045 0.826956 0
M  V30 3498 C 351.447 2.48588 -2.6053 0
M  V30 3499 C 351.3 1.95221 -4.05227 0
M  V30 3500 C 352.619 3.50662 -2.6594 0
M  V30 3501 H 349.738 0.489803 -0.550692 0
M  V30 3502 H 352.38 0.663887 -1.78024 0
M  V30 3503 H 350.53 3.07186 -2.37843 0
M  V30 3504 H 352.202 1.41139 -4.39178 0
M  V30 3505 H 350.445 1.26101 -4.15068 0
M  V30 3506 H 351.116 2.77121 -4.77397 0
M  V30 3507 H 353.592 3.01934 -2.86313 0
M  V30 3508 H 352.468 4.27551 -3.44226 0
M  V30 3509 H 352.729 4.07399 -1.71694 0
M  V30 3510 N 351.788 1.33704 0.83433 0
M  V30 3511 C 353.013 1.28615 1.62705 0
M  V30 3512 C 353.438 -0.139242 1.87584 0
M  V30 3513 O 352.796 -1.09734 1.4432 0
M  V30 3514 C 352.844 2.07139 2.95171 0
M  V30 3515 O 351.948 1.4331 3.86699 0
M  V30 3516 H 351.289 0.44226 0.49528 0
M  V30 3517 H 353.819 1.76335 1.03766 0
M  V30 3518 H 353.829 2.18073 3.44831 0
M  V30 3519 H 352.504 3.10779 2.76386 0
M  V30 3520 H 351.081 1.4105 3.45195 0
M  V30 3521 N 353.266 -1.05314 1.17247 0
M  V30 3522 C 354.196 -2.1498 0.911362 0
M  V30 3523 C 355.177 -1.69471 -0.146169 0
M  V30 3524 O 356.362 -1.942 0.003812 0
M  V30 3525 C 353.492 -3.4472 0.422528 0
M  V30 3526 C 352.446 -4.03789 1.4191 0
M  V30 3527 C 351.772 -5.28858 0.788274 0
M  V30 3528 C 353.072 -4.41418 2.7919 0
M  V30 3529 H 354.766 -2.3708 1.82848 0
M  V30 3530 H 352.312 -1.13938 0.880569 0
M  V30 3531 H 354.265 -4.20787 0.227289 0
M  V30 3532 H 352.989 -3.22269 -0.530123 0
M  V30 3533 H 351.648 -3.2979 1.60106 0
M  V30 3534 H 351.296 -5.02709 -0.171173 0
M  V30 3535 H 350.996 -5.69338 1.45353 0
M  V30 3536 H 352.52 -6.07612 0.603282 0
M  V30 3537 H 353.934 -5.08524 2.64719 0
M  V30 3538 H 352.331 -4.92913 3.42282 0
M  V30 3539 H 353.401 -3.51819 3.33693 0
M  V30 3540 N 354.744 -0.972509 -1.24016 0
M  V30 3541 C 356.155 -0.67517 -1.74064 0
M  V30 3542 C 356.506 0.808939 -1.78747 0
M  V30 3543 O 355.631 1.63286 -1.42009 0
M  V30 3544 C 356.226 -1.21889 -3.16115 0
M  V30 3545 C 354.785 -0.971358 -3.6365 0
M  V30 3546 C 353.932 -1.35134 -2.42145 0
M  V30 3547 H 356.883 -1.14727 -1.09651 0
M  V30 3548 H 356.904 -0.587489 -3.75937 0
M  V30 3549 H 356.416 -2.29906 -3.12674 0
M  V30 3550 H 354.517 0.0930686 -3.72484 0
M  V30 3551 H 354.63 -1.62039 -4.50866 0
M  V30 3552 H 352.994 -0.769751 -2.4279 0
M  V30 3553 H 353.777 -2.4411 -2.41381 0
M  V30 3554 N 356.222 1.38976 -0.743202 0
M  V30 3555 C 357.45 2.04636 -0.30525 0
M  V30 3556 C 357.865 1.56044 1.06281 0
M  V30 3557 O 357.222 0.728921 1.67311 0
M  V30 3558 C 357.273 3.60193 -0.307177 0
M  V30 3559 O 356.994 4.06998 -1.62124 0
M  V30 3560 C 358.495 4.4306 0.145928 0
M  V30 3561 H 355.715 0.65788 -0.132041 0
M  V30 3562 H 358.259 1.77866 -1.00915 0
M  V30 3563 H 356.414 3.85835 0.347898 0
M  V30 3564 H 356.828 5.01371 -1.54036 0
M  V30 3565 H 358.302 5.51921 0.0934183 0
M  V30 3566 H 358.779 4.22706 1.19231 0
M  V30 3567 H 359.385 4.22584 -0.479886 0
M  V30 3568 N 357.7 0.491464 1.49741 0
M  V30 3569 C 359.111 0.0413169 1.86654 0
M  V30 3570 C 359.462 -1.36985 1.40462 0
M  V30 3571 O 358.587 -2.01917 0.778354 0
M  V30 3572 C 359.182 0.0682023 3.38731 0
M  V30 3573 C 357.741 -0.32656 3.74981 0
M  V30 3574 C 356.888 0.444888 2.73708 0
M  V30 3575 H 359.839 0.704733 1.42194 0
M  V30 3576 H 359.86 -0.729322 3.73445 0
M  V30 3577 H 359.372 1.09539 3.72321 0
M  V30 3578 H 357.473 -1.35734 3.46997 0
M  V30 3579 H 357.586 -0.013741 4.79098 0
M  V30 3580 H 355.95 -0.104062 2.54487 0
M  V30 3581 H 356.733 1.47197 3.10142 0
M  V30 3582 N 359.178 -1.55987 0.224894 0
M  V30 3583 C 360.589 -1.84553 -0.282345 0
M  V30 3584 C 360.94 -1.14634 -1.59227 0
M  V30 3585 O 360.065 -0.417155 -2.12341 0
M  V30 3586 C 360.66 -3.348 -0.519062 0
M  V30 3587 C 359.219 -3.63671 -0.970604 0
M  V30 3588 C 358.366 -2.77277 -0.0355261 0
M  V30 3589 H 361.317 -1.52245 0.448006 0
M  V30 3590 H 361.338 -3.55187 -1.36463 0
M  V30 3591 H 360.85 -3.8566 0.43449 0
M  V30 3592 H 358.951 -3.1827 -1.9374 0
M  V30 3593 H 359.064 -4.71631 -0.842698 0
M  V30 3594 H 357.428 -2.48846 -0.542927 0
M  V30 3595 H 358.211 -3.30937 0.913003 0
M  V30 3596 N 360.656 0.0484629 -1.57525 0
M  V30 3597 C 361.903 0.743125 -1.88372 0
M  V30 3598 C 362.231 1.76383 -0.819715 0
M  V30 3599 O 361.486 1.94855 0.181659 0
M  V30 3600 C 361.785 1.46632 -3.25935 0
M  V30 3601 C 361.451 0.583427 -4.4711 0
M  V30 3602 C 360.113 0.340191 -4.79996 0
M  V30 3603 C 362.465 -0.0273345 -5.21193 0
M  V30 3604 C 359.793 -0.522903 -5.84365 0
M  V30 3605 C 362.145 -0.878017 -6.26477 0
M  V30 3606 C 360.809 -1.1309 -6.5785 0
M  V30 3607 H 360.079 0.271929 -0.689301 0
M  V30 3608 H 362.726 0.00336166 -1.915 0
M  V30 3609 H 361.031 2.2789 -3.18706 0
M  V30 3610 H 362.728 2.00902 -3.47044 0
M  V30 3611 H 359.318 0.783151 -4.21384 0
M  V30 3612 H 363.502 0.147654 -4.9608 0
M  V30 3613 H 358.758 -0.727335 -6.07058 0
M  V30 3614 H 362.932 -1.35789 -6.83033 0
M  V30 3615 H 360.559 -1.80144 -7.38547 0
M  V30 3616 N 362.134 1.5431 0.320358 0
M  V30 3617 C 363.38 1.72924 1.05949 0
M  V30 3618 C 363.713 0.503185 1.87568 0
M  V30 3619 O 362.988 -0.499839 1.87968 0
M  V30 3620 C 363.271 3.00676 1.98156 0
M  V30 3621 C 363.124 4.3354 1.19845 0
M  V30 3622 C 364.443 3.24198 2.9763 0
M  V30 3623 H 361.562 0.629195 0.383774 0
M  V30 3624 H 364.204 1.87008 0.335854 0
M  V30 3625 H 362.354 2.888 2.59859 0
M  V30 3626 H 364.026 4.57305 0.605773 0
M  V30 3627 H 362.269 4.309 0.500784 0
M  V30 3628 H 362.94 5.19156 1.87567 0
M  V30 3629 H 365.416 3.35557 2.4605 0
M  V30 3630 H 364.292 4.14938 3.59329 0
M  V30 3631 H 364.553 2.41577 3.7026 0
M  V30 3632 N 363.613 -0.582584 1.46437 0
M  V30 3633 C 364.56 -1.69164 1.5701 0
M  V30 3634 C 365.53 -1.60847 0.414403 0
M  V30 3635 O 366.715 -1.80058 0.631171 0
M  V30 3636 C 363.855 -3.075 1.56646 0
M  V30 3637 C 362.968 -3.2644 2.82951 0
M  V30 3638 C 362.103 -4.55026 2.7409 0
M  V30 3639 C 361.142 -4.6731 3.95333 0
M  V30 3640 N 360.279 -5.87221 3.84858 0
M  V30 3641 H 365.119 -1.59464 2.51744 0
M  V30 3642 H 362.656 -0.777186 1.24893 0
M  V30 3643 H 364.614 -3.8757 1.5442 0
M  V30 3644 H 363.244 -3.16096 0.654439 0
M  V30 3645 H 362.296 -2.39974 2.95155 0
M  V30 3646 H 363.608 -3.31385 3.72808 0
M  V30 3647 H 362.762 -5.43324 2.6997 0
M  V30 3648 H 361.501 -4.52519 1.81873 0
M  V30 3649 H 360.506 -3.77429 3.99784 0
M  V30 3650 H 361.731 -4.71595 4.88646 0
M  V30 3651 H 359.677 -5.85712 2.95427 0
M  V30 3652 H 359.594 -5.93435 4.6837 0
M  V30 3653 H 360.862 -6.7795 3.84713 0
M  V30 3654 N 365.091 -1.34144 -0.827227 0
M  V30 3655 C 366.507 -1.13732 -1.11969 0
M  V30 3656 C 366.707 0.0640463 -2.01398 0
M  V30 3657 O 365.763 0.740856 -2.41387 0
M  V30 3658 C 367.076 -2.43047 -1.77055 0
M  V30 3659 C 368.624 -2.49063 -1.89569 0
M  V30 3660 C 369.099 -3.78369 -2.58072 0
M  V30 3661 N 370.59 -3.79505 -2.65575 0
M  V30 3662 C 371.325 -4.76274 -3.19297 0
M  V30 3663 N 370.821 -5.83424 -3.73616 0
M  V30 3664 N 372.614 -4.63735 -3.17658 0
M  V30 3665 H 364.765 -2.11126 -0.232296 0
M  V30 3666 H 367.028 -0.933424 -0.165602 0
M  V30 3667 H 366.734 -3.31025 -1.18807 0
M  V30 3668 H 366.608 -2.56066 -2.76966 0
M  V30 3669 H 368.995 -1.61527 -2.46968 0
M  V30 3670 H 369.076 -2.39975 -0.885745 0
M  V30 3671 H 368.72 -4.66293 -2.01329 0
M  V30 3672 H 368.65 -3.84737 -3.59562 0
M  V30 3673 H 371.141 -3.02074 -2.27068 0
M  V30 3674 H 371.454 -6.53282 -4.12846 0
M  V30 3675 H 369.799 -5.87143 -3.71871 0
M  V30 3676 H 372.99 -3.79177 -2.74486 0
M  V30 3677 H 373.163 -5.39318 -3.59221 0
M  V30 3678 N 366.569 1.04691 -1.17803 0
M  V30 3679 C 367.815 1.78045 -0.970969 0
M  V30 3680 C 368.148 1.87686 0.498751 0
M  V30 3681 O 367.423 1.38035 1.37027 0
M  V30 3682 C 367.706 3.2166 -1.61884 0
M  V30 3683 C 367.559 3.20001 -3.161 0
M  V30 3684 C 368.878 4.1962 -1.3269 0
M  V30 3685 H 365.997 0.64633 -0.354155 0
M  V30 3686 H 368.639 1.22333 -1.45378 0
M  V30 3687 H 366.789 3.69232 -1.20831 0
M  V30 3688 H 368.461 2.80467 -3.66246 0
M  V30 3689 H 366.704 2.58203 -3.48588 0
M  V30 3690 H 367.375 4.21386 -3.56564 0
M  V30 3691 H 369.851 3.80567 -1.68249 0
M  V30 3692 H 368.727 5.18339 -1.80599 0
M  V30 3693 H 368.988 4.414 -0.248622 0
M  V30 3694 N 368.047 0.979072 1.23499 0
M  V30 3695 C 369.324 0.563674 1.87302 0
M  V30 3696 C 369.704 -0.959199 1.88049 0
M  V30 3697 O 369.052 -1.83535 1.36114 0
M  V30 3698 C 369.262 1.16822 3.28867 0
M  V30 3699 C 370.61 1.26014 4.0547 0
M  V30 3700 O 371.634 1.12158 3.38082 0
M  V30 3701 O 370.493 1.48044 5.26066 0
M  V30 3702 H 367.587 0.189602 0.804972 0
M  V30 3703 H 370.133 1.07407 1.31384 0
M  V30 3704 H 368.905 2.21049 3.22883 0
M  V30 3705 H 368.528 0.642564 3.92373 0
M  V30 3706 N 369.525 -1.3858 0.750561 0
M  V30 3707 C 370.771 -2.00481 0.305825 0
M  V30 3708 C 371.104 -1.5944 -1.10872 0
M  V30 3709 O 370.379 -0.83052 -1.75877 0
M  V30 3710 C 370.662 -3.5758 0.425287 0
M  V30 3711 C 370.515 -4.08594 1.88072 0
M  V30 3712 C 371.834 -4.39719 -0.183122 0
M  V30 3713 H 368.953 -0.728348 0.112598 0
M  V30 3714 H 371.595 -1.64566 0.949638 0
M  V30 3715 H 369.745 -3.88306 -0.122828 0
M  V30 3716 H 371.417 -3.88523 2.48691 0
M  V30 3717 H 369.66 -3.61574 2.39681 0
M  V30 3718 H 370.331 -5.177 1.91548 0
M  V30 3719 H 372.807 -4.15128 0.284303 0
M  V30 3720 H 371.683 -5.48856 -0.0692757 0
M  V30 3721 H 371.944 -4.23434 -1.27106 0
M  V30 3722 N 371.003 -0.499398 -1.49478 0
M  V30 3723 C 371.936 0.326491 -2.25852 0
M  V30 3724 C 372.914 0.971776 -1.30366 0
M  V30 3725 O 374.098 1.00219 -1.59651 0
M  V30 3726 C 371.225 1.45969 -3.05632 0
M  V30 3727 C 370.271 0.928938 -4.16261 0
M  V30 3728 S 371.104 -0.179012 -5.35201 0
M  V30 3729 C 372.26 0.957389 -6.18534 0
M  V30 3730 H 372.493 -0.321746 -2.95554 0
M  V30 3731 H 370.026 -0.284674 -1.51753 0
M  V30 3732 H 371.984 2.109 -3.52181 0
M  V30 3733 H 370.645 2.07953 -2.35402 0
M  V30 3734 H 369.838 1.77813 -4.71592 0
M  V30 3735 H 369.44 0.356869 -3.72293 0
M  V30 3736 H 371.732 1.86296 -6.51383 0
M  V30 3737 H 372.675 0.442733 -7.06715 0
M  V30 3738 H 373.083 1.224 -5.5107 0
M  V30 3739 N 372.481 1.55866 -0.233164 0
M  V30 3740 C 373.709 2.02998 0.399905 0
M  V30 3741 C 374.124 1.11274 1.52524 0
M  V30 3742 O 373.481 0.124528 1.82075 0
M  V30 3743 C 373.532 3.4958 0.920639 0
M  V30 3744 O 373.253 4.37808 -0.159834 0
M  V30 3745 C 374.754 4.12411 1.62578 0
M  V30 3746 H 371.974 0.664006 0.0966281 0
M  V30 3747 H 374.518 2.0143 -0.353013 0
M  V30 3748 H 372.673 3.51727 1.62379 0
M  V30 3749 H 373.087 5.23981 0.23337 0
M  V30 3750 H 374.561 5.16711 1.94201 0
M  V30 3751 H 375.038 3.5809 2.54299 0
M  V30 3752 H 375.644 4.14148 0.967553 0
M  V30 3753 N 373.959 -0.0401083 1.57549 0
M  V30 3754 C 374.922 -1.02871 2.04817 0
M  V30 3755 C 375.922 -1.29708 0.950388 0
M  V30 3756 O 377.112 -1.24897 1.21435 0
M  V30 3757 C 374.244 -2.36443 2.45576 0
M  V30 3758 H 375.437 -0.620631 2.93408 0
M  V30 3759 H 372.99 -0.286667 1.53649 0
M  V30 3760 H 373.725 -2.82021 1.60108 0
M  V30 3761 H 373.51 -2.18296 3.25713 0
M  V30 3762 H 375 -3.07441 2.82612 0
M  V30 3763 N 375.437 -1.54477 -0.31217 0
M  V30 3764 C 376.367 -1.87652 -1.38957 0
M  V30 3765 C 377.348 -0.734358 -1.53431 0
M  V30 3766 O 378.533 -0.98911 -1.67123 0
M  V30 3767 C 375.663 -2.11396 -2.75552 0
M  V30 3768 C 374.617 -3.27243 -2.75855 0
M  V30 3769 C 373.943 -3.36382 -4.15633 0
M  V30 3770 C 375.243 -4.64622 -2.38587 0
M  V30 3771 H 376.937 -2.77887 -1.11442 0
M  V30 3772 H 374.483 -1.33707 -0.534655 0
M  V30 3773 H 376.436 -2.33189 -3.51 0
M  V30 3774 H 375.16 -1.17921 -3.04569 0
M  V30 3775 H 373.819 -3.05356 -2.02863 0
M  V30 3776 H 373.467 -2.40445 -4.41809 0
M  V30 3777 H 373.167 -4.14249 -4.1674 0
M  V30 3778 H 374.691 -3.60422 -4.92877 0
M  V30 3779 H 376.105 -4.86219 -3.03749 0
M  V30 3780 H 374.502 -5.45121 -2.50925 0
M  V30 3781 H 375.572 -4.66097 -1.33723 0
M  V30 3782 N 376.915 0.57481 -1.46744 0
M  V30 3783 C 377.825 1.711 -1.60505 0
M  V30 3784 C 378.841 1.67008 -0.488307 0
M  V30 3785 O 380.017 1.86774 -0.753495 0
M  V30 3786 C 377.082 3.07608 -1.59932 0
M  V30 3787 C 376.143 3.22904 -2.82898 0
M  V30 3788 C 375.376 4.529 -2.82343 0
M  V30 3789 O 375.599 5.37278 -1.91542 0
M  V30 3790 O 374.533 4.71611 -3.73987 0
M  V30 3791 H 378.359 1.62436 -2.56609 0
M  V30 3792 H 375.944 0.742779 -1.29627 0
M  V30 3793 H 377.826 3.88877 -1.62336 0
M  V30 3794 H 376.501 3.16692 -0.669898 0
M  V30 3795 H 375.408 2.41099 -2.86046 0
M  V30 3796 H 376.741 3.18715 -3.75076 0
M  V30 3797 N 378.394 1.34581 0.820102 0
M  V30 3798 C 379.327 1.20735 1.93644 0
M  V30 3799 C 380.305 0.0983343 1.62302 0
M  V30 3800 O 381.489 0.263997 1.86642 0
M  V30 3801 C 378.616 0.856037 3.27704 0
M  V30 3802 C 377.662 1.97521 3.78005 0
M  V30 3803 S 378.495 3.58906 3.97425 0
M  V30 3804 C 379.651 3.25822 5.34407 0
M  V30 3805 H 379.884 2.15231 2.05093 0
M  V30 3806 H 377.417 1.1964 0.97599 0
M  V30 3807 H 379.375 0.660133 4.05157 0
M  V30 3808 H 378.036 -0.0706253 3.14021 0
M  V30 3809 H 377.229 1.68321 4.75062 0
M  V30 3810 H 376.831 2.12875 3.07507 0
M  V30 3811 H 379.123 2.77812 6.17922 0
M  V30 3812 H 380.066 4.22029 5.68592 0
M  V30 3813 H 380.474 2.61932 5.00052 0
M  V30 3814 N 379.872 -1.04064 1.18357 0
M  V30 3815 C 380.782 -2.15569 0.925596 0
M  V30 3816 C 381.798 -1.7365 -0.110295 0
M  V30 3817 O 382.974 -2.01273 0.0716218 0
M  V30 3818 C 380.039 -3.43704 0.454836 0
M  V30 3819 C 379.1 -4.00004 1.55869 0
M  V30 3820 C 378.333 -5.22023 1.1103 0
M  V30 3821 O 378.556 -5.70392 -0.0309756 0
M  V30 3822 O 377.49 -5.70856 1.90805 0
M  V30 3823 H 381.316 -2.40187 1.8586 0
M  V30 3824 H 378.901 -1.1402 0.965394 0
M  V30 3825 H 380.783 -4.20923 0.200382 0
M  V30 3826 H 379.458 -3.20559 -0.449876 0
M  V30 3827 H 378.365 -3.24172 1.86716 0
M  V30 3828 H 379.698 -4.2749 2.43953 0
M  V30 3829 N 381.35 -0.985608 -1.22978 0
M  V30 3830 C 382.313 -0.535071 -2.22867 0
M  V30 3831 C 383.313 0.378123 -1.56291 0
M  V30 3832 O 384.503 0.171092 -1.73358 0
M  V30 3833 C 381.635 0.222702 -3.40172 0
M  V30 3834 H 382.828 -1.41835 -2.6424 0
M  V30 3835 H 380.381 -0.772042 -1.35901 0
M  V30 3836 H 381.116 1.12229 -3.04262 0
M  V30 3837 H 380.901 -0.43288 -3.89703 0
M  V30 3838 H 382.391 0.526335 -4.1427 0
M  V30 3839 N 382.828 1.3818 -0.7579 0
M  V30 3840 C 383.791 2.28764 -0.141286 0
M  V30 3841 C 384.791 1.47388 0.642907 0
M  V30 3842 O 385.981 1.67781 0.468536 0
M  V30 3843 C 383.113 3.31184 0.808069 0
M  V30 3844 H 384.306 2.848 -0.939633 0
M  V30 3845 H 381.859 1.47212 -0.525191 0
M  V30 3846 H 382.594 2.80247 1.63193 0
M  V30 3847 H 382.379 3.91314 0.248104 0
M  V30 3848 H 383.869 3.98909 1.23536 0
M  V30 3849 N 384.306 0.507319 1.49211 0
M  V30 3850 C 385.552 -0.0350047 2.0277 0
M  V30 3851 C 385.885 -1.3606 1.38569 0
M  V30 3852 O 385.16 -1.87321 0.523542 0
M  V30 3853 C 385.443 -0.180916 3.59645 0
M  V30 3854 C 385.296 1.16825 4.34364 0
M  V30 3855 C 386.615 -0.918558 4.30407 0
M  V30 3856 H 383.734 -0.0112473 0.736914 0
M  V30 3857 H 386.376 0.659956 1.7817 0
M  V30 3858 H 384.526 -0.772826 3.80736 0
M  V30 3859 H 386.198 1.79952 4.24753 0
M  V30 3860 H 384.441 1.75594 3.96673 0
M  V30 3861 H 385.112 1.01939 5.42506 0
M  V30 3862 H 387.588 -0.41649 4.1401 0
M  V30 3863 H 386.464 -0.989505 5.39907 0
M  V30 3864 H 386.725 -1.96373 3.96093 0
M  V30 3865 N 385.784 -1.5574 0.241426 0
M  V30 3866 C 386.732 -2.22538 -0.676718 0
M  V30 3867 C 387.726 -1.21117 -1.18436 0
M  V30 3868 O 388.932 -1.39144 -1.14188 0
M  V30 3869 H 385.307 -0.713776 -0.236701 0
M  V30 3870 H 387.278 -2.98264 -0.0901187 0
M  V30 3871 C 386.027 -2.93439 -1.86518 0
M  V30 3872 H 385.35 -3.7125 -1.4837 0
M  V30 3873 H 386.79 -3.43549 -2.48495 0
M  V30 3874 C 385.249 -1.97008 -2.73294 0
M  V30 3875 O 385.779 -1.49965 -3.72657 0
M  V30 3876 N 383.985 -1.64227 -2.39745 0
M  V30 3877 H 383.532 -2.02677 -1.58996 0
M  V30 3878 H 383.49 -0.999708 -2.98083 0
M  V30 3879 N 387.262 0.0317525 -1.57568 0
M  V30 3880 C 388.225 1.01783 -2.0536 0
M  V30 3881 C 389.225 1.29203 -0.957253 0
M  V30 3882 O 390.415 1.24251 -1.22095 0
M  V30 3883 C 387.547 2.35137 -2.46827 0
M  V30 3884 H 388.74 0.605062 -2.93733 0
M  V30 3885 H 386.293 0.278514 -1.53799 0
M  V30 3886 H 387.028 2.81168 -1.61602 0
M  V30 3887 H 386.813 2.16566 -3.26866 0
M  V30 3888 H 388.303 3.05938 -2.84239 0
M  V30 3889 N 388.74 1.54641 0.303973 0
M  V30 3890 C 389.965 1.78092 1.06292 0
M  V30 3891 C 390.39 0.537342 1.80262 0
M  V30 3892 O 389.748 -0.511993 1.7392 0
M  V30 3893 C 389.796 2.98612 2.02147 0
M  V30 3894 O 388.9 2.71528 3.10397 0
M  V30 3895 H 388.241 0.589548 0.305497 0
M  V30 3896 H 390.771 2.01716 0.3423 0
M  V30 3897 H 390.781 3.265 2.44667 0
M  V30 3898 H 389.456 3.88785 1.47714 0
M  V30 3899 H 388.033 2.54648 2.72413 0
M  V30 3900 N 390.218 -0.567019 1.47046 0
M  V30 3901 C 391.464 -1.32658 1.53394 0
M  V30 3902 C 391.797 -1.93254 0.19148 0
M  V30 3903 O 391.072 -1.77338 -0.798844 0
M  V30 3904 C 391.355 -2.44412 2.64452 0
M  V30 3905 C 391.208 -1.88749 4.08282 0
M  V30 3906 C 392.527 -3.46387 2.71485 0
M  V30 3907 H 389.646 -0.48098 0.558415 0
M  V30 3908 H 392.288 -0.635481 1.79058 0
M  V30 3909 H 390.438 -3.03363 2.427 0
M  V30 3910 H 392.11 -1.34134 4.41368 0
M  V30 3911 H 390.353 -1.19481 4.17021 0
M  V30 3912 H 391.024 -2.69491 4.81745 0
M  V30 3913 H 393.5 -2.9734 2.91081 0
M  V30 3914 H 392.376 -4.2202 3.50985 0
M  V30 3915 H 392.637 -4.04616 1.78153 0
M  V30 3916 N 391.696 -1.35014 -0.812953 0
M  V30 3917 C 392.628 -1.23262 -1.93233 0
M  V30 3918 C 393.641 -0.157371 -1.62038 0
M  V30 3919 O 394.83 -0.410096 -1.73725 0
M  V30 3920 C 391.93 -0.87392 -3.27438 0
M  V30 3921 C 391.103 -2.04622 -3.86586 0
M  V30 3922 C 390.162 -1.66432 -4.99186 0
M  V30 3923 O 389.188 -2.38222 -5.16951 0
M  V30 3924 N 390.39 -0.584248 -5.77552 0
M  V30 3925 H 393.155 -2.19699 -2.03844 0
M  V30 3926 H 390.716 -1.281 -0.99005 0
M  V30 3927 H 392.708 -0.600039 -4.00227 0
M  V30 3928 H 391.278 0.00057392 -3.126 0
M  V30 3929 H 390.498 -2.48427 -3.06068 0
M  V30 3930 H 391.786 -2.82999 -4.22835 0
M  V30 3931 H 391.184 0.0123526 -5.65699 0
M  V30 3932 H 389.741 -0.37013 -6.50748 0
M  V30 3933 N 393.175 1.03435 -1.18907 0
M  V30 3934 C 394.107 2.1165 -0.879595 0
M  V30 3935 C 395.12 1.62316 0.125439 0
M  V30 3936 O 396.309 1.78201 -0.103245 0
M  V30 3937 C 393.409 3.37622 -0.294042 0
M  V30 3938 C 392.582 4.16166 -1.34629 0
M  V30 3939 C 391.641 5.20457 -0.775274 0
M  V30 3940 O 390.667 5.50379 -1.4516 0
M  V30 3941 N 391.869 5.78949 0.424126 0
M  V30 3942 H 394.634 2.38791 -1.81105 0
M  V30 3943 H 392.195 1.19681 -1.09032 0
M  V30 3944 H 394.187 4.04572 0.101679 0
M  V30 3945 H 392.757 3.07873 0.541575 0
M  V30 3946 H 391.977 3.44444 -1.91707 0
M  V30 3947 H 393.265 4.65432 -2.05549 0
M  V30 3948 H 392.663 5.56948 0.991209 0
M  V30 3949 H 391.22 6.47334 0.761691 0
M  V30 3950 N 394.653 0.992116 1.22453 0
M  V30 3951 C 395.585 0.500024 2.23679 0
M  V30 3952 C 396.598 -0.404463 1.57696 0
M  V30 3953 O 397.787 -0.206722 1.77299 0
M  V30 3954 C 394.887 -0.294711 3.37616 0
M  V30 3955 C 394.06 0.605723 4.33186 0
M  V30 3956 C 393.119 -0.13717 5.26021 0
M  V30 3957 O 392.145 0.477164 5.67196 0
M  V30 3958 N 393.347 -1.4197 5.62872 0
M  V30 3959 H 396.112 1.37045 2.66531 0
M  V30 3960 H 393.673 0.866741 1.36745 0
M  V30 3961 H 395.665 -0.800329 3.96707 0
M  V30 3962 H 394.235 -1.06623 2.93854 0
M  V30 3963 H 393.455 1.29202 3.72425 0
M  V30 3964 H 394.743 1.21896 4.93983 0
M  V30 3965 H 394.141 -1.94015 5.31389 0
M  V30 3966 H 392.698 -1.87052 6.24383 0
M  V30 3967 N 396.131 -1.37776 0.765217 0
M  V30 3968 C 397.079 -2.32209 0.134798 0
M  V30 3969 C 398.073 -1.54607 -0.692315 0
M  V30 3970 O 399.279 -1.70052 -0.590109 0
M  V30 3971 H 395.654 -0.751591 0.0248005 0
M  V30 3972 H 397.625 -2.8297 0.947119 0
M  V30 3973 C 396.374 -3.39841 -0.735063 0
M  V30 3974 H 395.697 -3.99654 -0.107991 0
M  V30 3975 H 397.137 -4.08296 -1.14326 0
M  V30 3976 C 395.596 -2.79378 -1.88281 0
M  V30 3977 O 396.126 -2.69608 -2.97783 0
M  V30 3978 N 394.332 -2.37016 -1.68142 0
M  V30 3979 H 393.879 -2.45162 -0.790772 0
M  V30 3980 H 393.837 -1.96905 -2.45104 0
M  V30 3981 N 397.609 -0.515225 -1.4894 0
M  V30 3982 C 398.858 0.0261361 -2.01683 0
M  V30 3983 C 399.171 1.36719 -1.39883 0
M  V30 3984 O 400.377 1.99606 -1.84037 0
M  V30 3985 C 398.833 0.0970111 -3.59769 0
M  V30 3986 C 398.441 -1.23825 -4.30548 0
M  V30 3987 C 400.185 0.587981 -4.20408 0
M  V30 3988 C 398.092 -1.12877 -5.80528 0
M  V30 3989 H 397.022 0.0135398 -0.753878 0
M  V30 3990 H 399.673 -0.656787 -1.71343 0
M  V30 3991 H 398.055 0.844694 -3.86886 0
M  V30 3992 H 399.229 -2.00034 -4.15118 0
M  V30 3993 H 397.544 -1.66379 -3.81716 0
M  V30 3994 H 400.141 0.68763 -5.3026 0
M  V30 3995 H 400.484 1.59026 -3.84729 0
M  V30 3996 H 401.017 -0.103582 -3.97665 0
M  V30 3997 H 397.756 -2.10575 -6.20756 0
M  V30 3998 H 397.276 -0.407799 -5.98412 0
M  V30 3999 H 398.955 -0.813332 -6.41868 0
M  V30 4000 N 399.087 1.5561 -0.249682 0
M  V30 4001 C 400.334 1.99011 0.374287 0
M  V30 4002 C 400.662 1.13785 1.57744 0
M  V30 4003 O 399.917 0.189326 1.94782 0
M  V30 4004 C 400.216 3.4775 0.824887 0
M  V30 4005 C 399.882 4.50086 -0.270819 0
M  V30 4006 C 398.544 4.77791 -0.571746 0
M  V30 4007 C 400.896 5.11312 -1.01041 0
M  V30 4008 C 398.224 5.63997 -1.61629 0
M  V30 4009 C 400.576 5.98651 -2.0445 0
M  V30 4010 C 399.24 6.24688 -2.35204 0
M  V30 4011 H 398.51 0.728233 0.136961 0
M  V30 4012 H 401.157 1.88122 -0.358087 0
M  V30 4013 H 399.462 3.55985 1.63651 0
M  V30 4014 H 401.159 3.78721 1.31799 0
M  V30 4015 H 397.749 4.28592 -0.026136 0
M  V30 4016 H 401.933 4.89953 -0.791177 0
M  V30 4017 H 397.189 5.82425 -1.85988 0
M  V30 4018 H 401.363 6.45135 -2.62248 0
M  V30 4019 H 398.99 6.91281 -3.16282 0
M  V30 4020 N 400.565 -0.0233959 1.57583 0
M  V30 4021 C 401.814 -0.712133 1.8871 0
M  V30 4022 C 402.127 -1.76217 0.848944 0
M  V30 4023 O 403.333 -2.50389 1.04964 0
M  V30 4024 C 401.789 -1.3177 3.3491 0
M  V30 4025 C 401.397 -0.303715 4.46969 0
M  V30 4026 C 403.141 -1.98598 3.75179 0
M  V30 4027 C 401.048 -0.917945 5.84233 0
M  V30 4028 H 399.978 -0.269735 0.704101 0
M  V30 4029 H 402.629 0.0333114 1.8347 0
M  V30 4030 H 401.011 -2.11304 3.34913 0
M  V30 4031 H 402.185 0.465325 4.58445 0
M  V30 4032 H 400.5 0.2628 4.1557 0
M  V30 4033 H 403.097 -2.45416 4.75053 0
M  V30 4034 H 403.44 -2.80659 3.07468 0
M  V30 4035 H 403.973 -1.25831 3.77374 0
M  V30 4036 H 400.712 -0.136633 6.55358 0
M  V30 4037 H 400.232 -1.65669 5.76467 0
M  V30 4038 H 401.911 -1.4236 6.31144 0
M  V30 4039 N 402.043 -1.548 -0.295768 0
M  V30 4040 C 403.291 -1.73985 -1.02828 0
M  V30 4041 C 403.612 -0.531406 -1.87619 0
M  V30 4042 O 402.882 0.454221 -1.90561 0
M  V30 4043 H 401.462 -0.641556 -0.382642 0
M  V30 4044 H 404.124 -1.92163 -0.325489 0
M  V30 4045 H 403.22 -2.63129 -1.67838 0
M  V30 4046 N 403.521 0.559213 -1.47345 0
M  V30 4047 C 404.761 1.32728 -1.55444 0
M  V30 4048 C 405.125 1.90838 -0.210895 0
M  V30 4049 O 406.326 2.68282 -0.166719 0
M  V30 4050 C 404.597 2.4092 -2.63993 0
M  V30 4051 S 406.156 3.2784 -2.91661 0
M  V30 4052 H 402.974 0.451883 -0.548929 0
M  V30 4053 H 405.576 0.640404 -1.84714 0
M  V30 4054 H 404.28 1.9666 -3.60212 0
M  V30 4055 H 403.811 3.14351 -2.36531 0
M  V30 4056 H 405.826 4.40341 -2.28722 0
M  V30 4057 N 404.999 1.35443 0.805782 0
M  V30 4058 C 405.962 1.28301 1.89925 0
M  V30 4059 C 406.962 0.194285 1.59622 0
M  V30 4060 O 408.152 0.448036 1.6834 0
M  V30 4061 C 405.284 0.984997 3.2636 0
M  V30 4062 H 406.477 2.2553 1.97677 0
M  V30 4063 H 404.03 1.19979 1.00173 0
M  V30 4064 H 404.765 0.016603 3.24296 0
M  V30 4065 H 404.55 1.77269 3.4974 0
M  V30 4066 H 406.04 0.960651 4.064 0
M  V30 4067 N 406.477 -1.02803 1.19454 0
M  V30 4068 C 407.44 -2.09264 0.934955 0
M  V30 4069 C 408.44 -1.60576 -0.0849015 0
M  V30 4070 O 409.63 -1.73554 0.149933 0
M  V30 4071 C 406.762 -3.38482 0.40531 0
M  V30 4072 H 407.955 -2.33726 1.87916 0
M  V30 4073 H 405.508 -1.19426 1.00832 0
M  V30 4074 H 406.243 -3.19689 -0.544899 0
M  V30 4075 H 406.028 -3.75142 1.14065 0
M  V30 4076 H 407.518 -4.16894 0.242806 0
M  V30 4077 N 407.956 -0.998596 -1.21925 0
M  V30 4078 C 409.202 -0.678667 -1.91107 0
M  V30 4079 C 409.535 0.78791 -1.77498 0
M  V30 4080 O 408.81 1.57043 -1.1475 0
M  V30 4081 C 409.093 -1.09245 -3.43129 0
M  V30 4082 C 408.946 -2.61801 -3.6576 0
M  V30 4083 C 410.265 -0.649984 -4.35274 0
M  V30 4084 H 407.384 -0.248025 -0.694012 0
M  V30 4085 H 410.026 -1.24314 -1.43688 0
M  V30 4086 H 408.176 -0.612171 -3.83647 0
M  V30 4087 H 409.848 -3.17543 -3.34611 0
M  V30 4088 H 408.091 -3.03609 -3.09845 0
M  V30 4089 H 408.762 -2.85804 -4.7225 0
M  V30 4090 H 411.238 -1.0626 -4.02303 0
M  V30 4091 H 410.114 -0.967743 -5.40302 0
M  V30 4092 H 410.375 0.449139 -4.39813 0
M  V30 4093 N 409.434 1.37368 -0.772513 0
M  V30 4094 C 410.397 2.28601 -0.165541 0
M  V30 4095 C 411.397 1.48062 0.627238 0
M  V30 4096 O 412.587 1.68268 0.450715 0
M  V30 4097 C 409.719 3.32023 0.772897 0
M  V30 4098 H 410.912 2.83787 -0.969787 0
M  V30 4099 H 408.465 1.46647 -0.540775 0
M  V30 4100 H 409.2 2.81962 1.60212 0
M  V30 4101 H 408.985 3.91555 0.206585 0
M  V30 4102 H 410.475 4.00197 1.19298 0
M  V30 4103 N 410.912 0.523116 1.48665 0
M  V30 4104 C 412.189 -0.0775449 1.95446 0
M  V30 4105 C 412.569 -1.5197 1.4652 0
M  V30 4106 O 411.917 -2.17876 0.688657 0
M  V30 4107 C 412.127 0.0326135 3.48985 0
M  V30 4108 C 413.475 -0.130141 4.24401 0
M  V30 4109 O 414.499 -0.0415142 3.56176 0
M  V30 4110 O 413.358 -0.31491 5.45592 0
M  V30 4111 H 410.452 -0.0831012 0.822814 0
M  V30 4112 H 412.998 0.587227 1.59216 0
M  V30 4113 H 411.77 1.03748 3.77296 0
M  V30 4114 H 411.393 -0.671317 3.91892 0
M  V30 4115 N 412.39 -1.55475 0.257931 0
M  V30 4116 C 413.62 -2.03314 -0.367026 0
M  V30 4117 C 414.028 -1.13625 -1.51281 0
M  V30 4118 O 413.371 -0.145334 -1.83124 0
M  V30 4119 C 413.433 -3.47362 -0.926284 0
M  V30 4120 C 413.097 -4.56914 0.0886584 0
M  V30 4121 C 414.094 -5.12013 0.902123 0
M  V30 4122 C 411.779 -5.01827 0.217936 0
M  V30 4123 C 413.773 -6.10529 1.83122 0
M  V30 4124 C 411.46 -6.00172 1.15052 0
M  V30 4125 C 412.458 -6.54402 1.95568 0
M  V30 4126 O 412.146 -7.50827 2.87253 0
M  V30 4127 H 411.878 -0.669976 -0.0900443 0
M  V30 4128 H 414.432 -2.01804 0.382673 0
M  V30 4129 H 412.662 -3.46056 -1.72575 0
M  V30 4130 H 414.351 -3.78637 -1.46249 0
M  V30 4131 H 415.117 -4.78139 0.812891 0
M  V30 4132 H 410.996 -4.59272 -0.398721 0
M  V30 4133 H 414.54 -6.52783 2.46008 0
M  V30 4134 H 410.437 -6.33465 1.24064 0
M  V30 4135 H 411.205 -7.68483 2.81739 0
M  V30 4136 N 413.868 0.0150385 -1.57593 0
M  V30 4137 C 415.284 0.370907 -1.5523 0
M  V30 4138 C 415.484 1.75735 -0.985882 0
M  V30 4139 O 414.54 2.44944 -0.613077 0
M  V30 4140 C 415.853 0.259908 -2.99575 0
M  V30 4141 C 417.401 0.335959 -3.11192 0
M  V30 4142 C 417.876 0.254253 -4.57294 0
M  V30 4143 N 419.367 0.312618 -4.62144 0
M  V30 4144 C 420.102 0.272505 -5.72752 0
M  V30 4145 N 419.598 0.183864 -6.92556 0
M  V30 4146 N 421.391 0.323267 -5.6117 0
M  V30 4147 H 413.542 -0.892104 -1.92757 0
M  V30 4148 H 415.805 -0.340563 -0.884715 0
M  V30 4149 H 415.511 -0.693403 -3.44797 0
M  V30 4150 H 415.385 1.048 -3.62349 0
M  V30 4151 H 417.772 1.27971 -2.65909 0
M  V30 4152 H 417.853 -0.481739 -2.51223 0
M  V30 4153 H 417.497 -0.685887 -5.03247 0
M  V30 4154 H 417.427 1.09024 -5.15191 0
M  V30 4155 H 419.918 0.38307 -3.75953 0
M  V30 4156 H 420.231 0.15874 -7.72637 0
M  V30 4157 H 418.576 0.149708 -6.94839 0
M  V30 4158 H 421.767 0.390607 -4.66467 0
M  V30 4159 H 421.94 0.288539 -6.47357 0
M  V30 4160 N 415.346 1.54954 0.287554 0
M  V30 4161 C 416.309 1.86076 1.33823 0
M  V30 4162 C 417.309 0.734414 1.43049 0
M  V30 4163 O 418.499 1.00266 1.42452 0
M  V30 4164 C 415.631 2.05305 2.72144 0
M  V30 4165 H 416.824 2.79984 1.07465 0
M  V30 4166 H 414.377 1.47223 0.524902 0
M  V30 4167 H 415.112 1.1373 3.03704 0
M  V30 4168 H 414.897 2.873 2.66836 0
M  V30 4169 H 416.387 2.30706 3.48087 0
M  V30 4170 N 416.824 -0.551391 1.4764 0
M  V30 4171 C 417.787 -1.64007 1.60107 0
M  V30 4172 C 418.787 -1.53601 0.47576 0
M  V30 4173 O 419.977 -1.57655 0.740988 0
M  V30 4174 C 417.109 -3.03569 1.55108 0
M  V30 4175 H 418.302 -1.543 2.57161 0
M  V30 4176 H 415.855 -0.771776 1.35917 0
M  V30 4177 H 416.59 -3.18804 0.594519 0
M  V30 4178 H 416.375 -3.12532 2.36783 0
M  V30 4179 H 417.865 -3.82762 1.66982 0
M  V30 4180 N 418.302 -1.35869 -0.798587 0
M  V30 4181 C 419.53 -1.32722 -1.58722 0
M  V30 4182 C 419.945 0.0935631 -1.88568 0
M  V30 4183 O 419.302 1.04784 -1.49421 0
M  V30 4184 C 419.353 -2.13974 -2.91371 0
M  V30 4185 O 419.074 -3.50514 -2.62815 0
M  V30 4186 C 420.575 -2.18504 -3.85708 0
M  V30 4187 H 417.795 -0.45562 -0.492596 0
M  V30 4188 H 420.339 -1.78837 -0.991843 0
M  V30 4189 H 418.494 -1.71438 -3.47402 0
M  V30 4190 H 418.908 -3.92806 -3.47568 0
M  V30 4191 H 420.382 -2.79732 -4.75872 0
M  V30 4192 H 420.859 -1.18597 -4.22885 0
M  V30 4193 H 421.465 -2.61236 -3.35612 0
M  V30 4194 N 419.78 1.02168 -1.19998 0
M  V30 4195 C 421.026 1.75945 -1.00852 0
M  V30 4196 C 421.359 1.88702 0.458828 0
M  V30 4197 O 420.634 1.40911 1.34069 0
M  V30 4198 C 420.917 3.18154 -1.68671 0
M  V30 4199 C 420.77 3.13224 -3.22817 0
M  V30 4200 C 422.089 4.16711 -1.41561 0
M  V30 4201 H 419.208 0.638673 -0.367785 0
M  V30 4202 H 421.85 1.19222 -1.4794 0
M  V30 4203 H 420 3.66586 -1.28636 0
M  V30 4204 H 421.672 2.72635 -3.72112 0
M  V30 4205 H 419.915 2.50751 -3.53986 0
M  V30 4206 H 420.586 4.13728 -3.65422 0
M  V30 4207 H 423.062 3.76913 -1.76284 0
M  V30 4208 H 421.938 5.14391 -1.91553 0
M  V30 4209 H 422.199 4.40774 -0.342193 0
M  V30 4210 N 421.258 1.00505 1.21394 0
M  V30 4211 C 422.221 0.570459 2.21987 0
M  V30 4212 C 423.221 -0.353211 1.56873 0
M  V30 4213 O 424.411 -0.14349 1.73608 0
M  V30 4214 C 421.543 -0.168555 3.40483 0
M  V30 4215 H 422.736 1.46021 2.6195 0
M  V30 4216 H 420.289 0.793565 1.34656 0
M  V30 4217 H 421.024 -1.07374 3.06009 0
M  V30 4218 H 420.809 0.494823 3.88965 0
M  V30 4219 H 422.299 -0.460362 4.15055 0
M  V30 4220 N 422.737 -1.36956 0.779787 0
M  V30 4221 C 424.148 -1.82094 0.412156 0
M  V30 4222 C 424.499 -1.64926 -1.06273 0
M  V30 4223 O 423.624 -1.16483 -1.82375 0
M  V30 4224 C 424.219 -3.3059 0.741319 0
M  V30 4225 C 422.778 -3.73974 0.426641 0
M  V30 4226 C 421.925 -2.59368 0.980987 0
M  V30 4227 H 424.876 -1.25314 0.973758 0
M  V30 4228 H 424.897 -3.80489 0.028887 0
M  V30 4229 H 424.409 -3.43054 1.81482 0
M  V30 4230 H 422.51 -3.67076 -0.639215 0
M  V30 4231 H 422.623 -4.69778 0.940515 0
M  V30 4232 H 420.987 -2.51463 0.404757 0
M  V30 4233 H 421.77 -2.74621 2.06005 0
M  V30 4234 N 424.215 -0.530993 -1.48385 0
M  V30 4235 C 425.125 0.23503 -2.3342 0
M  V30 4236 C 426.141 0.93801 -1.46552 0
M  V30 4237 O 427.317 0.912745 -1.7953 0
M  V30 4238 C 424.382 1.26778 -3.22689 0
M  V30 4239 C 423.443 0.575038 -4.25431 0
M  V30 4240 C 422.676 1.55858 -5.10435 0
M  V30 4241 O 422.899 2.79129 -4.97437 0
M  V30 4242 O 421.833 1.09742 -5.91811 0
M  V30 4243 H 425.659 -0.461794 -3.00169 0
M  V30 4244 H 423.244 -0.291903 -1.46521 0
M  V30 4245 H 425.126 1.86457 -3.77904 0
M  V30 4246 H 423.801 1.94699 -2.586 0
M  V30 4247 H 422.708 -0.0622782 -3.74048 0
M  V30 4248 H 424.041 -0.062253 -4.92161 0
M  V30 4249 N 425.693 1.55336 -0.266172 0
M  V30 4250 C 426.64 2.22172 0.625165 0
M  V30 4251 C 427.61 1.19211 1.15663 0
M  V30 4252 O 428.795 1.47723 1.20758 0
M  V30 4253 C 425.935 2.93972 1.8076 0
M  V30 4254 C 425.048 4.11632 1.31084 0
M  V30 4255 C 424.183 4.71099 2.45436 0
M  V30 4256 C 423.222 5.8097 1.92718 0
M  V30 4257 N 422.359 6.34538 3.00509 0
M  V30 4258 H 427.199 2.9796 0.0485582 0
M  V30 4259 H 424.736 1.47095 0.0122024 0
M  V30 4260 H 426.694 3.33811 2.50251 0
M  V30 4261 H 425.324 2.20623 2.35638 0
M  V30 4262 H 424.376 3.76975 0.509326 0
M  V30 4263 H 425.688 4.90893 0.884633 0
M  V30 4264 H 424.842 5.13612 3.22936 0
M  V30 4265 H 423.581 3.91096 2.91368 0
M  V30 4266 H 422.586 5.37916 1.13695 0
M  V30 4267 H 423.811 6.62836 1.47733 0
M  V30 4268 H 421.757 5.57433 3.45839 0
M  V30 4269 H 421.674 7.09046 2.62279 0
M  V30 4270 H 422.942 6.81709 3.78011 0
M  V30 4271 N 427.171 -0.0066808 1.57599 0
M  V30 4272 C 428.42 -0.692078 1.89455 0
M  V30 4273 C 428.733 -1.75306 0.867586 0
M  V30 4274 O 429.939 -2.49262 1.07614 0
M  V30 4275 C 428.395 -1.2821 3.36289 0
M  V30 4276 C 428.003 -0.256291 4.47266 0
M  V30 4277 C 429.747 -1.94608 3.77264 0
M  V30 4278 C 427.654 -0.855927 5.85173 0
M  V30 4279 H 426.584 -0.262252 0.706923 0
M  V30 4280 H 429.235 0.052769 1.83424 0
M  V30 4281 H 427.617 -2.0774 3.37135 0
M  V30 4282 H 428.791 0.513923 4.57925 0
M  V30 4283 H 427.106 0.306862 4.15268 0
M  V30 4284 H 429.703 -2.40364 4.77629 0
M  V30 4285 H 430.046 -2.77382 3.10427 0
M  V30 4286 H 430.579 -1.21822 3.78688 0
M  V30 4287 H 427.318 -0.0671161 6.55466 0
M  V30 4288 H 426.838 -1.59546 5.78191 0
M  V30 4289 H 428.517 -1.35658 6.32618 0
M  V30 4290 N 428.649 -1.55105 -0.279332 0
M  V30 4291 C 429.596 -1.8755 -1.34513 0
M  V30 4292 C 430.566 -0.726384 -1.49375 0
M  V30 4293 O 431.751 -0.977063 -1.63884 0
M  V30 4294 C 428.891 -2.14738 -2.70151 0
M  V30 4295 C 428.004 -3.42285 -2.63562 0
M  V30 4296 C 427.139 -3.59206 -3.91337 0
M  V30 4297 C 426.178 -4.80467 -3.79233 0
M  V30 4298 N 425.315 -4.94079 -4.98829 0
M  V30 4299 H 430.155 -2.78456 -1.06143 0
M  V30 4300 H 427.692 -1.37867 -0.512936 0
M  V30 4301 H 429.65 -2.28501 -3.49061 0
M  V30 4302 H 428.28 -1.27075 -2.96735 0
M  V30 4303 H 427.332 -3.37029 -1.76397 0
M  V30 4304 H 428.644 -4.31328 -2.50515 0
M  V30 4305 H 427.798 -3.72751 -4.78687 0
M  V30 4306 H 426.537 -2.68337 -4.07243 0
M  V30 4307 H 425.542 -4.66932 -2.90266 0
M  V30 4308 H 426.767 -5.72765 -3.64852 0
M  V30 4309 H 424.713 -4.06139 -5.15158 0
M  V30 4310 H 424.63 -5.77156 -4.8829 0
M  V30 4311 H 425.898 -5.12003 -5.8777 0
M  V30 4312 N 430.127 0.543554 -1.4793 0
M  V30 4313 C 431.074 1.64942 -1.6144 0
M  V30 4314 C 432.044 1.59692 -0.456903 0
M  V30 4315 O 433.229 1.78321 -0.678688 0
M  V30 4316 C 430.369 3.03238 -1.64744 0
M  V30 4317 C 429.482 3.18823 -2.91506 0
M  V30 4318 C 428.617 4.47599 -2.86057 0
M  V30 4319 C 427.656 4.56664 -4.07584 0
M  V30 4320 N 426.793 5.76811 -4.00292 0
M  V30 4321 H 431.633 1.52733 -2.55884 0
M  V30 4322 H 429.17 0.7438 -1.2691 0
M  V30 4323 H 431.128 3.83339 -1.64641 0
M  V30 4324 H 429.758 3.1425 -0.738017 0
M  V30 4325 H 428.81 2.32064 -3.01414 0
M  V30 4326 H 430.122 3.21384 -3.81463 0
M  V30 4327 H 429.276 5.35975 -2.84281 0
M  V30 4328 H 428.015 4.47538 -1.93807 0
M  V30 4329 H 427.02 3.66697 -4.09651 0
M  V30 4330 H 428.245 4.58474 -5.00978 0
M  V30 4331 H 426.191 5.77673 -3.10853 0
M  V30 4332 H 426.108 5.80808 -4.8394 0
M  V30 4333 H 427.376 6.67512 -4.02553 0
M  V30 4334 N 431.605 1.3629 0.791371 0
M  V30 4335 C 432.537 1.26321 1.91248 0
M  V30 4336 C 433.55 0.18313 1.61767 0
M  V30 4337 O 434.739 0.437682 1.73051 0
M  V30 4338 C 431.839 0.925901 3.26007 0
M  V30 4339 C 431.012 2.10746 3.83281 0
M  V30 4340 C 430.071 1.74352 4.96475 0
M  V30 4341 O 429.097 2.46416 5.13096 0
M  V30 4342 N 430.299 0.676058 5.7655 0
M  V30 4343 H 433.064 2.22915 2.00323 0
M  V30 4344 H 430.625 1.29659 0.969546 0
M  V30 4345 H 432.617 0.663636 3.99222 0
M  V30 4346 H 431.187 0.0491581 3.12561 0
M  V30 4347 H 430.407 2.53264 3.02077 0
M  V30 4348 H 431.695 2.8969 4.18279 0
M  V30 4349 H 431.093 0.0776467 5.65647 0
M  V30 4350 H 429.65 0.473612 6.50077 0
M  V30 4351 N 433.083 -1.0153 1.20538 0
M  V30 4352 C 434.046 -2.0826 0.957098 0
M  V30 4353 C 435.046 -1.60657 -0.0678655 0
M  V30 4354 O 436.236 -1.73385 0.168332 0
M  V30 4355 C 433.368 -3.38033 0.441188 0
M  V30 4356 H 434.561 -2.31719 1.90384 0
M  V30 4357 H 432.114 -1.1835 1.02093 0
M  V30 4358 H 432.849 -3.20249 -0.510961 0
M  V30 4359 H 432.634 -3.73911 1.18038 0
M  V30 4360 H 434.124 -4.16613 0.287009 0
M  V30 4361 N 434.561 -1.01147 -1.20859 0
M  V30 4362 C 435.789 -0.716911 -1.94082 0
M  V30 4363 C 436.204 0.721568 -1.74467 0
M  V30 4364 O 435.561 1.48889 -1.05539 0
M  V30 4365 C 435.612 -1.03662 -3.46318 0
M  V30 4366 O 435.333 -2.4186 -3.65288 0
M  V30 4367 C 436.834 -0.762386 -4.36695 0
M  V30 4368 H 434.054 -0.26367 -0.617024 0
M  V30 4369 H 436.598 -1.35127 -1.53496 0
M  V30 4370 H 434.753 -0.447757 -3.84804 0
M  V30 4371 H 435.167 -2.53224 -4.59323 0
M  V30 4372 H 436.641 -1.03621 -5.42187 0
M  V30 4373 H 437.118 0.303514 -4.3815 0
M  V30 4374 H 437.724 -1.33316 -4.03865 0
M  V30 4375 N 436.039 1.36541 -0.78704 0
M  V30 4376 C 436.971 2.28761 -0.141773 0
M  V30 4377 C 437.984 1.49365 0.647599 0
M  V30 4378 O 439.173 1.71836 0.483173 0
M  V30 4379 C 436.273 3.28771 0.822368 0
M  V30 4380 C 435.446 4.3732 0.0835594 0
M  V30 4381 C 434.505 5.17307 0.963296 0
M  V30 4382 O 433.531 5.67638 0.421419 0
M  V30 4383 N 434.733 5.33515 2.28784 0
M  V30 4384 H 437.498 2.84777 -0.933919 0
M  V30 4385 H 435.059 1.48682 -0.640735 0
M  V30 4386 H 437.051 3.79169 1.41468 0
M  V30 4387 H 435.621 2.73412 1.5154 0
M  V30 4388 H 434.841 3.88118 -0.689809 0
M  V30 4389 H 436.129 5.0701 -0.426358 0
M  V30 4390 H 435.527 4.94234 2.75226 0
M  V30 4391 H 434.084 5.87165 2.82985 0
M  V30 4392 N 437.518 0.538854 1.48102 0
M  V30 4393 C 438.766 0.00798599 2.02098 0
M  V30 4394 C 439.087 -1.33922 1.41739 0
M  V30 4395 O 438.357 -1.86932 0.585934 0
M  V30 4396 H 436.937 -3.62179e-05 0.747 0
M  V30 4397 H 439.599 0.7047 1.81714 0
M  V30 4398 H 438.695 -0.0937672 3.11959 0
M  V30 4399 N 438.996 -1.55193 0.274407 0
M  V30 4400 C 440.273 -1.91584 -0.394331 0
M  V30 4401 C 440.653 -1.19858 -1.73774 0
M  V30 4402 O 440.001 -0.3252 -2.26174 0
M  V30 4403 C 440.211 -3.4487 -0.535311 0
M  V30 4404 C 441.559 -4.16636 -0.818534 0
M  V30 4405 O 442.583 -3.5076 -0.620146 0
M  V30 4406 O 441.442 -5.33209 -1.19792 0
M  V30 4407 H 438.536 -0.798349 -0.215794 0
M  V30 4408 H 441.082 -1.66646 0.320507 0
M  V30 4409 H 439.854 -3.89145 0.410141 0
M  V30 4410 H 439.477 -3.75759 -1.29964 0
M  V30 4411 N 440.474 -0.00167713 -1.576 0
M  V30 4412 C 441.384 1.00548 -2.1196 0
M  V30 4413 C 442.4 1.3758 -1.06526 0
M  V30 4414 O 443.576 1.46278 -1.38436 0
M  V30 4415 C 440.641 2.27809 -2.6135 0
M  V30 4416 C 439.702 1.97074 -3.81393 0
M  V30 4417 C 438.935 3.18267 -4.28417 0
M  V30 4418 O 439.158 4.30009 -3.74765 0
M  V30 4419 O 438.092 3.02167 -5.20556 0
M  V30 4420 H 441.918 0.573373 -2.98238 0
M  V30 4421 H 439.503 0.217255 -1.47812 0
M  V30 4422 H 441.385 3.02568 -2.93309 0
M  V30 4423 H 440.06 2.70254 -1.78169 0
M  V30 4424 H 438.967 1.19785 -3.54404 0
M  V30 4425 H 440.3 1.59464 -4.65652 0
M  V30 4426 N 441.952 1.55251 0.271103 0
M  V30 4427 C 442.882 1.9127 1.33933 0
M  V30 4428 C 443.863 0.77478 1.5143 0
M  V30 4429 O 445.048 1.03307 1.64442 0
M  V30 4430 C 442.178 2.18627 2.69851 0
M  V30 4431 C 441.132 3.34442 2.67081 0
M  V30 4432 C 440.458 3.47284 4.06569 0
M  V30 4433 C 441.758 4.70784 2.26185 0
M  V30 4434 H 443.452 2.80744 1.04035 0
M  V30 4435 H 440.998 1.35077 0.499017 0
M  V30 4436 H 442.951 2.42413 3.44694 0
M  V30 4437 H 441.675 1.25955 3.01335 0
M  V30 4438 H 440.334 3.10627 1.94695 0
M  V30 4439 H 439.982 2.52074 4.35279 0
M  V30 4440 H 439.682 4.25152 4.0561 0
M  V30 4441 H 441.206 3.73363 4.83148 0
M  V30 4442 H 442.62 4.94102 2.90751 0
M  V30 4443 H 441.017 5.51582 2.36384 0
M  V30 4444 H 442.087 4.69478 1.21319 0
M  V30 4445 N 443.43 -0.535701 1.48216 0
M  V30 4446 C 444.658 -1.31671 1.59594 0
M  V30 4447 C 445.073 -1.87083 0.254056 0
M  V30 4448 O 444.43 -1.66112 -0.755854 0
M  V30 4449 C 444.481 -2.47158 2.63809 0
M  V30 4450 O 444.202 -1.94032 3.92789 0
M  V30 4451 C 445.703 -3.39062 2.85573 0
M  V30 4452 H 442.923 -0.400623 0.538277 0
M  V30 4453 H 445.467 -0.646827 1.94001 0
M  V30 4454 H 443.622 -3.10043 2.32276 0
M  V30 4455 H 444.036 -2.69585 4.49916 0
M  V30 4456 H 445.51 -4.16459 3.62306 0
M  V30 4457 H 445.987 -3.93941 1.94184 0
M  V30 4458 H 446.593 -2.81975 3.18387 0
M  V30 4459 N 444.908 -1.36708 -0.784132 0
M  V30 4460 C 446.157 -1.30559 -1.53744 0
M  V30 4461 C 446.47 0.111374 -1.95283 0
M  V30 4462 O 447.676 0.29527 -2.6989 0
M  V30 4463 C 446.132 -2.29098 -2.77565 0
M  V30 4464 C 445.74 -3.76258 -2.43174 0
M  V30 4465 C 447.484 -2.31936 -3.55536 0
M  V30 4466 C 445.391 -4.6656 -3.63422 0
M  V30 4467 H 444.321 -0.48518 -0.577162 0
M  V30 4468 H 446.972 -1.62101 -0.859981 0
M  V30 4469 H 445.354 -1.90557 -3.47137 0
M  V30 4470 H 446.528 -4.23565 -1.81465 0
M  V30 4471 H 444.843 -3.76246 -1.78403 0
M  V30 4472 H 447.44 -2.9661 -4.44889 0
M  V30 4473 H 447.783 -1.3294 -3.94503 0
M  V30 4474 H 448.316 -2.6912 -2.92949 0
M  V30 4475 H 445.055 -5.66638 -3.29547 0
M  V30 4476 H 444.575 -4.23966 -4.24279 0
M  V30 4477 H 446.254 -4.8309 -4.30387 0
M  V30 4478 N 446.386 1.0089 -1.21074 0
M  V30 4479 C 447.333 2.09588 -0.966512 0
M  V30 4480 C 448.303 1.65761 0.106089 0
M  V30 4481 O 449.488 1.90758 -0.0402287 0
M  V30 4482 C 446.628 3.40958 -0.533058 0
M  V30 4483 C 445.741 3.9822 -1.67467 0
M  V30 4484 C 444.876 5.17682 -1.19076 0
M  V30 4485 C 443.915 5.67043 -2.30496 0
M  V30 4486 N 443.052 6.77759 -1.83267 0
M  V30 4487 H 447.892 2.29815 -1.89708 0
M  V30 4488 H 445.429 1.12689 -0.945489 0
M  V30 4489 H 447.387 4.1637 -0.263019 0
M  V30 4490 H 446.017 3.20781 0.360505 0
M  V30 4491 H 445.069 3.1983 -2.05944 0
M  V30 4492 H 446.381 4.3085 -2.51336 0
M  V30 4493 H 445.535 6.00326 -0.877151 0
M  V30 4494 H 444.274 4.86635 -0.322066 0
M  V30 4495 H 443.279 4.82999 -2.62664 0
M  V30 4496 H 444.504 6.00121 -3.17855 0
M  V30 4497 H 442.45 6.48527 -0.987356 0
M  V30 4498 H 442.367 7.09624 -2.60711 0
M  V30 4499 H 443.635 7.63949 -1.54928 0
M  V30 4500 N 447.864 1.01787 1.20321 0
M  V30 4501 C 448.797 0.533882 2.21867 0
M  V30 4502 C 449.775 -0.419361 1.57099 0
M  V30 4503 O 450.959 -0.339062 1.85426 0
M  V30 4504 C 448.086 -0.222899 3.37966 0
M  V30 4505 C 447.132 0.680091 4.21043 0
M  V30 4506 S 447.965 2.14997 4.90445 0
M  V30 4507 C 449.121 1.40339 6.09964 0
M  V30 4508 H 449.354 1.39429 2.62577 0
M  V30 4509 H 446.887 0.826867 1.30393 0
M  V30 4510 H 448.845 -0.653425 4.05266 0
M  V30 4511 H 447.506 -1.0589 2.95713 0
M  V30 4512 H 446.699 0.0964704 5.03908 0
M  V30 4513 H 446.301 1.04845 3.59004 0
M  V30 4514 H 448.593 0.68407 6.74038 0
M  V30 4515 H 449.536 2.20823 6.72787 0
M  V30 4516 H 449.944 0.905716 5.57187 0
M  V30 4517 N 449.342 -1.36122 0.79427 0
M  V30 4518 C 450.588 -1.99406 0.369452 0
M  V30 4519 C 450.921 -1.62886 -1.05743 0
M  V30 4520 O 450.196 -0.886053 -1.73145 0
M  V30 4521 C 450.479 -3.56046 0.538833 0
M  V30 4522 C 450.332 -4.02404 2.00976 0
M  V30 4523 C 451.651 -4.40079 -0.0431359 0
M  V30 4524 H 448.77 -0.724397 0.135712 0
M  V30 4525 H 451.412 -1.61461 1.00151 0
M  V30 4526 H 449.562 -3.885 0.000771004 0
M  V30 4527 H 451.234 -3.80415 2.60926 0
M  V30 4528 H 449.477 -3.53765 2.51063 0
M  V30 4529 H 450.148 -5.11344 2.07922 0
M  V30 4530 H 452.624 -4.14013 0.416228 0
M  V30 4531 H 451.5 -5.48799 0.105374 0
M  V30 4532 H 451.761 -4.27264 -1.13571 0
M  V30 4533 N 450.82 -0.546701 -1.47814 0
M  V30 4534 C 451.767 0.206854 -2.29871 0
M  V30 4535 C 452.737 0.918235 -1.38411 0
M  V30 4536 O 453.922 0.915991 -1.67375 0
M  V30 4537 C 451.062 1.23746 -3.22151 0
M  V30 4538 C 450.175 0.533216 -4.28697 0
M  V30 4539 C 449.31 1.5482 -5.08138 0
M  V30 4540 C 448.349 0.828347 -6.06469 0
M  V30 4541 N 447.486 1.78966 -6.78908 0
M  V30 4542 H 452.326 -0.499037 -2.93792 0
M  V30 4543 H 449.863 -0.25793 -1.44821 0
M  V30 4544 H 451.821 1.84746 -3.74065 0
M  V30 4545 H 450.451 1.91151 -2.60117 0
M  V30 4546 H 449.503 -0.191089 -3.7992 0
M  V30 4547 H 450.815 -0.0311987 -4.9879 0
M  V30 4548 H 449.969 2.23202 -5.6415 0
M  V30 4549 H 448.708 2.14652 -4.37922 0
M  V30 4550 H 447.713 0.130539 -5.49645 0
M  V30 4551 H 448.938 0.235907 -6.7869 0
M  V30 4552 H 446.884 2.37675 -6.1143 0
M  V30 4553 H 446.801 1.27712 -7.45135 0
M  V30 4554 H 448.069 2.46496 -7.395 0
M  V30 4555 N 452.299 1.55045 -0.282633 0
M  V30 4556 C 453.247 2.24254 0.617478 0
M  V30 4557 C 454.241 1.24215 1.15183 0
M  V30 4558 O 455.447 1.42123 1.10459 0
M  V30 4559 H 451.822 0.719801 0.217693 0
M  V30 4560 H 453.793 2.98398 0.0110076 0
M  V30 4561 C 452.542 2.98281 1.78672 0
M  V30 4562 H 451.865 3.75053 1.38475 0
M  V30 4563 H 453.305 3.50017 2.393 0
M  V30 4564 C 451.764 2.04184 2.67975 0
M  V30 4565 O 452.294 1.59792 3.6855 0
M  V30 4566 N 450.5 1.70526 2.35307 0
M  V30 4567 H 450.047 2.06821 1.53567 0
M  V30 4568 H 450.005 1.07839 2.95327 0
M  V30 4569 N 453.777 0.010035 1.57597 0
M  V30 4570 C 455.188 -0.531426 1.78977 0
M  V30 4571 C 455.539 -1.73375 0.918454 0
M  V30 4572 O 454.664 -2.16047 0.123635 0
M  V30 4573 C 455.259 -0.97086 3.24592 0
M  V30 4574 C 453.818 -1.45756 3.47033 0
M  V30 4575 C 452.965 -0.413384 2.74201 0
M  V30 4576 H 455.916 0.236166 1.56933 0
M  V30 4577 H 455.937 -1.83633 3.33255 0
M  V30 4578 H 455.449 -0.0955893 3.87982 0
M  V30 4579 H 453.55 -2.35339 2.88871 0
M  V30 4580 H 453.663 -1.4781 4.55729 0
M  V30 4581 H 452.027 -0.877266 2.39115 0
M  V30 4582 H 452.81 0.453092 3.40297 0
M  V30 4583 N 455.255 -1.55392 -0.262866 0
M  V30 4584 C 456.532 -1.67204 -1.01499 0
M  V30 4585 C 456.912 -0.545186 -2.03939 0
M  V30 4586 O 456.26 0.453467 -2.23955 0
M  V30 4587 C 456.47 -3.06847 -1.6627 0
M  V30 4588 C 457.818 -3.64928 -2.17054 0
M  V30 4589 O 458.842 -3.09545 -1.76239 0
M  V30 4590 O 457.701 -4.61984 -2.91947 0
M  V30 4591 H 454.795 -0.679467 -0.471438 0
M  V30 4592 H 457.341 -1.67729 -0.257918 0
M  V30 4593 H 456.113 -3.80309 -0.920915 0
M  V30 4594 H 455.736 -3.10266 -2.48638 0
M  V30 4595 N 456.733 0.527833 -1.48498 0
M  V30 4596 C 457.982 1.28003 -1.55878 0
M  V30 4597 C 458.295 1.9414 -0.238577 0
M  V30 4598 O 459.501 2.7083 -0.190643 0
M  V30 4599 C 457.957 2.32272 -2.74914 0
M  V30 4600 C 457.565 1.72196 -4.13585 0
M  V30 4601 C 459.309 3.08488 -2.91608 0
M  V30 4602 C 457.216 2.74417 -5.23879 0
M  V30 4603 H 456.146 0.481413 -0.580308 0
M  V30 4604 H 458.797 0.557195 -1.74836 0
M  V30 4605 H 457.179 3.07601 -2.49395 0
M  V30 4606 H 458.353 1.03041 -4.49132 0
M  V30 4607 H 456.668 1.08464 -4.02025 0
M  V30 4608 H 459.265 3.84879 -3.71177 0
M  V30 4609 H 459.608 3.64481 -2.01145 0
M  V30 4610 H 460.141 2.40274 -3.17038 0
M  V30 4611 H 456.88 2.23242 -6.16314 0
M  V30 4612 H 456.4 3.41893 -4.92818 0
M  V30 4613 H 458.079 3.37362 -5.52083 0
M  V30 4614 N 458.211 1.37122 0.776871 0
M  V30 4615 C 459.457 1.32243 1.53752 0
M  V30 4616 C 459.79 -0.0944745 1.9397 0
M  V30 4617 O 459.065 -1.05068 1.6368 0
M  V30 4618 C 459.348 2.25681 2.80607 0
M  V30 4619 C 459.201 3.76127 2.46676 0
M  V30 4620 C 460.52 2.17657 3.82509 0
M  V30 4621 H 457.639 0.481704 0.557791 0
M  V30 4622 H 460.281 1.6778 0.891612 0
M  V30 4623 H 458.431 1.95505 3.35723 0
M  V30 4624 H 460.103 4.16877 1.97513 0
M  V30 4625 H 458.346 3.94946 1.79443 0
M  V30 4626 H 459.017 4.36933 3.37333 0
M  V30 4627 H 461.493 2.44245 3.36873 0
M  V30 4628 H 460.369 2.85185 4.69 0
M  V30 4629 H 460.63 1.16785 4.26396 0
M  V30 4630 N 459.689 -1.00246 1.21608 0
M  V30 4631 C 460.652 -2.07233 0.979133 0
M  V30 4632 C 461.652 -1.6072 -0.0508219 0
M  V30 4633 O 462.842 -1.73196 0.186712 0
M  V30 4634 C 459.974 -3.37546 0.477016 0
M  V30 4635 H 461.167 -2.29687 1.92831 0
M  V30 4636 H 458.72 -1.17261 1.03342 0
M  V30 4637 H 459.455 -3.20773 -0.476966 0
M  V30 4638 H 459.24 -3.72638 1.21997 0
M  V30 4639 H 460.73 -4.16285 0.331181 0
M  V30 4640 N 461.167 -1.02423 -1.1978 0
M  V30 4641 C 462.415 -0.716569 -1.8897 0
M  V30 4642 C 462.736 0.756769 -1.79716 0
M  V30 4643 O 462.006 1.5449 -1.20456 0
M  V30 4644 H 460.586 -0.262062 -0.699523 0
M  V30 4645 H 463.248 -1.29747 -1.45436 0
M  V30 4646 H 462.344 -1.00675 -2.95417 0
M  V30 4647 N 462.645 1.35699 -0.801477 0
M  V30 4648 C 463.891 1.99208 -0.380022 0
M  V30 4649 C 464.224 1.63445 1.04878 0
M  V30 4650 O 463.499 0.895223 1.72673 0
M  V30 4651 C 463.782 3.55755 -0.557708 0
M  V30 4652 C 463.635 4.01332 -2.03107 0
M  V30 4653 C 464.954 4.40096 0.0197968 0
M  V30 4654 H 462.073 0.723667 -0.139552 0
M  V30 4655 H 464.715 1.60928 -1.01006 0
M  V30 4656 H 462.865 3.88494 -0.0213741 0
M  V30 4657 H 464.537 3.79026 -2.62939 0
M  V30 4658 H 462.78 3.52429 -2.52936 0
M  V30 4659 H 463.451 5.10234 -2.1063 0
M  V30 4660 H 465.927 4.13786 -0.438179 0
M  V30 4661 H 464.803 5.48735 -0.134477 0
M  V30 4662 H 465.064 4.2786 1.11303 0
M  V30 4663 N 464.123 0.554532 1.47522 0
M  V30 4664 C 465.086 -0.184174 2.28459 0
M  V30 4665 C 466.086 -0.845195 1.36796 0
M  V30 4666 O 467.276 -0.701467 1.59452 0
M  V30 4667 C 464.408 -1.26903 3.16399 0
M  V30 4668 H 465.601 0.526751 2.95238 0
M  V30 4669 H 463.154 0.311375 1.53167 0
M  V30 4670 H 463.889 -2.01244 2.54306 0
M  V30 4671 H 463.674 -0.799883 3.83854 0
M  V30 4672 H 465.164 -1.78794 3.77389 0
M  V30 4673 N 465.601 -1.54893 0.290851 0
M  V30 4674 C 466.564 -2.21824 -0.576784 0
M  V30 4675 C 467.564 -1.20104 -1.06919 0
M  V30 4676 O 468.754 -1.44906 -0.966843 0
M  V30 4677 C 465.886 -2.89662 -1.79747 0
M  V30 4678 H 467.079 -2.99899 0.00784051 0
M  V30 4679 H 464.632 -1.56245 0.0415934 0
M  V30 4680 H 465.367 -2.15639 -2.42219 0
M  V30 4681 H 465.152 -3.64219 -1.45214 0
M  V30 4682 H 466.642 -3.4075 -2.4141 0
M  V30 4683 N 467.08 -0.0183926 -1.57589 0
M  V30 4684 C 468.01 0.965596 -2.12599 0
M  V30 4685 C 468.991 1.34641 -1.0395 0
M  V30 4686 O 470.176 1.42693 -1.31729 0
M  V30 4687 C 467.306 2.25149 -2.64434 0
M  V30 4688 C 466.26 2.01175 -3.77773 0
M  V30 4689 C 465.586 3.35937 -4.15994 0
M  V30 4690 C 466.886 1.35953 -5.04296 0
M  V30 4691 H 468.58 0.507504 -2.95067 0
M  V30 4692 H 466.126 0.242671 -1.41941 0
M  V30 4693 H 468.079 2.94357 -3.01549 0
M  V30 4694 H 466.803 2.73105 -1.79112 0
M  V30 4695 H 465.462 1.34388 -3.4108 0
M  V30 4696 H 465.11 3.81631 -3.27669 0
M  V30 4697 H 464.81 3.20705 -4.92364 0
M  V30 4698 H 466.334 4.0643 -4.55683 0
M  V30 4699 H 467.748 1.95144 -5.39065 0
M  V30 4700 H 466.145 1.31152 -5.85593 0
M  V30 4701 H 467.215 0.331071 -4.83768 0
M  V30 4702 N 468.558 1.5553 0.254621 0
M  V30 4703 C 469.505 1.89666 1.31512 0
M  V30 4704 C 470.475 0.750057 1.482 0
M  V30 4705 O 471.66 1.00301 1.62309 0
M  V30 4706 C 468.8 2.19009 2.667 0
M  V30 4707 C 467.913 3.46435 2.58083 0
M  V30 4708 C 467.048 3.65386 3.85573 0
M  V30 4709 C 466.087 4.8644 3.71541 0
M  V30 4710 N 465.224 5.01952 4.90906 0
M  V30 4711 H 470.064 2.80109 1.017 0
M  V30 4712 H 467.601 1.38666 0.490938 0
M  V30 4713 H 469.559 2.34025 3.45381 0
M  V30 4714 H 468.189 1.31779 2.94676 0
M  V30 4715 H 467.241 3.39792 1.71013 0
M  V30 4716 H 468.553 4.35258 2.43622 0
M  V30 4717 H 467.707 3.80319 4.72697 0
M  V30 4718 H 466.446 2.74781 4.02922 0
M  V30 4719 H 465.451 4.71491 2.82801 0
M  V30 4720 H 466.676 5.78497 3.55694 0
M  V30 4721 H 464.622 4.14283 5.08631 0
M  V30 4722 H 464.539 5.84851 4.79046 0
M  V30 4723 H 465.807 5.21289 5.7955 0
M  V30 4724 N 470.036 -0.519951 1.48776 0
M  V30 4725 C 471.313 -1.28123 1.47797 0
M  V30 4726 C 471.693 -2.10196 0.195157 0
M  V30 4727 O 471.041 -2.13167 -0.822925 0
M  V30 4728 C 471.251 -2.15413 2.74587 0
M  V30 4729 C 472.599 -2.75225 3.23321 0
M  V30 4730 O 473.623 -2.25694 2.75574 0
M  V30 4731 O 472.482 -3.65346 4.06429 0
M  V30 4732 H 469.576 -0.578793 0.590701 0
M  V30 4733 H 472.122 -0.535779 1.6102 0
M  V30 4734 H 470.894 -1.54617 3.59457 0
M  V30 4735 H 470.517 -2.97186 2.64132 0
M  V30 4736 N 471.514 -1.37532 -0.769588 0
M  V30 4737 C 472.464 -1.29984 -1.87318 0
M  V30 4738 C 473.448 -0.187242 -1.59807 0
M  V30 4739 O 474.64 -0.421827 -1.719 0
M  V30 4740 C 471.769 -1.11126 -3.24817 0
M  V30 4741 C 470.855 -2.26939 -3.58273 0
M  V30 4742 N 471.246 -3.52336 -3.62895 0
M  V30 4743 C 469.544 -2.19141 -3.8845 0
M  V30 4744 C 470.245 -4.28719 -3.9316 0
M  V30 4745 N 469.221 -3.57884 -4.0917 0
M  V30 4746 H 473.023 -2.24946 -1.89147 0
M  V30 4747 H 470.537 -1.30535 -0.966143 0
M  V30 4748 H 472.534 -1.03803 -4.0377 0
M  V30 4749 H 471.194 -0.17083 -3.2425 0
M  V30 4750 H 472.205 -3.86216 -3.45048 0
M  V30 4751 H 468.882 -1.33167 -3.95693 0
M  V30 4752 H 470.272 -5.37254 -4.03494 0
M  V30 4753 N 472.992 0.995999 -1.22138 0
M  V30 4754 C 474.408 1.25917 -0.980667 0
M  V30 4755 C 474.608 1.98819 0.327604 0
M  V30 4756 O 473.664 2.29587 1.05101 0
M  V30 4757 C 474.977 2.07399 -2.17729 0
M  V30 4758 C 476.525 2.20594 -2.22052 0
M  V30 4759 C 477 3.05462 -3.41258 0
M  V30 4760 N 478.491 3.13049 -3.41401 0
M  V30 4761 C 479.226 3.78997 -4.30289 0
M  V30 4762 N 478.722 4.46899 -5.2939 0
M  V30 4763 N 480.515 3.75728 -4.18073 0
M  V30 4764 H 472.666 0.507158 -2.06256 0
M  V30 4765 H 474.929 0.28658 -0.903646 0
M  V30 4766 H 474.635 1.61191 -3.12586 0
M  V30 4767 H 474.509 3.08154 -2.17534 0
M  V30 4768 H 476.896 2.66017 -1.27745 0
M  V30 4769 H 476.977 1.1928 -2.26287 0
M  V30 4770 H 476.621 2.60739 -4.35864 0
M  V30 4771 H 476.551 4.06911 -3.34262 0
M  V30 4772 H 479.042 2.64721 -2.69688 0
M  V30 4773 H 479.355 4.94952 -5.935 0
M  V30 4774 H 477.7 4.45657 -5.33306 0
M  V30 4775 H 480.891 3.2184 -3.39907 0
M  V30 4776 H 481.064 4.26845 -4.87553 0
M  V30 4777 N 474.47 1.03057 1.19235 0
M  V30 4778 C 475.881 0.757449 1.70645 0
M  V30 4779 C 476.232 -0.722735 1.82403 0
M  V30 4780 O 475.357 -1.56325 1.49638 0
M  V30 4781 C 475.952 1.36833 3.09939 0
M  V30 4782 C 474.511 1.14375 3.58602 0
M  V30 4783 C 473.658 1.46533 2.35422 0
M  V30 4784 H 476.609 1.19828 1.04052 0
M  V30 4785 H 476.63 0.766184 3.72706 0
M  V30 4786 H 476.142 2.44562 3.01349 0
M  V30 4787 H 474.243 0.0847542 3.72504 0
M  V30 4788 H 474.356 1.83366 4.42622 0
M  V30 4789 H 472.72 0.884712 2.38841 0
M  V30 4790 H 473.503 2.55349 2.2946 0
M  V30 4791 N 475.948 -1.35272 0.808662 0
M  V30 4792 C 477.178 -2.02652 0.401953 0
M  V30 4793 C 477.586 -1.6108 -0.992462 0
M  V30 4794 O 476.929 -0.804984 -1.65123 0
M  V30 4795 C 476.991 -3.57174 0.408246 0
M  V30 4796 C 476.655 -4.22019 1.75353 0
M  V30 4797 C 477.652 -4.43552 2.71215 0
M  V30 4798 C 475.337 -4.59093 2.03811 0
M  V30 4799 C 477.331 -5.01264 3.93717 0
M  V30 4800 C 475.018 -5.16519 3.26576 0
M  V30 4801 C 476.016 -5.37546 4.21347 0
M  V30 4802 O 475.704 -5.93761 5.41944 0
M  V30 4803 H 475.436 -0.656495 0.161216 0
M  V30 4804 H 477.99 -1.73829 1.0942 0
M  V30 4805 H 476.22 -3.85197 -0.340608 0
M  V30 4806 H 477.909 -4.05893 0.0235623 0
M  V30 4807 H 478.675 -4.15288 2.50522 0
M  V30 4808 H 474.554 -4.42039 1.30854 0
M  V30 4809 H 478.098 -5.17592 4.67701 0
M  V30 4810 H 473.995 -5.4421 3.47139 0
M  V30 4811 H 474.763 -6.1221 5.43269 0
M  V30 4812 N 477.426 -0.562348 -1.47226 0
M  V30 4813 C 478.672 -0.0402761 -2.0276 0
M  V30 4814 C 479.005 1.30823 -1.43523 0
M  V30 4815 O 478.28 1.85249 -0.592705 0
M  V30 4816 C 478.563 0.047311 -3.60069 0
M  V30 4817 C 478.416 -1.32865 -4.29729 0
M  V30 4818 C 479.735 0.758182 -4.3352 0
M  V30 4819 H 476.854 -0.0161105 -0.736824 0
M  V30 4820 H 479.496 -0.725628 -1.75598 0
M  V30 4821 H 477.646 0.630986 -3.83342 0
M  V30 4822 H 479.318 -1.95593 -4.17781 0
M  V30 4823 H 477.561 -1.90195 -3.89882 0
M  V30 4824 H 478.232 -1.22004 -5.38349 0
M  V30 4825 H 480.708 0.262546 -4.15271 0
M  V30 4826 H 479.584 0.78844 -5.43208 0
M  V30 4827 H 479.845 1.81537 -4.03109 0
M  V30 4828 N 478.904 1.54736 -0.299062 0
M  V30 4829 C 480.15 2.00397 0.311244 0
M  V30 4830 C 480.483 1.18716 1.53688 0
M  V30 4831 O 479.758 0.263154 1.92712 0
M  V30 4832 C 480.041 3.53817 0.669761 0
M  V30 4833 C 479.894 4.46239 -0.564882 0
M  V30 4834 C 481.213 4.13856 1.49702 0
M  V30 4835 H 478.332 0.728493 0.111653 0
M  V30 4836 H 480.974 1.85506 -0.410774 0
M  V30 4837 H 479.124 3.66637 1.28491 0
M  V30 4838 H 480.796 4.45328 -1.20337 0
M  V30 4839 H 479.039 4.16916 -1.19849 0
M  V30 4840 H 479.71 5.5134 -0.269918 0
M  V30 4841 H 482.186 4.04461 0.977284 0
M  V30 4842 H 481.062 5.21365 1.71666 0
M  V30 4843 H 481.323 3.65608 2.48563 0
M  V30 4844 N 480.382 0.0267497 1.57577 0
M  V30 4845 C 481.63 -0.651116 1.91324 0
M  V30 4846 C 481.951 -1.72804 0.90353 0
M  V30 4847 O 481.221 -1.95822 -0.0552946 0
M  V30 4848 H 479.801 -0.243491 0.706202 0
M  V30 4849 H 482.463 0.0739935 1.94759 0
M  V30 4850 H 481.559 -1.10536 2.9187 0
M  V30 4851 N 481.861 -1.55662 -0.24637 0
M  V30 4852 C 483.108 -1.77519 -0.974335 0
M  V30 4853 C 483.436 -0.591165 -1.85298 0
M  V30 4854 O 482.691 0.425497 -1.91018 0
M  V30 4855 C 482.99 -3.04885 -1.86494 0
M  V30 4856 C 482.656 -4.36209 -1.14161 0
M  V30 4857 C 481.318 -4.71896 -0.941701 0
M  V30 4858 C 483.67 -5.17391 -0.628957 0
M  V30 4859 C 480.998 -5.86299 -0.216852 0
M  V30 4860 C 483.35 -6.32546 0.0824273 0
M  V30 4861 C 482.014 -6.66853 0.293807 0
M  V30 4862 H 481.284 -0.649588 -0.356535 0
M  V30 4863 H 483.931 -1.89934 -0.244394 0
M  V30 4864 H 482.236 -2.87484 -2.66196 0
M  V30 4865 H 483.933 -3.18994 -2.42989 0
M  V30 4866 H 480.523 -4.08174 -1.30736 0
M  V30 4867 H 484.707 -4.90276 -0.770943 0
M  V30 4868 H 479.963 -6.11385 -0.0426124 0
M  V30 4869 H 484.137 -6.94693 0.487292 0
M  V30 4870 H 481.764 -7.55349 0.857428 0
M  V30 4871 N 483.339 0.512053 -1.4905 0
M  V30 4872 C 484.302 1.59704 -1.64399 0
M  V30 4873 C 485.302 1.52285 -0.516317 0
M  V30 4874 O 486.492 1.55635 -0.782527 0
M  V30 4875 C 483.624 2.9935 -1.63102 0
M  V30 4876 H 484.817 1.47428 -2.61161 0
M  V30 4877 H 482.37 0.735469 -1.37915 0
M  V30 4878 H 483.105 3.17116 -0.678836 0
M  V30 4879 H 482.89 3.06144 -2.44986 0
M  V30 4880 H 484.38 3.782 -1.77072 0
M  V30 4881 N 484.817 1.37938 0.762283 0
M  V30 4882 C 485.78 1.34279 1.85747 0
M  V30 4883 C 486.78 0.244969 1.58923 0
M  V30 4884 O 487.97 0.501365 1.66829 0
M  V30 4885 C 485.102 1.08833 3.23061 0
M  V30 4886 H 486.295 2.31705 1.90401 0
M  V30 4887 H 483.848 1.23105 0.963057 0
M  V30 4888 H 484.583 0.119767 3.24079 0
M  V30 4889 H 484.368 1.88306 3.43923 0
M  V30 4890 H 485.858 1.08946 4.03138 0
M  V30 4891 N 486.295 -0.989507 1.22664 0
M  V30 4892 C 487.205 -2.11449 1.01619 0
M  V30 4893 C 488.221 -1.73962 -0.036545 0
M  V30 4894 O 489.397 -2.00788 0.156924 0
M  V30 4895 C 486.462 -3.41465 0.600204 0
M  V30 4896 C 485.523 -3.93033 1.72695 0
M  V30 4897 C 484.756 -5.16844 1.33071 0
M  V30 4898 O 484.979 -5.7001 0.210975 0
M  V30 4899 O 483.913 -5.6225 2.14845 0
M  V30 4900 H 487.739 -2.32088 1.9588 0
M  V30 4901 H 485.324 -1.09823 1.01289 0
M  V30 4902 H 487.206 -4.19695 0.37873 0
M  V30 4903 H 485.881 -3.22178 -0.313511 0
M  V30 4904 H 484.788 -3.15961 2.00298 0
M  V30 4905 H 486.121 -4.16758 2.61865 0
M  V30 4906 N 487.773 -1.03688 -1.18687 0
M  V30 4907 C 489.001 -0.757918 -1.92518 0
M  V30 4908 C 489.416 0.684398 -1.75959 0
M  V30 4909 O 488.773 1.46617 -1.08673 0
M  V30 4910 C 488.824 -1.10985 -3.44042 0
M  V30 4911 O 488.545 -2.49554 -3.60076 0
M  V30 4912 C 490.046 -0.854844 -4.3498 0
M  V30 4913 H 487.266 -0.276699 -0.611293 0
M  V30 4914 H 489.81 -1.38352 -1.50595 0
M  V30 4915 H 487.965 -0.529279 -3.83767 0
M  V30 4916 H 488.379 -2.6291 -4.53849 0
M  V30 4917 H 489.853 -1.15098 -5.39867 0
M  V30 4918 H 490.33 0.210507 -4.38695 0
M  V30 4919 H 490.936 -1.41853 -4.00946 0
M  V30 4920 N 489.251 1.34841 -0.815825 0
M  V30 4921 C 490.199 2.31549 -0.220888 0
M  V30 4922 C 491.193 1.5707 0.634457 0
M  V30 4923 O 492.399 1.72125 0.526589 0
M  V30 4924 H 488.774 0.750153 -0.0526782 0
M  V30 4925 H 490.745 2.7926 -1.05149 0
M  V30 4926 C 489.494 3.42335 0.608427 0
M  V30 4927 H 488.817 3.9978 -0.0404121 0
M  V30 4928 H 490.257 4.12258 0.990931 0
M  V30 4929 C 488.716 2.86173 1.77782 0
M  V30 4930 O 489.246 2.80474 2.87571 0
M  V30 4931 N 487.452 2.43093 1.59229 0
M  V30 4932 H 486.999 2.47928 0.699237 0
M  V30 4933 H 486.957 2.05866 2.37627 0
M  V30 4934 N 490.729 0.570148 1.46925 0
M  V30 4935 C 491.677 -0.183181 2.31878 0
M  V30 4936 C 492.671 -0.896721 1.43719 0
M  V30 4937 O 493.877 -0.816536 1.60414 0
M  V30 4938 H 490.252 -0.077944 0.74795 0
M  V30 4939 H 492.223 0.552312 2.93244 0
M  V30 4940 C 490.972 -1.19172 3.2664 0
M  V30 4941 H 490.295 -0.652088 3.94446 0
M  V30 4942 H 491.735 -1.68946 3.88887 0
M  V30 4943 C 490.194 -2.24627 2.51086 0
M  V30 4944 O 490.724 -3.31773 2.26472 0
M  V30 4945 N 488.93 -1.98898 2.11867 0
M  V30 4946 H 488.477 -1.11777 2.32086 0
M  V30 4947 H 488.435 -2.6967 1.61634 0
M  V30 4948 N 492.207 -1.54576 0.307264 0
M  V30 4949 C 493.453 -2.0056 -0.300612 0
M  V30 4950 C 493.786 -1.1953 -1.53057 0
M  V30 4951 O 493.061 -0.27337 -1.92569 0
M  V30 4952 C 493.344 -3.54167 -0.650987 0
M  V30 4953 C 493.197 -4.45933 0.588539 0
M  V30 4954 C 494.516 -4.14645 -1.47506 0
M  V30 4955 H 491.635 -0.729075 -0.107788 0
M  V30 4956 H 494.277 -1.85286 0.420606 0
M  V30 4957 H 492.427 -3.67313 -1.26544 0
M  V30 4958 H 494.099 -4.44683 1.22697 0
M  V30 4959 H 492.342 -4.16274 1.22058 0
M  V30 4960 H 493.013 -5.51189 0.299153 0
M  V30 4961 H 495.489 -4.04973 -0.955821 0
M  V30 4962 H 494.365 -5.22269 -1.68899 0
M  V30 4963 H 494.626 -3.66921 -2.4662 0
M  V30 4964 N 493.685 -0.035106 -1.57561 0
M  V30 4965 C 494.595 0.960295 -2.14046 0
M  V30 4966 C 495.611 1.3529 -1.0942 0
M  V30 4967 O 496.787 1.43309 -1.41508 0
M  V30 4968 C 493.852 2.22214 -2.66124 0
M  V30 4969 C 492.913 1.8894 -3.85487 0
M  V30 4970 C 492.146 3.09109 -4.35072 0
M  V30 4971 O 492.369 4.21963 -3.83802 0
M  V30 4972 O 491.303 2.91058 -5.26848 0
M  V30 4973 H 495.129 0.509983 -2.99387 0
M  V30 4974 H 492.714 0.185853 -1.48239 0
M  V30 4975 H 494.596 2.96279 -2.99661 0
M  V30 4976 H 493.271 2.66414 -1.83862 0
M  V30 4977 H 492.178 1.12241 -3.56865 0
M  V30 4978 H 493.511 1.49551 -4.6893 0
M  V30 4979 N 495.163 1.55791 0.238111 0
M  V30 4980 C 496.073 1.94196 1.31625 0
M  V30 4981 C 497.089 0.843545 1.52185 0
M  V30 4982 O 498.265 1.1457 1.65637 0
M  V30 4983 C 495.33 2.2365 2.64918 0
M  V30 4984 C 494.391 3.46971 2.52804 0
M  V30 4985 C 493.624 3.7501 3.79741 0
M  V30 4986 O 493.847 3.04982 4.82019 0
M  V30 4987 O 492.781 4.68525 3.77846 0
M  V30 4988 H 496.607 2.86044 1.02043 0
M  V30 4989 H 494.192 1.42786 0.439603 0
M  V30 4990 H 496.074 2.43863 3.4367 0
M  V30 4991 H 494.749 1.34979 2.94215 0
M  V30 4992 H 493.656 3.32055 1.72309 0
M  V30 4993 H 494.989 4.35971 2.28451 0
M  V30 4994 N 496.642 -0.504142 1.49319 0
M  V30 4995 C 497.872 -1.28071 1.62116 0
M  V30 4996 C 498.28 -1.86955 0.290566 0
M  V30 4997 O 497.623 -1.68415 -0.733616 0
M  V30 4998 C 497.685 -2.4521 2.62893 0
M  V30 4999 C 497.349 -2.07218 4.0732 0
M  V30 5000 C 498.346 -1.61375 4.94221 0
M  V30 5001 C 496.031 -2.16949 4.53033 0
M  V30 5002 C 498.025 -1.25763 6.2487 0
M  V30 5003 C 495.712 -1.80949 5.83696 0
M  V30 5004 C 496.71 -1.3543 6.69438 0
M  V30 5005 O 496.398 -0.99915 7.97667 0
M  V30 5006 H 496.13 -0.394763 0.54876 0
M  V30 5007 H 498.684 -0.612118 1.96067 0
M  V30 5008 H 496.914 -3.15134 2.24115 0
M  V30 5009 H 498.603 -3.0724 2.65252 0
M  V30 5010 H 499.369 -1.53306 4.60133 0
M  V30 5011 H 495.248 -2.5133 3.86463 0
M  V30 5012 H 498.792 -0.901631 6.91749 0
M  V30 5013 H 494.689 -1.88667 6.17313 0
M  V30 5014 H 495.457 -1.13089 8.1065 0
M  V30 5015 N 498.12 -1.38341 -0.754957 0
M  V30 5016 C 499.083 -1.35262 -1.85032 0
M  V30 5017 C 500.083 -0.253393 -1.58791 0
M  V30 5018 O 501.273 -0.510205 -1.66561 0
M  V30 5019 C 498.405 -1.10544 -3.22479 0
M  V30 5020 H 499.598 -2.32712 -1.8917 0
M  V30 5021 H 497.151 -1.23614 -0.956515 0
M  V30 5022 H 497.886 -0.136952 -3.24011 0
M  V30 5023 H 497.671 -1.90127 -3.4292 0
M  V30 5024 H 499.161 -1.11082 -4.02555 0
M  V30 5025 N 499.598 0.982988 -1.23187 0
M  V30 5026 C 501.014 1.2487 -0.993967 0
M  V30 5027 C 501.214 1.99155 0.306498 0
M  V30 5028 O 500.27 2.30688 1.0266 0
M  V30 5029 C 501.583 2.05078 -2.19917 0
M  V30 5030 C 503.131 2.18227 -2.2438 0
M  V30 5031 C 503.606 3.01825 -3.44479 0
M  V30 5032 N 505.097 3.09411 -3.44702 0
M  V30 5033 C 505.832 3.74412 -4.34285 0
M  V30 5034 N 505.328 4.41259 -5.341 0
M  V30 5035 N 507.121 3.71273 -4.22035 0
M  V30 5036 H 499.272 0.485253 -2.06783 0
M  V30 5037 H 501.535 0.276979 -0.906635 0
M  V30 5038 H 501.241 1.57867 -3.14279 0
M  V30 5039 H 501.115 3.05829 -2.2079 0
M  V30 5040 H 503.502 2.64648 -1.30559 0
M  V30 5041 H 503.583 1.16873 -2.2754 0
M  V30 5042 H 503.227 2.56102 -4.38605 0
M  V30 5043 H 503.157 4.03342 -3.38559 0
M  V30 5044 H 505.648 2.61845 -2.7248 0
M  V30 5045 H 505.961 4.88629 -5.98717 0
M  V30 5046 H 504.306 4.39975 -5.38002 0
M  V30 5047 H 507.497 3.18217 -3.43301 0
M  V30 5048 H 507.67 4.21649 -4.92053 0
M  V30 5049 N 501.076 1.04316 1.18135 0
M  V30 5050 C 502.008 0.594444 2.21357 0
M  V30 5051 C 503.021 -0.337215 1.59269 0
M  V30 5052 O 504.21 -0.131337 1.78016 0
M  V30 5053 C 501.31 -0.151251 3.38562 0
M  V30 5054 C 500.483 0.788907 4.30227 0
M  V30 5055 C 499.542 0.0860572 5.2613 0
M  V30 5056 O 498.568 0.717302 5.64662 0
M  V30 5057 N 499.77 -1.17969 5.68387 0
M  V30 5058 H 502.535 1.48227 2.60478 0
M  V30 5059 H 500.096 0.92396 1.32946 0
M  V30 5060 H 502.088 -0.631352 3.99745 0
M  V30 5061 H 500.658 -0.940639 2.98112 0
M  V30 5062 H 499.878 1.44882 3.6661 0
M  V30 5063 H 501.166 1.42738 4.88368 0
M  V30 5064 H 500.564 -1.71302 5.3914 0
M  V30 5065 H 499.121 -1.60402 6.31755 0
M  V30 5066 N 502.554 -1.34406 0.822964 0
M  V30 5067 C 503.501 -2.29519 0.24284 0
M  V30 5068 C 504.471 -1.5359 -0.632397 0
M  V30 5069 O 505.656 -1.8196 -0.57403 0
M  V30 5070 C 502.796 -3.40032 -0.58925 0
M  V30 5071 C 501.909 -4.30899 0.308236 0
M  V30 5072 C 501.044 -5.28515 -0.533425 0
M  V30 5073 C 500.083 -6.1102 0.363444 0
M  V30 5074 N 499.22 -7.00725 -0.439147 0
M  V30 5075 H 504.06 -2.78537 1.05929 0
M  V30 5076 H 501.597 -1.3707 0.533872 0
M  V30 5077 H 503.555 -4.0279 -1.087 0
M  V30 5078 H 502.185 -2.92248 -1.37081 0
M  V30 5079 H 501.237 -3.69002 0.924203 0
M  V30 5080 H 502.549 -4.88717 0.997862 0
M  V30 5081 H 501.703 -5.96725 -1.09565 0
M  V30 5082 H 500.442 -4.71235 -1.25656 0
M  V30 5083 H 499.447 -5.41743 0.937812 0
M  V30 5084 H 500.672 -6.70381 1.08469 0
M  V30 5085 H 498.618 -6.45913 -1.14595 0
M  V30 5086 H 498.535 -7.55756 0.19209 0
M  V30 5087 H 499.803 -7.73263 -0.984124 0
M  V30 5088 N 504.032 -0.577932 -1.46621 0
M  V30 5089 C 505.448 -0.239242 -1.57797 0
M  V30 5090 C 505.648 1.25843 -1.57371 0
M  V30 5091 O 504.704 2.03988 -1.48813 0
M  V30 5092 C 506.017 -0.884227 -2.87405 0
M  V30 5093 C 507.565 -0.857373 -3.01028 0
M  V30 5094 C 508.04 -1.48181 -4.33366 0
M  V30 5095 N 509.531 -1.44593 -4.40053 0
M  V30 5096 C 510.266 -1.89852 -5.41058 0
M  V30 5097 N 509.762 -2.43062 -6.48762 0
M  V30 5098 N 511.555 -1.80797 -5.3223 0
M  V30 5099 H 503.706 -1.55073 -1.45142 0
M  V30 5100 H 505.969 -0.647903 -0.692044 0
M  V30 5101 H 505.675 -1.93759 -2.93514 0
M  V30 5102 H 505.549 -0.389585 -3.75183 0
M  V30 5103 H 507.936 0.187357 -2.94505 0
M  V30 5104 H 508.017 -1.38999 -2.14739 0
M  V30 5105 H 507.661 -2.52572 -4.40647 0
M  V30 5106 H 507.591 -0.924464 -5.18422 0
M  V30 5107 H 510.082 -1.05694 -3.62819 0
M  V30 5108 H 510.395 -2.75466 -7.22038 0
M  V30 5109 H 508.74 -2.47085 -6.49595 0
M  V30 5110 H 511.931 -1.38989 -4.46989 0
M  V30 5111 H 512.104 -2.16385 -6.10804 0
M  V30 5112 N 505.51 1.54411 -0.315457 0
M  V30 5113 C 506.759 1.99599 0.290395 0
M  V30 5114 C 507.072 1.20746 1.53882 0
M  V30 5115 O 508.278 1.56272 2.22017 0
M  V30 5116 C 506.734 3.5539 0.56797 0
M  V30 5117 C 506.342 4.43068 -0.662945 0
M  V30 5118 C 508.086 4.09067 1.13422 0
M  V30 5119 C 505.993 5.90317 -0.357722 0
M  V30 5120 H 504.923 0.745592 0.112286 0
M  V30 5121 H 507.574 1.78477 -0.426418 0
M  V30 5122 H 505.956 3.72468 1.34476 0
M  V30 5123 H 507.13 4.37765 -1.43869 0
M  V30 5124 H 505.445 4.00238 -1.14884 0
M  V30 5125 H 508.042 5.16663 1.37707 0
M  V30 5126 H 508.385 3.60552 2.08106 0
M  V30 5127 H 508.918 3.95589 0.418805 0
M  V30 5128 H 505.657 6.4301 -1.27351 0
M  V30 5129 H 505.177 5.98592 0.380472 0
M  V30 5130 H 506.856 6.4699 0.0354284 0
M  V30 5131 N 506.988 0.0434614 1.5754 0
M  V30 5132 C 508.404 -0.313039 1.565 0
M  V30 5133 C 508.604 -1.71954 1.05043 0
M  V30 5134 O 507.66 -2.425 0.703564 0
M  V30 5135 C 508.973 -0.148544 3.00333 0
M  V30 5136 C 510.521 -0.220231 3.12224 0
M  V30 5137 C 510.996 -0.0843565 4.57922 0
M  V30 5138 N 512.487 -0.140881 4.62986 0
M  V30 5139 C 513.222 -0.0597443 5.73369 0
M  V30 5140 N 512.718 0.0733004 6.92761 0
M  V30 5141 N 514.511 -0.11477 5.61983 0
M  V30 5142 H 506.662 0.96303 1.89313 0
M  V30 5143 H 508.925 0.373164 0.871466 0
M  V30 5144 H 508.631 0.820894 3.41986 0
M  V30 5145 H 508.505 -0.912798 3.65989 0
M  V30 5146 H 510.892 -1.18014 2.70475 0
M  V30 5147 H 510.973 0.574646 2.49262 0
M  V30 5148 H 510.617 0.872192 5.00355 0
M  V30 5149 H 510.547 -0.898281 5.18882 0
M  V30 5150 H 513.038 -0.243273 3.77116 0
M  V30 5151 H 513.351 0.128128 7.72694 0
M  V30 5152 H 511.696 0.10828 6.94916 0
M  V30 5153 H 514.887 -0.217212 4.67596 0
M  V30 5154 H 515.06 -0.0480779 6.47982 0
M  V30 5155 N 508.466 -1.55915 -0.229846 0
M  V30 5156 C 509.413 -1.91734 -1.28478 0
M  V30 5157 C 510.383 -0.773539 -1.46988 0
M  V30 5158 O 511.568 -1.02871 -1.60693 0
M  V30 5159 C 508.708 -2.23224 -2.63182 0
M  V30 5160 C 507.821 -3.50497 -2.52539 0
M  V30 5161 C 506.956 -3.71474 -3.79711 0
M  V30 5162 C 505.995 -4.92289 -3.63755 0
M  V30 5163 N 505.132 -5.09698 -4.82858 0
M  V30 5164 H 509.972 -2.81692 -0.972308 0
M  V30 5165 H 507.509 -1.39429 -0.468815 0
M  V30 5166 H 509.467 -2.3949 -3.41614 0
M  V30 5167 H 508.097 -1.36451 -2.92542 0
M  V30 5168 H 507.149 -3.4247 -1.65585 0
M  V30 5169 H 508.461 -4.39079 -2.36666 0
M  V30 5170 H 507.615 -3.87791 -4.66586 0
M  V30 5171 H 506.354 -2.81157 -3.985 0
M  V30 5172 H 505.359 -4.7593 -2.75264 0
M  V30 5173 H 506.584 -5.84083 -3.46445 0
M  V30 5174 H 504.53 -4.22322 -5.01976 0
M  V30 5175 H 504.447 -5.92399 -4.69681 0
M  V30 5176 H 505.715 -5.30443 -5.71183 0
M  V30 5177 N 509.944 0.496216 -1.49584 0
M  V30 5178 C 510.892 1.61805 -1.67098 0
M  V30 5179 C 511.886 1.60667 -0.536877 0
M  V30 5180 O 513.092 1.65118 -0.716654 0
M  V30 5181 H 509.467 0.53646 -0.526986 0
M  V30 5182 H 511.438 1.44187 -2.61252 0
M  V30 5183 C 510.187 2.99912 -1.75921 0
M  V30 5184 H 509.51 3.01496 -2.62565 0
M  V30 5185 H 510.95 3.77931 -1.92209 0
M  V30 5186 C 509.409 3.33092 -0.505088 0
M  V30 5187 O 509.939 4.00019 0.367085 0
M  V30 5188 N 508.145 2.88278 -0.366599 0
M  V30 5189 H 507.692 2.33989 -1.07735 0
M  V30 5190 H 507.65 3.10846 0.47142 0
M  V30 5191 N 511.423 1.38739 0.74761 0
M  V30 5192 C 512.353 1.39173 1.87492 0
M  V30 5193 C 513.334 0.256794 1.6815 0
M  V30 5194 O 514.519 0.460762 1.88655 0
M  V30 5195 C 511.649 1.22197 3.25093 0
M  V30 5196 C 510.603 2.32957 3.59047 0
M  V30 5197 C 509.929 2.01082 4.95449 0
M  V30 5198 C 511.229 3.75237 3.6331 0
M  V30 5199 H 512.923 2.3351 1.87386 0
M  V30 5200 H 510.469 1.12399 0.900134 0
M  V30 5201 H 512.422 1.21124 4.03617 0
M  V30 5202 H 511.146 0.243241 3.25693 0
M  V30 5203 H 509.805 2.33226 2.82845 0
M  V30 5204 H 509.453 1.01678 4.92616 0
M  V30 5205 H 509.153 2.75267 5.19136 0
M  V30 5206 H 510.677 2.01638 5.76346 0
M  V30 5207 H 512.091 3.76966 4.31937 0
M  V30 5208 H 510.488 4.48677 3.98509 0
M  V30 5209 H 511.558 4.07122 2.634 0
M  V30 5210 N 512.901 -0.976442 1.23707 0
M  V30 5211 C 514.178 -1.69296 0.979699 0
M  V30 5212 C 514.558 -2.0508 -0.500555 0
M  V30 5213 O 513.906 -1.74708 -1.47273 0
M  V30 5214 C 514.116 -2.93143 1.89389 0
M  V30 5215 C 515.464 -3.65572 2.15968 0
M  V30 5216 O 516.488 -3.03184 1.86971 0
M  V30 5217 O 515.347 -4.77859 2.65167 0
M  V30 5218 H 512.441 -0.739708 0.369812 0
M  V30 5219 H 514.987 -1.03131 1.34767 0
M  V30 5220 H 513.759 -2.63327 2.89439 0
M  V30 5221 H 513.382 -3.67044 1.52854 0
M  V30 5222 N 514.379 -1.04941 -1.1758 0
M  V30 5223 C 515.309 -0.669172 -2.23706 0
M  V30 5224 C 516.29 0.331835 -1.66832 0
M  V30 5225 O 517.475 0.209988 -1.93061 0
M  V30 5226 C 514.605 -0.0404889 -3.47276 0
M  V30 5227 C 513.559 -0.965983 -4.16957 0
M  V30 5228 C 512.885 -0.201312 -5.34321 0
M  V30 5229 C 514.185 -2.28902 -4.69469 0
M  V30 5230 H 515.879 -1.55639 -2.55767 0
M  V30 5231 H 513.425 -0.749793 -1.22939 0
M  V30 5232 H 515.378 0.237298 -4.20731 0
M  V30 5233 H 514.102 0.881658 -3.14475 0
M  V30 5234 H 512.761 -1.22829 -3.45411 0
M  V30 5235 H 512.409 0.723519 -4.97769 0
M  V30 5236 H 512.109 -0.817968 -5.81879 0
M  V30 5237 H 513.633 0.0692499 -6.10561 0
M  V30 5238 H 515.047 -2.07132 -5.34574 0
M  V30 5239 H 513.444 -2.85942 -5.27596 0
M  V30 5240 H 514.514 -2.92937 -3.86414 0
M  V30 5241 N 515.857 1.33968 -0.830081 0
M  V30 5242 C 517.106 1.97323 -0.417928 0
M  V30 5243 C 517.419 1.6652 1.02618 0
M  V30 5244 O 518.625 2.2342 1.54259 0
M  V30 5245 C 517.081 3.53099 -0.696359 0
M  V30 5246 C 516.689 3.92788 -2.15457 0
M  V30 5247 C 518.433 4.23049 -0.350724 0
M  V30 5248 C 516.34 5.41506 -2.37751 0
M  V30 5249 H 515.27 0.738409 -0.152541 0
M  V30 5250 H 517.921 1.52711 -1.01744 0
M  V30 5251 H 516.303 3.95991 -0.0265904 0
M  V30 5252 H 517.477 3.6098 -2.86408 0
M  V30 5253 H 515.792 3.35795 -2.46232 0
M  V30 5254 H 518.389 5.32403 -0.495036 0
M  V30 5255 H 518.732 4.10279 0.705476 0
M  V30 5256 H 519.265 3.85657 -0.975362 0
M  V30 5257 H 516.004 5.5927 -3.41903 0
M  V30 5258 H 515.524 5.74804 -1.7135 0
M  V30 5259 H 517.203 6.0828 -2.20465 0
M  V30 5260 N 517.335 0.585699 1.46312 0
M  V30 5261 C 518.575 0.0751432 2.04262 0
M  V30 5262 C 518.939 -1.26201 1.44697 0
M  V30 5263 O 520.14 -1.86198 1.93865 0
M  V30 5264 C 518.411 0.013478 3.57397 0
M  V30 5265 S 519.97 -0.439068 4.36598 0
M  V30 5266 H 516.788 0.0389228 0.709934 0
M  V30 5267 H 519.39 0.778871 1.79315 0
M  V30 5268 H 518.094 0.990558 3.98266 0
M  V30 5269 H 517.625 -0.712927 3.86886 0
M  V30 5270 H 519.64 -1.6932 4.66417 0
M  V30 5271 N 518.813 -1.54241 0.323641 0
M  V30 5272 C 519.776 -2.22997 -0.529602 0
M  V30 5273 C 520.776 -1.22345 -1.04347 0
M  V30 5274 O 521.966 -1.46924 -0.935889 0
M  V30 5275 C 519.098 -2.93409 -1.73562 0
M  V30 5276 H 520.291 -2.99815 0.0714518 0
M  V30 5277 H 517.844 -1.56121 0.0747258 0
M  V30 5278 H 518.579 -2.20729 -2.37591 0
M  V30 5279 H 518.364 -3.67217 -1.37456 0
M  V30 5280 H 519.854 -3.45794 -2.34128 0
M  V30 5281 N 520.291 -0.0518155 -1.57515 0
M  V30 5282 C 521.239 0.940195 -2.12751 0
M  V30 5283 C 522.233 1.3218 -1.05948 0
M  V30 5284 O 523.439 1.30138 -1.24355 0
M  V30 5285 H 519.814 0.321066 -0.680015 0
M  V30 5286 H 521.785 0.449217 -2.94999 0
M  V30 5287 C 520.534 2.2055 -2.68799 0
M  V30 5288 H 519.857 1.92066 -3.50643 0
M  V30 5289 H 521.297 2.88119 -3.11068 0
M  V30 5290 C 519.756 2.95061 -1.62605 0
M  V30 5291 O 520.286 3.88025 -1.03921 0
M  V30 5292 N 518.492 2.57804 -1.34111 0
M  V30 5293 H 518.039 1.82281 -1.8202 0
M  V30 5294 H 517.997 3.07964 -0.632872 0
M  V30 5295 N 521.769 1.56035 0.221574 0
M  V30 5296 C 523.046 1.69837 0.970301 0
M  V30 5297 C 523.426 0.599065 2.02421 0
M  V30 5298 O 522.774 -0.393929 2.25079 0
M  V30 5299 C 522.984 3.11148 1.58076 0
M  V30 5300 C 524.332 3.70555 2.07302 0
M  V30 5301 O 525.356 3.14109 1.6797 0
M  V30 5302 O 524.215 4.69562 2.79596 0
M  V30 5303 H 521.309 0.691727 0.453257 0
M  V30 5304 H 523.855 1.68353 0.213358 0
M  V30 5305 H 522.627 3.82617 0.819759 0
M  V30 5306 H 522.25 3.16749 2.40324 0
M  V30 5307 N 523.247 -0.488276 1.49845 0
M  V30 5308 C 524.493 -1.24341 1.6021 0
M  V30 5309 C 524.826 -1.91967 0.293651 0
M  V30 5310 O 524.101 -1.81323 -0.703718 0
M  V30 5311 C 524.384 -2.3005 2.77036 0
M  V30 5312 C 524.237 -1.66842 4.17713 0
M  V30 5313 C 525.556 -3.31509 2.89464 0
M  V30 5314 H 522.675 -0.450704 0.583125 0
M  V30 5315 H 525.317 -0.539673 1.82174 0
M  V30 5316 H 523.467 -2.90071 2.58439 0
M  V30 5317 H 525.139 -1.1055 4.47858 0
M  V30 5318 H 523.382 -0.972079 4.22768 0
M  V30 5319 H 524.053 -2.43576 4.95353 0
M  V30 5320 H 526.529 -2.81493 3.06433 0
M  V30 5321 H 525.405 -4.02822 3.72861 0
M  V30 5322 H 525.666 -3.94603 1.99351 0
M  V30 5323 N 524.725 -1.39134 -0.740242 0
M  V30 5324 C 525.95 -1.39518 -1.53459 0
M  V30 5325 C 526.375 0.00968883 -1.88098 0
M  V30 5326 O 525.733 0.995312 -1.51536 0
M  V30 5327 C 525.781 -2.26981 -2.802 0
M  V30 5328 O 524.885 -1.69609 -3.75908 0
M  V30 5329 H 524.226 -0.475328 -0.463637 0
M  V30 5330 H 526.756 -1.83064 -0.913717 0
M  V30 5331 H 526.766 -2.41309 -3.28989 0
M  V30 5332 H 525.441 -3.29081 -2.5432 0
M  V30 5333 H 524.018 -1.64495 -3.34658 0
M  V30 5334 N 526.204 0.969867 -1.24223 0
M  V30 5335 C 527.136 2.0669 -0.99055 0
M  V30 5336 C 528.149 1.62753 0.0392222 0
M  V30 5337 O 529.338 1.77403 -0.197561 0
M  V30 5338 C 526.438 3.35589 -0.472594 0
M  V30 5339 C 525.611 4.08444 -1.56499 0
M  V30 5340 C 524.67 5.15616 -1.05007 0
M  V30 5341 O 523.696 5.41911 -1.7413 0
M  V30 5342 N 524.898 5.80383 0.116641 0
M  V30 5343 H 527.663 2.28855 -1.93508 0
M  V30 5344 H 525.224 1.13733 -1.15223 0
M  V30 5345 H 527.216 4.04542 -0.112919 0
M  V30 5346 H 525.786 3.10311 0.377617 0
M  V30 5347 H 525.006 3.33798 -2.09696 0
M  V30 5348 H 526.294 4.53882 -2.29932 0
M  V30 5349 H 525.692 5.6142 0.694589 0
M  V30 5350 H 524.249 6.50462 0.417483 0
M  V30 5351 N 527.682 1.05563 1.17022 0
M  V30 5352 C 529.093 0.793475 1.69 0
M  V30 5353 C 529.444 -0.683882 1.83895 0
M  V30 5354 O 528.569 -1.53116 1.5292 0
M  V30 5355 C 529.164 1.43376 3.06967 0
M  V30 5356 C 527.723 1.21956 3.56095 0
M  V30 5357 C 526.87 1.51494 2.3226 0
M  V30 5358 H 529.821 1.22008 1.01487 0
M  V30 5359 H 529.842 0.845068 3.70997 0
M  V30 5360 H 529.354 2.50899 2.96093 0
M  V30 5361 H 527.455 0.163749 3.7224 0
M  V30 5362 H 527.568 1.92713 4.38633 0
M  V30 5363 H 525.932 0.935175 2.3691 0
M  V30 5364 H 526.715 2.60159 2.23992 0
M  V30 5365 N 529.16 -1.33526 0.837174 0
M  V30 5366 C 530.388 -2.02047 0.445494 0
M  V30 5367 C 530.803 -1.62995 -0.952788 0
M  V30 5368 O 530.16 -0.842447 -1.61892 0
M  V30 5369 C 530.211 -3.57221 0.554577 0
M  V30 5370 O 529.932 -3.94863 1.89776 0
M  V30 5371 C 531.433 -4.43012 0.159634 0
M  V30 5372 H 528.653 -0.647221 0.177048 0
M  V30 5373 H 531.197 -1.70492 1.12928 0
M  V30 5374 H 529.352 -3.87315 -0.0812781 0
M  V30 5375 H 529.766 -4.89569 1.88208 0
M  V30 5376 H 531.24 -5.51253 0.28701 0
M  V30 5377 H 531.717 -4.29916 -0.898289 0
M  V30 5378 H 532.323 -4.18274 0.769855 0
M  V30 5379 N 530.638 -0.59345 -1.46 0
M  V30 5380 C 531.57 0.171569 -2.28557 0
M  V30 5381 C 532.583 0.845273 -1.39137 0
M  V30 5382 O 533.772 0.713033 -1.6364 0
M  V30 5383 C 530.872 1.26311 -3.14482 0
M  V30 5384 C 530.045 0.679258 -4.32094 0
M  V30 5385 C 529.104 1.65987 -4.99334 0
M  V30 5386 O 528.13 1.19171 -5.56585 0
M  V30 5387 N 529.332 2.99414 -4.97324 0
M  V30 5388 H 532.097 -0.536771 -2.94854 0
M  V30 5389 H 529.658 -0.431954 -1.56031 0
M  V30 5390 H 531.65 1.91863 -3.5633 0
M  V30 5391 H 530.22 1.87416 -2.50188 0
M  V30 5392 H 529.44 -0.153992 -3.93899 0
M  V30 5393 H 530.728 0.26916 -5.08088 0
M  V30 5394 H 530.126 3.40064 -4.52076 0
M  V30 5395 H 528.683 3.60426 -5.4308 0
M  V30 5396 N 532.116 1.54067 -0.331816 0
M  V30 5397 C 533.364 2.00319 0.267739 0
M  V30 5398 C 533.685 1.22148 1.52003 0
M  V30 5399 O 532.955 0.325494 1.93177 0
M  V30 5400 H 531.535 0.740014 0.101922 0
M  V30 5401 H 534.197 1.89628 -0.450267 0
M  V30 5402 H 533.293 3.07765 0.518385 0
M  V30 5403 N 533.594 0.0601682 1.57485 0
M  V30 5404 C 534.841 -0.611594 1.93043 0
M  V30 5405 C 535.169 -1.70317 0.939274 0
M  V30 5406 O 534.424 -1.95644 -0.046996 0
M  V30 5407 C 534.723 -1.23831 3.35262 0
M  V30 5408 C 534.389 -0.274037 4.50066 0
M  V30 5409 C 533.051 -0.00872394 4.81199 0
M  V30 5410 C 535.403 0.386308 5.19766 0
M  V30 5411 C 532.731 0.924218 5.79375 0
M  V30 5412 C 535.083 1.3075 6.1894 0
M  V30 5413 C 533.747 1.58139 6.48497 0
M  V30 5414 H 533.017 -0.223798 0.706396 0
M  V30 5415 H 535.664 0.128566 1.91068 0
M  V30 5416 H 533.969 -2.05394 3.33647 0
M  V30 5417 H 535.666 -1.76517 3.60059 0
M  V30 5418 H 532.256 -0.491008 4.25778 0
M  V30 5419 H 536.44 0.194436 4.95919 0
M  V30 5420 H 531.696 1.1438 6.00606 0
M  V30 5421 H 535.87 1.82519 6.72056 0
M  V30 5422 H 533.497 2.30593 7.24383 0
M  V30 5423 N 535.072 -1.5615 -0.213296 0
M  V30 5424 C 536.02 -1.93953 -1.28394 0
M  V30 5425 C 537.014 -0.822592 -1.48087 0
M  V30 5426 O 538.22 -1.00748 -1.49164 0
M  V30 5427 H 534.595 -0.61648 -0.430646 0
M  V30 5428 H 536.566 -2.83275 -0.937977 0
M  V30 5429 C 535.315 -2.27969 -2.62537 0
M  V30 5430 H 534.638 -3.13432 -2.48194 0
M  V30 5431 H 536.078 -2.58297 -3.36242 0
M  V30 5432 C 534.537 -1.10775 -3.18167 0
M  V30 5433 O 535.067 -0.373201 -3.99963 0
M  V30 5434 N 533.273 -0.889377 -2.76656 0
M  V30 5435 H 532.82 -1.48843 -2.10246 0
M  V30 5436 H 532.778 -0.107 -3.14218 0
M  V30 5437 N 536.55 0.480323 -1.50102 0
M  V30 5438 C 537.775 1.26126 -1.64642 0
M  V30 5439 C 538.2 1.85257 -0.325823 0
M  V30 5440 O 537.558 1.66854 0.709194 0
M  V30 5441 C 537.606 2.35243 -2.73301 0
M  V30 5442 O 536.71 3.39646 -2.33911 0
M  V30 5443 H 536.051 0.371463 -0.550374 0
M  V30 5444 H 538.581 0.572696 -1.96421 0
M  V30 5445 H 538.591 2.80695 -2.96098 0
M  V30 5446 H 537.266 1.91574 -3.6915 0
M  V30 5447 H 535.843 2.99969 -2.21525 0
M  V30 5448 N 538.028 1.39524 0.732853 0
M  V30 5449 C 539.305 1.27373 1.48444 0
M  V30 5450 C 539.685 -0.115725 2.10783 0
M  V30 5451 O 539.033 -1.12713 1.98766 0
M  V30 5452 C 539.243 2.39966 2.53412 0
M  V30 5453 C 540.591 2.79384 3.19733 0
M  V30 5454 O 541.615 2.39431 2.63725 0
M  V30 5455 O 540.474 3.48353 4.21085 0
M  V30 5456 H 537.568 0.499272 0.659285 0
M  V30 5457 H 540.114 1.51403 0.766496 0
M  V30 5458 H 538.886 3.32845 2.05742 0
M  V30 5459 H 538.509 2.17612 3.32762 0
M  V30 5460 N 539.506 -0.963266 1.24736 0
M  V30 5461 C 540.454 -2.07985 1.04139 0
M  V30 5462 C 541.448 -1.69381 -0.0250556 0
M  V30 5463 O 542.654 -1.79531 0.129863 0
M  V30 5464 H 539.029 -0.680627 0.319768 0
M  V30 5465 H 541 -2.22517 1.98818 0
M  V30 5466 C 539.749 -3.4123 0.667615 0
M  V30 5467 H 539.072 -3.71397 1.48 0
M  V30 5468 H 540.512 -4.20244 0.563136 0
M  V30 5469 C 538.971 -3.3104 -0.625647 0
M  V30 5470 O 539.501 -3.65334 -1.67016 0
M  V30 5471 N 537.707 -2.84168 -0.608033 0
M  V30 5472 H 537.254 -2.56458 0.242323 0
M  V30 5473 H 537.212 -2.77732 -1.47352 0
M  V30 5474 N 540.985 -1.06182 -1.16461 0
M  V30 5475 C 541.933 -0.665716 -2.2287 0
M  V30 5476 C 542.927 0.317822 -1.66392 0
M  V30 5477 O 544.133 0.182807 -1.79069 0
M  V30 5478 H 540.508 -0.197148 -0.725697 0
M  V30 5479 H 542.479 -1.57307 -2.53569 0
M  V30 5480 C 541.228 -0.0669803 -3.47635 0
M  V30 5481 H 540.551 -0.814899 -3.91407 0
M  V30 5482 H 541.991 0.172669 -4.23648 0
M  V30 5483 C 540.45 1.18913 -3.15216 0
M  V30 5484 O 540.98 2.27723 -3.30916 0
M  V30 5485 N 539.186 1.09066 -2.69357 0
M  V30 5486 H 538.733 0.20518 -2.56782 0
M  V30 5487 H 538.691 1.93195 -2.48039 0
M  V30 5488 N 542.463 1.3308 -0.844243 0
M  V30 5489 C 543.426 2.27403 -0.286485 0
M  V30 5490 C 544.426 1.51179 0.547872 0
M  V30 5491 O 545.616 1.70421 0.360886 0
M  V30 5492 C 542.748 3.35653 0.595813 0
M  V30 5493 H 543.941 2.78248 -1.11885 0
M  V30 5494 H 541.494 1.43574 -0.617749 0
M  V30 5495 H 542.229 2.90058 1.4504 0
M  V30 5496 H 542.014 3.921 -0.00125994 0
M  V30 5497 H 543.504 4.05958 0.979168 0
M  V30 5498 N 543.941 0.601185 1.45683 0
M  V30 5499 C 544.871 -0.108824 2.33246 0
M  V30 5500 C 545.852 -0.865223 1.46451 0
M  V30 5501 O 547.037 -0.83704 1.75235 0
M  V30 5502 C 544.167 -1.11101 3.2905 0
M  V30 5503 C 543.121 -0.468244 4.25431 0
M  V30 5504 C 542.447 -1.57822 5.10878 0
M  V30 5505 C 543.747 0.606469 5.18767 0
M  V30 5506 H 545.441 0.622306 2.92861 0
M  V30 5507 H 542.987 0.300714 1.40825 0
M  V30 5508 H 544.94 -1.61622 3.89174 0
M  V30 5509 H 543.664 -1.87265 2.67581 0
M  V30 5510 H 542.323 0.0160484 3.66596 0
M  V30 5511 H 541.971 -2.32998 4.45781 0
M  V30 5512 H 541.671 -1.15369 5.76163 0
M  V30 5513 H 543.195 -2.08583 5.73869 0
M  V30 5514 H 544.609 0.185589 5.73 0
M  V30 5515 H 543.006 0.952381 5.92494 0
M  V30 5516 H 544.076 1.48559 4.61582 0
M  V30 5517 N 545.419 -1.53889 0.339982 0
M  V30 5518 C 546.369 -2.2165 -0.534354 0
M  V30 5519 C 547.353 -1.20266 -1.06887 0
M  V30 5520 O 548.545 -1.45827 -1.00316 0
M  V30 5521 C 545.674 -2.99014 -1.68659 0
M  V30 5522 C 544.76 -4.07751 -1.16618 0
M  V30 5523 N 545.151 -5.04469 -0.366717 0
M  V30 5524 C 543.449 -4.21998 -1.4434 0
M  V30 5525 C 544.15 -5.81638 -0.0847275 0
M  V30 5526 N 543.126 -5.39388 -0.675391 0
M  V30 5527 H 546.928 -2.93781 0.0835562 0
M  V30 5528 H 544.442 -1.61736 0.146665 0
M  V30 5529 H 546.439 -3.46056 -2.32489 0
M  V30 5530 H 545.099 -2.28408 -2.30781 0
M  V30 5531 H 546.11 -5.17899 -0.00811038 0
M  V30 5532 H 542.787 -3.62612 -2.06928 0
M  V30 5533 H 544.177 -6.69563 0.559943 0
M  V30 5534 N 546.897 -0.0685191 -1.57451 0
M  V30 5535 C 547.827 0.89747 -2.15564 0
M  V30 5536 C 548.808 1.31266 -1.08181 0
M  V30 5537 O 549.993 1.38429 -1.36202 0
M  V30 5538 C 547.123 2.16623 -2.71463 0
M  V30 5539 C 546.077 1.89054 -3.83982 0
M  V30 5540 C 545.403 3.22532 -4.26471 0
M  V30 5541 C 546.703 1.1984 -5.08366 0
M  V30 5542 H 548.397 0.413373 -2.96533 0
M  V30 5543 H 545.943 0.197391 -1.42641 0
M  V30 5544 H 547.896 2.84614 -3.10761 0
M  V30 5545 H 546.62 2.67269 -1.8771 0
M  V30 5546 H 545.279 1.23469 -3.45183 0
M  V30 5547 H 544.927 3.71013 -3.39644 0
M  V30 5548 H 544.627 3.04879 -5.02317 0
M  V30 5549 H 546.151 3.91727 -4.68383 0
M  V30 5550 H 547.565 1.77896 -5.45001 0
M  V30 5551 H 545.962 1.12456 -5.89469 0
M  V30 5552 H 547.032 0.176996 -4.84577 0
M  V30 5553 N 548.375 1.56261 0.205012 0
M  V30 5554 C 549.622 1.8004 0.926927 0
M  V30 5555 C 549.95 0.640086 1.83666 0
M  V30 5556 O 549.205 -0.374702 1.92079 0
M  V30 5557 C 549.504 3.09722 1.78345 0
M  V30 5558 C 549.17 4.39082 1.02555 0
M  V30 5559 C 547.832 4.74226 0.816256 0
M  V30 5560 C 550.184 5.18877 0.491559 0
M  V30 5561 C 547.512 5.86668 0.0613287 0
M  V30 5562 C 549.864 6.32105 -0.250107 0
M  V30 5563 C 548.528 6.6584 -0.470508 0
M  V30 5564 H 547.798 0.658812 0.339187 0
M  V30 5565 H 550.445 1.90515 0.19395 0
M  V30 5566 H 548.75 2.9444 2.5848 0
M  V30 5567 H 550.447 3.25324 2.34446 0
M  V30 5568 H 547.037 4.11497 1.19868 0
M  V30 5569 H 551.221 4.92147 0.640684 0
M  V30 5570 H 546.477 6.11283 -0.119501 0
M  V30 5571 H 550.651 6.93157 -0.671307 0
M  V30 5572 H 548.278 7.5281 -1.05739 0
M  V30 5573 N 549.853 -0.472356 1.50355 0
M  V30 5574 C 551.099 -1.22348 1.62488 0
M  V30 5575 C 551.454 -1.89711 0.320574 0
M  V30 5576 O 550.747 -1.79074 -0.68141 0
M  V30 5577 C 550.941 -2.29257 2.74182 0
M  V30 5578 C 550.77 -1.72383 4.15348 0
M  V30 5579 C 549.54 -1.52411 4.81766 0
M  V30 5580 C 551.738 -1.21949 4.99633 0
M  V30 5581 N 549.72 -0.907669 6.07153 0
M  V30 5582 C 551.091 -0.726191 6.15732 0
M  V30 5583 C 553.146 -1.10792 4.85417 0
M  V30 5584 C 551.849 -0.132322 7.19178 0
M  V30 5585 C 553.875 -0.52799 5.89038 0
M  V30 5586 C 553.237 -0.0450604 7.04386 0
M  V30 5587 H 549.336 -0.436631 0.648751 0
M  V30 5588 H 551.92 -0.525698 1.87469 0
M  V30 5589 H 550.091 -2.96464 2.50926 0
M  V30 5590 H 551.823 -2.9628 2.75681 0
M  V30 5591 H 548.578 -1.776 4.39039 0
M  V30 5592 H 549.002 -0.617897 6.74174 0
M  V30 5593 H 553.644 -1.46722 3.96525 0
M  V30 5594 H 551.362 0.239187 8.07746 0
M  V30 5595 H 554.948 -0.444046 5.80103 0
M  V30 5596 H 553.828 0.396659 7.83196 0
M  V30 5597 N 551.331 -1.39911 -0.725443 0
M  V30 5598 C 552.263 -1.35301 -1.85003 0
M  V30 5599 C 553.276 -0.260102 -1.60709 0
M  V30 5600 O 554.465 -0.519749 -1.70766 0
M  V30 5601 C 551.565 -1.08039 -3.21218 0
M  V30 5602 C 550.738 -2.28793 -3.7279 0
M  V30 5603 C 549.797 -1.97841 -4.87591 0
M  V30 5604 O 548.823 -2.70616 -5.00755 0
M  V30 5605 N 550.025 -0.950367 -5.72668 0
M  V30 5606 H 552.79 -2.32218 -1.89459 0
M  V30 5607 H 550.351 -1.34137 -0.90658 0
M  V30 5608 H 552.343 -0.853354 -3.95601 0
M  V30 5609 H 550.913 -0.198229 -3.11971 0
M  V30 5610 H 550.133 -2.67388 -2.8965 0
M  V30 5611 H 551.421 -3.09317 -4.03981 0
M  V30 5612 H 550.819 -0.347436 -5.64632 0
M  V30 5613 H 549.376 -0.783232 -6.47077 0
M  V30 5614 N 552.809 0.956637 -1.25245 0
M  V30 5615 C 554.086 1.67716 -1.00651 0
M  V30 5616 C 554.466 2.0585 0.467866 0
M  V30 5617 O 553.814 1.77029 1.44475 0
M  V30 5618 C 554.024 2.90093 -1.94028 0
M  V30 5619 C 555.372 3.6209 -2.21756 0
M  V30 5620 O 556.396 3.00171 -1.9177 0
M  V30 5621 O 555.255 4.7358 -2.72735 0
M  V30 5622 H 552.349 0.733731 -0.381533 0
M  V30 5623 H 554.895 1.00974 -1.3639 0
M  V30 5624 H 553.667 2.58689 -2.93591 0
M  V30 5625 H 553.29 3.64566 -1.58674 0
M  V30 5626 N 554.287 1.06798 1.15896 0
M  V30 5627 C 555.535 0.786211 1.8618 0
M  V30 5628 C 555.856 -0.689547 1.82401 0
M  V30 5629 O 555.126 -1.49913 1.26107 0
M  V30 5630 H 553.706 0.287843 0.689315 0
M  V30 5631 H 556.368 1.35055 1.40521 0
M  V30 5632 H 555.464 1.1157 2.91477 0
M  V30 5633 N 555.766 -1.3263 0.851289 0
M  V30 5634 C 557.043 -1.91982 0.374448 0
M  V30 5635 C 557.423 -1.77568 -1.14161 0
M  V30 5636 O 556.771 -1.1717 -1.96172 0
M  V30 5637 C 556.981 -3.38862 0.835088 0
M  V30 5638 C 558.329 -4.15999 0.850309 0
M  V30 5639 O 559.353 -3.47566 0.779505 0
M  V30 5640 O 558.212 -5.38189 0.949481 0
M  V30 5641 H 555.306 -0.819846 0.10854 0
M  V30 5642 H 557.852 -1.41422 0.937966 0
M  V30 5643 H 556.624 -3.43281 1.87814 0
M  V30 5644 H 556.247 -3.96821 0.248833 0
M  V30 5645 N 557.244 -0.608902 -1.45362 0
M  V30 5646 C 558.191 0.109172 -2.30542 0
M  V30 5647 C 559.161 0.858704 -1.42181 0
M  V30 5648 O 560.346 0.844178 -1.71109 0
M  V30 5649 C 557.486 1.09971 -3.27109 0
M  V30 5650 C 556.599 0.350911 -4.30572 0
M  V30 5651 C 555.734 1.33129 -5.14247 0
M  V30 5652 C 554.773 0.570377 -6.09437 0
M  V30 5653 N 553.91 1.5001 -6.85887 0
M  V30 5654 H 558.75 -0.623195 -2.91411 0
M  V30 5655 H 556.287 -0.319122 -1.43597 0
M  V30 5656 H 558.245 1.68714 -3.81564 0
M  V30 5657 H 556.875 1.79947 -2.67991 0
M  V30 5658 H 555.927 -0.352054 -3.78767 0
M  V30 5659 H 557.239 -0.242725 -4.98209 0
M  V30 5660 H 556.393 1.99074 -5.73109 0
M  V30 5661 H 555.132 1.95885 -4.46632 0
M  V30 5662 H 554.137 -0.102702 -5.49704 0
M  V30 5663 H 555.362 -0.0521607 -6.7908 0
M  V30 5664 H 553.308 2.11529 -6.2096 0
M  V30 5665 H 553.225 0.959934 -7.49881 0
M  V30 5666 H 554.493 2.14909 -7.49289 0
M  V30 5667 N 558.722 1.53707 -0.348139 0
M  V30 5668 C 559.968 2.01286 0.247332 0
M  V30 5669 C 560.301 1.23546 1.49834 0
M  V30 5670 O 559.576 0.324331 1.91777 0
M  V30 5671 C 559.859 3.55768 0.556858 0
M  V30 5672 C 559.712 4.44216 -0.706564 0
M  V30 5673 C 561.031 4.1841 1.3646 0
M  V30 5674 H 558.15 0.731677 0.0884201 0
M  V30 5675 H 560.792 1.84106 -0.469584 0
M  V30 5676 H 558.942 3.70539 1.16761 0
M  V30 5677 H 560.614 4.41274 -1.34444 0
M  V30 5678 H 558.857 4.12892 -1.33052 0
M  V30 5679 H 559.528 5.50202 -0.445186 0
M  V30 5680 H 562.004 4.07365 0.848113 0
M  V30 5681 H 560.88 5.26563 1.54992 0
M  V30 5682 H 561.141 3.7333 2.36805 0
M  V30 5683 N 560.2 0.0768682 1.57412 0
M  V30 5684 C 561.13 -0.886026 2.16037 0
M  V30 5685 C 562.111 -1.30691 1.08876 0
M  V30 5686 O 563.296 -1.37705 1.36934 0
M  V30 5687 C 560.426 -2.1518 2.72608 0
M  V30 5688 C 559.38 -1.87015 3.8498 0
M  V30 5689 C 558.706 -3.20266 4.28175 0
M  V30 5690 C 560.006 -1.17143 5.08994 0
M  V30 5691 H 561.7 -0.397642 2.96748 0
M  V30 5692 H 559.246 -0.189823 1.42743 0
M  V30 5693 H 561.199 -2.82962 3.12266 0
M  V30 5694 H 559.923 -2.66269 1.89125 0
M  V30 5695 H 558.582 -1.21636 3.45833 0
M  V30 5696 H 558.23 -3.69207 3.41607 0
M  V30 5697 H 557.93 -3.0221 5.03927 0
M  V30 5698 H 559.454 -3.89237 4.70454 0
M  V30 5699 H 560.868 -1.75003 5.45937 0
M  V30 5700 H 559.265 -1.09328 5.90057 0
M  V30 5701 H 560.335 -0.151295 4.84664 0
M  V30 5702 N 561.678 -1.56367 -0.196722 0
M  V30 5703 C 563.089 -1.70462 -0.761545 0
M  V30 5704 C 563.44 -0.683161 -1.83922 0
M  V30 5705 O 562.565 0.160753 -2.15802 0
M  V30 5706 C 563.16 -3.09057 -1.38814 0
M  V30 5707 C 561.719 -3.24922 -1.90007 0
M  V30 5708 C 560.866 -2.66412 -0.769399 0
M  V30 5709 H 563.817 -1.58675 0.0283263 0
M  V30 5710 H 563.838 -3.06296 -2.2575 0
M  V30 5711 H 563.35 -3.83378 -0.603559 0
M  V30 5712 H 561.451 -2.55514 -2.71189 0
M  V30 5713 H 561.564 -4.3241 -2.06297 0
M  V30 5714 H 559.928 -2.25546 -1.18326 0
M  V30 5715 H 560.711 -3.433 0.00291773 0
M  V30 5716 N 563.156 0.464375 -1.50603 0
M  V30 5717 C 564.086 1.56944 -1.72889 0
M  V30 5718 C 565.067 1.59979 -0.577997 0
M  V30 5719 O 566.252 1.76138 -0.817855 0
M  V30 5720 C 563.382 2.95225 -1.8292 0
M  V30 5721 C 562.336 3.07056 -2.98162 0
M  V30 5722 C 561.662 4.47051 -2.93343 0
M  V30 5723 C 562.962 2.83648 -4.38567 0
M  V30 5724 H 564.656 1.38547 -2.65415 0
M  V30 5725 H 562.202 0.665082 -1.27721 0
M  V30 5726 H 564.155 3.72467 -1.97095 0
M  V30 5727 H 562.879 3.14793 -0.870209 0
M  V30 5728 H 561.538 2.32248 -2.83648 0
M  V30 5729 H 561.186 4.63547 -1.95276 0
M  V30 5730 H 560.886 4.55902 -3.70712 0
M  V30 5731 H 562.41 5.26304 -3.09575 0
M  V30 5732 H 563.824 3.50636 -4.53572 0
M  V30 5733 H 562.221 3.03937 -5.17438 0
M  V30 5734 H 563.291 1.79451 -4.50472 0
M  V30 5735 N 564.634 1.40294 0.718013 0
M  V30 5736 C 565.544 1.42678 1.86226 0
M  V30 5737 C 566.56 0.319655 1.71039 0
M  V30 5738 O 567.736 0.563852 1.93346 0
M  V30 5739 C 564.801 1.2852 3.21999 0
M  V30 5740 C 563.862 2.49354 3.49458 0
M  V30 5741 C 563.095 2.35863 4.78753 0
M  V30 5742 O 563.318 1.37114 5.53675 0
M  V30 5743 O 562.252 3.25189 5.06494 0
M  V30 5744 H 566.078 2.39167 1.87171 0
M  V30 5745 H 563.663 1.2159 0.868112 0
M  V30 5746 H 565.545 1.22824 4.03103 0
M  V30 5747 H 564.22 0.351359 3.21787 0
M  V30 5748 H 563.127 2.60628 2.68373 0
M  V30 5749 H 564.46 3.41491 3.54464 0
M  V30 5750 N 566.112 -0.949982 1.2575 0
M  V30 5751 C 567.528 -1.22191 1.02672 0
M  V30 5752 C 567.728 -1.99898 -0.253588 0
M  V30 5753 O 566.784 -2.33329 -0.965076 0
M  V30 5754 C 568.097 -1.99175 2.25277 0
M  V30 5755 C 569.645 -2.12201 2.30087 0
M  V30 5756 C 570.12 -2.92586 3.5236 0
M  V30 5757 N 571.611 -3.00163 3.52784 0
M  V30 5758 C 572.346 -3.62766 4.44059 0
M  V30 5759 N 571.842 -4.26943 5.45611 0
M  V30 5760 N 573.635 -3.59953 4.3173 0
M  V30 5761 H 565.786 -0.430258 2.07996 0
M  V30 5762 H 568.049 -0.252844 0.91366 0
M  V30 5763 H 567.755 -1.49479 3.18354 0
M  V30 5764 H 567.629 -2.99868 2.28821 0
M  V30 5765 H 570.016 -2.61093 1.3753 0
M  V30 5766 H 570.097 -1.10799 2.30559 0
M  V30 5767 H 569.741 -2.44383 4.45241 0
M  V30 5768 H 569.671 -3.94224 3.49134 0
M  V30 5769 H 572.162 -2.54529 2.79327 0
M  V30 5770 H 572.475 -4.72583 6.11461 0
M  V30 5771 H 570.82 -4.25557 5.49478 0
M  V30 5772 H 574.011 -3.09003 3.51617 0
M  V30 5773 H 574.184 -4.08455 5.03059 0
M  V30 5774 N 567.59 -1.07411 -1.15328 0
M  V30 5775 C 568.537 -0.694995 -2.20087 0
M  V30 5776 C 569.507 0.313904 -1.63107 0
M  V30 5777 O 570.692 0.200216 -1.89747 0
M  V30 5778 C 567.832 -0.0996218 -3.44956 0
M  V30 5779 C 566.945 -1.16007 -4.16133 0
M  V30 5780 C 566.08 -0.529636 -5.28553 0
M  V30 5781 C 565.119 -1.57283 -5.91548 0
M  V30 5782 N 564.256 -0.964932 -6.95438 0
M  V30 5783 H 569.096 -1.5927 -2.51867 0
M  V30 5784 H 566.633 -0.796115 -1.23695 0
M  V30 5785 H 568.591 0.263197 -4.16369 0
M  V30 5786 H 567.221 0.761435 -3.13691 0
M  V30 5787 H 566.273 -1.64045 -3.4321 0
M  V30 5788 H 567.585 -1.95101 -4.59061 0
M  V30 5789 H 566.739 -0.114487 -6.06592 0
M  V30 5790 H 565.478 0.29307 -4.86819 0
M  V30 5791 H 564.483 -1.99775 -5.12221 0
M  V30 5792 H 565.708 -2.39783 -6.35359 0
M  V30 5793 H 563.654 -0.16314 -6.55797 0
M  V30 5794 H 563.571 -1.69311 -7.36797 0
M  V30 5795 H 564.839 -0.575305 -7.77374 0
M  V30 5796 N 569.068 1.32177 -0.85831 0
M  V30 5797 C 569.978 2.32561 -0.308606 0
M  V30 5798 C 570.994 1.64209 0.575462 0
M  V30 5799 O 572.17 1.95719 0.474961 0
M  V30 5800 C 569.235 3.43207 0.490909 0
M  V30 5801 C 568.296 4.27243 -0.419733 0
M  V30 5802 C 567.529 5.32605 0.341719 0
M  V30 5803 O 567.752 5.48332 1.57125 0
M  V30 5804 O 566.686 6.0118 -0.294379 0
M  V30 5805 H 570.512 2.81477 -1.14037 0
M  V30 5806 H 568.097 1.35866 -0.621349 0
M  V30 5807 H 569.979 4.10677 0.944574 0
M  V30 5808 H 568.654 2.96474 1.29941 0
M  V30 5809 H 567.561 3.62569 -0.921652 0
M  V30 5810 H 568.894 4.7751 -1.19352 0
M  V30 5811 N 570.547 0.616602 1.45037 0
M  V30 5812 C 571.477 -0.0840787 2.33349 0
M  V30 5813 C 572.458 -0.849641 1.4736 0
M  V30 5814 O 573.643 -0.818407 1.76113 0
M  V30 5815 C 570.773 -1.07604 3.3021 0
M  V30 5816 C 569.727 -0.423096 4.25904 0
M  V30 5817 C 569.053 -1.52394 5.12523 0
M  V30 5818 C 570.353 0.661457 5.18095 0
M  V30 5819 H 572.047 0.653333 2.92185 0
M  V30 5820 H 569.593 0.315634 1.40498 0
M  V30 5821 H 571.546 -1.57485 3.90866 0
M  V30 5822 H 570.27 -1.84416 2.69552 0
M  V30 5823 H 568.929 0.05493 3.66559 0
M  V30 5824 H 568.577 -2.28257 4.48227 0
M  V30 5825 H 568.277 -1.09251 5.77354 0
M  V30 5826 H 569.801 -2.02485 5.76049 0
M  V30 5827 H 571.215 0.246353 5.7277 0
M  V30 5828 H 569.612 1.01517 5.91451 0
M  V30 5829 H 570.682 1.53446 4.59981 0
M  V30 5830 N 572.025 -1.5352 0.356285 0
M  V30 5831 C 572.955 -2.28372 -0.486661 0
M  V30 5832 C 573.936 -1.30432 -1.09185 0
M  V30 5833 O 575.121 -1.59291 -1.11085 0
M  V30 5834 C 572.251 -3.06604 -1.63129 0
M  V30 5835 C 571.205 -4.12154 -1.15381 0
M  V30 5836 C 570.531 -4.78415 -2.38796 0
M  V30 5837 C 571.831 -5.21724 -0.245179 0
M  V30 5838 H 573.525 -2.99083 0.137797 0
M  V30 5839 H 571.071 -1.43841 0.0677134 0
M  V30 5840 H 573.024 -3.57712 -2.22755 0
M  V30 5841 H 571.748 -2.33568 -2.28284 0
M  V30 5842 H 570.407 -3.61978 -0.580294 0
M  V30 5843 H 570.055 -4.01959 -3.02387 0
M  V30 5844 H 569.755 -5.49734 -2.07524 0
M  V30 5845 H 571.279 -5.32313 -2.99125 0
M  V30 5846 H 572.693 -5.68391 -0.748646 0
M  V30 5847 H 571.09 -6.00095 -0.0237608 0
M  V30 5848 H 572.16 -4.79596 0.715229 0
M  V30 5849 N 573.503 -0.0852151 -1.57369 0
M  V30 5850 C 574.751 0.579658 -1.93609 0
M  V30 5851 C 575.072 1.69332 -0.967043 0
M  V30 5852 O 574.342 1.95892 -0.0174215 0
M  V30 5853 H 572.922 0.217113 -0.714752 0
M  V30 5854 H 575.584 -0.146226 -1.94351 0
M  V30 5855 H 574.68 0.996276 -2.95771 0
M  V30 5856 N 574.981 1.5647 0.188427 0
M  V30 5857 C 575.913 1.91611 1.25769 0
M  V30 5858 C 576.926 0.807436 1.41366 0
M  V30 5859 O 578.115 1.08586 1.41673 0
M  V30 5860 C 575.215 2.13874 2.6289 0
M  V30 5861 C 574.388 3.45047 2.68815 0
M  V30 5862 C 573.447 3.56342 3.87178 0
M  V30 5863 O 572.473 4.29109 3.73971 0
M  V30 5864 N 573.675 2.89924 5.02916 0
M  V30 5865 H 576.44 2.8393 0.959373 0
M  V30 5866 H 574.001 1.57418 0.378306 0
M  V30 5867 H 575.993 2.18713 3.4051 0
M  V30 5868 H 574.563 1.28022 2.85183 0
M  V30 5869 H 573.783 3.52017 1.77419 0
M  V30 5870 H 575.071 4.31395 2.6977 0
M  V30 5871 H 574.469 2.30644 5.16546 0
M  V30 5872 H 573.026 3.0038 5.78459 0
M  V30 5873 N 576.459 -0.456382 1.50847 0
M  V30 5874 C 577.389 -1.56025 1.73719 0
M  V30 5875 C 578.37 -1.5967 0.586473 0
M  V30 5876 O 579.555 -1.75702 0.827185 0
M  V30 5877 C 576.685 -2.94251 1.84483 0
M  V30 5878 C 575.639 -3.05471 2.99786 0
M  V30 5879 C 574.965 -4.45489 2.95709 0
M  V30 5880 C 576.265 -2.81318 4.40065 0
M  V30 5881 H 577.959 -1.37138 2.66146 0
M  V30 5882 H 575.505 -0.658299 1.28072 0
M  V30 5883 H 577.458 -3.71417 1.99067 0
M  V30 5884 H 576.182 -3.14328 0.886891 0
M  V30 5885 H 574.841 -2.30741 2.84876 0
M  V30 5886 H 574.489 -4.62505 1.97732 0
M  V30 5887 H 574.189 -4.53929 3.73125 0
M  V30 5888 H 575.713 -5.24655 3.12362 0
M  V30 5889 H 577.127 -3.48226 4.55425 0
M  V30 5890 H 575.524 -3.01188 5.19043 0
M  V30 5891 H 576.594 -1.7706 4.51418 0
M  V30 5892 N 577.937 -1.40673 -0.710563 0
M  V30 5893 C 578.867 -1.44095 -1.83736 0
M  V30 5894 C 579.848 -0.301286 -1.67411 0
M  V30 5895 O 581.033 -0.510618 -1.87367 0
M  V30 5896 C 578.163 -1.30773 -3.21738 0
M  V30 5897 C 577.117 -2.42395 -3.52745 0
M  V30 5898 C 576.443 -2.14147 -4.89944 0
M  V30 5899 C 577.743 -3.84738 -3.53234 0
M  V30 5900 H 579.437 -2.38396 -1.81129 0
M  V30 5901 H 576.983 -1.14746 -0.870017 0
M  V30 5902 H 578.936 -1.31783 -4.00264 0
M  V30 5903 H 577.66 -0.329507 -3.24934 0
M  V30 5904 H 576.319 -2.40643 -2.76562 0
M  V30 5905 H 575.967 -1.14703 -4.89747 0
M  V30 5906 H 575.667 -2.88934 -5.11655 0
M  V30 5907 H 577.191 -2.16848 -5.70797 0
M  V30 5908 H 578.605 -3.88286 -4.2179 0
M  V30 5909 H 577.002 -4.59085 -3.86473 0
M  V30 5910 H 578.072 -4.13962 -2.52514 0
M  V30 5911 N 579.415 0.9433 -1.26252 0
M  V30 5912 C 580.345 2.05902 -1.10122 0
M  V30 5913 C 581.326 1.70099 -0.00700552 0
M  V30 5914 O 582.511 1.93377 -0.178641 0
M  V30 5915 C 579.641 3.39516 -0.731175 0
M  V30 5916 C 578.595 3.89372 -1.77688 0
M  V30 5917 C 577.921 5.19613 -1.26122 0
M  V30 5918 C 579.221 4.14489 -3.17799 0
M  V30 5919 H 580.915 2.19655 -2.03451 0
M  V30 5920 H 578.461 1.05548 -0.979576 0
M  V30 5921 H 580.414 4.17031 -0.605215 0
M  V30 5922 H 579.138 3.25733 0.23782 0
M  V30 5923 H 577.797 3.14036 -1.89148 0
M  V30 5924 H 577.445 5.02208 -0.282128 0
M  V30 5925 H 577.145 5.53939 -1.96023 0
M  V30 5926 H 578.669 5.99713 -1.14789 0
M  V30 5927 H 580.083 4.82625 -3.09428 0
M  V30 5928 H 578.48 4.60094 -3.85271 0
M  V30 5929 H 579.55 3.20347 -3.64014 0
M  V30 5930 N 580.893 1.08022 1.14757 0
M  V30 5931 C 582.17 0.720386 1.81851 0
M  V30 5932 C 582.55 -0.796375 1.95502 0
M  V30 5933 O 581.898 -1.71339 1.51179 0
M  V30 5934 C 582.108 1.44273 3.17783 0
M  V30 5935 C 583.456 1.59925 3.93331 0
M  V30 5936 O 584.48 1.40407 3.2736 0
M  V30 5937 O 583.339 1.92096 5.11626 0
M  V30 5938 H 580.433 0.257142 0.786007 0
M  V30 5939 H 582.979 1.18155 1.21809 0
M  V30 5940 H 581.751 2.47618 3.02987 0
M  V30 5941 H 581.374 0.97279 3.85516 0
M  V30 5942 N 582.371 -1.3172 0.865308 0
M  V30 5943 C 583.281 -2.32394 0.320935 0
M  V30 5944 C 584.297 -1.64511 -0.566746 0
M  V30 5945 O 585.473 -1.95969 -0.464575 0
M  V30 5946 C 582.538 -3.43462 -0.472701 0
M  V30 5947 C 581.599 -4.27015 0.442385 0
M  V30 5948 C 580.832 -5.32779 -0.313469 0
M  V30 5949 O 581.055 -5.49158 -1.54214 0
M  V30 5950 O 579.989 -6.01015 0.326257 0
M  V30 5951 H 583.815 -2.80868 1.15528 0
M  V30 5952 H 581.4 -1.35535 0.628545 0
M  V30 5953 H 583.282 -4.11172 -0.922781 0
M  V30 5954 H 581.957 -2.97159 -1.28367 0
M  V30 5955 H 580.864 -3.62075 0.940866 0
M  V30 5956 H 582.197 -4.76871 1.21882 0
M  V30 5957 N 583.85 -0.624285 -1.44708 0
M  V30 5958 C 585.099 -0.123539 -2.01321 0
M  V30 5959 C 585.412 1.25966 -1.49639 0
M  V30 5960 O 586.618 1.85405 -1.98336 0
M  V30 5961 C 585.074 -0.170124 -3.59498 0
M  V30 5962 C 584.682 -1.55421 -4.20176 0
M  V30 5963 C 586.426 0.274513 -4.23611 0
M  V30 5964 C 584.332 -1.55628 -5.70556 0
M  V30 5965 H 583.263 -0.0424183 -0.752806 0
M  V30 5966 H 585.913 -0.782076 -1.65999 0
M  V30 5967 H 584.296 0.555385 -3.92086 0
M  V30 5968 H 585.47 -2.30276 -3.99136 0
M  V30 5969 H 583.784 -1.94235 -3.68323 0
M  V30 5970 H 586.382 0.292402 -5.339 0
M  V30 5971 H 586.725 1.3005 -3.95465 0
M  V30 5972 H 587.258 -0.398275 -3.95801 0
M  V30 5973 H 583.997 -2.56041 -6.03426 0
M  V30 5974 H 583.517 -0.850563 -5.93739 0
M  V30 5975 H 585.196 -1.28721 -6.34066 0
M  V30 5976 N 585.328 1.53329 -0.364422 0
M  V30 5977 C 586.574 2.01537 0.225969 0
M  V30 5978 C 586.907 1.25128 1.48515 0
M  V30 5979 O 586.182 0.344653 1.91422 0
M  V30 5980 C 586.465 3.56339 0.519092 0
M  V30 5981 C 586.318 4.43441 -0.753639 0
M  V30 5982 C 587.637 4.19833 1.32015 0
M  V30 5983 H 584.756 0.732573 0.0806548 0
M  V30 5984 H 587.398 1.83597 -0.489084 0
M  V30 5985 H 585.548 3.71756 1.12825 0
M  V30 5986 H 587.22 4.39823 -1.39116 0
M  V30 5987 H 585.463 4.11457 -1.37424 0
M  V30 5988 H 586.134 5.49699 -0.503517 0
M  V30 5989 H 588.61 4.08242 0.804859 0
M  V30 5990 H 587.486 5.28177 1.49399 0
M  V30 5991 H 587.747 3.75821 2.32832 0
M  V30 5992 N 586.806 0.0935595 1.57322 0
M  V30 5993 C 588.034 -0.578934 1.98635 0
M  V30 5994 C 588.449 -1.61819 0.972626 0
M  V30 5995 O 587.806 -1.82461 -0.0379638 0
M  V30 5996 C 587.857 -1.22802 3.40003 0
M  V30 5997 O 587.578 -0.230334 4.37494 0
M  V30 5998 C 589.079 -1.98627 3.96311 0
M  V30 5999 H 586.299 -0.155324 0.652775 0
M  V30 6000 H 588.843 0.172393 2.03772 0
M  V30 6001 H 586.998 -1.93029 3.35885 0
M  V30 6002 H 587.412 -0.698649 5.19826 0
M  V30 6003 H 588.886 -2.39405 4.97382 0
M  V30 6004 H 589.363 -2.85151 3.34044 0
M  V30 6005 H 589.969 -1.3322 4.03897 0
M  V30 6006 N 588.284 -1.56567 -0.180126 0
M  V30 6007 C 589.7 -1.50488 -0.531559 0
M  V30 6008 C 589.9 -0.796267 -1.851 0
M  V30 6009 O 588.956 -0.352978 -2.50021 0
M  V30 6010 C 590.269 -2.95201 -0.572456 0
M  V30 6011 C 591.817 -3.05957 -0.660264 0
M  V30 6012 C 592.292 -4.5211 -0.732135 0
M  V30 6013 N 593.783 -4.56322 -0.795262 0
M  V30 6014 C 594.518 -5.66742 -0.871296 0
M  V30 6015 N 594.014 -6.86815 -0.908708 0
M  V30 6016 N 595.807 -5.54691 -0.909639 0
M  V30 6017 H 587.958 -2.01045 0.685165 0
M  V30 6018 H 590.221 -0.915536 0.245962 0
M  V30 6019 H 589.927 -3.50165 0.328208 0
M  V30 6020 H 589.801 -3.49369 -1.422 0
M  V30 6021 H 592.188 -2.51032 -1.55136 0
M  V30 6022 H 592.269 -2.54888 0.215783 0
M  V30 6023 H 591.913 -5.07664 0.154664 0
M  V30 6024 H 591.843 -5.00926 -1.6242 0
M  V30 6025 H 594.334 -3.69868 -0.77499 0
M  V30 6026 H 594.647 -7.66718 -0.967654 0
M  V30 6027 H 592.992 -6.89443 -0.877132 0
M  V30 6028 H 596.183 -4.59804 -0.877353 0
M  V30 6029 H 596.356 -6.40768 -0.965434 0
M  V30 6030 N 589.762 0.448376 -1.51087 0
M  V30 6031 C 590.992 1.21965 -1.66757 0
M  V30 6032 C 591.4 1.85748 -0.359753 0
M  V30 6033 O 590.743 1.71022 0.670604 0
M  V30 6034 C 590.805 2.35284 -2.71812 0
M  V30 6035 C 590.469 1.91957 -4.1473 0
M  V30 6036 C 591.466 1.42921 -4.9987 0
M  V30 6037 C 589.151 1.99985 -4.60772 0
M  V30 6038 C 591.145 1.02485 -6.29107 0
M  V30 6039 C 588.832 1.5916 -5.90009 0
M  V30 6040 C 589.83 1.10491 -6.74004 0
M  V30 6041 O 589.518 0.702413 -8.00825 0
M  V30 6042 H 589.25 0.374125 -0.563034 0
M  V30 6043 H 591.804 0.538927 -1.98204 0
M  V30 6044 H 590.034 3.06599 -2.35657 0
M  V30 6045 H 591.723 2.97184 -2.76472 0
M  V30 6046 H 592.489 1.36123 -4.65506 0
M  V30 6047 H 588.368 2.36814 -3.95525 0
M  V30 6048 H 591.912 0.644271 -6.94619 0
M  V30 6049 H 587.809 1.65626 -6.2389 0
M  V30 6050 H 588.577 0.829248 -8.14288 0
M  V30 6051 N 591.24 1.41047 0.703093 0
M  V30 6052 C 592.517 1.30493 1.45708 0
M  V30 6053 C 592.897 -0.0709892 2.10981 0
M  V30 6054 O 592.245 -1.08471 2.01113 0
M  V30 6055 C 592.455 2.45287 2.48265 0
M  V30 6056 C 593.803 2.86104 3.13735 0
M  V30 6057 O 594.827 2.44971 2.58587 0
M  V30 6058 O 593.686 3.57206 4.13601 0
M  V30 6059 H 590.78 0.513144 0.648546 0
M  V30 6060 H 593.326 1.52995 0.734208 0
M  V30 6061 H 592.098 3.37135 1.98635 0
M  V30 6062 H 591.721 2.24622 3.28071 0
M  V30 6063 N 592.718 -0.936591 1.26751 0
M  V30 6064 C 593.628 -2.06949 1.10496 0
M  V30 6065 C 594.644 -1.7396 0.037271 0
M  V30 6066 O 595.82 -1.99941 0.241944 0
M  V30 6067 C 592.885 -3.38612 0.744491 0
M  V30 6068 C 591.946 -3.85355 1.89209 0
M  V30 6069 C 591.179 -5.10735 1.54873 0
M  V30 6070 O 591.402 -5.68602 0.452546 0
M  V30 6071 O 590.336 -5.52632 2.38499 0
M  V30 6072 H 594.162 -2.23571 2.05547 0
M  V30 6073 H 591.747 -1.05428 1.05855 0
M  V30 6074 H 593.629 -4.17711 0.556396 0
M  V30 6075 H 592.304 -3.23218 -0.176582 0
M  V30 6076 H 591.211 -3.07182 2.13518 0
M  V30 6077 H 592.544 -4.05277 2.79305 0
M  V30 6078 N 594.196 -1.08629 -1.14182 0
M  V30 6079 C 595.143 -0.718299 -2.19338 0
M  V30 6080 C 596.113 0.296587 -1.63431 0
M  V30 6081 O 597.298 0.180079 -1.89948 0
M  V30 6082 C 594.438 -0.136203 -3.44831 0
M  V30 6083 C 593.551 -1.20414 -4.14879 0
M  V30 6084 C 592.686 -0.585666 -5.27962 0
M  V30 6085 C 591.725 -1.63548 -5.89846 0
M  V30 6086 N 590.862 -1.03864 -6.94375 0
M  V30 6087 H 595.702 -1.61932 -2.50164 0
M  V30 6088 H 593.239 -0.80919 -1.22844 0
M  V30 6089 H 595.197 0.219021 -4.16625 0
M  V30 6090 H 593.827 0.728121 -3.14481 0
M  V30 6091 H 592.879 -1.67676 -3.41451 0
M  V30 6092 H 594.191 -1.99959 -4.56966 0
M  V30 6093 H 593.345 -0.178818 -6.06436 0
M  V30 6094 H 592.084 0.24142 -4.87102 0
M  V30 6095 H 591.089 -2.05197 -5.10073 0
M  V30 6096 H 592.314 -2.46509 -6.3278 0
M  V30 6097 H 590.26 -0.232687 -6.55587 0
M  V30 6098 H 590.177 -1.77116 -7.3496 0
M  V30 6099 H 591.445 -0.657724 -7.7672 0
M  V30 6100 N 595.674 1.31259 -0.872281 0
M  V30 6101 C 596.622 2.30404 -0.318897 0
M  V30 6102 C 597.616 1.5962 0.567267 0
M  V30 6103 O 598.822 1.74204 0.453111 0
M  V30 6104 H 595.197 0.747243 -0.0844474 0
M  V30 6105 H 597.168 2.74549 -1.16899 0
M  V30 6106 C 595.917 3.44608 0.462683 0
M  V30 6107 H 595.24 3.99248 -0.209936 0
M  V30 6108 H 596.68 4.1609 0.815187 0
M  V30 6109 C 595.139 2.93456 1.65485 0
M  V30 6110 O 595.669 2.92418 2.75417 0
M  V30 6111 N 593.875 2.49628 1.48776 0
M  V30 6112 H 593.422 2.50671 0.593452 0
M  V30 6113 H 593.38 2.15759 2.28682 0
M  V30 6114 N 597.152 0.631951 1.44375 0
M  V30 6115 C 598.568 0.297642 1.568 0
M  V30 6116 C 598.768 -1.19916 1.61934 0
M  V30 6117 O 597.824 -1.98324 1.56281 0
M  V30 6118 C 599.137 0.990286 2.83926 0
M  V30 6119 C 600.685 0.968507 2.97639 0
M  V30 6120 C 601.16 1.64163 4.27568 0
M  V30 6121 N 602.651 1.60826 4.34384 0
M  V30 6122 C 603.386 2.09802 5.33639 0
M  V30 6123 N 602.882 2.66973 6.39294 0
M  V30 6124 N 604.675 2.00426 5.25153 0
M  V30 6125 H 596.826 1.60353 1.39286 0
M  V30 6126 H 599.089 0.673142 0.667521 0
M  V30 6127 H 598.795 2.04519 2.8612 0
M  V30 6128 H 598.669 0.528563 3.73478 0
M  V30 6129 H 601.056 -0.0779247 2.94997 0
M  V30 6130 H 601.137 1.46873 2.09433 0
M  V30 6131 H 600.781 2.68752 4.3097 0
M  V30 6132 H 600.711 1.11624 5.14634 0
M  V30 6133 H 603.202 1.19087 3.58646 0
M  V30 6134 H 603.515 3.02074 7.11316 0
M  V30 6135 H 601.86 2.71024 6.39977 0
M  V30 6136 H 605.051 1.55483 4.41523 0
M  V30 6137 H 605.224 2.38906 6.02352 0
M  V30 6138 N 598.631 -1.53133 0.372548 0
M  V30 6139 C 600.047 -1.59585 0.02178 0
M  V30 6140 C 600.247 -1.38736 -1.46132 0
M  V30 6141 O 599.303 -1.19599 -2.22379 0
M  V30 6142 C 600.616 -2.9678 0.483959 0
M  V30 6143 C 602.164 -3.09909 0.438775 0
M  V30 6144 C 602.639 -4.49527 0.876876 0
M  V30 6145 N 604.13 -4.55663 0.832214 0
M  V30 6146 C 604.865 -5.61896 1.14281 0
M  V30 6147 N 604.361 -6.75852 1.52303 0
M  V30 6148 N 606.154 -5.51916 1.06515 0
M  V30 6149 H 598.305 -1.64936 1.33827 0
M  V30 6150 H 600.568 -0.773947 0.547458 0
M  V30 6151 H 600.274 -3.17198 1.51915 0
M  V30 6152 H 600.148 -3.7699 -0.125784 0
M  V30 6153 H 602.535 -2.89197 -0.587294 0
M  V30 6154 H 602.616 -2.31691 1.0841 0
M  V30 6155 H 602.26 -4.70979 1.90109 0
M  V30 6156 H 602.19 -5.26186 0.208727 0
M  V30 6157 H 604.681 -3.73844 0.552195 0
M  V30 6158 H 604.994 -7.52862 1.7441 0
M  V30 6159 H 603.339 -6.77226 1.56175 0
M  V30 6160 H 606.53 -4.6177 0.767235 0
M  V30 6161 H 606.703 -6.34609 1.31053 0
M  V30 6162 O 600.148 -0.242051 -1.59676 0
M  V30 6163 H 600.839 0.334494 -1.9079 0
M  V30 END ATOM
M  V30 BEGIN BOND
M  V30 END BOND
M  V30 END CTAB
M  END
$$$$
