drugbank_target|P48167 Glycine receptor subunit beta (DB05885; DB09061; DB14009; DB14011)
 OpenBabel12092119233D

  0  0  0     0  0            999 V3000
M  V30 BEGIN CTAB
M  V30 COUNTS 7974 8067 0 0 0
M  V30 BEGIN ATOM
M  V30 1 H -0.908 1.98254 -0.117106 0
M  V30 2 N 0 1.576 0 0
M  V30 3 C 0.933 2.03868 1.02534 0
M  V30 4 C 1.911 0.928543 1.3348 0
M  V30 5 O 3.095 1.19667 1.45644 0
M  V30 6 C 0.222 2.43627 2.35294 0
M  V30 7 C -0.732 3.65373 2.2001 0
M  V30 8 S 0.101 5.13292 1.52614 0
M  V30 9 C 1.257 5.56322 2.86805 0
M  V30 10 H 1.49 2.90518 0.631377 0
M  V30 11 H -0.977 1.52953 0.210867 0
M  V30 12 H 0.981 2.67203 3.11629 0
M  V30 13 H -0.358 1.57376 2.7183 0
M  V30 14 H -1.165 3.90944 3.18086 0
M  V30 15 H -1.563 3.418 1.51819 0
M  V30 16 H 0.729 5.58782 3.83104 0
M  V30 17 H 1.672 6.56266 2.65933 0
M  V30 18 H 2.08 4.83886 2.90714 0
M  V30 19 N 1.4781 -0.272755 1.55222 0
M  V30 20 C 2.4251 -1.33716 1.88119 0
M  V30 21 C 3.3951 -1.49066 0.73271 0
M  V30 22 O 4.5801 -1.63469 0.984002 0
M  V30 23 C 1.7201 -2.69238 2.15882 0
M  V30 24 C 0.8331 -2.62108 3.43399 0
M  V30 25 C -0.0319 -3.89811 3.60861 0
M  V30 26 C -0.9929 -3.77193 4.8207 0
M  V30 27 N -1.8559 -4.9673 4.96189 0
M  V30 28 H 2.9841 -1.04962 2.78903 0
M  V30 29 H 0.5211 -0.507088 1.38083 0
M  V30 30 H 2.4791 -3.48089 2.29978 0
M  V30 31 H 1.1091 -2.96194 1.28331 0
M  V30 32 H 0.1611 -1.74967 3.37773 0
M  V30 33 H 1.4731 -2.48685 4.32386 0
M  V30 34 H 0.6271 -4.77103 3.74777 0
M  V30 35 H -0.6339 -4.06102 2.7006 0
M  V30 36 H -1.6289 -2.88284 4.68159 0
M  V30 37 H -0.4039 -3.62421 5.74307 0
M  V30 38 H -2.4579 -5.13431 4.08319 0
M  V30 39 H -2.5409 -4.85839 5.79221 0
M  V30 40 H -1.2729 -5.85594 5.1449 0
M  V30 41 N 2.9562 -1.48159 -0.537278 0
M  V30 42 C 4.2032 -1.55804 -1.29349 0
M  V30 43 C 4.5312 -0.228802 -1.9315 0
M  V30 44 O 3.7862 0.780242 -1.79473 0
M  V30 45 C 4.0852 -2.63956 -2.40961 0
M  V30 46 C 3.7512 -4.0662 -1.94861 0
M  V30 47 C 2.4132 -4.45452 -1.82006 0
M  V30 48 C 4.7652 -4.96055 -1.59933 0
M  V30 49 C 2.0932 -5.71531 -1.32547 0
M  V30 50 C 4.4452 -6.22617 -1.11939 0
M  V30 51 C 3.1092 -6.60312 -0.976951 0
M  V30 52 H 2.3792 -0.570129 -0.473322 0
M  V30 53 H 5.0262 -1.81845 -0.600372 0
M  V30 54 H 3.3312 -2.31747 -3.15912 0
M  V30 55 H 5.0282 -2.67089 -2.99107 0
M  V30 56 H 1.6182 -3.75949 -2.05815 0
M  V30 57 H 5.8022 -4.66738 -1.68728 0
M  V30 58 H 1.0582 -5.99468 -1.202 0
M  V30 59 H 5.2322 -6.91318 -0.839811 0
M  V30 60 H 2.8592 -7.57895 -0.591501 0
M  V30 61 N 4.4343 0.785586 -1.36625 0
M  V30 62 C 5.3643 1.91259 -1.33949 0
M  V30 63 C 6.3453 1.68795 -0.210325 0
M  V30 64 O 7.5303 1.89854 -0.408561 0
M  V30 65 C 4.6603 3.28339 -1.13186 0
M  V30 66 C 3.6143 3.65335 -2.22967 0
M  V30 67 C 2.9403 5.00806 -1.87342 0
M  V30 68 C 4.2403 3.7352 -3.65075 0
M  V30 69 H 5.9343 1.93755 -2.28253 0
M  V30 70 H 3.4803 0.930788 -1.09874 0
M  V30 71 H 5.4333 4.06804 -1.09948 0
M  V30 72 H 4.1573 3.2624 -0.153332 0
M  V30 73 H 2.8163 2.89169 -2.25337 0
M  V30 74 H 2.4643 4.95233 -0.880545 0
M  V30 75 H 2.1643 5.26529 -2.60846 0
M  V30 76 H 3.6883 5.81687 -1.85667 0
M  V30 77 H 5.1023 4.42168 -3.64911 0
M  V30 78 H 3.4993 4.10731 -4.37516 0
M  V30 79 H 4.5693 2.74527 -3.99703 0
M  V30 80 N 5.9124 1.20967 1.01018 0
M  V30 81 C 6.8424 0.988272 2.11555 0
M  V30 82 C 7.8234 -0.0849778 1.69888 0
M  V30 83 O 9.0084 0.0738202 1.9406 0
M  V30 84 C 6.1384 0.546528 3.42973 0
M  V30 85 C 5.0924 1.56375 3.9841 0
M  V30 86 C 4.4184 0.97842 5.25672 0
M  V30 87 C 5.7184 2.94922 4.31066 0
M  V30 88 H 7.4124 1.91276 2.30334 0
M  V30 89 H 4.9584 0.921073 1.1069 0
M  V30 90 H 6.9114 0.378839 4.19694 0
M  V30 91 H 5.6354 -0.413598 3.23971 0
M  V30 92 H 4.2944 1.71891 3.23804 0
M  V30 93 H 3.9424 0.0101688 5.02999 0
M  V30 94 H 3.6424 1.65784 5.63728 0
M  V30 95 H 5.1664 0.821939 6.05043 0
M  V30 96 H 6.5804 2.8288 4.9865 0
M  V30 97 H 4.9774 3.5983 4.80253 0
M  V30 98 H 6.0474 3.4616 3.39561 0
M  V30 99 N 7.3905 -1.2043 1.01659 0
M  V30 100 C 8.6185 -1.93777 0.725132 0
M  V30 101 C 9.0335 -1.74772 -0.714166 0
M  V30 102 O 8.3905 -1.06169 -1.4844 0
M  V30 103 C 8.4415 -3.45876 1.05129 0
M  V30 104 O 8.1625 -3.6426 2.43406 0
M  V30 105 C 9.6635 -4.36368 0.780891 0
M  V30 106 H 6.8835 -0.615901 0.266284 0
M  V30 107 H 9.4275 -1.52922 1.35776 0
M  V30 108 H 7.5825 -3.8461 0.464065 0
M  V30 109 H 7.9965 -4.58246 2.55169 0
M  V30 110 H 9.4705 -5.41743 1.05918 0
M  V30 111 H 9.9475 -4.38275 -0.284937 0
M  V30 112 H 10.5535 -4.03296 1.35027 0
M  V30 113 N 8.8686 -0.792821 -1.36206 0
M  V30 114 C 10.0966 -0.378825 -2.03402 0
M  V30 115 C 10.5116 1.00586 -1.59774 0
M  V30 116 O 9.8686 1.64574 -0.788764 0
M  V30 117 C 9.9196 -0.43683 -3.58851 0
M  V30 118 O 9.6406 -1.76691 -4.00889 0
M  V30 119 C 11.1416 -0.0138943 -4.43298 0
M  V30 120 H 8.3616 -0.155673 -0.652692 0
M  V30 121 H 10.9056 -1.07261 -1.74113 0
M  V30 122 H 9.0606 0.208575 -3.86838 0
M  V30 123 H 9.4746 -1.72011 -4.95492 0
M  V30 124 H 10.9486 -0.105615 -5.51899 0
M  V30 125 H 11.4256 1.03915 -4.2673 0
M  V30 126 H 12.0316 -0.63192 -4.20579 0
M  V30 127 N 10.3467 1.47872 -0.545128 0
M  V30 128 C 11.3097 2.28337 0.198717 0
M  V30 129 C 12.3097 1.36255 0.853888 0
M  V30 130 O 13.4997 1.59003 0.711606 0
M  V30 131 C 10.6317 3.15585 1.28915 0
M  V30 132 H 11.8247 2.95567 -0.507941 0
M  V30 133 H 9.3777 1.53362 -0.301616 0
M  V30 134 H 10.1127 2.53019 2.02859 0
M  V30 135 H 9.8977 3.83337 0.824309 0
M  V30 136 H 11.3877 3.76243 1.81194 0
M  V30 137 N 11.8248 0.280983 1.55075 0
M  V30 138 C 13.0718 -0.334115 1.99725 0
M  V30 139 C 13.3998 -1.5542 1.1694 0
M  V30 140 O 12.6548 -1.94361 0.228531 0
M  V30 141 C 12.9538 -0.754656 3.49342 0
M  V30 142 C 12.6198 0.361445 4.49449 0
M  V30 143 C 11.2818 0.667893 4.76542 0
M  V30 144 C 13.6338 1.11322 5.09173 0
M  V30 145 C 10.9618 1.7296 5.60626 0
M  V30 146 C 13.3138 2.1647 5.9441 0
M  V30 147 C 11.9778 2.47742 6.19822 0
M  V30 148 H 11.2478 -0.122261 0.730844 0
M  V30 149 H 13.8948 0.395917 1.87363 0
M  V30 150 H 12.1998 -1.56446 3.5921 0
M  V30 151 H 13.8968 -1.24142 3.813 0
M  V30 152 H 10.4868 0.112481 4.28452 0
M  V30 153 H 14.6708 0.88973 4.8826 0
M  V30 154 H 9.9268 1.97684 5.78559 0
M  V30 155 H 14.1008 2.75193 6.3972 0
M  V30 156 H 11.7278 3.30145 6.84769 0
M  V30 157 N 13.3029 -1.57598 0.00835791 0
M  V30 158 C 14.2329 -2.1198 -0.979113 0
M  V30 159 C 15.2139 -1.03091 -1.35301 0
M  V30 160 O 16.3989 -1.30818 -1.43528 0
M  V30 161 C 13.5289 -2.62995 -2.26828 0
M  V30 162 C 12.4829 -3.76485 -2.03576 0
M  V30 163 C 11.8089 -4.13846 -3.38579 0
M  V30 164 C 13.1089 -5.0342 -1.39161 0
M  V30 165 H 14.8029 -2.94738 -0.526281 0
M  V30 166 H 12.3489 -1.41783 -0.251704 0
M  V30 167 H 14.3019 -2.99669 -2.96271 0
M  V30 168 H 13.0259 -1.7737 -2.7424 0
M  V30 169 H 11.6849 -3.40217 -1.36557 0
M  V30 170 H 11.3329 -3.25232 -3.83709 0
M  V30 171 H 11.0329 -4.90312 -3.23834 0
M  V30 172 H 12.5569 -4.53086 -4.09323 0
M  V30 173 H 13.9709 -5.37812 -1.98573 0
M  V30 174 H 12.3679 -5.84746 -1.34878 0
M  V30 175 H 13.4379 -4.83548 -0.361868 0
M  V30 176 N 14.781 0.264519 -1.55364 0
M  V30 177 C 16.03 0.992812 -1.75574 0
M  V30 178 C 16.343 1.87142 -0.568979 0
M  V30 179 O 17.549 2.63513 -0.653682 0
M  V30 180 C 16.005 1.81519 -3.10771 0
M  V30 181 C 15.613 0.984839 -4.37041 0
M  V30 182 C 17.357 2.53727 -3.40327 0
M  V30 183 C 15.264 1.80209 -5.63275 0
M  V30 184 H 14.194 0.374412 -0.65447 0
M  V30 185 H 16.845 0.248138 -1.81815 0
M  V30 186 H 15.227 2.60115 -2.98591 0
M  V30 187 H 16.401 0.242455 -4.60162 0
M  V30 188 H 14.716 0.37691 -4.14691 0
M  V30 189 H 17.313 3.15292 -4.3185 0
M  V30 190 H 17.656 3.24447 -2.60845 0
M  V30 191 H 18.189 1.82156 -3.53644 0
M  V30 192 H 14.928 1.13896 -6.45529 0
M  V30 193 H 14.448 2.52022 -5.44284 0
M  V30 194 H 16.127 2.37364 -6.01887 0
M  V30 195 N 16.2591 1.48442 0.529413 0
M  V30 196 C 17.1891 1.65902 1.64313 0
M  V30 197 C 18.1701 0.507897 1.6234 0
M  V30 198 O 19.3551 0.740503 1.79528 0
M  V30 199 C 16.4851 1.69911 3.02898 0
M  V30 200 C 15.4391 2.8453 3.19729 0
M  V30 201 C 14.7651 2.73629 4.59381 0
M  V30 202 C 16.0651 4.25821 3.02447 0
M  V30 203 H 17.7591 2.5914 1.49955 0
M  V30 204 H 15.3051 1.24709 0.719982 0
M  V30 205 H 17.2581 1.80715 3.80684 0
M  V30 206 H 15.9821 0.732524 3.18279 0
M  V30 207 H 14.6411 2.73283 2.44361 0
M  V30 208 H 14.2891 1.74938 4.71599 0
M  V30 209 H 13.9891 3.50541 4.71588 0
M  V30 210 H 15.5131 2.86401 5.39265 0
M  V30 211 H 16.9271 4.37898 3.70024 0
M  V30 212 H 15.3241 5.03735 3.26146 0
M  V30 213 H 16.3941 4.42244 1.98867 0
M  V30 214 N 17.7372 -0.778329 1.37039 0
M  V30 215 C 18.9862 -1.53189 1.3121 0
M  V30 216 C 19.2992 -1.95328 -0.103095 0
M  V30 217 O 20.5052 -2.70012 -0.283826 0
M  V30 218 C 18.9612 -2.76591 2.30272 0
M  V30 219 C 18.5692 -2.41577 3.77286 0
M  V30 220 C 20.3132 -3.5455 2.33441 0
M  V30 221 C 18.2202 -3.61441 4.68096 0
M  V30 222 H 17.1502 -0.5751 0.487622 0
M  V30 223 H 19.8012 -0.853101 1.62464 0
M  V30 224 H 18.1832 -3.46326 1.92027 0
M  V30 225 H 19.3572 -1.79668 4.2433 0
M  V30 226 H 17.6722 -1.76806 3.76999 0
M  V30 227 H 20.2692 -4.43628 2.98493 0
M  V30 228 H 20.6122 -3.93936 1.34611 0
M  V30 229 H 21.1452 -2.91805 2.7036 0
M  V30 230 H 17.8842 -3.27142 5.6803 0
M  V30 231 H 17.4042 -4.22478 4.25761 0
M  V30 232 H 19.0832 -4.28335 4.8491 0
M  V30 233 N 19.2153 -1.21501 -1.00376 0
M  V30 234 C 20.4403 -1.05977 -1.78279 0
M  V30 235 C 20.8653 0.385994 -1.84097 0
M  V30 236 O 20.2233 1.27849 -1.28547 0
M  V30 237 C 20.2713 -1.66302 -3.19963 0
M  V30 238 O 19.3753 -0.909333 -4.0225 0
M  V30 239 H 18.7163 -0.372906 -0.549397 0
M  V30 240 H 21.2463 -1.6107 -1.26165 0
M  V30 241 H 21.2563 -1.70574 -3.70632 0
M  V30 242 H 19.9313 -2.71515 -3.15043 0
M  V30 243 H 18.5083 -0.941795 -3.60811 0
M  V30 244 N 20.6934 1.19889 -1.02296 0
M  V30 245 C 21.6234 2.25141 -0.619174 0
M  V30 246 C 22.6044 1.66051 0.368915 0
M  V30 247 O 23.7894 1.92546 0.252941 0
M  V30 248 C 20.9194 3.4728 0.0368783 0
M  V30 249 C 19.8734 4.19005 -0.872865 0
M  V30 250 C 19.1994 5.34637 -0.0822402 0
M  V30 251 C 20.4994 4.74452 -2.18387 0
M  V30 252 H 22.1934 2.59171 -1.49903 0
M  V30 253 H 19.7394 1.24579 -0.722222 0
M  V30 254 H 21.6924 4.20098 0.330958 0
M  V30 255 H 20.4164 3.12433 0.95149 0
M  V30 256 H 19.0754 3.48061 -1.15105 0
M  V30 257 H 18.7234 4.96034 0.83422 0
M  V30 258 H 18.4234 5.83557 -0.688149 0
M  V30 259 H 19.9474 6.10255 0.205238 0
M  V30 260 H 21.3614 5.39055 -1.95172 0
M  V30 261 H 19.7584 5.33834 -2.74119 0
M  V30 262 H 20.8284 3.92844 -2.84257 0
M  V30 263 N 22.1715 0.800033 1.35784 0
M  V30 264 C 23.4175 0.38701 1.99684 0
M  V30 265 C 23.7725 -1.03268 1.62338 0
M  V30 266 O 23.0655 -1.70543 0.87325 0
M  V30 267 C 23.2595 0.500276 3.53881 0
M  V30 268 C 23.0885 1.92942 4.06206 0
M  V30 269 C 21.8585 2.55637 4.35865 0
M  V30 270 C 24.0565 2.89307 4.25213 0
M  V30 271 N 22.0385 3.9003 4.74078 0
M  V30 272 C 23.4095 4.08556 4.66349 0
M  V30 273 C 25.4645 2.86225 4.07406 0
M  V30 274 C 24.1675 5.25146 4.91543 0
M  V30 275 C 26.1935 4.02011 4.33752 0
M  V30 276 C 25.5555 5.20007 4.75155 0
M  V30 277 H 21.6545 0.189252 0.758754 0
M  V30 278 H 24.2385 1.03988 1.64604 0
M  V30 279 H 22.4095 -0.122568 3.88207 0
M  V30 280 H 24.1415 0.0624733 4.04652 0
M  V30 281 H 20.8965 2.07039 4.25948 0
M  V30 282 H 21.3205 4.59205 4.97454 0
M  V30 283 H 25.9625 1.96154 3.74544 0
M  V30 284 H 23.6805 6.15794 5.23281 0
M  V30 285 H 27.2665 4.00999 4.21534 0
M  V30 286 H 26.1465 6.08113 4.95145 0
M  V30 287 N 23.6496 -1.47581 0.552962 0
M  V30 288 C 24.8956 -2.02782 0.0273648 0
M  V30 289 C 25.2286 -1.42687 -1.31734 0
M  V30 290 O 24.5036 -0.580897 -1.85623 0
M  V30 291 C 24.7866 -3.60031 -0.0702371 0
M  V30 292 C 24.6396 -4.30566 1.30126 0
M  V30 293 C 25.9586 -4.33028 -0.785771 0
M  V30 294 H 23.0776 -0.736912 0.0114185 0
M  V30 295 H 25.7196 -1.76056 0.714432 0
M  V30 296 H 23.8696 -3.82932 -0.655382 0
M  V30 297 H 25.5416 -4.19018 1.92929 0
M  V30 298 H 23.7846 -3.91086 1.87709 0
M  V30 299 H 24.4556 -5.39114 1.18573 0
M  V30 300 H 26.9316 -4.15095 -0.288982 0
M  V30 301 H 25.8076 -5.42695 -0.823013 0
M  V30 302 H 26.0686 -4.01945 -1.841 0
M  V30 303 N 25.1277 -0.289203 -1.54924 0
M  V30 304 C 26.0377 0.601863 -2.26748 0
M  V30 305 C 27.0537 1.15834 -1.2984 0
M  V30 306 O 28.2297 1.18564 -1.62802 0
M  V30 307 C 25.2947 1.76299 -2.98529 0
M  V30 308 C 24.3557 1.24178 -4.10948 0
M  V30 309 C 23.5887 2.34757 -4.79296 0
M  V30 310 O 23.8117 3.54411 -4.46933 0
M  V30 311 O 22.7457 2.02115 -5.66951 0
M  V30 312 H 26.5717 0.0195879 -3.03694 0
M  V30 313 H 24.1567 -0.0560868 -1.49295 0
M  V30 314 H 26.0387 2.43973 -3.43592 0
M  V30 315 H 24.7137 2.33209 -2.24488 0
M  V30 316 H 23.6207 0.531104 -3.70311 0
M  V30 317 H 24.9537 0.718252 -4.86931 0
M  V30 318 N 26.6058 1.57591 -0.0167156 0
M  V30 319 C 27.5158 2.1291 0.98521 0
M  V30 320 C 28.5318 1.07834 1.36557 0
M  V30 321 O 29.7078 1.39826 1.44951 0
M  V30 322 C 26.7728 2.63512 2.25305 0
M  V30 323 C 25.8338 3.83256 1.93426 0
M  V30 324 C 25.0668 4.31435 3.14165 0
M  V30 325 O 25.2898 3.78851 4.26413 0
M  V30 326 O 24.2238 5.23416 2.97186 0
M  V30 327 H 28.0498 2.98772 0.544888 0
M  V30 328 H 25.6348 1.48012 0.203141 0
M  V30 329 H 27.5168 2.96183 2.99756 0
M  V30 330 H 26.1918 1.8074 2.68542 0
M  V30 331 H 25.0988 3.55531 1.16398 0
M  V30 332 H 26.4318 4.67153 1.55013 0
M  V30 333 N 28.0839 -0.256276 1.55502 0
M  V30 334 C 29.0469 -1.30047 1.88734 0
M  V30 335 C 30.0469 -1.4154 0.763086 0
M  V30 336 O 31.2369 -1.40403 1.03115 0
M  V30 337 C 28.3689 -2.67953 2.10747 0
M  V30 338 H 29.5619 -1.01802 2.82093 0
M  V30 339 H 27.1149 -0.495134 1.4825 0
M  V30 340 H 27.8499 -3.01351 1.19825 0
M  V30 341 H 27.6349 -2.60993 2.92617 0
M  V30 342 H 29.1249 -3.43368 2.37673 0
M  V30 343 N 29.562 -1.4872 -0.521534 0
M  V30 344 C 30.792 -1.6061 -1.29954 0
M  V30 345 C 31.2 -0.268728 -1.87282 0
M  V30 346 O 30.543 0.753221 -1.67548 0
M  V30 347 C 30.605 -2.60013 -2.48261 0
M  V30 348 C 30.269 -4.04874 -2.11957 0
M  V30 349 C 31.266 -4.92304 -1.67132 0
M  V30 350 C 28.951 -4.5047 -2.22221 0
M  V30 351 C 30.945 -6.2336 -1.33047 0
M  V30 352 C 28.632 -5.81544 -1.87748 0
M  V30 353 C 29.63 -6.67812 -1.43234 0
M  V30 354 O 29.318 -7.96446 -1.09217 0
M  V30 355 H 29.05 -0.544116 -0.401141 0
M  V30 356 H 31.604 -1.95339 -0.634958 0
M  V30 357 H 29.834 -2.20422 -3.17728 0
M  V30 358 H 31.523 -2.61648 -3.10315 0
M  V30 359 H 32.289 -4.58312 -1.58665 0
M  V30 360 H 28.168 -3.83504 -2.55823 0
M  V30 361 H 31.712 -6.90649 -0.982299 0
M  V30 362 H 27.609 -6.15069 -1.95858 0
M  V30 363 H 28.377 -8.09275 -1.22542 0
M  V30 364 N 31.0401 0.771051 -1.3745 0
M  V30 365 C 32.2651 1.56529 -1.36065 0
M  V30 366 C 32.6901 1.88029 0.0515859 0
M  V30 367 O 32.0481 1.49282 1.02882 0
M  V30 368 C 32.0961 2.85187 -2.20683 0
M  V30 369 O 31.2001 3.79593 -1.61193 0
M  V30 370 H 30.5411 0.47411 -0.464883 0
M  V30 371 H 33.0711 0.954269 -1.80983 0
M  V30 372 H 33.0811 3.34283 -2.33921 0
M  V30 373 H 31.7561 2.61588 -3.23334 0
M  V30 374 H 30.3331 3.38239 -1.56999 0
M  V30 375 N 32.5182 1.22032 0.997298 0
M  V30 376 C 33.4652 0.986467 2.08656 0
M  V30 377 C 34.4352 -0.0902671 1.65855 0
M  V30 378 O 35.6202 0.0584294 1.90711 0
M  V30 379 C 32.7602 0.565569 3.40434 0
M  V30 380 C 31.8732 1.71259 3.96604 0
M  V30 381 C 31.0082 1.24011 5.16522 0
M  V30 382 C 30.0472 2.35896 5.64818 0
M  V30 383 N 29.1842 1.89726 6.7598 0
M  V30 384 H 34.0242 1.91892 2.27994 0
M  V30 385 H 31.5612 0.956199 1.11782 0
M  V30 386 H 33.5192 0.302738 4.161 0
M  V30 387 H 32.1492 -0.329879 3.2111 0
M  V30 388 H 31.2012 2.08986 3.17851 0
M  V30 389 H 32.5132 2.55436 4.28432 0
M  V30 390 H 31.6672 0.934395 5.99461 0
M  V30 391 H 30.4062 0.368487 4.86306 0
M  V30 392 H 29.4112 2.67261 4.8047 0
M  V30 393 H 30.6362 3.23567 5.97061 0
M  V30 394 H 28.5822 1.0492 6.47555 0
M  V30 395 H 28.4992 2.67471 7.07103 0
M  V30 396 H 29.7672 1.62211 7.62435 0
M  V30 397 N 33.9963 -1.19345 1.0293 0
M  V30 398 C 34.9063 -2.26245 0.620515 0
M  V30 399 C 35.9223 -1.70486 -0.347928 0
M  V30 400 O 37.0983 -2.00347 -0.205704 0
M  V30 401 C 34.1633 -3.46693 -0.0218957 0
M  V30 402 C 33.2243 -4.17632 0.994102 0
M  V30 403 C 32.4573 -5.32329 0.382253 0
M  V30 404 O 32.6803 -5.64552 -0.814676 0
M  V30 405 O 31.6143 -5.91664 1.10531 0
M  V30 406 H 35.4403 -2.63453 1.51083 0
M  V30 407 H 33.0253 -1.26207 0.799513 0
M  V30 408 H 34.9073 -4.19683 -0.380072 0
M  V30 409 H 33.5823 -3.11333 -0.886209 0
M  V30 410 H 32.4893 -3.4676 1.40387 0
M  V30 411 H 33.8223 -4.56964 1.8288 0
M  V30 412 N 35.4744 -0.807222 -1.35358 0
M  V30 413 C 36.4214 -0.216037 -2.29787 0
M  V30 414 C 37.3914 0.650278 -1.52842 0
M  V30 415 O 38.5764 0.595227 -1.81278 0
M  V30 416 C 35.7164 0.628893 -3.39321 0
M  V30 417 C 34.8294 -0.257927 -4.31229 0
M  V30 418 C 33.9644 0.595069 -5.27856 0
M  V30 419 C 33.0034 -0.292111 -6.11403 0
M  V30 420 N 32.1404 0.520895 -7.00165 0
M  V30 421 H 36.9804 -1.02671 -2.79755 0
M  V30 422 H 34.5174 -0.517839 -1.37684 0
M  V30 423 H 36.4754 1.13393 -4.01494 0
M  V30 424 H 35.1054 1.40482 -2.90628 0
M  V30 425 H 34.1574 -0.881076 -3.70056 0
M  V30 426 H 35.4694 -0.940759 -4.89848 0
M  V30 427 H 34.6234 1.16522 -5.95405 0
M  V30 428 H 33.3624 1.31146 -4.69736 0
M  V30 429 H 32.3674 -0.874525 -5.428 0
M  V30 430 H 33.5924 -1.00638 -6.71602 0
M  V30 431 H 31.5384 1.22125 -6.44532 0
M  V30 432 H 31.4554 -0.103877 -7.55929 0
M  V30 433 H 32.7234 1.0743 -7.72062 0
M  V30 434 N 36.9525 1.47285 -0.560781 0
M  V30 435 C 38.1775 2.07359 -0.0410566 0
M  V30 436 C 38.6025 1.41017 1.24483 0
M  V30 437 O 37.9605 0.486368 1.74654 0
M  V30 438 C 38.0085 3.6035 0.134123 0
M  V30 439 O 37.1125 3.94681 1.19587 0
M  V30 440 H 36.4535 0.661887 -0.0529291 0
M  V30 441 H 38.9835 1.89252 -0.777482 0
M  V30 442 H 38.9935 4.0652 0.347207 0
M  V30 443 H 37.6685 4.08034 -0.805047 0
M  V30 444 H 36.2455 3.60251 0.962987 0
M  V30 445 N 38.4306 0.297415 1.54768 0
M  V30 446 C 39.6556 -0.318435 2.04941 0
M  V30 447 C 40.0806 -1.4701 1.17345 0
M  V30 448 O 39.4386 -1.80436 0.176758 0
M  V30 449 C 39.4866 -0.755749 3.52592 0
M  V30 450 O 38.5906 -1.86088 3.68028 0
M  V30 451 H 37.9316 -0.062421 0.661059 0
M  V30 452 H 40.4616 0.438215 1.99852 0
M  V30 453 H 40.4716 -1.04552 3.94376 0
M  V30 454 H 39.1466 0.0867233 4.1581 0
M  V30 455 H 37.7236 -1.57193 3.38149 0
M  V30 456 N 39.9087 -1.5758 0.0250728 0
M  V30 457 C 40.8557 -2.09973 -0.958129 0
M  V30 458 C 41.8257 -1.00085 -1.3256 0
M  V30 459 O 43.0107 -1.27481 -1.41962 0
M  V30 460 C 40.1507 -2.62812 -2.2366 0
M  V30 461 C 39.2637 -3.86693 -1.92594 0
M  V30 462 C 38.3987 -4.27941 -3.14707 0
M  V30 463 C 37.4377 -5.44591 -2.79442 0
M  V30 464 N 36.5747 -5.81014 -3.94167 0
M  V30 465 H 41.4147 -2.937 -0.504428 0
M  V30 466 H 38.9517 -1.45172 -0.237392 0
M  V30 467 H 40.9097 -2.91536 -2.98434 0
M  V30 468 H 39.5397 -1.81922 -2.66654 0
M  V30 469 H 38.5917 -3.64723 -1.0808 0
M  V30 470 H 39.9037 -4.71547 -1.62619 0
M  V30 471 H 39.0577 -4.58079 -3.97804 0
M  V30 472 H 37.7967 -3.41845 -3.4784 0
M  V30 473 H 36.8017 -5.1415 -1.94755 0
M  V30 474 H 38.0267 -6.32382 -2.47528 0
M  V30 475 H 35.9727 -4.97874 -4.2715 0
M  V30 476 H 35.8897 -6.60498 -3.67801 0
M  V30 477 H 37.1577 -6.15756 -4.7798 0
M  V30 478 N 41.3868 0.248026 -1.55636 0
M  V30 479 C 42.3338 1.30707 -1.90222 0
M  V30 480 C 43.3038 1.47881 -0.756332 0
M  V30 481 O 44.4888 1.61883 -1.00988 0
M  V30 482 C 41.6288 2.65769 -2.20138 0
M  V30 483 C 40.7418 2.56612 -3.47526 0
M  V30 484 C 39.8768 3.8402 -3.67017 0
M  V30 485 C 38.9158 3.69476 -4.8801 0
M  V30 486 N 38.0528 4.88774 -5.04029 0
M  V30 487 H 42.8928 1.00512 -2.80538 0
M  V30 488 H 40.4298 0.485055 -1.38873 0
M  V30 489 H 42.3878 3.44386 -2.35487 0
M  V30 490 H 41.0178 2.94115 -1.33027 0
M  V30 491 H 40.0698 1.69571 -3.40514 0
M  V30 492 H 41.3818 2.41774 -4.36287 0
M  V30 493 H 40.5358 4.7108 -3.8232 0
M  V30 494 H 39.2748 4.01754 -2.76487 0
M  V30 495 H 38.2798 2.80799 -4.72686 0
M  V30 496 H 39.5048 3.53238 -5.8 0
M  V30 497 H 37.4508 5.0687 -4.16435 0
M  V30 498 H 37.3678 4.76562 -5.86877 0
M  V30 499 H 38.6358 5.77335 -5.23741 0
M  V30 500 N 42.8649 1.48995 0.513639 0
M  V30 501 C 44.1129 1.57531 1.26604 0
M  V30 502 C 44.4339 0.258236 1.93283 0
M  V30 503 O 43.7039 -0.721502 1.8213 0
M  V30 504 H 42.2839 0.580387 0.470276 0
M  V30 505 H 44.9459 1.85552 0.596373 0
M  V30 506 H 44.0419 2.36486 2.03669 0
M  V30 507 N 44.343 -0.763751 1.37857 0
M  V30 508 C 45.29 -1.87726 1.34267 0
M  V30 509 C 46.26 -1.64807 0.206879 0
M  V30 510 O 47.445 -1.86613 0.397508 0
M  V30 511 C 44.585 -3.24896 1.16346 0
M  V30 512 C 43.698 -3.59716 2.39225 0
M  V30 513 C 42.833 -4.86137 2.14114 0
M  V30 514 C 41.872 -5.13711 3.32817 0
M  V30 515 N 41.009 -6.31323 3.07206 0
M  V30 516 H 45.849 -1.90129 2.29466 0
M  V30 517 H 43.386 -0.929433 1.14017 0
M  V30 518 H 45.344 -4.04036 1.03975 0
M  V30 519 H 43.974 -3.21847 0.247909 0
M  V30 520 H 43.026 -2.75498 2.62307 0
M  V30 521 H 44.338 -3.76027 3.27728 0
M  V30 522 H 43.492 -5.73198 1.9882 0
M  V30 523 H 42.231 -4.71945 1.22961 0
M  V30 524 H 41.236 -4.25123 3.48641 0
M  V30 525 H 42.461 -5.29807 4.24832 0
M  V30 526 H 40.407 -6.18474 2.1869 0
M  V30 527 H 40.324 -6.48087 3.89254 0
M  V30 528 H 41.592 -7.213 2.95546 0
M  V30 529 N 45.8211 -1.22559 -0.990812 0
M  V30 530 C 47.0691 -1.04933 -1.72724 0
M  V30 531 C 47.3901 0.416158 -1.90508 0
M  V30 532 O 46.6601 1.29918 -1.46622 0
M  V30 533 H 45.2401 -0.385296 -0.639965 0
M  V30 534 H 47.9021 -1.54105 -1.19322 0
M  V30 535 H 46.9981 -1.52886 -2.72089 0
M  V30 536 N 47.2992 1.18797 -1.03562 0
M  V30 537 C 48.2462 2.22253 -0.622259 0
M  V30 538 C 49.2162 1.61987 0.36736 0
M  V30 539 O 50.4012 1.88986 0.262492 0
M  V30 540 C 47.5412 3.45097 0.0138462 0
M  V30 541 C 46.6542 4.19722 -1.02263 0
M  V30 542 C 45.7892 5.30009 -0.355573 0
M  V30 543 C 44.8282 5.96399 -1.37749 0
M  V30 544 N 43.9652 6.98234 -0.735766 0
M  V30 545 H 48.8052 2.56968 -1.50903 0
M  V30 546 H 46.3422 1.26245 -0.755017 0
M  V30 547 H 48.3002 4.15279 0.399948 0
M  V30 548 H 46.9302 3.11018 0.864158 0
M  V30 549 H 45.9822 3.48418 -1.52673 0
M  V30 550 H 47.2942 4.65227 -1.79903 0
M  V30 551 H 46.4482 6.0664 0.0850095 0
M  V30 552 H 45.1872 4.85592 0.452967 0
M  V30 553 H 44.1922 5.18512 -1.82826 0
M  V30 554 H 45.4172 6.42899 -2.18764 0
M  V30 555 H 43.3632 6.55979 0.0525597 0
M  V30 556 H 43.2802 7.41965 -1.44995 0
M  V30 557 H 44.5482 7.78845 -0.31941 0
M  V30 558 N 48.7773 0.814389 1.34928 0
M  V30 559 C 49.7243 0.22822 2.29669 0
M  V30 560 C 50.6943 -0.642164 1.53184 0
M  V30 561 O 51.8793 -0.585605 1.81591 0
M  V30 562 C 49.0193 -0.61089 3.3965 0
M  V30 563 C 48.1323 0.280792 4.31086 0
M  V30 564 C 47.2673 -0.567067 5.28165 0
M  V30 565 C 46.3063 0.324531 6.11239 0
M  V30 566 N 45.4433 -0.483756 7.00431 0
M  V30 567 H 50.2833 1.04153 2.79206 0
M  V30 568 H 47.8203 0.525133 1.37407 0
M  V30 569 H 49.7783 -1.11263 4.0209 0
M  V30 570 H 48.4083 -1.38939 2.91369 0
M  V30 571 H 47.4603 0.900688 3.69583 0
M  V30 572 H 48.7723 0.966723 4.89342 0
M  V30 573 H 47.9263 -1.13363 5.96015 0
M  V30 574 H 46.6653 -1.28654 4.70425 0
M  V30 575 H 45.6703 0.903298 5.42329 0
M  V30 576 H 46.8953 1.04198 6.71059 0
M  V30 577 H 44.8413 -1.18706 6.45171 0
M  V30 578 H 44.7583 0.143965 7.55863 0
M  V30 579 H 46.0263 -1.03334 7.7262 0
M  V30 580 N 50.2554 -1.46986 0.568584 0
M  V30 581 C 51.2024 -2.30153 -0.172707 0
M  V30 582 C 52.1724 -1.39759 -0.897586 0
M  V30 583 O 53.3574 -1.68716 -0.891044 0
M  V30 584 C 50.4974 -3.23952 -1.1895 0
M  V30 585 C 49.6104 -4.29441 -0.469517 0
M  V30 586 C 48.7454 -5.1038 -1.47259 0
M  V30 587 C 47.7844 -6.07632 -0.738225 0
M  V30 588 N 46.9214 -6.8149 -1.68868 0
M  V30 589 H 51.7614 -2.93019 0.542596 0
M  V30 590 H 49.2984 -1.44422 0.279401 0
M  V30 591 H 51.2564 -3.76767 -1.79173 0
M  V30 592 H 49.8864 -2.62926 -1.87269 0
M  V30 593 H 48.9384 -3.79594 0.247467 0
M  V30 594 H 50.2504 -4.98689 0.105241 0
M  V30 595 H 49.4044 -5.67402 -2.14803 0
M  V30 596 H 48.1434 -4.4106 -2.08128 0
M  V30 597 H 47.1484 -5.49778 -0.0489293 0
M  V30 598 H 48.3734 -6.78966 -0.135129 0
M  V30 599 H 46.3194 -6.14891 -2.28573 0
M  V30 600 H 46.2364 -7.46948 -1.16636 0
M  V30 601 H 47.5044 -7.43078 -2.3549 0
M  V30 602 N 51.7335 -0.305618 -1.54608 0
M  V30 603 C 52.6655 0.602161 -2.21149 0
M  V30 604 C 53.6785 1.09394 -1.20569 0
M  V30 605 O 54.8675 1.0106 -1.47136 0
M  V30 606 C 51.9675 1.83692 -2.84799 0
M  V30 607 C 51.1405 1.48686 -4.11353 0
M  V30 608 C 50.1995 2.57725 -4.58764 0
M  V30 609 O 49.2255 2.22623 -5.23858 0
M  V30 610 N 50.4275 3.88346 -4.31471 0
M  V30 611 H 53.1925 0.0324966 -2.99682 0
M  V30 612 H 50.7535 -0.128021 -1.61393 0
M  V30 613 H 52.7455 2.55994 -3.13448 0
M  V30 614 H 51.3155 2.31486 -2.10078 0
M  V30 615 H 50.5355 0.596269 -3.89664 0
M  V30 616 H 51.8235 1.22842 -4.93748 0
M  V30 617 H 51.2215 4.19671 -3.79331 0
M  V30 618 H 49.7785 4.56932 -4.64818 0
M  V30 619 N 53.2116 1.57565 -0.0334293 0
M  V30 620 C 54.4416 1.95996 0.653398 0
M  V30 621 C 54.8496 0.908749 1.65947 0
M  V30 622 O 54.1926 -0.117471 1.83324 0
M  V30 623 C 54.2546 3.30589 1.41249 0
M  V30 624 C 53.9186 4.53503 0.564263 0
M  V30 625 C 54.9156 5.19647 -0.16225 0
M  V30 626 C 52.6006 4.99801 0.500398 0
M  V30 627 C 54.5946 6.30412 -0.941255 0
M  V30 628 C 52.2816 6.10448 -0.282308 0
M  V30 629 C 53.2796 6.75612 -1.00184 0
M  V30 630 O 52.9676 7.84134 -1.77171 0
M  V30 631 H 52.6996 0.65027 0.184728 0
M  V30 632 H 55.2536 2.05199 -0.0907841 0
M  V30 633 H 53.4836 3.17888 2.20191 0
M  V30 634 H 55.1726 3.53892 1.98784 0
M  V30 635 H 55.9386 4.84846 -0.12227 0
M  V30 636 H 51.8176 4.48883 1.05002 0
M  V30 637 H 55.3616 6.81208 -1.50339 0
M  V30 638 H 51.2586 6.44686 -0.323989 0
M  V30 639 H 52.0266 8.00822 -1.69194 0
M  V30 640 N 54.6897 -0.239769 1.55765 0
M  V30 641 C 55.6197 -1.30052 1.9393 0
M  V30 642 C 56.6007 -1.49839 0.805132 0
M  V30 643 O 57.7857 -1.62328 1.06599 0
M  V30 644 C 54.9157 -2.65391 2.2402 0
M  V30 645 C 53.8697 -2.60289 3.39755 0
M  V30 646 C 53.1957 -3.99489 3.55405 0
M  V30 647 C 54.4957 -2.16654 4.75246 0
M  V30 648 H 56.1897 -0.983573 2.82783 0
M  V30 649 H 53.7357 -0.471701 1.36055 0
M  V30 650 H 55.6887 -3.3974 2.49308 0
M  V30 651 H 54.4127 -2.98736 1.32 0
M  V30 652 H 53.0717 -1.88398 3.14487 0
M  V30 653 H 52.7197 -4.30112 2.60793 0
M  V30 654 H 52.4197 -3.96962 4.33238 0
M  V30 655 H 53.9437 -4.75528 3.83022 0
M  V30 656 H 55.3577 -2.80737 4.99859 0
M  V30 657 H 53.7547 -2.25223 5.56232 0
M  V30 658 H 54.8247 -1.11835 4.71827 0
M  V30 659 N 56.1678 -1.49265 -0.50573 0
M  V30 660 C 57.4078 -1.60128 -1.27038 0
M  V30 661 C 57.7718 -0.279557 -1.89954 0
M  V30 662 O 58.9728 -0.263329 -2.67507 0
M  V30 663 C 57.2438 -2.72507 -2.31246 0
M  V30 664 S 58.8028 -3.0329 -3.17113 0
M  V30 665 H 55.6208 -0.564863 -0.4318 0
M  V30 666 H 58.2228 -1.86902 -0.573397 0
M  V30 667 H 56.9268 -3.67068 -1.83546 0
M  V30 668 H 56.4578 -2.4771 -3.05619 0
M  V30 669 H 58.4728 -2.44448 -4.31809 0
M  V30 670 N 57.6459 0.756429 -1.3826 0
M  V30 671 C 59.0569 1.33359 -1.30661 0
M  V30 672 C 59.4079 1.96161 0.0388875 0
M  V30 673 O 58.5329 1.94874 0.940918 0
M  V30 674 C 59.1279 2.42477 -2.36622 0
M  V30 675 C 57.6869 2.95922 -2.3261 0
M  V30 676 C 56.8339 1.69275 -2.19639 0
M  V30 677 H 59.7849 0.55552 -1.4866 0
M  V30 678 H 59.8059 3.22345 -2.02174 0
M  V30 679 H 59.3179 1.96739 -3.34538 0
M  V30 680 H 57.4189 3.45996 -1.38267 0
M  V30 681 H 57.5319 3.50494 -3.26636 0
M  V30 682 H 55.8959 1.92793 -1.66442 0
M  V30 683 H 56.6789 1.25619 -3.19491 0
M  V30 684 N 59.124 1.23083 0.984299 0
M  V30 685 C 60.349 1.088 1.76571 0
M  V30 686 C 60.774 -0.356657 1.84688 0
M  V30 687 O 60.132 -1.25788 1.30565 0
M  V30 688 C 60.18 1.71371 3.17277 0
M  V30 689 O 59.284 0.973213 4.00752 0
M  V30 690 H 58.625 0.381599 0.543395 0
M  V30 691 H 61.155 1.63057 1.23587 0
M  V30 692 H 61.165 1.76449 3.67872 0
M  V30 693 H 59.84 2.76493 3.10684 0
M  V30 694 H 58.417 0.999078 3.59267 0
M  V30 695 N 60.6021 -1.18246 1.0419 0
M  V30 696 C 61.5341 -2.2142 0.592088 0
M  V30 697 C 62.5471 -1.59233 -0.338909 0
M  V30 698 O 63.7361 -1.78002 -0.133231 0
M  V30 699 C 60.8361 -3.38546 -0.154854 0
M  V30 700 C 60.0091 -4.3031 0.784328 0
M  V30 701 C 59.0681 -5.26138 0.0804583 0
M  V30 702 O 58.0941 -5.64738 0.711292 0
M  V30 703 N 59.2961 -5.68261 -1.18574 0
M  V30 704 H 62.0611 -2.60636 1.47949 0
M  V30 705 H 59.6221 -1.33044 0.922544 0
M  V30 706 H 61.6141 -3.99678 -0.635606 0
M  V30 707 H 60.1841 -2.98012 -0.943811 0
M  V30 708 H 59.4041 -3.66764 1.44491 0
M  V30 709 H 60.6921 -4.8852 1.42218 0
M  V30 710 H 60.0901 -5.38957 -1.71876 0
M  V30 711 H 58.6471 -6.31584 -1.61074 0
M  V30 712 N 62.0802 -0.821533 -1.34494 0
M  V30 713 C 63.0122 -0.199946 -2.28326 0
M  V30 714 C 64.0252 0.609377 -1.50965 0
M  V30 715 O 65.2142 0.439285 -1.7301 0
M  V30 716 C 62.3142 0.738431 -3.30757 0
M  V30 717 C 61.4872 -0.0277632 -4.37391 0
M  V30 718 C 60.5462 0.831332 -5.19591 0
M  V30 719 O 59.5722 0.276822 -5.68526 0
M  V30 720 N 60.7742 2.15132 -5.39165 0
M  V30 721 H 63.5392 -1.00609 -2.82308 0
M  V30 722 H 61.1002 -0.678366 -1.47003 0
M  V30 723 H 63.0922 1.31773 -3.82646 0
M  V30 724 H 61.6622 1.44533 -2.7718 0
M  V30 725 H 60.8822 -0.788359 -3.86236 0
M  V30 726 H 62.1702 -0.555251 -5.05761 0
M  V30 727 H 61.5682 2.62559 -5.01078 0
M  V30 728 H 60.1252 2.6795 -5.94177 0
M  V30 729 N 63.5583 1.46682 -0.576371 0
M  V30 730 C 64.7833 2.07304 -0.0630475 0
M  V30 731 C 65.2083 1.42329 1.2298 0
M  V30 732 O 64.5663 0.504865 1.74129 0
M  V30 733 C 64.6143 3.60472 0.095895 0
M  V30 734 O 63.7183 3.95927 1.15394 0
M  V30 735 H 63.0593 0.661288 -0.0599463 0
M  V30 736 H 65.5893 1.88417 -0.797511 0
M  V30 737 H 65.5993 4.06865 0.304071 0
M  V30 738 H 64.2743 4.07157 -0.84828 0
M  V30 739 H 62.8513 3.61252 0.924724 0
M  V30 740 N 65.0364 0.313813 1.54444 0
M  V30 741 C 65.9994 -0.54379 2.22656 0
M  V30 742 C 66.9994 -1.05124 1.21678 0
M  V30 743 O 68.1894 -0.945225 1.46325 0
M  V30 744 C 65.3214 -1.75427 2.92298 0
M  V30 745 H 66.5144 0.0523599 2.99854 0
M  V30 746 H 64.0674 0.0647834 1.56166 0
M  V30 747 H 64.8024 -2.38991 2.19211 0
M  V30 748 H 64.5874 -1.39791 3.66334 0
M  V30 749 H 66.0774 -2.36325 3.44297 0
M  V30 750 N 66.5145 -1.57545 0.0417849 0
M  V30 751 C 67.4245 -2.14451 -0.951213 0
M  V30 752 C 68.4405 -1.09992 -1.34825 0
M  V30 753 O 69.6165 -1.42114 -1.42708 0
M  V30 754 C 66.6815 -2.67063 -2.21084 0
M  V30 755 C 65.7425 -3.86284 -1.87304 0
M  V30 756 C 64.9755 -4.36378 -3.07261 0
M  V30 757 O 65.1985 -3.85587 -4.20332 0
M  V30 758 O 64.1325 -5.28077 -2.88822 0
M  V30 759 H 67.9585 -2.99601 -0.497287 0
M  V30 760 H 65.5435 -1.48317 -0.179567 0
M  V30 761 H 67.4255 -3.00914 -2.95006 0
M  V30 762 H 66.1005 -1.84989 -2.65633 0
M  V30 763 H 65.0075 -3.57338 -1.10727 0
M  V30 764 H 66.3405 -4.6956 -1.47562 0
M  V30 765 N 67.9926 0.231505 -1.5589 0
M  V30 766 C 69.2696 0.981096 -1.69215 0
M  V30 767 C 69.6496 2.02799 -0.586164 0
M  V30 768 O 68.9976 2.24823 0.408253 0
M  V30 769 C 69.2076 1.60054 -3.10135 0
M  V30 770 C 70.5556 2.09658 -3.69227 0
M  V30 771 O 71.5796 1.69967 -3.13033 0
M  V30 772 O 70.4386 2.8258 -4.67772 0
M  V30 773 H 67.5326 0.457653 -0.688827 0
M  V30 774 H 70.0786 0.224073 -1.68214 0
M  V30 775 H 68.8506 0.844105 -3.82087 0
M  V30 776 H 68.4736 2.42336 -3.15212 0
M  V30 777 N 69.4707 1.49531 0.497807 0
M  V30 778 C 70.4007 1.6935 1.60757 0
M  V30 779 C 71.3817 0.542218 1.61227 0
M  V30 780 O 72.5667 0.778417 1.77917 0
M  V30 781 C 69.6967 1.76298 2.99226 0
M  V30 782 C 68.6507 2.91248 3.13622 0
M  V30 783 C 67.9767 2.83312 4.53474 0
M  V30 784 C 69.2767 4.3214 2.93346 0
M  V30 785 H 70.9707 2.62263 1.44425 0
M  V30 786 H 68.5167 1.26208 0.693367 0
M  V30 787 H 70.4697 1.88749 3.76765 0
M  V30 788 H 69.1937 0.799871 3.16654 0
M  V30 789 H 67.8527 2.78404 2.38509 0
M  V30 790 H 67.5007 1.84902 4.67782 0
M  V30 791 H 67.2007 3.60465 4.64046 0
M  V30 792 H 68.7247 2.97775 5.33069 0
M  V30 793 H 70.1387 4.45649 3.60652 0
M  V30 794 H 68.5357 5.1054 3.15387 0
M  V30 795 H 69.6057 4.46363 1.89441 0
M  V30 796 N 70.9488 -0.749086 1.3866 0
M  V30 797 C 71.9118 -1.84457 1.36045 0
M  V30 798 C 72.9118 -1.58682 0.260122 0
M  V30 799 O 74.1018 -1.66343 0.517261 0
M  V30 800 C 71.2338 -3.22008 1.11911 0
M  V30 801 H 72.4268 -1.88182 2.33512 0
M  V30 802 H 69.9798 -0.951266 1.24019 0
M  V30 803 H 70.7148 -3.2395 0.150686 0
M  V30 804 H 70.4998 -3.42111 1.91579 0
M  V30 805 H 71.9898 -4.0208 1.12788 0
M  V30 806 N 72.4269 -1.23603 -0.977757 0
M  V30 807 C 73.8429 -0.999251 -1.24447 0
M  V30 808 C 74.0429 0.298053 -1.99283 0
M  V30 809 O 73.0989 1.01681 -2.31122 0
M  V30 810 C 74.4119 -2.20784 -2.04144 0
M  V30 811 C 75.9599 -2.25303 -2.17273 0
M  V30 812 C 76.4349 -3.45755 -3.00362 0
M  V30 813 N 77.9259 -3.4601 -3.07947 0
M  V30 814 C 78.6609 -4.35868 -3.72568 0
M  V30 815 N 78.1569 -5.35966 -4.38991 0
M  V30 816 N 79.9499 -4.23605 -3.6948 0
M  V30 817 H 72.1009 -2.06986 -0.476483 0
M  V30 818 H 74.3639 -0.907801 -0.273134 0
M  V30 819 H 74.0699 -3.14945 -1.56533 0
M  V30 820 H 73.9439 -2.22085 -3.04891 0
M  V30 821 H 76.3309 -1.3168 -2.64092 0
M  V30 822 H 76.4119 -2.28033 -1.15907 0
M  V30 823 H 76.0559 -4.39687 -2.5424 0
M  V30 824 H 75.9859 -3.40266 -4.01904 0
M  V30 825 H 78.4769 -2.73588 -2.60688 0
M  V30 826 H 78.7899 -6.00783 -4.86086 0
M  V30 827 H 77.1349 -5.39863 -4.37691 0
M  V30 828 H 80.3259 -3.44647 -3.16759 0
M  V30 829 H 80.4989 -4.93836 -4.1956 0
M  V30 830 N 73.905 1.17692 -1.04816 0
M  V30 831 C 75.151 1.88137 -0.75711 0
M  V30 832 C 75.484 1.80604 0.713841 0
M  V30 833 O 74.759 1.21146 1.52164 0
M  V30 834 C 75.042 3.38318 -1.2334 0
M  V30 835 C 74.895 3.54622 -2.76701 0
M  V30 836 C 76.214 4.32214 -0.829415 0
M  V30 837 H 73.333 0.683163 -0.27651 0
M  V30 838 H 75.975 1.38424 -1.30149 0
M  V30 839 H 74.125 3.80787 -0.770286 0
M  V30 840 H 75.797 3.21194 -3.31107 0
M  V30 841 H 74.04 2.97026 -3.16161 0
M  V30 842 H 74.711 4.60028 -3.05088 0
M  V30 843 H 77.187 3.97565 -1.22805 0
M  V30 844 H 76.063 5.35838 -1.19033 0
M  V30 845 H 76.324 4.41294 0.266891 0
M  V30 846 N 75.3831 0.828654 1.34056 0
M  V30 847 C 76.7941 0.477534 1.8049 0
M  V30 848 C 77.1451 -1.00258 1.6865 0
M  V30 849 O 76.2701 -1.78057 1.22982 0
M  V30 850 C 76.8651 0.860018 3.27703 0
M  V30 851 C 75.4241 0.561185 3.72193 0
M  V30 852 C 74.5711 1.07385 2.55663 0
M  V30 853 H 77.5221 1.0183 1.21722 0
M  V30 854 H 77.5431 0.166038 3.80138 0
M  V30 855 H 77.0551 1.93731 3.36288 0
M  V30 856 H 75.1561 -0.506465 3.69142 0
M  V30 857 H 75.2691 1.10926 4.66082 0
M  V30 858 H 73.6331 0.495149 2.49841 0
M  V30 859 H 74.4161 2.15771 2.67016 0
M  V30 860 N 76.8612 -1.46375 0.584142 0
M  V30 861 C 77.8242 -2.28784 -0.138108 0
M  V30 862 C 78.8242 -1.38471 -0.817462 0
M  V30 863 O 80.0142 -1.60833 -0.669199 0
M  V30 864 C 77.1462 -3.18892 -1.20503 0
M  V30 865 H 78.3392 -2.94117 0.586127 0
M  V30 866 H 75.8922 -1.52509 0.342171 0
M  V30 867 H 76.6272 -2.58309 -1.96079 0
M  V30 868 H 76.4122 -3.85388 -0.722384 0
M  V30 869 H 77.9022 -3.80914 -1.71155 0
M  V30 870 N 78.3393 -0.321999 -1.54275 0
M  V30 871 C 79.2873 0.560206 -2.25753 0
M  V30 872 C 80.2813 1.11984 -1.27106 0
M  V30 873 O 81.4873 1.06806 -1.44888 0
M  V30 874 H 77.8623 0.199304 -0.725108 0
M  V30 875 H 79.8333 -0.0649365 -2.98329 0
M  V30 876 C 78.5823 1.71023 -3.02731 0
M  V30 877 H 77.9053 1.28885 -3.78456 0
M  V30 878 H 79.3453 2.30314 -3.55993 0
M  V30 879 C 77.8043 2.62692 -2.10938 0
M  V30 880 O 78.3343 3.64364 -1.6912 0
M  V30 881 N 76.5403 2.30891 -1.76459 0
M  V30 882 H 76.0873 1.48253 -2.10663 0
M  V30 883 H 76.0453 2.92487 -1.1532 0
M  V30 884 N 79.8174 1.5752 -0.0501392 0
M  V30 885 C 81.0424 1.97376 0.636997 0
M  V30 886 C 81.4674 0.927466 1.63645 0
M  V30 887 O 80.8254 -0.10941 1.8097 0
M  V30 888 C 80.8734 3.36304 1.30123 0
M  V30 889 O 79.9774 3.34156 2.41689 0
M  V30 890 H 79.3184 0.642998 0.165679 0
M  V30 891 H 81.8484 2.04258 -0.118233 0
M  V30 892 H 81.8584 3.73008 1.65315 0
M  V30 893 H 80.5334 4.11993 0.568746 0
M  V30 894 H 79.1104 3.09196 2.08451 0
M  V30 895 N 81.2955 -0.223234 1.56011 0
M  V30 896 C 82.5235 -0.964812 1.83027 0
M  V30 897 C 82.9385 -1.78013 0.62904 0
M  V30 898 O 82.2955 -1.78008 -0.402414 0
M  V30 899 C 82.3465 -1.88373 3.08542 0
M  V30 900 O 82.0675 -1.10137 4.2403 0
M  V30 901 C 83.5685 -2.73934 3.48533 0
M  V30 902 H 80.7885 -0.282842 0.608475 0
M  V30 903 H 83.3325 -0.238971 2.03099 0
M  V30 904 H 81.4875 -2.56354 2.9045 0
M  V30 905 H 81.9015 -1.72501 4.95322 0
M  V30 906 H 83.3755 -3.34117 4.39397 0
M  V30 907 H 83.8525 -3.46244 2.70207 0
M  V30 908 H 84.4585 -2.11369 3.69057 0
M  V30 909 N 82.7736 -1.49793 -0.48987 0
M  V30 910 C 83.9986 -1.63836 -1.27172 0
M  V30 911 C 84.4236 -0.31402 -1.8546 0
M  V30 912 O 83.7816 0.719803 -1.66399 0
M  V30 913 C 83.8296 -2.71797 -2.36978 0
M  V30 914 O 82.9336 -2.31744 -3.41128 0
M  V30 915 H 82.2746 -0.547997 -0.37496 0
M  V30 916 H 84.8046 -1.96053 -0.585191 0
M  V30 917 H 84.8146 -2.94305 -2.82575 0
M  V30 918 H 83.4896 -3.67923 -1.93921 0
M  V30 919 H 82.0666 -2.1961 -3.01373 0
M  V30 920 N 84.2517 0.741722 -1.39055 0
M  V30 921 C 85.1997 1.87702 -1.3737 0
M  V30 922 C 86.1937 1.67427 -0.257812 0
M  V30 923 O 87.3997 1.7485 -0.427489 0
M  V30 924 H 83.7747 0.617757 -0.428812 0
M  V30 925 H 85.7457 1.86239 -2.33147 0
M  V30 926 C 84.4947 3.25315 -1.22741 0
M  V30 927 H 83.8177 3.41509 -2.07873 0
M  V30 928 H 85.2577 4.04964 -1.25618 0
M  V30 929 C 83.7167 3.36838 0.0647316 0
M  V30 930 O 84.2467 3.88073 1.03741 0
M  V30 931 N 82.4527 2.90329 0.125544 0
M  V30 932 H 81.9997 2.48823 -0.666682 0
M  V30 933 H 81.9577 2.98418 0.989639 0
M  V30 934 N 85.7298 1.2412 0.971189 0
M  V30 935 C 86.9788 1.07284 1.70801 0
M  V30 936 C 87.2918 -0.388902 1.91695 0
M  V30 937 O 88.4978 -0.677379 2.62914 0
M  V30 938 C 86.9538 1.87145 3.07416 0
M  V30 939 C 86.5618 3.37707 2.94377 0
M  V30 940 C 88.3058 1.78828 3.84995 0
M  V30 941 C 86.2128 4.09925 4.26281 0
M  V30 942 H 85.1428 0.397854 0.64049 0
M  V30 943 H 87.7938 1.4817 1.0825 0
M  V30 944 H 86.1758 1.39071 3.70777 0
M  V30 945 H 87.3498 3.93335 2.4005 0
M  V30 946 H 85.6648 3.46938 2.30267 0
M  V30 947 H 88.2618 2.30089 4.82662 0
M  V30 948 H 88.6048 0.75284 4.09436 0
M  V30 949 H 89.1378 2.24563 3.28354 0
M  V30 950 H 85.8768 5.13813 4.07033 0
M  V30 951 H 85.3968 3.59083 4.80437 0
M  V30 952 H 87.0758 4.1673 4.94919 0
M  V30 953 N 87.2079 -1.17134 1.05439 0
M  V30 954 C 88.1379 -2.2342 0.678649 0
M  V30 955 C 89.1189 -1.66971 -0.32476 0
M  V30 956 O 90.3039 -1.93149 -0.201802 0
M  V30 957 C 87.4339 -3.47256 0.0552099 0
M  V30 958 C 86.3879 -4.16543 0.98365 0
M  V30 959 C 85.7139 -5.34231 0.223961 0
M  V30 960 C 87.0139 -4.68495 2.3089 0
M  V30 961 H 88.7079 -2.55105 1.56722 0
M  V30 962 H 86.2539 -1.2262 0.754998 0
M  V30 963 H 88.2069 -4.20828 -0.21946 0
M  V30 964 H 86.9309 -3.14846 -0.868319 0
M  V30 965 H 85.5899 -3.44887 1.24293 0
M  V30 966 H 85.2379 -4.98071 -0.702412 0
M  V30 967 H 84.9379 -5.81527 0.842627 0
M  V30 968 H 86.4619 -6.10585 -0.0433671 0
M  V30 969 H 87.8759 -5.33691 2.09396 0
M  V30 970 H 86.2729 -5.26379 2.88176 0
M  V30 971 H 87.3429 -3.85169 2.94572 0
M  V30 972 N 88.686 -0.835752 -1.33615 0
M  V30 973 C 89.634 -0.255238 -2.31195 0
M  V30 974 C 90.628 0.61107 -1.57995 0
M  V30 975 O 91.834 0.500979 -1.72888 0
M  V30 976 H 88.209 -0.0638085 -0.749288 0
M  V30 977 H 90.18 -1.09283 -2.77669 0
M  V30 978 C 88.929 0.55754 -3.43201 0
M  V30 979 H 88.252 -0.0997553 -3.99676 0
M  V30 980 H 89.692 0.929622 -4.13683 0
M  V30 981 C 88.151 1.73515 -2.88781 0
M  V30 982 O 88.681 2.83376 -2.84712 0
M  V30 983 N 86.887 1.55603 -2.4543 0
M  V30 984 H 86.434 0.662354 -2.48939 0
M  V30 985 H 86.392 2.34545 -2.09371 0
M  V30 986 N 90.1641 1.46063 -0.591896 0
M  V30 987 C 91.5801 1.57561 -0.254288 0
M  V30 988 C 91.7801 1.58565 1.24336 0
M  V30 989 O 90.8361 1.50753 2.02558 0
M  V30 990 C 92.1491 2.86549 -0.911611 0
M  V30 991 C 93.6971 3.00197 -0.886059 0
M  V30 992 C 94.1721 4.31933 -1.5231 0
M  V30 993 N 95.6631 4.38654 -1.48786 0
M  V30 994 C 96.3981 5.39222 -1.95006 0
M  V30 995 N 95.8941 6.46414 -2.49241 0
M  V30 996 N 97.6871 5.3048 -1.85868 0
M  V30 997 H 89.8381 1.43655 -1.56451 0
M  V30 998 H 92.1011 0.68583 -0.654478 0
M  V30 999 H 91.8071 2.91651 -1.96551 0
M  V30 1000 H 91.6811 3.74794 -0.425368 0
M  V30 1001 H 94.0681 2.9467 0.159246 0
M  V30 1002 H 94.1491 2.13403 -1.41041 0
M  V30 1003 H 93.7931 4.38217 -2.56765 0
M  V30 1004 H 93.7231 5.17516 -0.973891 0
M  V30 1005 H 96.2141 3.61793 -1.09151 0
M  V30 1006 H 96.5271 7.19376 -2.82344 0
M  V30 1007 H 94.8721 6.47208 -2.53272 0
M  V30 1008 H 98.0631 4.45643 -1.43248 0
M  V30 1009 H 98.2361 6.08711 -2.22204 0
M  V30 1010 N 91.6422 0.330177 1.54103 0
M  V30 1011 C 92.5722 -0.525353 2.27513 0
M  V30 1012 C 93.5532 -1.11383 1.2856 0
M  V30 1013 O 94.7382 -1.13773 1.57383 0
M  V30 1014 C 91.8682 -1.6831 3.03791 0
M  V30 1015 C 90.8222 -1.2236 4.10137 0
M  V30 1016 C 90.1482 -2.46882 4.74293 0
M  V30 1017 C 91.4482 -0.333697 5.21233 0
M  V30 1018 H 93.1422 0.087013 2.99274 0
M  V30 1019 H 90.6882 0.0432893 1.43935 0
M  V30 1020 H 92.6412 -2.28795 3.5388 0
M  V30 1021 H 91.3652 -2.32216 2.29659 0
M  V30 1022 H 90.0242 -0.64165 3.60941 0
M  V30 1023 H 89.6722 -3.09165 3.96769 0
M  V30 1024 H 89.3722 -2.16825 5.46133 0
M  V30 1025 H 90.8962 -3.08117 5.27159 0
M  V30 1026 H 92.3102 -0.845013 5.67038 0
M  V30 1027 H 90.7072 -0.125612 5.99969 0
M  V30 1028 H 91.7772 0.633724 4.80741 0
M  V30 1029 N 93.1203 -1.57491 0.0584922 0
M  V30 1030 C 94.0503 -2.14988 -0.911178 0
M  V30 1031 C 95.0313 -1.07343 -1.31952 0
M  V30 1032 O 96.2163 -1.35318 -1.39294 0
M  V30 1033 C 93.3463 -2.70078 -2.18347 0
M  V30 1034 C 92.3003 -3.82771 -1.91495 0
M  V30 1035 C 91.6263 -4.24408 -3.25241 0
M  V30 1036 C 92.9263 -5.07592 -1.23075 0
M  V30 1037 H 94.6203 -2.96263 -0.432246 0
M  V30 1038 H 92.1663 -1.42512 -0.206469 0
M  V30 1039 H 94.1193 -3.08943 -2.86587 0
M  V30 1040 H 92.8433 -1.86005 -2.68458 0
M  V30 1041 H 91.5023 -3.44389 -1.25664 0
M  V30 1042 H 91.1503 -3.37275 -3.73168 0
M  V30 1043 H 90.8503 -5.00366 -3.08071 0
M  V30 1044 H 92.3743 -4.65879 -3.94701 0
M  V30 1045 H 93.7883 -5.43857 -1.81362 0
M  V30 1046 H 92.1853 -5.88741 -1.16207 0
M  V30 1047 H 93.2553 -4.84454 -0.207847 0
M  V30 1048 N 94.5984 0.214957 -1.56127 0
M  V30 1049 C 95.8444 0.939762 -1.79712 0
M  V30 1050 C 96.1774 1.83723 -0.629247 0
M  V30 1051 O 95.4524 1.90925 0.371197 0
M  V30 1052 C 95.7354 1.77306 -3.13424 0
M  V30 1053 C 95.5884 0.90164 -4.40671 0
M  V30 1054 C 96.9074 2.74956 -3.43638 0
M  V30 1055 H 94.0264 0.340214 -0.653776 0
M  V30 1056 H 96.6684 0.20824 -1.88855 0
M  V30 1057 H 94.8184 2.39673 -3.0576 0
M  V30 1058 H 96.4904 0.294206 -4.60361 0
M  V30 1059 H 94.7334 0.207368 -4.33304 0
M  V30 1060 H 95.4044 1.51923 -5.30682 0
M  V30 1061 H 97.8804 2.22724 -3.51473 0
M  V30 1062 H 96.7564 3.30358 -4.38355 0
M  V30 1063 H 97.0174 3.53023 -2.66134 0
M  V30 1064 N 96.0765 1.50051 0.48192 0
M  V30 1065 C 97.3015 1.64508 1.26301 0
M  V30 1066 C 97.7265 0.323851 1.85291 0
M  V30 1067 O 97.0845 -0.710969 1.66778 0
M  V30 1068 C 97.1325 2.7305 2.35533 0
M  V30 1069 O 96.2365 2.3355 3.39895 0
M  V30 1070 H 95.5775 0.549978 0.372048 0
M  V30 1071 H 98.1075 1.9636 0.574786 0
M  V30 1072 H 98.1175 2.95799 2.8101 0
M  V30 1073 H 96.7925 3.68946 1.91967 0
M  V30 1074 H 95.3695 2.21205 3.00204 0
M  V30 1075 N 97.5546 -0.734337 1.39446 0
M  V30 1076 C 98.7846 -1.52137 1.39778 0
M  V30 1077 C 99.1926 -1.89198 -0.00929312 0
M  V30 1078 O 98.5356 -1.54666 -0.991168 0
M  V30 1079 C 98.5976 -2.83762 2.20724 0
M  V30 1080 C 98.2616 -2.69131 3.69347 0
M  V30 1081 C 99.2586 -2.37635 4.62413 0
M  V30 1082 C 96.9436 -2.85982 4.1294 0
M  V30 1083 C 98.9376 -2.23172 5.97054 0
M  V30 1084 C 96.6246 -2.71137 5.47657 0
M  V30 1085 C 97.6226 -2.39777 6.39528 0
M  V30 1086 O 97.3106 -2.25026 7.71763 0
M  V30 1087 H 97.0426 -0.476717 0.479288 0
M  V30 1088 H 99.5966 -0.915012 1.83893 0
M  V30 1089 H 97.8266 -3.4666 1.71359 0
M  V30 1090 H 99.5156 -3.45383 2.13226 0
M  V30 1091 H 100.282 -2.24267 4.30034 0
M  V30 1092 H 96.1606 -3.09383 3.41765 0
M  V30 1093 H 99.7046 -1.98617 6.68728 0
M  V30 1094 H 95.6016 -2.84083 5.79626 0
M  V30 1095 H 96.3696 -2.40091 7.82495 0
M  V30 1096 N 99.0327 -1.24633 -0.964593 0
M  V30 1097 C 100.31 -0.995809 -1.68354 0
M  V30 1098 C 100.69 0.480964 -2.05548 0
M  V30 1099 O 100.038 1.45599 -1.76105 0
M  V30 1100 C 100.248 -1.92177 -2.91323 0
M  V30 1101 C 101.596 -2.19446 -3.63495 0
M  V30 1102 O 102.62 -1.89855 -3.01386 0
M  V30 1103 O 101.479 -2.69714 -4.75307 0
M  V30 1104 H 98.5727 -0.376854 -0.736146 0
M  V30 1105 H 101.119 -1.35745 -1.0184 0
M  V30 1106 H 99.8907 -2.91938 -2.60553 0
M  V30 1107 H 99.5137 -1.56349 -3.65569 0
M  V30 1108 N 100.511 1.16574 -1.06058 0
M  V30 1109 C 101.922 1.68662 -0.800632 0
M  V30 1110 C 102.273 1.84184 0.67608 0
M  V30 1111 O 101.398 1.53568 1.52466 0
M  V30 1112 C 101.993 3.06356 -1.44676 0
M  V30 1113 C 100.552 3.55575 -1.23465 0
M  V30 1114 C 99.6988 2.31616 -1.52477 0
M  V30 1115 H 102.65 1.00969 -1.22438 0
M  V30 1116 H 102.671 3.70636 -0.860788 0
M  V30 1117 H 102.183 2.95027 -2.52152 0
M  V30 1118 H 100.284 3.72167 -0.179527 0
M  V30 1119 H 100.397 4.37812 -1.94571 0
M  V30 1120 H 98.7608 2.36512 -0.945209 0
M  V30 1121 H 99.5438 2.22887 -2.61106 0
M  V30 1122 N 101.989 0.842826 1.3317 0
M  V30 1123 C 103.405 0.531128 1.50503 0
M  V30 1124 C 103.605 -0.940734 1.78192 0
M  V30 1125 O 102.661 -1.72436 1.84451 0
M  V30 1126 C 103.974 1.40789 2.65705 0
M  V30 1127 C 105.522 1.40708 2.79589 0
M  V30 1128 C 105.997 2.26878 3.97857 0
M  V30 1129 N 107.488 2.24609 4.05099 0
M  V30 1130 C 108.223 2.88019 4.95815 0
M  V30 1131 N 107.719 3.60496 5.9162 0
M  V30 1132 N 109.512 2.77469 4.88843 0
M  V30 1133 H 101.663 1.79557 1.1346 0
M  V30 1134 H 103.926 0.766267 0.558156 0
M  V30 1135 H 103.632 2.454 2.51936 0
M  V30 1136 H 103.506 1.08677 3.61205 0
M  V30 1137 H 105.893 0.368668 2.92788 0
M  V30 1138 H 105.974 1.76829 1.84838 0
M  V30 1139 H 105.618 3.3078 3.85418 0
M  V30 1140 H 105.548 1.88096 4.91861 0
M  V30 1141 H 108.039 1.71906 3.36536 0
M  V30 1142 H 108.352 4.06076 6.57512 0
M  V30 1143 H 106.697 3.64604 5.91683 0
M  V30 1144 H 109.888 2.20406 4.12963 0
M  V30 1145 H 110.061 3.2717 5.59342 0
M  V30 1146 N 103.467 -1.45747 0.599634 0
M  V30 1147 C 104.716 -2.01502 0.0893511 0
M  V30 1148 C 105.029 -1.4748 -1.28488 0
M  V30 1149 O 106.235 -1.95161 -1.88745 0
M  V30 1150 C 104.691 -3.59735 0.109082 0
M  V30 1151 C 104.299 -4.22754 1.48267 0
M  V30 1152 C 106.043 -4.23085 -0.346374 0
M  V30 1153 C 103.95 -5.73115 1.45921 0
M  V30 1154 H 102.88 -0.753417 0.0296347 0
M  V30 1155 H 105.531 -1.67303 0.753788 0
M  V30 1156 H 103.913 -3.91087 -0.621854 0
M  V30 1157 H 105.087 -4.02987 2.23468 0
M  V30 1158 H 103.402 -3.71567 1.87955 0
M  V30 1159 H 105.999 -5.33327 -0.38298 0
M  V30 1160 H 106.342 -3.93201 -1.36743 0
M  V30 1161 H 106.875 -3.9642 0.331038 0
M  V30 1162 H 103.614 -6.07685 2.45762 0
M  V30 1163 H 103.134 -5.95097 0.749665 0
M  V30 1164 H 104.813 -6.3616 1.17941 0
M  V30 1165 N 104.945 -0.338344 -1.53925 0
M  V30 1166 C 106.361 0.0137736 -1.59594 0
M  V30 1167 C 106.561 1.49186 -1.35447 0
M  V30 1168 O 105.617 2.24987 -1.14616 0
M  V30 1169 C 106.93 -0.41773 -2.97784 0
M  V30 1170 C 108.478 -0.369633 -3.1081 0
M  V30 1171 C 108.953 -0.776524 -4.51369 0
M  V30 1172 N 110.444 -0.730506 -4.57403 0
M  V30 1173 C 111.179 -1.01736 -5.64303 0
M  V30 1174 N 110.675 -1.3721 -6.79077 0
M  V30 1175 N 112.468 -0.941942 -5.54151 0
M  V30 1176 H 104.619 -1.3012 -1.67876 0
M  V30 1177 H 106.882 -0.530082 -0.78595 0
M  V30 1178 H 106.588 -1.44811 -3.20504 0
M  V30 1179 H 106.462 0.209729 -3.76616 0
M  V30 1180 H 108.849 0.651568 -2.87817 0
M  V30 1181 H 108.93 -1.03223 -2.34049 0
M  V30 1182 H 108.574 -1.79571 -4.75096 0
M  V30 1183 H 108.504 -0.0914649 -5.26521 0
M  V30 1184 H 110.995 -0.468783 -3.74981 0
M  V30 1185 H 111.308 -1.57597 -7.5656 0
M  V30 1186 H 109.653 -1.4105 -6.80536 0
M  V30 1187 H 112.844 -0.664184 -4.63364 0
M  V30 1188 H 113.017 -1.16884 -6.37371 0
M  V30 1189 N 106.423 1.57458 -0.0668435 0
M  V30 1190 C 107.834 1.80776 0.466558 0
M  V30 1191 C 108.185 0.980361 1.69951 0
M  V30 1192 O 107.31 0.201441 2.1546 0
M  V30 1193 C 107.905 3.27881 0.85321 0
M  V30 1194 C 106.464 3.52062 1.3315 0
M  V30 1195 C 105.611 2.75513 0.314264 0
M  V30 1196 H 108.562 1.5598 -0.292588 0
M  V30 1197 H 108.583 3.39659 1.715 0
M  V30 1198 H 108.095 3.88075 -0.0443439 0
M  V30 1199 H 106.196 2.97167 2.24772 0
M  V30 1200 H 106.309 4.60762 1.31285 0
M  V30 1201 H 104.673 2.42123 0.790492 0
M  V30 1202 H 105.456 3.38442 -0.575477 0
M  V30 1203 N 107.901 -0.206675 1.56239 0
M  V30 1204 C 108.849 -1.27571 1.94495 0
M  V30 1205 C 109.843 -1.47737 0.828862 0
M  V30 1206 O 111.049 -1.48735 1.0138 0
M  V30 1207 H 107.424 -0.428029 0.6183 0
M  V30 1208 H 109.395 -0.925961 2.8367 0
M  V30 1209 C 108.144 -2.61568 2.29079 0
M  V30 1210 H 107.467 -2.46863 3.14482 0
M  V30 1211 H 108.907 -3.35144 2.5972 0
M  V30 1212 C 107.366 -3.17695 1.12123 0
M  V30 1213 O 107.896 -3.99801 0.390153 0
M  V30 1214 N 106.102 -2.76276 0.901097 0
M  V30 1215 H 105.649 -2.09613 1.49733 0
M  V30 1216 H 105.607 -3.1417 0.120319 0
M  V30 1217 N 109.379 -1.50304 -0.473955 0
M  V30 1218 C 110.626 -1.6115 -1.22625 0
M  V30 1219 C 110.954 -0.310517 -1.92005 0
M  V30 1220 O 110.209 0.703419 -1.82621 0
M  V30 1221 C 110.508 -2.73938 -2.29549 0
M  V30 1222 C 110.174 -4.14519 -1.7744 0
M  V30 1223 C 108.836 -4.5277 -1.62949 0
M  V30 1224 C 111.188 -5.02392 -1.3875 0
M  V30 1225 C 108.516 -5.76639 -1.08187 0
M  V30 1226 C 110.868 -6.26805 -0.854309 0
M  V30 1227 C 109.532 -6.63861 -0.696011 0
M  V30 1228 H 108.802 -0.589691 -0.448715 0
M  V30 1229 H 111.449 -1.84228 -0.522705 0
M  V30 1230 H 109.754 -2.44937 -3.05799 0
M  V30 1231 H 111.451 -2.79534 -2.87509 0
M  V30 1232 H 108.041 -3.8434 -1.89685 0
M  V30 1233 H 112.225 -4.73474 -1.4878 0
M  V30 1234 H 107.481 -6.04027 -0.946666 0
M  V30 1235 H 111.655 -6.94258 -0.545843 0
M  V30 1236 H 109.282 -7.59722 -0.26952 0
M  V30 1237 N 110.857 0.726932 -1.39834 0
M  V30 1238 C 111.804 1.841 -1.39197 0
M  V30 1239 C 112.774 1.642 -0.250502 0
M  V30 1240 O 113.959 1.85494 -0.446846 0
M  V30 1241 C 111.099 3.21697 -1.24919 0
M  V30 1242 C 110.212 3.53247 -2.48678 0
M  V30 1243 C 109.347 4.80289 -2.26928 0
M  V30 1244 C 108.386 5.04707 -3.4632 0
M  V30 1245 N 107.523 6.22956 -3.23836 0
M  V30 1246 H 112.363 1.83979 -2.34427 0
M  V30 1247 H 109.9 0.898876 -1.16442 0
M  V30 1248 H 111.858 4.01137 -1.1465 0
M  V30 1249 H 110.488 3.21076 -0.333153 0
M  V30 1250 H 109.54 2.68447 -2.69519 0
M  V30 1251 H 110.852 3.67205 -3.37582 0
M  V30 1252 H 110.006 5.67725 -2.13947 0
M  V30 1253 H 108.745 4.68519 -1.35431 0
M  V30 1254 H 107.75 4.1573 -3.5979 0
M  V30 1255 H 108.975 5.18357 -4.38729 0
M  V30 1256 H 106.921 6.12459 -2.35011 0
M  V30 1257 H 106.838 6.37539 -4.063 0
M  V30 1258 H 108.106 7.1321 -3.14566 0
M  V30 1259 N 112.336 1.25143 0.95797 0
M  V30 1260 C 113.584 1.09476 1.69881 0
M  V30 1261 C 113.905 -0.365502 1.91544 0
M  V30 1262 O 113.175 -1.25985 1.50015 0
M  V30 1263 H 111.755 0.402128 0.629525 0
M  V30 1264 H 114.417 1.57214 1.15194 0
M  V30 1265 H 113.513 1.60046 2.6794 0
M  V30 1266 N 113.814 -1.1601 1.06675 0
M  V30 1267 C 115.063 -1.85973 0.780818 0
M  V30 1268 C 115.376 -1.82819 -0.695444 0
M  V30 1269 O 116.582 -2.484 -1.09589 0
M  V30 1270 C 115.038 -3.33757 1.34665 0
M  V30 1271 C 114.646 -3.45374 2.85343 0
M  V30 1272 C 116.39 -4.0895 1.13843 0
M  V30 1273 C 114.297 -4.87266 3.35151 0
M  V30 1274 H 113.227 -0.696661 0.288407 0
M  V30 1275 H 115.878 -1.30903 1.28595 0
M  V30 1276 H 114.26 -3.88456 0.769274 0
M  V30 1277 H 115.434 -3.00816 3.49065 0
M  V30 1278 H 113.749 -2.83619 3.04876 0
M  V30 1279 H 116.346 -5.13654 1.4854 0
M  V30 1280 H 116.689 -4.16229 0.0770282 0
M  V30 1281 H 117.222 -3.605 1.68179 0
M  V30 1282 H 113.961 -4.85168 4.40786 0
M  V30 1283 H 113.481 -5.32433 2.76179 0
M  V30 1284 H 115.16 -5.56097 3.30704 0
M  V30 1285 N 115.292 -0.849877 -1.32721 0
M  V30 1286 C 116.703 -0.506188 -1.79707 0
M  V30 1287 C 117.054 0.975627 -1.70223 0
M  V30 1288 O 116.179 1.76078 -1.25799 0
M  V30 1289 C 116.774 -0.912044 -3.26293 0
M  V30 1290 C 115.333 -0.620326 -3.71253 0
M  V30 1291 C 114.48 -1.11439 -2.53922 0
M  V30 1292 H 117.431 -1.03754 -1.20087 0
M  V30 1293 H 117.452 -0.226493 -3.79825 0
M  V30 1294 H 116.964 -1.99057 -3.33164 0
M  V30 1295 H 115.065 0.447674 -3.69901 0
M  V30 1296 H 115.178 -1.18327 -4.64258 0
M  V30 1297 H 113.542 -0.534834 -2.49021 0
M  V30 1298 H 114.325 -2.19992 -2.6355 0
M  V30 1299 N 116.77 1.45427 -0.607355 0
M  V30 1300 C 118.016 2.0254 -0.102607 0
M  V30 1301 C 118.349 1.47478 1.26348 0
M  V30 1302 O 117.624 0.64939 1.83339 0
M  V30 1303 C 117.907 3.60044 -0.0634347 0
M  V30 1304 C 117.76 4.2544 -1.46017 0
M  V30 1305 C 119.079 4.35646 0.624514 0
M  V30 1306 H 116.198 0.73598 -0.0387607 0
M  V30 1307 H 118.84 1.73284 -0.779282 0
M  V30 1308 H 116.99 3.85101 0.512808 0
M  V30 1309 H 118.662 4.11569 -2.08347 0
M  V30 1310 H 116.905 3.83849 -2.02094 0
M  V30 1311 H 117.576 5.34342 -1.385 0
M  V30 1312 H 120.052 4.15882 0.134723 0
M  V30 1313 H 118.928 5.45376 0.621028 0
M  V30 1314 H 119.189 4.08501 1.69055 0
M  V30 1315 N 118.248 0.346503 1.53744 0
M  V30 1316 C 119.525 -0.304532 1.93215 0
M  V30 1317 C 119.905 -1.67993 1.27834 0
M  V30 1318 O 119.253 -2.24411 0.430352 0
M  V30 1319 C 119.463 -0.373852 3.46992 0
M  V30 1320 C 120.811 -0.62329 4.2 0
M  V30 1321 O 121.835 -0.455847 3.53271 0
M  V30 1322 O 120.694 -0.947879 5.38217 0
M  V30 1323 H 117.788 -0.178318 0.807547 0
M  V30 1324 H 120.334 0.397895 1.64969 0
M  V30 1325 H 119.106 0.591224 3.86808 0
M  V30 1326 H 118.729 -1.12294 3.81413 0
M  V30 1327 N 119.726 -1.57421 0.075193 0
M  V30 1328 C 120.972 -1.93905 -0.594025 0
M  V30 1329 C 121.305 -0.955701 -1.69056 0
M  V30 1330 O 120.58 0.0145373 -1.94495 0
M  V30 1331 C 120.863 -3.40638 -1.1678 0
M  V30 1332 C 120.716 -4.49733 -0.0776792 0
M  V30 1333 C 122.035 -3.88259 -2.07228 0
M  V30 1334 H 119.154 -0.705105 -0.214466 0
M  V30 1335 H 121.796 -1.8947 0.141854 0
M  V30 1336 H 119.946 -3.44549 -1.79494 0
M  V30 1337 H 121.618 -4.57942 0.555573 0
M  V30 1338 H 119.861 -4.29751 0.591286 0
M  V30 1339 H 120.532 -5.49549 -0.519603 0
M  V30 1340 H 123.008 -3.86376 -1.54445 0
M  V30 1341 H 121.884 -4.91533 -2.44308 0
M  V30 1342 H 122.145 -3.26396 -2.98191 0
M  V30 1343 N 121.204 0.198386 -1.56346 0
M  V30 1344 C 122.45 0.920648 -1.80698 0
M  V30 1345 C 122.783 1.83045 -0.648697 0
M  V30 1346 O 122.058 1.91308 0.350925 0
M  V30 1347 C 122.341 1.73971 -3.15287 0
M  V30 1348 C 122.194 0.85485 -4.41602 0
M  V30 1349 C 123.513 2.71296 -3.46535 0
M  V30 1350 H 120.632 0.333261 -0.657348 0
M  V30 1351 H 123.274 0.188198 -1.89066 0
M  V30 1352 H 121.424 2.36416 -3.08285 0
M  V30 1353 H 123.096 0.245362 -4.60647 0
M  V30 1354 H 121.339 0.161398 -4.335 0
M  V30 1355 H 122.01 1.46286 -5.32264 0
M  V30 1356 H 124.486 2.18983 -3.53816 0
M  V30 1357 H 123.362 3.2569 -4.41834 0
M  V30 1358 H 123.623 3.5018 -2.69864 0
M  V30 1359 N 122.682 1.50554 0.465978 0
M  V30 1360 C 123.928 1.62038 1.21949 0
M  V30 1361 C 124.261 0.322116 1.9151 0
M  V30 1362 O 123.536 -0.676723 1.82348 0
M  V30 1363 C 123.819 2.80421 2.25912 0
M  V30 1364 C 123.672 4.20144 1.60622 0
M  V30 1365 C 124.991 2.94354 3.27176 0
M  V30 1366 H 122.11 0.589752 0.441998 0
M  V30 1367 H 124.752 1.82956 0.51257 0
M  V30 1368 H 122.902 2.62717 2.86203 0
M  V30 1369 H 124.574 4.49449 1.03889 0
M  V30 1370 H 122.817 4.24165 0.909211 0
M  V30 1371 H 123.488 4.98914 2.36196 0
M  V30 1372 H 125.964 3.10578 2.76913 0
M  V30 1373 H 124.84 3.788 3.97242 0
M  V30 1374 H 125.101 2.05186 3.916 0
M  V30 1375 N 124.16 -0.719506 1.40217 0
M  V30 1376 C 125.108 -1.85493 1.40339 0
M  V30 1377 C 126.102 -1.66995 0.284415 0
M  V30 1378 O 127.308 -1.74148 0.455252 0
M  V30 1379 H 123.683 -0.610857 0.438586 0
M  V30 1380 H 125.654 -1.82506 2.36081 0
M  V30 1381 C 124.403 -3.23321 1.27901 0
M  V30 1382 H 123.726 -3.38159 2.1328 0
M  V30 1383 H 125.166 -4.02914 1.32045 0
M  V30 1384 C 123.625 -3.36898 -0.0111355 0
M  V30 1385 O 124.155 -3.89674 -0.975538 0
M  V30 1386 N 122.361 -2.90492 -0.0793393 0
M  V30 1387 H 121.908 -2.47731 0.706183 0
M  V30 1388 H 121.866 -2.99955 -0.942038 0
M  V30 1389 N 125.638 -1.25649 -0.95132 0
M  V30 1390 C 126.887 -1.09988 -1.69073 0
M  V30 1391 C 127.2 0.358355 -1.92289 0
M  V30 1392 O 128.406 0.635466 -2.63958 0
M  V30 1393 C 126.862 -1.92012 -3.044 0
M  V30 1394 C 126.47 -3.42347 -2.88968 0
M  V30 1395 C 128.214 -1.8493 -3.82101 0
M  V30 1396 C 126.121 -4.16655 -4.19705 0
M  V30 1397 H 125.051 -0.407993 -0.63408 0
M  V30 1398 H 127.702 -1.49873 -1.05879 0
M  V30 1399 H 126.084 -1.44952 -3.68517 0
M  V30 1400 H 127.258 -3.97104 -2.33762 0
M  V30 1401 H 125.573 -3.50557 -2.24719 0
M  V30 1402 H 128.17 -2.37739 -4.78941 0
M  V30 1403 H 128.513 -0.817883 -4.08187 0
M  V30 1404 H 129.046 -2.29758 -3.2474 0
M  V30 1405 H 125.785 -5.20224 -3.98807 0
M  V30 1406 H 125.305 -3.66681 -4.74663 0
M  V30 1407 H 126.984 -4.24551 -4.88227 0
M  V30 1408 N 127.117 1.15442 -1.07289 0
M  V30 1409 C 128.364 1.86213 -0.795668 0
M  V30 1410 C 128.692 1.82291 0.678238 0
M  V30 1411 O 127.947 1.24057 1.51355 0
M  V30 1412 C 128.246 3.3489 -1.24834 0
M  V30 1413 C 127.912 3.59007 -2.72809 0
M  V30 1414 C 126.574 3.65298 -3.13227 0
M  V30 1415 C 128.926 3.68762 -3.68326 0
M  V30 1416 C 126.254 3.78854 -4.4798 0
M  V30 1417 C 128.606 3.83842 -5.0284 0
M  V30 1418 C 127.27 3.88378 -5.4288 0
M  V30 1419 H 126.54 0.681403 -0.291155 0
M  V30 1420 H 129.187 1.36435 -1.34379 0
M  V30 1421 H 127.492 3.8687 -0.619595 0
M  V30 1422 H 129.189 3.88052 -1.01076 0
M  V30 1423 H 125.779 3.5475 -2.40521 0
M  V30 1424 H 129.963 3.63202 -3.38227 0
M  V30 1425 H 125.219 3.80623 -4.78472 0
M  V30 1426 H 129.393 3.90332 -5.76727 0
M  V30 1427 H 127.02 3.98635 -6.47298 0
M  V30 1428 N 128.595 0.856903 1.32268 0
M  V30 1429 C 129.844 0.457599 1.96441 0
M  V30 1430 C 130.157 -0.992426 1.68553 0
M  V30 1431 O 131.363 -1.49727 2.26482 0
M  V30 1432 C 129.819 0.767358 3.51624 0
M  V30 1433 C 129.427 2.23326 3.88367 0
M  V30 1434 C 131.171 0.435887 4.22256 0
M  V30 1435 C 129.078 2.48613 5.36606 0
M  V30 1436 H 128.008 0.167387 0.735185 0
M  V30 1437 H 130.659 1.048 1.5063 0
M  V30 1438 H 129.041 0.106367 3.95857 0
M  V30 1439 H 130.215 2.93623 3.55137 0
M  V30 1440 H 128.53 2.52948 3.30766 0
M  V30 1441 H 131.127 0.602202 5.31298 0
M  V30 1442 H 131.47 -0.622672 4.11617 0
M  V30 1443 H 132.003 1.05286 3.83614 0
M  V30 1444 H 128.742 3.53101 5.52268 0
M  V30 1445 H 128.262 1.82896 5.71235 0
M  V30 1446 H 129.941 2.32676 6.03714 0
M  V30 1447 N 130.073 -1.45103 0.615059 0
M  V30 1448 C 131.021 -2.32331 -0.111791 0
M  V30 1449 C 132.015 -1.46409 -0.852102 0
M  V30 1450 O 133.221 -1.62849 -0.766821 0
M  V30 1451 H 129.596 -0.749993 -0.0549072 0
M  V30 1452 H 131.567 -2.91407 0.642225 0
M  V30 1453 C 130.316 -3.3015 -1.09071 0
M  V30 1454 H 129.639 -3.96265 -0.530485 0
M  V30 1455 H 131.079 -3.93898 -1.56908 0
M  V30 1456 C 129.538 -2.57875 -2.168 0
M  V30 1457 O 130.068 -2.36567 -3.24652 0
M  V30 1458 N 128.274 -2.17884 -1.92289 0
M  V30 1459 H 127.821 -2.35413 -1.04587 0
M  V30 1460 H 127.779 -1.6985 -2.64572 0
M  V30 1461 N 131.551 -0.354651 -1.53558 0
M  V30 1462 C 132.776 0.242153 -2.05981 0
M  V30 1463 C 133.201 1.42553 -1.2272 0
M  V30 1464 O 132.559 1.79656 -0.243604 0
M  V30 1465 C 132.607 0.624367 -3.55154 0
M  V30 1466 O 131.711 1.72301 -3.74681 0
M  V30 1467 H 131.052 0.0378432 -0.662921 0
M  V30 1468 H 133.582 -0.512087 -1.98088 0
M  V30 1469 H 133.592 0.898433 -3.97985 0
M  V30 1470 H 132.267 -0.240989 -4.15201 0
M  V30 1471 H 130.844 1.44535 -3.4375 0
M  V30 1472 N 133.029 1.57378 -0.0835403 0
M  V30 1473 C 134.276 1.9393 0.58287 0
M  V30 1474 C 134.604 0.964455 1.68904 0
M  V30 1475 O 133.859 -0.0179474 1.95692 0
M  V30 1476 C 134.158 3.37063 1.1884 0
M  V30 1477 C 133.824 4.50424 0.207194 0
M  V30 1478 C 132.486 4.81159 -0.0627115 0
M  V30 1479 C 134.838 5.19136 -0.463426 0
M  V30 1480 C 132.166 5.77939 -1.01012 0
M  V30 1481 C 134.518 6.16931 -1.39924 0
M  V30 1482 C 133.182 6.46078 -1.67749 0
M  V30 1483 H 132.452 0.70964 0.213287 0
M  V30 1484 H 135.099 1.90856 -0.156916 0
M  V30 1485 H 133.404 3.3666 2.00418 0
M  V30 1486 H 135.101 3.6264 1.71153 0
M  V30 1487 H 131.691 4.2646 0.427747 0
M  V30 1488 H 135.875 4.95576 -0.268034 0
M  V30 1489 H 131.131 5.98842 -1.23283 0
M  V30 1490 H 135.305 6.69273 -1.92476 0
M  V30 1491 H 132.932 7.2088 -2.41321 0
M  V30 1492 N 134.507 -0.190092 1.56449 0
M  V30 1493 C 135.755 -0.907908 1.80559 0
M  V30 1494 C 136.076 -1.83583 0.657438 0
M  V30 1495 O 135.346 -1.93203 -0.323924 0
M  V30 1496 H 133.926 -0.338247 0.666032 0
M  V30 1497 H 136.588 -0.194403 1.93928 0
M  V30 1498 H 135.684 -1.49604 2.73907 0
M  V30 1499 N 135.985 -1.50799 -0.457987 0
M  V30 1500 C 137.21 -1.66496 -1.23668 0
M  V30 1501 C 137.635 -0.353288 -1.84752 0
M  V30 1502 O 136.993 0.684346 -1.67888 0
M  V30 1503 C 137.041 -2.76763 -2.3116 0
M  V30 1504 O 136.145 -2.38928 -3.36136 0
M  V30 1505 H 135.486 -0.555828 -0.363252 0
M  V30 1506 H 138.016 -1.9725 -0.543474 0
M  V30 1507 H 138.026 -3.00232 -2.76269 0
M  V30 1508 H 136.701 -3.71954 -1.86073 0
M  V30 1509 H 135.278 -2.25953 -2.96647 0
M  V30 1510 N 137.463 0.71206 -1.40597 0
M  V30 1511 C 138.712 1.46754 -1.38369 0
M  V30 1512 C 139.025 1.95598 0.0097839 0
M  V30 1513 O 140.231 2.71059 0.154677 0
M  V30 1514 C 138.687 2.65289 -2.43207 0
M  V30 1515 C 138.295 2.23301 -3.88382 0
M  V30 1516 C 140.039 3.43008 -2.50091 0
M  V30 1517 C 137.946 3.38696 -4.84808 0
M  V30 1518 H 136.876 0.55118 -0.514506 0
M  V30 1519 H 139.527 0.774616 -1.66349 0
M  V30 1520 H 137.909 3.36769 -2.08332 0
M  V30 1521 H 139.083 1.59218 -4.32419 0
M  V30 1522 H 137.398 1.58618 -3.85006 0
M  V30 1523 H 139.995 4.28881 -3.1932 0
M  V30 1524 H 140.338 3.87065 -1.53253 0
M  V30 1525 H 140.871 2.78574 -2.83974 0
M  V30 1526 H 137.61 2.99668 -5.82992 0
M  V30 1527 H 137.13 4.01683 -4.45433 0
M  V30 1528 H 138.809 4.04712 -5.04794 0
M  V30 1529 N 138.941 1.26152 0.944643 0
M  V30 1530 C 139.873 1.03199 2.04652 0
M  V30 1531 C 140.886 -0.00642356 1.62799 0
M  V30 1532 O 142.075 0.233263 1.76969 0
M  V30 1533 C 139.175 0.540111 3.34568 0
M  V30 1534 C 138.348 1.64697 4.05208 0
M  V30 1535 C 137.407 1.15374 5.13396 0
M  V30 1536 O 136.433 1.85013 5.38293 0
M  V30 1537 N 137.635 0.00031529 5.805 0
M  V30 1538 H 140.4 1.9808 2.2491 0
M  V30 1539 H 137.961 1.17491 1.11389 0
M  V30 1540 H 139.953 0.194401 4.04233 0
M  V30 1541 H 138.523 -0.315021 3.11009 0
M  V30 1542 H 137.743 2.16379 3.29506 0
M  V30 1543 H 139.031 2.3903 4.49157 0
M  V30 1544 H 138.429 -0.581336 5.62705 0
M  V30 1545 H 136.986 -0.286346 6.51171 0
M  V30 1546 N 140.419 -1.14872 1.07899 0
M  V30 1547 C 141.329 -2.2341 0.715915 0
M  V30 1548 C 142.345 -1.71808 -0.275306 0
M  V30 1549 O 143.521 -2.01039 -0.120545 0
M  V30 1550 C 140.586 -3.46474 0.125168 0
M  V30 1551 C 139.647 -4.13039 1.17034 0
M  V30 1552 C 138.88 -5.30229 0.607688 0
M  V30 1553 O 139.103 -5.675 -0.574497 0
M  V30 1554 O 138.037 -5.86444 1.35526 0
M  V30 1555 H 141.863 -2.56808 1.62121 0
M  V30 1556 H 139.448 -1.22702 0.852322 0
M  V30 1557 H 141.33 -4.20917 -0.201729 0
M  V30 1558 H 140.005 -3.14811 -0.753364 0
M  V30 1559 H 138.912 -3.40493 1.54968 0
M  V30 1560 H 140.245 -4.48796 2.02097 0
M  V30 1561 N 141.898 -0.863906 -1.31812 0
M  V30 1562 C 143.126 -0.486111 -2.01108 0
M  V30 1563 C 143.541 0.919755 -1.64882 0
M  V30 1564 O 142.898 1.60162 -0.874893 0
M  V30 1565 C 142.949 -0.626435 -3.56031 0
M  V30 1566 O 142.67 -1.97693 -3.90959 0
M  V30 1567 C 144.171 -0.248857 -4.42601 0
M  V30 1568 H 141.391 -0.190052 -0.643523 0
M  V30 1569 H 143.935 -1.1634 -1.68182 0
M  V30 1570 H 142.09 0.00322717 -3.874 0
M  V30 1571 H 142.504 -1.98034 -4.85678 0
M  V30 1572 H 143.978 -0.398016 -5.50563 0
M  V30 1573 H 144.455 0.811489 -4.31638 0
M  V30 1574 H 145.061 -0.853971 -4.16638 0
M  V30 1575 N 143.376 1.44774 -0.622745 0
M  V30 1576 C 144.604 2.06487 -0.130722 0
M  V30 1577 C 145.019 1.46476 1.19123 0
M  V30 1578 O 144.376 0.584502 1.72887 0
M  V30 1579 C 144.427 3.615 -0.000807207 0
M  V30 1580 O 144.148 4.19274 -1.27048 0
M  V30 1581 C 145.649 4.40229 0.520898 0
M  V30 1582 H 142.869 0.666704 -0.0758106 0
M  V30 1583 H 145.413 1.85779 -0.854774 0
M  V30 1584 H 143.568 3.81498 0.673643 0
M  V30 1585 H 143.982 5.12622 -1.1099 0
M  V30 1586 H 145.456 5.49144 0.560838 0
M  V30 1587 H 145.933 4.1108 1.54627 0
M  V30 1588 H 146.539 4.25131 -0.120018 0
M  V30 1589 N 144.854 0.36279 1.53368 0
M  V30 1590 C 145.787 -0.528507 2.21996 0
M  V30 1591 C 146.765 -1.0852 1.21087 0
M  V30 1592 O 147.949 -1.14186 1.4998 0
M  V30 1593 C 145.076 -1.72893 2.91249 0
M  V30 1594 C 144.122 -1.29994 4.06207 0
M  V30 1595 S 144.955 -0.303575 5.34639 0
M  V30 1596 C 146.111 -1.51039 6.07403 0
M  V30 1597 H 146.344 0.0543423 2.9725 0
M  V30 1598 H 143.877 0.146889 1.537 0
M  V30 1599 H 145.835 -2.41751 3.31763 0
M  V30 1600 H 144.496 -2.28303 2.15724 0
M  V30 1601 H 143.689 -2.19549 4.53667 0
M  V30 1602 H 143.291 -0.690608 3.67569 0
M  V30 1603 H 145.583 -2.44186 6.31965 0
M  V30 1604 H 146.526 -1.07721 6.99858 0
M  V30 1605 H 146.934 -1.71518 5.37812 0
M  V30 1606 N 146.332 -1.57332 0.0918853 0
M  V30 1607 C 147.609 -1.85691 -0.614668 0
M  V30 1608 C 147.989 -0.988146 -1.86545 0
M  V30 1609 O 147.337 -0.0597055 -2.28422 0
M  V30 1610 C 147.547 -3.36294 -0.933126 0
M  V30 1611 C 148.895 -4.04275 -1.29796 0
M  V30 1612 O 149.919 -3.41157 -1.02424 0
M  V30 1613 O 148.778 -5.1564 -1.81047 0
M  V30 1614 H 145.872 -0.767802 -0.307261 0
M  V30 1615 H 148.418 -1.69244 0.12434 0
M  V30 1616 H 147.19 -3.91273 -0.0456404 0
M  V30 1617 H 146.813 -3.58076 -1.72822 0
M  V30 1618 N 147.81 0.181792 -1.56548 0
M  V30 1619 C 149.04 0.914618 -1.85252 0
M  V30 1620 C 149.448 1.76791 -0.673914 0
M  V30 1621 O 148.791 1.80009 0.366416 0
M  V30 1622 C 148.853 1.85019 -3.08234 0
M  V30 1623 C 148.517 1.17754 -4.41569 0
M  V30 1624 C 149.514 0.548035 -5.17003 0
M  V30 1625 C 147.199 1.17742 -4.88305 0
M  V30 1626 C 149.193 -0.0726128 -6.37359 0
M  V30 1627 C 146.88 0.552946 -6.08593 0
M  V30 1628 C 147.878 -0.070978 -6.82963 0
M  V30 1629 O 147.566 -0.685635 -8.00971 0
M  V30 1630 H 147.298 0.271695 -0.618998 0
M  V30 1631 H 149.852 0.189944 -2.0452 0
M  V30 1632 H 148.082 2.61491 -2.84885 0
M  V30 1633 H 149.771 2.45195 -3.23472 0
M  V30 1634 H 150.537 0.540174 -4.81982 0
M  V30 1635 H 146.416 1.65246 -4.30366 0
M  V30 1636 H 149.96 -0.560213 -6.95347 0
M  V30 1637 H 145.857 0.558354 -6.43081 0
M  V30 1638 H 146.625 -0.58385 -8.16415 0
M  V30 1639 N 149.288 1.51039 0.449983 0
M  V30 1640 C 150.704 1.38934 0.785462 0
M  V30 1641 C 150.904 0.461817 1.96136 0
M  V30 1642 O 149.96 -0.0877389 2.52348 0
M  V30 1643 C 151.273 2.80724 1.0777 0
M  V30 1644 C 152.821 2.89787 1.1829 0
M  V30 1645 C 153.296 4.32457 1.50815 0
M  V30 1646 N 154.787 4.35505 1.57764 0
M  V30 1647 C 155.522 5.42914 1.84477 0
M  V30 1648 N 155.018 6.60502 2.09068 0
M  V30 1649 N 156.811 5.3038 1.86155 0
M  V30 1650 H 148.962 2.09904 -0.324647 0
M  V30 1651 H 151.225 0.944378 -0.0827957 0
M  V30 1652 H 150.931 3.50531 0.286498 0
M  V30 1653 H 150.805 3.19273 2.00859 0
M  V30 1654 H 153.192 2.20186 1.96474 0
M  V30 1655 H 153.273 2.54752 0.231314 0
M  V30 1656 H 152.917 5.02603 0.731622 0
M  V30 1657 H 152.847 4.64995 2.47158 0
M  V30 1658 H 155.338 3.50724 1.40715 0
M  V30 1659 H 155.651 7.38158 2.28785 0
M  V30 1660 H 153.996 6.63639 2.06416 0
M  V30 1661 H 157.187 4.37505 1.66454 0
M  V30 1662 H 157.36 6.1417 2.06637 0
M  V30 1663 N 150.766 -0.704594 1.40972 0
M  V30 1664 C 152.012 -1.46675 1.40051 0
M  V30 1665 C 152.345 -1.94199 0.00641102 0
M  V30 1666 O 151.62 -1.68916 -0.964235 0
M  V30 1667 C 151.903 -2.68505 2.39952 0
M  V30 1668 C 151.756 -2.26805 3.88432 0
M  V30 1669 C 153.075 -3.70686 2.37233 0
M  V30 1670 H 150.194 -0.532015 0.510028 0
M  V30 1671 H 152.836 -0.803255 1.72185 0
M  V30 1672 H 150.986 -3.25114 2.1268 0
M  V30 1673 H 152.658 -1.75592 4.26574 0
M  V30 1674 H 150.901 -1.58685 4.03734 0
M  V30 1675 H 151.572 -3.14181 4.53866 0
M  V30 1676 H 154.048 -3.23731 2.61415 0
M  V30 1677 H 152.924 -4.53553 3.09162 0
M  V30 1678 H 153.185 -4.19754 1.38777 0
M  V30 1679 N 152.244 -1.26651 -0.937939 0
M  V30 1680 C 153.192 -1.08308 -2.05845 0
M  V30 1681 C 154.186 -0.0090757 -1.69398 0
M  V30 1682 O 155.392 -0.166007 -1.79233 0
M  V30 1683 H 151.767 -0.333416 -0.674046 0
M  V30 1684 H 153.738 -2.03261 -2.18467 0
M  V30 1685 C 152.487 -0.736229 -3.39816 0
M  V30 1686 H 151.81 -1.55453 -3.6834 0
M  V30 1687 H 153.25 -0.64769 -4.19024 0
M  V30 1688 C 151.709 0.558824 -3.32233 0
M  V30 1689 O 152.239 1.59621 -3.68624 0
M  V30 1690 N 150.445 0.550657 -2.85335 0
M  V30 1691 H 149.992 -0.293943 -2.55917 0
M  V30 1692 H 149.95 1.41726 -2.80644 0
M  V30 1693 N 153.722 1.14298 -1.08507 0
M  V30 1694 C 154.971 1.84708 -0.810305 0
M  V30 1695 C 155.284 1.83903 0.666271 0
M  V30 1696 O 156.49 2.50112 1.05624 0
M  V30 1697 C 154.946 3.31572 -1.39957 0
M  V30 1698 C 154.554 3.40791 -2.90801 0
M  V30 1699 C 156.298 4.07087 -1.20334 0
M  V30 1700 C 154.205 4.81872 -3.4286 0
M  V30 1701 H 153.135 0.691985 -0.299454 0
M  V30 1702 H 155.786 1.28841 -1.30661 0
M  V30 1703 H 154.168 3.87183 -0.830976 0
M  V30 1704 H 155.342 2.95225 -3.53806 0
M  V30 1705 H 153.657 2.78732 -3.0935 0
M  V30 1706 H 156.254 5.11225 -1.56693 0
M  V30 1707 H 156.597 4.16054 -0.143237 0
M  V30 1708 H 157.13 3.57779 -1.73893 0
M  V30 1709 H 153.869 4.78094 -4.48449 0
M  V30 1710 H 153.389 5.27972 -2.84615 0
M  V30 1711 H 155.068 5.50765 -3.39509 0
M  V30 1712 N 155.201 0.870884 1.31352 0
M  V30 1713 C 156.448 0.482273 1.96673 0
M  V30 1714 C 156.776 -0.965638 1.68836 0
M  V30 1715 O 156.031 -1.69514 0.977937 0
M  V30 1716 C 156.33 0.687157 3.50732 0
M  V30 1717 C 155.996 2.108 3.9859 0
M  V30 1718 C 154.658 2.49656 4.1137 0
M  V30 1719 C 157.01 3.03459 4.23748 0
M  V30 1720 C 154.338 3.80412 4.46659 0
M  V30 1721 C 156.69 4.3373 4.60501 0
M  V30 1722 C 155.354 4.725 4.71487 0
M  V30 1723 H 154.624 0.176476 0.719679 0
M  V30 1724 H 157.271 1.10405 1.56471 0
M  V30 1725 H 155.576 -0.0177476 3.91796 0
M  V30 1726 H 157.273 0.366284 3.99324 0
M  V30 1727 H 153.863 1.79633 3.8914 0
M  V30 1728 H 158.047 2.74665 4.13368 0
M  V30 1729 H 153.303 4.1021 4.53362 0
M  V30 1730 H 157.477 5.05578 4.78919 0
M  V30 1731 H 155.104 5.73859 4.98588 0
M  V30 1732 N 156.679 -1.44442 0.630414 0
M  V30 1733 C 157.609 -2.33418 -0.0618083 0
M  V30 1734 C 158.59 -1.48165 -0.835541 0
M  V30 1735 O 159.775 -1.76886 -0.801564 0
M  V30 1736 C 156.905 -3.31222 -1.04449 0
M  V30 1737 C 155.859 -4.26288 -0.382436 0
M  V30 1738 C 155.185 -5.13954 -1.47497 0
M  V30 1739 C 156.485 -5.1744 0.710865 0
M  V30 1740 H 158.179 -2.91548 0.681184 0
M  V30 1741 H 155.725 -1.40191 0.329026 0
M  V30 1742 H 157.678 -3.92351 -1.53748 0
M  V30 1743 H 156.402 -2.71299 -1.81836 0
M  V30 1744 H 155.061 -3.6649 0.0899054 0
M  V30 1745 H 154.709 -4.50385 -2.2397 0
M  V30 1746 H 154.409 -5.7837 -1.03737 0
M  V30 1747 H 155.933 -5.77955 -1.96979 0
M  V30 1748 H 157.347 -5.72509 0.300996 0
M  V30 1749 H 155.744 -5.90455 1.07156 0
M  V30 1750 H 156.814 -4.58496 1.57829 0
M  V30 1751 N 158.157 -0.370918 -1.53173 0
M  V30 1752 C 159.573 -0.0200818 -1.59587 0
M  V30 1753 C 159.773 1.46279 -1.38581 0
M  V30 1754 O 158.829 2.22506 -1.19363 0
M  V30 1755 C 160.142 -0.4808 -2.96831 0
M  V30 1756 C 161.69 -0.435477 -3.09956 0
M  V30 1757 C 162.165 -0.872092 -4.4962 0
M  V30 1758 N 163.656 -0.827364 -4.55751 0
M  V30 1759 C 164.391 -1.13683 -5.62018 0
M  V30 1760 N 163.887 -1.51584 -6.76014 0
M  V30 1761 N 165.68 -1.05927 -5.52029 0
M  V30 1762 H 157.831 -1.33652 -1.65079 0
M  V30 1763 H 160.094 -0.546634 -0.774529 0
M  V30 1764 H 159.8 -1.51577 -3.1736 0
M  V30 1765 H 159.674 0.129796 -3.76977 0
M  V30 1766 H 162.061 0.590371 -2.89134 0
M  V30 1767 H 162.142 -1.08164 -2.31806 0
M  V30 1768 H 161.786 -1.89608 -4.71181 0
M  V30 1769 H 161.716 -0.203127 -5.26208 0
M  V30 1770 H 164.207 -0.548216 -3.73902 0
M  V30 1771 H 164.52 -1.73609 -7.53047 0
M  V30 1772 H 162.865 -1.55454 -6.77391 0
M  V30 1773 H 166.056 -0.762321 -4.61851 0
M  V30 1774 H 166.229 -1.30378 -6.34749 0
M  V30 1775 N 159.635 1.57281 -0.100228 0
M  V30 1776 C 160.567 2.11342 0.886972 0
M  V30 1777 C 161.58 1.05182 1.24261 0
M  V30 1778 O 162.769 1.32613 1.19483 0
M  V30 1779 C 159.869 2.5825 2.19454 0
M  V30 1780 C 159.042 3.88302 2.01346 0
M  V30 1781 C 158.101 4.21004 3.15661 0
M  V30 1782 O 157.127 4.9014 2.89398 0
M  V30 1783 N 158.329 3.76818 4.41575 0
M  V30 1784 H 161.094 2.96668 0.425216 0
M  V30 1785 H 158.655 1.61678 0.0847334 0
M  V30 1786 H 160.647 2.7717 2.94888 0
M  V30 1787 H 159.217 1.77907 2.57037 0
M  V30 1788 H 158.437 3.7848 1.10212 0
M  V30 1789 H 159.725 4.73375 1.8653 0
M  V30 1790 H 159.123 3.2102 4.65792 0
M  V30 1791 H 157.68 4.00882 5.13942 0
M  V30 1792 N 161.113 -0.173488 1.56642 0
M  V30 1793 C 162.06 -1.21482 1.96242 0
M  V30 1794 C 163.03 -1.44104 0.826027 0
M  V30 1795 O 164.215 -1.5688 1.08597 0
M  V30 1796 C 161.355 -2.54964 2.32567 0
M  V30 1797 C 160.468 -2.39739 3.59373 0
M  V30 1798 C 159.603 -3.66072 3.84921 0
M  V30 1799 C 158.642 -3.45771 5.05083 0
M  V30 1800 N 157.779 -4.64169 5.26775 0
M  V30 1801 H 162.619 -0.870123 2.85014 0
M  V30 1802 H 160.156 -0.418245 1.41029 0
M  V30 1803 H 162.114 -3.32758 2.5165 0
M  V30 1804 H 160.744 -2.87433 1.46908 0
M  V30 1805 H 159.796 -1.53131 3.48217 0
M  V30 1806 H 161.108 -2.20683 4.47326 0
M  V30 1807 H 160.262 -4.52303 4.0436 0
M  V30 1808 H 159.001 -3.88105 2.9534 0
M  V30 1809 H 158.006 -2.57927 4.85545 0
M  V30 1810 H 159.231 -3.25163 5.96193 0
M  V30 1811 H 157.177 -4.86425 4.40144 0
M  V30 1812 H 157.094 -4.48019 6.08946 0
M  V30 1813 H 158.362 -5.51689 5.5069 0
M  V30 1814 N 162.591 -1.51276 -0.441967 0
M  V30 1815 C 163.837 -1.6492 -1.1905 0
M  V30 1816 C 164.192 -0.358731 -1.89026 0
M  V30 1817 O 163.485 0.645193 -1.8041 0
M  V30 1818 C 163.679 -2.78746 -2.23686 0
M  V30 1819 C 163.508 -4.18737 -1.63979 0
M  V30 1820 C 162.278 -4.84739 -1.42674 0
M  V30 1821 C 164.476 -5.01988 -1.11858 0
M  V30 1822 N 162.458 -6.08858 -0.785159 0
M  V30 1823 C 163.829 -6.17071 -0.601989 0
M  V30 1824 C 165.884 -4.87551 -1.0099 0
M  V30 1825 C 164.587 -7.19299 0.0126012 0
M  V30 1826 C 166.613 -5.89983 -0.409206 0
M  V30 1827 C 165.975 -7.04333 0.0968651 0
M  V30 1828 H 162.074 -0.657416 -0.423471 0
M  V30 1829 H 164.658 -1.8849 -0.48782 0
M  V30 1830 H 162.829 -2.56848 -2.91348 0
M  V30 1831 H 164.561 -2.81595 -2.90666 0
M  V30 1832 H 161.316 -4.42528 -1.68719 0
M  V30 1833 H 161.74 -6.75282 -0.481942 0
M  V30 1834 H 166.382 -3.99401 -1.38703 0
M  V30 1835 H 164.1 -8.071 0.401879 0
M  V30 1836 H 167.686 -5.8088 -0.327079 0
M  V30 1837 H 166.566 -7.82238 0.554373 0
M  V30 1838 N 164.069 0.697108 -1.41344 0
M  V30 1839 C 165.017 1.83237 -1.43272 0
M  V30 1840 C 166.011 1.66522 -0.310947 0
M  V30 1841 O 167.217 1.73402 -0.482899 0
M  V30 1842 H 163.592 0.603802 -0.448249 0
M  V30 1843 H 165.563 1.78727 -2.38954 0
M  V30 1844 C 164.312 3.21245 -1.33029 0
M  V30 1845 H 163.635 3.34723 -2.18633 0
M  V30 1846 H 165.075 4.00763 -1.38439 0
M  V30 1847 C 163.534 3.36873 -0.0424635 0
M  V30 1848 O 164.064 3.91177 0.913421 0
M  V30 1849 N 162.27 2.90581 0.0331145 0
M  V30 1850 H 161.817 2.46577 -0.745506 0
M  V30 1851 H 161.775 3.01416 0.894199 0
M  V30 1852 N 165.547 1.27147 0.931209 0
M  V30 1853 C 166.824 1.0401 1.65654 0
M  V30 1854 C 167.204 -0.426297 2.06751 0
M  V30 1855 O 166.552 -1.40879 1.79904 0
M  V30 1856 C 166.762 1.99834 2.86125 0
M  V30 1857 C 168.11 2.29007 3.57549 0
M  V30 1858 O 169.134 1.97779 2.96246 0
M  V30 1859 O 167.993 2.82222 4.67989 0
M  V30 1860 H 165.087 0.396239 0.725895 0
M  V30 1861 H 167.633 1.38397 0.982056 0
M  V30 1862 H 166.405 2.98744 2.52721 0
M  V30 1863 H 166.028 1.65987 3.61295 0
M  V30 1864 N 167.025 -1.13721 1.09112 0
M  V30 1865 C 168.436 -1.6648 0.845068 0
M  V30 1866 C 168.787 -1.85911 -0.62701 0
M  V30 1867 O 167.912 -1.57556 -1.48341 0
M  V30 1868 C 168.507 -3.02413 1.52748 0
M  V30 1869 C 167.066 -3.52176 1.32849 0
M  V30 1870 C 166.213 -2.27492 1.58564 0
M  V30 1871 H 169.164 -0.976872 1.25072 0
M  V30 1872 H 169.185 -3.68223 0.958752 0
M  V30 1873 H 168.697 -2.88238 2.59885 0
M  V30 1874 H 166.798 -3.7156 0.278137 0
M  V30 1875 H 166.911 -4.32499 2.0611 0
M  V30 1876 H 165.275 -2.33923 1.00758 0
M  V30 1877 H 166.058 -2.15886 2.66924 0
M  V30 1878 N 168.503 -0.877838 -1.30888 0
M  V30 1879 C 169.919 -0.570844 -1.49042 0
M  V30 1880 C 170.119 0.893159 -1.80624 0
M  V30 1881 O 169.175 1.67485 -1.88958 0
M  V30 1882 C 170.488 -1.47784 -2.61878 0
M  V30 1883 C 172.036 -1.48071 -2.75761 0
M  V30 1884 C 172.511 -2.37347 -3.91702 0
M  V30 1885 N 174.002 -2.35271 -3.99001 0
M  V30 1886 C 174.737 -3.01063 -4.88004 0
M  V30 1887 N 174.233 -3.76055 -5.81854 0
M  V30 1888 N 176.026 -2.90332 -4.81315 0
M  V30 1889 H 168.177 -1.82502 -1.0866 0
M  V30 1890 H 170.44 -0.780797 -0.537644 0
M  V30 1891 H 170.146 -2.51993 -2.45341 0
M  V30 1892 H 170.02 -1.18215 -3.58197 0
M  V30 1893 H 172.407 -0.446166 -2.91708 0
M  V30 1894 H 172.488 -1.81668 -1.80085 0
M  V30 1895 H 172.132 -3.40883 -3.76512 0
M  V30 1896 H 172.062 -2.01071 -4.86701 0
M  V30 1897 H 174.553 -1.80768 -3.3186 0
M  V30 1898 H 174.866 -4.23366 -6.46514 0
M  V30 1899 H 173.211 -3.80163 -5.81808 0
M  V30 1900 H 176.402 -2.31278 -4.06974 0
M  V30 1901 H 176.575 -3.41885 -5.50471 0
M  V30 1902 N 169.982 1.44106 -0.638065 0
M  V30 1903 C 170.912 2.33448 0.0494287 0
M  V30 1904 C 171.893 1.48606 0.827672 0
M  V30 1905 O 173.078 1.77308 0.792173 0
M  V30 1906 C 170.208 3.31771 1.02691 0
M  V30 1907 C 169.162 4.26485 0.359823 0
M  V30 1908 C 168.488 5.14729 1.44769 0
M  V30 1909 C 169.788 5.17056 -0.738296 0
M  V30 1910 H 171.482 2.91183 -0.696636 0
M  V30 1911 H 169.028 1.40014 -0.336456 0
M  V30 1912 H 170.981 3.93161 1.51666 0
M  V30 1913 H 169.705 2.7226 1.80395 0
M  V30 1914 H 168.364 3.66437 -0.10934 0
M  V30 1915 H 168.012 4.51566 2.21578 0
M  V30 1916 H 167.712 5.78913 1.00668 0
M  V30 1917 H 169.236 5.78991 1.93911 0
M  V30 1918 H 170.65 5.72342 -0.331354 0
M  V30 1919 H 169.047 5.89879 -1.10286 0
M  V30 1920 H 170.117 4.57652 -1.60258 0
M  V30 1921 N 171.46 0.379036 1.52974 0
M  V30 1922 C 172.407 -0.461048 2.26148 0
M  V30 1923 C 173.377 -1.06637 1.27349 0
M  V30 1924 O 174.562 -1.09633 1.56157 0
M  V30 1925 C 171.702 -1.58782 3.06402 0
M  V30 1926 C 170.815 -1.00636 4.20115 0
M  V30 1927 C 169.95 -2.10334 4.87784 0
M  V30 1928 C 168.989 -1.49724 5.93506 0
M  V30 1929 N 168.126 -2.5331 6.54812 0
M  V30 1930 H 172.966 0.169429 2.97518 0
M  V30 1931 H 170.503 0.0953806 1.4679 0
M  V30 1932 H 172.461 -2.25174 3.51215 0
M  V30 1933 H 171.091 -2.18876 2.37261 0
M  V30 1934 H 170.143 -0.232332 3.7969 0
M  V30 1935 H 171.455 -0.523343 4.96047 0
M  V30 1936 H 170.609 -2.84519 5.35849 0
M  V30 1937 H 169.348 -2.61992 4.11353 0
M  V30 1938 H 168.353 -0.740598 5.44789 0
M  V30 1939 H 169.578 -0.988732 6.71864 0
M  V30 1940 H 167.524 -3.04156 5.81227 0
M  V30 1941 H 167.441 -2.09734 7.26325 0
M  V30 1942 H 168.709 -3.27155 7.07524 0
M  V30 1943 N 172.938 -1.57226 0.108567 0
M  V30 1944 C 173.868 -2.17778 -0.84232 0
M  V30 1945 C 174.849 -1.11487 -1.2847 0
M  V30 1946 O 176.034 -1.39681 -1.34918 0
M  V30 1947 C 173.164 -2.76888 -2.09644 0
M  V30 1948 C 172.118 -3.88669 -1.79221 0
M  V30 1949 C 171.444 -4.34541 -3.11574 0
M  V30 1950 C 172.744 -5.11251 -1.06864 0
M  V30 1951 H 174.438 -2.97489 -0.337774 0
M  V30 1952 H 171.984 -1.43097 -0.161025 0
M  V30 1953 H 173.937 -3.17904 -2.76614 0
M  V30 1954 H 172.661 -1.94451 -2.62405 0
M  V30 1955 H 171.32 -3.48213 -1.14644 0
M  V30 1956 H 170.968 -3.48977 -3.62249 0
M  V30 1957 H 170.668 -5.09914 -2.91996 0
M  V30 1958 H 172.192 -4.782 -3.7968 0
M  V30 1959 H 173.606 -5.49352 -1.63968 0
M  V30 1960 H 172.003 -5.9214 -0.974178 0
M  V30 1961 H 173.073 -4.8487 -0.0536168 0
M  V30 1962 N 174.416 0.165178 -1.56732 0
M  V30 1963 C 175.827 0.727046 -1.71962 0
M  V30 1964 C 176.178 1.82508 -0.720078 0
M  V30 1965 O 175.303 2.16082 0.117242 0
M  V30 1966 C 175.898 1.32559 -3.11791 0
M  V30 1967 C 174.457 1.83422 -3.28684 0
M  V30 1968 C 173.604 0.715567 -2.67908 0
M  V30 1969 H 176.555 -0.0602896 -1.58585 0
M  V30 1970 H 176.576 2.19533 -3.10782 0
M  V30 1971 H 176.088 0.526195 -3.84516 0
M  V30 1972 H 174.189 2.65986 -2.60926 0
M  V30 1973 H 174.302 1.97543 -4.36478 0
M  V30 1974 H 172.666 1.13758 -2.27884 0
M  V30 1975 H 173.449 -0.0720836 -3.43224 0
M  V30 1976 N 175.894 1.51508 0.433938 0
M  V30 1977 C 177.119 1.68443 1.21003 0
M  V30 1978 C 177.544 0.382636 1.84167 0
M  V30 1979 O 176.902 -0.65755 1.68956 0
M  V30 1980 C 176.95 2.80405 2.26727 0
M  V30 1981 O 176.054 2.44245 3.32292 0
M  V30 1982 H 175.395 0.561536 0.354363 0
M  V30 1983 H 177.925 1.9809 0.512024 0
M  V30 1984 H 177.935 3.0459 2.71457 0
M  V30 1985 H 176.61 3.74867 1.80132 0
M  V30 1986 H 175.187 2.30644 2.93015 0
M  V30 1987 N 177.372 -0.689602 1.41712 0
M  V30 1988 C 178.649 -1.44457 1.31877 0
M  V30 1989 C 179.029 -2.11039 -0.0508537 0
M  V30 1990 O 178.377 -2.02138 -1.06547 0
M  V30 1991 C 178.587 -2.45913 2.47645 0
M  V30 1992 C 179.935 -3.10991 2.89084 0
M  V30 1993 O 180.959 -2.56238 2.47428 0
M  V30 1994 O 179.818 -4.10174 3.61137 0
M  V30 1995 H 176.912 -0.64362 0.519309 0
M  V30 1996 H 179.458 -0.719576 1.53689 0
M  V30 1997 H 178.23 -1.95409 3.39015 0
M  V30 1998 H 177.853 -3.25913 2.27742 0
M  V30 1999 N 178.85 -1.27639 -0.924453 0
M  V30 2000 C 180.097 -1.14167 -1.67249 0
M  V30 2001 C 180.425 0.311863 -1.91984 0
M  V30 2002 O 179.68 1.24425 -1.51053 0
M  V30 2003 C 179.979 -1.87407 -3.04325 0
M  V30 2004 C 179.645 -3.37249 -2.99289 0
M  V30 2005 C 178.307 -3.7812 -2.97622 0
M  V30 2006 C 180.659 -4.32845 -2.90336 0
M  V30 2007 C 177.987 -5.12944 -2.8479 0
M  V30 2008 C 180.339 -5.6773 -2.79045 0
M  V30 2009 C 179.003 -6.07889 -2.7573 0
M  V30 2010 H 178.273 -0.417766 -0.612007 0
M  V30 2011 H 180.92 -1.58286 -1.07786 0
M  V30 2012 H 179.225 -1.35805 -3.67511 0
M  V30 2013 H 180.922 -1.74408 -3.61086 0
M  V30 2014 H 177.512 -3.04748 -3.01374 0
M  V30 2015 H 181.696 -4.02239 -2.90719 0
M  V30 2016 H 176.952 -5.432 -2.80612 0
M  V30 2017 H 181.126 -6.41472 -2.71083 0
M  V30 2018 H 178.753 -7.12314 -2.65544 0
M  V30 2019 N 180.328 1.1314 -1.09713 0
M  V30 2020 C 181.744 1.36477 -0.827423 0
M  V30 2021 C 181.944 1.93654 0.556817 0
M  V30 2022 O 181 2.15791 1.31112 0
M  V30 2023 C 182.313 2.31334 -1.92106 0
M  V30 2024 C 183.861 2.44943 -1.94864 0
M  V30 2025 C 184.336 3.4311 -3.0338 0
M  V30 2026 N 185.827 3.50662 -3.02639 0
M  V30 2027 C 186.562 4.2651 -3.83246 0
M  V30 2028 N 186.058 5.05485 -4.73768 0
M  V30 2029 N 187.851 4.2184 -3.71493 0
M  V30 2030 H 180.002 0.743807 -1.9895 0
M  V30 2031 H 182.265 0.389823 -0.864143 0
M  V30 2032 H 181.971 1.96483 -2.91698 0
M  V30 2033 H 181.845 3.31381 -1.80184 0
M  V30 2034 H 184.232 2.79079 -0.959099 0
M  V30 2035 H 184.313 1.4481 -2.10864 0
M  V30 2036 H 183.957 3.09704 -4.02549 0
M  V30 2037 H 183.887 4.43055 -2.84622 0
M  V30 2038 H 186.378 2.94315 -2.37039 0
M  V30 2039 H 186.691 5.60675 -5.3185 0
M  V30 2040 H 185.036 5.04708 -4.77802 0
M  V30 2041 H 188.227 3.5922 -3.00131 0
M  V30 2042 H 188.4 4.80697 -4.3455 0
M  V30 2043 N 181.806 0.884767 1.30421 0
M  V30 2044 C 183.054 0.502112 1.95763 0
M  V30 2045 C 183.375 -0.951815 1.70192 0
M  V30 2046 O 182.645 -1.6692 1.0254 0
M  V30 2047 H 181.225 0.182694 0.724315 0
M  V30 2048 H 183.887 1.1278 1.58955 0
M  V30 2049 H 182.983 0.672188 3.04775 0
M  V30 2050 N 183.284 -1.43765 0.645699 0
M  V30 2051 C 184.509 -2.06767 0.161883 0
M  V30 2052 C 184.934 -1.48034 -1.16049 0
M  V30 2053 O 184.292 -0.587369 -1.71522 0
M  V30 2054 C 184.34 -3.60519 0.0762003 0
M  V30 2055 O 183.444 -4.00982 -0.963721 0
M  V30 2056 H 182.785 -0.657675 0.091429 0
M  V30 2057 H 185.315 -1.84397 0.886499 0
M  V30 2058 H 185.325 -4.07853 -0.109604 0
M  V30 2059 H 184 -4.02646 1.04157 0
M  V30 2060 H 182.577 -3.65253 -0.751312 0
M  V30 2061 N 184.763 -0.387143 -1.52771 0
M  V30 2062 C 186.04 0.253197 -1.93954 0
M  V30 2063 C 186.42 1.64545 -1.32243 0
M  V30 2064 O 185.768 2.23191 -0.489699 0
M  V30 2065 C 185.978 0.281722 -3.47861 0
M  V30 2066 C 187.326 0.511715 -4.21505 0
M  V30 2067 O 188.35 0.362023 -3.54356 0
M  V30 2068 O 187.209 0.804847 -5.40541 0
M  V30 2069 H 184.303 0.156845 -0.811991 0
M  V30 2070 H 186.849 -0.441494 -1.63856 0
M  V30 2071 H 185.621 -0.693571 -3.85104 0
M  V30 2072 H 185.244 1.02142 -3.84256 0
M  V30 2073 N 186.241 1.57166 -0.116904 0
M  V30 2074 C 187.204 2.14039 0.819742 0
M  V30 2075 C 188.204 1.07477 1.19605 0
M  V30 2076 O 189.394 1.33263 1.1219 0
M  V30 2077 C 186.526 2.67891 2.10826 0
M  V30 2078 H 187.719 2.98128 0.325511 0
M  V30 2079 H 185.272 1.55739 0.132312 0
M  V30 2080 H 186.007 1.87384 2.64685 0
M  V30 2081 H 185.792 3.45823 1.84793 0
M  V30 2082 H 187.282 3.11809 2.77785 0
M  V30 2083 N 187.719 -0.156864 1.56817 0
M  V30 2084 C 188.649 -1.19589 2.00551 0
M  V30 2085 C 189.63 -1.4536 0.883426 0
M  V30 2086 O 190.815 -1.56449 1.15054 0
M  V30 2087 C 187.945 -2.53143 2.37773 0
M  V30 2088 C 186.899 -2.41913 3.53075 0
M  V30 2089 C 186.225 -3.80088 3.76081 0
M  V30 2090 C 187.525 -1.91157 4.86062 0
M  V30 2091 H 189.219 -0.832293 2.87599 0
M  V30 2092 H 186.765 -0.398918 1.38364 0
M  V30 2093 H 188.718 -3.26047 2.66967 0
M  V30 2094 H 187.442 -2.91319 1.4765 0
M  V30 2095 H 186.101 -1.71462 3.24031 0
M  V30 2096 H 185.749 -4.15683 2.83225 0
M  V30 2097 H 185.449 -3.73439 4.53671 0
M  V30 2098 H 186.973 -4.54556 4.0769 0
M  V30 2099 H 188.387 -2.53846 5.14038 0
M  V30 2100 H 186.784 -1.95422 5.67389 0
M  V30 2101 H 187.854 -0.866673 4.77092 0
M  V30 2102 N 189.197 -1.51736 -0.425897 0
M  V30 2103 C 190.425 -1.68794 -1.1965 0
M  V30 2104 C 190.84 -0.390164 -1.84725 0
M  V30 2105 O 190.197 0.632376 -1.71194 0
M  V30 2106 C 190.248 -2.81174 -2.27208 0
M  V30 2107 O 189.969 -4.05925 -1.64793 0
M  V30 2108 C 191.47 -3.09599 -3.17275 0
M  V30 2109 H 188.69 -0.566128 -0.360194 0
M  V30 2110 H 191.234 -1.98211 -0.503249 0
M  V30 2111 H 189.389 -2.54324 -2.9223 0
M  V30 2112 H 189.803 -4.68423 -2.35967 0
M  V30 2113 H 191.277 -3.91786 -3.88854 0
M  V30 2114 H 191.754 -2.22468 -3.78688 0
M  V30 2115 H 192.36 -3.38151 -2.57941 0
M  V30 2116 N 190.675 0.682077 -1.42076 0
M  V30 2117 C 191.921 1.44428 -1.42367 0
M  V30 2118 C 192.254 1.94164 -0.0373056 0
M  V30 2119 O 191.529 1.70429 0.937239 0
M  V30 2120 C 191.812 2.64654 -2.44194 0
M  V30 2121 C 191.665 2.20596 -3.91991 0
M  V30 2122 C 192.984 3.66865 -2.431 0
M  V30 2123 H 190.103 0.523834 -0.518428 0
M  V30 2124 H 192.745 0.77576 -1.73442 0
M  V30 2125 H 190.895 3.2169 -2.17826 0
M  V30 2126 H 192.567 1.68783 -4.29313 0
M  V30 2127 H 190.81 1.52242 -4.06208 0
M  V30 2128 H 191.481 3.06921 -4.58807 0
M  V30 2129 H 193.957 3.19531 -2.66532 0
M  V30 2130 H 192.833 4.48577 -3.16339 0
M  V30 2131 H 193.094 4.17493 -1.45437 0
M  V30 2132 N 192.153 1.28127 0.917671 0
M  V30 2133 C 193.43 1.05761 1.64542 0
M  V30 2134 C 193.81 -0.404344 2.07191 0
M  V30 2135 O 193.158 -1.38963 1.81388 0
M  V30 2136 C 193.368 2.02857 2.83989 0
M  V30 2137 C 194.716 2.32786 3.551 0
M  V30 2138 O 195.74 2.0091 2.94132 0
M  V30 2139 O 194.599 2.87169 4.64969 0
M  V30 2140 H 191.693 0.403916 0.721652 0
M  V30 2141 H 194.239 1.39431 0.967322 0
M  V30 2142 H 193.011 3.01407 2.49538 0
M  V30 2143 H 192.634 1.69809 3.59514 0
M  V30 2144 N 193.631 -1.12557 1.10312 0
M  V30 2145 C 195.042 -1.65574 0.862678 0
M  V30 2146 C 195.393 -1.86566 -0.607256 0
M  V30 2147 O 194.518 -1.59121 -1.46662 0
M  V30 2148 C 195.113 -3.00776 1.55947 0
M  V30 2149 C 193.672 -3.50748 1.36576 0
M  V30 2150 C 192.819 -2.25797 1.60968 0
M  V30 2151 H 195.77 -0.963552 1.26101 0
M  V30 2152 H 195.791 -3.67185 0.997753 0
M  V30 2153 H 195.303 -2.85465 2.62928 0
M  V30 2154 H 193.404 -3.71245 0.317531 0
M  V30 2155 H 193.517 -4.30289 2.10686 0
M  V30 2156 H 191.881 -2.32841 1.03234 0
M  V30 2157 H 192.664 -2.13043 2.69198 0
M  V30 2158 N 195.109 -0.891671 -1.2995 0
M  V30 2159 C 196.337 -0.52866 -2.00032 0
M  V30 2160 C 196.752 0.884574 -1.66795 0
M  V30 2161 O 196.109 1.5827 -0.908669 0
M  V30 2162 C 196.16 -0.701814 -3.54622 0
M  V30 2163 O 195.881 -2.05942 -3.86678 0
M  V30 2164 C 197.382 -0.342683 -4.41973 0
M  V30 2165 H 194.602 -0.203659 -0.639347 0
M  V30 2166 H 197.146 -1.19881 -1.65677 0
M  V30 2167 H 195.301 -0.0789468 -3.8732 0
M  V30 2168 H 195.715 -2.08291 -4.81368 0
M  V30 2169 H 197.189 -0.514709 -5.49595 0
M  V30 2170 H 197.666 0.71975 -4.33262 0
M  V30 2171 H 198.272 -0.942154 -4.14733 0
M  V30 2172 N 196.587 1.43421 -0.653314 0
M  V30 2173 C 197.52 2.2803 0.0879804 0
M  V30 2174 C 198.498 1.39833 0.82979 0
M  V30 2175 O 199.682 1.69275 0.829341 0
M  V30 2176 C 196.809 3.19247 1.13132 0
M  V30 2177 C 195.855 4.23704 0.487546 0
M  V30 2178 S 196.688 5.30377 -0.738961 0
M  V30 2179 C 197.844 6.25162 0.30384 0
M  V30 2180 H 198.077 2.90554 -0.629739 0
M  V30 2181 H 195.61 1.47934 -0.442156 0
M  V30 2182 H 197.568 3.72346 1.72827 0
M  V30 2183 H 196.229 2.55901 1.82136 0
M  V30 2184 H 195.422 4.87631 1.27407 0
M  V30 2185 H 195.024 3.73983 -0.0352915 0
M  V30 2186 H 197.316 6.67321 1.17 0
M  V30 2187 H 198.259 7.07463 -0.300402 0
M  V30 2188 H 198.667 5.60864 0.63969 0
M  V30 2189 N 198.065 0.39524 1.52563 0
M  V30 2190 C 199.295 -0.184675 2.05773 0
M  V30 2191 C 199.703 -1.40571 1.26635 0
M  V30 2192 O 199.046 -1.81105 0.30769 0
M  V30 2193 C 199.108 -0.613551 3.54226 0
M  V30 2194 C 198.772 0.49484 4.54313 0
M  V30 2195 C 199.769 1.3541 5.01956 0
M  V30 2196 C 197.454 0.663565 4.97898 0
M  V30 2197 C 199.448 2.36716 5.91814 0
M  V30 2198 C 197.135 1.67996 5.87555 0
M  V30 2199 C 198.133 2.53017 6.34406 0
M  V30 2200 O 197.821 3.52917 7.22291 0
M  V30 2201 H 197.553 -0.030077 0.675331 0
M  V30 2202 H 200.107 0.560708 1.97599 0
M  V30 2203 H 198.337 -1.411 3.60038 0
M  V30 2204 H 200.026 -1.11981 3.90148 0
M  V30 2205 H 200.792 1.23509 4.6901 0
M  V30 2206 H 196.671 0.0114913 4.60999 0
M  V30 2207 H 200.215 3.03113 6.28306 0
M  V30 2208 H 196.112 1.79933 6.19915 0
M  V30 2209 H 196.88 3.48996 7.40367 0
M  V30 2210 N 199.544 -1.57102 0.125237 0
M  V30 2211 C 200.491 -2.15641 -0.822655 0
M  V30 2212 C 201.461 -1.08313 -1.25927 0
M  V30 2213 O 202.646 -1.36251 -1.33567 0
M  V30 2214 C 199.786 -2.76504 -2.06494 0
M  V30 2215 C 198.899 -3.98158 -1.67612 0
M  V30 2216 C 198.034 -4.47088 -2.86854 0
M  V30 2217 C 197.073 -5.6126 -2.44242 0
M  V30 2218 N 196.21 -6.04905 -3.56419 0
M  V30 2219 H 201.05 -2.96313 -0.316625 0
M  V30 2220 H 198.587 -1.46388 -0.144588 0
M  V30 2221 H 200.545 -3.09925 -2.79289 0
M  V30 2222 H 199.175 -1.98512 -2.54545 0
M  V30 2223 H 198.227 -3.70858 -0.846661 0
M  V30 2224 H 199.539 -4.80934 -1.32301 0
M  V30 2225 H 198.693 -4.82451 -3.67867 0
M  V30 2226 H 197.432 -3.63275 -3.25396 0
M  V30 2227 H 196.437 -5.25495 -1.61663 0
M  V30 2228 H 197.662 -6.46843 -2.0681 0
M  V30 2229 H 195.608 -5.24032 -3.94623 0
M  V30 2230 H 195.525 -6.82552 -3.25051 0
M  V30 2231 H 196.793 -6.44907 -4.37853 0
M  V30 2232 N 201.022 0.148545 -1.56898 0
M  V30 2233 C 202.262 0.86765 -1.85071 0
M  V30 2234 C 202.626 1.78417 -0.709317 0
M  V30 2235 O 203.827 2.54261 -0.872049 0
M  V30 2236 C 202.098 1.62306 -3.1842 0
M  V30 2237 S 203.657 2.3878 -3.68143 0
M  V30 2238 H 200.475 0.290174 -0.649092 0
M  V30 2239 H 203.077 0.127755 -1.95082 0
M  V30 2240 H 201.781 0.941192 -3.99462 0
M  V30 2241 H 201.312 2.4039 -3.1141 0
M  V30 2242 H 203.327 3.63942 -3.37285 0
M  V30 2243 N 202.5 1.5196 0.417844 0
M  V30 2244 C 203.43 1.77634 1.51554 0
M  V30 2245 C 204.411 0.626918 1.58126 0
M  V30 2246 O 205.596 0.871632 1.7354 0
M  V30 2247 C 202.726 1.91911 2.8946 0
M  V30 2248 C 201.68 3.07463 2.97743 0
M  V30 2249 C 201.006 3.06951 4.37819 0
M  V30 2250 C 202.306 4.47082 2.70027 0
M  V30 2251 H 204 2.6955 1.3032 0
M  V30 2252 H 201.546 1.29706 0.625492 0
M  V30 2253 H 203.499 2.08455 3.6623 0
M  V30 2254 H 202.223 0.966598 3.11969 0
M  V30 2255 H 200.882 2.90656 2.23416 0
M  V30 2256 H 200.53 2.09438 4.57323 0
M  V30 2257 H 200.23 3.84556 4.44286 0
M  V30 2258 H 201.754 3.25613 5.16535 0
M  V30 2259 H 203.168 4.6414 3.36522 0
M  V30 2260 H 201.565 5.2654 2.87881 0
M  V30 2261 H 202.635 4.55777 1.65514 0
M  V30 2262 N 203.978 -0.674533 1.42435 0
M  V30 2263 C 205.224 -1.43521 1.4413 0
M  V30 2264 C 205.579 -1.92316 0.0567773 0
M  V30 2265 O 204.872 -1.68008 -0.921076 0
M  V30 2266 C 205.066 -2.64767 2.40069 0
M  V30 2267 C 204.895 -2.27836 3.87713 0
M  V30 2268 C 203.665 -2.17183 4.56245 0
M  V30 2269 C 205.863 -1.89466 4.78129 0
M  V30 2270 N 203.845 -1.73358 5.88915 0
M  V30 2271 C 205.216 -1.56561 5.99907 0
M  V30 2272 C 207.271 -1.7646 4.65582 0
M  V30 2273 C 205.974 -1.11957 7.10534 0
M  V30 2274 C 208 -1.3326 5.76191 0
M  V30 2275 C 207.362 -1.0128 6.97081 0
M  V30 2276 H 203.461 -0.521656 0.582579 0
M  V30 2277 H 206.045 -0.778381 1.78464 0
M  V30 2278 H 204.216 -3.28139 2.07796 0
M  V30 2279 H 205.948 -3.3136 2.32342 0
M  V30 2280 H 202.703 -2.3626 4.10461 0
M  V30 2281 H 203.127 -1.53867 6.59283 0
M  V30 2282 H 207.769 -1.99831 3.72595 0
M  V30 2283 H 205.487 -0.873318 8.03367 0
M  V30 2284 H 209.073 -1.23717 5.68494 0
M  V30 2285 H 207.953 -0.683597 7.81215 0
M  V30 2286 N 205.456 -1.28612 -0.910864 0
M  V30 2287 C 206.403 -1.12786 -2.01365 0
M  V30 2288 C 207.373 -0.024201 -1.66082 0
M  V30 2289 O 208.558 -0.189667 -1.89855 0
M  V30 2290 C 205.698 -0.798743 -3.35729 0
M  V30 2291 C 204.811 -1.98173 -3.83864 0
M  V30 2292 C 203.946 -1.59298 -5.06752 0
M  V30 2293 C 202.985 -2.74245 -5.47226 0
M  V30 2294 N 202.122 -2.35842 -6.61304 0
M  V30 2295 H 206.962 -2.07142 -2.14234 0
M  V30 2296 H 204.499 -1.03093 -1.0493 0
M  V30 2297 H 206.457 -0.588662 -4.13026 0
M  V30 2298 H 205.087 0.10789 -3.2262 0
M  V30 2299 H 204.139 -2.30386 -3.02699 0
M  V30 2300 H 205.451 -2.84343 -4.09818 0
M  V30 2301 H 204.605 -1.34513 -5.916 0
M  V30 2302 H 203.344 -0.702618 -4.82612 0
M  V30 2303 H 202.349 -2.99725 -4.60918 0
M  V30 2304 H 203.574 -3.63928 -5.73353 0
M  V30 2305 H 201.52 -1.49279 -6.38789 0
M  V30 2306 H 201.437 -3.15546 -6.86998 0
M  V30 2307 H 202.705 -2.14348 -7.4945 0
M  V30 2308 N 206.934 1.1197 -1.10907 0
M  V30 2309 C 208.345 1.65114 -0.871446 0
M  V30 2310 C 208.696 1.86885 0.597353 0
M  V30 2311 O 207.821 1.59896 1.45816 0
M  V30 2312 C 208.416 2.99944 -1.5754 0
M  V30 2313 C 206.975 3.50018 -1.38435 0
M  V30 2314 C 206.122 2.24941 -1.62164 0
M  V30 2315 H 209.073 0.956851 -1.2661 0
M  V30 2316 H 209.094 3.66651 -1.01721 0
M  V30 2317 H 208.606 2.84067 -2.64438 0
M  V30 2318 H 206.707 3.71071 -0.337214 0
M  V30 2319 H 206.82 4.29165 -2.12965 0
M  V30 2320 H 205.184 2.3229 -1.04467 0
M  V30 2321 H 205.967 2.11612 -2.70324 0
M  V30 2322 N 208.412 0.89855 1.29475 0
M  V30 2323 C 209.689 0.443416 1.90508 0
M  V30 2324 C 210.069 -1.07685 1.81569 0
M  V30 2325 O 209.417 -1.9182 1.24166 0
M  V30 2326 C 209.627 0.956708 3.35631 0
M  V30 2327 C 210.975 0.999728 4.12663 0
M  V30 2328 O 211.999 0.904299 3.4453 0
M  V30 2329 O 210.858 1.14289 5.34416 0
M  V30 2330 H 207.952 0.138025 0.815401 0
M  V30 2331 H 210.498 0.98834 1.37949 0
M  V30 2332 H 209.27 2.00067 3.36287 0
M  V30 2333 H 208.893 0.391728 3.95666 0
M  V30 2334 N 209.89 -1.43072 0.660911 0
M  V30 2335 C 210.82 -2.33497 -0.0122829 0
M  V30 2336 C 211.801 -1.49903 -0.803925 0
M  V30 2337 O 212.986 -1.78546 -0.763864 0
M  V30 2338 C 210.116 -3.33363 -0.973994 0
M  V30 2339 C 209.07 -4.27003 -0.291928 0
M  V30 2340 C 208.396 -5.16967 -1.36562 0
M  V30 2341 C 209.696 -5.15816 0.820462 0
M  V30 2342 H 211.39 -2.90038 0.742873 0
M  V30 2343 H 208.936 -1.39461 0.358688 0
M  V30 2344 H 210.889 -3.95524 -1.45392 0
M  V30 2345 H 209.613 -2.75095 -1.7604 0
M  V30 2346 H 208.272 -3.66217 0.167623 0
M  V30 2347 H 207.92 -4.55034 -2.14366 0
M  V30 2348 H 207.62 -5.80441 -0.914454 0
M  V30 2349 H 209.144 -5.82003 -1.84675 0
M  V30 2350 H 210.558 -5.71742 0.422366 0
M  V30 2351 H 208.955 -5.8805 1.19656 0
M  V30 2352 H 210.025 -4.55045 1.67518 0
M  V30 2353 N 211.368 -0.403325 -1.52352 0
M  V30 2354 C 212.615 0.174347 -2.01748 0
M  V30 2355 C 212.943 1.45636 -1.2892 0
M  V30 2356 O 212.198 1.9193 -0.382258 0
M  V30 2357 C 212.497 0.474665 -3.54234 0
M  V30 2358 C 212.163 -0.717458 -4.45155 0
M  V30 2359 C 210.825 -1.04447 -4.69728 0
M  V30 2360 C 213.177 -1.51432 -4.98716 0
M  V30 2361 C 210.505 -2.16963 -5.45109 0
M  V30 2362 C 212.857 -2.6302 -5.75329 0
M  V30 2363 C 211.521 -2.96213 -5.98175 0
M  V30 2364 H 210.791 0.0637981 -0.738248 0
M  V30 2365 H 213.438 -0.543553 -1.83624 0
M  V30 2366 H 211.743 1.27406 -3.70506 0
M  V30 2367 H 213.44 0.934496 -3.89959 0
M  V30 2368 H 210.03 -0.452596 -4.26204 0
M  V30 2369 H 214.214 -1.27491 -4.79645 0
M  V30 2370 H 209.47 -2.43034 -5.61021 0
M  V30 2371 H 213.644 -3.25158 -6.15829 0
M  V30 2372 H 211.271 -3.83516 -6.56368 0
M  V30 2373 N 212.846 1.57033 -0.133567 0
M  V30 2374 C 214.093 1.95686 0.520877 0
M  V30 2375 C 214.421 1.0177 1.6575 0
M  V30 2376 O 213.676 0.0443195 1.9565 0
M  V30 2377 C 213.975 3.40674 1.08057 0
M  V30 2378 C 213.641 4.50855 0.0637899 0
M  V30 2379 C 212.303 4.80716 -0.215757 0
M  V30 2380 C 214.655 5.17398 -0.62835 0
M  V30 2381 C 211.983 5.74433 -1.19348 0
M  V30 2382 C 214.335 6.12167 -1.5948 0
M  V30 2383 C 212.999 6.40414 -1.88218 0
M  V30 2384 H 212.269 0.716067 0.190602 0
M  V30 2385 H 214.916 1.9026 -0.217556 0
M  V30 2386 H 213.221 3.42865 1.89606 0
M  V30 2387 H 214.918 3.67902 1.59529 0
M  V30 2388 H 211.508 4.27605 0.291855 0
M  V30 2389 H 215.692 4.94472 -0.425562 0
M  V30 2390 H 210.948 5.94616 -1.42272 0
M  V30 2391 H 215.122 6.6281 -2.13671 0
M  V30 2392 H 212.749 7.12838 -2.64133 0
M  V30 2393 N 214.325 -0.140222 1.56975 0
M  V30 2394 C 215.288 -1.15689 1.97861 0
M  V30 2395 C 216.288 -1.3549 0.865974 0
M  V30 2396 O 217.478 -1.32367 1.13246 0
M  V30 2397 C 214.61 -2.51582 2.30042 0
M  V30 2398 H 215.803 -0.805971 2.88867 0
M  V30 2399 H 213.356 -0.383801 1.51515 0
M  V30 2400 H 214.091 -2.91632 1.41849 0
M  V30 2401 H 213.876 -2.38569 3.11171 0
M  V30 2402 H 215.366 -3.24792 2.62488 0
M  V30 2403 N 215.803 -1.52179 -0.40978 0
M  V30 2404 C 216.751 -1.76086 -1.51975 0
M  V30 2405 C 217.745 -0.627964 -1.57331 0
M  V30 2406 O 218.951 -0.809993 -1.60745 0
M  V30 2407 H 215.326 -0.556829 -0.505416 0
M  V30 2408 H 217.297 -2.69077 -1.28996 0
M  V30 2409 C 216.046 -1.92799 -2.8935 0
M  V30 2410 H 215.369 -2.79392 -2.85972 0
M  V30 2411 H 216.809 -2.13527 -3.66309 0
M  V30 2412 C 215.268 -0.694923 -3.29655 0
M  V30 2413 O 215.798 0.13751 -4.01465 0
M  V30 2414 N 214.004 -0.53101 -2.85707 0
M  V30 2415 H 213.551 -1.20952 -2.27439 0
M  V30 2416 H 213.509 0.292718 -3.13034 0
M  V30 2417 N 217.281 0.66697 -1.42791 0
M  V30 2418 C 218.191 1.80962 -1.49299 0
M  V30 2419 C 219.207 1.69775 -0.381108 0
M  V30 2420 O 220.383 1.91188 -0.633188 0
M  V30 2421 C 217.448 3.17156 -1.40045 0
M  V30 2422 C 216.509 3.40242 -2.6179 0
M  V30 2423 C 215.742 4.69939 -2.52969 0
M  V30 2424 O 215.965 5.48372 -1.56985 0
M  V30 2425 O 214.899 4.94441 -3.43237 0
M  V30 2426 H 218.725 1.78427 -2.45759 0
M  V30 2427 H 216.31 0.823713 -1.24641 0
M  V30 2428 H 218.192 3.98413 -1.37276 0
M  V30 2429 H 216.867 3.20312 -0.467138 0
M  V30 2430 H 215.774 2.58802 -2.70134 0
M  V30 2431 H 217.107 3.41923 -3.54047 0
M  V30 2432 N 218.759 1.29093 0.90403 0
M  V30 2433 C 219.706 1.13853 2.00764 0
M  V30 2434 C 220.676 0.0330084 1.66067 0
M  V30 2435 O 221.861 0.199733 1.89752 0
M  V30 2436 C 219.001 0.816537 3.35301 0
M  V30 2437 C 218.114 2.00206 3.82807 0
M  V30 2438 C 217.249 1.61983 5.059 0
M  V30 2439 C 216.288 2.77143 5.45764 0
M  V30 2440 N 215.425 2.39346 6.60044 0
M  V30 2441 H 220.265 2.08276 2.13132 0
M  V30 2442 H 217.802 1.03648 1.04381 0
M  V30 2443 H 219.76 0.610557 4.12708 0
M  V30 2444 H 218.39 -0.090779 3.22672 0
M  V30 2445 H 217.442 2.31988 3.01473 0
M  V30 2446 H 218.754 2.86512 4.08304 0
M  V30 2447 H 217.908 1.37649 5.90879 0
M  V30 2448 H 216.647 0.728202 4.82233 0
M  V30 2449 H 215.652 3.02165 4.59322 0
M  V30 2450 H 216.877 3.66964 5.71414 0
M  V30 2451 H 214.823 1.52665 6.37989 0
M  V30 2452 H 214.74 3.19185 6.85315 0
M  V30 2453 H 216.008 2.1832 7.48303 0
M  V30 2454 N 220.237 -1.11381 1.11499 0
M  V30 2455 C 221.462 -1.87475 0.887019 0
M  V30 2456 C 221.887 -1.79639 -0.557796 0
M  V30 2457 O 221.245 -1.15924 -1.39396 0
M  V30 2458 C 221.293 -3.34213 1.35403 0
M  V30 2459 O 220.397 -4.0903 0.526146 0
M  V30 2460 H 219.738 -0.582099 0.319463 0
M  V30 2461 H 222.268 -1.40785 1.48461 0
M  V30 2462 H 222.278 -3.8506 1.34881 0
M  V30 2463 H 220.953 -3.39232 2.40612 0
M  V30 2464 H 219.53 -3.68082 0.597522 0
M  V30 2465 N 221.715 -0.905404 -1.28997 0
M  V30 2466 C 222.678 -0.392253 -2.25819 0
M  V30 2467 C 223.678 0.476753 -1.5357 0
M  V30 2468 O 224.868 0.280994 -1.71919 0
M  V30 2469 C 222 0.438588 -3.38067 0
M  V30 2470 H 223.193 -1.24743 -2.72725 0
M  V30 2471 H 220.746 -0.684051 -1.40536 0
M  V30 2472 H 221.481 1.31352 -2.96508 0
M  V30 2473 H 221.266 -0.184167 -3.91667 0
M  V30 2474 H 222.756 0.78873 -4.10084 0
M  V30 2475 N 223.193 1.4272 -0.668489 0
M  V30 2476 C 224.141 2.32586 0.0254857 0
M  V30 2477 C 225.135 1.49471 0.797176 0
M  V30 2478 O 226.341 1.65583 0.705853 0
M  V30 2479 H 222.716 0.751514 0.0270339 0
M  V30 2480 H 224.687 2.88823 -0.749936 0
M  V30 2481 C 223.436 3.3397 0.967427 0
M  V30 2482 H 222.759 3.97961 0.383048 0
M  V30 2483 H 224.199 3.9945 1.42181 0
M  V30 2484 C 222.658 2.65744 2.0708 0
M  V30 2485 O 223.188 2.48454 3.15648 0
M  V30 2486 N 221.394 2.2487 1.8407 0
M  V30 2487 H 220.941 2.39132 0.95778 0
M  V30 2488 H 220.899 1.79552 2.58086 0
M  V30 2489 N 224.671 0.411399 1.52136 0
M  V30 2490 C 225.918 -0.163645 2.01838 0
M  V30 2491 C 226.246 -1.4495 1.29691 0
M  V30 2492 O 225.501 -1.91725 0.392431 0
M  V30 2493 C 225.8 -0.455872 3.54481 0
M  V30 2494 C 225.466 0.741055 4.44769 0
M  V30 2495 C 224.128 1.06936 4.69167 0
M  V30 2496 C 226.48 1.54075 4.97906 0
M  V30 2497 C 223.808 2.19851 5.43951 0
M  V30 2498 C 226.16 2.66067 5.73926 0
M  V30 2499 C 224.824 2.99381 5.96596 0
M  V30 2500 H 224.094 -0.0598821 0.738576 0
M  V30 2501 H 226.741 0.553283 1.83333 0
M  V30 2502 H 225.046 -1.2544 3.71177 0
M  V30 2503 H 226.743 -0.913802 3.90449 0
M  V30 2504 H 223.333 0.475192 4.25958 0
M  V30 2505 H 227.517 1.30033 4.78963 0
M  V30 2506 H 222.773 2.46006 5.59724 0
M  V30 2507 H 226.947 3.28419 6.14096 0
M  V30 2508 H 224.574 3.86992 6.54325 0
M  V30 2509 N 226.149 -1.5696 0.141893 0
M  V30 2510 C 227.099 -2.13074 -0.811383 0
M  V30 2511 C 228.083 -1.05726 -1.21288 0
M  V30 2512 O 229.275 -1.31914 -1.18015 0
M  V30 2513 C 226.404 -2.75186 -2.0525 0
M  V30 2514 C 225.49 -3.8965 -1.67432 0
M  V30 2515 N 225.881 -4.95733 -1.0041 0
M  V30 2516 C 224.179 -4.00262 -1.96739 0
M  V30 2517 C 224.88 -5.75858 -0.822345 0
M  V30 2518 N 223.856 -5.26452 -1.3546 0
M  V30 2519 H 227.658 -2.92465 -0.290031 0
M  V30 2520 H 225.172 -1.6229 -0.0598218 0
M  V30 2521 H 227.169 -3.13745 -2.74535 0
M  V30 2522 H 225.829 -1.97266 -2.57907 0
M  V30 2523 H 226.84 -5.13607 -0.665441 0
M  V30 2524 H 223.517 -3.33412 -2.51282 0
M  V30 2525 H 224.907 -6.71254 -0.294496 0
M  V30 2526 N 227.627 0.131896 -1.57047 0
M  V30 2527 C 228.904 0.871495 -1.75112 0
M  V30 2528 C 229.284 1.9866 -0.713949 0
M  V30 2529 O 228.632 2.26965 0.264447 0
M  V30 2530 C 228.842 1.40007 -3.19686 0
M  V30 2531 C 230.19 1.85752 -3.81813 0
M  V30 2532 O 231.214 1.49715 -3.23209 0
M  V30 2533 O 230.073 2.5226 -4.84796 0
M  V30 2534 H 227.167 0.412919 -0.716538 0
M  V30 2535 H 229.713 0.116641 -1.69299 0
M  V30 2536 H 228.485 0.599404 -3.86682 0
M  V30 2537 H 228.108 2.218 -3.29986 0
M  V30 2538 N 229.106 1.52395 0.401703 0
M  V30 2539 C 230.352 1.67065 1.14966 0
M  V30 2540 C 230.685 0.403052 1.89971 0
M  V30 2541 O 229.96 -0.598774 1.85054 0
M  V30 2542 C 230.243 2.8975 2.13815 0
M  V30 2543 C 230.096 4.26578 1.42658 0
M  V30 2544 C 231.415 3.07965 3.14397 0
M  V30 2545 H 228.534 0.607968 0.416587 0
M  V30 2546 H 231.176 1.84965 0.434511 0
M  V30 2547 H 229.326 2.74619 2.74803 0
M  V30 2548 H 230.998 4.53451 0.847329 0
M  V30 2549 H 229.241 4.27639 0.72849 0
M  V30 2550 H 229.912 5.08483 2.14823 0
M  V30 2551 H 232.388 3.22043 2.63491 0
M  V30 2552 H 231.264 3.95308 3.80819 0
M  V30 2553 H 231.525 2.21611 3.82545 0
M  V30 2554 N 230.584 -0.659388 1.43143 0
M  V30 2555 C 231.812 -1.44723 1.47861 0
M  V30 2556 C 232.227 -1.88563 0.0945886 0
M  V30 2557 O 231.584 -1.59108 -0.893915 0
M  V30 2558 C 231.635 -2.68627 2.41913 0
M  V30 2559 O 231.356 -2.26623 3.74932 0
M  V30 2560 C 232.857 -3.62045 2.55809 0
M  V30 2561 H 230.077 -0.444801 0.502387 0
M  V30 2562 H 232.621 -0.808916 1.87821 0
M  V30 2563 H 230.776 -3.28613 2.05164 0
M  V30 2564 H 231.19 -3.06745 4.2545 0
M  V30 2565 H 232.664 -4.45666 3.25708 0
M  V30 2566 H 233.141 -4.08981 1.60099 0
M  V30 2567 H 233.747 -3.07944 2.93344 0
M  V30 2568 N 232.062 -1.29571 -0.897171 0
M  V30 2569 C 232.994 -1.10724 -2.00681 0
M  V30 2570 C 234.007 -0.0540026 -1.6271 0
M  V30 2571 O 235.196 -0.298783 -1.75982 0
M  V30 2572 C 232.296 -0.663912 -3.32333 0
M  V30 2573 C 231.469 -1.79622 -3.98816 0
M  V30 2574 C 230.528 -1.34349 -5.0876 0
M  V30 2575 O 229.554 -2.04864 -5.31055 0
M  V30 2576 N 230.756 -0.215764 -5.80099 0
M  V30 2577 H 233.521 -2.06291 -2.17403 0
M  V30 2578 H 231.082 -1.21544 -1.06951 0
M  V30 2579 H 233.074 -0.344295 -4.03233 0
M  V30 2580 H 231.644 0.199375 -3.11964 0
M  V30 2581 H 230.864 -2.28459 -3.21248 0
M  V30 2582 H 232.152 -2.55535 -4.39976 0
M  V30 2583 H 231.55 0.372091 -5.64475 0
M  V30 2584 H 230.107 0.0444707 -6.51785 0
M  V30 2585 N 233.54 1.10788 -1.12088 0
M  V30 2586 C 234.45 2.20599 -0.798338 0
M  V30 2587 C 235.466 1.72712 0.21135 0
M  V30 2588 O 236.642 2.01348 0.0458477 0
M  V30 2589 C 233.707 3.45771 -0.253674 0
M  V30 2590 C 232.768 4.08411 -1.32283 0
M  V30 2591 C 232.001 5.27608 -0.80406 0
M  V30 2592 O 232.224 5.69241 0.363478 0
M  V30 2593 O 231.158 5.8101 -1.57198 0
M  V30 2594 H 234.984 2.50614 -1.7154 0
M  V30 2595 H 232.569 1.19454 -0.897275 0
M  V30 2596 H 234.451 4.21376 0.0453691 0
M  V30 2597 H 233.126 3.1739 0.636005 0
M  V30 2598 H 232.033 3.34507 -1.67499 0
M  V30 2599 H 233.366 4.40986 -2.18614 0
M  V30 2600 N 235.018 0.912232 1.28515 0
M  V30 2601 C 235.966 0.389597 2.29314 0
M  V30 2602 C 236.96 -0.517915 1.61289 0
M  V30 2603 O 238.166 -0.399328 1.75515 0
M  V30 2604 H 234.541 0.107386 0.744293 0
M  V30 2605 H 236.512 1.25286 2.70825 0
M  V30 2606 C 235.261 -0.356496 3.45868 0
M  V30 2607 H 234.584 0.332608 3.98414 0
M  V30 2608 H 236.024 -0.686851 4.184 0
M  V30 2609 C 234.483 -1.56383 2.98406 0
M  V30 2610 O 235.013 -2.66294 3.00749 0
M  V30 2611 N 233.219 -1.41029 2.54085 0
M  V30 2612 H 232.766 -0.516089 2.52377 0
M  V30 2613 H 232.724 -2.21939 2.22689 0
M  V30 2614 N 236.496 -1.42363 0.676048 0
M  V30 2615 C 237.745 -2.00745 0.196037 0
M  V30 2616 C 238.058 -1.54083 -1.20489 0
M  V30 2617 O 239.264 -2.04891 -1.78134 0
M  V30 2618 C 237.72 -3.58651 0.299616 0
M  V30 2619 C 237.328 -4.143 1.70468 0
M  V30 2620 C 239.072 -4.24326 -0.121619 0
M  V30 2621 C 236.979 -5.64574 1.76096 0
M  V30 2622 H 235.909 -0.750787 0.0695301 0
M  V30 2623 H 238.56 -1.63072 0.841412 0
M  V30 2624 H 236.942 -3.93833 -0.413673 0
M  V30 2625 H 238.116 -3.90575 2.44515 0
M  V30 2626 H 236.431 -3.61081 2.07387 0
M  V30 2627 H 239.028 -5.34607 -0.0997362 0
M  V30 2628 H 239.371 -3.99897 -1.15708 0
M  V30 2629 H 239.904 -3.94108 0.540706 0
M  V30 2630 H 236.643 -5.93804 2.77628 0
M  V30 2631 H 236.163 -5.90286 1.06406 0
M  V30 2632 H 237.842 -6.29013 1.51496 0
M  V30 2633 N 237.974 -0.419461 -1.51915 0
M  V30 2634 C 238.904 0.391813 -2.30189 0
M  V30 2635 C 239.885 1.03699 -1.34836 0
M  V30 2636 O 241.07 1.04403 -1.63748 0
M  V30 2637 C 238.2 1.50312 -3.13087 0
M  V30 2638 C 237.154 0.9824 -4.16573 0
M  V30 2639 C 236.48 2.18809 -4.8788 0
M  V30 2640 C 237.78 0.0292356 -5.22292 0
M  V30 2641 H 239.474 -0.26135 -2.98257 0
M  V30 2642 H 237.02 -0.127134 -1.43438 0
M  V30 2643 H 238.973 2.07773 -3.66617 0
M  V30 2644 H 237.697 2.18431 -2.42807 0
M  V30 2645 H 236.356 0.430119 -3.64068 0
M  V30 2646 H 236.004 2.85507 -4.14119 0
M  V30 2647 H 235.704 1.84615 -5.57845 0
M  V30 2648 H 237.228 2.76858 -5.44226 0
M  V30 2649 H 238.642 0.512976 -5.71 0
M  V30 2650 H 237.039 -0.2244 -5.9968 0
M  V30 2651 H 238.109 -0.912931 -4.76228 0
M  V30 2652 N 239.452 1.56882 -0.150215 0
M  V30 2653 C 240.382 2.19935 0.784284 0
M  V30 2654 C 241.363 1.14854 1.25469 0
M  V30 2655 O 242.548 1.43209 1.31168 0
M  V30 2656 C 239.678 2.82349 2.02229 0
M  V30 2657 C 238.632 3.93285 1.68853 0
M  V30 2658 C 237.958 4.42649 2.99944 0
M  V30 2659 C 239.258 5.13904 0.932714 0
M  V30 2660 H 240.952 2.9828 0.258781 0
M  V30 2661 H 238.498 1.43473 0.123029 0
M  V30 2662 H 240.451 3.25126 2.68088 0
M  V30 2663 H 239.175 2.0134 2.57157 0
M  V30 2664 H 237.834 3.5113 1.05371 0
M  V30 2665 H 237.482 3.58458 3.52869 0
M  V30 2666 H 237.182 5.17476 2.78374 0
M  V30 2667 H 238.706 4.88099 3.66868 0
M  V30 2668 H 240.12 5.53506 1.49345 0
M  V30 2669 H 238.517 5.94515 0.81684 0
M  V30 2670 H 239.587 4.84842 -0.0749568 0
M  V30 2671 N 240.93 -0.123565 1.57115 0
M  V30 2672 C 242.177 -0.832153 1.84612 0
M  V30 2673 C 242.505 -1.80093 0.734627 0
M  V30 2674 O 241.76 -1.93766 -0.27442 0
M  V30 2675 C 242.059 -1.62016 3.18568 0
M  V30 2676 C 241.725 -0.796084 4.43817 0
M  V30 2677 C 240.387 -0.568816 4.77826 0
M  V30 2678 C 242.739 -0.221364 5.2073 0
M  V30 2679 C 240.067 0.243499 5.86194 0
M  V30 2680 C 242.419 0.578117 6.29953 0
M  V30 2681 C 241.083 0.815744 6.62497 0
M  V30 2682 H 240.353 -0.304507 0.675542 0
M  V30 2683 H 243 -0.0947248 1.91266 0
M  V30 2684 H 241.305 -2.42837 3.0747 0
M  V30 2685 H 243.002 -2.17231 3.37064 0
M  V30 2686 H 239.592 -0.983307 4.17168 0
M  V30 2687 H 243.776 -0.384173 4.94811 0
M  V30 2688 H 239.032 0.436871 6.09837 0
M  V30 2689 H 243.206 1.03046 6.88734 0
M  V30 2690 H 240.833 1.44701 7.46301 0
M  V30 2691 N 242.408 -1.52605 -0.393616 0
M  V30 2692 C 243.657 -1.66649 -1.13627 0
M  V30 2693 C 243.97 -0.410364 -1.91247 0
M  V30 2694 O 245.176 -0.430854 -2.68059 0
M  V30 2695 C 243.632 -2.9449 -2.06891 0
M  V30 2696 C 243.24 -4.27266 -1.34714 0
M  V30 2697 C 244.984 -3.17899 -2.81319 0
M  V30 2698 C 242.891 -5.46217 -2.26717 0
M  V30 2699 H 241.821 -0.62084 -0.427871 0
M  V30 2700 H 244.472 -1.791 -0.399428 0
M  V30 2701 H 242.854 -2.75774 -2.84191 0
M  V30 2702 H 244.028 -4.56518 -0.626714 0
M  V30 2703 H 242.343 -4.10081 -0.722643 0
M  V30 2704 H 244.94 -4.03949 -3.50328 0
M  V30 2705 H 245.283 -2.32777 -3.45139 0
M  V30 2706 H 245.816 -3.37159 -2.11113 0
M  V30 2707 H 242.555 -6.33733 -1.67521 0
M  V30 2708 H 242.075 -5.21283 -2.96689 0
M  V30 2709 H 243.754 -5.7991 -2.86903 0
M  V30 2710 N 243.887 0.651787 -1.4349 0
M  V30 2711 C 245.134 1.41167 -1.45183 0
M  V30 2712 C 245.462 1.94349 -0.0766601 0
M  V30 2713 O 244.717 1.72804 0.918555 0
M  V30 2714 C 245.016 2.60914 -2.44251 0
M  V30 2715 C 244.682 2.26142 -3.9009 0
M  V30 2716 C 243.344 2.16371 -4.2981 0
M  V30 2717 C 245.696 1.98334 -4.81989 0
M  V30 2718 C 243.024 1.7695 -5.5938 0
M  V30 2719 C 245.376 1.6041 -6.11924 0
M  V30 2720 C 244.04 1.49166 -6.5062 0
M  V30 2721 H 243.31 0.516566 -0.531263 0
M  V30 2722 H 245.957 0.741099 -1.76579 0
M  V30 2723 H 244.262 3.3311 -2.06265 0
M  V30 2724 H 245.959 3.19127 -2.42815 0
M  V30 2725 H 242.549 2.34658 -3.58655 0
M  V30 2726 H 246.733 2.04803 -4.52072 0
M  V30 2727 H 241.989 1.66831 -5.88198 0
M  V30 2728 H 246.163 1.37925 -6.82605 0
M  V30 2729 H 243.79 1.1839 -7.50925 0
M  V30 2730 N 245.365 1.30045 0.890287 0
M  V30 2731 C 246.781 1.08261 1.17268 0
M  V30 2732 C 246.981 -0.160063 2.00863 0
M  V30 2733 O 246.037 -0.855181 2.37577 0
M  V30 2734 C 247.35 2.34323 1.8845 0
M  V30 2735 C 248.898 2.39735 2.01237 0
M  V30 2736 C 249.373 3.65625 2.7583 0
M  V30 2737 N 250.864 3.66402 2.83379 0
M  V30 2738 C 251.599 4.60498 3.41657 0
M  V30 2739 N 251.095 5.64933 4.01026 0
M  V30 2740 N 252.888 4.48051 3.39421 0
M  V30 2741 H 245.039 2.09777 0.332762 0
M  V30 2742 H 247.302 0.92446 0.209948 0
M  V30 2743 H 247.008 3.2498 1.34465 0
M  V30 2744 H 246.882 2.4256 2.88867 0
M  V30 2745 H 249.269 1.4956 2.54393 0
M  V30 2746 H 249.35 2.35476 0.999232 0
M  V30 2747 H 248.994 4.56156 2.23347 0
M  V30 2748 H 248.924 3.67144 3.77509 0
M  V30 2749 H 251.415 2.90896 2.41222 0
M  V30 2750 H 251.728 6.32841 4.43545 0
M  V30 2751 H 250.073 5.68732 3.99461 0
M  V30 2752 H 253.264 3.65649 2.92264 0
M  V30 2753 H 253.437 5.21565 3.84544 0
M  V30 2754 N 246.843 -1.10192 1.12674 0
M  V30 2755 C 248.12 -1.78717 0.794965 0
M  V30 2756 C 248.5 -1.98628 -0.714853 0
M  V30 2757 O 247.848 -1.58135 -1.64941 0
M  V30 2758 C 248.058 -3.11546 1.5729 0
M  V30 2759 C 249.406 -3.86382 1.76052 0
M  V30 2760 O 250.43 -3.21274 1.53823 0
M  V30 2761 O 249.289 -5.03246 2.13087 0
M  V30 2762 H 246.383 -0.774702 0.289423 0
M  V30 2763 H 248.929 -1.16819 1.23091 0
M  V30 2764 H 247.701 -2.92489 2.59935 0
M  V30 2765 H 247.324 -3.81164 1.13137 0
M  V30 2766 N 248.321 -0.919034 -1.28029 0
M  V30 2767 C 249.569 -0.553838 -1.94363 0
M  V30 2768 C 249.89 0.906357 -1.72656 0
M  V30 2769 O 249.16 1.64143 -1.0693 0
M  V30 2770 H 247.74 -0.201834 -0.719216 0
M  V30 2771 H 250.402 -1.16954 -1.55909 0
M  V30 2772 H 249.498 -0.752758 -3.02886 0
M  V30 2773 N 249.799 1.42003 -0.683588 0
M  V30 2774 C 251.076 1.95112 -0.138075 0
M  V30 2775 C 251.456 1.62359 1.34918 0
M  V30 2776 O 250.804 0.924311 2.08971 0
M  V30 2777 C 251.014 3.46505 -0.416581 0
M  V30 2778 C 252.362 4.23254 -0.337834 0
M  V30 2779 O 253.386 3.54468 -0.35082 0
M  V30 2780 O 252.245 5.45743 -0.287596 0
M  V30 2781 H 249.339 0.826961 -0.00797996 0
M  V30 2782 H 251.885 1.51784 -0.758924 0
M  V30 2783 H 250.657 3.63582 -1.4465 0
M  V30 2784 H 250.28 3.969 0.235839 0
M  V30 2785 N 251.277 0.427512 1.51691 0
M  V30 2786 C 252.523 -0.142439 2.02299 0
M  V30 2787 C 252.856 -1.43214 1.31162 0
M  V30 2788 O 252.131 -1.89833 0.423511 0
M  V30 2789 C 252.414 -0.371301 3.58181 0
M  V30 2790 C 252.267 0.936358 4.39946 0
M  V30 2791 C 253.586 -1.14542 4.24933 0
M  V30 2792 H 250.705 -0.0502937 0.735282 0
M  V30 2793 H 253.347 0.564584 1.81418 0
M  V30 2794 H 251.497 -0.973559 3.76104 0
M  V30 2795 H 253.169 1.57184 4.33694 0
M  V30 2796 H 251.412 1.5432 4.05423 0
M  V30 2797 H 252.083 0.730388 5.47147 0
M  V30 2798 H 254.559 -0.635362 4.11221 0
M  V30 2799 H 253.435 -1.27431 5.33903 0
M  V30 2800 H 253.696 -2.17093 3.85127 0
M  V30 2801 N 252.755 -1.56801 0.158532 0
M  V30 2802 C 253.685 -2.20347 -0.772609 0
M  V30 2803 C 254.666 -1.15518 -1.24859 0
M  V30 2804 O 255.851 -1.43902 -1.30406 0
M  V30 2805 C 252.981 -2.83417 -2.00729 0
M  V30 2806 C 251.935 -3.94174 -1.66765 0
M  V30 2807 C 251.261 -4.44233 -2.97592 0
M  V30 2808 C 252.561 -5.14392 -0.905447 0
M  V30 2809 H 254.255 -2.98413 -0.242959 0
M  V30 2810 H 251.801 -1.43537 -0.115419 0
M  V30 2811 H 253.754 -3.26543 -2.6636 0
M  V30 2812 H 252.478 -2.02701 -2.56086 0
M  V30 2813 H 251.137 -3.51684 -1.03508 0
M  V30 2814 H 250.785 -3.60325 -3.50963 0
M  V30 2815 H 250.485 -5.18945 -2.75626 0
M  V30 2816 H 252.009 -4.90037 -3.64274 0
M  V30 2817 H 253.423 -5.5429 -1.46408 0
M  V30 2818 H 251.82 -5.9494 -0.7853 0
M  V30 2819 H 252.89 -4.84795 0.100668 0
M  V30 2820 N 254.233 0.115231 -1.57178 0
M  V30 2821 C 255.479 0.82357 -1.85325 0
M  V30 2822 C 255.812 1.79349 -0.744814 0
M  V30 2823 O 255.087 1.92899 0.249024 0
M  V30 2824 C 255.37 1.57014 -3.24066 0
M  V30 2825 C 255.223 0.619565 -4.45513 0
M  V30 2826 C 256.542 2.52545 -3.60429 0
M  V30 2827 H 253.661 0.297948 -0.674089 0
M  V30 2828 H 256.303 0.0877138 -1.89797 0
M  V30 2829 H 254.453 2.19742 -3.20383 0
M  V30 2830 H 256.125 0.000837639 -4.613 0
M  V30 2831 H 254.368 -0.0686174 -4.33746 0
M  V30 2832 H 255.039 1.17866 -5.3927 0
M  V30 2833 H 257.515 1.9992 -3.64926 0
M  V30 2834 H 256.391 3.01811 -4.58477 0
M  V30 2835 H 256.652 3.35383 -2.88047 0
M  V30 2836 N 255.711 1.52812 0.385517 0
M  V30 2837 C 256.936 1.72207 1.15583 0
M  V30 2838 C 257.361 0.441034 1.82857 0
M  V30 2839 O 256.719 -0.603465 1.70962 0
M  V30 2840 C 256.767 2.87476 2.17692 0
M  V30 2841 O 255.871 2.54693 3.24354 0
M  V30 2842 H 255.212 0.572526 0.336319 0
M  V30 2843 H 257.742 1.99618 0.448744 0
M  V30 2844 H 257.752 3.13072 2.6163 0
M  V30 2845 H 256.427 3.80408 1.68115 0
M  V30 2846 H 255.004 2.3985 2.85529 0
M  V30 2847 N 257.189 -0.644168 1.43834 0
M  V30 2848 C 258.122 -1.76906 1.44151 0
M  V30 2849 C 259.1 -1.59774 0.301857 0
M  V30 2850 O 260.284 -1.81834 0.496841 0
M  V30 2851 C 257.411 -3.14321 1.26174 0
M  V30 2852 C 256.457 -3.50134 2.43533 0
M  V30 2853 S 257.29 -3.49085 4.06079 0
M  V30 2854 C 258.446 -4.89142 3.90501 0
M  V30 2855 H 258.679 -1.76368 2.39336 0
M  V30 2856 H 256.212 -0.817624 1.30974 0
M  V30 2857 H 258.17 -3.93625 1.16489 0
M  V30 2858 H 256.831 -3.12412 0.325224 0
M  V30 2859 H 256.024 -4.50095 2.26783 0
M  V30 2860 H 255.626 -2.78264 2.4989 0
M  V30 2861 H 257.918 -5.78036 3.53385 0
M  V30 2862 H 258.861 -5.10945 4.90246 0
M  V30 2863 H 259.269 -4.63102 3.22795 0
M  V30 2864 N 258.668 -1.30515 -0.883378 0
M  V30 2865 C 260.084 -1.08881 -1.16692 0
M  V30 2866 C 260.284 0.149409 -2.00945 0
M  V30 2867 O 259.34 0.84257 -2.38027 0
M  V30 2868 C 260.653 -2.35319 -1.87204 0
M  V30 2869 C 262.201 -2.40799 -1.99962 0
M  V30 2870 C 262.676 -3.67083 -2.73887 0
M  V30 2871 N 264.167 -3.679 -2.81432 0
M  V30 2872 C 264.902 -4.62303 -3.3921 0
M  V30 2873 N 264.398 -5.67052 -3.98025 0
M  V30 2874 N 266.191 -4.49845 -3.3704 0
M  V30 2875 H 258.342 -2.09951 -0.321633 0
M  V30 2876 H 260.605 -0.92556 -0.205043 0
M  V30 2877 H 260.311 -3.25689 -1.3274 0
M  V30 2878 H 260.185 -2.44089 -2.87577 0
M  V30 2879 H 262.572 -1.50907 -2.53597 0
M  V30 2880 H 262.653 -2.36003 -0.98673 0
M  V30 2881 H 262.297 -4.57334 -2.20925 0
M  V30 2882 H 262.227 -3.69141 -3.75556 0
M  V30 2883 H 264.718 -2.92171 -2.39676 0
M  V30 2884 H 265.031 -6.35184 -4.40183 0
M  V30 2885 H 263.376 -5.70842 -3.96439 0
M  V30 2886 H 266.567 -3.67194 -2.90321 0
M  V30 2887 H 266.74 -5.23597 -3.81772 0
M  V30 2888 N 260.146 1.09593 -1.13257 0
M  V30 2889 C 261.076 2.18214 -0.830946 0
M  V30 2890 C 262.057 1.68812 0.208966 0
M  V30 2891 O 263.242 1.9408 0.0682666 0
M  V30 2892 C 260.372 3.46051 -0.294296 0
M  V30 2893 C 259.326 4.08778 -1.26826 0
M  V30 2894 C 258.652 5.31419 -0.591449 0
M  V30 2895 C 259.952 4.51476 -2.62615 0
M  V30 2896 H 261.646 2.43703 -1.73923 0
M  V30 2897 H 259.192 1.17128 -0.837675 0
M  V30 2898 H 261.145 4.2134 -0.0709606 0
M  V30 2899 H 259.869 3.20079 0.649366 0
M  V30 2900 H 258.528 3.35505 -1.47756 0
M  V30 2901 H 258.176 5.01727 0.357633 0
M  V30 2902 H 257.876 5.74341 -1.24123 0
M  V30 2903 H 259.4 6.09433 -0.377355 0
M  V30 2904 H 260.814 5.17999 -2.45663 0
M  V30 2905 H 259.211 5.05277 -3.23752 0
M  V30 2906 H 260.281 3.63962 -3.20406 0
M  V30 2907 N 261.624 0.925811 1.2754 0
M  V30 2908 C 262.849 0.580924 1.99098 0
M  V30 2909 C 263.274 -0.833555 1.68622 0
M  V30 2910 O 262.632 -1.55903 0.925422 0
M  V30 2911 C 262.68 0.811186 3.51358 0
M  V30 2912 O 261.784 -0.124129 4.12213 0
M  V30 2913 H 261.125 0.223873 0.625122 0
M  V30 2914 H 263.655 1.24455 1.62395 0
M  V30 2915 H 263.665 0.72601 4.01489 0
M  V30 2916 H 262.34 1.84227 3.72872 0
M  V30 2917 H 260.917 0.0108006 3.72898 0
M  V30 2918 N 263.102 -1.41638 0.69111 0
M  V30 2919 C 264.351 -2.00526 0.217318 0
M  V30 2920 C 264.664 -1.55353 -1.18848 0
M  V30 2921 O 265.87 -2.06769 -1.75951 0
M  V30 2922 C 264.326 -3.58313 0.337639 0
M  V30 2923 C 263.934 -4.12469 1.74852 0
M  V30 2924 C 265.678 -4.24431 -0.0766066 0
M  V30 2925 C 263.585 -5.62675 1.82074 0
M  V30 2926 H 262.515 -0.750008 0.0774893 0
M  V30 2927 H 265.166 -1.6217 0.858661 0
M  V30 2928 H 263.548 -3.9425 -0.371879 0
M  V30 2929 H 264.722 -3.8796 2.48644 0
M  V30 2930 H 263.037 -3.58861 2.11205 0
M  V30 2931 H 265.634 -5.34683 -0.0430284 0
M  V30 2932 H 265.977 -4.01101 -1.1146 0
M  V30 2933 H 266.51 -3.93512 0.582476 0
M  V30 2934 H 263.249 -5.90826 2.83911 0
M  V30 2935 H 262.769 -5.89124 1.12661 0
M  V30 2936 H 264.448 -6.27371 1.58159 0
M  V30 2937 N 264.58 -0.43555 -1.51462 0
M  V30 2938 C 265.808 0.130242 -2.0649 0
M  V30 2939 C 266.223 1.36614 -1.30315 0
M  V30 2940 O 265.58 1.78869 -0.362223 0
M  V30 2941 C 265.631 0.454253 -3.58635 0
M  V30 2942 O 265.352 -0.73259 -4.31931 0
M  V30 2943 C 266.853 1.07091 -4.3017 0
M  V30 2944 H 264.073 0.00871669 -0.670943 0
M  V30 2945 H 266.617 -0.614117 -1.95061 0
M  V30 2946 H 264.772 1.14851 -3.69984 0
M  V30 2947 H 265.186 -0.455787 -5.22516 0
M  V30 2948 H 266.66 1.24764 -5.37716 0
M  V30 2949 H 267.137 2.05144 -3.88346 0
M  V30 2950 H 267.743 0.416089 -4.2326 0
M  V30 2951 N 266.058 1.56714 -0.166846 0
M  V30 2952 C 266.988 2.20754 0.760913 0
M  V30 2953 C 267.969 1.16178 1.24244 0
M  V30 2954 O 269.154 1.44592 1.29641 0
M  V30 2955 C 266.284 2.84478 1.99223 0
M  V30 2956 C 265.238 3.95053 1.64672 0
M  V30 2957 C 264.564 4.45805 2.95232 0
M  V30 2958 C 265.864 5.14865 0.878155 0
M  V30 2959 H 267.558 2.98537 0.22713 0
M  V30 2960 H 265.104 1.43596 0.107805 0
M  V30 2961 H 267.057 3.27951 2.64624 0
M  V30 2962 H 265.781 2.04056 2.55007 0
M  V30 2963 H 264.44 3.52228 1.01641 0
M  V30 2964 H 264.088 3.62181 3.49047 0
M  V30 2965 H 263.788 5.204 2.7287 0
M  V30 2966 H 265.312 4.91962 3.6167 0
M  V30 2967 H 266.726 5.55059 1.43466 0
M  V30 2968 H 265.123 5.95348 0.753738 0
M  V30 2969 H 266.193 4.84735 -0.126377 0
M  V30 2970 N 267.536 -0.106894 1.57237 0
M  V30 2971 C 268.761 -0.830287 1.90055 0
M  V30 2972 C 269.186 -1.72064 0.75998 0
M  V30 2973 O 268.544 -1.78982 -0.288991 0
M  V30 2974 C 268.592 -1.6295 3.21683 0
M  V30 2975 O 267.696 -2.73748 3.08441 0
M  V30 2976 H 267.037 -0.228855 0.623315 0
M  V30 2977 H 269.567 -0.085658 2.04421 0
M  V30 2978 H 269.577 -2.01621 3.54701 0
M  V30 2979 H 268.252 -0.975989 4.04286 0
M  V30 2980 H 266.829 -2.38192 2.86913 0
M  V30 2981 N 269.014 -1.53014 -0.377408 0
M  V30 2982 C 270.254 -1.70318 -1.1301 0
M  V30 2983 C 270.618 -0.439538 -1.86901 0
M  V30 2984 O 271.819 -0.489095 -2.64313 0
M  V30 2985 C 270.09 -2.91125 -2.07319 0
M  V30 2986 S 271.649 -3.29075 -2.90268 0
M  V30 2987 H 268.467 -0.599426 -0.382374 0
M  V30 2988 H 271.069 -1.91089 -0.412933 0
M  V30 2989 H 269.773 -3.81303 -1.51777 0
M  V30 2990 H 269.304 -2.7272 -2.83526 0
M  V30 2991 H 271.319 -2.80165 -4.09539 0
M  V30 2992 N 270.492 0.636531 -1.44174 0
M  V30 2993 C 271.903 1.21806 -1.41493 0
M  V30 2994 C 272.254 1.95785 -0.1275 0
M  V30 2995 O 271.379 2.02147 0.772376 0
M  V30 2996 C 271.974 2.21551 -2.56321 0
M  V30 2997 C 270.533 2.75143 -2.56853 0
M  V30 2998 C 269.68 1.50052 -2.33195 0
M  V30 2999 H 272.631 0.427531 -1.52833 0
M  V30 3000 H 272.652 3.0405 -2.28765 0
M  V30 3001 H 272.164 1.67679 -3.50008 0
M  V30 3002 H 270.265 3.33033 -1.67093 0
M  V30 3003 H 270.378 3.2155 -3.55165 0
M  V30 3004 H 268.742 1.77993 -1.82183 0
M  V30 3005 H 269.525 0.980903 -3.28988 0
M  V30 3006 N 271.97 1.30982 0.876444 0
M  V30 3007 C 272.9 1.20668 1.99903 0
M  V30 3008 C 273.881 0.095354 1.69833 0
M  V30 3009 O 275.066 0.27885 1.92188 0
M  V30 3010 C 272.196 0.90655 3.3526 0
M  V30 3011 C 271.15 1.97675 3.79617 0
M  V30 3012 C 270.476 1.52943 5.1236 0
M  V30 3013 C 271.776 3.389 3.97422 0
M  V30 3014 H 273.47 2.14586 2.0879 0
M  V30 3015 H 271.016 1.03308 1.00317 0
M  V30 3016 H 272.969 0.821025 4.13324 0
M  V30 3017 H 271.693 -0.0682969 3.26529 0
M  V30 3018 H 270.352 2.05205 3.03787 0
M  V30 3019 H 270 0.54262 5.00065 0
M  V30 3020 H 269.7 2.24532 5.43009 0
M  V30 3021 H 271.224 1.45786 5.92941 0
M  V30 3022 H 272.638 3.34081 4.659 0
M  V30 3023 H 271.035 4.0865 4.3946 0
M  V30 3024 H 272.105 3.80163 3.01006 0
M  V30 3025 N 273.449 -1.08991 1.13837 0
M  V30 3026 C 274.726 -1.77863 0.813876 0
M  V30 3027 C 275.106 -1.99375 -0.693746 0
M  V30 3028 O 274.454 -1.59875 -1.63255 0
M  V30 3029 C 274.664 -3.0986 1.60586 0
M  V30 3030 C 276.012 -3.84493 1.8014 0
M  V30 3031 O 277.036 -3.19624 1.57222 0
M  V30 3032 O 275.895 -5.00957 2.18413 0
M  V30 3033 H 272.989 -0.771589 0.297624 0
M  V30 3034 H 275.535 -1.15507 1.24323 0
M  V30 3035 H 274.307 -2.89715 2.63022 0
M  V30 3036 H 273.93 -3.79942 1.17173 0
M  V30 3037 N 274.927 -0.932562 -1.27047 0
M  V30 3038 C 275.857 -0.452902 -2.29066 0
M  V30 3039 C 276.838 0.489338 -1.62909 0
M  V30 3040 O 278.023 0.393046 -1.90181 0
M  V30 3041 C 275.153 0.290698 -3.46081 0
M  V30 3042 C 274.107 -0.564168 -4.24265 0
M  V30 3043 C 273.433 0.308886 -5.33807 0
M  V30 3044 C 274.733 -1.83112 -4.89149 0
M  V30 3045 H 276.427 -1.30552 -2.69437 0
M  V30 3046 H 273.973 -0.629201 -1.29526 0
M  V30 3047 H 275.926 0.637233 -4.16554 0
M  V30 3048 H 274.65 1.17738 -3.0464 0
M  V30 3049 H 273.309 -0.893477 -3.55545 0
M  V30 3050 H 272.957 1.19467 -4.88607 0
M  V30 3051 H 272.657 -0.259633 -5.87026 0
M  V30 3052 H 274.181 0.650884 -6.07121 0
M  V30 3053 H 275.595 -1.55236 -5.51883 0
M  V30 3054 H 273.992 -2.34353 -5.52448 0
M  V30 3055 H 275.062 -2.54772 -4.12576 0
M  V30 3056 N 276.405 1.4127 -0.698611 0
M  V30 3057 C 277.633 2.05503 -0.239992 0
M  V30 3058 C 278.048 1.52584 1.11191 0
M  V30 3059 O 277.405 0.675323 1.69545 0
M  V30 3060 C 277.456 3.60987 -0.192429 0
M  V30 3061 O 277.177 4.1195 -1.49094 0
M  V30 3062 C 278.678 4.42371 0.28681 0
M  V30 3063 H 275.898 0.661748 -0.111045 0
M  V30 3064 H 278.442 1.80987 -0.95205 0
M  V30 3065 H 276.597 3.84533 0.470472 0
M  V30 3066 H 277.011 5.06018 -1.38007 0
M  V30 3067 H 278.485 5.51344 0.26896 0
M  V30 3068 H 278.962 4.18699 1.32619 0
M  V30 3069 H 279.568 4.23897 -0.345201 0
M  V30 3070 N 277.883 0.443576 1.51229 0
M  V30 3071 C 278.813 -0.355142 2.30783 0
M  V30 3072 C 279.794 -1.0154 1.36468 0
M  V30 3073 O 280.979 -1.01785 1.65389 0
M  V30 3074 C 278.109 -1.45312 3.15439 0
M  V30 3075 C 277.063 -0.916002 4.18083 0
M  V30 3076 C 276.389 -2.1102 4.91299 0
M  V30 3077 C 277.689 0.0538602 5.22272 0
M  V30 3078 H 279.383 0.308767 2.97804 0
M  V30 3079 H 276.929 0.149937 1.43217 0
M  V30 3080 H 278.882 -2.01914 3.69876 0
M  V30 3081 H 277.606 -2.14541 2.46252 0
M  V30 3082 H 276.265 -0.372145 3.64706 0
M  V30 3083 H 275.913 -2.78882 4.18609 0
M  V30 3084 H 275.613 -1.75717 5.60712 0
M  V30 3085 H 277.137 -2.68164 5.48562 0
M  V30 3086 H 278.551 -0.422069 5.71744 0
M  V30 3087 H 276.948 0.319776 5.99247 0
M  V30 3088 H 278.018 0.98858 4.74716 0
M  V30 3089 N 279.361 -1.56624 0.175154 0
M  V30 3090 C 280.608 -1.96999 -0.468811 0
M  V30 3091 C 280.936 -1.06129 -1.62994 0
M  V30 3092 O 280.191 -0.0961771 -1.95464 0
M  V30 3093 C 280.49 -3.43419 -0.989864 0
M  V30 3094 C 280.156 -4.50866 0.0557687 0
M  V30 3095 C 278.818 -4.79975 0.343134 0
M  V30 3096 C 281.17 -5.15551 0.765308 0
M  V30 3097 C 278.498 -5.71066 1.34536 0
M  V30 3098 C 280.85 -6.07724 1.75654 0
M  V30 3099 C 279.514 -6.35199 2.05132 0
M  V30 3100 H 278.784 -0.720869 -0.17155 0
M  V30 3101 H 281.431 -1.89616 0.267924 0
M  V30 3102 H 279.736 -3.47772 -1.80449 0
M  V30 3103 H 281.433 -3.72002 -1.49719 0
M  V30 3104 H 278.023 -4.28229 -0.178381 0
M  V30 3105 H 282.207 -4.9317 0.556513 0
M  V30 3106 H 277.463 -5.90635 1.57988 0
M  V30 3107 H 281.637 -6.56912 2.31169 0
M  V30 3108 H 279.264 -7.05584 2.8294 0
M  V30 3109 N 280.839 0.0985539 -1.57292 0
M  V30 3110 C 282.25 0.653457 -1.74891 0
M  V30 3111 C 282.601 1.7929 -0.796838 0
M  V30 3112 O 281.726 2.16385 0.0254886 0
M  V30 3113 C 282.321 1.19216 -3.17133 0
M  V30 3114 C 280.88 1.69316 -3.36168 0
M  V30 3115 C 280.027 0.601294 -2.70702 0
M  V30 3116 H 282.978 -0.127497 -1.58187 0
M  V30 3117 H 282.999 2.06154 -3.19814 0
M  V30 3118 H 282.511 0.362635 -3.86402 0
M  V30 3119 H 280.612 2.5468 -2.71972 0
M  V30 3120 H 280.725 1.78853 -4.44464 0
M  V30 3121 H 279.089 1.0399 -2.32504 0
M  V30 3122 H 279.872 -0.217592 -3.4261 0
M  V30 3123 N 282.317 1.53212 0.369288 0
M  V30 3124 C 283.25 1.74166 1.4745 0
M  V30 3125 C 284.228 0.589923 1.51521 0
M  V30 3126 O 285.412 0.822078 1.69629 0
M  V30 3127 C 282.539 1.81711 2.8583 0
M  V30 3128 C 281.585 3.03649 2.99499 0
M  V30 3129 S 282.418 4.63242 2.6864 0
M  V30 3130 C 283.574 4.7363 4.09177 0
M  V30 3131 H 283.807 2.67636 1.29454 0
M  V30 3132 H 281.34 1.43754 0.563396 0
M  V30 3133 H 283.298 1.86743 3.65564 0
M  V30 3134 H 281.959 0.89299 3.01139 0
M  V30 3135 H 281.152 3.05526 4.00836 0
M  V30 3136 H 280.754 2.9671 2.27683 0
M  V30 3137 H 283.046 4.53456 5.03372 0
M  V30 3138 H 283.989 5.75682 4.12306 0
M  V30 3139 H 284.397 4.02295 3.96004 0
M  V30 3140 N 283.795 -0.628877 1.44509 0
M  V30 3141 C 285.072 -1.38733 1.37886 0
M  V30 3142 C 285.452 -2.11065 0.0387008 0
M  V30 3143 O 284.8 -2.06476 -0.97878 0
M  V30 3144 C 285.01 -2.35188 2.57852 0
M  V30 3145 C 286.358 -2.9845 3.02014 0
M  V30 3146 O 287.382 -2.45513 2.58073 0
M  V30 3147 O 286.241 -3.94487 3.78209 0
M  V30 3148 H 283.335 -0.621015 0.54614 0
M  V30 3149 H 285.881 -0.653744 1.56602 0
M  V30 3150 H 284.653 -1.80855 3.46998 0
M  V30 3151 H 284.276 -3.1596 2.4136 0
M  V30 3152 N 285.273 -1.31445 -0.869486 0
M  V30 3153 C 286.501 -1.24122 -1.65534 0
M  V30 3154 C 286.916 0.193387 -1.87807 0
M  V30 3155 O 286.273 1.12557 -1.43656 0
M  V30 3156 C 286.324 -1.98229 -3.02304 0
M  V30 3157 O 286.045 -3.3609 -2.81026 0
M  V30 3158 C 287.546 -1.97751 -3.96749 0
M  V30 3159 H 284.766 -0.428868 -0.516055 0
M  V30 3160 H 287.31 -1.73328 -1.08525 0
M  V30 3161 H 285.465 -1.52782 -3.56001 0
M  V30 3162 H 285.879 -3.7383 -3.67902 0
M  V30 3163 H 287.353 -2.54114 -4.90031 0
M  V30 3164 H 287.83 -0.960137 -4.28577 0
M  V30 3165 H 288.436 -2.43079 -3.48988 0
M  V30 3166 N 286.751 1.08385 -1.14413 0
M  V30 3167 C 287.683 2.1519 -0.789036 0
M  V30 3168 C 288.696 1.61638 0.19417 0
M  V30 3169 O 289.885 1.78479 -0.0275711 0
M  V30 3170 C 286.985 3.38565 -0.15058 0
M  V30 3171 C 286.158 4.21501 -1.16857 0
M  V30 3172 C 285.217 5.23277 -0.553832 0
M  V30 3173 O 284.243 5.56041 -1.21686 0
M  V30 3174 N 285.445 5.76629 0.669296 0
M  V30 3175 H 288.21 2.46257 -1.70814 0
M  V30 3176 H 285.771 1.24198 -1.03858 0
M  V30 3177 H 287.763 4.03777 0.273181 0
M  V30 3178 H 286.333 3.05299 0.671667 0
M  V30 3179 H 285.553 3.52265 -1.76926 0
M  V30 3180 H 286.841 4.73731 -1.85624 0
M  V30 3181 H 286.239 5.52243 1.22654 0
M  V30 3182 H 284.796 6.43521 1.03556 0
M  V30 3183 N 288.23 0.939286 1.26551 0
M  V30 3184 C 289.646 0.641304 1.46149 0
M  V30 3185 C 289.846 -0.805964 1.84679 0
M  V30 3186 O 288.902 -1.58278 1.96734 0
M  V30 3187 C 290.215 1.6011 2.54529 0
M  V30 3188 C 291.763 1.6106 2.68382 0
M  V30 3189 C 292.238 2.55765 3.79932 0
M  V30 3190 N 293.729 2.5404 3.87322 0
M  V30 3191 C 294.464 3.24004 4.73085 0
M  V30 3192 N 293.96 4.03388 5.63249 0
M  V30 3193 N 295.753 3.12965 4.66914 0
M  V30 3194 H 287.904 1.87478 0.998285 0
M  V30 3195 H 290.167 0.805559 0.499779 0
M  V30 3196 H 289.873 2.63412 2.33039 0
M  V30 3197 H 289.747 1.35171 3.52149 0
M  V30 3198 H 292.134 0.584835 2.89247 0
M  V30 3199 H 292.215 1.90053 1.71212 0
M  V30 3200 H 291.859 3.58458 3.5982 0
M  V30 3201 H 291.789 2.24063 4.76554 0
M  V30 3202 H 294.28 1.96396 3.22858 0
M  V30 3203 H 294.593 4.5373 6.25579 0
M  V30 3204 H 292.938 4.07489 5.63008 0
M  V30 3205 H 296.129 2.50432 3.95476 0
M  V30 3206 H 296.302 3.67759 5.33533 0
M  V30 3207 N 289.708 -1.40897 0.706093 0
M  V30 3208 C 290.948 -2.02916 0.245827 0
M  V30 3209 C 291.312 -1.54751 -1.13649 0
M  V30 3210 O 292.513 -2.08768 -1.69321 0
M  V30 3211 C 290.784 -3.56031 0.312537 0
M  V30 3212 S 292.343 -4.38741 -0.0721388 0
M  V30 3213 H 289.161 -0.704186 0.0982007 0
M  V30 3214 H 291.763 -1.72168 0.926207 0
M  V30 3215 H 290.467 -3.88579 1.32039 0
M  V30 3216 H 289.998 -3.91495 -0.386641 0
M  V30 3217 H 292.013 -4.78952 -1.29692 0
M  V30 3218 N 291.186 -0.45159 -1.50991 0
M  V30 3219 C 292.133 0.352625 -2.2809 0
M  V30 3220 C 293.103 1.0044 -1.32291 0
M  V30 3221 O 294.288 1.02058 -1.6121 0
M  V30 3222 C 291.428 1.43983 -3.13629 0
M  V30 3223 C 290.541 0.804772 -4.24438 0
M  V30 3224 C 289.676 1.86822 -4.97263 0
M  V30 3225 C 288.715 1.21236 -5.99973 0
M  V30 3226 N 287.852 2.2178 -6.66152 0
M  V30 3227 H 292.692 -0.311186 -2.96371 0
M  V30 3228 H 290.229 -0.165308 -1.46168 0
M  V30 3229 H 292.187 2.08161 -3.61559 0
M  V30 3230 H 290.817 2.07307 -2.47434 0
M  V30 3231 H 289.869 0.0509129 -3.80366 0
M  V30 3232 H 291.181 0.286076 -4.97979 0
M  V30 3233 H 290.335 2.58628 -5.48813 0
M  V30 3234 H 289.074 2.42068 -4.23385 0
M  V30 3235 H 288.079 0.479828 -5.47702 0
M  V30 3236 H 289.304 0.667051 -6.75816 0
M  V30 3237 H 287.25 2.76079 -5.95077 0
M  V30 3238 H 287.167 1.74841 -7.35504 0
M  V30 3239 H 288.435 2.93026 -7.22327 0
M  V30 3240 N 292.664 1.56529 -0.183458 0
M  V30 3241 C 293.597 2.14417 0.781052 0
M  V30 3242 C 294.575 1.07761 1.21763 0
M  V30 3243 O 295.759 1.35807 1.30724 0
M  V30 3244 C 292.886 2.69361 2.05335 0
M  V30 3245 C 291.932 3.885 1.75982 0
M  V30 3246 S 292.765 5.27568 0.918256 0
M  V30 3247 C 293.921 5.85926 2.20095 0
M  V30 3248 H 294.154 2.95893 0.2889 0
M  V30 3249 H 291.687 1.54368 0.0313844 0
M  V30 3250 H 293.645 3.01662 2.78406 0
M  V30 3251 H 292.306 1.87949 2.51663 0
M  V30 3252 H 291.499 4.25314 2.70415 0
M  V30 3253 H 291.101 3.57149 1.10999 0
M  V30 3254 H 293.393 5.99579 3.15453 0
M  V30 3255 H 294.336 6.82761 1.87731 0
M  V30 3256 H 294.744 5.14438 2.32409 0
M  V30 3257 N 294.142 -0.090211 1.57342 0
M  V30 3258 C 295.074 -1.13541 1.99101 0
M  V30 3259 C 296.087 -1.3604 0.894258 0
M  V30 3260 O 297.276 -1.34606 1.17233 0
M  V30 3261 C 294.376 -2.49001 2.29895 0
M  V30 3262 C 293.549 -2.46712 3.61182 0
M  V30 3263 C 292.608 -3.64136 3.79857 0
M  V30 3264 O 291.634 -3.46405 4.51655 0
M  V30 3265 N 292.836 -4.83802 3.20806 0
M  V30 3266 H 295.601 -0.779942 2.89373 0
M  V30 3267 H 293.162 -0.279125 1.59476 0
M  V30 3268 H 295.154 -3.26166 2.39578 0
M  V30 3269 H 293.724 -2.76619 1.45605 0
M  V30 3270 H 292.944 -1.55058 3.62423 0
M  V30 3271 H 294.232 -2.42265 4.4742 0
M  V30 3272 H 293.63 -5.01112 2.62494 0
M  V30 3273 H 292.187 -5.58543 3.35966 0
M  V30 3274 N 295.62 -1.53406 -0.361157 0
M  V30 3275 C 296.55 -1.83136 -1.44857 0
M  V30 3276 C 297.531 -0.685174 -1.5569 0
M  V30 3277 O 298.716 -0.93544 -1.70186 0
M  V30 3278 C 295.846 -2.02522 -2.82138 0
M  V30 3279 C 294.8 -3.18302 -2.86126 0
M  V30 3280 C 294.126 -3.22989 -4.26125 0
M  V30 3281 C 295.426 -4.56796 -2.53248 0
M  V30 3282 H 297.12 -2.74201 -1.20226 0
M  V30 3283 H 294.666 -1.31938 -0.576922 0
M  V30 3284 H 296.619 -2.21904 -3.58241 0
M  V30 3285 H 295.343 -1.08172 -3.08166 0
M  V30 3286 H 294.002 -2.98747 -2.12475 0
M  V30 3287 H 293.65 -2.26267 -4.49235 0
M  V30 3288 H 293.35 -4.00781 -4.29708 0
M  V30 3289 H 294.874 -3.44559 -5.04094 0
M  V30 3290 H 296.288 -4.7631 -3.19064 0
M  V30 3291 H 294.685 -5.36862 -2.68141 0
M  V30 3292 H 295.755 -4.61606 -1.48484 0
M  V30 3293 N 297.098 0.621204 -1.44841 0
M  V30 3294 C 298.008 1.7612 -1.5498 0
M  V30 3295 C 299.024 1.68477 -0.434927 0
M  V30 3296 O 300.2 1.89076 -0.693693 0
M  V30 3297 C 297.265 3.1254 -1.50065 0
M  V30 3298 C 296.326 3.31741 -2.72482 0
M  V30 3299 C 295.559 4.61653 -2.67792 0
M  V30 3300 O 295.782 5.431 -1.74352 0
M  V30 3301 O 294.716 4.83271 -3.58794 0
M  V30 3302 H 298.542 1.70518 -2.51311 0
M  V30 3303 H 296.127 0.783643 -1.27198 0
M  V30 3304 H 298.009 3.93844 -1.49882 0
M  V30 3305 H 296.684 3.18663 -0.568806 0
M  V30 3306 H 295.591 2.50077 -2.7823 0
M  V30 3307 H 296.924 3.30486 -3.64746 0
M  V30 3308 N 298.576 1.31904 0.862503 0
M  V30 3309 C 299.801 1.25135 1.65397 0
M  V30 3310 C 300.226 -0.179 1.87246 0
M  V30 3311 O 299.584 -1.1277 1.4196 0
M  V30 3312 C 299.632 2.00832 2.99498 0
M  V30 3313 O 298.736 1.35075 3.89652 0
M  V30 3314 H 298.077 0.431655 0.504549 0
M  V30 3315 H 300.607 1.74094 1.07483 0
M  V30 3316 H 300.617 2.10709 3.49379 0
M  V30 3317 H 299.292 3.04847 2.82916 0
M  V30 3318 H 297.869 1.33696 3.48109 0
M  V30 3319 N 300.054 -1.07777 1.14986 0
M  V30 3320 C 301.301 -1.8029 0.922056 0
M  V30 3321 C 301.629 -1.86531 -0.55105 0
M  V30 3322 O 300.884 -1.34189 -1.42449 0
M  V30 3323 C 301.183 -3.25495 1.47608 0
M  V30 3324 C 300.849 -3.39361 2.96893 0
M  V30 3325 C 299.511 -3.42852 3.37647 0
M  V30 3326 C 301.863 -3.42512 3.92854 0
M  V30 3327 C 299.191 -3.47094 4.73015 0
M  V30 3328 C 301.543 -3.4829 5.28088 0
M  V30 3329 C 300.207 -3.50058 5.68345 0
M  V30 3330 H 299.477 -0.659727 0.337404 0
M  V30 3331 H 302.124 -1.26854 1.43459 0
M  V30 3332 H 300.429 -3.81683 0.88463 0
M  V30 3333 H 302.126 -3.80168 1.27568 0
M  V30 3334 H 298.716 -3.37339 2.64387 0
M  V30 3335 H 302.9 -3.3904 3.62444 0
M  V30 3336 H 298.156 -3.46758 5.03556 0
M  V30 3337 H 302.33 -3.49675 6.02246 0
M  V30 3338 H 299.957 -3.53097 6.73221 0
M  V30 3339 N 301.532 -0.945985 -1.26051 0
M  V30 3340 C 302.78 -0.594941 -1.93145 0
M  V30 3341 C 303.101 0.86953 -1.7454 0
M  V30 3342 O 302.371 1.61838 -1.10387 0
M  V30 3343 H 300.951 -0.217044 -0.714773 0
M  V30 3344 H 303.613 -1.20235 -1.53393 0
M  V30 3345 H 302.709 -0.816835 -3.01221 0
M  V30 3346 N 303.011 1.40521 -0.713556 0
M  V30 3347 C 304.241 2.0494 -0.261395 0
M  V30 3348 C 304.649 1.53861 1.10107 0
M  V30 3349 O 303.992 0.689321 1.70276 0
M  V30 3350 C 304.054 3.59138 -0.161227 0
M  V30 3351 C 303.718 4.33096 -1.45865 0
M  V30 3352 C 304.715 4.61182 -2.40016 0
M  V30 3353 C 302.4 4.72043 -1.71701 0
M  V30 3354 C 304.394 5.27196 -3.58251 0
M  V30 3355 C 302.081 5.37789 -2.90218 0
M  V30 3356 C 303.079 5.65295 -3.83315 0
M  V30 3357 O 302.767 6.29683 -4.99754 0
M  V30 3358 H 302.499 0.666041 -0.115608 0
M  V30 3359 H 305.053 1.80954 -0.971849 0
M  V30 3360 H 303.283 3.81936 0.605153 0
M  V30 3361 H 304.972 4.05091 0.256105 0
M  V30 3362 H 305.738 4.31559 -2.21318 0
M  V30 3363 H 301.617 4.50003 -1.00092 0
M  V30 3364 H 305.161 5.48582 -4.30934 0
M  V30 3365 H 301.058 5.66831 -3.08825 0
M  V30 3366 H 301.826 6.4818 -4.99805 0
M  V30 3367 N 304.489 0.459591 1.5075 0
M  V30 3368 C 305.717 -0.0973749 2.06671 0
M  V30 3369 C 306.132 -1.34524 1.32472 0
M  V30 3370 O 305.489 -1.7827 0.390634 0
M  V30 3371 C 305.54 -0.39714 3.59312 0
M  V30 3372 O 305.261 0.801214 4.30711 0
M  V30 3373 C 306.762 -1.00234 4.31819 0
M  V30 3374 H 303.982 0.00195854 0.670997 0
M  V30 3375 H 306.526 0.645072 1.94059 0
M  V30 3376 H 304.681 -1.08951 3.71764 0
M  V30 3377 H 305.095 0.538857 5.21725 0
M  V30 3378 H 306.569 -1.16193 5.39632 0
M  V30 3379 H 307.046 -1.98939 3.91561 0
M  V30 3380 H 307.652 -0.348699 4.23868 0
M  V30 3381 N 305.967 -1.56429 0.191757 0
M  V30 3382 C 307.195 -2.01867 -0.453586 0
M  V30 3383 C 307.61 -1.07191 -1.5542 0
M  V30 3384 O 306.967 -0.0762108 -1.82341 0
M  V30 3385 C 307.018 -3.47017 -1.013 0
M  V30 3386 O 306.739 -4.38078 0.0437005 0
M  V30 3387 C 308.24 -4.07956 -1.73456 0
M  V30 3388 H 305.46 -0.661211 -0.114199 0
M  V30 3389 H 308.004 -2.02295 0.299483 0
M  V30 3390 H 306.159 -3.47298 -1.71647 0
M  V30 3391 H 306.573 -5.23178 -0.372212 0
M  V30 3392 H 308.047 -5.1138 -2.07833 0
M  V30 3393 H 308.524 -3.51222 -2.63704 0
M  V30 3394 H 309.13 -4.11437 -1.07702 0
M  V30 3395 N 307.445 0.0818655 -1.57387 0
M  V30 3396 C 308.722 0.815343 -1.77796 0
M  V30 3397 C 309.102 1.96289 -0.77679 0
M  V30 3398 O 308.45 2.27691 0.192106 0
M  V30 3399 C 308.66 1.29765 -3.23978 0
M  V30 3400 C 310.008 1.7351 -3.8753 0
M  V30 3401 O 311.032 1.39356 -3.27808 0
M  V30 3402 O 309.891 2.36708 -4.92576 0
M  V30 3403 H 306.985 0.389914 -0.729312 0
M  V30 3404 H 309.531 0.0627213 -1.69584 0
M  V30 3405 H 308.303 0.47608 -3.88393 0
M  V30 3406 H 307.926 2.11189 -3.36875 0
M  V30 3407 N 308.923 1.53595 0.353017 0
M  V30 3408 C 310.2 1.61002 1.11075 0
M  V30 3409 C 310.58 0.425356 2.0677 0
M  V30 3410 O 309.928 -0.583267 2.2093 0
M  V30 3411 C 310.138 2.96631 1.83877 0
M  V30 3412 C 311.486 3.51653 2.37961 0
M  V30 3413 O 312.51 2.98743 1.93987 0
M  V30 3414 O 311.369 4.44177 3.18386 0
M  V30 3415 H 308.463 0.650825 0.510251 0
M  V30 3416 H 311.009 1.6594 0.35527 0
M  V30 3417 H 309.781 3.74293 1.14108 0
M  V30 3418 H 309.404 2.95242 2.66304 0
M  V30 3419 N 310.401 -0.613514 1.45168 0
M  V30 3420 C 311.331 -1.7354 1.56225 0
M  V30 3421 C 312.312 -1.64981 0.41414 0
M  V30 3422 O 313.497 -1.83472 0.636526 0
M  V30 3423 C 310.627 -3.12128 1.52295 0
M  V30 3424 C 309.581 -3.35491 2.65762 0
M  V30 3425 C 308.907 -4.74291 2.46885 0
M  V30 3426 C 310.207 -3.26325 4.0781 0
M  V30 3427 H 311.901 -1.64543 2.50132 0
M  V30 3428 H 309.447 -0.790185 1.20383 0
M  V30 3429 H 311.4 -3.90404 1.58628 0
M  V30 3430 H 310.124 -3.2195 0.549139 0
M  V30 3431 H 308.783 -2.59603 2.58847 0
M  V30 3432 H 308.431 -4.80839 1.47657 0
M  V30 3433 H 308.131 -4.9088 3.22972 0
M  V30 3434 H 309.655 -5.54775 2.55063 0
M  V30 3435 H 311.069 -3.94483 4.16 0
M  V30 3436 H 309.466 -3.54445 4.8424 0
M  V30 3437 H 310.536 -2.23855 4.30136 0
M  V30 3438 N 311.879 -1.3236 -0.855495 0
M  V30 3439 C 313.295 -1.11332 -1.14356 0
M  V30 3440 C 313.495 0.106751 -2.01217 0
M  V30 3441 O 312.551 0.791891 -2.39761 0
M  V30 3442 C 313.864 -2.39237 -1.82171 0
M  V30 3443 C 315.412 -2.44986 -1.9481 0
M  V30 3444 C 315.887 -3.7281 -2.66039 0
M  V30 3445 N 317.378 -3.73787 -2.73565 0
M  V30 3446 C 318.113 -4.69394 -3.29327 0
M  V30 3447 N 317.609 -5.75367 -3.85907 0
M  V30 3448 N 319.402 -4.56893 -3.27423 0
M  V30 3449 H 311.553 -2.10586 -0.277027 0
M  V30 3450 H 313.816 -0.929701 -0.185364 0
M  V30 3451 H 313.522 -3.28431 -1.25802 0
M  V30 3452 H 313.396 -2.50134 -2.82335 0
M  V30 3453 H 315.783 -1.56252 -2.50338 0
M  V30 3454 H 315.864 -2.38043 -0.936448 0
M  V30 3455 H 315.508 -4.61918 -2.11174 0
M  V30 3456 H 315.438 -3.77024 -3.67642 0
M  V30 3457 H 317.929 -2.97189 -2.33424 0
M  V30 3458 H 318.242 -6.44378 -4.26611 0
M  V30 3459 H 316.587 -5.79123 -3.84242 0
M  V30 3460 H 319.778 -3.73269 -2.82467 0
M  V30 3461 H 319.951 -5.31577 -3.7058 0
M  V30 3462 N 313.357 1.07166 -1.15556 0
M  V30 3463 C 314.604 1.79798 -0.931604 0
M  V30 3464 C 314.932 1.8682 0.54115 0
M  V30 3465 O 314.187 1.34942 1.41736 0
M  V30 3466 C 314.486 3.24707 -1.49332 0
M  V30 3467 C 314.152 3.37781 -2.98688 0
M  V30 3468 C 312.814 3.41057 -3.39461 0
M  V30 3469 C 315.166 3.40424 -3.94665 0
M  V30 3470 C 312.494 3.4458 -4.74849 0
M  V30 3471 C 314.846 3.45485 -5.29927 0
M  V30 3472 C 313.51 3.47039 -5.70193 0
M  V30 3473 H 312.78 0.657928 -0.340898 0
M  V30 3474 H 315.427 1.26091 -1.44129 0
M  V30 3475 H 313.732 3.81208 -0.904859 0
M  V30 3476 H 315.429 3.79486 -1.29582 0
M  V30 3477 H 312.019 3.35932 -2.66172 0
M  V30 3478 H 316.203 3.37113 -3.64237 0
M  V30 3479 H 311.459 3.44083 -5.05388 0
M  V30 3480 H 315.633 3.46476 -6.04092 0
M  V30 3481 H 313.26 3.49522 -6.75084 0
M  V30 3482 N 314.835 0.952656 1.25548 0
M  V30 3483 C 316.084 0.602053 1.92505 0
M  V30 3484 C 316.397 -0.864663 1.75451 0
M  V30 3485 O 317.603 -1.32514 2.36965 0
M  V30 3486 C 316.059 1.02607 3.44963 0
M  V30 3487 C 315.667 2.51519 3.70732 0
M  V30 3488 C 317.411 0.747905 4.1786 0
M  V30 3489 C 315.318 2.87732 5.16686 0
M  V30 3490 H 314.248 0.22146 0.720744 0
M  V30 3491 H 316.899 1.15684 1.42441 0
M  V30 3492 H 315.281 0.399712 3.93978 0
M  V30 3493 H 316.455 3.19157 3.32378 0
M  V30 3494 H 314.77 2.76786 3.11092 0
M  V30 3495 H 317.367 0.994647 5.25367 0
M  V30 3496 H 317.71 -0.315629 4.15102 0
M  V30 3497 H 318.243 1.33452 3.74747 0
M  V30 3498 H 314.982 3.93095 5.24554 0
M  V30 3499 H 314.502 2.24765 5.56094 0
M  V30 3500 H 316.181 2.76817 5.84792 0
M  V30 3501 N 316.313 -1.40141 0.720998 0
M  V30 3502 C 317.559 -2.01572 0.272075 0
M  V30 3503 C 317.914 -1.5616 -1.12391 0
M  V30 3504 O 317.207 -0.774198 -1.75262 0
M  V30 3505 C 317.401 -3.56165 0.296892 0
M  V30 3506 C 317.23 -4.16584 1.69375 0
M  V30 3507 C 316 -4.49783 2.30269 0
M  V30 3508 C 318.198 -4.41076 2.64493 0
M  V30 3509 N 316.18 -4.95626 3.62254 0
M  V30 3510 C 317.551 -4.88971 3.81192 0
M  V30 3511 C 319.606 -4.23122 2.62435 0
M  V30 3512 C 318.309 -5.20796 4.96149 0
M  V30 3513 C 320.335 -4.56052 3.76524 0
M  V30 3514 C 319.697 -5.04141 4.91956 0
M  V30 3515 H 315.796 -0.768343 0.145511 0
M  V30 3516 H 318.38 -1.70287 0.943959 0
M  V30 3517 H 316.551 -3.86868 -0.344578 0
M  V30 3518 H 318.283 -4.04346 -0.169254 0
M  V30 3519 H 315.038 -4.37101 1.82318 0
M  V30 3520 H 315.462 -5.22923 4.29977 0
M  V30 3521 H 320.104 -3.85158 1.74393 0
M  V30 3522 H 317.822 -5.57672 5.84831 0
M  V30 3523 H 321.408 -4.43796 3.76213 0
M  V30 3524 H 320.288 -5.29142 5.78774 0
M  V30 3525 N 317.792 -0.46758 -1.50504 0
M  V30 3526 C 318.724 0.364655 -2.26281 0
M  V30 3527 C 319.737 0.960151 -1.31472 0
M  V30 3528 O 320.926 0.849153 -1.57008 0
M  V30 3529 C 318.026 1.52509 -3.02645 0
M  V30 3530 C 317.199 1.04302 -4.24782 0
M  V30 3531 C 316.258 2.07709 -4.8347 0
M  V30 3532 O 315.284 1.65913 -5.44483 0
M  V30 3533 N 316.486 3.40485 -4.70159 0
M  V30 3534 H 319.251 -0.28495 -2.98342 0
M  V30 3535 H 316.812 -0.298163 -1.59131 0
M  V30 3536 H 318.804 2.21371 -3.38787 0
M  V30 3537 H 317.374 2.07945 -2.33404 0
M  V30 3538 H 316.594 0.180393 -3.93787 0
M  V30 3539 H 317.882 0.698798 -5.03978 0
M  V30 3540 H 317.28 3.77155 -4.21629 0
M  V30 3541 H 315.837 4.05156 -5.1058 0
M  V30 3542 N 319.27 1.56325 -0.20005 0
M  V30 3543 C 320.495 2.02548 0.44597 0
M  V30 3544 C 320.92 1.07922 1.5406 0
M  V30 3545 O 320.278 0.0635775 1.81188 0
M  V30 3546 C 320.326 3.47175 0.974761 0
M  V30 3547 O 319.43 3.55671 2.08739 0
M  V30 3548 H 318.771 0.655862 0.103638 0
M  V30 3549 H 321.301 2.02201 -0.312381 0
M  V30 3550 H 321.311 3.87067 1.2901 0
M  V30 3551 H 319.986 4.15538 0.17347 0
M  V30 3552 H 318.563 3.27657 1.78032 0
M  V30 3553 N 320.748 -0.0735177 1.57428 0
M  V30 3554 C 321.996 -0.771472 1.86796 0
M  V30 3555 C 322.317 -1.78201 0.791804 0
M  V30 3556 O 321.587 -1.95074 -0.179718 0
M  V30 3557 H 320.167 -0.28791 0.689287 0
M  V30 3558 H 322.829 -0.0500161 1.94836 0
M  V30 3559 H 321.925 -1.28874 2.8425 0
M  V30 3560 N 322.226 -1.5378 -0.344866 0
M  V30 3561 C 323.503 -1.61589 -1.10219 0
M  V30 3562 C 323.883 -0.436316 -2.06542 0
M  V30 3563 O 323.231 0.571543 -2.21237 0
M  V30 3564 C 323.441 -2.97602 -1.82301 0
M  V30 3565 C 324.789 -3.5291 -2.36093 0
M  V30 3566 O 325.813 -2.99768 -1.924 0
M  V30 3567 O 324.672 -4.45859 -3.16026 0
M  V30 3568 H 321.766 -0.653522 -0.506792 0
M  V30 3569 H 324.312 -1.66126 -0.346465 0
M  V30 3570 H 323.084 -3.74893 -1.12121 0
M  V30 3571 H 322.707 -2.9665 -2.64735 0
M  V30 3572 N 323.704 0.605807 -1.45491 0
M  V30 3573 C 325.115 1.18777 -1.44045 0
M  V30 3574 C 325.466 1.95471 -0.169001 0
M  V30 3575 O 324.591 2.0374 0.729324 0
M  V30 3576 C 325.186 2.16064 -2.60963 0
M  V30 3577 C 323.745 2.69633 -2.62631 0
M  V30 3578 C 322.892 1.45072 -2.36325 0
M  V30 3579 H 325.843 0.395017 -1.53705 0
M  V30 3580 H 325.864 2.9913 -2.35163 0
M  V30 3581 H 325.376 1.60217 -3.53486 0
M  V30 3582 H 323.477 3.29414 -1.74119 0
M  V30 3583 H 323.59 3.13944 -3.61906 0
M  V30 3584 H 321.954 1.74089 -1.85917 0
M  V30 3585 H 322.737 0.910899 -3.30995 0
M  V30 3586 N 325.182 1.32811 0.848464 0
M  V30 3587 C 326.428 1.23907 1.60546 0
M  V30 3588 C 326.761 -0.197161 1.93197 0
M  V30 3589 O 326.036 -1.13596 1.5788 0
M  V30 3590 C 326.319 2.10489 2.92175 0
M  V30 3591 C 326.172 3.62522 2.66266 0
M  V30 3592 C 327.491 1.97075 3.93509 0
M  V30 3593 H 324.61 0.451459 0.58254 0
M  V30 3594 H 327.252 1.62818 0.979296 0
M  V30 3595 H 325.402 1.77434 3.45614 0
M  V30 3596 H 327.074 4.05821 2.19334 0
M  V30 3597 H 325.317 3.84879 2.00126 0
M  V30 3598 H 325.988 4.18437 3.6002 0
M  V30 3599 H 328.464 2.26045 3.49346 0
M  V30 3600 H 327.34 2.59923 4.83457 0
M  V30 3601 H 327.601 0.940186 4.31987 0
M  V30 3602 N 326.66 -1.06551 1.16123 0
M  V30 3603 C 327.592 -2.13908 0.823171 0
M  V30 3604 C 328.605 -1.61926 -0.16843 0
M  V30 3605 O 329.794 -1.78412 0.055962 0
M  V30 3606 C 326.894 -3.38283 0.204424 0
M  V30 3607 C 326.067 -4.19589 1.23548 0
M  V30 3608 C 325.126 -5.2233 0.637011 0
M  V30 3609 O 324.152 -5.54034 1.30516 0
M  V30 3610 N 325.354 -5.77621 -0.577474 0
M  V30 3611 H 328.119 -2.43508 1.74711 0
M  V30 3612 H 325.68 -1.2253 1.05821 0
M  V30 3613 H 327.672 -4.0416 -0.208909 0
M  V30 3614 H 326.242 -3.06329 -0.623012 0
M  V30 3615 H 325.462 -3.49406 1.82507 0
M  V30 3616 H 326.75 -4.70718 1.93137 0
M  V30 3617 H 326.148 -5.54125 -1.13853 0
M  V30 3618 H 324.705 -6.45087 -0.933053 0
M  V30 3619 N 328.138 -0.959301 -1.25041 0
M  V30 3620 C 329.068 -0.501388 -2.28053 0
M  V30 3621 C 330.049 0.454673 -1.63911 0
M  V30 3622 O 331.234 0.352618 -1.90972 0
M  V30 3623 C 328.364 0.217224 -3.4662 0
M  V30 3624 C 327.318 -0.654034 -4.22973 0
M  V30 3625 C 326.644 0.195589 -5.34342 0
M  V30 3626 C 327.944 -1.93447 -4.85155 0
M  V30 3627 H 329.638 -1.36238 -2.66608 0
M  V30 3628 H 327.184 -0.656534 -1.28163 0
M  V30 3629 H 329.137 0.548732 -4.17812 0
M  V30 3630 H 327.861 1.1125 -3.07068 0
M  V30 3631 H 326.52 -0.968693 -3.5357 0
M  V30 3632 H 326.168 1.09076 -4.91031 0
M  V30 3633 H 325.868 -0.384091 -5.86343 0
M  V30 3634 H 327.392 0.521958 -6.08365 0
M  V30 3635 H 328.806 -1.66908 -5.48466 0
M  V30 3636 H 327.203 -2.46018 -5.47353 0
M  V30 3637 H 328.273 -2.63466 -4.07079 0
M  V30 3638 N 329.616 1.39756 -0.72842 0
M  V30 3639 C 330.526 2.34444 -0.0855374 0
M  V30 3640 C 331.542 1.57976 0.729356 0
M  V30 3641 O 332.718 1.90301 0.659346 0
M  V30 3642 C 329.783 3.36965 0.815798 0
M  V30 3643 C 328.844 4.29299 -0.0105996 0
M  V30 3644 C 328.077 5.26923 0.84781 0
M  V30 3645 O 328.3 5.30859 2.08673 0
M  V30 3646 O 327.234 6.01249 0.279969 0
M  V30 3647 H 331.06 2.91065 -0.866892 0
M  V30 3648 H 328.645 1.4117 -0.48902 0
M  V30 3649 H 330.527 3.99804 1.33171 0
M  V30 3650 H 329.202 2.82739 1.57608 0
M  V30 3651 H 328.109 3.69703 -0.571877 0
M  V30 3652 H 329.442 4.86712 -0.73295 0
M  V30 3653 N 331.094 0.475555 1.50254 0
M  V30 3654 C 332.041 -0.316293 2.28622 0
M  V30 3655 C 333.011 -0.983227 1.33873 0
M  V30 3656 O 334.196 -0.994805 1.62814 0
M  V30 3657 C 331.336 -1.38975 3.1588 0
M  V30 3658 C 330.449 -0.737146 4.25664 0
M  V30 3659 C 329.584 -1.78887 5.00173 0
M  V30 3660 C 328.623 -1.11676 6.01826 0
M  V30 3661 N 327.76 -2.11154 6.69596 0
M  V30 3662 H 332.6 0.358297 2.95838 0
M  V30 3663 H 330.137 0.188541 1.45887 0
M  V30 3664 H 332.095 -2.02383 3.64825 0
M  V30 3665 H 330.725 -2.03344 2.50701 0
M  V30 3666 H 329.777 0.0096065 3.80399 0
M  V30 3667 H 331.089 -0.206816 4.98371 0
M  V30 3668 H 330.243 -2.49865 5.52859 0
M  V30 3669 H 328.982 -2.35302 4.27182 0
M  V30 3670 H 327.987 -0.392633 5.48396 0
M  V30 3671 H 329.212 -0.55945 6.76792 0
M  V30 3672 H 327.158 -2.66577 5.99394 0
M  V30 3673 H 327.075 -1.63118 7.38193 0
M  V30 3674 H 328.343 -2.81497 7.26897 0
M  V30 3675 N 332.573 -1.56217 0.208337 0
M  V30 3676 C 333.822 -1.97124 -0.427204 0
M  V30 3677 C 334.135 -1.09859 -1.61835 0
M  V30 3678 O 335.341 -1.40606 -2.32255 0
M  V30 3679 C 333.797 -3.50633 -0.811442 0
M  V30 3680 C 333.405 -4.46582 0.35615 0
M  V30 3681 C 335.149 -4.00282 -1.41332 0
M  V30 3682 C 333.056 -5.91379 -0.0497852 0
M  V30 3683 H 331.986 -0.736086 -0.163381 0
M  V30 3684 H 334.637 -1.8099 0.302456 0
M  V30 3685 H 333.019 -3.62319 -1.59815 0
M  V30 3686 H 334.193 -4.46636 1.1337 0
M  V30 3687 H 332.508 -4.07202 0.870396 0
M  V30 3688 H 335.105 -5.0595 -1.72972 0
M  V30 3689 H 335.448 -3.45359 -2.32449 0
M  V30 3690 H 335.981 -3.91764 -0.690323 0
M  V30 3691 H 332.72 -6.50255 0.827529 0
M  V30 3692 H 332.24 -5.94549 -0.791926 0
M  V30 3693 H 333.919 -6.45209 -0.481042 0
M  V30 3694 N 334.051 0.0651679 -1.57465 0
M  V30 3695 C 335.014 1.06117 -2.03155 0
M  V30 3696 C 336.014 1.31204 -0.929632 0
M  V30 3697 O 337.204 1.26813 -1.19432 0
M  V30 3698 C 334.336 2.4032 -2.41783 0
M  V30 3699 H 335.529 0.667231 -2.92383 0
M  V30 3700 H 333.082 0.311075 -1.53173 0
M  V30 3701 H 333.817 2.84532 -1.55601 0
M  V30 3702 H 333.602 2.23451 -3.22199 0
M  V30 3703 H 335.092 3.11898 -2.77685 0
M  V30 3704 N 335.529 1.53961 0.336706 0
M  V30 3705 C 336.459 1.85417 1.41925 0
M  V30 3706 C 337.44 0.709856 1.5458 0
M  V30 3707 O 338.625 0.962396 1.68676 0
M  V30 3708 C 335.755 2.06985 2.78881 0
M  V30 3709 C 334.709 3.22813 2.81026 0
M  V30 3710 C 334.035 3.29727 4.20932 0
M  V30 3711 C 335.335 4.60767 2.45949 0
M  V30 3712 H 337.029 2.76079 1.15848 0
M  V30 3713 H 334.575 1.32839 0.555859 0
M  V30 3714 H 336.528 2.27575 3.54665 0
M  V30 3715 H 335.252 1.13061 3.06406 0
M  V30 3716 H 333.911 3.0209 2.07695 0
M  V30 3717 H 333.559 2.33385 4.45579 0
M  V30 3718 H 333.259 4.07566 4.23277 0
M  V30 3719 H 334.783 3.52536 4.98549 0
M  V30 3720 H 336.197 4.81325 3.11446 0
M  V30 3721 H 334.594 5.4106 2.59566 0
M  V30 3722 H 335.664 4.6391 1.41122 0
M  V30 3723 N 337.007 -0.598083 1.45811 0
M  V30 3724 C 338.418 -1.18011 1.44673 0
M  V30 3725 C 338.769 -1.95378 0.179364 0
M  V30 3726 O 337.894 -2.04124 -0.718509 0
M  V30 3727 C 338.489 -2.14677 2.62105 0
M  V30 3728 C 337.048 -2.68236 2.64057 0
M  V30 3729 C 336.195 -1.43816 2.37091 0
M  V30 3730 H 339.146 -0.38686 1.53913 0
M  V30 3731 H 339.167 -2.97878 2.36746 0
M  V30 3732 H 338.679 -1.5834 3.5433 0
M  V30 3733 H 336.78 -3.28486 1.75864 0
M  V30 3734 H 336.893 -3.12021 3.63566 0
M  V30 3735 H 335.257 -1.731 1.86838 0
M  V30 3736 H 336.04 -0.893333 3.31473 0
M  V30 3737 N 338.485 -1.33259 -0.841409 0
M  V30 3738 C 339.417 -1.19136 -1.95804 0
M  V30 3739 C 340.43 -0.122965 -1.62335 0
M  V30 3740 O 341.619 -0.373154 -1.74556 0
M  V30 3741 C 338.719 -0.804268 -3.29218 0
M  V30 3742 C 337.892 -1.96376 -3.90839 0
M  V30 3743 C 336.951 -1.55806 -5.02604 0
M  V30 3744 O 335.977 -2.27203 -5.21888 0
M  V30 3745 N 337.179 -0.461609 -5.78662 0
M  V30 3746 H 339.944 -2.15326 -2.08458 0
M  V30 3747 H 337.505 -1.25971 -1.017 0
M  V30 3748 H 339.497 -0.51501 -4.0141 0
M  V30 3749 H 338.067 0.0668809 -3.12528 0
M  V30 3750 H 337.287 -2.41879 -3.11269 0
M  V30 3751 H 338.575 -2.73966 -4.28742 0
M  V30 3752 H 337.973 0.132343 -5.65545 0
M  V30 3753 H 336.53 -0.232013 -6.51387 0
M  V30 3754 N 339.963 1.05934 -1.16686 0
M  V30 3755 C 341.21 1.788 -0.950622 0
M  V30 3756 C 341.538 1.87384 0.521305 0
M  V30 3757 O 340.793 1.36438 1.40297 0
M  V30 3758 C 341.092 3.23105 -1.52767 0
M  V30 3759 C 340.758 3.34594 -3.02254 0
M  V30 3760 C 339.42 3.37437 -3.43059 0
M  V30 3761 C 341.772 3.36219 -3.98254 0
M  V30 3762 C 339.1 3.39525 -4.78477 0
M  V30 3763 C 341.452 3.39845 -5.33562 0
M  V30 3764 C 340.116 3.40971 -5.73842 0
M  V30 3765 H 339.386 0.654275 -0.347857 0
M  V30 3766 H 342.033 1.24555 -1.45459 0
M  V30 3767 H 340.338 3.80227 -0.94524 0
M  V30 3768 H 342.035 3.7809 -1.336 0
M  V30 3769 H 338.625 3.3309 -2.6972 0
M  V30 3770 H 342.809 3.33231 -3.67792 0
M  V30 3771 H 338.065 3.38703 -5.09009 0
M  V30 3772 H 342.239 3.4005 -6.07733 0
M  V30 3773 H 339.866 3.42342 -6.78753 0
M  V30 3774 N 341.441 0.965919 1.2453 0
M  V30 3775 C 342.718 0.543777 1.87889 0
M  V30 3776 C 343.098 -0.97909 1.87021 0
M  V30 3777 O 342.446 -1.84969 1.3416 0
M  V30 3778 C 342.656 1.13327 3.30088 0
M  V30 3779 C 344.004 1.21707 4.06783 0
M  V30 3780 O 345.028 1.08566 3.39252 0
M  V30 3781 O 343.887 1.42456 5.27606 0
M  V30 3782 H 340.981 0.181054 0.806938 0
M  V30 3783 H 343.527 1.06007 1.32516 0
M  V30 3784 H 342.299 2.17612 3.25209 0
M  V30 3785 H 341.922 0.600911 3.93033 0
M  V30 3786 N 342.919 -1.39368 0.735821 0
M  V30 3787 C 344.168 -1.99733 0.281004 0
M  V30 3788 C 344.481 -1.59055 -1.13846 0
M  V30 3789 O 345.687 -2.12262 -1.69284 0
M  V30 3790 C 344.143 -3.57057 0.451462 0
M  V30 3791 C 343.751 -4.06697 1.87886 0
M  V30 3792 C 345.495 -4.2446 0.0584616 0
M  V30 3793 C 343.402 -5.56598 1.99883 0
M  V30 3794 H 342.332 -0.747163 0.101311 0
M  V30 3795 H 344.983 -1.59357 0.909819 0
M  V30 3796 H 343.365 -3.95234 -0.246263 0
M  V30 3797 H 344.539 -3.79853 2.60861 0
M  V30 3798 H 342.854 -3.5196 2.22515 0
M  V30 3799 H 345.451 -5.34549 0.127099 0
M  V30 3800 H 345.794 -4.04444 -0.986433 0
M  V30 3801 H 346.327 -3.9146 0.707374 0
M  V30 3802 H 343.066 -5.81494 3.02564 0
M  V30 3803 H 342.586 -5.85242 1.31346 0
M  V30 3804 H 344.265 -6.22022 1.78039 0
M  V30 3805 N 344.397 -0.483516 -1.5 0
M  V30 3806 C 345.344 0.304164 -2.28787 0
M  V30 3807 C 346.314 0.976114 -1.34392 0
M  V30 3808 O 347.499 0.986156 -1.63339 0
M  V30 3809 C 344.639 1.37298 -3.16612 0
M  V30 3810 C 343.752 0.714561 -4.26049 0
M  V30 3811 C 342.887 1.76232 -5.01114 0
M  V30 3812 C 341.926 1.08483 -6.0241 0
M  V30 3813 N 341.063 2.076 -6.70706 0
M  V30 3814 H 345.903 -0.373981 -2.95644 0
M  V30 3815 H 343.44 -0.196275 -1.45785 0
M  V30 3816 H 345.398 2.00445 -3.65893 0
M  V30 3817 H 344.028 2.02012 -2.51776 0
M  V30 3818 H 343.08 -0.0297798 -3.80388 0
M  V30 3819 H 344.392 0.180383 -4.98474 0
M  V30 3820 H 343.546 2.46929 -5.54176 0
M  V30 3821 H 342.285 2.33033 -4.28424 0
M  V30 3822 H 341.29 0.363545 -5.48597 0
M  V30 3823 H 342.515 0.523551 -6.77079 0
M  V30 3824 H 340.461 2.63394 -6.00799 0
M  V30 3825 H 340.378 1.59201 -7.39047 0
M  V30 3826 H 341.646 2.77639 -7.2838 0
M  V30 3827 N 345.875 1.56104 -0.216619 0
M  V30 3828 C 346.822 2.2007 0.695531 0
M  V30 3829 C 347.792 1.15471 1.19397 0
M  V30 3830 O 348.977 1.43807 1.25396 0
M  V30 3831 C 346.117 2.88073 1.90021 0
M  V30 3832 C 345.23 4.07253 1.44113 0
M  V30 3833 C 344.365 4.63052 2.603 0
M  V30 3834 C 343.404 5.74545 2.11103 0
M  V30 3835 N 342.541 6.24656 3.20545 0
M  V30 3836 H 347.381 2.97655 0.143327 0
M  V30 3837 H 344.918 1.46982 0.0589934 0
M  V30 3838 H 346.876 3.25681 2.60745 0
M  V30 3839 H 345.506 2.13015 2.42538 0
M  V30 3840 H 344.558 3.75164 0.628999 0
M  V30 3841 H 345.87 4.8783 1.04036 0
M  V30 3842 H 345.024 5.03078 3.39113 0
M  V30 3843 H 343.763 3.81628 3.03663 0
M  V30 3844 H 342.768 5.34027 1.3075 0
M  V30 3845 H 343.993 6.57801 1.68746 0
M  V30 3846 H 341.939 5.46148 3.63399 0
M  V30 3847 H 341.856 7.00343 2.84704 0
M  V30 3848 H 343.124 6.69338 3.99508 0
M  V30 3849 N 347.353 -0.0568162 1.57498 0
M  V30 3850 C 348.263 -1.08346 2.08083 0
M  V30 3851 C 349.279 -1.41439 1.01346 0
M  V30 3852 O 350.455 -1.51316 1.32912 0
M  V30 3853 C 347.52 -2.37352 2.52715 0
M  V30 3854 C 346.581 -2.11093 3.73816 0
M  V30 3855 C 345.814 -3.33949 4.1631 0
M  V30 3856 O 346.037 -4.43622 3.58547 0
M  V30 3857 O 344.971 -3.21279 5.08983 0
M  V30 3858 H 348.797 -0.683667 2.95905 0
M  V30 3859 H 346.382 -0.271965 1.46904 0
M  V30 3860 H 348.264 -3.13246 2.81877 0
M  V30 3861 H 346.939 -2.76681 1.68016 0
M  V30 3862 H 345.846 -1.32856 3.49714 0
M  V30 3863 H 347.179 -1.76637 4.59413 0
M  V30 3864 N 348.832 -1.54138 -0.328536 0
M  V30 3865 C 350.109 -1.62749 -1.08499 0
M  V30 3866 C 350.489 -0.458198 -2.06067 0
M  V30 3867 O 349.837 0.548046 -2.2183 0
M  V30 3868 C 350.047 -2.99519 -1.79135 0
M  V30 3869 C 351.395 -3.55394 -2.32337 0
M  V30 3870 O 352.419 -3.01792 -1.89209 0
M  V30 3871 O 351.278 -4.49186 -3.11279 0
M  V30 3872 H 348.372 -0.65886 -0.499832 0
M  V30 3873 H 350.918 -1.66484 -0.328826 0
M  V30 3874 H 349.69 -3.76061 -1.08139 0
M  V30 3875 H 349.313 -2.99441 -2.61574 0
M  V30 3876 N 350.31 0.590341 -1.46126 0
M  V30 3877 C 351.559 1.34499 -1.50309 0
M  V30 3878 C 351.872 1.94977 -0.156021 0
M  V30 3879 O 353.078 2.71395 -0.0756037 0
M  V30 3880 C 351.534 2.43723 -2.64815 0
M  V30 3881 C 351.142 1.89582 -4.0591 0
M  V30 3882 C 352.886 3.20579 -2.78262 0
M  V30 3883 C 350.793 2.9639 -5.11769 0
M  V30 3884 H 349.723 0.505593 -0.559368 0
M  V30 3885 H 352.374 0.630848 -1.72315 0
M  V30 3886 H 350.756 3.17902 -2.36124 0
M  V30 3887 H 351.93 1.21997 -4.44357 0
M  V30 3888 H 350.245 1.25418 -3.97063 0
M  V30 3889 H 352.842 4.00276 -3.54519 0
M  V30 3890 H 353.185 3.72684 -1.85505 0
M  V30 3891 H 353.718 2.53505 -3.06562 0
M  V30 3892 H 350.457 2.49181 -6.06291 0
M  V30 3893 H 349.977 3.62487 -4.77873 0
M  V30 3894 H 351.656 3.60474 -5.37278 0
M  V30 3895 N 351.788 1.33704 0.83433 0
M  V30 3896 C 352.698 1.26382 1.97648 0
M  V30 3897 C 353.714 0.173548 1.73132 0
M  V30 3898 O 354.89 0.397962 1.97429 0
M  V30 3899 C 351.955 1.00769 3.31733 0
M  V30 3900 C 351.016 2.1884 3.69334 0
M  V30 3901 C 350.249 1.9444 4.9702 0
M  V30 3902 O 350.472 0.896961 5.63303 0
M  V30 3903 O 349.406 2.81093 5.32231 0
M  V30 3904 H 353.232 2.22444 2.06767 0
M  V30 3905 H 350.817 1.13795 0.968037 0
M  V30 3906 H 352.699 0.882186 4.12062 0
M  V30 3907 H 351.374 0.0773783 3.23608 0
M  V30 3908 H 350.281 2.36946 2.89495 0
M  V30 3909 H 351.614 3.10221 3.82131 0
M  V30 3910 N 353.266 -1.05314 1.17247 0
M  V30 3911 C 354.496 -1.81707 0.983166 0
M  V30 3912 C 354.904 -1.83222 -0.471822 0
M  V30 3913 O 354.247 -1.25721 -1.3394 0
M  V30 3914 C 354.309 -3.29134 1.44606 0
M  V30 3915 C 353.973 -3.51304 2.92292 0
M  V30 3916 C 354.97 -3.4353 3.90235 0
M  V30 3917 C 352.655 -3.78306 3.30439 0
M  V30 3918 C 354.649 -3.62442 5.24323 0
M  V30 3919 C 352.336 -3.96866 4.64694 0
M  V30 3920 C 353.334 -3.88933 5.61445 0
M  V30 3921 O 353.022 -4.06976 6.93272 0
M  V30 3922 H 352.754 -0.579476 0.348114 0
M  V30 3923 H 355.308 -1.33705 1.55924 0
M  V30 3924 H 353.538 -3.78046 0.813537 0
M  V30 3925 H 355.227 -3.87049 1.22262 0
M  V30 3926 H 355.993 -3.22648 3.62109 0
M  V30 3927 H 351.872 -3.83585 2.55702 0
M  V30 3928 H 355.416 -3.56165 5.99827 0
M  V30 3929 H 351.313 -4.1724 4.92525 0
M  V30 3930 H 352.081 -4.24209 6.99992 0
M  V30 3931 N 354.744 -0.972509 -1.24016 0
M  V30 3932 C 355.992 -0.635776 -1.91839 0
M  V30 3933 C 356.313 0.832312 -1.76345 0
M  V30 3934 O 355.583 1.5946 -1.13795 0
M  V30 3935 H 354.163 -0.232157 -0.710009 0
M  V30 3936 H 356.825 -1.23462 -1.50809 0
M  V30 3937 H 355.921 -0.880545 -2.99421 0
M  V30 3938 N 356.222 1.38976 -0.743202 0
M  V30 3939 C 357.17 2.32394 -0.0978389 0
M  V30 3940 C 358.164 1.53486 0.716824 0
M  V30 3941 O 359.37 1.69092 0.617088 0
M  V30 3942 H 355.745 0.75189 -0.0128402 0
M  V30 3943 H 357.716 2.84441 -0.901981 0
M  V30 3944 C 356.465 3.38629 0.789036 0
M  V30 3945 H 355.788 3.99432 0.171559 0
M  V30 3946 H 357.228 4.06426 1.20807 0
M  V30 3947 C 355.687 2.76347 1.92702 0
M  V30 3948 O 356.217 2.64836 3.02034 0
M  V30 3949 N 354.423 2.34311 1.71891 0
M  V30 3950 H 353.97 2.43873 0.829675 0
M  V30 3951 H 353.928 1.9298 2.48205 0
M  V30 3952 N 357.7 0.491464 1.49741 0
M  V30 3953 C 358.94 -0.0549118 2.04326 0
M  V30 3954 C 359.304 -1.35148 1.36378 0
M  V30 3955 O 360.505 -1.9815 1.81631 0
M  V30 3956 C 358.776 -0.213841 3.5676 0
M  V30 3957 S 360.335 -0.715839 4.32922 0
M  V30 3958 H 357.153 -0.00630513 0.710972 0
M  V30 3959 H 359.755 0.663257 1.83905 0
M  V30 3960 H 358.459 0.73527 4.0376 0
M  V30 3961 H 357.99 -0.957529 3.81569 0
M  V30 3962 H 360.005 -1.9864 4.54705 0
M  V30 3963 N 359.178 -1.55987 0.224894 0
M  V30 3964 C 360.406 -2.02784 -0.410665 0
M  V30 3965 C 360.821 -1.10464 -1.53112 0
M  V30 3966 O 360.178 -0.114871 -1.82138 0
M  V30 3967 C 360.229 -3.49087 -0.939165 0
M  V30 3968 O 359.95 -4.37887 0.136614 0
M  V30 3969 C 361.451 -4.11543 -1.64763 0
M  V30 3970 H 358.671 -0.663484 -0.100148 0
M  V30 3971 H 361.215 -2.01614 0.342326 0
M  V30 3972 H 359.37 -3.50861 -1.64242 0
M  V30 3973 H 359.784 -5.23849 -0.261155 0
M  V30 3974 H 361.258 -5.15673 -1.96939 0
M  V30 3975 H 361.735 -3.56736 -2.56195 0
M  V30 3976 H 362.341 -4.13629 -0.989503 0
M  V30 3977 N 360.656 0.0484629 -1.57525 0
M  V30 3978 C 361.603 1.05504 -2.05275 0
M  V30 3979 C 362.573 1.37084 -0.937927 0
M  V30 3980 O 363.758 1.47754 -1.2072 0
M  V30 3981 C 360.898 2.35676 -2.52093 0
M  V30 3982 C 360.011 2.10423 -3.77288 0
M  V30 3983 C 359.146 3.34327 -4.12794 0
M  V30 3984 C 358.185 3.04542 -5.30962 0
M  V30 3985 N 357.322 4.20841 -5.61994 0
M  V30 3986 H 362.162 0.640885 -2.91027 0
M  V30 3987 H 359.699 0.304854 -1.43906 0
M  V30 3988 H 361.657 3.11709 -2.77297 0
M  V30 3989 H 360.287 2.7485 -1.69285 0
M  V30 3990 H 359.339 1.24976 -3.59284 0
M  V30 3991 H 360.651 1.84438 -4.63448 0
M  V30 3992 H 359.805 4.1874 -4.39024 0
M  V30 3993 H 358.544 3.63408 -3.25247 0
M  V30 3994 H 357.549 2.18528 -5.04505 0
M  V30 3995 H 358.774 2.76758 -6.20146 0
M  V30 3996 H 356.72 4.4991 -4.77406 0
M  V30 3997 H 356.637 3.98212 -6.42622 0
M  V30 3998 H 357.905 5.06184 -5.92789 0
M  V30 3999 N 362.134 1.5431 0.320358 0
M  V30 4000 C 363.364 1.7638 1.07582 0
M  V30 4001 C 363.772 0.513944 1.82086 0
M  V30 4002 O 363.115 -0.525123 1.76035 0
M  V30 4003 C 363.177 2.9055 2.1171 0
M  V30 4004 C 362.841 4.2934 1.56575 0
M  V30 4005 C 363.838 5.10077 1.00586 0
M  V30 4006 C 361.523 4.75893 1.60722 0
M  V30 4007 C 363.517 6.35477 0.494756 0
M  V30 4008 C 361.204 6.0126 1.09224 0
M  V30 4009 C 362.202 6.80886 0.53696 0
M  V30 4010 O 361.89 8.03894 0.0297371 0
M  V30 4011 H 361.622 0.592369 0.325692 0
M  V30 4012 H 364.176 2.02019 0.37116 0
M  V30 4013 H 362.406 2.60489 2.85801 0
M  V30 4014 H 364.095 3.00373 2.73003 0
M  V30 4015 H 364.861 4.75265 0.966869 0
M  V30 4016 H 360.74 4.13957 2.02882 0
M  V30 4017 H 364.284 6.97574 0.0606842 0
M  V30 4018 H 360.181 6.35562 1.12831 0
M  V30 4019 H 360.949 8.18372 0.14486 0
M  V30 4020 N 363.613 -0.582584 1.46437 0
M  V30 4021 C 364.843 -1.36484 1.55099 0
M  V30 4022 C 365.251 -1.88233 0.191056 0
M  V30 4023 O 364.594 -1.6429 -0.821858 0
M  V30 4024 C 364.656 -2.588 2.49525 0
M  V30 4025 C 364.32 -2.28517 3.95764 0
M  V30 4026 C 365.317 -1.87346 4.84972 0
M  V30 4027 C 363.002 -2.40658 4.40896 0
M  V30 4028 C 364.996 -1.5871 6.17325 0
M  V30 4029 C 362.683 -2.11635 5.73284 0
M  V30 4030 C 363.681 -1.70725 6.61318 0
M  V30 4031 O 363.369 -1.42057 7.91249 0
M  V30 4032 H 363.101 -0.423297 0.527063 0
M  V30 4033 H 365.655 -0.715188 1.92547 0
M  V30 4034 H 363.885 -3.26571 2.07095 0
M  V30 4035 H 365.574 -3.20868 2.48593 0
M  V30 4036 H 366.34 -1.77481 4.5136 0
M  V30 4037 H 362.219 -2.71463 3.72598 0
M  V30 4038 H 365.763 -1.26704 6.85997 0
M  V30 4039 H 361.66 -2.21124 6.06444 0
M  V30 4040 H 362.428 -1.55901 8.03515 0
M  V30 4041 N 365.091 -1.34144 -0.827227 0
M  V30 4042 C 366.038 -1.25364 -1.93785 0
M  V30 4043 C 367.008 -0.129774 -1.65592 0
M  V30 4044 O 368.193 -0.310024 -1.88264 0
M  V30 4045 C 365.333 -1.01064 -3.2997 0
M  V30 4046 C 364.446 -2.22185 -3.70484 0
M  V30 4047 C 363.581 -1.91203 -4.95595 0
M  V30 4048 C 362.62 -3.08491 -5.28677 0
M  V30 4049 N 361.757 -2.77421 -6.44967 0
M  V30 4050 H 366.597 -2.20347 -2.00627 0
M  V30 4051 H 364.134 -1.09558 -0.981608 0
M  V30 4052 H 366.092 -0.850139 -4.08446 0
M  V30 4053 H 364.722 -0.0975026 -3.22653 0
M  V30 4054 H 363.774 -2.4917 -2.87434 0
M  V30 4055 H 365.086 -3.0983 -3.90905 0
M  V30 4056 H 364.24 -1.71864 -5.81848 0
M  V30 4057 H 362.979 -1.00812 -4.77167 0
M  V30 4058 H 361.984 -3.28431 -4.40923 0
M  V30 4059 H 363.209 -3.99655 -5.49047 0
M  V30 4060 H 361.155 -1.89601 -6.28003 0
M  V30 4061 H 361.072 -3.58598 -6.6554 0
M  V30 4062 H 362.34 -2.61577 -7.34301 0
M  V30 4063 N 366.569 1.04691 -1.17803 0
M  V30 4064 C 367.817 1.7743 -0.967617 0
M  V30 4065 C 368.138 1.88359 0.504574 0
M  V30 4066 O 367.408 1.40402 1.36617 0
M  V30 4067 H 365.988 0.657242 -0.355024 0
M  V30 4068 H 368.65 1.2638 -1.48371 0
M  V30 4069 H 367.746 2.78924 -1.40027 0
M  V30 4070 N 368.047 0.979072 1.23499 0
M  V30 4071 C 369.275 0.665202 1.95915 0
M  V30 4072 C 369.69 -0.767571 1.72493 0
M  V30 4073 O 369.047 -1.51635 1.01554 0
M  V30 4074 C 369.098 0.944438 3.48945 0
M  V30 4075 O 368.819 2.3209 3.71572 0
M  V30 4076 C 370.32 0.646336 4.38563 0
M  V30 4077 H 367.54 0.247218 0.623798 0
M  V30 4078 H 370.084 1.31009 1.57025 0
M  V30 4079 H 368.239 0.345575 3.85856 0
M  V30 4080 H 368.653 2.40957 4.65876 0
M  V30 4081 H 370.127 0.892091 5.44744 0
M  V30 4082 H 370.604 -0.419575 4.37191 0
M  V30 4083 H 371.21 1.22562 4.07258 0
M  V30 4084 N 369.525 -1.3858 0.750561 0
M  V30 4085 C 370.773 -1.99789 0.30477 0
M  V30 4086 C 371.094 -1.59874 -1.11649 0
M  V30 4087 O 370.364 -0.85417 -1.76297 0
M  V30 4088 H 368.944 -0.738902 0.109694 0
M  V30 4089 H 371.606 -1.69391 0.963983 0
M  V30 4090 H 370.702 -3.09952 0.365499 0
M  V30 4091 N 371.003 -0.499398 -1.49478 0
M  V30 4092 C 372.233 0.0424839 -2.06556 0
M  V30 4093 C 372.641 1.31514 -1.36018 0
M  V30 4094 O 371.984 1.78555 -0.431718 0
M  V30 4095 C 372.046 0.368074 -3.57611 0
M  V30 4096 C 371.71 -0.806631 -4.49825 0
M  V30 4097 C 372.707 -1.69667 -4.91436 0
M  V30 4098 C 370.392 -1.00498 -4.92144 0
M  V30 4099 C 372.386 -2.76923 -5.74101 0
M  V30 4100 C 370.073 -2.08072 -5.74586 0
M  V30 4101 C 371.071 -2.96119 -6.15469 0
M  V30 4102 O 370.759 -4.01836 -6.96264 0
M  V30 4103 H 370.491 -0.0165165 -0.675798 0
M  V30 4104 H 373.045 -0.695497 -1.93267 0
M  V30 4105 H 371.275 1.15963 -3.68903 0
M  V30 4106 H 372.964 0.848381 -3.96935 0
M  V30 4107 H 373.73 -1.55524 -4.59388 0
M  V30 4108 H 369.609 -0.329036 -4.59824 0
M  V30 4109 H 373.153 -3.45676 -6.05932 0
M  V30 4110 H 369.05 -2.22211 -6.06047 0
M  V30 4111 H 369.818 -3.9917 -7.14567 0
M  V30 4112 N 372.481 1.55866 -0.233164 0
M  V30 4113 C 373.711 2.02704 0.399325 0
M  V30 4114 C 374.119 1.11204 1.53069 0
M  V30 4115 O 373.462 0.116182 1.83332 0
M  V30 4116 C 373.524 3.45844 0.981429 0
M  V30 4117 C 373.188 4.56997 -0.0159561 0
M  V30 4118 C 374.185 5.13384 -0.820552 0
M  V30 4119 C 371.87 5.0211 -0.138072 0
M  V30 4120 C 373.864 6.13365 -1.73386 0
M  V30 4121 C 371.551 6.01926 -1.0549 0
M  V30 4122 C 372.549 6.57431 -1.85132 0
M  V30 4123 O 372.237 7.55302 -2.75272 0
M  V30 4124 H 371.969 0.668459 0.100692 0
M  V30 4125 H 374.523 2.02387 -0.35052 0
M  V30 4126 H 372.753 3.43267 1.78058 0
M  V30 4127 H 374.442 3.76262 1.52255 0
M  V30 4128 H 375.208 4.79372 -0.736721 0
M  V30 4129 H 371.087 4.5858 0.471737 0
M  V30 4130 H 374.631 6.56614 -2.35592 0
M  V30 4131 H 370.528 6.35359 -1.1397 0
M  V30 4132 H 371.296 7.72867 -2.69477 0
M  V30 4133 N 373.959 -0.0401083 1.57549 0
M  V30 4134 C 375.187 -0.745196 1.93014 0
M  V30 4135 C 375.602 -1.6948 0.831984 0
M  V30 4136 O 374.959 -1.81482 -0.192463 0
M  V30 4137 C 375.01 -1.51176 3.28372 0
M  V30 4138 O 374.731 -0.600284 4.33968 0
M  V30 4139 C 376.232 -2.315 3.78051 0
M  V30 4140 H 373.452 -0.210088 0.637263 0
M  V30 4141 H 375.996 -0.000924689 2.045 0
M  V30 4142 H 374.151 -2.20801 3.18317 0
M  V30 4143 H 374.565 -1.13669 5.12035 0
M  V30 4144 H 376.039 -2.80697 4.75303 0
M  V30 4145 H 376.516 -3.12436 3.08675 0
M  V30 4146 H 377.122 -1.66971 3.91153 0
M  V30 4147 N 375.437 -1.54477 -0.31217 0
M  V30 4148 C 376.677 -1.74958 -1.05684 0
M  V30 4149 C 377.041 -0.518414 -1.84869 0
M  V30 4150 O 378.242 -0.600759 -2.62001 0
M  V30 4151 C 376.513 -2.99656 -1.94785 0
M  V30 4152 S 378.072 -3.4109 -2.76049 0
M  V30 4153 H 374.89 -0.615104 -0.356606 0
M  V30 4154 H 377.492 -1.92669 -0.331514 0
M  V30 4155 H 376.196 -3.87397 -1.35468 0
M  V30 4156 H 375.727 -2.845 -2.71704 0
M  V30 4157 H 377.742 -2.97283 -3.97287 0
M  V30 4158 N 376.915 0.57481 -1.46744 0
M  V30 4159 C 378.161 1.3347 -1.52688 0
M  V30 4160 C 378.494 1.93353 -0.181229 0
M  V30 4161 O 377.769 1.76912 0.808237 0
M  V30 4162 C 378.052 2.45811 -2.63152 0
M  V30 4163 C 377.905 1.90912 -4.07275 0
M  V30 4164 C 379.224 3.47822 -2.69644 0
M  V30 4165 H 376.343 0.483935 -0.555856 0
M  V30 4166 H 378.985 0.644968 -1.78718 0
M  V30 4167 H 377.135 3.04646 -2.41088 0
M  V30 4168 H 378.807 1.36473 -4.4065 0
M  V30 4169 H 377.05 1.21691 -4.16382 0
M  V30 4170 H 377.721 2.72042 -4.80309 0
M  V30 4171 H 380.197 2.9888 -2.895 0
M  V30 4172 H 379.073 4.23876 -3.48742 0
M  V30 4173 H 379.334 4.05555 -1.76005 0
M  V30 4174 N 378.394 1.34581 0.820102 0
M  V30 4175 C 379.304 1.28471 1.96297 0
M  V30 4176 C 380.32 0.191902 1.72939 0
M  V30 4177 O 381.496 0.418879 1.96996 0
M  V30 4178 C 378.561 1.04281 3.30645 0
M  V30 4179 C 377.622 2.22745 3.66992 0
M  V30 4180 C 376.855 1.997 4.9493 0
M  V30 4181 O 377.078 0.956656 5.6232 0
M  V30 4182 O 376.012 2.86723 5.2922 0
M  V30 4183 H 379.838 2.24624 2.04396 0
M  V30 4184 H 377.423 1.14816 0.955913 0
M  V30 4185 H 379.305 0.925841 4.11104 0
M  V30 4186 H 377.98 0.111697 3.23507 0
M  V30 4187 H 376.887 2.40003 2.86966 0
M  V30 4188 H 378.22 3.14257 3.78819 0
M  V30 4189 N 379.872 -1.04064 1.18357 0
M  V30 4190 C 381.118 -1.77528 0.980397 0
M  V30 4191 C 381.451 -1.87948 -0.48879 0
M  V30 4192 O 380.726 -1.3876 -1.36293 0
M  V30 4193 C 381.009 -3.20797 1.63588 0
M  V30 4194 C 380.862 -3.1832 3.17793 0
M  V30 4195 C 382.181 -4.18911 1.34914 0
M  V30 4196 H 379.3 -0.644443 0.357578 0
M  V30 4197 H 381.942 -1.2156 1.46024 0
M  V30 4198 H 380.092 -3.68586 1.22788 0
M  V30 4199 H 381.764 -2.78521 3.67728 0
M  V30 4200 H 380.007 -2.56351 3.49952 0
M  V30 4201 H 380.678 -4.19489 3.58794 0
M  V30 4202 H 383.154 -3.7967 1.70265 0
M  V30 4203 H 382.03 -5.17374 1.83346 0
M  V30 4204 H 382.291 -4.41262 0.272027 0
M  V30 4205 N 381.35 -0.985608 -1.22978 0
M  V30 4206 C 382.599 -0.652881 -1.90841 0
M  V30 4207 C 382.912 0.817842 -1.77681 0
M  V30 4208 O 384.118 1.26185 -2.40395 0
M  V30 4209 C 382.574 -1.11717 -3.42122 0
M  V30 4210 C 382.182 -2.6126 -3.63933 0
M  V30 4211 C 383.926 -0.85843 -4.1573 0
M  V30 4212 C 381.833 -3.0133 -5.08876 0
M  V30 4213 H 380.763 -0.240491 -0.714619 0
M  V30 4214 H 383.414 -1.1942 -1.39324 0
M  V30 4215 H 381.796 -0.504027 -3.92779 0
M  V30 4216 H 382.97 -3.27858 -3.23799 0
M  V30 4217 H 381.285 -2.84937 -3.03644 0
M  V30 4218 H 383.882 -1.13359 -5.22546 0
M  V30 4219 H 384.225 0.205461 -4.15793 0
M  V30 4220 H 384.758 -1.43341 -3.71077 0
M  V30 4221 H 381.497 -4.06864 -5.13947 0
M  V30 4222 H 381.017 -2.3943 -5.49939 0
M  V30 4223 H 382.696 -2.92224 -5.77247 0
M  V30 4224 N 382.828 1.3818 -0.7579 0
M  V30 4225 C 384.075 2.00019 -0.315985 0
M  V30 4226 C 384.403 1.60163 1.10355 0
M  V30 4227 O 383.658 0.83264 1.77103 0
M  V30 4228 C 383.957 3.55252 -0.391218 0
M  V30 4229 C 383.623 4.14834 -1.76702 0
M  V30 4230 C 382.285 4.30821 -2.14353 0
M  V30 4231 C 384.637 4.47658 -2.66931 0
M  V30 4232 C 381.965 4.76928 -3.41696 0
M  V30 4233 C 384.317 4.95184 -3.93669 0
M  V30 4234 C 382.981 5.09377 -4.31383 0
M  V30 4235 H 382.251 0.731923 -0.115627 0
M  V30 4236 H 384.898 1.65161 -0.969223 0
M  V30 4237 H 383.203 3.90273 0.34558 0
M  V30 4238 H 384.9 4.00988 -0.030805 0
M  V30 4239 H 381.49 4.02808 -1.46435 0
M  V30 4240 H 385.674 4.34904 -2.39106 0
M  V30 4241 H 380.93 4.86103 -3.70829 0
M  V30 4242 H 385.104 5.19551 -4.63724 0
M  V30 4243 H 382.731 5.44865 -5.30119 0
M  V30 4244 N 384.306 0.507319 1.49211 0
M  V30 4245 C 385.534 -0.0315749 2.06876 0
M  V30 4246 C 385.949 -1.30241 1.36685 0
M  V30 4247 O 385.306 -1.76937 0.447152 0
M  V30 4248 C 385.357 -0.282627 3.60393 0
M  V30 4249 O 385.078 0.937835 4.27944 0
M  V30 4250 C 386.579 -0.864453 4.3479 0
M  V30 4251 H 383.799 0.0233048 0.670595 0
M  V30 4252 H 386.343 0.706484 1.91909 0
M  V30 4253 H 384.498 -0.97068 3.75042 0
M  V30 4254 H 384.912 0.704567 5.19746 0
M  V30 4255 H 386.386 -0.989664 5.43056 0
M  V30 4256 H 386.863 -1.86382 3.97692 0
M  V30 4257 H 387.469 -0.213672 4.24763 0
M  V30 4258 N 385.784 -1.5574 0.241426 0
M  V30 4259 C 386.714 -2.24133 -0.654722 0
M  V30 4260 C 387.695 -1.21974 -1.1856 0
M  V30 4261 O 388.88 -1.50612 -1.22595 0
M  V30 4262 C 386.01 -2.93659 -1.85423 0
M  V30 4263 C 384.964 -4.0246 -1.45636 0
M  V30 4264 C 384.29 -4.59383 -2.73626 0
M  V30 4265 C 385.59 -5.18468 -0.631506 0
M  V30 4266 H 387.284 -2.99281 -0.0844353 0
M  V30 4267 H 384.83 -1.43947 -0.0391707 0
M  V30 4268 H 386.783 -3.40203 -2.48676 0
M  V30 4269 H 385.507 -2.15991 -2.44981 0
M  V30 4270 H 384.166 -3.56676 -0.847202 0
M  V30 4271 H 383.814 -3.78422 -3.3137 0
M  V30 4272 H 383.514 -5.32826 -2.4773 0
M  V30 4273 H 385.038 -5.08658 -3.37786 0
M  V30 4274 H 386.452 -5.61272 -1.1682 0
M  V30 4275 H 384.849 -5.98266 -0.468831 0
M  V30 4276 H 385.919 -4.8358 0.357506 0
M  V30 4277 N 387.262 0.0317525 -1.57568 0
M  V30 4278 C 388.678 0.38735 -1.54828 0
M  V30 4279 C 388.878 1.7677 -0.967187 0
M  V30 4280 O 387.934 2.45581 -0.587063 0
M  V30 4281 C 389.247 0.291667 -2.99282 0
M  V30 4282 C 390.795 0.368946 -3.10818 0
M  V30 4283 C 391.27 0.302741 -4.56998 0
M  V30 4284 N 392.761 0.361617 -4.61786 0
M  V30 4285 C 393.496 0.333238 -5.72431 0
M  V30 4286 N 392.992 0.257308 -6.92322 0
M  V30 4287 N 394.785 0.382769 -5.60795 0
M  V30 4288 H 386.936 -0.871609 -1.93692 0
M  V30 4289 H 389.199 -0.331161 -0.888277 0
M  V30 4290 H 388.905 -0.656794 -3.45513 0
M  V30 4291 H 388.779 1.08638 -3.61217 0
M  V30 4292 H 391.166 1.30784 -2.64536 0
M  V30 4293 H 391.247 -0.455066 -2.5172 0
M  V30 4294 H 390.891 -0.632473 -5.03947 0
M  V30 4295 H 390.821 1.14482 -5.14005 0
M  V30 4296 H 393.312 0.422923 -3.75526 0
M  V30 4297 H 393.625 0.24068 -7.72425 0
M  V30 4298 H 391.97 0.223396 -6.94641 0
M  V30 4299 H 395.161 0.44006 -4.66027 0
M  V30 4300 H 395.334 0.357184 -6.47015 0
M  V30 4301 N 388.74 1.54641 0.303973 0
M  V30 4302 C 390.156 1.45788 0.649463 0
M  V30 4303 C 390.356 0.64666 1.90842 0
M  V30 4304 O 389.412 0.153183 2.52035 0
M  V30 4305 C 390.725 2.89718 0.805227 0
M  V30 4306 C 392.273 2.99742 0.901305 0
M  V30 4307 C 392.748 4.44863 1.08909 0
M  V30 4308 N 394.239 4.48559 1.15536 0
M  V30 4309 C 394.974 5.58026 1.3189 0
M  V30 4310 N 394.47 6.77422 1.45161 0
M  V30 4311 N 396.263 5.45708 1.34755 0
M  V30 4312 H 388.414 2.05854 -0.523237 0
M  V30 4313 H 390.677 0.932186 -0.172431 0
M  V30 4314 H 390.383 3.51666 -0.0489108 0
M  V30 4315 H 390.257 3.36964 1.69513 0
M  V30 4316 H 392.644 2.3791 1.74593 0
M  V30 4317 H 392.725 2.55797 -0.0125531 0
M  V30 4318 H 392.369 5.07288 0.249241 0
M  V30 4319 H 392.299 4.86436 2.01713 0
M  V30 4320 H 394.79 3.6254 1.06646 0
M  V30 4321 H 395.103 7.56604 1.57387 0
M  V30 4322 H 393.448 6.80292 1.42223 0
M  V30 4323 H 396.639 4.51378 1.23996 0
M  V30 4324 H 396.812 6.3107 1.47157 0
M  V30 4325 N 390.218 -0.567019 1.47046 0
M  V30 4326 C 391.15 -1.68985 1.54844 0
M  V30 4327 C 392.163 -1.56869 0.435431 0
M  V30 4328 O 393.352 -1.64006 0.70457 0
M  V30 4329 C 390.452 -3.07373 1.42742 0
M  V30 4330 C 389.625 -3.45339 2.6844 0
M  V30 4331 C 388.684 -4.62849 2.50314 0
M  V30 4332 O 387.71 -4.67922 3.24095 0
M  V30 4333 N 388.912 -5.58726 1.57499 0
M  V30 4334 H 391.677 -1.62745 2.51663 0
M  V30 4335 H 389.238 -0.753411 1.43302 0
M  V30 4336 H 391.23 -3.83803 1.28365 0
M  V30 4337 H 389.8 -3.07893 0.540445 0
M  V30 4338 H 389.02 -2.58455 2.97648 0
M  V30 4339 H 390.308 -3.67476 3.51907 0
M  V30 4340 H 389.706 -5.57376 0.966876 0
M  V30 4341 H 388.263 -6.34523 1.49078 0
M  V30 4342 N 391.696 -1.35014 -0.812953 0
M  V30 4343 C 392.942 -1.2812 -1.57204 0
M  V30 4344 C 393.275 0.145869 -1.93651 0
M  V30 4345 O 392.55 1.0937 -1.60836 0
M  V30 4346 C 392.833 -2.18162 -2.86492 0
M  V30 4347 C 392.686 -3.69454 -2.56561 0
M  V30 4348 C 394.005 -2.07439 -3.88145 0
M  V30 4349 H 391.124 -0.466746 -0.570366 0
M  V30 4350 H 393.766 -1.65357 -0.935783 0
M  V30 4351 H 391.916 -1.86535 -3.40789 0
M  V30 4352 H 393.588 -4.11493 -2.08497 0
M  V30 4353 H 391.831 -3.9005 -1.89851 0
M  V30 4354 H 392.502 -4.27835 -3.48799 0
M  V30 4355 H 394.978 -2.35228 -3.4323 0
M  V30 4356 H 393.854 -2.7265 -4.76396 0
M  V30 4357 H 394.115 -1.05439 -4.29343 0
M  V30 4358 N 393.175 1.03435 -1.18907 0
M  V30 4359 C 394.423 1.76394 -0.986382 0
M  V30 4360 C 394.744 1.88883 0.484567 0
M  V30 4361 O 394.014 1.41843 1.3512 0
M  V30 4362 H 392.594 0.65344 -0.361975 0
M  V30 4363 H 395.256 1.248 -1.49703 0
M  V30 4364 H 394.352 2.77424 -1.42978 0
M  V30 4365 N 394.653 0.992116 1.22453 0
M  V30 4366 C 395.9 0.667534 1.91181 0
M  V30 4367 C 396.228 -0.800317 1.77271 0
M  V30 4368 O 395.483 -1.59421 1.13505 0
M  V30 4369 C 395.782 1.01832 3.42586 0
M  V30 4370 C 395.448 2.47831 3.76684 0
M  V30 4371 C 394.11 2.87729 3.85701 0
M  V30 4372 C 396.462 3.42466 3.92895 0
M  V30 4373 C 393.79 4.21252 4.08367 0
M  V30 4374 C 396.142 4.75648 4.17064 0
M  V30 4375 C 394.806 5.15288 4.24305 0
M  V30 4376 H 394.076 0.244268 0.699581 0
M  V30 4377 H 396.723 1.24816 1.45235 0
M  V30 4378 H 395.028 0.355769 3.90181 0
M  V30 4379 H 396.725 0.745228 3.94014 0
M  V30 4380 H 393.315 2.15905 3.70247 0
M  V30 4381 H 397.499 3.12814 3.85307 0
M  V30 4382 H 392.755 4.51554 4.122 0
M  V30 4383 H 396.929 5.48924 4.2855 0
M  V30 4384 H 394.556 6.18769 4.41621 0
M  V30 4385 N 396.131 -1.37776 0.765217 0
M  V30 4386 C 397.361 -2.03828 0.337277 0
M  V30 4387 C 397.769 -1.57841 -1.04321 0
M  V30 4388 O 397.112 -0.752043 -1.67601 0
M  V30 4389 C 397.174 -3.58292 0.294407 0
M  V30 4390 C 396.838 -4.27384 1.61838 0
M  V30 4391 C 397.835 -4.51956 2.56967 0
M  V30 4392 C 395.52 -4.65345 1.89102 0
M  V30 4393 C 397.514 -5.13536 3.77571 0
M  V30 4394 C 395.201 -5.26647 3.09978 0
M  V30 4395 C 396.199 -5.50679 4.04032 0
M  V30 4396 O 395.887 -6.10702 5.2278 0
M  V30 4397 H 395.619 -0.661292 0.140248 0
M  V30 4398 H 398.173 -1.77222 1.03834 0
M  V30 4399 H 396.403 -3.83918 -0.462983 0
M  V30 4400 H 398.092 -4.05763 -0.105581 0
M  V30 4401 H 398.858 -4.23048 2.37183 0
M  V30 4402 H 394.737 -4.45978 1.16725 0
M  V30 4403 H 398.281 -5.3221 4.50997 0
M  V30 4404 H 394.178 -5.54979 3.29649 0
M  V30 4405 H 394.946 -6.29183 5.23517 0
M  V30 4406 N 397.609 -0.515225 -1.4894 0
M  V30 4407 C 398.542 0.302518 -2.26186 0
M  V30 4408 C 399.52 0.957895 -1.31389 0
M  V30 4409 O 400.704 0.985198 -1.60705 0
M  V30 4410 C 397.831 1.42719 -3.07163 0
M  V30 4411 C 396.877 0.884736 -4.17223 0
M  V30 4412 S 397.71 -0.235767 -5.34981 0
M  V30 4413 C 398.866 0.891731 -6.19515 0
M  V30 4414 H 399.099 -0.353076 -2.95196 0
M  V30 4415 H 396.632 -0.300753 -1.51443 0
M  V30 4416 H 398.59 2.07152 -3.54398 0
M  V30 4417 H 397.251 2.05445 -2.37595 0
M  V30 4418 H 396.444 1.72801 -4.73451 0
M  V30 4419 H 396.046 0.317362 -3.72651 0
M  V30 4420 H 398.338 1.79377 -6.53322 0
M  V30 4421 H 399.281 0.367751 -7.07144 0
M  V30 4422 H 399.689 1.16548 -5.52338 0
M  V30 4423 N 399.087 1.5561 -0.249682 0
M  V30 4424 C 400.02 2.17537 0.689408 0
M  V30 4425 C 400.998 1.12829 1.17083 0
M  V30 4426 O 402.182 1.41229 1.24846 0
M  V30 4427 C 399.309 2.77828 1.93725 0
M  V30 4428 C 398.355 3.95615 1.59346 0
M  V30 4429 S 399.188 5.30988 0.69367 0
M  V30 4430 C 400.344 5.94734 1.95046 0
M  V30 4431 H 400.577 2.96852 0.163142 0
M  V30 4432 H 398.11 1.54362 -0.0341166 0
M  V30 4433 H 400.068 3.13199 2.65361 0
M  V30 4434 H 398.729 1.98454 2.43465 0
M  V30 4435 H 397.922 4.364 2.52132 0
M  V30 4436 H 397.524 3.61535 0.957512 0
M  V30 4437 H 399.816 6.12419 2.89739 0
M  V30 4438 H 400.759 6.90109 1.58604 0
M  V30 4439 H 401.167 5.23832 2.10381 0
M  V30 4440 N 400.565 -0.0233959 1.57583 0
M  V30 4441 C 401.813 -0.711654 1.89156 0
M  V30 4442 C 402.134 -1.75591 0.848096 0
M  V30 4443 O 401.404 -1.95547 -0.117566 0
M  V30 4444 H 399.984 -0.265835 0.698098 0
M  V30 4445 H 402.646 0.0119948 1.94896 0
M  V30 4446 H 401.742 -1.19766 2.88206 0
M  V30 4447 N 402.043 -1.548 -0.295768 0
M  V30 4448 C 403.289 -1.74588 -1.03184 0
M  V30 4449 C 403.622 -0.532962 -1.86744 0
M  V30 4450 O 402.897 0.469872 -1.88739 0
M  V30 4451 C 403.18 -3.03791 -1.93347 0
M  V30 4452 C 403.033 -4.35392 -1.12933 0
M  V30 4453 C 404.352 -3.28892 -2.92435 0
M  V30 4454 H 401.471 -0.635221 -0.373715 0
M  V30 4455 H 404.113 -1.87519 -0.30606 0
M  V30 4456 H 402.263 -2.92898 -2.55232 0
M  V30 4457 H 403.935 -4.58211 -0.532943 0
M  V30 4458 H 402.178 -4.31642 -0.432168 0
M  V30 4459 H 402.849 -5.22074 -1.79284 0
M  V30 4460 H 405.325 -3.39429 -2.4068 0
M  V30 4461 H 404.201 -4.20603 -3.52682 0
M  V30 4462 H 404.462 -2.47437 -3.6637 0
M  V30 4463 N 403.521 0.559213 -1.47345 0
M  V30 4464 C 404.751 1.33999 -1.57251 0
M  V30 4465 C 405.159 1.87905 -0.220978 0
M  V30 4466 O 404.502 1.65577 0.795617 0
M  V30 4467 C 404.564 2.54798 -2.53611 0
M  V30 4468 C 404.228 2.22192 -3.99349 0
M  V30 4469 C 405.225 1.79607 -4.87891 0
M  V30 4470 C 402.91 2.33613 -4.44669 0
M  V30 4471 C 404.904 1.48868 -6.19772 0
M  V30 4472 C 402.591 2.02487 -5.76578 0
M  V30 4473 C 403.589 1.60183 -6.63951 0
M  V30 4474 O 403.277 1.29451 -7.93409 0
M  V30 4475 H 403.009 0.414858 -0.533731 0
M  V30 4476 H 405.563 0.684465 -1.9366 0
M  V30 4477 H 403.793 3.23235 -2.12265 0
M  V30 4478 H 405.482 3.16873 -2.53666 0
M  V30 4479 H 406.248 1.70278 -4.54126 0
M  V30 4480 H 402.127 2.65501 -3.76869 0
M  V30 4481 H 405.671 1.15775 -6.87926 0
M  V30 4482 H 401.568 2.11448 -6.09885 0
M  V30 4483 H 402.336 1.43098 -8.05894 0
M  V30 4484 N 404.999 1.35443 0.805782 0
M  V30 4485 C 405.962 1.28301 1.89925 0
M  V30 4486 C 406.962 0.194285 1.59622 0
M  V30 4487 O 408.152 0.448036 1.6834 0
M  V30 4488 C 405.284 0.984997 3.2636 0
M  V30 4489 H 406.477 2.2553 1.97677 0
M  V30 4490 H 404.03 1.19979 1.00173 0
M  V30 4491 H 404.765 0.016603 3.24296 0
M  V30 4492 H 404.55 1.77269 3.4974 0
M  V30 4493 H 406.04 0.960651 4.064 0
M  V30 4494 N 406.477 -1.02803 1.19454 0
M  V30 4495 C 407.888 -1.57667 0.999899 0
M  V30 4496 C 408.239 -1.91041 -0.446956 0
M  V30 4497 O 407.364 -1.70978 -1.32648 0
M  V30 4498 C 407.959 -2.86477 1.80877 0
M  V30 4499 C 406.518 -3.37911 1.65811 0
M  V30 4500 C 405.665 -2.11343 1.79526 0
M  V30 4501 H 408.616 -0.853214 1.33813 0
M  V30 4502 H 408.637 -3.57408 1.30536 0
M  V30 4503 H 408.149 -2.62155 2.86175 0
M  V30 4504 H 406.25 -3.67218 0.63102 0
M  V30 4505 H 406.363 -4.10885 2.46395 0
M  V30 4506 H 404.727 -2.23254 1.22596 0
M  V30 4507 H 405.51 -1.89461 2.86285 0
M  V30 4508 N 407.956 -0.998596 -1.21925 0
M  V30 4509 C 409.184 -0.696286 -1.94832 0
M  V30 4510 C 409.599 0.740032 -1.73692 0
M  V30 4511 O 408.956 1.5 -1.03953 0
M  V30 4512 C 409.007 -0.999833 -3.47398 0
M  V30 4513 O 408.728 -2.37972 -3.67833 0
M  V30 4514 C 410.229 -0.716025 -4.37479 0
M  V30 4515 H 407.449 -0.257111 -0.619786 0
M  V30 4516 H 409.993 -1.33491 -1.54921 0
M  V30 4517 H 408.148 -0.406918 -3.85257 0
M  V30 4518 H 408.562 -2.48338 -4.61983 0
M  V30 4519 H 410.036 -0.978642 -5.43256 0
M  V30 4520 H 410.513 0.349968 -4.37803 0
M  V30 4521 H 411.119 -1.29025 -4.05256 0
M  V30 4522 N 409.434 1.37368 -0.772513 0
M  V30 4523 C 410.364 2.32856 -0.173304 0
M  V30 4524 C 411.345 1.55818 0.682262 0
M  V30 4525 O 412.53 1.84052 0.619566 0
M  V30 4526 C 409.66 3.40048 0.706007 0
M  V30 4527 C 408.614 4.27973 -0.0483144 0
M  V30 4528 C 407.94 5.26184 0.950491 0
M  V30 4529 C 409.24 5.07665 -1.22776 0
M  V30 4530 H 410.934 2.83217 -0.971002 0
M  V30 4531 H 408.48 1.3617 -0.468377 0
M  V30 4532 H 410.433 4.05827 1.13501 0
M  V30 4533 H 409.157 2.88214 1.53623 0
M  V30 4534 H 407.816 3.63726 -0.458107 0
M  V30 4535 H 407.464 4.7063 1.77529 0
M  V30 4536 H 407.164 5.85872 0.450314 0
M  V30 4537 H 408.688 5.94838 1.37842 0
M  V30 4538 H 410.102 5.66578 -0.875366 0
M  V30 4539 H 408.499 5.76681 -1.66007 0
M  V30 4540 H 409.569 4.40294 -2.03149 0
M  V30 4541 N 410.912 0.523116 1.48665 0
M  V30 4542 C 411.842 -0.23231 2.32342 0
M  V30 4543 C 412.823 -0.941637 1.41659 0
M  V30 4544 O 414.008 -0.928751 1.70552 0
M  V30 4545 C 411.138 -1.28387 3.22698 0
M  V30 4546 C 410.092 -0.693098 4.22351 0
M  V30 4547 C 409.418 -1.8468 5.01794 0
M  V30 4548 C 410.718 0.33063 5.21252 0
M  V30 4549 H 412.412 0.466192 2.95748 0
M  V30 4550 H 409.958 0.225643 1.42221 0
M  V30 4551 H 411.911 -1.82024 3.80059 0
M  V30 4552 H 410.635 -2.01186 2.57278 0
M  V30 4553 H 409.294 -0.178299 3.66166 0
M  V30 4554 H 408.942 -2.56301 4.32804 0
M  V30 4555 H 408.642 -1.45747 5.69238 0
M  V30 4556 H 410.166 -2.38709 5.62006 0
M  V30 4557 H 411.58 -0.118407 5.73178 0
M  V30 4558 H 409.977 0.636974 5.9671 0
M  V30 4559 H 411.047 1.23883 4.68808 0
M  V30 4560 N 412.39 -1.55475 0.257931 0
M  V30 4561 C 413.639 -1.98383 -0.364275 0
M  V30 4562 C 413.952 -1.14952 -1.58258 0
M  V30 4563 O 415.158 -1.47924 -2.27664 0
M  V30 4564 C 413.614 -3.53037 -0.699479 0
M  V30 4565 C 413.222 -4.45223 0.498046 0
M  V30 4566 C 414.966 -4.04575 -1.28526 0
M  V30 4567 C 412.873 -5.91238 0.138383 0
M  V30 4568 H 411.803 -0.740911 -0.13988 0
M  V30 4569 H 414.454 -1.79936 0.359883 0
M  V30 4570 H 412.836 -3.6722 -1.48207 0
M  V30 4571 H 414.01 -4.42803 1.27522 0
M  V30 4572 H 412.325 -4.04226 0.999503 0
M  V30 4573 H 414.922 -5.11196 -1.56788 0
M  V30 4574 H 415.265 -3.5258 -2.21344 0
M  V30 4575 H 415.798 -3.93762 -0.565337 0
M  V30 4576 H 412.537 -6.47294 1.03398 0
M  V30 4577 H 412.057 -5.96768 -0.602374 0
M  V30 4578 H 413.736 -6.46413 -0.27553 0
M  V30 4579 N 413.868 0.0150385 -1.57593 0
M  V30 4580 C 415.114 0.704043 -1.90187 0
M  V30 4581 C 415.447 1.74249 -0.857366 0
M  V30 4582 O 414.722 1.94092 0.125843 0
M  V30 4583 C 415.005 1.36087 -3.33395 0
M  V30 4584 C 414.858 0.334981 -4.48551 0
M  V30 4585 C 416.177 2.29112 -3.7576 0
M  V30 4586 H 413.296 0.254475 -0.691673 0
M  V30 4587 H 415.938 -0.0331678 -1.89971 0
M  V30 4588 H 414.088 1.98922 -3.3371 0
M  V30 4589 H 415.76 -0.292534 -4.60372 0
M  V30 4590 H 414.003 -0.344325 -4.32431 0
M  V30 4591 H 414.674 0.833316 -5.45674 0
M  V30 4592 H 417.15 1.76308 -3.76902 0
M  V30 4593 H 416.026 2.72043 -4.76743 0
M  V30 4594 H 416.287 3.16385 -3.08793 0
M  V30 4595 N 415.346 1.54954 0.287554 0
M  V30 4596 C 416.592 1.75132 1.02257 0
M  V30 4597 C 416.925 0.542858 1.86458 0
M  V30 4598 O 416.2 -0.459856 1.88986 0
M  V30 4599 C 416.483 3.04812 1.91733 0
M  V30 4600 C 416.336 4.35985 1.10622 0
M  V30 4601 C 417.655 3.30438 2.90687 0
M  V30 4602 H 414.774 0.637194 0.370341 0
M  V30 4603 H 417.416 1.87678 0.296111 0
M  V30 4604 H 415.566 2.94247 2.53675 0
M  V30 4605 H 417.238 4.58487 0.508636 0
M  V30 4606 H 415.481 4.31865 0.409271 0
M  V30 4607 H 416.152 5.23017 1.76513 0
M  V30 4608 H 418.628 3.40701 2.38877 0
M  V30 4609 H 417.504 4.22467 3.50447 0
M  V30 4610 H 417.765 2.49377 3.65053 0
M  V30 4611 N 416.824 -0.551391 1.4764 0
M  V30 4612 C 417.754 -1.66757 1.63445 0
M  V30 4613 C 418.735 -1.63077 0.483742 0
M  V30 4614 O 419.92 -1.80607 0.71377 0
M  V30 4615 C 417.05 -3.05387 1.65396 0
M  V30 4616 C 416.004 -3.23918 2.79752 0
M  V30 4617 C 415.33 -4.63393 2.66779 0
M  V30 4618 C 416.63 -3.08735 4.21284 0
M  V30 4619 H 418.324 -1.53786 2.56886 0
M  V30 4620 H 415.87 -0.738415 1.23626 0
M  V30 4621 H 417.823 -3.83325 1.75043 0
M  V30 4622 H 416.547 -3.19332 0.685195 0
M  V30 4623 H 415.206 -2.48391 2.69625 0
M  V30 4624 H 414.854 -4.74144 1.67918 0
M  V30 4625 H 414.554 -4.7674 3.43501 0
M  V30 4626 H 416.078 -5.43458 2.78364 0
M  V30 4627 H 417.492 -3.76484 4.32357 0
M  V30 4628 H 415.889 -3.33588 4.98838 0
M  V30 4629 H 416.959 -2.0541 4.39243 0
M  V30 4630 N 418.302 -1.35869 -0.798587 0
M  V30 4631 C 419.527 -1.32883 -1.59238 0
M  V30 4632 C 419.952 0.0894587 -1.87887 0
M  V30 4633 O 419.31 1.05869 -1.47178 0
M  V30 4634 C 419.358 -2.14892 -2.89575 0
M  V30 4635 O 418.462 -1.53512 -3.82763 0
M  V30 4636 H 417.803 -0.455236 -0.48338 0
M  V30 4637 H 420.333 -1.79024 -0.990539 0
M  V30 4638 H 420.343 -2.27139 -3.38928 0
M  V30 4639 H 419.018 -3.17998 -2.68049 0
M  V30 4640 H 417.595 -1.50153 -3.41334 0
M  V30 4641 N 419.78 1.02168 -1.19998 0
M  V30 4642 C 421.026 1.7606 -1.01855 0
M  V30 4643 C 421.381 1.87178 0.445222 0
M  V30 4644 O 420.674 1.3828 1.32624 0
M  V30 4645 C 420.868 3.18081 -1.62969 0
M  V30 4646 C 420.697 3.20809 -3.15137 0
M  V30 4647 C 419.467 3.28342 -3.84083 0
M  V30 4648 C 421.665 3.07268 -4.1242 0
M  V30 4649 N 419.647 3.2052 -5.23584 0
M  V30 4650 C 421.018 3.0716 -5.38566 0
M  V30 4651 C 423.073 2.91448 -4.03686 0
M  V30 4652 C 421.776 2.92853 -6.56985 0
M  V30 4653 C 423.802 2.78494 -5.21723 0
M  V30 4654 C 423.164 2.79046 -6.46771 0
M  V30 4655 H 419.263 0.655192 -0.426905 0
M  V30 4656 H 421.847 1.21564 -1.52087 0
M  V30 4657 H 420.018 3.70882 -1.15329 0
M  V30 4658 H 421.75 3.80375 -1.38192 0
M  V30 4659 H 418.505 3.34859 -3.34913 0
M  V30 4660 H 418.929 3.19997 -5.96599 0
M  V30 4661 H 423.571 2.89838 -3.07821 0
M  V30 4662 H 421.289 2.93213 -7.53028 0
M  V30 4663 H 424.875 2.67278 -5.16773 0
M  V30 4664 H 423.755 2.69134 -7.36571 0
M  V30 4665 N 421.258 1.00505 1.21394 0
M  V30 4666 C 422.188 0.585684 2.26035 0
M  V30 4667 C 423.169 -0.393525 1.65485 0
M  V30 4668 O 424.354 -0.281497 1.92149 0
M  V30 4669 C 421.484 -0.0884283 3.47187 0
M  V30 4670 C 420.438 0.810567 4.20254 0
M  V30 4671 C 419.764 0.00286382 5.347 0
M  V30 4672 C 421.064 2.1132 4.77641 0
M  V30 4673 H 422.758 1.46039 2.61368 0
M  V30 4674 H 420.304 0.703648 1.25638 0
M  V30 4675 H 422.257 -0.393286 4.19561 0
M  V30 4676 H 420.981 -0.997766 3.10986 0
M  V30 4677 H 419.64 1.09925 3.49731 0
M  V30 4678 H 419.288 -0.907765 4.94741 0
M  V30 4679 H 418.988 0.601444 5.84514 0
M  V30 4680 H 420.512 -0.295808 6.09883 0
M  V30 4681 H 421.926 1.87148 5.41893 0
M  V30 4682 H 420.323 2.66164 5.37845 0
M  V30 4683 H 421.393 2.78393 3.9702 0
M  V30 4684 N 422.737 -1.36956 0.779787 0
M  V30 4685 C 423.962 -2.04283 0.358224 0
M  V30 4686 C 424.387 -1.58422 -1.01411 0
M  V30 4687 O 423.745 -0.748179 -1.65142 0
M  V30 4688 C 423.793 -3.58152 0.419479 0
M  V30 4689 O 422.897 -4.08342 -0.577142 0
M  V30 4690 H 422.238 -0.645967 0.153698 0
M  V30 4691 H 424.768 -1.75108 1.05822 0
M  V30 4692 H 424.778 -4.07041 0.279636 0
M  V30 4693 H 423.453 -3.90886 1.42061 0
M  V30 4694 H 422.03 -3.70751 -0.399755 0
M  V30 4695 N 424.215 -0.530993 -1.48385 0
M  V30 4696 C 425.462 0.0027373 -2.025 0
M  V30 4697 C 425.79 1.34186 -1.40799 0
M  V30 4698 O 425.045 1.88 -0.543544 0
M  V30 4699 C 425.344 0.172742 -3.56982 0
M  V30 4700 C 425.01 -1.09215 -4.37473 0
M  V30 4701 C 423.672 -1.43881 -4.59186 0
M  V30 4702 C 426.024 -1.93153 -4.84088 0
M  V30 4703 C 423.352 -2.62381 -5.2476 0
M  V30 4704 C 425.704 -3.10833 -5.50968 0
M  V30 4705 C 424.368 -3.45843 -5.70919 0
M  V30 4706 H 423.638 0.00100165 -0.740999 0
M  V30 4707 H 426.285 -0.697219 -1.78357 0
M  V30 4708 H 424.59 0.955473 -3.79971 0
M  V30 4709 H 426.287 0.600642 -3.96476 0
M  V30 4710 H 422.877 -0.812177 -4.20834 0
M  V30 4711 H 427.061 -1.67683 -4.67115 0
M  V30 4712 H 422.317 -2.89707 -5.38405 0
M  V30 4713 H 426.491 -3.7618 -5.86056 0
M  V30 4714 H 424.118 -4.37764 -6.21503 0
M  V30 4715 N 425.693 1.55336 -0.266172 0
M  V30 4716 C 426.939 2.00423 0.346714 0
M  V30 4717 C 427.294 1.15132 1.54151 0
M  V30 4718 O 426.587 0.211289 1.90431 0
M  V30 4719 C 426.781 3.48606 0.787957 0
M  V30 4720 C 426.61 4.48236 -0.362535 0
M  V30 4721 C 425.38 4.98211 -0.843445 0
M  V30 4722 C 427.578 5.00199 -1.19603 0
M  V30 4723 N 425.56 5.81625 -1.96434 0
M  V30 4724 C 426.931 5.80973 -2.16497 0
M  V30 4725 C 428.986 4.82458 -1.2304 0
M  V30 4726 C 427.689 6.45896 -3.1656 0
M  V30 4727 C 429.715 5.48174 -2.21944 0
M  V30 4728 C 429.077 6.28751 -3.17571 0
M  V30 4729 H 425.176 0.776535 0.0922914 0
M  V30 4730 H 427.76 1.90792 -0.388154 0
M  V30 4731 H 425.931 3.58597 1.49207 0
M  V30 4732 H 427.663 3.80538 1.37742 0
M  V30 4733 H 424.418 4.71696 -0.424271 0
M  V30 4734 H 424.842 6.28025 -2.52813 0
M  V30 4735 H 429.484 4.19774 -0.504903 0
M  V30 4736 H 427.202 7.07734 -3.90048 0
M  V30 4737 H 430.788 5.36392 -2.25333 0
M  V30 4738 H 429.668 6.78703 -3.92851 0
M  V30 4739 N 427.171 -0.0066808 1.57599 0
M  V30 4740 C 428.42 -0.692078 1.89455 0
M  V30 4741 C 428.733 -1.75306 0.867586 0
M  V30 4742 O 429.939 -2.49262 1.07614 0
M  V30 4743 C 428.395 -1.2821 3.36289 0
M  V30 4744 C 428.003 -0.256291 4.47266 0
M  V30 4745 C 429.747 -1.94608 3.77264 0
M  V30 4746 C 427.654 -0.855927 5.85173 0
M  V30 4747 H 426.584 -0.262252 0.706923 0
M  V30 4748 H 429.235 0.052769 1.83424 0
M  V30 4749 H 427.617 -2.0774 3.37135 0
M  V30 4750 H 428.791 0.513923 4.57925 0
M  V30 4751 H 427.106 0.306862 4.15268 0
M  V30 4752 H 429.703 -2.40364 4.77629 0
M  V30 4753 H 430.046 -2.77382 3.10427 0
M  V30 4754 H 430.579 -1.21822 3.78688 0
M  V30 4755 H 427.318 -0.0671161 6.55466 0
M  V30 4756 H 426.838 -1.59546 5.78191 0
M  V30 4757 H 428.517 -1.35658 6.32618 0
M  V30 4758 N 428.649 -1.55105 -0.279332 0
M  V30 4759 C 429.597 -1.88333 -1.36505 0
M  V30 4760 C 430.591 -0.759043 -1.51443 0
M  V30 4761 O 431.797 -0.943312 -1.53302 0
M  V30 4762 H 428.172 -0.59766 -0.456406 0
M  V30 4763 H 430.143 -2.79041 -1.05728 0
M  V30 4764 C 428.892 -2.16628 -2.7197 0
M  V30 4765 H 428.215 -3.02624 -2.61264 0
M  V30 4766 H 429.655 -2.43803 -3.46895 0
M  V30 4767 C 428.114 -0.971807 -3.22579 0
M  V30 4768 O 428.644 -0.203228 -4.01186 0
M  V30 4769 N 426.85 -0.771238 -2.80179 0
M  V30 4770 H 426.397 -1.39792 -2.1637 0
M  V30 4771 H 426.355 0.0263667 -3.14389 0
M  V30 4772 N 430.127 0.543554 -1.4793 0
M  V30 4773 C 431.538 1.12561 -1.48953 0
M  V30 4774 C 431.889 1.94578 -0.251754 0
M  V30 4775 O 431.014 2.0665 0.642255 0
M  V30 4776 C 431.609 2.04801 -2.69892 0
M  V30 4777 C 430.168 2.58251 -2.73831 0
M  V30 4778 C 429.315 1.34918 -2.42265 0
M  V30 4779 H 432.266 0.32947 -1.55242 0
M  V30 4780 H 432.287 2.88886 -2.47639 0
M  V30 4781 H 431.799 1.4508 -3.59963 0
M  V30 4782 H 429.9 3.21732 -1.87934 0
M  V30 4783 H 430.013 2.98312 -3.74895 0
M  V30 4784 H 428.377 1.66046 -1.93134 0
M  V30 4785 H 429.16 0.769693 -3.3456 0
M  V30 4786 N 431.605 1.3629 0.791371 0
M  V30 4787 C 432.882 1.20962 1.53712 0
M  V30 4788 C 433.262 -0.205021 2.10102 0
M  V30 4789 O 432.61 -1.21042 1.93807 0
M  V30 4790 C 432.82 2.29002 2.63361 0
M  V30 4791 C 434.168 2.65572 3.31295 0
M  V30 4792 O 435.192 2.2803 2.73643 0
M  V30 4793 O 434.051 3.3018 4.35481 0
M  V30 4794 H 431.145 0.47086 0.679867 0
M  V30 4795 H 433.691 1.48016 0.830021 0
M  V30 4796 H 432.463 3.2382 2.19674 0
M  V30 4797 H 432.086 2.03303 3.41692 0
M  V30 4798 N 433.083 -1.0153 1.20538 0
M  V30 4799 C 434.046 -2.0826 0.957098 0
M  V30 4800 C 435.046 -1.60657 -0.0678655 0
M  V30 4801 O 436.236 -1.73385 0.168332 0
M  V30 4802 C 433.368 -3.38033 0.441188 0
M  V30 4803 H 434.561 -2.31719 1.90384 0
M  V30 4804 H 432.114 -1.1835 1.02093 0
M  V30 4805 H 432.849 -3.20249 -0.510961 0
M  V30 4806 H 432.634 -3.73911 1.18038 0
M  V30 4807 H 434.124 -4.16613 0.287009 0
M  V30 4808 N 434.561 -1.01147 -1.20859 0
M  V30 4809 C 435.786 -0.716698 -1.94623 0
M  V30 4810 C 436.211 0.715415 -1.73964 0
M  V30 4811 O 435.569 1.49157 -1.03062 0
M  V30 4812 C 435.617 -1.0513 -3.44935 0
M  V30 4813 O 434.721 -0.160131 -4.12089 0
M  V30 4814 H 434.062 -0.266404 -0.608214 0
M  V30 4815 H 436.592 -1.35346 -1.53436 0
M  V30 4816 H 436.602 -1.00086 -3.95533 0
M  V30 4817 H 435.277 -2.09475 -3.59295 0
M  V30 4818 H 433.854 -0.267657 -3.71938 0
M  V30 4819 N 436.039 1.36541 -0.78704 0
M  V30 4820 C 437.002 2.28413 -0.189778 0
M  V30 4821 C 438.002 1.48719 0.611499 0
M  V30 4822 O 439.192 1.68737 0.432842 0
M  V30 4823 C 436.324 3.32824 0.737638 0
M  V30 4824 H 437.517 2.82743 -0.999831 0
M  V30 4825 H 435.07 1.46065 -0.556298 0
M  V30 4826 H 435.805 2.83646 1.57212 0
M  V30 4827 H 435.59 3.91752 0.165044 0
M  V30 4828 H 437.08 4.0144 1.15047 0
M  V30 4829 N 437.518 0.538854 1.48102 0
M  V30 4830 C 438.481 -0.208395 2.28251 0
M  V30 4831 C 439.481 -0.859656 1.35892 0
M  V30 4832 O 440.671 -0.71834 1.58699 0
M  V30 4833 C 437.803 -1.30252 3.15035 0
M  V30 4834 H 438.996 0.495407 2.9578 0
M  V30 4835 H 436.549 0.295112 1.53489 0
M  V30 4836 H 437.284 -2.0393 2.52157 0
M  V30 4837 H 437.069 -0.840551 3.82985 0
M  V30 4838 H 438.559 -1.82787 3.75471 0
M  V30 4839 N 438.996 -1.55193 0.274407 0
M  V30 4840 C 440.412 -1.59401 -0.0797543 0
M  V30 4841 C 440.612 -1.29162 -1.54659 0
M  V30 4842 O 439.668 -1.05215 -2.29534 0
M  V30 4843 C 440.981 -2.99257 0.294238 0
M  V30 4844 C 442.529 -3.12072 0.240796 0
M  V30 4845 C 443.004 -4.54194 0.589218 0
M  V30 4846 N 444.495 -4.60033 0.540744 0
M  V30 4847 C 445.23 -5.68027 0.783147 0
M  V30 4848 N 444.726 -6.8417 1.09013 0
M  V30 4849 N 446.519 -5.57572 0.711993 0
M  V30 4850 H 438.67 -1.73113 1.23067 0
M  V30 4851 H 440.933 -0.807197 0.497129 0
M  V30 4852 H 440.639 -3.26217 1.31435 0
M  V30 4853 H 440.513 -3.75427 -0.365281 0
M  V30 4854 H 442.9 -2.84877 -0.770024 0
M  V30 4855 H 442.981 -2.38117 0.934563 0
M  V30 4856 H 442.625 -4.82115 1.59772 0
M  V30 4857 H 442.555 -5.26448 -0.126331 0
M  V30 4858 H 445.046 -3.76599 0.313327 0
M  V30 4859 H 445.359 -7.6243 1.26178 0
M  V30 4860 H 443.704 -6.85787 1.12789 0
M  V30 4861 H 446.895 -4.65714 0.472014 0
M  V30 4862 H 447.068 -6.41659 0.90429 0
M  V30 4863 N 440.474 -0.00167713 -1.576 0
M  V30 4864 C 441.72 0.683832 -1.90923 0
M  V30 4865 C 442.053 1.7333 -0.875799 0
M  V30 4866 O 441.328 1.94215 0.10525 0
M  V30 4867 C 441.611 1.32543 -3.3482 0
M  V30 4868 C 441.464 0.287387 -4.48881 0
M  V30 4869 C 442.783 2.25114 -3.78169 0
M  V30 4870 H 439.902 0.247125 -0.694333 0
M  V30 4871 H 442.544 -0.0533149 -1.89925 0
M  V30 4872 H 440.694 1.95372 -3.35801 0
M  V30 4873 H 442.366 -0.341346 -4.60035 0
M  V30 4874 H 440.609 -0.39017 -4.32042 0
M  V30 4875 H 441.28 0.775393 -5.46527 0
M  V30 4876 H 443.756 1.723 -3.7875 0
M  V30 4877 H 442.632 2.66971 -4.79602 0
M  V30 4878 H 442.893 3.13092 -3.12131 0
M  V30 4879 N 441.952 1.55251 0.271103 0
M  V30 4880 C 443.363 1.66635 0.842007 0
M  V30 4881 C 443.714 0.594631 1.86972 0
M  V30 4882 O 442.839 -0.263532 2.14789 0
M  V30 4883 C 443.434 3.02082 1.53401 0
M  V30 4884 C 441.993 3.15487 2.05293 0
M  V30 4885 C 441.14 2.62438 0.895631 0
M  V30 4886 H 444.091 1.58629 0.0474117 0
M  V30 4887 H 444.112 2.95176 2.40107 0
M  V30 4888 H 443.624 3.80062 0.785786 0
M  V30 4889 H 441.725 2.42284 2.83071 0
M  V30 4890 H 441.838 4.22075 2.26693 0
M  V30 4891 H 440.202 2.19644 1.28953 0
M  V30 4892 H 440.985 3.42923 0.160878 0
M  V30 4893 N 443.43 -0.535701 1.48216 0
M  V30 4894 C 444.36 -1.65014 1.65204 0
M  V30 4895 C 445.341 -1.62554 0.501011 0
M  V30 4896 O 446.526 -1.7984 0.732886 0
M  V30 4897 C 443.656 -3.03616 1.68626 0
M  V30 4898 C 442.61 -3.20932 2.83172 0
M  V30 4899 C 441.936 -4.60537 2.71679 0
M  V30 4900 C 443.236 -3.04249 4.24535 0
M  V30 4901 H 444.93 -1.51053 2.58502 0
M  V30 4902 H 442.476 -0.725262 1.24402 0
M  V30 4903 H 444.429 -3.81446 1.79099 0
M  V30 4904 H 443.153 -3.18587 0.719026 0
M  V30 4905 H 441.812 -2.45517 2.72244 0
M  V30 4906 H 441.46 -4.72336 1.72937 0
M  V30 4907 H 441.16 -4.73069 3.48538 0
M  V30 4908 H 442.684 -5.40475 2.84112 0
M  V30 4909 H 444.098 -3.71877 4.36326 0
M  V30 4910 H 442.495 -3.28278 5.02348 0
M  V30 4911 H 443.565 -2.00739 4.41397 0
M  V30 4912 N 444.908 -1.36708 -0.784132 0
M  V30 4913 C 446.156 -1.30972 -1.53918 0
M  V30 4914 C 446.477 0.109086 -1.94695 0
M  V30 4915 O 445.747 1.05048 -1.65353 0
M  V30 4916 H 444.327 -0.481819 -0.570841 0
M  V30 4917 H 446.989 -1.71063 -0.934002 0
M  V30 4918 H 446.085 -1.94061 -2.44431 0
M  V30 4919 N 446.386 1.0089 -1.21074 0
M  V30 4920 C 447.635 1.74019 -1.01981 0
M  V30 4921 C 447.948 1.90408 0.447665 0
M  V30 4922 O 449.154 2.60707 0.757906 0
M  V30 4923 C 447.61 3.13026 -1.77603 0
M  V30 4924 C 447.218 3.04623 -3.28495 0
M  V30 4925 C 448.962 3.90312 -1.66904 0
M  V30 4926 C 446.869 4.38685 -3.96623 0
M  V30 4927 H 445.799 0.652422 -0.377971 0
M  V30 4928 H 448.45 1.12755 -1.44771 0
M  V30 4929 H 446.832 3.74878 -1.27604 0
M  V30 4930 H 448.006 2.52032 -3.85767 0
M  V30 4931 H 446.321 2.40827 -3.39693 0
M  V30 4932 H 448.918 4.8951 -2.15138 0
M  V30 4933 H 449.261 4.11558 -0.62658 0
M  V30 4934 H 449.794 3.35104 -2.14359 0
M  V30 4935 H 446.533 4.22641 -5.01054 0
M  V30 4936 H 446.053 4.91252 -3.4414 0
M  V30 4937 H 447.732 5.075 -4.01314 0
M  V30 4938 N 447.864 1.01787 1.20321 0
M  V30 4939 C 449.111 0.707936 1.89722 0
M  V30 4940 C 449.439 -0.762535 1.78929 0
M  V30 4941 O 448.694 -1.56977 1.16861 0
M  V30 4942 C 448.993 1.09076 3.40349 0
M  V30 4943 C 448.659 2.55765 3.71342 0
M  V30 4944 C 447.321 2.95845 3.79511 0
M  V30 4945 C 449.673 3.50723 3.85542 0
M  V30 4946 C 447.001 4.2982 3.99339 0
M  V30 4947 C 449.353 4.84387 4.06881 0
M  V30 4948 C 448.017 5.24172 4.1328 0
M  V30 4949 H 447.287 0.259052 0.694243 0
M  V30 4950 H 449.934 1.27868 1.42555 0
M  V30 4951 H 448.239 0.438453 3.89339 0
M  V30 4952 H 449.936 0.828636 3.92345 0
M  V30 4953 H 446.526 2.2371 3.65584 0
M  V30 4954 H 450.71 3.20916 3.78585 0
M  V30 4955 H 445.966 4.60196 4.02529 0
M  V30 4956 H 450.14 5.57891 4.1681 0
M  V30 4957 H 447.767 6.27997 4.28396 0
M  V30 4958 N 449.342 -1.36122 0.79427 0
M  V30 4959 C 450.567 -2.03891 0.379871 0
M  V30 4960 C 450.992 -1.59488 -0.997251 0
M  V30 4961 O 450.35 -0.765652 -1.64339 0
M  V30 4962 C 450.398 -3.57687 0.457442 0
M  V30 4963 O 449.502 -4.08931 -0.5338 0
M  V30 4964 H 448.843 -0.6443 0.160541 0
M  V30 4965 H 451.373 -1.73976 1.07673 0
M  V30 4966 H 451.383 -4.06721 0.322792 0
M  V30 4967 H 450.058 -3.89357 1.46199 0
M  V30 4968 H 448.635 -3.71154 -0.360409 0
M  V30 4969 N 450.82 -0.546701 -1.47814 0
M  V30 4970 C 452.066 -0.0187684 -2.02791 0
M  V30 4971 C 452.399 1.32338 -1.42128 0
M  V30 4972 O 451.674 1.85867 -0.573023 0
M  V30 4973 C 451.957 0.0854985 -3.59998 0
M  V30 4974 C 451.81 -1.283 -4.31114 0
M  V30 4975 C 453.129 0.80412 -4.32691 0
M  V30 4976 H 450.248 -0.0082946 -0.736953 0
M  V30 4977 H 452.89 -0.706962 -1.76358 0
M  V30 4978 H 451.04 0.671609 -3.82651 0
M  V30 4979 H 452.712 -1.91151 -4.19832 0
M  V30 4980 H 450.955 -1.86049 -3.91878 0
M  V30 4981 H 451.626 -1.16287 -5.39612 0
M  V30 4982 H 454.102 0.306576 -4.14969 0
M  V30 4983 H 452.978 0.846011 -5.42341 0
M  V30 4984 H 453.239 1.85802 -4.01161 0
M  V30 4985 N 452.299 1.55045 -0.282633 0
M  V30 4986 C 453.229 2.2579 0.595066 0
M  V30 4987 C 454.21 1.25074 1.15284 0
M  V30 4988 O 455.395 1.5381 1.18559 0
M  V30 4989 C 452.525 2.98472 1.77572 0
M  V30 4990 C 451.479 4.0618 1.34914 0
M  V30 4991 C 450.805 4.66477 2.6135 0
M  V30 4992 C 452.105 5.1996 0.493821 0
M  V30 4993 H 453.799 2.994 0.00505653 0
M  V30 4994 H 451.345 1.44 0.000992001 0
M  V30 4995 H 453.298 3.46677 2.39568 0
M  V30 4996 H 452.022 2.2241 2.39168 0
M  V30 4997 H 450.681 3.58797 0.752338 0
M  V30 4998 H 450.329 3.87074 3.2122 0
M  V30 4999 H 450.029 5.39207 2.33516 0
M  V30 5000 H 451.553 5.17435 3.24181 0
M  V30 5001 H 452.967 5.64172 1.01898 0
M  V30 5002 H 451.364 5.99299 0.310047 0
M  V30 5003 H 452.434 4.82462 -0.485593 0
M  V30 5004 N 453.777 0.010035 1.57597 0
M  V30 5005 C 455.002 -0.687021 1.95691 0
M  V30 5006 C 455.427 -1.65952 0.885519 0
M  V30 5007 O 454.785 -1.80633 -0.15543 0
M  V30 5008 C 454.833 -1.3864 3.32884 0
M  V30 5009 O 453.937 -2.50115 3.27897 0
M  V30 5010 H 453.278 -0.181989 0.638573 0
M  V30 5011 H 455.808 0.0662122 2.04493 0
M  V30 5012 H 455.818 -1.74754 3.6868 0
M  V30 5013 H 454.493 -0.673411 4.10412 0
M  V30 5014 H 453.07 -2.16253 3.03791 0
M  V30 5015 N 455.255 -1.55392 -0.262866 0
M  V30 5016 C 456.185 -1.91978 -1.32917 0
M  V30 5017 C 457.166 -0.7828 -1.51017 0
M  V30 5018 O 458.351 -1.04178 -1.63892 0
M  V30 5019 C 455.481 -2.20055 -2.68687 0
M  V30 5020 C 454.435 -3.35854 -2.65304 0
M  V30 5021 C 453.761 -3.49435 -4.04721 0
M  V30 5022 C 455.061 -4.71977 -2.23685 0
M  V30 5023 H 456.755 -2.81292 -1.02544 0
M  V30 5024 H 454.301 -1.3534 -0.491846 0
M  V30 5025 H 456.254 -2.44237 -3.43404 0
M  V30 5026 H 454.978 -1.27551 -3.00663 0
M  V30 5027 H 453.637 -3.11655 -1.93045 0
M  V30 5028 H 453.285 -2.54379 -4.33936 0
M  V30 5029 H 452.985 -4.27297 -4.0335 0
M  V30 5030 H 454.509 -3.7592 -4.81161 0
M  V30 5031 H 455.923 -4.95637 -2.88127 0
M  V30 5032 H 454.32 -5.52828 -2.33456 0
M  V30 5033 H 455.39 -4.70115 -1.18827 0
M  V30 5034 N 456.733 0.527833 -1.48498 0
M  V30 5035 C 457.696 1.61439 -1.62696 0
M  V30 5036 C 458.696 1.52824 -0.500136 0
M  V30 5037 O 459.886 1.56456 -0.765976 0
M  V30 5038 C 457.018 3.01063 -1.59918 0
M  V30 5039 H 458.211 1.50189 -2.59583 0
M  V30 5040 H 455.764 0.750055 -1.37127 0
M  V30 5041 H 456.499 3.17818 -0.645163 0
M  V30 5042 H 456.284 3.08725 -2.41726 0
M  V30 5043 H 457.774 3.80057 -1.73051 0
M  V30 5044 N 458.211 1.37122 0.776871 0
M  V30 5045 C 459.436 1.354 1.57104 0
M  V30 5046 C 459.861 -0.0595562 1.88006 0
M  V30 5047 O 459.219 -1.03514 1.48844 0
M  V30 5048 C 459.267 2.19472 2.8612 0
M  V30 5049 O 458.371 1.59582 3.80273 0
M  V30 5050 H 457.712 0.462869 0.476076 0
M  V30 5051 H 460.242 1.80577 0.961932 0
M  V30 5052 H 460.252 2.32502 3.35271 0
M  V30 5053 H 458.927 3.22222 2.62956 0
M  V30 5054 H 457.504 1.55564 3.38902 0
M  V30 5055 N 459.689 -1.00246 1.21608 0
M  V30 5056 C 460.599 -2.12515 0.993709 0
M  V30 5057 C 461.615 -1.73913 -0.0549939 0
M  V30 5058 O 462.791 -2.00943 0.135619 0
M  V30 5059 C 459.856 -3.42083 0.563953 0
M  V30 5060 C 458.917 -3.94843 1.68516 0
M  V30 5061 C 458.15 -5.18226 1.27582 0
M  V30 5062 O 458.373 -5.70201 0.150506 0
M  V30 5063 O 457.307 -5.64497 2.0887 0
M  V30 5064 H 461.133 -2.34152 1.93407 0
M  V30 5065 H 458.718 -1.10891 1.00118 0
M  V30 5066 H 460.6 -4.20073 0.334194 0
M  V30 5067 H 459.275 -3.21828 -0.347665 0
M  V30 5068 H 458.182 -3.18068 1.96935 0
M  V30 5069 H 459.515 -4.19512 2.5743 0
M  V30 5070 N 461.167 -1.02423 -1.1978 0
M  V30 5071 C 462.407 -0.726635 -1.91048 0
M  V30 5072 C 462.771 0.730947 -1.77542 0
M  V30 5073 O 463.972 1.14141 -2.43362 0
M  V30 5074 C 462.243 -1.15964 -3.38064 0
M  V30 5075 S 463.802 -0.985172 -4.27598 0
M  V30 5076 H 460.62 -0.264679 -0.659899 0
M  V30 5077 H 463.222 -1.31309 -1.44838 0
M  V30 5078 H 461.926 -2.21619 -3.45417 0
M  V30 5079 H 461.457 -0.566274 -3.89303 0
M  V30 5080 H 463.472 0.106946 -4.96085 0
M  V30 5081 N 462.645 1.35699 -0.801477 0
M  V30 5082 C 463.873 2.03157 -0.391768 0
M  V30 5083 C 464.288 1.60412 0.995668 0
M  V30 5084 O 463.645 0.799228 1.64069 0
M  V30 5085 C 463.696 3.58566 -0.459671 0
M  V30 5086 O 463.417 3.99756 -1.7924 0
M  V30 5087 C 464.918 4.4328 -0.0421205 0
M  V30 5088 H 462.138 0.651688 -0.159825 0
M  V30 5089 H 464.682 1.73426 -1.08368 0
M  V30 5090 H 462.837 3.86963 0.183939 0
M  V30 5091 H 463.251 4.94387 -1.75162 0
M  V30 5092 H 464.725 5.51821 -0.140754 0
M  V30 5093 H 465.202 4.27383 1.01196 0
M  V30 5094 H 465.808 4.20168 -0.658687 0
M  V30 5095 N 464.123 0.554532 1.47522 0
M  V30 5096 C 465.351 0.034257 2.06872 0
M  V30 5097 C 465.766 -1.25826 1.40759 0
M  V30 5098 O 465.123 -1.75425 0.503217 0
M  V30 5099 C 465.174 -0.167827 3.6111 0
M  V30 5100 O 464.895 1.07351 4.24744 0
M  V30 5101 C 466.396 -0.72569 4.3732 0
M  V30 5102 H 463.616 0.0446275 0.669514 0
M  V30 5103 H 466.16 0.767181 1.89564 0
M  V30 5104 H 464.315 -0.850872 3.7794 0
M  V30 5105 H 464.729 0.869563 5.17242 0
M  V30 5106 H 466.203 -0.816394 5.45929 0
M  V30 5107 H 466.68 -1.73635 4.0342 0
M  V30 5108 H 467.286 -0.0784292 4.25228 0
M  V30 5109 N 465.601 -1.54893 0.290851 0
M  V30 5110 C 466.531 -2.26103 -0.583084 0
M  V30 5111 C 467.512 -1.25684 -1.14619 0
M  V30 5112 O 468.697 -1.54436 -1.17741 0
M  V30 5113 C 465.827 -2.99409 -1.75987 0
M  V30 5114 C 464.781 -4.0689 -1.32758 0
M  V30 5115 C 464.107 -4.67856 -2.58872 0
M  V30 5116 C 465.407 -5.20215 -0.46624 0
M  V30 5117 H 467.101 -2.99398 0.0108214 0
M  V30 5118 H 464.647 -1.43998 0.00664468 0
M  V30 5119 H 466.6 -3.47943 -2.37727 0
M  V30 5120 H 465.324 -2.23675 -2.37985 0
M  V30 5121 H 463.983 -3.59191 -0.733299 0
M  V30 5122 H 463.631 -3.88772 -3.19163 0
M  V30 5123 H 463.331 -5.40438 -2.30653 0
M  V30 5124 H 464.855 -5.19147 -3.21433 0
M  V30 5125 H 466.269 -5.64704 -0.989047 0
M  V30 5126 H 464.666 -5.99455 -0.27826 0
M  V30 5127 H 465.736 -4.82198 0.511173 0
M  V30 5128 N 467.08 -0.0183926 -1.57589 0
M  V30 5129 C 468.043 0.951986 -2.08494 0
M  V30 5130 C 469.043 1.26092 -0.997874 0
M  V30 5131 O 470.233 1.20304 -1.25987 0
M  V30 5132 C 467.365 2.27165 -2.54182 0
M  V30 5133 H 468.558 0.511307 -2.95509 0
M  V30 5134 H 466.111 0.229444 -1.54607 0
M  V30 5135 H 466.846 2.75884 -1.70465 0
M  V30 5136 H 466.631 2.06057 -3.33591 0
M  V30 5137 H 468.121 2.9674 -2.93828 0
M  V30 5138 N 468.558 1.5553 0.254621 0
M  V30 5139 C 469.521 1.88872 1.29846 0
M  V30 5140 C 470.521 0.764591 1.41459 0
M  V30 5141 O 471.711 1.03265 1.40293 0
M  V30 5142 C 468.843 2.11032 2.67728 0
M  V30 5143 H 470.036 2.82201 1.01502 0
M  V30 5144 H 467.589 1.48303 0.493556 0
M  V30 5145 H 468.324 1.20146 3.01223 0
M  V30 5146 H 468.109 2.92895 2.60682 0
M  V30 5147 H 469.599 2.38038 3.43115 0
M  V30 5148 N 470.036 -0.519951 1.48776 0
M  V30 5149 C 470.946 -1.65025 1.66745 0
M  V30 5150 C 471.962 -1.6508 0.549954 0
M  V30 5151 O 473.138 -1.83848 0.822295 0
M  V30 5152 C 470.203 -3.0146 1.71238 0
M  V30 5153 C 469.264 -3.12182 2.94688 0
M  V30 5154 C 468.497 -4.42109 2.98958 0
M  V30 5155 O 468.72 -5.29799 2.1135 0
M  V30 5156 O 467.654 -4.57406 3.91233 0
M  V30 5157 H 471.48 -1.52801 2.62461 0
M  V30 5158 H 469.065 -0.694157 1.32294 0
M  V30 5159 H 470.947 -3.82584 1.76657 0
M  V30 5160 H 469.622 -3.13988 0.786975 0
M  V30 5161 H 468.529 -2.30316 2.94797 0
M  V30 5162 H 469.862 -3.04574 3.86646 0
M  V30 5163 N 471.514 -1.37532 -0.769588 0
M  V30 5164 C 472.444 -1.36172 -1.89682 0
M  V30 5165 C 473.425 -0.23001 -1.68538 0
M  V30 5166 O 474.61 -0.43069 -1.89364 0
M  V30 5167 C 471.74 -1.1701 -3.26995 0
M  V30 5168 C 470.694 -2.27216 -3.62708 0
M  V30 5169 C 470.02 -1.93174 -4.98586 0
M  V30 5170 C 471.32 -3.6941 -3.69234 0
M  V30 5171 H 473.014 -2.30499 -1.91078 0
M  V30 5172 H 470.56 -1.10953 -0.917902 0
M  V30 5173 H 472.513 -1.14688 -4.05493 0
M  V30 5174 H 471.237 -0.191395 -3.26039 0
M  V30 5175 H 469.896 -2.28697 -2.86519 0
M  V30 5176 H 469.544 -0.938281 -4.94171 0
M  V30 5177 H 469.244 -2.66973 -5.23449 0
M  V30 5178 H 470.768 -1.92443 -5.79481 0
M  V30 5179 H 472.182 -3.70047 -4.37879 0
M  V30 5180 H 470.579 -4.4228 -4.05597 0
M  V30 5181 H 471.649 -4.0288 -2.69844 0
M  V30 5182 N 472.992 0.995999 -1.22138 0
M  V30 5183 C 474.403 1.54961 -1.04135 0
M  V30 5184 C 474.754 1.92159 0.396147 0
M  V30 5185 O 473.879 1.74435 1.28069 0
M  V30 5186 C 474.474 2.81581 -1.88408 0
M  V30 5187 C 473.033 3.33396 -1.74712 0
M  V30 5188 C 472.18 2.06509 -1.85066 0
M  V30 5189 H 475.131 0.817436 -1.36028 0
M  V30 5190 H 475.152 3.53822 -1.39966 0
M  V30 5191 H 474.664 2.54476 -2.93025 0
M  V30 5192 H 472.765 3.65416 -0.728159 0
M  V30 5193 H 472.878 4.04208 -2.57202 0
M  V30 5194 H 471.242 2.19925 -1.28472 0
M  V30 5195 H 472.025 1.81804 -2.91208 0
M  V30 5196 N 474.47 1.03057 1.19235 0
M  V30 5197 C 475.417 0.612832 2.22515 0
M  V30 5198 C 476.387 -0.374224 1.61829 0
M  V30 5199 O 477.572 -0.270501 1.88873 0
M  V30 5200 C 474.712 -0.028475 3.45088 0
M  V30 5201 C 473.825 1.00483 4.20151 0
M  V30 5202 C 472.96 0.333102 5.30155 0
M  V30 5203 C 471.999 1.3522 5.96977 0
M  V30 5204 N 471.136 0.70616 6.9854 0
M  V30 5205 H 475.976 1.49812 2.57605 0
M  V30 5206 H 473.513 0.749658 1.26564 0
M  V30 5207 H 475.471 -0.417548 4.15105 0
M  V30 5208 H 474.101 -0.877334 3.10649 0
M  V30 5209 H 473.153 1.51194 3.49062 0
M  V30 5210 H 474.465 1.77929 4.65986 0
M  V30 5211 H 473.619 -0.110725 6.06599 0
M  V30 5212 H 472.358 -0.473547 4.85396 0
M  V30 5213 H 471.363 1.80627 5.19282 0
M  V30 5214 H 472.588 2.16037 6.4382 0
M  V30 5215 H 470.534 -0.0803667 6.55951 0
M  V30 5216 H 470.451 1.41848 7.42573 0
M  V30 5217 H 471.719 0.286391 7.78974 0
M  V30 5218 N 475.948 -1.35272 0.808662 0
M  V30 5219 C 477.194 -1.99003 0.390581 0
M  V30 5220 C 477.527 -1.63999 -1.0401 0
M  V30 5221 O 476.802 -0.904368 -1.72196 0
M  V30 5222 C 477.085 -3.55454 0.576566 0
M  V30 5223 C 476.938 -4.00249 2.05233 0
M  V30 5224 C 478.257 -4.401 0.00354277 0
M  V30 5225 H 475.376 -0.722917 0.143388 0
M  V30 5226 H 478.018 -1.6039 1.01858 0
M  V30 5227 H 476.168 -3.88477 0.0419766 0
M  V30 5228 H 477.84 -3.77626 2.64946 0
M  V30 5229 H 476.083 -3.51082 2.54801 0
M  V30 5230 H 476.754 -5.0911 2.13333 0
M  V30 5231 H 479.23 -4.13548 0.460117 0
M  V30 5232 H 478.106 -5.48656 0.163575 0
M  V30 5233 H 478.367 -4.28444 -1.09032 0
M  V30 5234 N 477.426 -0.562348 -1.47226 0
M  V30 5235 C 478.651 -0.0432632 -2.07355 0
M  V30 5236 C 479.076 1.24332 -1.41149 0
M  V30 5237 O 478.434 1.74603 -0.488226 0
M  V30 5238 C 478.482 0.130288 -3.60365 0
M  V30 5239 O 477.586 1.19166 -3.94808 0
M  V30 5240 H 476.927 -0.0536334 -0.66183 0
M  V30 5241 H 479.457 -0.779495 -1.89169 0
M  V30 5242 H 479.467 0.342881 -4.06557 0
M  V30 5243 H 478.142 -0.809389 -4.07948 0
M  V30 5244 H 476.719 0.959153 -3.60354 0
M  V30 5245 N 478.904 1.54736 -0.299062 0
M  V30 5246 C 480.134 2.04215 0.312992 0
M  V30 5247 C 480.542 1.17596 1.48215 0
M  V30 5248 O 479.885 0.193835 1.82674 0
M  V30 5249 C 479.947 3.49696 0.833862 0
M  V30 5250 C 479.611 4.56518 -0.20977 0
M  V30 5251 C 480.608 5.09442 -1.03756 0
M  V30 5252 C 478.293 5.01073 -0.35091 0
M  V30 5253 C 480.287 6.05459 -1.99244 0
M  V30 5254 C 477.974 5.9691 -1.30924 0
M  V30 5255 C 478.972 6.48987 -2.1285 0
M  V30 5256 O 478.66 7.42947 -3.07059 0
M  V30 5257 H 478.392 0.672128 0.0722494 0
M  V30 5258 H 480.946 2.00718 -0.436043 0
M  V30 5259 H 479.176 3.5051 1.63339 0
M  V30 5260 H 480.865 3.82381 1.36159 0
M  V30 5261 H 481.631 4.75816 -0.939376 0
M  V30 5262 H 477.51 4.60168 0.276813 0
M  V30 5263 H 481.054 6.46031 -2.63229 0
M  V30 5264 H 476.951 6.29953 -1.40815 0
M  V30 5265 H 477.719 7.60743 -3.02015 0
M  V30 5266 N 480.382 0.0267497 1.57577 0
M  V30 5267 C 481.628 -0.653371 1.91987 0
M  V30 5268 C 481.961 -1.71915 0.903263 0
M  V30 5269 O 481.236 -1.94358 -0.0743387 0
M  V30 5270 C 481.519 -1.272 3.36886 0
M  V30 5271 C 481.372 -0.215938 4.49281 0
M  V30 5272 C 482.691 -2.19069 3.81703 0
M  V30 5273 H 479.81 -0.236047 0.698177 0
M  V30 5274 H 482.452 0.0835236 1.89816 0
M  V30 5275 H 480.602 -1.90005 3.38866 0
M  V30 5276 H 482.274 0.41449 4.59434 0
M  V30 5277 H 480.517 0.458855 4.31366 0
M  V30 5278 H 481.188 -0.688347 5.47691 0
M  V30 5279 H 483.664 -1.66253 3.81444 0
M  V30 5280 H 482.54 -2.59307 4.83788 0
M  V30 5281 H 482.801 -3.08087 3.17072 0
M  V30 5282 N 481.861 -1.55662 -0.24637 0
M  V30 5283 C 482.808 -1.90361 -1.30504 0
M  V30 5284 C 483.778 -0.757905 -1.47801 0
M  V30 5285 O 484.963 -1.01161 -1.61775 0
M  V30 5286 C 482.103 -2.2042 -2.65535 0
M  V30 5287 C 481.216 -3.47799 -2.56242 0
M  V30 5288 C 480.351 -3.67426 -3.8363 0
M  V30 5289 C 479.39 -4.88403 -3.68956 0
M  V30 5290 N 478.527 -5.04548 -4.88237 0
M  V30 5291 H 483.367 -2.80645 -1.00213 0
M  V30 5292 H 480.904 -1.38924 -0.483577 0
M  V30 5293 H 482.862 -2.35853 -3.44135 0
M  V30 5294 H 481.492 -1.3334 -2.93973 0
M  V30 5295 H 480.544 -3.40694 -1.69208 0
M  V30 5296 H 481.856 -4.36544 -2.4131 0
M  V30 5297 H 481.01 -3.82821 -4.70673 0
M  V30 5298 H 479.749 -2.76914 -4.01459 0
M  V30 5299 H 478.754 -4.72984 -2.80296 0
M  V30 5300 H 479.979 -5.80375 -3.52621 0
M  V30 5301 H 477.925 -4.16974 -5.06427 0
M  V30 5302 H 477.842 -5.87384 -4.75937 0
M  V30 5303 H 479.11 -5.24355 -5.76777 0
M  V30 5304 N 483.339 0.512053 -1.4905 0
M  V30 5305 C 484.302 1.59704 -1.64399 0
M  V30 5306 C 485.302 1.52285 -0.516317 0
M  V30 5307 O 486.492 1.55635 -0.782527 0
M  V30 5308 C 483.624 2.9935 -1.63102 0
M  V30 5309 H 484.817 1.47428 -2.61161 0
M  V30 5310 H 482.37 0.735469 -1.37915 0
M  V30 5311 H 483.105 3.17116 -0.678836 0
M  V30 5312 H 482.89 3.06144 -2.44986 0
M  V30 5313 H 484.38 3.782 -1.77072 0
M  V30 5314 N 484.817 1.37938 0.762283 0
M  V30 5315 C 485.747 1.37176 1.88958 0
M  V30 5316 C 486.728 0.238945 1.68413 0
M  V30 5317 O 487.913 0.440726 1.89133 0
M  V30 5318 C 485.043 1.18742 3.2637 0
M  V30 5319 C 483.997 2.29136 3.61498 0
M  V30 5320 C 483.323 1.95816 4.97554 0
M  V30 5321 C 484.623 3.71363 3.6727 0
M  V30 5322 H 486.317 2.31509 1.89853 0
M  V30 5323 H 483.863 1.11438 0.912005 0
M  V30 5324 H 485.816 1.16837 4.04879 0
M  V30 5325 H 484.54 0.208683 3.25933 0
M  V30 5326 H 483.199 2.30213 2.85303 0
M  V30 5327 H 482.847 0.964475 4.93667 0
M  V30 5328 H 482.547 2.69745 5.22026 0
M  V30 5329 H 484.071 1.95513 5.78452 0
M  V30 5330 H 485.485 3.72364 4.35911 0
M  V30 5331 H 483.882 4.44425 4.03245 0
M  V30 5332 H 484.952 4.04305 2.67704 0
M  V30 5333 N 486.295 -0.989507 1.22664 0
M  V30 5334 C 487.572 -1.70326 0.961688 0
M  V30 5335 C 487.952 -2.04537 -0.522279 0
M  V30 5336 O 487.3 -1.73136 -1.49118 0
M  V30 5337 C 487.51 -2.95135 1.86269 0
M  V30 5338 C 488.858 -3.67842 2.12078 0
M  V30 5339 O 489.882 -3.0515 1.83745 0
M  V30 5340 O 488.741 -4.80644 2.60083 0
M  V30 5341 H 485.835 -0.743589 0.361946 0
M  V30 5342 H 488.381 -1.04555 1.33665 0
M  V30 5343 H 487.153 -2.66382 2.8663 0
M  V30 5344 H 486.776 -3.68645 1.48952 0
M  V30 5345 N 487.773 -1.03688 -1.18687 0
M  V30 5346 C 489.019 -0.739123 -1.88851 0
M  V30 5347 C 489.352 0.731042 -1.79915 0
M  V30 5348 O 488.627 1.53313 -1.19688 0
M  V30 5349 C 488.91 -1.20106 -3.3948 0
M  V30 5350 C 488.763 -2.73304 -3.57246 0
M  V30 5351 C 490.082 -0.788134 -4.32986 0
M  V30 5352 H 487.201 -0.269978 -0.68577 0
M  V30 5353 H 489.843 -1.28822 -1.3966 0
M  V30 5354 H 487.993 -0.733915 -3.81505 0
M  V30 5355 H 489.665 -3.28027 -3.24339 0
M  V30 5356 H 487.908 -3.13313 -3.00029 0
M  V30 5357 H 488.579 -3.00684 -4.62918 0
M  V30 5358 H 491.055 -1.19005 -3.98719 0
M  V30 5359 H 489.931 -1.13915 -5.36949 0
M  V30 5360 H 490.192 0.308988 -4.41019 0
M  V30 5361 N 489.251 1.34841 -0.815825 0
M  V30 5362 C 490.497 1.99219 -0.410288 0
M  V30 5363 C 490.852 1.63532 1.01366 0
M  V30 5364 O 490.145 0.893093 1.69512 0
M  V30 5365 C 490.339 3.53273 -0.541541 0
M  V30 5366 C 490.168 4.03927 -1.9767 0
M  V30 5367 C 488.938 4.32852 -2.60706 0
M  V30 5368 C 491.136 4.21808 -2.9425 0
M  V30 5369 N 489.118 4.69494 -3.95536 0
M  V30 5370 C 490.489 4.6155 -4.13971 0
M  V30 5371 C 492.544 4.04038 -2.9096 0
M  V30 5372 C 491.247 4.85381 -5.30847 0
M  V30 5373 C 493.273 4.29031 -4.07046 0
M  V30 5374 C 492.635 4.69054 -5.25517 0
M  V30 5375 H 488.734 0.756494 -0.198094 0
M  V30 5376 H 491.318 1.63379 -1.05902 0
M  V30 5377 H 489.489 3.88323 0.0772544 0
M  V30 5378 H 491.221 4.04551 -0.109694 0
M  V30 5379 H 487.976 4.23503 -2.11995 0
M  V30 5380 H 488.4 4.92061 -4.64979 0
M  V30 5381 H 493.042 3.7223 -2.00512 0
M  V30 5382 H 490.76 5.16059 -6.21859 0
M  V30 5383 H 494.346 4.16826 -4.05891 0
M  V30 5384 H 493.226 4.88014 -6.1385 0
M  V30 5385 N 490.729 0.570148 1.46925 0
M  V30 5386 C 491.659 -0.158274 2.32963 0
M  V30 5387 C 492.64 -0.896093 1.44583 0
M  V30 5388 O 493.825 -0.874022 1.7342 0
M  V30 5389 C 490.955 -1.18055 3.26619 0
M  V30 5390 C 489.909 -0.558379 4.24342 0
M  V30 5391 C 489.235 -1.68623 5.07415 0
M  V30 5392 C 490.535 0.496295 5.19937 0
M  V30 5393 H 492.229 0.560046 2.94115 0
M  V30 5394 H 489.775 0.270775 1.41431 0
M  V30 5395 H 491.728 -1.69841 3.85658 0
M  V30 5396 H 490.452 -1.92899 2.63548 0
M  V30 5397 H 489.111 -0.0617157 3.66548 0
M  V30 5398 H 488.759 -2.42402 4.40738 0
M  V30 5399 H 488.459 -1.27564 5.73586 0
M  V30 5400 H 489.983 -2.20709 5.69315 0
M  V30 5401 H 491.397 0.0640052 5.73264 0
M  V30 5402 H 489.794 0.82649 5.94381 0
M  V30 5403 H 490.864 1.38735 4.6463 0
M  V30 5404 N 492.207 -1.54576 0.307264 0
M  V30 5405 C 493.456 -1.99442 -0.300976 0
M  V30 5406 C 493.769 -1.19928 -1.5452 0
M  V30 5407 O 494.975 -1.55092 -2.22842 0
M  V30 5408 C 493.431 -3.55084 -0.586809 0
M  V30 5409 C 493.039 -4.43413 0.639438 0
M  V30 5410 C 494.783 -4.0846 -1.1559 0
M  V30 5411 C 492.69 -5.90499 0.326411 0
M  V30 5412 H 491.62 -0.744986 -0.116238 0
M  V30 5413 H 494.271 -1.787 0.416947 0
M  V30 5414 H 492.653 -3.71749 -1.36449 0
M  V30 5415 H 493.827 -4.38522 1.41545 0
M  V30 5416 H 492.142 -4.00842 1.1276 0
M  V30 5417 H 494.739 -5.15926 -1.40445 0
M  V30 5418 H 495.082 -3.59443 -2.10015 0
M  V30 5419 H 495.615 -3.95362 -0.439778 0
M  V30 5420 H 492.354 -6.43676 1.23939 0
M  V30 5421 H 491.874 -5.98382 -0.412212 0
M  V30 5422 H 493.553 -6.46962 -0.0697393 0
M  V30 5423 N 493.685 -0.035106 -1.57561 0
M  V30 5424 C 494.648 0.929819 -2.09492 0
M  V30 5425 C 495.648 1.25026 -1.01119 0
M  V30 5426 O 496.838 1.18961 -1.27255 0
M  V30 5427 C 493.97 2.24457 -2.56577 0
M  V30 5428 H 495.163 0.479935 -2.96035 0
M  V30 5429 H 492.716 0.213033 -1.54841 0
M  V30 5430 H 493.451 2.74061 -1.73382 0
M  V30 5431 H 493.236 2.02508 -3.35757 0
M  V30 5432 H 494.726 2.93607 -2.96959 0
M  V30 5433 N 495.163 1.55791 0.238111 0
M  V30 5434 C 496.403 1.79801 0.972163 0
M  V30 5435 C 496.767 0.606027 1.82185 0
M  V30 5436 O 497.968 0.725079 2.58836 0
M  V30 5437 C 496.239 3.08608 1.80266 0
M  V30 5438 S 497.798 3.53872 2.59461 0
M  V30 5439 H 494.616 0.631418 0.326852 0
M  V30 5440 H 497.218 1.94031 0.239212 0
M  V30 5441 H 495.922 3.93419 1.1683 0
M  V30 5442 H 495.453 2.9714 2.57821 0
M  V30 5443 H 497.468 3.15899 3.82651 0
M  V30 5444 N 496.642 -0.504142 1.49319 0
M  V30 5445 C 497.572 -1.61473 1.68667 0
M  V30 5446 C 498.553 -1.61455 0.535378 0
M  V30 5447 O 499.738 -1.78245 0.770868 0
M  V30 5448 C 496.868 -2.99971 1.75028 0
M  V30 5449 C 495.822 -3.14854 2.89916 0
M  V30 5450 C 495.148 -4.54671 2.81387 0
M  V30 5451 C 496.448 -2.95176 4.30893 0
M  V30 5452 H 498.142 -1.45535 2.61648 0
M  V30 5453 H 495.688 -0.698711 1.25913 0
M  V30 5454 H 497.641 -3.77562 1.8715 0
M  V30 5455 H 496.365 -3.1699 0.786441 0
M  V30 5456 H 495.024 -2.39687 2.77391 0
M  V30 5457 H 494.672 -4.68562 1.82917 0
M  V30 5458 H 494.372 -4.6557 3.58494 0
M  V30 5459 H 495.896 -5.34327 2.95512 0
M  V30 5460 H 497.31 -3.62538 4.44116 0
M  V30 5461 H 495.707 -3.17549 5.09198 0
M  V30 5462 H 496.777 -1.91332 4.45556 0
M  V30 5463 N 498.12 -1.38341 -0.754957 0
M  V30 5464 C 499.05 -1.38176 -1.88227 0
M  V30 5465 C 500.031 -0.247873 -1.68284 0
M  V30 5466 O 501.216 -0.45075 -1.88896 0
M  V30 5467 C 498.346 -1.20471 -3.25736 0
M  V30 5468 C 497.3 -2.3105 -3.60278 0
M  V30 5469 C 496.626 -1.98452 -4.96509 0
M  V30 5470 C 497.926 -3.73305 -3.65295 0
M  V30 5471 H 499.62 -2.32512 -1.88622 0
M  V30 5472 H 497.166 -1.1192 -0.906082 0
M  V30 5473 H 499.119 -1.18982 -4.04254 0
M  V30 5474 H 497.843 -0.225965 -3.25817 0
M  V30 5475 H 496.502 -2.31723 -2.84078 0
M  V30 5476 H 496.15 -0.990641 -4.93148 0
M  V30 5477 H 495.85 -2.7251 -5.20588 0
M  V30 5478 H 497.374 -1.98578 -5.77407 0
M  V30 5479 H 498.788 -3.7467 -4.3393 0
M  V30 5480 H 497.185 -4.46557 -4.00883 0
M  V30 5481 H 498.255 -4.05719 -2.65556 0
M  V30 5482 N 499.598 0.982988 -1.23187 0
M  V30 5483 C 500.845 1.72392 -1.06241 0
M  V30 5484 C 501.173 1.9032 0.40108 0
M  V30 5485 O 500.428 1.45084 1.31336 0
M  V30 5486 C 500.727 3.12736 -1.73006 0
M  V30 5487 C 500.393 3.14695 -3.22921 0
M  V30 5488 C 499.055 3.14937 -3.63824 0
M  V30 5489 C 501.407 3.10211 -4.1883 0
M  V30 5490 C 498.735 3.08408 -4.99101 0
M  V30 5491 C 501.087 3.05224 -5.54095 0
M  V30 5492 C 499.751 3.03787 -5.94365 0
M  V30 5493 H 499.021 0.630829 -0.388762 0
M  V30 5494 H 501.668 1.15053 -1.53085 0
M  V30 5495 H 499.973 3.73446 -1.18514 0
M  V30 5496 H 501.67 3.68828 -1.57374 0
M  V30 5497 H 498.26 3.15262 -2.90358 0
M  V30 5498 H 502.444 3.09166 -3.8824 0
M  V30 5499 H 497.7 3.05646 -5.29519 0
M  V30 5500 H 501.874 3.00712 -6.28128 0
M  V30 5501 H 499.501 2.98483 -6.99151 0
M  V30 5502 N 501.076 1.04316 1.18135 0
M  V30 5503 C 502.324 0.746542 1.87806 0
M  V30 5504 C 502.645 -0.728082 1.80898 0
M  V30 5505 O 501.915 -1.52554 1.22899 0
M  V30 5506 H 500.495 0.273157 0.695265 0
M  V30 5507 H 503.157 1.32044 1.43354 0
M  V30 5508 H 502.253 1.05362 2.93778 0
M  V30 5509 N 502.554 -1.34406 0.822964 0
M  V30 5510 C 503.801 -1.98284 0.411057 0
M  V30 5511 C 504.129 -1.65245 -1.02588 0
M  V30 5512 O 503.384 -0.91619 -1.72929 0
M  V30 5513 C 503.683 -3.52981 0.560268 0
M  V30 5514 C 503.349 -4.05931 1.96293 0
M  V30 5515 C 502.011 -4.20103 2.34664 0
M  V30 5516 C 504.363 -4.34412 2.87985 0
M  V30 5517 C 501.691 -4.60082 3.64062 0
M  V30 5518 C 504.043 -4.75838 4.16847 0
M  V30 5519 C 502.707 -4.88215 4.55195 0
M  V30 5520 H 501.977 -0.725573 0.150416 0
M  V30 5521 H 504.624 -1.60349 1.04692 0
M  V30 5522 H 502.929 -3.91477 -0.158982 0
M  V30 5523 H 504.626 -4.00385 0.222087 0
M  V30 5524 H 501.216 -3.95363 1.65487 0
M  V30 5525 H 505.4 -4.23001 2.59584 0
M  V30 5526 H 500.656 -4.67856 3.93599 0
M  V30 5527 H 504.83 -4.96834 4.87984 0
M  V30 5528 H 502.457 -5.18952 5.55512 0
M  V30 5529 N 504.032 -0.577932 -1.46621 0
M  V30 5530 C 504.995 0.147805 -2.28723 0
M  V30 5531 C 505.995 0.823325 -1.38123 0
M  V30 5532 O 507.185 0.676011 -1.60548 0
M  V30 5533 C 504.317 1.21853 -3.18378 0
M  V30 5534 H 505.51 -0.573654 -2.94362 0
M  V30 5535 H 503.063 -0.335703 -1.52652 0
M  V30 5536 H 503.798 1.97173 -2.57475 0
M  V30 5537 H 503.583 0.738714 -3.85078 0
M  V30 5538 H 505.073 1.72768 -3.80186 0
M  V30 5539 N 505.51 1.54411 -0.315457 0
M  V30 5540 C 506.735 2.05299 0.294496 0
M  V30 5541 C 507.16 1.19052 1.4563 0
M  V30 5542 O 506.518 0.197804 1.80218 0
M  V30 5543 C 506.566 3.5345 0.714549 0
M  V30 5544 O 505.67 3.70175 1.81781 0
M  V30 5545 H 505.011 0.661743 0.0547019 0
M  V30 5546 H 507.541 1.99327 -0.461508 0
M  V30 5547 H 507.551 3.9557 0.999426 0
M  V30 5548 H 506.226 4.1568 -0.135244 0
M  V30 5549 H 504.803 3.3996 1.53236 0
M  V30 5550 N 506.988 0.0434614 1.5754 0
M  V30 5551 C 507.918 -0.931651 2.14109 0
M  V30 5552 C 508.899 -1.32971 1.06079 0
M  V30 5553 O 510.084 -1.40579 1.33982 0
M  V30 5554 C 507.214 -2.20914 2.67982 0
M  V30 5555 C 506.168 -1.95139 3.80926 0
M  V30 5556 C 505.494 -3.29276 4.21285 0
M  V30 5557 C 506.794 -1.27913 5.06395 0
M  V30 5558 H 508.488 -0.460497 2.95837 0
M  V30 5559 H 506.034 -0.220058 1.42309 0
M  V30 5560 H 507.987 -2.89522 3.06194 0
M  V30 5561 H 506.711 -2.70221 1.83434 0
M  V30 5562 H 505.37 -1.28945 3.43175 0
M  V30 5563 H 505.018 -3.76369 3.33699 0
M  V30 5564 H 504.718 -3.12831 4.97404 0
M  V30 5565 H 506.242 -3.99129 4.62091 0
M  V30 5566 H 507.656 -1.86544 5.42102 0
M  V30 5567 H 506.053 -1.2182 5.87605 0
M  V30 5568 H 507.123 -0.254066 4.84234 0
M  V30 5569 N 508.466 -1.55915 -0.229846 0
M  V30 5570 C 509.712 -1.78807 -0.956868 0
M  V30 5571 C 510.045 -0.611687 -1.84315 0
M  V30 5572 O 509.32 0.389398 -1.90562 0
M  V30 5573 C 509.603 -3.11718 -1.80288 0
M  V30 5574 C 509.456 -4.3979 -0.943649 0
M  V30 5575 C 510.775 -3.40999 -2.78222 0
M  V30 5576 H 507.894 -0.6505 -0.346437 0
M  V30 5577 H 510.536 -1.88648 -0.226252 0
M  V30 5578 H 508.686 -3.03459 -2.42579 0
M  V30 5579 H 510.358 -4.60059 -0.338121 0
M  V30 5580 H 508.601 -4.33086 -0.248705 0
M  V30 5581 H 509.272 -5.29208 -1.5698 0
M  V30 5582 H 511.748 -3.49332 -2.26067 0
M  V30 5583 H 510.624 -4.35183 -3.34526 0
M  V30 5584 H 510.885 -2.62754 -3.55546 0
M  V30 5585 N 509.944 0.496216 -1.49584 0
M  V30 5586 C 510.854 1.62352 -1.69349 0
M  V30 5587 C 511.87 1.64184 -0.576147 0
M  V30 5588 O 513.046 1.82517 -0.85144 0
M  V30 5589 C 510.111 2.98698 -1.76013 0
M  V30 5590 C 509.172 3.07454 -2.99617 0
M  V30 5591 C 508.405 4.37296 -3.05953 0
M  V30 5592 O 508.628 5.2637 -2.19752 0
M  V30 5593 O 507.562 4.51124 -3.9846 0
M  V30 5594 H 511.388 1.48606 -2.64859 0
M  V30 5595 H 508.973 0.673022 -1.33382 0
M  V30 5596 H 510.855 3.79725 -1.82721 0
M  V30 5597 H 509.53 3.12696 -0.836828 0
M  V30 5598 H 508.437 2.25597 -2.98424 0
M  V30 5599 H 509.77 2.98385 -3.91443 0
M  V30 5600 N 511.423 1.38739 0.74761 0
M  V30 5601 C 512.653 1.3832 1.53464 0
M  V30 5602 C 513.061 -0.0273464 1.8918 0
M  V30 5603 O 512.404 -1.00588 1.53713 0
M  V30 5604 C 512.466 2.18007 2.85855 0
M  V30 5605 C 512.13 3.66762 2.72644 0
M  V30 5606 C 513.127 4.60124 2.42037 0
M  V30 5607 C 510.812 4.10193 2.89909 0
M  V30 5608 C 512.806 5.94897 2.28859 0
M  V30 5609 C 510.493 5.45045 2.7635 0
M  V30 5610 C 511.491 6.37211 2.45869 0
M  V30 5611 O 511.179 7.69581 2.3238 0
M  V30 5612 H 510.911 0.474718 0.481268 0
M  V30 5613 H 513.465 1.83012 0.932518 0
M  V30 5614 H 511.695 1.68043 3.48279 0
M  V30 5615 H 513.384 2.09921 3.47402 0
M  V30 5616 H 514.15 4.27874 2.28361 0
M  V30 5617 H 510.029 3.38797 3.1263 0
M  V30 5618 H 513.573 6.66802 2.04989 0
M  V30 5619 H 509.47 5.76889 2.89601 0
M  V30 5620 H 510.238 7.80169 2.47546 0
M  V30 5621 N 512.901 -0.976442 1.23707 0
M  V30 5622 C 513.864 -2.0511 1.02287 0
M  V30 5623 C 514.864 -1.60791 -0.0167195 0
M  V30 5624 O 516.054 -1.72761 0.223408 0
M  V30 5625 C 513.186 -3.36458 0.548507 0
M  V30 5626 H 514.379 -2.25545 1.9766 0
M  V30 5627 H 511.932 -1.15042 1.05806 0
M  V30 5628 H 512.667 -3.21713 -0.408818 0
M  V30 5629 H 512.452 -3.69967 1.29874 0
M  V30 5630 H 513.942 -4.15489 0.419406 0
M  V30 5631 N 514.379 -1.04941 -1.1758 0
M  V30 5632 C 515.625 -0.759112 -1.88057 0
M  V30 5633 C 515.958 0.711918 -1.8068 0
M  V30 5634 O 515.233 1.52035 -1.21308 0
M  V30 5635 C 515.516 -1.237 -3.38187 0
M  V30 5636 C 515.369 -2.77078 -3.54327 0
M  V30 5637 C 516.688 -0.834014 -4.32125 0
M  V30 5638 H 513.807 -0.277237 -0.682868 0
M  V30 5639 H 516.449 -1.30296 -1.38286 0
M  V30 5640 H 514.599 -0.774337 -3.80705 0
M  V30 5641 H 516.271 -3.31449 -3.20842 0
M  V30 5642 H 514.514 -3.16477 -2.96689 0
M  V30 5643 H 515.185 -3.05577 -4.59703 0
M  V30 5644 H 517.661 -1.23228 -3.97434 0
M  V30 5645 H 516.537 -1.19603 -5.35711 0
M  V30 5646 H 516.798 0.262195 -4.41322 0
M  V30 5647 N 515.857 1.33968 -0.830081 0
M  V30 5648 C 517.103 1.98357 -0.422191 0
M  V30 5649 C 517.436 1.65633 1.01387 0
M  V30 5650 O 516.711 0.931648 1.70735 0
M  V30 5651 C 516.994 3.54492 -0.633043 0
M  V30 5652 C 516.847 3.96934 -2.11574 0
M  V30 5653 C 518.166 4.40039 -0.0735584 0
M  V30 5654 H 515.285 0.720544 -0.154871 0
M  V30 5655 H 517.927 1.58749 -1.04397 0
M  V30 5656 H 516.077 3.88361 -0.103775 0
M  V30 5657 H 517.749 3.73363 -2.7092 0
M  V30 5658 H 515.992 3.46984 -2.60354 0
M  V30 5659 H 516.663 5.05651 -2.21406 0
M  V30 5660 H 519.139 4.12764 -0.52585 0
M  V30 5661 H 518.015 5.48327 -0.250841 0
M  V30 5662 H 518.276 4.30124 1.02202 0
M  V30 5663 N 517.335 0.585699 1.46312 0
M  V30 5664 C 518.267 -0.183687 2.28463 0
M  V30 5665 C 519.28 -0.85264 1.38686 0
M  V30 5666 O 520.469 -0.721701 1.6326 0
M  V30 5667 C 517.569 -1.27977 3.13808 0
M  V30 5668 C 516.742 -0.702164 4.31727 0
M  V30 5669 C 515.801 -1.68633 4.98447 0
M  V30 5670 O 514.827 -1.22121 5.55945 0
M  V30 5671 N 516.029 -3.02047 4.95729 0
M  V30 5672 H 518.794 0.521127 2.95134 0
M  V30 5673 H 516.355 0.423673 1.56258 0
M  V30 5674 H 518.347 -1.9375 3.55307 0
M  V30 5675 H 516.917 -1.8874 2.4919 0
M  V30 5676 H 516.137 0.1331 3.93975 0
M  V30 5677 H 517.425 -0.296101 5.07938 0
M  V30 5678 H 516.823 -3.42457 4.50266 0
M  V30 5679 H 515.38 -3.63301 5.41161 0
M  V30 5680 N 518.813 -1.54241 0.323641 0
M  V30 5681 C 520.059 -2.00867 -0.279323 0
M  V30 5682 C 520.392 -1.21146 -1.5178 0
M  V30 5683 O 519.667 -0.29378 -1.92269 0
M  V30 5684 C 519.95 -3.54837 -0.613387 0
M  V30 5685 C 519.803 -4.45284 0.635803 0
M  V30 5686 C 521.122 -4.16186 -1.43099 0
M  V30 5687 H 518.241 -0.730177 -0.100049 0
M  V30 5688 H 520.883 -1.84829 0.440235 0
M  V30 5689 H 519.033 -3.68634 -1.22641 0
M  V30 5690 H 520.705 -4.43357 1.27406 0
M  V30 5691 H 518.948 -4.14956 1.26466 0
M  V30 5692 H 519.619 -5.5084 0.357597 0
M  V30 5693 H 522.095 -4.05964 -0.912814 0
M  V30 5694 H 520.971 -5.24031 -1.6335 0
M  V30 5695 H 521.232 -3.69516 -2.42715 0
M  V30 5696 N 520.291 -0.0518155 -1.57515 0
M  V30 5697 C 521.224 0.957758 -2.07129 0
M  V30 5698 C 522.202 1.30355 -0.971927 0
M  V30 5699 O 523.386 1.41631 -1.2439 0
M  V30 5700 C 520.513 2.27157 -2.51232 0
M  V30 5701 C 519.559 2.07879 -3.72409 0
M  V30 5702 S 520.392 1.35656 -5.18033 0
M  V30 5703 C 521.548 2.68359 -5.65451 0
M  V30 5704 H 521.781 0.53552 -2.92437 0
M  V30 5705 H 519.314 0.160465 -1.53564 0
M  V30 5706 H 521.272 3.02676 -2.77304 0
M  V30 5707 H 519.933 2.66509 -1.66228 0
M  V30 5708 H 519.126 3.05061 -4.01191 0
M  V30 5709 H 518.728 1.40499 -3.46606 0
M  V30 5710 H 521.02 3.64526 -5.71076 0
M  V30 5711 H 521.963 2.44213 -6.64654 0
M  V30 5712 H 522.371 2.74647 -4.93183 0
M  V30 5713 N 521.769 1.56035 0.221574 0
M  V30 5714 C 522.699 1.95434 1.2778 0
M  V30 5715 C 523.68 0.822564 1.48889 0
M  V30 5716 O 524.865 1.08486 1.61072 0
M  V30 5717 C 521.995 2.27102 2.62759 0
M  V30 5718 C 520.949 3.4277 2.56306 0
M  V30 5719 C 520.275 3.60043 3.95314 0
M  V30 5720 C 521.575 4.77742 2.11093 0
M  V30 5721 H 523.269 2.83912 0.950504 0
M  V30 5722 H 520.815 1.36596 0.455791 0
M  V30 5723 H 522.768 2.53256 3.36807 0
M  V30 5724 H 521.492 1.35478 2.97176 0
M  V30 5725 H 520.151 3.16664 1.84715 0
M  V30 5726 H 519.799 2.65794 4.27039 0
M  V30 5727 H 519.499 4.37841 3.91879 0
M  V30 5728 H 521.023 3.88545 4.71025 0
M  V30 5729 H 522.437 5.03102 2.74885 0
M  V30 5730 H 520.834 5.58823 2.18716 0
M  V30 5731 H 521.904 4.731 1.06321 0
M  V30 5732 N 523.247 -0.488276 1.49845 0
M  V30 5733 C 524.195 -1.60917 1.67954 0
M  V30 5734 C 525.189 -1.6038 0.54539 0
M  V30 5735 O 526.395 -1.64736 0.7254 0
M  V30 5736 H 522.77 -0.533658 0.529824 0
M  V30 5737 H 524.741 -1.428 2.62013 0
M  V30 5738 C 523.49 -2.98975 1.77509 0
M  V30 5739 H 522.813 -3.00099 2.6416 0
M  V30 5740 H 524.253 -3.76906 1.9421 0
M  V30 5741 C 522.712 -3.3282 0.522745 0
M  V30 5742 O 523.242 -4.00208 -0.345866 0
M  V30 5743 N 521.448 -2.8808 0.381882 0
M  V30 5744 H 520.995 -2.33415 1.08974 0
M  V30 5745 H 520.953 -3.11091 -0.454929 0
M  V30 5746 N 524.725 -1.39134 -0.740242 0
M  V30 5747 C 525.673 -1.3757 -1.87556 0
M  V30 5748 C 526.667 -0.259593 -1.67399 0
M  V30 5749 O 527.873 -0.429349 -1.74804 0
M  V30 5750 H 524.248 -0.42947 -0.6173 0
M  V30 5751 H 526.219 -2.33345 -1.85991 0
M  V30 5752 C 524.968 -1.23087 -3.25184 0
M  V30 5753 H 524.291 -2.08237 -3.41288 0
M  V30 5754 H 525.731 -1.26049 -4.0483 0
M  V30 5755 C 524.19 0.0611471 -3.36845 0
M  V30 5756 O 524.72 1.03328 -3.88183 0
M  V30 5757 N 522.926 0.122454 -2.90342 0
M  V30 5758 H 522.473 -0.669329 -2.48752 0
M  V30 5759 H 522.431 0.986463 -2.98523 0
M  V30 5760 N 526.204 0.969867 -1.24223 0
M  V30 5761 C 527.615 1.52717 -1.07399 0
M  V30 5762 C 527.966 1.92956 0.355298 0
M  V30 5763 O 527.091 1.77112 1.2434 0
M  V30 5764 C 527.686 2.77521 -1.94339 0
M  V30 5765 C 526.245 3.29615 -1.81744 0
M  V30 5766 C 525.392 2.02537 -1.89405 0
M  V30 5767 H 528.343 0.788399 -1.37732 0
M  V30 5768 H 528.364 3.50773 -1.47439 0
M  V30 5769 H 527.876 2.48203 -2.98357 0
M  V30 5770 H 525.977 3.63789 -0.805505 0
M  V30 5771 H 526.09 3.98661 -2.65718 0
M  V30 5772 H 524.454 2.17151 -1.33108 0
M  V30 5773 H 525.237 1.75587 -2.94999 0
M  V30 5774 N 527.682 1.05563 1.17022 0
M  V30 5775 C 528.629 0.659893 2.21165 0
M  V30 5776 C 529.599 -0.339813 1.62587 0
M  V30 5777 O 530.784 -0.230378 1.89404 0
M  V30 5778 C 527.924 0.0447297 3.45071 0
M  V30 5779 C 527.037 1.09372 4.17926 0
M  V30 5780 C 526.172 0.445481 5.29329 0
M  V30 5781 C 525.211 1.47852 5.93975 0
M  V30 5782 N 524.348 0.854172 6.96885 0
M  V30 5783 H 529.188 1.55243 2.54369 0
M  V30 5784 H 526.725 0.776336 1.24946 0
M  V30 5785 H 528.683 -0.329404 4.15898 0
M  V30 5786 H 527.313 -0.811244 3.1244 0
M  V30 5787 H 526.365 1.58564 3.45777 0
M  V30 5788 H 527.677 1.87773 4.62107 0
M  V30 5789 H 526.831 0.0179688 6.06697 0
M  V30 5790 H 525.57 -0.370481 4.86291 0
M  V30 5791 H 524.575 1.91601 5.15334 0
M  V30 5792 H 525.8 2.29645 6.39093 0
M  V30 5793 H 523.746 0.0587882 6.55974 0
M  V30 5794 H 523.663 1.57567 7.39397 0
M  V30 5795 H 524.931 0.451559 7.78191 0
M  V30 5796 N 529.16 -1.33526 0.837174 0
M  V30 5797 C 530.576 -1.50727 0.524743 0
M  V30 5798 C 530.776 -1.77792 -0.948279 0
M  V30 5799 O 529.832 -1.83719 -1.73216 0
M  V30 5800 C 531.145 -2.66299 1.39661 0
M  V30 5801 C 532.693 -2.80183 1.39521 0
M  V30 5802 C 533.168 -3.98815 2.25189 0
M  V30 5803 N 534.659 -4.06047 2.2289 0
M  V30 5804 C 535.394 -4.97032 2.85915 0
M  V30 5805 N 534.89 -5.93143 3.57985 0
M  V30 5806 N 536.683 -4.90015 2.75394 0
M  V30 5807 H 528.834 -1.1422 1.79074 0
M  V30 5808 H 531.097 -0.561399 0.763894 0
M  V30 5809 H 530.803 -2.52974 2.4433 0
M  V30 5810 H 530.677 -3.61663 1.07145 0
M  V30 5811 H 533.064 -2.92942 0.356253 0
M  V30 5812 H 533.145 -1.85586 1.76044 0
M  V30 5813 H 532.789 -3.86817 3.29143 0
M  V30 5814 H 532.719 -4.92654 1.86009 0
M  V30 5815 H 535.21 -3.37262 1.70478 0
M  V30 5816 H 535.523 -6.59227 4.03286 0
M  V30 5817 H 533.868 -5.93223 3.62093 0
M  V30 5818 H 537.059 -4.13894 2.18654 0
M  V30 5819 H 537.232 -5.60724 3.24796 0
M  V30 5820 N 530.638 -0.59345 -1.46 0
M  V30 5821 C 531.884 -0.0832754 -2.02629 0
M  V30 5822 C 532.217 1.27749 -1.46266 0
M  V30 5823 O 531.492 1.8395 -0.631866 0
M  V30 5824 C 531.775 -0.0290756 -3.60088 0
M  V30 5825 C 531.628 -1.41951 -4.26814 0
M  V30 5826 C 532.947 0.666055 -4.35031 0
M  V30 5827 H 530.066 -0.031736 -0.736316 0
M  V30 5828 H 532.708 -0.762711 -1.74019 0
M  V30 5829 H 530.858 0.549532 -3.84594 0
M  V30 5830 H 532.53 -2.04411 -4.13538 0
M  V30 5831 H 530.773 -1.98422 -3.8576 0
M  V30 5832 H 531.444 -1.33395 -5.3564 0
M  V30 5833 H 533.92 0.174401 -4.15734 0
M  V30 5834 H 532.796 0.673041 -5.44758 0
M  V30 5835 H 533.057 1.72946 -4.06869 0
M  V30 5836 N 532.116 1.54067 -0.331816 0
M  V30 5837 C 533.026 2.28322 0.539104 0
M  V30 5838 C 534.042 1.32985 1.1221 0
M  V30 5839 O 535.218 1.6601 1.1403 0
M  V30 5840 C 532.283 3.03277 1.68 0
M  V30 5841 C 531.344 4.14216 1.12798 0
M  V30 5842 C 530.577 4.85588 2.2145 0
M  V30 5843 O 530.8 4.56536 3.41952 0
M  V30 5844 O 529.734 5.72309 1.86404 0
M  V30 5845 H 533.56 3.03632 -0.0641692 0
M  V30 5846 H 531.145 1.49083 -0.0972365 0
M  V30 5847 H 533.027 3.50189 2.34405 0
M  V30 5848 H 531.702 2.30834 2.2693 0
M  V30 5849 H 530.609 3.71635 0.428782 0
M  V30 5850 H 531.942 4.88727 0.583698 0
M  V30 5851 N 533.594 0.0601682 1.57485 0
M  V30 5852 C 534.557 -0.896373 2.10945 0
M  V30 5853 C 535.557 -1.23402 1.03095 0
M  V30 5854 O 536.747 -1.16921 1.29132 0
M  V30 5855 C 533.879 -2.20346 2.60116 0
M  V30 5856 H 535.072 -0.432778 2.96761 0
M  V30 5857 H 532.625 -0.188372 1.55161 0
M  V30 5858 H 533.36 -2.71268 1.7772 0
M  V30 5859 H 533.145 -1.9714 3.38937 0
M  V30 5860 H 534.635 -2.88846 3.01592 0
M  V30 5861 N 535.072 -1.5615 -0.213296 0
M  V30 5862 C 535.982 -1.96265 -1.28519 0
M  V30 5863 C 536.998 -0.86765 -1.50824 0
M  V30 5864 O 538.174 -1.17191 -1.63793 0
M  V30 5865 C 535.239 -2.27836 -2.61327 0
M  V30 5866 C 534.3 -3.50949 -2.47252 0
M  V30 5867 C 533.533 -3.81004 -3.73727 0
M  V30 5868 O 533.756 -3.12612 -4.77106 0
M  V30 5869 O 532.69 -4.74477 -3.70344 0
M  V30 5870 H 536.516 -2.87631 -0.974795 0
M  V30 5871 H 534.101 -1.43467 -0.416832 0
M  V30 5872 H 535.983 -2.49299 -3.39747 0
M  V30 5873 H 534.658 -1.39643 -2.9203 0
M  V30 5874 H 533.565 -3.34754 -1.67004 0
M  V30 5875 H 534.898 -4.39551 -2.21486 0
M  V30 5876 N 536.55 0.480323 -1.50102 0
M  V30 5877 C 537.497 1.57946 -1.6829 0
M  V30 5878 C 538.467 1.57611 -0.524223 0
M  V30 5879 O 539.652 1.75282 -0.753709 0
M  V30 5880 C 536.792 2.95978 -1.77457 0
M  V30 5881 C 535.905 3.06173 -3.04766 0
M  V30 5882 C 535.04 4.35063 -3.04784 0
M  V30 5883 C 534.079 4.38966 -4.26586 0
M  V30 5884 N 533.216 5.59314 -4.24396 0
M  V30 5885 H 538.056 1.41743 -2.62131 0
M  V30 5886 H 535.593 0.689304 -1.2995 0
M  V30 5887 H 537.551 3.76011 -1.80752 0
M  V30 5888 H 536.181 3.10837 -0.870637 0
M  V30 5889 H 535.233 2.19071 -3.10986 0
M  V30 5890 H 536.545 3.04916 -3.9475 0
M  V30 5891 H 535.699 5.23436 -3.06757 0
M  V30 5892 H 534.438 4.38915 -2.12614 0
M  V30 5893 H 533.443 3.48992 -4.24835 0
M  V30 5894 H 534.668 4.36813 -5.19972 0
M  V30 5895 H 532.614 5.63969 -3.35074 0
M  V30 5896 H 532.531 5.5976 -5.08138 0
M  V30 5897 H 533.799 6.49837 -4.30502 0
M  V30 5898 N 538.028 1.39524 0.732853 0
M  V30 5899 C 538.991 1.38189 1.82857 0
M  V30 5900 C 539.991 0.278624 1.58368 0
M  V30 5901 O 541.181 0.536639 1.65728 0
M  V30 5902 C 538.313 1.15661 3.2068 0
M  V30 5903 H 539.506 2.35692 1.85444 0
M  V30 5904 H 537.059 1.2512 0.936728 0
M  V30 5905 H 537.794 0.188482 3.23752 0
M  V30 5906 H 537.579 1.95559 3.39852 0
M  V30 5907 H 539.069 1.17472 4.00737 0
M  V30 5908 N 539.506 -0.963266 1.24736 0
M  V30 5909 C 540.922 -1.23273 1.01371 0
M  V30 5910 C 541.122 -1.99618 -0.274776 0
M  V30 5911 O 540.178 -2.32293 -0.989769 0
M  V30 5912 C 541.491 -2.01554 2.23152 0
M  V30 5913 C 543.039 -2.14629 2.27823 0
M  V30 5914 C 543.514 -2.96307 3.49237 0
M  V30 5915 N 545.005 -3.03887 3.49581 0
M  V30 5916 C 545.74 -3.67456 4.40186 0
M  V30 5917 N 545.236 -4.32706 5.41052 0
M  V30 5918 N 547.029 -3.64511 4.27888 0
M  V30 5919 H 539.18 -0.452294 2.07528 0
M  V30 5920 H 541.443 -0.262521 0.910926 0
M  V30 5921 H 541.149 -1.52847 3.1675 0
M  V30 5922 H 541.023 -3.02278 2.25628 0
M  V30 5923 H 543.41 -2.62537 1.34753 0
M  V30 5924 H 543.491 -1.13238 2.2937 0
M  V30 5925 H 543.135 -2.49091 4.42624 0
M  V30 5926 H 543.065 -3.97905 3.44933 0
M  V30 5927 H 545.556 -2.57477 2.76611 0
M  V30 5928 H 545.869 -4.79042 6.06415 0
M  V30 5929 H 544.214 -4.31361 5.44934 0
M  V30 5930 H 547.405 -3.12715 3.4832 0
M  V30 5931 H 547.578 -4.13768 4.98698 0
M  V30 5932 N 540.985 -1.06182 -1.16461 0
M  V30 5933 C 542.234 -0.772927 -1.86303 0
M  V30 5934 C 542.547 0.703187 -1.82523 0
M  V30 5935 O 543.753 1.10641 -2.47933 0
M  V30 5936 C 542.209 -1.33249 -3.34324 0
M  V30 5937 C 541.817 -2.83876 -3.46581 0
M  V30 5938 C 543.561 -1.12108 -4.09429 0
M  V30 5939 C 541.468 -3.33082 -4.88682 0
M  V30 5940 H 540.398 -0.285452 -0.697878 0
M  V30 5941 H 543.049 -1.28039 -1.31447 0
M  V30 5942 H 541.431 -0.7528 -3.88779 0
M  V30 5943 H 542.605 -3.47786 -3.02293 0
M  V30 5944 H 540.92 -3.03671 -2.84909 0
M  V30 5945 H 543.517 -1.46361 -5.14279 0
M  V30 5946 H 543.86 -0.0593832 -4.16258 0
M  V30 5947 H 544.393 -1.6665 -3.6121 0
M  V30 5948 H 541.132 -4.38726 -4.87032 0
M  V30 5949 H 540.652 -2.73919 -5.33599 0
M  V30 5950 H 542.331 -3.28344 -5.57494 0
M  V30 5951 N 542.463 1.3308 -0.844243 0
M  V30 5952 C 543.426 2.27403 -0.286485 0
M  V30 5953 C 544.426 1.51179 0.547872 0
M  V30 5954 O 545.616 1.70421 0.360886 0
M  V30 5955 C 542.748 3.35653 0.595813 0
M  V30 5956 H 543.941 2.78248 -1.11885 0
M  V30 5957 H 541.494 1.43574 -0.617749 0
M  V30 5958 H 542.229 2.90058 1.4504 0
M  V30 5959 H 542.014 3.921 -0.00125994 0
M  V30 5960 H 543.504 4.05958 0.979168 0
M  V30 5961 N 543.941 0.601185 1.45683 0
M  V30 5962 C 544.888 -0.121396 2.30481 0
M  V30 5963 C 545.858 -0.866232 1.41724 0
M  V30 5964 O 547.043 -0.85324 1.70659 0
M  V30 5965 C 544.183 -1.11704 3.26521 0
M  V30 5966 C 543.296 -0.373741 4.3038 0
M  V30 5967 C 542.431 -1.35854 5.13534 0
M  V30 5968 C 541.47 -0.602689 6.09126 0
M  V30 5969 N 540.607 -1.53645 6.85082 0
M  V30 5970 H 545.447 0.607732 2.91737 0
M  V30 5971 H 542.984 0.311502 1.43764 0
M  V30 5972 H 544.942 -1.70735 3.80664 0
M  V30 5973 H 543.572 -1.81366 2.67032 0
M  V30 5974 H 542.624 0.331962 3.78949 0
M  V30 5975 H 543.936 0.2163 4.98331 0
M  V30 5976 H 543.09 -2.02111 5.72046 0
M  V30 5977 H 541.829 -1.98251 4.45587 0
M  V30 5978 H 540.834 0.0735482 5.49751 0
M  V30 5979 H 542.059 0.0161467 6.79098 0
M  V30 5980 H 540.005 -2.14819 6.1983 0
M  V30 5981 H 539.922 -0.999688 7.49361 0
M  V30 5982 H 541.19 -2.1888 7.48139 0
M  V30 5983 N 545.419 -1.53889 0.339982 0
M  V30 5984 C 546.382 -2.23547 -0.50592 0
M  V30 5985 C 547.382 -1.23445 -1.03044 0
M  V30 5986 O 548.572 -1.47909 -0.920253 0
M  V30 5987 C 545.704 -2.95234 -1.7044 0
M  V30 5988 H 546.897 -2.99722 0.103247 0
M  V30 5989 H 544.45 -1.56033 0.0912804 0
M  V30 5990 H 545.185 -2.23236 -2.35236 0
M  V30 5991 H 544.97 -3.68654 -1.33553 0
M  V30 5992 H 546.46 -3.48258 -2.30447 0
M  V30 5993 N 546.897 -0.0685191 -1.57451 0
M  V30 5994 C 547.807 0.914677 -2.16034 0
M  V30 5995 C 548.823 1.32938 -1.12265 0
M  V30 5996 O 549.999 1.40275 -1.44516 0
M  V30 5997 C 547.064 2.16519 -2.70777 0
M  V30 5998 C 546.125 1.80721 -3.89408 0
M  V30 5999 C 545.358 2.9981 -4.41531 0
M  V30 6000 O 545.581 4.13727 -3.92666 0
M  V30 6001 O 544.515 2.79817 -5.32903 0
M  V30 6002 H 548.341 0.446364 -3.00402 0
M  V30 6003 H 545.926 0.154367 -1.486 0
M  V30 6004 H 547.808 2.89856 -3.05878 0
M  V30 6005 H 546.483 2.62454 -1.89471 0
M  V30 6006 H 545.39 1.04646 -3.59166 0
M  V30 6007 H 546.723 1.39571 -4.71997 0
M  V30 6008 N 548.375 1.56261 0.205012 0
M  V30 6009 C 549.307 1.90266 1.27795 0
M  V30 6010 C 550.32 0.792397 1.42214 0
M  V30 6011 O 551.509 1.07077 1.42817 0
M  V30 6012 C 548.609 2.11074 2.65143 0
M  V30 6013 C 547.782 3.42176 2.7246 0
M  V30 6014 C 546.841 3.52216 3.90936 0
M  V30 6015 O 545.867 4.25119 3.78501 0
M  V30 6016 N 547.069 2.84573 5.05963 0
M  V30 6017 H 549.834 2.82896 0.989434 0
M  V30 6018 H 547.395 1.57008 0.394981 0
M  V30 6019 H 549.387 2.15089 3.4281 0
M  V30 6020 H 547.957 1.2499 2.86524 0
M  V30 6021 H 547.177 3.50116 1.81142 0
M  V30 6022 H 548.465 4.28509 2.74331 0
M  V30 6023 H 547.863 2.25152 5.18963 0
M  V30 6024 H 546.42 2.94228 5.81613 0
M  V30 6025 N 549.853 -0.472356 1.50355 0
M  V30 6026 C 550.816 -1.5529 1.68576 0
M  V30 6027 C 551.816 -1.50863 0.556511 0
M  V30 6028 O 553.006 -1.53505 0.823516 0
M  V30 6029 C 550.138 -2.94921 1.70981 0
M  V30 6030 H 551.331 -1.40451 2.64978 0
M  V30 6031 H 548.884 -0.698645 1.39816 0
M  V30 6032 H 549.619 -3.15204 0.762675 0
M  V30 6033 H 549.404 -2.99541 2.53017 0
M  V30 6034 H 550.894 -3.73372 1.87037 0
M  V30 6035 N 551.331 -1.39911 -0.725443 0
M  V30 6036 C 552.608 -1.28158 -1.47766 0
M  V30 6037 C 552.988 0.104545 -2.10841 0
M  V30 6038 O 552.336 1.11657 -1.99361 0
M  V30 6039 C 552.546 -2.41306 -2.52135 0
M  V30 6040 C 553.894 -2.81076 -3.18247 0
M  V30 6041 O 554.918 -2.40827 -2.62452 0
M  V30 6042 O 553.777 -3.50581 -4.19231 0
M  V30 6043 H 550.871 -0.502761 -0.656628 0
M  V30 6044 H 553.417 -1.51808 -0.758456 0
M  V30 6045 H 552.189 -3.33932 -2.03974 0
M  V30 6046 H 551.812 -2.19374 -3.31603 0
M  V30 6047 N 552.809 0.956637 -1.25245 0
M  V30 6048 C 554.057 1.69764 -1.09657 0
M  V30 6049 C 554.378 1.91583 0.363464 0
M  V30 6050 O 553.648 1.50149 1.25825 0
M  V30 6051 H 552.228 0.629097 -0.402798 0
M  V30 6052 H 554.89 1.15026 -1.57337 0
M  V30 6053 H 553.986 2.67769 -1.60331 0
M  V30 6054 N 554.287 1.06798 1.15896 0
M  V30 6055 C 555.234 0.683314 2.20453 0
M  V30 6056 C 556.204 -0.32255 1.62938 0
M  V30 6057 O 557.389 -0.210276 1.89638 0
M  V30 6058 C 554.529 0.0813266 3.45004 0
M  V30 6059 C 553.642 1.13799 4.16742 0
M  V30 6060 C 552.777 0.501598 5.28826 0
M  V30 6061 C 551.816 1.54144 5.92373 0
M  V30 6062 N 550.953 0.928038 6.9594 0
M  V30 6063 H 555.793 1.57932 2.52708 0
M  V30 6064 H 553.33 0.789544 1.24115 0
M  V30 6065 H 555.288 -0.285274 4.16224 0
M  V30 6066 H 553.918 -0.77806 3.13283 0
M  V30 6067 H 552.97 1.62223 3.44075 0
M  V30 6068 H 554.282 1.92664 4.60089 0
M  V30 6069 H 553.436 0.0823162 6.06644 0
M  V30 6070 H 552.175 -0.318883 4.86656 0
M  V30 6071 H 551.18 1.97056 5.13273 0
M  V30 6072 H 552.405 2.3641 6.36621 0
M  V30 6073 H 550.351 0.12836 6.55874 0
M  V30 6074 H 550.268 1.65401 7.37685 0
M  V30 6075 H 551.536 0.534071 7.77668 0
M  V30 6076 N 555.766 -1.3263 0.851289 0
M  V30 6077 C 557.014 -1.96978 0.452128 0
M  V30 6078 C 557.335 -1.67715 -0.99482 0
M  V30 6079 O 556.605 -0.98259 -1.69476 0
M  V30 6080 H 555.185 -0.72873 0.164202 0
M  V30 6081 H 557.847 -1.61774 1.08698 0
M  V30 6082 H 556.943 -3.06387 0.594407 0
M  V30 6083 N 557.244 -0.608902 -1.45362 0
M  V30 6084 C 558.492 -0.104401 -2.0183 0
M  V30 6085 C 558.813 1.27007 -1.47967 0
M  V30 6086 O 558.083 1.83924 -0.674455 0
M  V30 6087 H 556.663 -0.0356042 -0.746151 0
M  V30 6088 H 559.325 -0.790596 -1.78145 0
M  V30 6089 H 558.421 -0.0551793 -3.12051 0
M  V30 6090 N 558.722 1.53707 -0.348139 0
M  V30 6091 C 559.67 2.26671 0.521808 0
M  V30 6092 C 560.664 1.28988 1.09811 0
M  V30 6093 O 561.87 1.4668 1.04332 0
M  V30 6094 H 558.245 0.728387 0.186968 0
M  V30 6095 H 560.216 2.98176 -0.115563 0
M  V30 6096 C 558.965 3.05591 1.6586 0
M  V30 6097 H 558.288 3.80589 1.22443 0
M  V30 6098 H 559.728 3.59851 2.24239 0
M  V30 6099 C 558.187 2.15366 2.59073 0
M  V30 6100 O 558.717 1.7528 3.61441 0
M  V30 6101 N 556.923 1.80352 2.27863 0
M  V30 6102 H 556.47 2.13149 1.44656 0
M  V30 6103 H 556.428 1.20268 2.90488 0
M  V30 6104 N 560.2 0.0768682 1.57412 0
M  V30 6105 C 561.446 -0.591961 1.93968 0
M  V30 6106 C 561.779 -1.68954 0.9575 0
M  V30 6107 O 561.054 -1.94496 -0.0124675 0
M  V30 6108 C 561.337 -1.16418 3.40762 0
M  V30 6109 C 561.19 -0.0728933 4.49741 0
M  V30 6110 C 562.509 -2.06814 3.88479 0
M  V30 6111 H 559.628 -0.213716 0.705333 0
M  V30 6112 H 562.27 0.14387 1.89455 0
M  V30 6113 H 560.42 -1.79128 3.4474 0
M  V30 6114 H 562.092 0.560446 4.57883 0
M  V30 6115 H 560.335 0.595859 4.29688 0
M  V30 6116 H 561.006 -0.513755 5.49604 0
M  V30 6117 H 563.482 -1.54033 3.8654 0
M  V30 6118 H 562.358 -2.43785 4.91793 0
M  V30 6119 H 562.619 -2.97844 3.26713 0
M  V30 6120 N 561.678 -1.56367 -0.196722 0
M  V30 6121 C 562.641 -1.93561 -1.22746 0
M  V30 6122 C 563.641 -0.816566 -1.38524 0
M  V30 6123 O 564.831 -1.084 -1.36363 0
M  V30 6124 C 561.963 -2.20823 -2.59712 0
M  V30 6125 H 563.156 -2.85774 -0.909586 0
M  V30 6126 H 560.709 -1.50032 -0.438174 0
M  V30 6127 H 561.444 -1.31243 -2.96557 0
M  V30 6128 H 561.229 -3.02368 -2.49632 0
M  V30 6129 H 562.719 -2.50608 -3.34044 0
M  V30 6130 N 563.156 0.464375 -1.50603 0
M  V30 6131 C 564.103 1.56152 -1.69956 0
M  V30 6132 C 565.073 1.57046 -0.54091 0
M  V30 6133 O 566.258 1.74473 -0.772258 0
M  V30 6134 C 563.398 2.94079 -1.80586 0
M  V30 6135 C 562.511 3.02923 -3.07996 0
M  V30 6136 C 561.646 4.31806 -3.09382 0
M  V30 6137 C 560.685 4.34417 -4.31218 0
M  V30 6138 N 559.822 5.54782 -4.30304 0
M  V30 6139 H 564.662 1.38955 -2.6362 0
M  V30 6140 H 562.199 0.675482 -1.30674 0
M  V30 6141 H 564.157 3.74073 -1.8473 0
M  V30 6142 H 562.787 3.09896 -0.903556 0
M  V30 6143 H 561.839 2.1576 -3.13292 0
M  V30 6144 H 563.151 3.00712 -3.97962 0
M  V30 6145 H 562.305 5.20153 -3.12292 0
M  V30 6146 H 561.044 4.36636 -2.17257 0
M  V30 6147 H 560.049 3.44467 -4.28512 0
M  V30 6148 H 561.274 4.31273 -5.24576 0
M  V30 6149 H 559.22 5.60384 -3.41037 0
M  V30 6150 H 559.137 5.54339 -5.14047 0
M  V30 6151 H 560.405 6.45235 -4.3737 0
M  V30 6152 N 564.634 1.40294 0.718013 0
M  V30 6153 C 565.581 1.40367 1.8321 0
M  V30 6154 C 566.551 0.260952 1.64037 0
M  V30 6155 O 567.736 0.458648 1.85205 0
M  V30 6156 C 564.876 1.26965 3.20895 0
M  V30 6157 C 563.989 2.50922 3.51656 0
M  V30 6158 C 563.124 2.29981 4.78834 0
M  V30 6159 C 562.163 3.49527 5.02491 0
M  V30 6160 N 561.3 3.27796 6.20882 0
M  V30 6161 H 566.14 2.35593 1.82482 0
M  V30 6162 H 563.677 1.17012 0.891444 0
M  V30 6163 H 565.635 1.17202 4.00399 0
M  V30 6164 H 564.265 0.353591 3.20858 0
M  V30 6165 H 563.317 2.71223 2.66725 0
M  V30 6166 H 564.629 3.39913 3.65048 0
M  V30 6167 H 563.783 2.17558 5.66351 0
M  V30 6168 H 562.522 1.38411 4.67647 0
M  V30 6169 H 561.527 3.6243 4.1343 0
M  V30 6170 H 562.752 4.42021 5.15553 0
M  V30 6171 H 560.698 2.38906 6.1095 0
M  V30 6172 H 560.615 4.10351 6.34939 0
M  V30 6173 H 561.883 3.19101 7.11193 0
M  V30 6174 N 566.112 -0.949982 1.2575 0
M  V30 6175 C 567.06 -2.06869 1.06339 0
M  V30 6176 C 568.054 -1.69399 -0.00708901 0
M  V30 6177 O 569.26 -1.79383 0.148897 0
M  V30 6178 H 565.635 -0.677197 0.326969 0
M  V30 6179 H 567.606 -2.20396 2.01167 0
M  V30 6180 C 566.355 -3.40503 0.703769 0
M  V30 6181 H 565.678 -3.69807 1.51931 0
M  V30 6182 H 567.118 -4.19623 0.607677 0
M  V30 6183 C 565.577 -3.31685 -0.5905 0
M  V30 6184 O 566.107 -3.67085 -1.63131 0
M  V30 6185 N 564.313 -2.84797 -0.577859 0
M  V30 6186 H 563.86 -2.56186 0.26951 0
M  V30 6187 H 563.818 -2.79279 -1.44398 0
M  V30 6188 N 567.59 -1.07411 -1.15328 0
M  V30 6189 C 568.818 -0.818782 -1.90009 0
M  V30 6190 C 569.233 0.628072 -1.78047 0
M  V30 6191 O 568.59 1.43085 -1.13282 0
M  V30 6192 C 568.641 -1.21874 -3.40337 0
M  V30 6193 O 568.362 -2.60883 -3.51954 0
M  V30 6194 C 569.863 -0.992796 -4.3204 0
M  V30 6195 H 567.083 -0.296007 -0.60218 0
M  V30 6196 H 569.627 -1.43073 -1.46117 0
M  V30 6197 H 567.782 -0.651103 -3.81889 0
M  V30 6198 H 568.196 -2.77216 -4.45255 0
M  V30 6199 H 569.67 -1.32215 -5.35932 0
M  V30 6200 H 570.147 0.0708331 -4.39143 0
M  V30 6201 H 570.753 -1.54537 -3.9623 0
M  V30 6202 N 569.068 1.32177 -0.85831 0
M  V30 6203 C 570.314 1.97417 -0.46417 0
M  V30 6204 C 570.647 1.67746 0.978514 0
M  V30 6205 O 569.922 0.967654 1.68721 0
M  V30 6206 C 570.205 3.53069 -0.708094 0
M  V30 6207 C 570.058 3.92357 -2.19946 0
M  V30 6208 C 571.377 4.39783 -0.166881 0
M  V30 6209 H 568.496 0.717097 -0.17012 0
M  V30 6210 H 571.138 1.56499 -1.07741 0
M  V30 6211 H 569.288 3.88054 -0.186128 0
M  V30 6212 H 570.96 3.67533 -2.78779 0
M  V30 6213 H 569.203 3.41384 -2.67656 0
M  V30 6214 H 569.874 5.00841 -2.32082 0
M  V30 6215 H 572.35 4.11556 -0.613285 0
M  V30 6216 H 571.226 5.47671 -0.367093 0
M  V30 6217 H 571.487 4.32196 0.930559 0
M  V30 6218 N 570.547 0.616602 1.45037 0
M  V30 6219 C 571.495 -0.109318 2.32343 0
M  V30 6220 C 572.489 -0.850543 1.465 0
M  V30 6221 O 573.695 -0.765088 1.62931 0
M  V30 6222 H 570.07 -0.0541091 0.750051 0
M  V30 6223 H 572.041 0.645326 2.91338 0
M  V30 6224 C 570.79 -1.0872 3.30266 0
M  V30 6225 H 570.113 -0.526267 3.96321 0
M  V30 6226 H 571.553 -1.56489 3.94065 0
M  V30 6227 C 570.012 -2.16525 2.58105 0
M  V30 6228 O 570.542 -3.244 2.36913 0
M  V30 6229 N 568.748 -1.92057 2.18088 0
M  V30 6230 H 568.295 -1.04337 2.35524 0
M  V30 6231 H 568.253 -2.64391 1.70131 0
M  V30 6232 N 572.025 -1.5352 0.356285 0
M  V30 6233 C 573.273 -2.00719 -0.235837 0
M  V30 6234 C 573.594 -1.24551 -1.5004 0
M  V30 6235 O 572.864 -0.356185 -1.92635 0
M  V30 6236 H 571.444 -0.741542 -0.0901366 0
M  V30 6237 H 574.106 -1.88887 0.480378 0
M  V30 6238 H 573.202 -3.08551 -0.469357 0
M  V30 6239 N 573.503 -0.0852151 -1.57369 0
M  V30 6240 C 574.731 0.58946 -1.98325 0
M  V30 6241 C 575.146 1.62333 -0.96403 0
M  V30 6242 O 574.503 1.82438 0.0476395 0
M  V30 6243 C 574.554 1.24604 -3.39347 0
M  V30 6244 O 574.275 0.253532 -4.37366 0
M  V30 6245 C 575.776 2.00726 -3.95252 0
M  V30 6246 H 572.996 0.158783 -0.651942 0
M  V30 6247 H 575.54 -0.161584 -2.03861 0
M  V30 6248 H 573.695 1.94808 -3.34856 0
M  V30 6249 H 574.109 0.726207 -5.19448 0
M  V30 6250 H 575.583 2.42039 -4.96106 0
M  V30 6251 H 576.06 2.86919 -3.32527 0
M  V30 6252 H 576.666 1.3536 -4.03185 0
M  V30 6253 N 574.981 1.5647 0.188427 0
M  V30 6254 C 576.229 1.80655 0.905986 0
M  V30 6255 C 576.55 0.659391 1.83513 0
M  V30 6256 O 575.82 -0.321868 1.93238 0
M  V30 6257 H 574.4 0.666391 0.337538 0
M  V30 6258 H 577.062 1.93949 0.192339 0
M  V30 6259 H 576.158 2.74066 1.49313 0
M  V30 6260 N 576.459 -0.456382 1.50847 0
M  V30 6261 C 577.687 -1.23026 1.66349 0
M  V30 6262 C 578.102 -1.85473 0.352868 0
M  V30 6263 O 577.459 -1.69885 -0.666739 0
M  V30 6264 C 577.51 -2.32827 2.76539 0
M  V30 6265 O 577.231 -1.72938 4.02522 0
M  V30 6266 C 578.732 -3.23448 3.03144 0
M  V30 6267 H 575.952 -0.371527 0.558756 0
M  V30 6268 H 578.496 -0.543082 1.97157 0
M  V30 6269 H 576.651 -2.97294 2.48384 0
M  V30 6270 H 577.065 -2.45357 4.63573 0
M  V30 6271 H 578.539 -3.96669 3.83872 0
M  V30 6272 H 579.016 -3.83094 2.14793 0
M  V30 6273 H 579.622 -2.64702 3.32886 0
M  V30 6274 N 577.937 -1.40673 -0.710563 0
M  V30 6275 C 579.348 -1.34975 -1.28991 0
M  V30 6276 C 579.699 -0.0256272 -1.96183 0
M  V30 6277 O 578.824 0.876339 -1.97862 0
M  V30 6278 C 579.419 -2.44467 -2.34567 0
M  V30 6279 C 577.978 -2.42213 -2.88114 0
M  V30 6280 C 577.125 -2.25085 -1.61963 0
M  V30 6281 H 580.076 -1.50406 -0.506343 0
M  V30 6282 H 580.097 -2.12663 -3.15523 0
M  V30 6283 H 579.609 -3.40825 -1.85634 0
M  V30 6284 H 577.71 -1.49568 -3.41263 0
M  V30 6285 H 577.823 -3.37983 -3.39565 0
M  V30 6286 H 576.187 -1.72691 -1.87216 0
M  V30 6287 H 576.97 -3.23449 -1.15047 0
M  V30 6288 N 579.415 0.9433 -1.26252 0
M  V30 6289 C 580.661 1.69175 -1.11837 0
M  V30 6290 C 580.994 1.91238 0.337891 0
M  V30 6291 O 580.269 1.49152 1.24836 0
M  V30 6292 C 580.552 3.06783 -1.88563 0
M  V30 6293 C 580.405 2.9206 -3.42083 0
M  V30 6294 C 581.724 4.06865 -1.67776 0
M  V30 6295 H 578.843 0.61399 -0.407658 0
M  V30 6296 H 581.485 1.09572 -1.55222 0
M  V30 6297 H 579.635 3.57663 -1.51689 0
M  V30 6298 H 581.307 2.48419 -3.88698 0
M  V30 6299 H 579.55 2.27731 -3.69217 0
M  V30 6300 H 580.221 3.89651 -3.90994 0
M  V30 6301 H 582.697 3.64939 -1.99897 0
M  V30 6302 H 581.573 5.01168 -2.23879 0
M  V30 6303 H 581.834 4.37705 -0.621816 0
M  V30 6304 N 580.893 1.08022 1.14757 0
M  V30 6305 C 581.843 0.676345 2.17737 0
M  V30 6306 C 582.827 -0.302018 1.5804 0
M  V30 6307 O 584.019 -0.11466 1.76628 0
M  V30 6308 C 581.148 0.082984 3.432 0
M  V30 6309 C 580.234 1.0869 4.09936 0
M  V30 6310 N 580.625 2.26891 4.52055 0
M  V30 6311 C 578.923 0.921768 4.36371 0
M  V30 6312 C 579.624 2.90636 5.0389 0
M  V30 6313 N 578.6 2.18266 4.97856 0
M  V30 6314 H 582.402 1.5765 2.4804 0
M  V30 6315 H 579.916 0.954374 1.31398 0
M  V30 6316 H 581.913 -0.224289 4.16296 0
M  V30 6317 H 580.573 -0.812206 3.14378 0
M  V30 6318 H 581.584 2.6457 4.45223 0
M  V30 6319 H 578.261 0.0800499 4.17423 0
M  V30 6320 H 579.651 3.9104 5.46386 0
M  V30 6321 N 582.371 -1.3172 0.865308 0
M  V30 6322 C 583.62 -1.96145 0.470098 0
M  V30 6323 C 583.933 -1.69182 -0.981674 0
M  V30 6324 O 585.139 -2.27431 -1.48281 0
M  V30 6325 C 583.595 -3.51129 0.789732 0
M  V30 6326 C 583.203 -3.86938 2.25795 0
M  V30 6327 C 584.947 -4.2197 0.462765 0
M  V30 6328 C 582.854 -5.35012 2.52024 0
M  V30 6329 H 581.784 -0.734105 0.172065 0
M  V30 6330 H 584.435 -1.49959 1.05757 0
M  V30 6331 H 582.817 -3.95781 0.131571 0
M  V30 6332 H 583.991 -3.5326 2.95879 0
M  V30 6333 H 582.306 -3.29149 2.55049 0
M  V30 6334 H 584.903 -5.30904 0.636019 0
M  V30 6335 H 585.246 -4.12005 -0.59645 0
M  V30 6336 H 585.779 -3.82936 1.07727 0
M  V30 6337 H 582.518 -5.50008 3.56611 0
M  V30 6338 H 582.038 -5.70058 1.8653 0
M  V30 6339 H 583.717 -6.0222 2.36515 0
M  V30 6340 N 583.85 -0.624285 -1.44708 0
M  V30 6341 C 585.075 -0.131171 -2.06985 0
M  V30 6342 C 585.5 1.18234 -1.46295 0
M  V30 6343 O 584.858 1.72375 -0.561842 0
M  V30 6344 C 584.906 -0.0226724 -3.60593 0
M  V30 6345 O 584.01 1.02314 -3.99507 0
M  V30 6346 H 583.351 -0.0816556 -0.65896 0
M  V30 6347 H 585.88 -0.859027 -1.85693 0
M  V30 6348 H 585.891 0.170138 -4.07645 0
M  V30 6349 H 584.566 -0.981685 -4.04148 0
M  V30 6350 H 583.143 0.805452 -3.64097 0
M  V30 6351 N 585.328 1.53329 -0.364422 0
M  V30 6352 C 586.556 2.05657 0.226424 0
M  V30 6353 C 586.971 1.23801 1.42544 0
M  V30 6354 O 586.328 0.27839 1.80364 0
M  V30 6355 C 586.379 3.56125 0.621056 0
M  V30 6356 O 586.1 4.34879 -0.530304 0
M  V30 6357 C 587.601 4.24706 1.27041 0
M  V30 6358 H 584.821 0.669806 0.0400056 0
M  V30 6359 H 587.365 1.97714 -0.522456 0
M  V30 6360 H 585.52 3.64223 1.31985 0
M  V30 6361 H 585.934 5.24073 -0.211546 0
M  V30 6362 H 587.408 5.3131 1.49711 0
M  V30 6363 H 587.885 3.78354 2.23036 0
M  V30 6364 H 588.491 4.20858 0.613079 0
M  V30 6365 N 586.806 0.0935595 1.57322 0
M  V30 6366 C 587.736 -0.863062 2.16964 0
M  V30 6367 C 588.717 -1.29528 1.10256 0
M  V30 6368 O 589.902 -1.36245 1.38387 0
M  V30 6369 C 587.032 -2.12276 2.74875 0
M  V30 6370 C 585.986 -1.82921 3.86942 0
M  V30 6371 C 585.312 -3.15707 4.31548 0
M  V30 6372 C 586.612 -1.11737 5.10208 0
M  V30 6373 H 588.306 -0.366145 2.97153 0
M  V30 6374 H 585.852 -0.174673 1.42937 0
M  V30 6375 H 587.805 -2.79634 3.1525 0
M  V30 6376 H 586.529 -2.64248 1.91938 0
M  V30 6377 H 585.188 -1.17961 3.47103 0
M  V30 6378 H 584.836 -3.65563 3.45504 0
M  V30 6379 H 584.536 -2.96849 5.07104 0
M  V30 6380 H 586.06 -3.84226 4.74555 0
M  V30 6381 H 587.474 -1.69203 5.47762 0
M  V30 6382 H 585.871 -1.03064 5.91183 0
M  V30 6383 H 586.941 -0.0998818 4.84797 0
M  V30 6384 N 588.284 -1.56567 -0.180126 0
M  V30 6385 C 589.216 -1.92275 -1.24751 0
M  V30 6386 C 590.229 -0.814922 -1.40936 0
M  V30 6387 O 591.418 -1.09336 -1.41095 0
M  V30 6388 C 588.518 -2.15265 -2.61752 0
M  V30 6389 C 587.691 -3.46467 -2.66981 0
M  V30 6390 C 586.75 -3.58391 -3.85283 0
M  V30 6391 O 585.776 -4.31086 -3.7169 0
M  V30 6392 N 586.978 -2.92587 -5.01371 0
M  V30 6393 H 589.743 -2.84435 -0.944302 0
M  V30 6394 H 587.304 -1.57617 -0.369952 0
M  V30 6395 H 589.296 -2.20515 -3.39345 0
M  V30 6396 H 587.866 -1.29533 -2.845 0
M  V30 6397 H 587.086 -3.52953 -1.75549 0
M  V30 6398 H 588.374 -4.32819 -2.67479 0
M  V30 6399 H 587.772 -2.3338 -5.15316 0
M  V30 6400 H 586.329 -3.03444 -5.76858 0
M  V30 6401 N 589.762 0.448376 -1.51087 0
M  V30 6402 C 591.008 1.20049 -1.6345 0
M  V30 6403 C 591.341 1.91121 -0.344444 0
M  V30 6404 O 590.616 1.83125 0.655396 0
M  V30 6405 C 590.899 2.22624 -2.83038 0
M  V30 6406 C 590.752 1.55708 -4.21989 0
M  V30 6407 C 592.071 3.23718 -2.98152 0
M  V30 6408 H 589.19 0.435085 -0.59487 0
M  V30 6409 H 591.832 0.491183 -1.83541 0
M  V30 6410 H 589.982 2.83117 -2.66039 0
M  V30 6411 H 591.654 0.986367 -4.50631 0
M  V30 6412 H 589.897 0.859647 -4.25197 0
M  V30 6413 H 590.568 2.30357 -5.01637 0
M  V30 6414 H 593.044 2.73269 -3.13788 0
M  V30 6415 H 591.92 3.92795 -3.83411 0
M  V30 6416 H 592.181 3.89179 -2.09743 0
M  V30 6417 N 591.24 1.41047 0.703093 0
M  V30 6418 C 592.488 1.39723 1.4602 0
M  V30 6419 C 592.809 0.00461257 1.94999 0
M  V30 6420 O 592.079 -0.952292 1.71196 0
M  V30 6421 H 590.659 0.514281 0.541779 0
M  V30 6422 H 593.321 1.76217 0.832678 0
M  V30 6423 H 592.417 2.07982 2.32701 0
M  V30 6424 N 592.718 -0.936591 1.26751 0
M  V30 6425 C 593.628 -2.06949 1.10496 0
M  V30 6426 C 594.644 -1.7396 0.037271 0
M  V30 6427 O 595.82 -1.99941 0.241944 0
M  V30 6428 C 592.885 -3.38612 0.744491 0
M  V30 6429 C 591.946 -3.85355 1.89209 0
M  V30 6430 C 591.179 -5.10735 1.54873 0
M  V30 6431 O 591.402 -5.68602 0.452546 0
M  V30 6432 O 590.336 -5.52632 2.38499 0
M  V30 6433 H 594.162 -2.23571 2.05547 0
M  V30 6434 H 591.747 -1.05428 1.05855 0
M  V30 6435 H 593.629 -4.17711 0.556396 0
M  V30 6436 H 592.304 -3.23218 -0.176582 0
M  V30 6437 H 591.211 -3.07182 2.13518 0
M  V30 6438 H 592.544 -4.05277 2.79305 0
M  V30 6439 N 594.196 -1.08629 -1.14182 0
M  V30 6440 C 595.424 -0.838889 -1.8913 0
M  V30 6441 C 595.839 0.609153 -1.78703 0
M  V30 6442 O 595.196 1.41876 -1.14794 0
M  V30 6443 C 595.247 -1.25477 -3.39025 0
M  V30 6444 O 594.968 -2.64601 -3.49167 0
M  V30 6445 C 596.469 -1.03856 -4.30963 0
M  V30 6446 H 593.689 -0.302377 -0.599007 0
M  V30 6447 H 596.233 -1.44615 -1.44592 0
M  V30 6448 H 594.388 -0.691571 -3.81177 0
M  V30 6449 H 594.802 -2.81922 -4.42289 0
M  V30 6450 H 596.276 -1.37892 -5.345 0
M  V30 6451 H 596.753 0.0242522 -4.39193 0
M  V30 6452 H 597.359 -1.58731 -3.94569 0
M  V30 6453 N 595.674 1.31259 -0.872281 0
M  V30 6454 C 597.09 1.49283 -0.564521 0
M  V30 6455 C 597.29 1.80243 0.900807 0
M  V30 6456 O 596.346 1.88246 1.68284 0
M  V30 6457 C 597.659 2.62503 -1.46673 0
M  V30 6458 C 599.207 2.76386 -1.46901 0
M  V30 6459 C 599.682 3.92705 -2.35684 0
M  V30 6460 N 601.173 3.99995 -2.33577 0
M  V30 6461 C 601.908 4.89276 -2.98992 0
M  V30 6462 N 601.404 5.83443 -3.73585 0
M  V30 6463 N 603.197 4.82541 -2.88289 0
M  V30 6464 H 595.348 1.09432 -1.82039 0
M  V30 6465 H 597.611 0.540949 -0.77851 0
M  V30 6466 H 597.317 2.46407 -2.50951 0
M  V30 6467 H 597.191 3.58695 -1.16696 0
M  V30 6468 H 599.578 2.91894 -0.433796 0
M  V30 6469 H 599.659 1.80853 -1.80903 0
M  V30 6470 H 599.303 3.77954 -3.39283 0
M  V30 6471 H 599.233 4.87549 -1.99006 0
M  V30 6472 H 601.724 3.32624 -1.7936 0
M  V30 6473 H 602.037 6.48303 -4.20622 0
M  V30 6474 H 600.382 5.83415 -3.77694 0
M  V30 6475 H 603.573 4.07951 -2.2955 0
M  V30 6476 H 603.746 5.51916 -3.39549 0
M  V30 6477 N 597.152 0.631951 1.44375 0
M  V30 6478 C 598.392 0.14009 2.03919 0
M  V30 6479 C 598.756 -1.21534 1.48639 0
M  V30 6480 O 599.957 -1.79936 1.99691 0
M  V30 6481 C 598.228 0.127174 3.57174 0
M  V30 6482 S 599.787 -0.299946 4.37774 0
M  V30 6483 H 596.605 0.0614891 0.708336 0
M  V30 6484 H 599.207 0.835524 1.76746 0
M  V30 6485 H 597.911 1.11676 3.94913 0
M  V30 6486 H 597.442 -0.589482 3.88958 0
M  V30 6487 H 599.457 -1.54396 4.71568 0
M  V30 6488 N 598.631 -1.53133 0.372548 0
M  V30 6489 C 599.578 -2.25951 -0.470631 0
M  V30 6490 C 600.548 -1.26895 -1.07176 0
M  V30 6491 O 601.733 -1.55691 -1.10294 0
M  V30 6492 C 598.873 -3.05726 -1.6008 0
M  V30 6493 C 597.986 -4.19684 -1.02416 0
M  V30 6494 C 597.121 -4.86888 -2.124 0
M  V30 6495 C 596.16 -5.92866 -1.52238 0
M  V30 6496 N 595.297 -6.53732 -2.56084 0
M  V30 6497 H 600.137 -2.97587 0.156816 0
M  V30 6498 H 597.674 -1.4683 0.0891571 0
M  V30 6499 H 599.632 -3.50258 -2.26661 0
M  V30 6500 H 598.262 -2.36331 -2.1988 0
M  V30 6501 H 597.314 -3.79588 -0.248426 0
M  V30 6502 H 598.626 -4.95821 -0.544366 0
M  V30 6503 H 597.78 -5.34638 -2.86787 0
M  V30 6504 H 596.519 -4.10239 -2.63734 0
M  V30 6505 H 595.524 -5.4447 -0.763685 0
M  V30 6506 H 596.749 -6.71439 -1.0172 0
M  V30 6507 H 594.695 -5.79932 -3.06618 0
M  V30 6508 H 594.612 -7.25429 -2.12811 0
M  V30 6509 H 595.88 -7.0613 -3.30152 0
M  V30 6510 N 600.109 -0.101901 -1.5727 0
M  V30 6511 C 601.056 0.854577 -2.14396 0
M  V30 6512 C 602.026 1.27521 -1.06432 0
M  V30 6513 O 603.211 1.35575 -1.34253 0
M  V30 6514 C 600.351 2.10576 -2.73408 0
M  V30 6515 C 599.464 1.73504 -3.95626 0
M  V30 6516 C 598.599 2.9346 -4.42781 0
M  V30 6517 C 597.638 2.52547 -5.57572 0
M  V30 6518 N 596.775 3.65359 -5.99547 0
M  V30 6519 H 601.615 0.360578 -2.9581 0
M  V30 6520 H 599.152 0.166303 -1.46157 0
M  V30 6521 H 601.11 2.83859 -3.05745 0
M  V30 6522 H 599.74 2.57463 -1.94711 0
M  V30 6523 H 598.792 0.901622 -3.6956 0
M  V30 6524 H 600.104 1.39426 -4.78917 0
M  V30 6525 H 599.258 3.74988 -4.76937 0
M  V30 6526 H 597.997 3.30753 -3.58404 0
M  V30 6527 H 597.002 1.69446 -5.23037 0
M  V30 6528 H 598.227 2.1639 -6.43702 0
M  V30 6529 H 596.173 4.02358 -5.18116 0
M  V30 6530 H 596.09 3.35148 -6.77652 0
M  V30 6531 H 597.358 4.47378 -6.38336 0
M  V30 6532 N 601.587 1.56661 0.17182 0
M  V30 6533 C 602.833 1.82235 0.889845 0
M  V30 6534 C 603.166 0.679673 1.81918 0
M  V30 6535 O 602.441 -0.318404 1.91876 0
M  V30 6536 C 602.724 3.18195 1.68595 0
M  V30 6537 C 602.577 4.42989 0.779773 0
M  V30 6538 C 603.896 3.5109 2.65375 0
M  V30 6539 H 601.015 0.66291 0.322056 0
M  V30 6540 H 603.657 1.89358 0.15608 0
M  V30 6541 H 601.807 3.12253 2.3115 0
M  V30 6542 H 603.479 4.60997 0.16714 0
M  V30 6543 H 601.722 4.33711 0.0877964 0
M  V30 6544 H 602.393 5.3467 1.3723 0
M  V30 6545 H 604.869 3.57482 2.12946 0
M  V30 6546 H 603.745 4.47298 3.18144 0
M  V30 6547 H 604.006 2.75768 3.45549 0
M  V30 6548 N 603.065 -0.440357 1.51323 0
M  V30 6549 C 604.305 -1.19956 1.65499 0
M  V30 6550 C 604.669 -1.88559 0.361878 0
M  V30 6551 O 605.87 -2.66109 0.379383 0
M  V30 6552 C 604.141 -2.1918 2.82303 0
M  V30 6553 S 605.7 -3.03627 3.1679 0
M  V30 6554 H 602.518 -0.406833 0.583102 0
M  V30 6555 H 605.12 -0.491596 1.89218 0
M  V30 6556 H 603.824 -1.67414 3.74701 0
M  V30 6557 H 603.355 -2.94561 2.60763 0
M  V30 6558 H 605.37 -4.20773 2.62991 0
M  V30 6559 N 604.543 -1.41418 -0.695603 0
M  V30 6560 C 605.771 -1.4413 -1.48439 0
M  V30 6561 C 606.186 -0.0465698 -1.88743 0
M  V30 6562 O 605.543 0.934117 -1.56782 0
M  V30 6563 C 605.594 -2.34998 -2.74696 0
M  V30 6564 O 605.315 -3.69043 -2.36091 0
M  V30 6565 C 606.816 -2.46513 -3.68438 0
M  V30 6566 H 604.036 -0.490905 -0.457442 0
M  V30 6567 H 606.58 -1.85702 -0.856454 0
M  V30 6568 H 604.735 -1.96735 -3.33728 0
M  V30 6569 H 605.149 -4.17505 -3.17474 0
M  V30 6570 H 606.623 -3.1426 -4.53811 0
M  V30 6571 H 607.1 -1.49638 -4.12922 0
M  V30 6572 H 607.706 -2.85412 -3.1531 0
M  V30 6573 N 606.021 0.929856 -1.27246 0
M  V30 6574 C 607.246 1.71674 -1.16374 0
M  V30 6575 C 607.671 1.86064 0.276024 0
M  V30 6576 O 607.029 1.3591 1.19992 0
M  V30 6577 C 607.077 3.09526 -1.85003 0
M  V30 6578 O 606.181 3.96142 -1.14653 0
M  V30 6579 H 605.522 0.52629 -0.404863 0
M  V30 6580 H 608.052 1.16381 -1.68276 0
M  V30 6581 H 608.062 3.59852 -1.92276 0
M  V30 6582 H 606.737 2.98369 -2.89739 0
M  V30 6583 H 605.314 3.54584 -1.15433 0
M  V30 6584 N 607.499 1.09233 1.13605 0
M  V30 6585 C 608.446 0.729921 2.18954 0
M  V30 6586 C 609.416 -0.287916 1.63586 0
M  V30 6587 O 610.601 -0.170003 1.90041 0
M  V30 6588 C 607.741 0.154489 3.44754 0
M  V30 6589 C 606.854 1.22613 4.14234 0
M  V30 6590 C 605.989 0.613657 5.27644 0
M  V30 6591 C 605.028 1.66674 5.8897 0
M  V30 6592 N 604.165 1.07545 6.93814 0
M  V30 6593 H 609.005 1.63257 2.49302 0
M  V30 6594 H 606.542 0.815693 1.22413 0
M  V30 6595 H 608.5 -0.196923 4.16735 0
M  V30 6596 H 607.13 -0.711433 3.14863 0
M  V30 6597 H 606.182 1.69485 3.40557 0
M  V30 6598 H 607.494 2.0238 4.55899 0
M  V30 6599 H 606.648 0.210976 6.06333 0
M  V30 6600 H 605.387 -0.215584 4.87223 0
M  V30 6601 H 604.392 2.07899 5.08978 0
M  V30 6602 H 605.617 2.49861 6.31464 0
M  V30 6603 H 603.563 0.267451 6.55455 0
M  V30 6604 H 603.48 1.81011 7.3401 0
M  V30 6605 H 604.748 0.698906 7.7636 0
M  V30 6606 N 608.977 -1.30795 0.87923 0
M  V30 6607 C 610.202 -2.01063 0.508769 0
M  V30 6608 C 610.627 -1.65508 -0.893803 0
M  V30 6609 O 609.985 -0.868616 -1.59138 0
M  V30 6610 C 610.033 -3.54054 0.683991 0
M  V30 6611 O 609.137 -4.11498 -0.272654 0
M  V30 6612 H 608.478 -0.632786 0.201191 0
M  V30 6613 H 611.008 -1.66776 1.18519 0
M  V30 6614 H 611.018 -4.03845 0.580798 0
M  V30 6615 H 609.693 -3.79271 1.70665 0
M  V30 6616 H 608.27 -3.72695 -0.12364 0
M  V30 6617 N 610.455 -0.639598 -1.44038 0
M  V30 6618 C 611.732 -0.078012 -1.95444 0
M  V30 6619 C 612.112 1.39847 -1.58133 0
M  V30 6620 O 611.46 2.11714 -0.859614 0
M  V30 6621 C 611.67 -0.309832 -3.47622 0
M  V30 6622 C 613.018 -0.207521 -4.24093 0
M  V30 6623 O 614.042 -0.241653 -3.55379 0
M  V30 6624 O 612.901 -0.119641 -5.46369 0
M  V30 6625 H 609.995 0.0174534 -0.826816 0
M  V30 6626 H 612.541 -0.711891 -1.54046 0
M  V30 6627 H 611.313 -1.33401 -3.67858 0
M  V30 6628 H 610.936 0.357777 -3.95987 0
M  V30 6629 N 611.933 1.52934 -0.380664 0
M  V30 6630 C 612.863 2.29118 0.450268 0
M  V30 6631 C 613.844 1.32153 1.07096 0
M  V30 6632 O 615.029 1.61038 1.08537 0
M  V30 6633 C 612.159 3.09161 1.58231 0
M  V30 6634 C 611.113 4.13938 1.0881 0
M  V30 6635 C 610.439 4.82153 2.31155 0
M  V30 6636 C 611.739 5.22048 0.162146 0
M  V30 6637 H 613.433 2.98826 -0.185361 0
M  V30 6638 H 610.979 1.43715 -0.0905886 0
M  V30 6639 H 612.932 3.61211 2.17036 0
M  V30 6640 H 611.656 2.3717 2.2454 0
M  V30 6641 H 610.315 3.62855 0.522633 0
M  V30 6642 H 609.963 4.06719 2.95953 0
M  V30 6643 H 609.663 5.52966 1.98752 0
M  V30 6644 H 611.187 5.37004 2.90618 0
M  V30 6645 H 612.601 5.6951 0.658126 0
M  V30 6646 H 610.998 6.00057 -0.0717122 0
M  V30 6647 H 612.068 4.78398 -0.791438 0
M  V30 6648 N 613.412 0.11024 1.57214 0
M  V30 6649 C 614.828 -0.24638 1.57687 0
M  V30 6650 C 615.028 -1.67344 1.12241 0
M  V30 6651 O 614.084 -2.39298 0.805783 0
M  V30 6652 C 615.397 -0.0210288 3.00693 0
M  V30 6653 C 616.945 -0.0876077 3.12877 0
M  V30 6654 C 617.42 0.10994 4.57868 0
M  V30 6655 N 618.911 0.0556135 4.63167 0
M  V30 6656 C 619.646 0.183495 5.73106 0
M  V30 6657 N 619.142 0.367058 6.91827 0
M  V30 6658 N 620.935 0.123689 5.61964 0
M  V30 6659 H 613.086 1.04246 1.85058 0
M  V30 6660 H 615.349 0.40979 0.854854 0
M  V30 6661 H 615.055 0.965203 3.38196 0
M  V30 6662 H 614.929 -0.756748 3.69531 0
M  V30 6663 H 617.316 -1.06436 2.75237 0
M  V30 6664 H 617.397 0.67985 2.466 0
M  V30 6665 H 617.041 1.08362 4.96206 0
M  V30 6666 H 616.971 -0.677397 5.22225 0
M  V30 6667 H 619.462 -0.0831062 3.77809 0
M  V30 6668 H 619.775 0.455739 7.71455 0
M  V30 6669 H 618.12 0.40292 6.93831 0
M  V30 6670 H 621.311 -0.0186928 4.68096 0
M  V30 6671 H 621.484 0.226797 6.47603 0
M  V30 6672 N 614.89 -1.56749 -0.16351 0
M  V30 6673 C 616.115 -1.86938 -0.898264 0
M  V30 6674 C 616.54 -0.697456 -1.74692 0
M  V30 6675 O 615.898 0.353327 -1.77824 0
M  V30 6676 C 615.946 -3.15599 -1.74441 0
M  V30 6677 O 615.05 -2.98371 -2.8469 0
M  V30 6678 H 614.391 -0.614659 -0.251178 0
M  V30 6679 H 616.921 -2.03979 -0.159298 0
M  V30 6680 H 616.931 -3.47202 -2.14277 0
M  V30 6681 H 615.606 -4.00505 -1.1211 0
M  V30 6682 H 614.183 -2.7814 -2.4838 0
M  V30 6683 N 616.368 0.432326 -1.51554 0
M  V30 6684 C 617.316 1.54572 -1.73811 0
M  V30 6685 C 618.31 1.58246 -0.604539 0
M  V30 6686 O 619.516 1.6193 -0.786041 0
M  V30 6687 H 615.891 0.513626 -0.549265 0
M  V30 6688 H 617.862 1.32977 -2.67132 0
M  V30 6689 C 616.611 2.92181 -1.88483 0
M  V30 6690 H 615.934 2.90088 -2.75116 0
M  V30 6691 H 617.374 3.69439 -2.08065 0
M  V30 6692 C 615.833 3.3065 -0.645909 0
M  V30 6693 O 616.363 4.01216 0.197093 0
M  V30 6694 N 614.569 2.86464 -0.488538 0
M  V30 6695 H 614.116 2.29209 -1.17562 0
M  V30 6696 H 614.074 3.12565 0.339156 0
M  V30 6697 N 617.846 1.41785 0.688094 0
M  V30 6698 C 619.123 1.32031 1.44316 0
M  V30 6699 C 619.503 -0.0486079 2.11044 0
M  V30 6700 O 618.851 -1.06332 2.02252 0
M  V30 6701 C 619.061 2.47906 2.45649 0
M  V30 6702 C 620.409 2.89415 3.10683 0
M  V30 6703 O 621.433 2.477 2.55975 0
M  V30 6704 O 620.292 3.61573 4.09789 0
M  V30 6705 H 617.386 0.519994 0.643067 0
M  V30 6706 H 619.932 1.53765 0.71794 0
M  V30 6707 H 618.704 3.39222 1.95048 0
M  V30 6708 H 618.327 2.28089 3.25671 0
M  V30 6709 N 619.324 -0.923095 1.27737 0
M  V30 6710 C 620.571 -1.67127 1.14345 0
M  V30 6711 C 620.899 -1.92017 -0.30982 0
M  V30 6712 O 620.154 -1.51185 -1.24264 0
M  V30 6713 C 620.453 -3.04125 1.8773 0
M  V30 6714 C 620.119 -2.98929 3.37568 0
M  V30 6715 C 618.781 -2.9722 3.78436 0
M  V30 6716 C 621.133 -2.89875 4.33154 0
M  V30 6717 C 618.461 -2.84244 5.13247 0
M  V30 6718 C 620.813 -2.7844 5.68026 0
M  V30 6719 C 619.477 -2.75083 6.08182 0
M  V30 6720 H 618.747 -0.611562 0.418417 0
M  V30 6721 H 621.394 -1.07618 1.584 0
M  V30 6722 H 619.699 -3.67366 1.36196 0
M  V30 6723 H 621.396 -3.609 1.74792 0
M  V30 6724 H 617.986 -3.0105 3.05069 0
M  V30 6725 H 622.17 -2.9029 4.02548 0
M  V30 6726 H 617.426 -2.80034 5.43499 0
M  V30 6727 H 621.6 -2.70401 6.4176 0
M  V30 6728 H 619.227 -2.64786 7.12596 0
M  V30 6729 N 620.802 -1.09834 -1.13024 0
M  V30 6730 C 622.027 -0.85909 -1.88771 0
M  V30 6731 C 622.452 0.584402 -1.78791 0
M  V30 6732 O 621.81 1.41101 -1.13842 0
M  V30 6733 C 621.858 -1.30427 -3.36186 0
M  V30 6734 O 620.962 -0.465368 -4.09766 0
M  V30 6735 H 620.303 -0.310786 -0.586778 0
M  V30 6736 H 622.833 -1.46355 -1.42973 0
M  V30 6737 H 622.843 -1.2915 -3.8702 0
M  V30 6738 H 621.518 -2.3555 -3.42767 0
M  V30 6739 H 620.095 -0.542814 -3.68928 0
M  V30 6740 N 622.28 1.30327 -0.886154 0
M  V30 6741 C 623.529 1.95373 -0.501243 0
M  V30 6742 C 623.842 1.70722 0.954634 0
M  V30 6743 O 625.048 2.29761 1.44644 0
M  V30 6744 C 623.504 3.49828 -0.845493 0
M  V30 6745 C 623.112 3.83296 -2.31922 0
M  V30 6746 C 624.856 4.2118 -0.529838 0
M  V30 6747 C 622.763 5.30935 -2.60504 0
M  V30 6748 H 621.693 0.731274 -0.183722 0
M  V30 6749 H 624.344 1.48258 -1.08129 0
M  V30 6750 H 622.726 3.95522 -0.19452 0
M  V30 6751 H 623.9 3.48508 -3.01461 0
M  V30 6752 H 622.215 3.2505 -2.60253 0
M  V30 6753 H 624.812 5.29825 -0.720401 0
M  V30 6754 H 625.155 4.12902 0.530828 0
M  V30 6755 H 625.688 3.81173 -1.13806 0
M  V30 6756 H 622.427 5.44265 -3.65316 0
M  V30 6757 H 621.947 5.67019 -1.95575 0
M  V30 6758 H 623.626 5.98381 -2.46066 0
M  V30 6759 N 623.758 0.647228 1.43697 0
M  V30 6760 C 625.004 0.158422 2.0218 0
M  V30 6761 C 625.337 -1.22233 1.50907 0
M  V30 6762 O 624.612 -1.81478 0.699702 0
M  V30 6763 C 624.895 0.1627 3.59732 0
M  V30 6764 C 624.748 1.57694 4.21251 0
M  V30 6765 C 626.067 -0.504138 4.37203 0
M  V30 6766 H 623.186 0.059042 0.734631 0
M  V30 6767 H 625.828 0.826772 1.71069 0
M  V30 6768 H 623.978 -0.406414 3.86368 0
M  V30 6769 H 625.65 2.19618 4.05667 0
M  V30 6770 H 623.893 2.12603 3.7813 0
M  V30 6771 H 624.564 1.53183 5.3032 0
M  V30 6772 H 627.04 -0.0199841 4.16095 0
M  V30 6773 H 625.916 -0.470394 5.46881 0
M  V30 6774 H 626.177 -1.57726 4.13007 0
M  V30 6775 N 625.236 -1.5273 0.388769 0
M  V30 6776 C 626.484 -2.01174 -0.193208 0
M  V30 6777 C 626.805 -1.27705 -1.47365 0
M  V30 6778 O 626.075 -0.396966 -1.91836 0
M  V30 6779 H 624.655 -0.743287 -0.0743871 0
M  V30 6780 H 627.317 -1.87826 0.520336 0
M  V30 6781 H 626.413 -3.09477 -0.403803 0
M  V30 6782 N 626.714 -0.118576 -1.57153 0
M  V30 6783 C 627.939 0.550582 -1.99958 0
M  V30 6784 C 628.364 1.59458 -0.997736 0
M  V30 6785 O 627.722 1.81274 0.0306269 0
M  V30 6786 C 627.77 1.15379 -3.41643 0
M  V30 6787 O 626.874 2.26932 -3.44348 0
M  V30 6788 H 626.215 0.137567 -0.649593 0
M  V30 6789 H 628.745 -0.206926 -2.03551 0
M  V30 6790 H 628.755 1.48942 -3.79843 0
M  V30 6791 H 627.43 0.389087 -4.14076 0
M  V30 6792 H 626.007 1.94812 -3.17967 0
M  V30 6793 N 628.193 1.56834 0.155195 0
M  V30 6794 C 629.123 2.00678 1.19376 0
M  V30 6795 C 630.104 0.884973 1.45266 0
M  V30 6796 O 631.289 1.1522 1.56326 0
M  V30 6797 C 628.419 2.38042 2.5289 0
M  V30 6798 C 627.373 3.53332 2.41538 0
M  V30 6799 C 626.699 3.76485 3.79688 0
M  V30 6800 C 627.999 4.86265 1.9064 0
M  V30 6801 H 629.693 2.87688 0.829232 0
M  V30 6802 H 627.239 1.38407 0.397445 0
M  V30 6803 H 629.192 2.67314 3.25763 0
M  V30 6804 H 627.916 1.4796 2.91162 0
M  V30 6805 H 626.575 3.24213 1.71117 0
M  V30 6806 H 626.223 2.83667 4.15382 0
M  V30 6807 H 625.923 4.54068 3.72956 0
M  V30 6808 H 627.447 4.08174 4.54122 0
M  V30 6809 H 628.861 5.14308 2.53299 0
M  V30 6810 H 627.258 5.67597 1.94818 0
M  V30 6811 H 628.328 4.77184 0.861596 0
M  V30 6812 N 629.671 -0.424282 1.51781 0
M  V30 6813 C 631.082 -1.00368 1.57427 0
M  V30 6814 C 631.433 -1.91962 0.40558 0
M  V30 6815 O 630.558 -2.111 -0.47601 0
M  V30 6816 C 631.153 -1.82707 2.85313 0
M  V30 6817 C 629.712 -2.35675 2.93487 0
M  V30 6818 C 628.859 -1.1524 2.5222 0
M  V30 6819 H 631.81 -0.205064 1.5737 0
M  V30 6820 H 631.831 -2.68294 2.69812 0
M  V30 6821 H 631.343 -1.16017 3.70353 0
M  V30 6822 H 629.444 -3.05781 2.12906 0
M  V30 6823 H 629.557 -2.67578 3.97415 0
M  V30 6824 H 627.921 -1.50174 2.05718 0
M  V30 6825 H 628.704 -0.5014 3.39619 0
M  V30 6826 N 631.149 -1.42148 -0.680565 0
M  V30 6827 C 632.565 -1.24947 -0.992995 0
M  V30 6828 C 632.765 -0.149527 -2.00944 0
M  V30 6829 O 631.821 0.481145 -2.47873 0
M  V30 6830 C 633.134 -2.60426 -1.5033 0
M  V30 6831 C 634.682 -2.67733 -1.62137 0
M  V30 6832 C 635.157 -4.03564 -2.16565 0
M  V30 6833 N 636.648 -4.05488 -2.23905 0
M  V30 6834 C 637.383 -5.07401 -2.67081 0
M  V30 6835 N 636.879 -6.19698 -3.09751 0
M  V30 6836 N 638.672 -4.94758 -2.66778 0
M  V30 6837 H 630.823 -2.12399 -0.0074788 0
M  V30 6838 H 633.086 -0.94571 -0.0658529 0
M  V30 6839 H 632.792 -3.41743 -0.830947 0
M  V30 6840 H 632.666 -2.83949 -2.483 0
M  V30 6841 H 635.053 -1.86765 -2.2848 0
M  V30 6842 H 635.134 -2.48004 -0.626713 0
M  V30 6843 H 634.778 -4.84987 -1.50833 0
M  V30 6844 H 634.708 -4.20641 -3.1681 0
M  V30 6845 H 637.199 -3.24415 -1.93812 0
M  V30 6846 H 637.512 -6.93318 -3.41365 0
M  V30 6847 H 635.857 -6.23212 -3.07623 0
M  V30 6848 H 639.048 -4.06105 -2.32801 0
M  V30 6849 H 639.221 -5.74317 -3.00107 0
M  V30 6850 N 632.627 0.916307 -1.28225 0
M  V30 6851 C 633.904 1.64429 -1.05936 0
M  V30 6852 C 634.284 2.07234 0.402139 0
M  V30 6853 O 633.632 1.81535 1.3877 0
M  V30 6854 C 633.842 2.83773 -2.03159 0
M  V30 6855 C 635.19 3.54852 -2.33164 0
M  V30 6856 O 636.214 2.93918 -2.01223 0
M  V30 6857 O 635.073 4.64663 -2.87664 0
M  V30 6858 H 632.167 0.721221 -0.404683 0
M  V30 6859 H 634.713 0.965838 -1.39534 0
M  V30 6860 H 633.485 2.49217 -3.01673 0
M  V30 6861 H 633.108 3.59333 -1.70192 0
M  V30 6862 N 634.105 1.10431 1.1244 0
M  V30 6863 C 635.352 0.846717 1.83948 0
M  V30 6864 C 635.68 -0.627709 1.84093 0
M  V30 6865 O 634.935 -1.47876 1.28184 0
M  V30 6866 C 635.234 1.34022 3.3132 0
M  V30 6867 C 634.9 2.82606 3.51347 0
M  V30 6868 C 633.562 3.23182 3.56521 0
M  V30 6869 C 635.914 3.78356 3.58464 0
M  V30 6870 C 633.242 4.58258 3.66356 0
M  V30 6871 C 635.594 5.13234 3.69829 0
M  V30 6872 C 634.258 5.53384 3.73259 0
M  V30 6873 H 633.528 0.309836 0.673114 0
M  V30 6874 H 636.175 1.38091 1.32677 0
M  V30 6875 H 634.48 0.726047 3.85014 0
M  V30 6876 H 636.177 1.11739 3.85118 0
M  V30 6877 H 632.767 2.50212 3.47983 0
M  V30 6878 H 636.951 3.48115 3.53737 0
M  V30 6879 H 632.207 4.88787 3.67284 0
M  V30 6880 H 636.381 5.87272 3.74279 0
M  V30 6881 H 634.008 6.58045 3.80633 0
M  V30 6882 N 635.583 -1.29855 0.893053 0
M  V30 6883 C 636.493 -2.31661 0.370157 0
M  V30 6884 C 637.509 -1.65677 -0.531723 0
M  V30 6885 O 638.685 -1.9691 -0.422902 0
M  V30 6886 C 635.75 -3.44388 -0.399741 0
M  V30 6887 C 634.811 -4.2598 0.532861 0
M  V30 6888 C 634.044 -5.33324 -0.200388 0
M  V30 6889 O 634.267 -5.52305 -1.42531 0
M  V30 6890 O 633.201 -6.00188 0.453668 0
M  V30 6891 H 637.027 -2.78354 1.2146 0
M  V30 6892 H 634.612 -1.34171 0.657153 0
M  V30 6893 H 636.494 -4.13037 -0.835358 0
M  V30 6894 H 635.169 -2.99815 -1.22035 0
M  V30 6895 H 634.076 -3.59998 1.01746 0
M  V30 6896 H 635.409 -4.74178 1.3197 0
M  V30 6897 N 637.061 -0.65484 -1.43351 0
M  V30 6898 C 637.991 0.0221809 -2.33489 0
M  V30 6899 C 638.972 0.810272 -1.49561 0
M  V30 6900 O 640.157 0.771426 -1.78221 0
M  V30 6901 C 637.287 0.988117 -3.32947 0
M  V30 6902 C 636.241 0.310026 -4.26876 0
M  V30 6903 C 635.567 1.38752 -5.16384 0
M  V30 6904 C 636.867 -0.798589 -5.16159 0
M  V30 6905 H 638.561 -0.730571 -2.9035 0
M  V30 6906 H 636.107 -0.352773 -1.39612 0
M  V30 6907 H 638.06 1.47067 -3.94904 0
M  V30 6908 H 636.784 1.77205 -2.74346 0
M  V30 6909 H 635.443 -0.152097 -3.66284 0
M  V30 6910 H 635.091 2.16293 -4.54121 0
M  V30 6911 H 634.791 0.939051 -5.80048 0
M  V30 6912 H 636.315 1.87141 -5.81215 0
M  V30 6913 H 637.729 -0.398126 -5.71916 0
M  V30 6914 H 636.126 -1.17163 -5.88552 0
M  V30 6915 H 637.196 -1.65588 -4.55751 0
M  V30 6916 N 638.539 1.52521 -0.396863 0
M  V30 6917 C 639.764 2.06571 0.185258 0
M  V30 6918 C 640.189 1.26605 1.39115 0
M  V30 6919 O 639.547 0.293055 1.78916 0
M  V30 6920 C 639.595 3.5674 0.526189 0
M  V30 6921 O 638.699 3.7929 1.61903 0
M  V30 6922 H 638.04 0.663712 0.0195474 0
M  V30 6923 H 640.57 1.966 -0.566519 0
M  V30 6924 H 640.58 4.00311 0.788338 0
M  V30 6925 H 639.255 4.14379 -0.355397 0
M  V30 6926 H 637.832 3.47605 1.35 0
M  V30 6927 N 640.017 0.126909 1.57088 0
M  V30 6928 C 640.965 -0.837618 2.16995 0
M  V30 6929 C 641.959 -1.26974 1.12133 0
M  V30 6930 O 643.165 -1.24056 1.30423 0
M  V30 6931 H 639.54 -0.288256 0.694559 0
M  V30 6932 H 641.511 -0.307957 2.96807 0
M  V30 6933 C 640.26 -2.07474 2.79016 0
M  V30 6934 H 639.583 -1.75117 3.59408 0
M  V30 6935 H 641.023 -2.72949 3.24461 0
M  V30 6936 C 639.482 -2.86967 1.76498 0
M  V30 6937 O 640.012 -3.82625 1.22316 0
M  V30 6938 N 638.218 -2.51111 1.46258 0
M  V30 6939 H 637.765 -1.73389 1.90509 0
M  V30 6940 H 637.723 -3.04594 0.779085 0
M  V30 6941 N 641.495 -1.56914 -0.146875 0
M  V30 6942 C 642.725 -1.87243 -0.873126 0
M  V30 6943 C 643.133 -0.713127 -1.75246 0
M  V30 6944 O 642.476 0.326228 -1.8078 0
M  V30 6945 C 642.538 -3.12279 -1.78107 0
M  V30 6946 C 642.202 -4.44082 -1.07889 0
M  V30 6947 C 643.199 -5.18096 -0.432734 0
M  V30 6948 C 640.884 -4.90807 -1.06836 0
M  V30 6949 C 642.878 -6.37039 0.214569 0
M  V30 6950 C 640.565 -6.09674 -0.417243 0
M  V30 6951 C 641.563 -6.82636 0.223093 0
M  V30 6952 O 641.251 -7.99245 0.863884 0
M  V30 6953 H 640.983 -0.624896 -0.257839 0
M  V30 6954 H 643.537 -2.04892 -0.14434 0
M  V30 6955 H 641.767 -2.90639 -2.5508 0
M  V30 6956 H 643.456 -3.28854 -2.37929 0
M  V30 6957 H 644.222 -4.83066 -0.432677 0
M  V30 6958 H 640.101 -4.3394 -1.55618 0
M  V30 6959 H 643.645 -6.93927 0.714965 0
M  V30 6960 H 639.542 -6.44165 -0.414967 0
M  V30 6961 H 640.31 -8.14912 0.765564 0
M  V30 6962 N 642.974 0.416227 -1.52004 0
M  V30 6963 C 644.251 1.17637 -1.56272 0
M  V30 6964 C 644.631 2.08352 -0.339493 0
M  V30 6965 O 643.979 2.1833 0.674124 0
M  V30 6966 C 644.189 1.95986 -2.88774 0
M  V30 6967 C 645.537 2.52299 -3.41512 0
M  V30 6968 O 646.561 2.06174 -2.90467 0
M  V30 6969 O 645.42 3.3648 -4.30631 0
M  V30 6970 H 642.514 0.536726 -0.629169 0
M  V30 6971 H 645.06 0.423583 -1.64329 0
M  V30 6972 H 643.832 1.29487 -3.69254 0
M  V30 6973 H 643.455 2.78285 -2.83978 0
M  V30 6974 N 644.452 1.42507 0.673017 0
M  V30 6975 C 645.692 1.44559 1.44507 0
M  V30 6976 C 646.056 0.0606206 1.91904 0
M  V30 6977 O 647.257 -0.044139 2.68764 0
M  V30 6978 C 645.528 2.44291 2.60877 0
M  V30 6979 S 647.087 2.65059 3.49699 0
M  V30 6980 H 643.905 0.51181 0.49353 0
M  V30 6981 H 646.507 1.79124 0.783256 0
M  V30 6982 H 645.211 3.43685 2.24297 0
M  V30 6983 H 644.742 2.11157 3.31928 0
M  V30 6984 H 646.757 1.93494 4.56919 0
M  V30 6985 N 645.93 -0.909495 1.28709 0
M  V30 6986 C 647.16 -1.69027 1.188 0
M  V30 6987 C 647.568 -1.87469 -0.255329 0
M  V30 6988 O 646.911 -1.40458 -1.18394 0
M  V30 6989 C 646.973 -3.10064 1.81936 0
M  V30 6990 C 646.637 -3.14891 3.31199 0
M  V30 6991 C 647.634 -2.95768 4.27571 0
M  V30 6992 C 645.319 -3.37269 3.7223 0
M  V30 6993 C 647.313 -2.98942 5.6295 0
M  V30 6994 C 645 -3.40074 5.07733 0
M  V30 6995 C 645.998 -3.20932 6.02903 0
M  V30 6996 O 645.686 -3.23507 7.35934 0
M  V30 6997 H 645.418 -0.535014 0.413203 0
M  V30 6998 H 647.972 -1.14645 1.70428 0
M  V30 6999 H 646.202 -3.66005 1.24808 0
M  V30 7000 H 647.891 -3.70185 1.66486 0
M  V30 7001 H 648.657 -2.78302 3.97206 0
M  V30 7002 H 644.536 -3.51212 2.98615 0
M  V30 7003 H 648.08 -2.83919 6.37209 0
M  V30 7004 H 643.977 -3.5707 5.37747 0
M  V30 7005 H 644.745 -3.3984 7.44615 0
M  V30 7006 N 647.408 -1.11026 -1.11852 0
M  V30 7007 C 648.656 -0.854769 -1.83134 0
M  V30 7008 C 648.977 0.621375 -1.84835 0
M  V30 7009 O 648.247 1.45129 -1.31584 0
M  V30 7010 H 646.827 -0.313229 -0.678157 0
M  V30 7011 H 649.489 -1.40178 -1.35411 0
M  V30 7012 H 648.585 -1.22311 -2.87135 0
M  V30 7013 N 648.886 1.2938 -0.899927 0
M  V30 7014 C 649.833 2.27713 -0.376243 0
M  V30 7015 C 650.803 1.57016 0.541774 0
M  V30 7016 O 651.988 1.84997 0.466966 0
M  V30 7017 C 649.128 3.42889 0.39 0
M  V30 7018 C 648.241 4.28369 -0.558938 0
M  V30 7019 C 647.376 5.30726 0.224379 0
M  V30 7020 C 646.415 6.07862 -0.719068 0
M  V30 7021 N 645.552 7.02094 0.0298569 0
M  V30 7022 H 650.392 2.71888 -1.21988 0
M  V30 7023 H 647.929 1.33724 -0.612879 0
M  V30 7024 H 649.887 4.08443 0.850314 0
M  V30 7025 H 648.517 2.99743 1.19809 0
M  V30 7026 H 647.569 3.62986 -1.13777 0
M  V30 7027 H 648.881 4.82068 -1.2811 0
M  V30 7028 H 648.035 6.02098 0.745881 0
M  V30 7029 H 646.774 4.77759 0.979674 0
M  V30 7030 H 645.779 5.35353 -1.25207 0
M  V30 7031 H 647.004 6.62917 -1.4737 0
M  V30 7032 H 644.95 6.51496 0.767415 0
M  V30 7033 H 644.867 7.5335 -0.632391 0
M  V30 7034 H 646.135 7.77685 0.531615 0
M  V30 7035 N 650.364 0.662433 1.43002 0
M  V30 7036 C 651.775 0.258315 1.84904 0
M  V30 7037 C 652.126 -1.19703 1.55453 0
M  V30 7038 O 651.251 -1.91484 1.00811 0
M  V30 7039 C 651.846 0.462047 3.35635 0
M  V30 7040 C 650.405 0.112165 3.76233 0
M  V30 7041 C 649.552 0.760479 2.66668 0
M  V30 7042 H 652.503 0.865467 1.33024 0
M  V30 7043 H 652.524 -0.289646 3.79396 0
M  V30 7044 H 652.036 1.52135 3.57039 0
M  V30 7045 H 650.137 -0.944179 3.60439 0
M  V30 7046 H 650.25 0.544058 4.76001 0
M  V30 7047 H 648.614 0.192887 2.53969 0
M  V30 7048 H 649.397 1.82299 2.90898 0
M  V30 7049 N 651.842 -1.52309 0.404946 0
M  V30 7050 C 653.091 -2.00952 -0.173529 0
M  V30 7051 C 653.404 -1.29512 -1.46581 0
M  V30 7052 O 654.61 -1.6895 -2.12528 0
M  V30 7053 C 653.066 -3.58097 -0.359801 0
M  V30 7054 C 652.674 -4.38449 0.920138 0
M  V30 7055 C 654.418 -4.14984 -0.893794 0
M  V30 7056 C 652.325 -5.87227 0.701285 0
M  V30 7057 H 651.255 -0.750871 -0.0686244 0
M  V30 7058 H 653.906 -1.75687 0.529749 0
M  V30 7059 H 652.288 -3.79675 -1.12531 0
M  V30 7060 H 653.462 -4.28633 1.69147 0
M  V30 7061 H 651.777 -3.92859 1.38024 0
M  V30 7062 H 654.374 -5.23813 -1.0735 0
M  V30 7063 H 654.717 -3.72072 -1.8673 0
M  V30 7064 H 655.25 -3.97358 -0.187453 0
M  V30 7065 H 651.989 -6.34491 1.64624 0
M  V30 7066 H 651.509 -5.99792 -0.0308288 0
M  V30 7067 H 653.188 -6.46096 0.341846 0
M  V30 7068 N 653.32 -0.135238 -1.57019 0
M  V30 7069 C 654.23 0.822226 -2.19719 0
M  V30 7070 C 655.246 1.28057 -1.17802 0
M  V30 7071 O 656.422 1.3402 -1.50335 0
M  V30 7072 C 653.487 2.0484 -2.79717 0
M  V30 7073 C 652.548 1.64042 -3.96723 0
M  V30 7074 C 651.781 2.80814 -4.53849 0
M  V30 7075 O 652.004 3.967 -4.0986 0
M  V30 7076 O 650.938 2.56963 -5.44292 0
M  V30 7077 H 654.764 0.318552 -3.02025 0
M  V30 7078 H 652.349 0.0912021 -1.49121 0
M  V30 7079 H 654.231 2.76622 -3.17897 0
M  V30 7080 H 652.906 2.54182 -2.00432 0
M  V30 7081 H 651.813 0.893182 -3.63281 0
M  V30 7082 H 653.146 1.19426 -4.77492 0
M  V30 7083 N 654.798 1.5699 0.138552 0
M  V30 7084 C 656.044 1.84081 0.85099 0
M  V30 7085 C 656.377 0.718107 1.80435 0
M  V30 7086 O 655.652 -0.277633 1.92508 0
M  V30 7087 C 655.935 3.21699 1.61808 0
M  V30 7088 C 655.788 4.44544 0.685633 0
M  V30 7089 C 657.107 3.5664 2.57868 0
M  V30 7090 H 654.226 0.669592 0.307922 0
M  V30 7091 H 656.868 1.89646 0.11588 0
M  V30 7092 H 655.018 3.17086 2.24474 0
M  V30 7093 H 656.69 4.61248 0.0693179 0
M  V30 7094 H 654.933 4.338 -0.00421993 0
M  V30 7095 H 655.604 5.3746 1.25858 0
M  V30 7096 H 658.08 3.61918 2.05316 0
M  V30 7097 H 656.956 4.53946 3.08584 0
M  V30 7098 H 657.217 2.83036 3.39622 0
M  V30 7099 N 656.276 -0.40816 1.52223 0
M  V30 7100 C 657.224 -1.51788 1.76248 0
M  V30 7101 C 658.218 -1.57264 0.629638 0
M  V30 7102 O 659.424 -1.60659 0.811704 0
M  V30 7103 H 655.799 -0.504823 0.557367 0
M  V30 7104 H 657.77 -1.2871 2.69214 0
M  V30 7105 C 656.519 -2.89145 1.93107 0
M  V30 7106 H 655.842 -2.85674 2.79697 0
M  V30 7107 H 657.282 -3.66082 2.13916 0
M  V30 7108 C 655.741 -3.29581 0.698431 0
M  V30 7109 O 656.271 -4.01479 -0.133238 0
M  V30 7110 N 654.477 -2.85651 0.53405 0
M  V30 7111 H 654.024 -2.2731 1.21194 0
M  V30 7112 H 653.982 -3.13065 -0.289387 0
M  V30 7113 N 657.755 -1.42862 -0.66545 0
M  V30 7114 C 658.703 -1.47319 -1.8 0
M  V30 7115 C 659.697 -0.347963 -1.65788 0
M  V30 7116 O 660.903 -0.521406 -1.72283 0
M  V30 7117 H 657.278 -0.461588 -0.593667 0
M  V30 7118 H 659.249 -2.42876 -1.7336 0
M  V30 7119 C 657.998 -1.40152 -3.18203 0
M  V30 7120 H 657.321 -2.26035 -3.2977 0
M  V30 7121 H 658.761 -1.47331 -3.9758 0
M  V30 7122 C 657.22 -0.117493 -3.36695 0
M  V30 7123 O 657.75 0.826058 -3.93115 0
M  V30 7124 N 655.956 -0.0316218 -2.90583 0
M  V30 7125 H 655.503 -0.800247 -2.44855 0
M  V30 7126 H 655.461 0.826835 -3.03333 0
M  V30 7127 N 659.233 0.902656 -1.29189 0
M  V30 7128 C 660.481 1.6496 -1.16758 0
M  V30 7129 C 660.802 1.92952 0.28188 0
M  V30 7130 O 660.072 1.55351 1.19344 0
M  V30 7131 H 658.652 0.611447 -0.429118 0
M  V30 7132 H 661.314 1.0825 -1.62074 0
M  V30 7133 H 660.41 2.60728 -1.71544 0
M  V30 7134 N 660.711 1.11618 1.11262 0
M  V30 7135 C 661.641 0.79846 2.19424 0
M  V30 7136 C 662.622 -0.234003 1.68483 0
M  V30 7137 O 663.807 -0.0970704 1.93957 0
M  V30 7138 C 660.937 0.242892 3.4645 0
M  V30 7139 C 659.891 1.20744 4.10615 0
M  V30 7140 C 659.217 0.512494 5.32238 0
M  V30 7141 C 660.517 2.55884 4.55325 0
M  V30 7142 H 662.211 1.70286 2.46258 0
M  V30 7143 H 659.757 0.820195 1.18359 0
M  V30 7144 H 661.71 0.00840447 4.21399 0
M  V30 7145 H 660.434 -0.696811 3.1908 0
M  V30 7146 H 659.093 1.42759 3.37662 0
M  V30 7147 H 658.741 -0.432075 5.01141 0
M  V30 7148 H 658.441 1.15583 5.7612 0
M  V30 7149 H 659.965 0.286842 6.09926 0
M  V30 7150 H 661.379 2.37946 5.21588 0
M  V30 7151 H 659.776 3.16216 5.10027 0
M  V30 7152 H 660.846 3.14968 3.68678 0
M  V30 7153 N 662.189 -1.289 0.906776 0
M  V30 7154 C 663.437 -1.94883 0.535266 0
M  V30 7155 C 663.758 -1.71784 -0.922791 0
M  V30 7156 O 663.028 -1.05359 -1.65156 0
M  V30 7157 H 661.608 -0.721109 0.194962 0
M  V30 7158 H 664.27 -1.57018 1.15461 0
M  V30 7159 H 663.366 -3.03591 0.723821 0
M  V30 7160 N 663.667 -0.670007 -1.42649 0
M  V30 7161 C 664.614 0.0112928 -2.30797 0
M  V30 7162 C 665.584 0.797627 -1.45695 0
M  V30 7163 O 666.769 0.770845 -1.74535 0
M  V30 7164 C 663.909 0.95998 -3.31479 0
M  V30 7165 C 663.022 0.167975 -4.31673 0
M  V30 7166 C 662.157 1.11198 -5.19431 0
M  V30 7167 C 661.196 0.311381 -6.11307 0
M  V30 7168 N 660.333 1.20784 -6.91633 0
M  V30 7169 H 665.173 -0.746231 -2.88505 0
M  V30 7170 H 662.71 -0.379739 -1.42114 0
M  V30 7171 H 664.668 1.52379 -3.88377 0
M  V30 7172 H 663.298 1.68419 -2.75382 0
M  V30 7173 H 662.35 -0.512385 -3.76933 0
M  V30 7174 H 663.662 -0.453814 -4.96731 0
M  V30 7175 H 662.816 1.74587 -5.81037 0
M  V30 7176 H 661.555 1.76766 -4.54538 0
M  V30 7177 H 660.56 -0.335758 -5.48774 0
M  V30 7178 H 661.785 -0.340135 -6.78248 0
M  V30 7179 H 659.731 1.85001 -6.29373 0
M  V30 7180 H 659.648 0.64102 -7.53277 0
M  V30 7181 H 660.916 1.82936 -7.5773 0
M  V30 7182 N 665.145 1.52092 -0.413018 0
M  V30 7183 C 666.37 2.06756 0.163338 0
M  V30 7184 C 666.795 1.28073 1.37764 0
M  V30 7185 O 666.153 0.312015 1.78595 0
M  V30 7186 C 666.201 3.57278 0.488322 0
M  V30 7187 O 665.305 3.80986 1.57871 0
M  V30 7188 H 664.646 0.663882 0.0125068 0
M  V30 7189 H 667.176 1.95988 -0.587339 0
M  V30 7190 H 667.186 4.01125 0.745836 0
M  V30 7191 H 665.861 4.13978 -0.399327 0
M  V30 7192 H 664.438 3.49017 1.31306 0
M  V30 7193 N 666.623 0.143563 1.56945 0
M  V30 7194 C 667.555 -0.828353 2.13708 0
M  V30 7195 C 668.568 -1.21313 1.08568 0
M  V30 7196 O 669.757 -1.1578 1.35857 0
M  V30 7197 C 666.857 -2.12248 2.64204 0
M  V30 7198 C 666.03 -1.90561 3.93707 0
M  V30 7199 C 665.089 -3.03931 4.29549 0
M  V30 7200 O 664.115 -2.75772 4.97934 0
M  V30 7201 N 665.317 -4.31016 3.88852 0
M  V30 7202 H 668.082 -0.343242 2.97728 0
M  V30 7203 H 665.643 -0.0401152 1.6185 0
M  V30 7204 H 667.635 -2.87132 2.85197 0
M  V30 7205 H 666.205 -2.52033 1.84928 0
M  V30 7206 H 665.425 -0.997327 3.81375 0
M  V30 7207 H 666.713 -1.73405 4.78339 0
M  V30 7208 H 666.111 -4.56762 3.33743 0
M  V30 7209 H 664.668 -5.02691 4.14903 0
M  V30 7210 N 668.101 -1.57061 -0.130224 0
M  V30 7211 C 669.064 -1.98593 -1.14426 0
M  V30 7212 C 670.064 -0.874584 -1.34936 0
M  V30 7213 O 671.254 -1.14086 -1.31643 0
M  V30 7214 C 668.386 -2.31639 -2.50112 0
M  V30 7215 H 669.579 -2.89374 -0.787561 0
M  V30 7216 H 667.132 -1.51756 -0.374146 0
M  V30 7217 H 667.867 -1.43703 -2.90723 0
M  V30 7218 H 667.652 -3.12684 -2.36583 0
M  V30 7219 H 669.142 -2.64551 -3.23114 0
M  V30 7220 N 669.579 0.400081 -1.52437 0
M  V30 7221 C 670.526 1.48803 -1.76426 0
M  V30 7222 C 671.496 1.5461 -0.607032 0
M  V30 7223 O 672.681 1.71041 -0.845563 0
M  V30 7224 C 669.821 2.86156 -1.92896 0
M  V30 7225 C 668.934 2.89587 -3.20567 0
M  V30 7226 C 668.069 4.18296 -3.27417 0
M  V30 7227 C 667.108 4.15736 -4.49255 0
M  V30 7228 N 666.245 5.36032 -4.53447 0
M  V30 7229 H 671.085 1.27649 -2.69276 0
M  V30 7230 H 668.622 0.619451 -1.33421 0
M  V30 7231 H 670.58 3.65901 -2.00429 0
M  V30 7232 H 669.21 3.05785 -1.03418 0
M  V30 7233 H 668.262 2.02278 -3.22161 0
M  V30 7234 H 669.574 2.83562 -4.10358 0
M  V30 7235 H 668.728 5.06439 -3.34072 0
M  V30 7236 H 667.467 4.27028 -2.35581 0
M  V30 7237 H 666.472 3.25982 -4.42737 0
M  V30 7238 H 667.697 4.08636 -5.42396 0
M  V30 7239 H 665.643 5.45415 -3.64498 0
M  V30 7240 H 665.56 5.32038 -5.37096 0
M  V30 7241 H 666.828 6.26104 -4.64343 0
M  V30 7242 N 671.057 1.43213 0.657864 0
M  V30 7243 C 672.005 1.48271 1.79216 0
M  V30 7244 C 672.999 0.35675 1.65601 0
M  V30 7245 O 674.205 0.530535 1.72004 0
M  V30 7246 H 670.58 0.464729 0.591211 0
M  V30 7247 H 672.551 2.43792 1.7207 0
M  V30 7248 C 671.3 1.41837 3.17455 0
M  V30 7249 H 670.623 2.27781 3.28567 0
M  V30 7250 H 672.063 1.49438 3.96793 0
M  V30 7251 C 670.522 0.135347 3.36628 0
M  V30 7252 O 671.052 -0.805199 3.93547 0
M  V30 7253 N 669.258 0.0470316 2.90562 0
M  V30 7254 H 668.805 0.813221 2.44427 0
M  V30 7255 H 668.763 -0.810737 3.03767 0
M  V30 7256 N 672.536 -0.895792 1.29666 0
M  V30 7257 C 673.484 -2.02173 1.15017 0
M  V30 7258 C 674.478 -1.69276 0.0647651 0
M  V30 7259 O 675.684 -1.7859 0.224846 0
M  V30 7260 H 672.059 -0.662719 0.355397 0
M  V30 7261 H 674.03 -2.11666 2.10334 0
M  V30 7262 C 672.779 -3.37212 0.847555 0
M  V30 7263 H 672.102 -3.6303 1.67479 0
M  V30 7264 H 673.542 -4.16668 0.785106 0
M  V30 7265 C 672.001 -3.33891 -0.44929 0
M  V30 7266 O 672.531 -3.73673 -1.47415 0
M  V30 7267 N 670.737 -2.86991 -0.456547 0
M  V30 7268 H 670.284 -2.54813 0.377925 0
M  V30 7269 H 670.242 -2.85152 -1.32423 0
M  V30 7270 N 674.014 -1.12206 -1.10668 0
M  V30 7271 C 674.961 -0.787716 -2.16942 0
M  V30 7272 C 675.931 0.244442 -1.64291 0
M  V30 7273 O 677.116 0.119558 -1.90425 0
M  V30 7274 C 674.256 -0.24584 -3.44223 0
M  V30 7275 C 673.369 -1.33552 -4.10838 0
M  V30 7276 C 672.504 -0.753337 -5.25831 0
M  V30 7277 C 671.543 -1.82231 -5.84344 0
M  V30 7278 N 670.68 -1.25902 -6.90719 0
M  V30 7279 H 675.52 -1.69809 -2.44885 0
M  V30 7280 H 673.057 -0.847862 -1.20207 0
M  V30 7281 H 675.015 0.0863639 -4.17111 0
M  V30 7282 H 673.645 0.627702 -3.16638 0
M  V30 7283 H 672.697 -1.78454 -3.35944 0
M  V30 7284 H 674.009 -2.14396 -4.50373 0
M  V30 7285 H 673.163 -0.37166 -6.05561 0
M  V30 7286 H 671.902 0.0863297 -4.87624 0
M  V30 7287 H 670.907 -2.2132 -5.03287 0
M  V30 7288 H 672.132 -2.66515 -6.24617 0
M  V30 7289 H 670.078 -0.44114 -6.54515 0
M  V30 7290 H 669.995 -2.00408 -7.28953 0
M  V30 7291 H 671.263 -0.904498 -7.74235 0
M  V30 7292 N 675.492 1.28418 -0.913599 0
M  V30 7293 C 676.439 2.27301 -0.400373 0
M  V30 7294 C 677.409 1.57582 0.52509 0
M  V30 7295 O 678.594 1.85482 0.447318 0
M  V30 7296 C 675.734 3.43284 0.35361 0
M  V30 7297 C 674.847 4.27752 -0.604341 0
M  V30 7298 C 673.982 5.30934 0.168075 0
M  V30 7299 C 673.021 6.07065 -0.783499 0
M  V30 7300 N 672.158 7.02086 -0.0446112 0
M  V30 7301 H 676.998 2.70579 -1.24865 0
M  V30 7302 H 674.535 1.33067 -0.627028 0
M  V30 7303 H 676.493 4.09322 0.806945 0
M  V30 7304 H 675.123 3.00997 1.16623 0
M  V30 7305 H 674.175 3.61759 -1.17621 0
M  V30 7306 H 675.487 4.80682 -1.33216 0
M  V30 7307 H 674.641 6.02855 0.681979 0
M  V30 7308 H 673.38 4.78771 0.928947 0
M  V30 7309 H 672.385 5.33995 -1.30878 0
M  V30 7310 H 673.61 6.61317 -1.54392 0
M  V30 7311 H 671.556 6.52273 0.698272 0
M  V30 7312 H 671.473 7.52637 -0.712258 0
M  V30 7313 H 672.741 7.78205 0.449102 0
M  V30 7314 N 676.97 0.677563 1.42291 0
M  V30 7315 C 678.381 0.277912 1.8462 0
M  V30 7316 C 678.732 -1.18048 1.56714 0
M  V30 7317 O 677.857 -1.90404 1.02836 0
M  V30 7318 C 678.452 0.497619 3.35126 0
M  V30 7319 C 677.011 0.152063 3.76093 0
M  V30 7320 C 676.158 0.78872 2.65847 0
M  V30 7321 H 679.109 0.879527 1.32098 0
M  V30 7322 H 679.13 -0.24939 3.79682 0
M  V30 7323 H 678.642 1.55913 3.55405 0
M  V30 7324 H 676.743 -0.905896 3.6142 0
M  V30 7325 H 676.856 0.594514 4.75397 0
M  V30 7326 H 675.22 0.219813 2.5375 0
M  V30 7327 H 676.003 1.85374 2.88949 0
M  V30 7328 N 678.448 -1.51871 0.421078 0
M  V30 7329 C 679.859 -1.86644 -0.0457991 0
M  V30 7330 C 680.21 -1.33919 -1.43388 0
M  V30 7331 O 679.335 -0.683316 -2.05328 0
M  V30 7332 C 679.93 -3.38681 -0.0898844 0
M  V30 7333 C 678.489 -3.73049 -0.501127 0
M  V30 7334 C 677.636 -2.75485 0.316723 0
M  V30 7335 H 680.587 -1.45327 0.637635 0
M  V30 7336 H 680.608 -3.69636 -0.902734 0
M  V30 7337 H 680.12 -3.77025 0.920513 0
M  V30 7338 H 678.221 -3.40288 -1.51773 0
M  V30 7339 H 678.334 -4.78512 -0.237217 0
M  V30 7340 H 676.698 -2.53725 -0.222663 0
M  V30 7341 H 677.481 -3.16671 1.32569 0
M  V30 7342 N 679.926 -0.151884 -1.56866 0
M  V30 7343 C 681.337 0.368128 -1.83035 0
M  V30 7344 C 681.688 1.64402 -1.07082 0
M  V30 7345 O 680.813 2.14056 -0.317647 0
M  V30 7346 C 681.408 0.674676 -3.32014 0
M  V30 7347 C 679.967 1.13919 -3.58747 0
M  V30 7348 C 679.114 0.164833 -2.7681 0
M  V30 7349 H 682.065 -0.376499 -1.54169 0
M  V30 7350 H 682.086 1.52883 -3.48435 0
M  V30 7351 H 681.598 -0.254113 -3.87267 0
M  V30 7352 H 679.699 2.08375 -3.08886 0
M  V30 7353 H 679.812 1.06179 -4.67186 0
M  V30 7354 H 678.176 0.658419 -2.46043 0
M  V30 7355 H 678.959 -0.757633 -3.34836 0
M  V30 7356 N 681.404 1.57128 0.121893 0
M  V30 7357 C 682.367 1.99197 1.13372 0
M  V30 7358 C 683.367 0.881728 1.3447 0
M  V30 7359 O 684.557 1.14783 1.31036 0
M  V30 7360 C 681.689 2.32963 2.4888 0
M  V30 7361 H 682.882 2.89788 0.772204 0
M  V30 7362 H 680.435 1.51952 0.366093 0
M  V30 7363 H 681.17 1.45243 2.89957 0
M  V30 7364 H 680.955 3.13934 2.34921 0
M  V30 7365 H 682.445 2.66261 3.21706 0
M  V30 7366 N 682.882 -0.391992 1.52647 0
M  V30 7367 C 683.829 -1.47866 1.77213 0
M  V30 7368 C 684.799 -1.54286 0.615223 0
M  V30 7369 O 685.984 -1.7059 0.854622 0
M  V30 7370 C 683.124 -2.85129 1.94411 0
M  V30 7371 C 682.237 -2.87883 3.22098 0
M  V30 7372 C 681.372 -4.16553 3.29631 0
M  V30 7373 C 680.411 -4.13348 4.51453 0
M  V30 7374 N 679.548 -5.33619 4.56284 0
M  V30 7375 H 684.388 -1.26219 2.6995 0
M  V30 7376 H 681.925 -0.612367 1.33748 0
M  V30 7377 H 683.883 -3.64833 2.02367 0
M  V30 7378 H 682.513 -3.05232 1.05038 0
M  V30 7379 H 681.565 -2.00567 3.23229 0
M  V30 7380 H 682.877 -2.81382 4.11856 0
M  V30 7381 H 682.031 -5.0466 3.36753 0
M  V30 7382 H 680.77 -4.25773 2.37842 0
M  V30 7383 H 679.775 -3.23629 4.44459 0
M  V30 7384 H 681 -4.05754 5.44555 0
M  V30 7385 H 678.946 -5.43474 3.67385 0
M  V30 7386 H 678.863 -5.29182 5.3991 0
M  V30 7387 H 680.131 -6.23632 4.67657 0
M  V30 7388 N 684.36 -1.4356 -0.65026 0
M  V30 7389 C 685.771 -1.40324 -1.2315 0
M  V30 7390 C 686.122 -0.108812 -1.95898 0
M  V30 7391 O 685.247 0.79163 -2.01401 0
M  V30 7392 C 685.842 -2.54195 -2.23987 0
M  V30 7393 C 684.401 -2.54215 -2.77582 0
M  V30 7394 C 683.548 -2.31752 -1.5227 0
M  V30 7395 H 686.499 -1.52418 -0.442095 0
M  V30 7396 H 686.52 -2.25854 -3.0622 0
M  V30 7397 H 686.032 -3.48392 -1.71011 0
M  V30 7398 H 684.133 -1.63907 -3.34612 0
M  V30 7399 H 684.246 -3.52081 -3.24925 0
M  V30 7400 H 682.61 -1.80476 -1.79723 0
M  V30 7401 H 683.393 -3.28037 -1.01225 0
M  V30 7402 N 685.838 0.888903 -1.30139 0
M  V30 7403 C 687.084 1.6428 -1.18912 0
M  V30 7404 C 687.417 1.92499 0.256477 0
M  V30 7405 O 686.692 1.54312 1.18397 0
M  V30 7406 C 686.975 2.9851 -2.01405 0
M  V30 7407 C 686.828 2.77288 -3.54163 0
M  V30 7408 C 688.147 3.99383 -1.84882 0
M  V30 7409 H 685.266 0.596148 -0.433333 0
M  V30 7410 H 687.908 1.0289 -1.5973 0
M  V30 7411 H 686.058 3.50907 -1.66722 0
M  V30 7412 H 687.73 2.31709 -3.98884 0
M  V30 7413 H 685.973 2.11867 -3.78543 0
M  V30 7414 H 686.644 3.72717 -4.07168 0
M  V30 7415 H 689.12 3.56132 -2.15196 0
M  V30 7416 H 687.996 4.91222 -2.44934 0
M  V30 7417 H 688.257 4.34674 -0.806902 0
M  V30 7418 N 687.317 1.12792 1.10072 0
M  V30 7419 C 688.566 0.880232 1.81479 0
M  V30 7420 C 688.879 -0.595575 1.86312 0
M  V30 7421 O 690.085 -0.959979 2.53962 0
M  V30 7422 C 688.541 1.52514 3.25987 0
M  V30 7423 C 688.149 3.036 3.29441 0
M  V30 7424 C 689.893 1.35788 4.02196 0
M  V30 7425 C 687.8 3.61007 4.68431 0
M  V30 7426 H 686.73 0.325654 0.680048 0
M  V30 7427 H 689.381 1.35485 1.23758 0
M  V30 7428 H 687.763 0.978188 3.83728 0
M  V30 7429 H 688.937 3.64819 2.81502 0
M  V30 7430 H 687.252 3.19765 2.66719 0
M  V30 7431 H 689.849 1.76096 5.0487 0
M  V30 7432 H 690.192 0.301972 4.15203 0
M  V30 7433 H 690.725 1.87426 3.50879 0
M  V30 7434 H 687.464 4.66375 4.60625 0
M  V30 7435 H 686.984 3.04564 5.16721 0
M  V30 7436 H 688.663 3.60289 5.37402 0
M  V30 7437 N 688.795 -1.27931 0.920396 0
M  V30 7438 C 690.206 -1.76707 0.602616 0
M  V30 7439 C 690.557 -1.75249 -0.882159 0
M  V30 7440 O 689.682 -1.35135 -1.69019 0
M  V30 7441 C 690.277 -3.20884 1.08714 0
M  V30 7442 C 688.836 -3.67356 0.820157 0
M  V30 7443 C 687.983 -2.47525 1.25006 0
M  V30 7444 H 690.934 -1.14301 1.10095 0
M  V30 7445 H 690.955 -3.78045 0.431535 0
M  V30 7446 H 690.467 -3.21913 2.1678 0
M  V30 7447 H 688.568 -3.7178 -0.247012 0
M  V30 7448 H 688.681 -4.57181 1.43257 0
M  V30 7449 H 687.045 -2.45765 0.668698 0
M  V30 7450 H 687.828 -2.51269 2.3392 0
M  V30 7451 N 690.273 -0.685099 -1.4193 0
M  V30 7452 C 691.501 -0.220372 -2.05723 0
M  V30 7453 C 691.916 1.12642 -1.51516 0
M  V30 7454 O 691.273 1.70182 -0.659114 0
M  V30 7455 C 691.324 -0.157974 -3.61155 0
M  V30 7456 O 691.045 -1.45156 -4.13354 0
M  V30 7457 C 692.546 0.329009 -4.42077 0
M  V30 7458 H 689.766 -0.104725 -0.662777 0
M  V30 7459 H 692.31 -0.934736 -1.81887 0
M  V30 7460 H 690.465 0.507144 -3.84066 0
M  V30 7461 H 690.879 -1.33172 -5.07312 0
M  V30 7462 H 692.353 0.321559 -5.51063 0
M  V30 7463 H 692.83 1.36608 -4.17414 0
M  V30 7464 H 693.436 -0.304737 -4.24207 0
M  V30 7465 N 691.751 1.51645 -0.429126 0
M  V30 7466 C 692.714 2.26116 0.374726 0
M  V30 7467 C 693.714 1.29242 0.956714 0
M  V30 7468 O 694.904 1.53022 0.832452 0
M  V30 7469 C 692.036 3.04669 1.52937 0
M  V30 7470 H 693.229 2.9861 -0.277818 0
M  V30 7471 H 690.782 1.55236 -0.182097 0
M  V30 7472 H 691.517 2.36571 2.21821 0
M  V30 7473 H 691.302 3.75814 1.11833 0
M  V30 7474 H 692.792 3.61102 2.09751 0
M  V30 7475 N 693.229 0.160201 1.56784 0
M  V30 7476 C 694.192 -0.760405 2.16219 0
M  V30 7477 C 695.192 -1.16595 1.10735 0
M  V30 7478 O 696.382 -1.08472 1.36306 0
M  V30 7479 C 693.514 -2.03358 2.73603 0
M  V30 7480 H 694.707 -0.243173 2.98912 0
M  V30 7481 H 692.26 -0.0893139 1.56045 0
M  V30 7482 H 692.995 -2.59416 1.94612 0
M  V30 7483 H 692.78 -1.75186 3.50788 0
M  V30 7484 H 694.27 -2.69081 3.19351 0
M  V30 7485 N 694.707 -1.5719 -0.113559 0
M  V30 7486 C 695.654 -2.00736 -1.13901 0
M  V30 7487 C 696.624 -0.88044 -1.40846 0
M  V30 7488 O 697.809 -1.14507 -1.5262 0
M  V30 7489 C 694.949 -2.42132 -2.45899 0
M  V30 7490 C 694.062 -3.68264 -2.25844 0
M  V30 7491 C 693.197 -3.98617 -3.5111 0
M  V30 7492 C 692.236 -5.17915 -3.26236 0
M  V30 7493 N 691.373 -5.44111 -4.4372 0
M  V30 7494 H 696.213 -2.88128 -0.760677 0
M  V30 7495 H 693.75 -1.42523 -0.364099 0
M  V30 7496 H 695.708 -2.6417 -3.22908 0
M  V30 7497 H 694.338 -1.57775 -2.81615 0
M  V30 7498 H 693.39 -3.53809 -1.39726 0
M  V30 7499 H 694.702 -4.55425 -2.03444 0
M  V30 7500 H 693.856 -4.21333 -4.36536 0
M  V30 7501 H 692.595 -3.09942 -3.76546 0
M  V30 7502 H 691.6 -4.95038 -2.39202 0
M  V30 7503 H 692.825 -6.08172 -3.02165 0
M  V30 7504 H 690.771 -4.58394 -4.69266 0
M  V30 7505 H 690.688 -6.25606 -4.24444 0
M  V30 7506 H 691.956 -5.71351 -5.30263 0
M  V30 7507 N 696.185 0.383891 -1.52853 0
M  V30 7508 C 697.601 0.724316 -1.42218 0
M  V30 7509 C 697.801 1.93943 -0.546654 0
M  V30 7510 O 696.857 2.5249 -0.0220562 0
M  V30 7511 C 698.17 0.954635 -2.85144 0
M  V30 7512 C 699.718 1.05579 -2.94656 0
M  V30 7513 C 700.193 1.3187 -4.38605 0
M  V30 7514 N 701.684 1.38681 -4.41952 0
M  V30 7515 C 702.419 1.60699 -5.50421 0
M  V30 7516 N 701.915 1.80154 -6.68967 0
M  V30 7517 N 703.708 1.6292 -5.37972 0
M  V30 7518 H 695.859 -0.4156 -2.08294 0
M  V30 7519 H 698.122 -0.123776 -0.939885 0
M  V30 7520 H 697.828 0.133829 -3.51445 0
M  V30 7521 H 697.702 1.86788 -3.27704 0
M  V30 7522 H 700.089 1.86716 -2.2852 0
M  V30 7523 H 700.17 0.120338 -2.55517 0
M  V30 7524 H 699.814 0.512416 -5.05309 0
M  V30 7525 H 699.744 2.26708 -4.75301 0
M  V30 7526 H 702.235 1.25334 -3.56511 0
M  V30 7527 H 702.548 1.96476 -7.47407 0
M  V30 7528 H 700.893 1.77368 -6.71986 0
M  V30 7529 H 704.084 1.47276 -4.44328 0
M  V30 7530 H 704.257 1.79739 -6.22574 0
M  V30 7531 N 697.663 1.43903 0.642637 0
M  V30 7532 C 698.912 1.45362 1.39831 0
M  V30 7533 C 699.225 0.0856289 1.95412 0
M  V30 7534 O 700.431 -0.0222856 2.71491 0
M  V30 7535 C 698.887 2.55857 2.53111 0
M  V30 7536 C 698.495 3.98811 2.04092 0
M  V30 7537 C 700.239 2.66524 3.30402 0
M  V30 7538 C 698.146 5.00751 3.14647 0
M  V30 7539 H 697.076 0.540777 0.52543 0
M  V30 7540 H 699.727 1.69929 0.692559 0
M  V30 7541 H 698.109 2.2451 3.26207 0
M  V30 7542 H 699.283 4.3967 1.37938 0
M  V30 7543 H 697.598 3.92284 1.39651 0
M  V30 7544 H 700.195 3.39858 4.12796 0
M  V30 7545 H 700.538 1.71949 3.79129 0
M  V30 7546 H 701.071 2.97224 2.64392 0
M  V30 7547 H 697.81 5.96914 2.70876 0
M  V30 7548 H 697.33 4.64495 3.79479 0
M  V30 7549 H 699.009 5.23933 3.79609 0
M  V30 7550 N 699.141 -0.881989 1.30609 0
M  V30 7551 C 700.418 -1.61563 1.10258 0
M  V30 7552 C 700.798 -2.08228 -0.347053 0
M  V30 7553 O 700.146 -1.85151 -1.33908 0
M  V30 7554 C 700.356 -2.78287 2.10612 0
M  V30 7555 C 701.704 -3.48545 2.4249 0
M  V30 7556 O 702.728 -2.88479 2.08945 0
M  V30 7557 O 701.587 -4.56873 2.99883 0
M  V30 7558 H 698.681 -0.710238 0.423663 0
M  V30 7559 H 701.227 -0.928503 1.42045 0
M  V30 7560 H 699.999 -2.41131 3.08174 0
M  V30 7561 H 699.622 -3.54695 1.79659 0
M  V30 7562 N 700.619 -1.13374 -1.09472 0
M  V30 7563 C 701.549 -0.833268 -2.18126 0
M  V30 7564 C 702.53 0.207169 -1.68834 0
M  V30 7565 O 703.715 0.0662012 -1.94087 0
M  V30 7566 C 700.845 -0.297979 -3.46019 0
M  V30 7567 C 699.799 -1.27261 -4.08642 0
M  V30 7568 C 699.125 -0.597104 -5.31356 0
M  V30 7569 C 700.425 -2.63095 -4.51197 0
M  V30 7570 H 702.119 -1.74182 -2.43518 0
M  V30 7571 H 699.665 -0.838921 -1.17039 0
M  V30 7572 H 701.618 -0.0754444 -4.21332 0
M  V30 7573 H 700.342 0.645959 -3.20148 0
M  V30 7574 H 699.001 -1.48113 -3.35348 0
M  V30 7575 H 698.649 0.352293 -5.01765 0
M  V30 7576 H 698.349 -1.24734 -5.74208 0
M  V30 7577 H 699.873 -0.38384 -6.09392 0
M  V30 7578 H 701.287 -2.46214 -5.17737 0
M  V30 7579 H 699.684 -3.2429 -5.04932 0
M  V30 7580 H 700.754 -3.20793 -3.6362 0
M  V30 7581 N 702.098 1.27442 -0.927168 0
M  V30 7582 C 703.328 1.9821 -0.582775 0
M  V30 7583 C 703.736 1.69361 0.843406 0
M  V30 7584 O 703.079 0.950381 1.57205 0
M  V30 7585 C 703.141 3.52048 -0.728165 0
M  V30 7586 C 702.805 4.04518 -2.12637 0
M  V30 7587 C 703.802 4.17332 -3.10048 0
M  V30 7588 C 701.487 4.38879 -2.44317 0
M  V30 7589 C 703.481 4.6378 -4.37249 0
M  V30 7590 C 701.168 4.85018 -3.71753 0
M  V30 7591 C 702.166 4.97428 -4.68033 0
M  V30 7592 O 701.854 5.42556 -5.93202 0
M  V30 7593 H 701.586 0.639314 -0.219667 0
M  V30 7594 H 704.14 1.63272 -1.24626 0
M  V30 7595 H 702.37 3.86699 -0.00758143 0
M  V30 7596 H 704.059 4.04033 -0.388906 0
M  V30 7597 H 704.825 3.91046 -2.86894 0
M  V30 7598 H 700.704 4.28462 -1.70121 0
M  V30 7599 H 704.248 4.73382 -5.12402 0
M  V30 7600 H 700.145 5.10746 -3.94726 0
M  V30 7601 H 700.913 5.60811 -5.96182 0
M  V30 7602 N 703.576 0.692616 1.41565 0
M  V30 7603 C 704.539 0.0344174 2.29174 0
M  V30 7604 C 705.539 -0.710961 1.44229 0
M  V30 7605 O 706.729 -0.546293 1.65412 0
M  V30 7606 C 703.861 -0.961682 3.27054 0
M  V30 7607 H 705.054 0.805755 2.88873 0
M  V30 7608 H 702.607 0.455947 1.49502 0
M  V30 7609 H 703.342 -1.76089 2.72329 0
M  V30 7610 H 703.127 -0.430375 3.89731 0
M  V30 7611 H 704.617 -1.4201 3.92712 0
M  V30 7612 N 705.054 -1.51416 0.437162 0
M  V30 7613 C 706.47 -1.59349 0.0894459 0
M  V30 7614 C 706.67 -1.44809 -1.40116 0
M  V30 7615 O 705.726 -1.28924 -2.17106 0
M  V30 7616 C 707.039 -2.9446 0.609398 0
M  V30 7617 C 708.587 -3.07769 0.569824 0
M  V30 7618 C 709.062 -4.45404 1.06675 0
M  V30 7619 N 710.553 -4.51723 1.02473 0
M  V30 7620 C 711.288 -5.56544 1.3801 0
M  V30 7621 N 710.784 -6.68784 1.80831 0
M  V30 7622 N 712.577 -5.46901 1.29828 0
M  V30 7623 H 704.728 -1.59112 1.40703 0
M  V30 7624 H 706.991 -0.750031 0.579791 0
M  V30 7625 H 706.697 -3.1047 1.65231 0
M  V30 7626 H 706.571 -3.77184 0.0342236 0
M  V30 7627 H 708.958 -2.91428 -0.464107 0
M  V30 7628 H 709.039 -2.26885 1.1814 0
M  V30 7629 H 708.683 -4.62492 2.09914 0
M  V30 7630 H 708.613 -5.24827 0.431712 0
M  V30 7631 H 711.104 -3.71165 0.710258 0
M  V30 7632 H 711.417 -7.44787 2.06185 0
M  V30 7633 H 709.762 -6.69992 1.84757 0
M  V30 7634 H 712.953 -4.581 0.962397 0
M  V30 7635 H 713.126 -6.2848 1.57851 0
M  V30 7636 N 706.532 -0.168513 -1.56696 0
M  V30 7637 C 707.495 0.748928 -2.16619 0
M  V30 7638 C 708.495 1.16007 -1.11351 0
M  V30 7639 O 709.685 1.07748 -1.3688 0
M  V30 7640 C 706.817 2.01904 -2.74677 0
M  V30 7641 H 708.01 0.227317 -2.99037 0
M  V30 7642 H 705.563 0.0810372 -1.5609 0
M  V30 7643 H 706.298 2.58381 -1.95985 0
M  V30 7644 H 706.083 1.73323 -3.51712 0
M  V30 7645 H 707.573 2.67383 -3.20774 0
M  V30 7646 N 708.01 1.57248 0.105221 0
M  V30 7647 C 708.94 2.04374 1.12931 0
M  V30 7648 C 709.921 0.93074 1.42377 0
M  V30 7649 O 711.106 1.20136 1.52581 0
M  V30 7650 C 708.236 2.45967 2.45189 0
M  V30 7651 C 707.19 3.60838 2.30174 0
M  V30 7652 C 706.516 3.88374 3.67518 0
M  V30 7653 C 707.816 4.92084 1.75073 0
M  V30 7654 H 709.51 2.9018 0.737287 0
M  V30 7655 H 707.056 1.39601 0.353211 0
M  V30 7656 H 709.009 2.77542 3.17094 0
M  V30 7657 H 707.733 1.57148 2.86308 0
M  V30 7658 H 706.392 3.29493 1.60716 0
M  V30 7659 H 706.04 2.96739 4.06147 0
M  V30 7660 H 705.74 4.65703 3.58321 0
M  V30 7661 H 707.264 4.22415 4.40906 0
M  V30 7662 H 708.678 5.22106 2.36809 0
M  V30 7663 H 707.075 5.73507 1.76662 0
M  V30 7664 H 708.145 4.79684 0.709347 0
M  V30 7665 N 709.488 -0.375779 1.53054 0
M  V30 7666 C 710.735 -1.11948 1.68742 0
M  V30 7667 C 711.063 -1.89596 0.434015 0
M  V30 7668 O 710.318 -1.86787 -0.583867 0
M  V30 7669 C 710.617 -2.11356 2.88207 0
M  V30 7670 C 710.283 -1.50266 4.25124 0
M  V30 7671 C 708.945 -1.33333 4.62359 0
M  V30 7672 C 711.297 -1.05976 5.10312 0
M  V30 7673 C 708.625 -0.706765 5.82427 0
M  V30 7674 C 710.977 -0.447241 6.31017 0
M  V30 7675 C 709.641 -0.265314 6.66973 0
M  V30 7676 H 708.911 -0.409648 0.61747 0
M  V30 7677 H 711.558 -0.402492 1.87222 0
M  V30 7678 H 709.863 -2.89322 2.64197 0
M  V30 7679 H 711.56 -2.68833 2.97539 0
M  V30 7680 H 708.15 -1.64437 3.95801 0
M  V30 7681 H 712.334 -1.17855 4.82104 0
M  V30 7682 H 707.59 -0.554132 6.08884 0
M  V30 7683 H 711.764 -0.0958064 6.96334 0
M  V30 7684 H 709.391 0.222267 7.59875 0
M  V30 7685 N 710.966 -1.44241 -0.634997 0
M  V30 7686 C 712.377 -1.41622 -1.21655 0
M  V30 7687 C 712.728 -0.129584 -1.95772 0
M  V30 7688 O 711.853 0.770225 -2.02229 0
M  V30 7689 C 712.448 -2.56557 -2.21278 0
M  V30 7690 C 711.007 -2.57145 -2.7487 0
M  V30 7691 C 710.154 -2.33354 -1.49804 0
M  V30 7692 H 713.105 -1.52878 -0.425905 0
M  V30 7693 H 713.126 -2.29089 -3.03807 0
M  V30 7694 H 712.638 -3.50186 -1.67306 0
M  V30 7695 H 710.739 -1.67447 -3.32855 0
M  V30 7696 H 710.852 -3.55507 -3.21172 0
M  V30 7697 H 709.216 -1.82372 -1.77799 0
M  V30 7698 H 709.999 -3.29092 -0.977402 0
M  V30 7699 N 712.444 0.87505 -1.31075 0
M  V30 7700 C 713.691 1.62768 -1.20469 0
M  V30 7701 C 714.019 1.93034 0.23834 0
M  V30 7702 O 713.274 1.55693 1.18567 0
M  V30 7703 C 713.573 2.96948 -1.98888 0
M  V30 7704 C 713.239 2.86195 -3.4843 0
M  V30 7705 C 711.901 2.82969 -3.89207 0
M  V30 7706 C 714.253 2.73599 -4.43614 0
M  V30 7707 C 711.581 2.64999 -5.23443 0
M  V30 7708 C 713.933 2.57166 -5.77969 0
M  V30 7709 C 712.597 2.52321 -6.17973 0
M  V30 7710 H 711.867 0.595611 -0.440827 0
M  V30 7711 H 714.514 1.01665 -1.62285 0
M  V30 7712 H 712.819 3.62058 -1.49737 0
M  V30 7713 H 714.516 3.54164 -1.88067 0
M  V30 7714 H 711.106 2.8952 -3.16032 0
M  V30 7715 H 715.29 2.7515 -4.13045 0
M  V30 7716 H 710.546 2.5967 -5.53517 0
M  V30 7717 H 714.72 2.46396 -6.51354 0
M  V30 7718 H 712.347 2.38156 -7.21932 0
M  V30 7719 N 713.922 1.13953 1.08869 0
M  V30 7720 C 715.162 0.915128 1.8277 0
M  V30 7721 C 715.526 -0.548647 1.83994 0
M  V30 7722 O 716.727 -0.890817 2.5361 0
M  V30 7723 C 714.998 1.49382 3.24684 0
M  V30 7724 S 716.557 1.4103 4.15519 0
M  V30 7725 H 713.375 0.329716 0.629927 0
M  V30 7726 H 715.977 1.45213 1.30895 0
M  V30 7727 H 714.681 2.55241 3.21372 0
M  V30 7728 H 714.212 0.955008 3.81632 0
M  V30 7729 H 716.227 0.392617 4.94644 0
M  V30 7730 N 715.4 -1.26948 0.933913 0
M  V30 7731 C 716.647 -1.94087 0.577625 0
M  V30 7732 C 716.975 -1.73345 -0.88214 0
M  V30 7733 O 716.23 -1.05945 -1.64542 0
M  V30 7734 C 716.529 -3.46963 0.857406 0
M  V30 7735 C 716.195 -3.87834 2.2999 0
M  V30 7736 C 714.857 -3.98704 2.69423 0
M  V30 7737 C 717.209 -4.08442 3.23766 0
M  V30 7738 C 714.537 -4.27573 4.01744 0
M  V30 7739 C 716.889 -4.38798 4.55675 0
M  V30 7740 C 715.553 -4.47881 4.94934 0
M  V30 7741 H 714.823 -0.710215 0.211368 0
M  V30 7742 H 717.47 -1.50899 1.17905 0
M  V30 7743 H 715.775 -3.91416 0.173369 0
M  V30 7744 H 717.472 -3.97062 0.560615 0
M  V30 7745 H 714.062 -3.79916 1.98399 0
M  V30 7746 H 718.246 -3.99479 2.94499 0
M  V30 7747 H 713.502 -4.32815 4.31834 0
M  V30 7748 H 717.676 -4.5369 5.28335 0
M  V30 7749 H 715.303 -4.70005 5.97495 0
M  V30 7750 N 716.879 -0.700114 -1.41195 0
M  V30 7751 C 717.809 -0.0521132 -2.33442 0
M  V30 7752 C 718.79 0.76228 -1.52063 0
M  V30 7753 O 719.975 0.714336 -1.80585 0
M  V30 7754 C 717.105 0.881693 -3.35922 0
M  V30 7755 C 716.059 0.174062 -4.27646 0
M  V30 7756 C 715.385 1.22254 -5.20536 0
M  V30 7757 C 716.685 -0.962396 -5.13357 0
M  V30 7758 H 718.379 -0.822574 -2.87879 0
M  V30 7759 H 715.925 -0.397011 -1.38419 0
M  V30 7760 H 717.878 1.34429 -3.99383 0
M  V30 7761 H 716.602 1.68387 -2.79845 0
M  V30 7762 H 715.261 -0.268551 -3.65615 0
M  V30 7763 H 714.909 2.01736 -4.60773 0
M  V30 7764 H 714.609 0.754038 -5.82742 0
M  V30 7765 H 716.133 1.68555 -5.86874 0
M  V30 7766 H 717.547 -0.579875 -5.7036 0
M  V30 7767 H 715.944 -1.35828 -5.84526 0
M  V30 7768 H 717.014 -1.80003 -4.50252 0
M  V30 7769 N 718.357 1.51182 -0.445186 0
M  V30 7770 C 719.604 2.02152 0.118645 0
M  V30 7771 C 719.932 1.32888 1.42025 0
M  V30 7772 O 719.187 0.435041 1.90803 0
M  V30 7773 C 719.486 3.55408 0.376797 0
M  V30 7774 C 719.152 4.43008 -0.839945 0
M  V30 7775 C 717.814 4.66669 -1.17361 0
M  V30 7776 C 720.166 4.9435 -1.65127 0
M  V30 7777 C 717.494 5.38919 -2.31913 0
M  V30 7778 C 719.846 5.67857 -2.78786 0
M  V30 7779 C 718.51 5.89779 -3.12597 0
M  V30 7780 H 717.78 0.739727 0.0434152 0
M  V30 7781 H 720.427 1.82055 -0.593984 0
M  V30 7782 H 718.732 3.73879 1.1714 0
M  V30 7783 H 720.429 3.92388 0.826602 0
M  V30 7784 H 717.019 4.24793 -0.569958 0
M  V30 7785 H 721.203 4.75947 -1.4067 0
M  V30 7786 H 716.459 5.54105 -2.58413 0
M  V30 7787 H 720.633 6.06628 -3.42017 0
M  V30 7788 H 718.26 6.45542 -4.01471 0
M  V30 7789 N 719.835 0.176821 1.56605 0
M  V30 7790 C 721.082 -0.466715 1.97048 0
M  V30 7791 C 721.41 -1.6288 1.06302 0
M  V30 7792 O 720.665 -1.95453 0.0982571 0
M  V30 7793 C 720.964 -0.986208 3.43524 0
M  V30 7794 C 720.63 0.0605667 4.50859 0
M  V30 7795 C 719.292 0.348242 4.79938 0
M  V30 7796 C 721.644 0.770794 5.15469 0
M  V30 7797 C 718.972 1.35144 5.70923 0
M  V30 7798 C 721.324 1.76301 6.07537 0
M  V30 7799 C 719.988 2.05808 6.3498 0
M  V30 7800 H 719.258 -0.170783 0.721051 0
M  V30 7801 H 721.905 0.269942 1.89588 0
M  V30 7802 H 720.21 -1.80079 3.47964 0
M  V30 7803 H 721.907 -1.49323 3.72161 0
M  V30 7804 H 718.497 -0.173823 4.28247 0
M  V30 7805 H 722.681 0.56176 4.9311 0
M  V30 7806 H 717.937 1.58616 5.90467 0
M  V30 7807 H 722.111 2.31868 6.56666 0
M  V30 7808 H 719.738 2.8369 7.05283 0
M  V30 7809 N 721.313 -1.57302 -0.09688 0
M  V30 7810 C 722.261 -2.02942 -1.13654 0
M  V30 7811 C 723.255 -0.930173 -1.41577 0
M  V30 7812 O 724.461 -1.11535 -1.41279 0
M  V30 7813 H 720.836 -0.646726 -0.383731 0
M  V30 7814 H 722.807 -2.89452 -0.725267 0
M  V30 7815 C 721.556 -2.46815 -2.44903 0
M  V30 7816 H 720.879 -3.30979 -2.24261 0
M  V30 7817 H 722.319 -2.82527 -3.16156 0
M  V30 7818 C 720.778 -1.34071 -3.09074 0
M  V30 7819 O 721.308 -0.668856 -3.96092 0
M  V30 7820 N 719.514 -1.09214 -2.69296 0
M  V30 7821 H 719.061 -1.64029 -1.98626 0
M  V30 7822 H 719.019 -0.339785 -3.12559 0
M  V30 7823 N 722.791 0.367657 -1.53252 0
M  V30 7824 C 724.037 1.11216 -1.69584 0
M  V30 7825 C 724.37 1.89026 -0.445269 0
M  V30 7826 O 723.645 1.86342 0.557404 0
M  V30 7827 C 723.928 2.07308 -2.94441 0
M  V30 7828 C 723.781 1.3312 -4.2965 0
M  V30 7829 C 725.1 3.07459 -3.14892 0
M  V30 7830 H 722.219 0.40294 -0.617096 0
M  V30 7831 H 724.861 0.393201 -1.85887 0
M  V30 7832 H 723.011 2.68617 -2.80673 0
M  V30 7833 H 724.683 0.746111 -4.55226 0
M  V30 7834 H 722.926 0.633051 -4.29156 0
M  V30 7835 H 723.597 2.03443 -5.13142 0
M  V30 7836 H 726.073 2.56252 -3.27832 0
M  V30 7837 H 724.949 3.71919 -4.03693 0
M  V30 7838 H 725.21 3.77514 -2.30077 0
M  V30 7839 N 724.269 1.44576 0.627338 0
M  V30 7840 C 725.518 1.46837 1.38281 0
M  V30 7841 C 725.831 0.10635 1.95311 0
M  V30 7842 O 727.037 0.00651084 2.71499 0
M  V30 7843 C 725.493 2.58527 2.50384 0
M  V30 7844 C 725.101 4.00953 1.99851 0
M  V30 7845 C 726.845 2.70013 3.27557 0
M  V30 7846 C 724.752 5.0406 3.09318 0
M  V30 7847 H 723.682 0.546319 0.519664 0
M  V30 7848 H 726.333 1.70654 0.674497 0
M  V30 7849 H 724.715 2.27957 3.23808 0
M  V30 7850 H 725.889 4.41108 1.33267 0
M  V30 7851 H 724.204 3.93743 1.35482 0
M  V30 7852 H 726.801 3.44217 4.09168 0
M  V30 7853 H 727.144 1.75961 3.77284 0
M  V30 7854 H 727.677 3.00011 2.61224 0
M  V30 7855 H 724.416 5.99753 2.6453 0
M  V30 7856 H 723.936 4.68493 3.74532 0
M  V30 7857 H 725.615 5.2793 3.74031 0
M  V30 7858 N 725.747 -0.868086 1.31537 0
M  V30 7859 C 726.977 -1.65162 1.24118 0
M  V30 7860 C 727.385 -1.88187 -0.195558 0
M  V30 7861 O 726.728 -1.44154 -1.13866 0
M  V30 7862 C 726.79 -3.04119 1.91708 0
M  V30 7863 C 726.454 -3.04194 3.4105 0
M  V30 7864 C 727.451 -2.82016 4.36764 0
M  V30 7865 C 725.136 -3.25256 3.82772 0
M  V30 7866 C 727.13 -2.80881 5.72175 0
M  V30 7867 C 724.817 -3.23749 5.18295 0
M  V30 7868 C 725.815 -3.01589 6.12808 0
M  V30 7869 O 725.503 -2.9993 7.45853 0
M  V30 7870 H 725.235 -0.521597 0.430015 0
M  V30 7871 H 727.789 -1.09165 1.73989 0
M  V30 7872 H 726.019 -3.61849 1.36389 0
M  V30 7873 H 727.708 -3.64701 1.78179 0
M  V30 7874 H 728.474 -2.65525 4.05859 0
M  V30 7875 H 724.353 -3.41534 3.09638 0
M  V30 7876 H 727.897 -2.63503 6.45919 0
M  V30 7877 H 723.794 -3.39781 5.48834 0
M  V30 7878 H 724.562 -3.15979 7.55049 0
M  V30 7879 N 727.225 -1.14528 -1.08264 0
M  V30 7880 C 728.471 -0.925721 -1.81113 0
M  V30 7881 C 728.826 0.54185 -1.84612 0
M  V30 7882 O 728.119 1.39628 -1.31205 0
M  V30 7883 C 728.313 -1.46226 -3.26117 0
M  V30 7884 C 728.142 -2.98047 -3.36746 0
M  V30 7885 C 726.912 -3.66508 -3.4785 0
M  V30 7886 C 729.11 -3.95903 -3.28277 0
M  V30 7887 N 727.092 -5.06227 -3.47285 0
M  V30 7888 C 728.463 -5.21883 -3.34721 0
M  V30 7889 C 730.518 -3.88002 -3.12024 0
M  V30 7890 C 729.221 -6.40886 -3.26585 0
M  V30 7891 C 731.247 -5.06553 -3.05219 0
M  V30 7892 C 730.609 -6.31403 -3.12266 0
M  V30 7893 H 726.708 -0.392294 -0.676483 0
M  V30 7894 H 729.292 -1.45567 -1.293 0
M  V30 7895 H 727.463 -0.959076 -3.76373 0
M  V30 7896 H 729.195 -1.18247 -3.8704 0
M  V30 7897 H 725.95 -3.17067 -3.51804 0
M  V30 7898 H 726.374 -5.79172 -3.50555 0
M  V30 7899 H 731.016 -2.9235 -3.05436 0
M  V30 7900 H 728.734 -7.36781 -3.31934 0
M  V30 7901 H 732.32 -5.02191 -2.93761 0
M  V30 7902 H 731.2 -7.21596 -3.07032 0
M  V30 7903 N 728.703 1.26451 -0.940633 0
M  V30 7904 C 729.928 1.98407 -0.60412 0
M  V30 7905 C 730.353 1.69584 0.81382 0
M  V30 7906 O 729.711 0.943553 1.54812 0
M  V30 7907 C 729.759 3.50387 -0.852136 0
M  V30 7908 O 728.863 4.1233 0.076013 0
M  V30 7909 H 728.204 0.622466 -0.231153 0
M  V30 7910 H 730.734 1.60932 -1.26342 0
M  V30 7911 H 730.744 4.00614 -0.772816 0
M  V30 7912 H 729.419 3.70696 -1.88566 0
M  V30 7913 H 727.996 3.7286 -0.0543187 0
M  V30 7914 N 730.181 0.707592 1.40822 0
M  V30 7915 C 731.43 0.240705 2.00259 0
M  V30 7916 C 731.743 -1.17027 1.56729 0
M  V30 7917 O 732.949 -1.73526 2.08809 0
M  V30 7918 C 731.405 0.379432 3.57894 0
M  V30 7919 C 731.013 1.79654 4.104 0
M  V30 7920 C 732.757 -0.0270684 4.24491 0
M  V30 7921 C 730.664 1.88628 5.60512 0
M  V30 7922 H 729.594 0.0862369 0.749052 0
M  V30 7923 H 732.245 0.877528 1.61157 0
M  V30 7924 H 730.627 -0.325842 3.94657 0
M  V30 7925 H 731.801 2.53155 3.85032 0
M  V30 7926 H 730.116 2.15379 3.56372 0
M  V30 7927 H 732.713 0.0193743 5.34696 0
M  V30 7928 H 733.056 -1.06772 4.02375 0
M  V30 7929 H 733.589 0.628361 3.92806 0
M  V30 7930 H 730.328 2.90787 5.87472 0
M  V30 7931 H 729.848 1.19528 5.8777 0
M  V30 7932 H 731.527 1.6547 6.25483 0
M  V30 7933 N 731.66 -1.50943 0.453197 0
M  V30 7934 C 732.89 -2.06328 -0.105981 0
M  V30 7935 C 733.298 -1.31909 -1.35634 0
M  V30 7936 O 732.641 -0.376607 -1.79798 0
M  V30 7937 C 732.703 -3.5631 -0.477868 0
M  V30 7938 C 732.367 -4.52093 0.667925 0
M  V30 7939 C 733.364 -4.96421 1.54475 0
M  V30 7940 C 731.049 -4.95001 0.853168 0
M  V30 7941 C 733.043 -5.82346 2.59138 0
M  V30 7942 C 730.73 -5.80713 1.90305 0
M  V30 7943 C 731.728 -6.24284 2.77053 0
M  V30 7944 O 731.416 -7.08291 3.80236 0
M  V30 7945 H 731.148 -0.675986 -0.00427247 0
M  V30 7946 H 733.702 -1.95314 0.635738 0
M  V30 7947 H 731.932 -3.65163 -1.27252 0
M  V30 7948 H 733.621 -3.94138 -0.970039 0
M  V30 7949 H 734.387 -4.63953 1.41324 0
M  V30 7950 H 730.266 -4.60619 0.187482 0
M  V30 7951 H 733.81 -6.16276 3.2688 0
M  V30 7952 H 729.707 -6.12593 2.03469 0
M  V30 7953 H 730.475 -7.26504 3.77007 0
M  V30 7954 N 733.138 -0.185124 -1.56509 0
M  V30 7955 C 734.068 0.735098 -2.21627 0
M  V30 7956 C 735.049 1.2288 -1.1762 0
M  V30 7957 O 736.234 1.27945 -1.46095 0
M  V30 7958 C 733.364 1.95889 -2.86783 0
M  V30 7959 C 732.318 1.6005 -3.96948 0
M  V30 7960 C 731.644 2.90009 -4.4922 0
M  V30 7961 C 732.944 0.818008 -5.15855 0
M  V30 7962 H 734.638 0.192274 -2.98782 0
M  V30 7963 H 732.184 0.0910393 -1.43712 0
M  V30 7964 H 734.137 2.60779 -3.31017 0
M  V30 7965 H 732.861 2.52608 -2.07018 0
M  V30 7966 H 731.52 0.975237 -3.5339 0
M  V30 7967 H 731.168 3.44797 -3.6623 0
M  V30 7968 H 730.868 2.66778 -5.23549 0
M  V30 7969 H 732.392 3.55904 -4.9615 0
M  V30 7970 H 733.806 1.36979 -5.56695 0
M  V30 7971 H 732.203 0.684207 -5.96187 0
M  V30 7972 H 733.273 -0.182939 -4.84555 0
M  V30 7973 O 734.655 1.6143 -0.0476879 0
M  V30 7974 H 735.346 1.85363 0.562176 0
M  V30 END ATOM
M  V30 BEGIN BOND
M  V30 END BOND
M  V30 END CTAB
M  END
$$$$
