drugbank_target|Q15382 GTP-binding protein Rheb (DB04137; DB04315)
 OpenBabel12092120563D

  0  0  0     0  0            999 V3000
M  V30 BEGIN CTAB
M  V30 COUNTS 2895 2918 0 0 0
M  V30 BEGIN ATOM
M  V30 1 H -0.908 1.98254 -0.117106 0
M  V30 2 N 0 1.576 0 0
M  V30 3 C 0.933 2.03868 1.02534 0
M  V30 4 C 1.911 0.928543 1.3348 0
M  V30 5 O 3.095 1.19667 1.45644 0
M  V30 6 C 0.222 2.43627 2.35294 0
M  V30 7 C -0.732 3.65373 2.2001 0
M  V30 8 S 0.101 5.13292 1.52614 0
M  V30 9 C 1.257 5.56322 2.86805 0
M  V30 10 H 1.49 2.90518 0.631377 0
M  V30 11 H -0.977 1.52953 0.210867 0
M  V30 12 H 0.981 2.67203 3.11629 0
M  V30 13 H -0.358 1.57376 2.7183 0
M  V30 14 H -1.165 3.90944 3.18086 0
M  V30 15 H -1.563 3.418 1.51819 0
M  V30 16 H 0.729 5.58782 3.83104 0
M  V30 17 H 1.672 6.56266 2.65933 0
M  V30 18 H 2.08 4.83886 2.90714 0
M  V30 19 N 1.4781 -0.272755 1.55222 0
M  V30 20 C 2.8891 -0.84378 1.66545 0
M  V30 21 C 3.2401 -1.87035 0.592641 0
M  V30 22 O 2.3651 -2.14761 -0.265818 0
M  V30 23 C 2.9601 -1.53723 3.01918 0
M  V30 24 C 1.5191 -2.05628 3.15268 0
M  V30 25 C 0.6661 -0.898424 2.62343 0
M  V30 26 H 3.6171 -0.0490998 1.58624 0
M  V30 27 H 3.6381 -2.40421 2.94921 0
M  V30 28 H 3.1501 -0.78983 3.79978 0
M  V30 29 H 1.2511 -2.83329 2.41983 0
M  V30 30 H 1.3641 -2.27142 4.21833 0
M  V30 31 H -0.2719 -1.29186 2.19506 0
M  V30 32 H 0.5111 -0.164528 3.42906 0
M  V30 33 N 2.9562 -1.48159 -0.537278 0
M  V30 34 C 3.8882 -1.58218 -1.65831 0
M  V30 35 C 4.9012 -0.466948 -1.5596 0
M  V30 36 O 6.0902 -0.73747 -1.62553 0
M  V30 37 C 3.1902 -1.48906 -3.04434 0
M  V30 38 C 2.3632 -2.75343 -3.3986 0
M  V30 39 C 1.4222 -2.59588 -4.57712 0
M  V30 40 O 0.4482 -3.33457 -4.61297 0
M  V30 41 N 1.6502 -1.68724 -5.55439 0
M  V30 42 H 4.4152 -2.54891 -1.57641 0
M  V30 43 H 1.9762 -1.4479 -0.724386 0
M  V30 44 H 3.9682 -1.36072 -3.81139 0
M  V30 45 H 2.5382 -0.602368 -3.06741 0
M  V30 46 H 1.7582 -3.02795 -2.52406 0
M  V30 47 H 3.0462 -3.5924 -3.60311 0
M  V30 48 H 2.4442 -1.07898 -5.55315 0
M  V30 49 H 1.0012 -1.61832 -6.3139 0
M  V30 50 N 4.4343 0.785586 -1.36625 0
M  V30 51 C 5.6593 1.57963 -1.34397 0
M  V30 52 C 6.0843 1.87964 0.071526 0
M  V30 53 O 5.4423 1.48182 1.0446 0
M  V30 54 C 5.4903 2.87511 -2.17646 0
M  V30 55 O 4.5943 3.81281 -1.57158 0
M  V30 56 H 3.9353 0.479014 -0.459828 0
M  V30 57 H 6.4653 0.973411 -1.79961 0
M  V30 58 H 6.4753 3.36745 -2.30362 0
M  V30 59 H 5.1503 2.65002 -3.20541 0
M  V30 60 H 3.7273 3.39885 -1.53403 0
M  V30 61 N 5.9124 1.20967 1.01018 0
M  V30 62 C 6.8594 0.964281 2.09691 0
M  V30 63 C 7.8294 -0.107853 1.65749 0
M  V30 64 O 9.0144 0.0381987 1.90762 0
M  V30 65 C 6.1544 0.52943 3.41015 0
M  V30 66 C 5.2674 1.67043 3.98398 0
M  V30 67 C 4.4024 1.18525 5.17808 0
M  V30 68 C 3.4414 2.29892 5.67288 0
M  V30 69 N 2.5784 1.82546 6.77954 0
M  V30 70 H 7.4184 1.89463 2.30017 0
M  V30 71 H 4.9554 0.944289 1.1279 0
M  V30 72 H 6.9134 0.258588 4.16398 0
M  V30 73 H 5.5434 -0.363919 3.20742 0
M  V30 74 H 4.5954 2.05603 3.20049 0
M  V30 75 H 5.9074 2.50877 4.31117 0
M  V30 76 H 5.0614 0.870762 6.00419 0
M  V30 77 H 3.8004 0.316887 4.86669 0
M  V30 78 H 2.8054 2.6215 4.83278 0
M  V30 79 H 4.0304 3.17216 6.00459 0
M  V30 80 H 1.9764 0.980454 6.48632 0
M  V30 81 H 1.8934 2.59956 7.09901 0
M  V30 82 H 3.1614 1.54115 7.64113 0
M  V30 83 N 7.3905 -1.2043 1.01659 0
M  V30 84 C 8.6155 -1.94318 0.724942 0
M  V30 85 C 9.0405 -1.74266 -0.708034 0
M  V30 86 O 8.3985 -1.03694 -1.48719 0
M  V30 87 C 8.4465 -3.44486 1.06591 0
M  V30 88 O 7.5505 -4.12017 0.177599 0
M  V30 89 H 6.8915 -0.60708 0.26898 0
M  V30 90 H 9.4215 -1.52861 1.35995 0
M  V30 91 H 9.4315 -3.95106 1.01762 0
M  V30 92 H 8.1065 -3.58404 2.10997 0
M  V30 93 H 6.6835 -3.71821 0.283421 0
M  V30 94 N 8.8686 -0.792821 -1.36206 0
M  V30 95 C 10.2846 -0.474903 -1.52371 0
M  V30 96 C 10.4846 1.00622 -1.74578 0
M  V30 97 O 9.5406 1.79162 -1.77924 0
M  V30 98 C 10.8536 -1.3083 -2.70747 0
M  V30 99 C 12.4016 -1.30234 -2.84619 0
M  V30 100 C 12.8766 -2.11956 -4.06004 0
M  V30 101 N 14.3676 -2.09419 -4.13156 0
M  V30 102 C 15.1026 -2.69419 -5.06163 0
M  V30 103 N 14.5986 -3.3829 -6.04592 0
M  V30 104 N 16.3916 -2.59134 -4.98804 0
M  V30 105 H 8.5426 -1.75222 -1.20046 0
M  V30 106 H 10.8056 -0.745024 -0.586211 0
M  V30 107 H 10.5116 -2.35881 -2.6087 0
M  V30 108 H 10.3856 -0.95196 -3.6499 0
M  V30 109 H 12.7726 -0.259748 -2.93955 0
M  V30 110 H 12.8536 -1.69847 -1.91274 0
M  V30 111 H 12.4976 -3.16248 -3.97429 0
M  V30 112 H 12.4276 -1.69711 -4.98503 0
M  V30 113 H 14.9186 -1.59297 -3.42685 0
M  V30 114 H 15.2316 -3.81394 -6.7213 0
M  V30 115 H 13.5766 -3.42393 -6.04807 0
M  V30 116 H 16.7676 -2.04927 -4.20859 0
M  V30 117 H 16.9406 -3.06185 -5.711 0
M  V30 118 N 10.3467 1.47872 -0.545128 0
M  V30 119 C 11.2937 2.29849 0.2093 0
M  V30 120 C 12.2637 1.38313 0.919707 0
M  V30 121 O 13.4487 1.67277 0.917772 0
M  V30 122 C 10.5887 3.22019 1.24088 0
M  V30 123 C 9.7017 4.2864 0.537778 0
M  V30 124 C 8.8367 5.07973 1.5536 0
M  V30 125 C 7.8757 6.06381 0.8348 0
M  V30 126 N 7.0127 6.78717 1.79688 0
M  V30 127 H 11.8527 2.93845 -0.49591 0
M  V30 128 H 9.3897 1.44848 -0.256389 0
M  V30 129 H 11.3477 3.73868 1.85144 0
M  V30 130 H 9.9777 2.59914 1.91428 0
M  V30 131 H 9.0297 3.7994 -0.187046 0
M  V30 132 H 10.3417 4.98793 -0.0258907 0
M  V30 133 H 9.4957 5.63912 2.23803 0
M  V30 134 H 8.2347 4.37693 2.15118 0
M  V30 135 H 7.2397 5.49631 0.136388 0
M  V30 136 H 8.4647 6.78665 0.24313 0
M  V30 137 H 6.4107 6.11177 2.38326 0
M  V30 138 H 6.3277 7.44998 1.28505 0
M  V30 139 H 7.5957 7.39237 2.47282 0
M  V30 140 N 11.8248 0.280983 1.55075 0
M  V30 141 C 13.0738 -0.334784 1.98902 0
M  V30 142 C 13.3868 -1.56534 1.17288 0
M  V30 143 O 14.5928 -2.25443 1.51287 0
M  V30 144 C 13.0488 -0.646994 3.54037 0
M  V30 145 C 12.6568 0.564085 4.44435 0
M  V30 146 C 14.4008 -1.22506 4.06439 0
M  V30 147 C 12.3078 0.226137 5.90967 0
M  V30 148 H 11.2378 -0.128866 0.742906 0
M  V30 149 H 13.8888 0.386556 1.79382 0
M  V30 150 H 12.2708 -1.42739 3.6938 0
M  V30 151 H 13.4448 1.34082 4.40861 0
M  V30 152 H 11.7598 1.0594 4.02698 0
M  V30 153 H 14.3568 -1.49182 5.13468 0
M  V30 154 H 14.6998 -2.16085 3.55827 0
M  V30 155 H 15.2328 -0.50682 3.94558 0
M  V30 156 H 11.9718 1.12996 6.45687 0
M  V30 157 H 11.4918 -0.513717 5.97596 0
M  V30 158 H 13.1708 -0.179539 6.46751 0
M  V30 159 N 13.3029 -1.57598 0.00835791 0
M  V30 160 C 14.2659 -2.07884 -0.965242 0
M  V30 161 C 15.2659 -0.989825 -1.26725 0
M  V30 162 O 16.4559 -1.25218 -1.21104 0
M  V30 163 C 13.5879 -2.52731 -2.28779 0
M  V30 164 H 14.7809 -2.95178 -0.530112 0
M  V30 165 H 12.3339 -1.54458 -0.239283 0
M  V30 166 H 13.0689 -1.68705 -2.76964 0
M  V30 167 H 12.8539 -3.32272 -2.08177 0
M  V30 168 H 14.3439 -2.91933 -2.98605 0
M  V30 169 N 14.781 0.264519 -1.55364 0
M  V30 170 C 16.03 0.992812 -1.75574 0
M  V30 171 C 16.343 1.87142 -0.568979 0
M  V30 172 O 17.549 2.63513 -0.653682 0
M  V30 173 C 16.005 1.81519 -3.10771 0
M  V30 174 C 15.613 0.984839 -4.37041 0
M  V30 175 C 17.357 2.53727 -3.40327 0
M  V30 176 C 15.264 1.80209 -5.63275 0
M  V30 177 H 14.194 0.374412 -0.65447 0
M  V30 178 H 16.845 0.248138 -1.81815 0
M  V30 179 H 15.227 2.60115 -2.98591 0
M  V30 180 H 16.401 0.242455 -4.60162 0
M  V30 181 H 14.716 0.37691 -4.14691 0
M  V30 182 H 17.313 3.15292 -4.3185 0
M  V30 183 H 17.656 3.24447 -2.60845 0
M  V30 184 H 18.189 1.82156 -3.53644 0
M  V30 185 H 14.928 1.13896 -6.45529 0
M  V30 186 H 14.448 2.52022 -5.44284 0
M  V30 187 H 16.127 2.37364 -6.01887 0
M  V30 188 N 16.2591 1.48442 0.529413 0
M  V30 189 C 17.1891 1.65902 1.64313 0
M  V30 190 C 18.1701 0.507897 1.6234 0
M  V30 191 O 19.3551 0.740503 1.79528 0
M  V30 192 C 16.4851 1.69911 3.02898 0
M  V30 193 C 15.4391 2.8453 3.19729 0
M  V30 194 C 14.7651 2.73629 4.59381 0
M  V30 195 C 16.0651 4.25821 3.02447 0
M  V30 196 H 17.7591 2.5914 1.49955 0
M  V30 197 H 15.3051 1.24709 0.719982 0
M  V30 198 H 17.2581 1.80715 3.80684 0
M  V30 199 H 15.9821 0.732524 3.18279 0
M  V30 200 H 14.6411 2.73283 2.44361 0
M  V30 201 H 14.2891 1.74938 4.71599 0
M  V30 202 H 13.9891 3.50541 4.71588 0
M  V30 203 H 15.5131 2.86401 5.39265 0
M  V30 204 H 16.9271 4.37898 3.70024 0
M  V30 205 H 15.3241 5.03735 3.26146 0
M  V30 206 H 16.3941 4.42244 1.98867 0
M  V30 207 N 17.7372 -0.778329 1.37039 0
M  V30 208 C 18.9852 -1.53361 1.31623 0
M  V30 209 C 19.3062 -1.94739 -0.100831 0
M  V30 210 O 18.5762 -1.65797 -1.04347 0
M  V30 211 H 17.1562 -0.568794 0.484234 0
M  V30 212 H 19.8182 -0.926742 1.71457 0
M  V30 213 H 18.9142 -2.43606 1.95096 0
M  V30 214 N 19.2153 -1.21501 -1.00376 0
M  V30 215 C 20.4453 -1.05746 -1.77486 0
M  V30 216 C 20.8533 0.395655 -1.85017 0
M  V30 217 O 20.1963 1.28626 -1.31152 0
M  V30 218 C 20.2583 -1.58092 -3.22873 0
M  V30 219 C 19.9223 -3.06568 -3.38917 0
M  V30 220 C 20.9193 -4.04106 -3.271 0
M  V30 221 C 18.6043 -3.45799 -3.64319 0
M  V30 222 C 20.5983 -5.38862 -3.40451 0
M  V30 223 C 18.2853 -4.80707 -3.77311 0
M  V30 224 C 19.2833 -5.77047 -3.65384 0
M  V30 225 O 18.9713 -7.09507 -3.77961 0
M  V30 226 H 18.7033 -0.371778 -0.564586 0
M  V30 227 H 21.2573 -1.61319 -1.27143 0
M  V30 228 H 19.4873 -0.969163 -3.74358 0
M  V30 229 H 21.1763 -1.38162 -3.81662 0
M  V30 230 H 21.9423 -3.75141 -3.07399 0
M  V30 231 H 17.8213 -2.71344 -3.72684 0
M  V30 232 H 21.3653 -6.14041 -3.31058 0
M  V30 233 H 17.2623 -5.09357 -3.96517 0
M  V30 234 H 18.0303 -7.16935 -3.94901 0
M  V30 235 N 20.6934 1.19889 -1.02296 0
M  V30 236 C 22.1094 1.41462 -0.738954 0
M  V30 237 C 22.3094 1.89721 0.678846 0
M  V30 238 O 21.3654 2.07016 1.4457 0
M  V30 239 C 22.6784 2.43083 -1.77005 0
M  V30 240 C 24.2264 2.5684 -1.78892 0
M  V30 241 C 24.7014 3.61709 -2.80945 0
M  V30 242 N 26.1924 3.69199 -2.79725 0
M  V30 243 C 26.9274 4.50019 -3.55345 0
M  V30 244 N 26.4234 5.34592 -4.40662 0
M  V30 245 N 28.2164 4.44612 -3.43914 0
M  V30 246 H 20.3674 0.868827 -1.93817 0
M  V30 247 H 22.6304 0.44399 -0.837602 0
M  V30 248 H 22.3364 2.14636 -2.78612 0
M  V30 249 H 22.2104 3.4217 -1.58744 0
M  V30 250 H 24.5974 2.84614 -0.779674 0
M  V30 251 H 24.6784 1.57927 -2.01228 0
M  V30 252 H 24.3224 3.34678 -3.82038 0
M  V30 253 H 24.2524 4.60259 -2.5587 0
M  V30 254 H 26.7434 3.08794 -2.17842 0
M  V30 255 H 27.0564 5.93363 -4.95116 0
M  V30 256 H 25.4014 5.34073 -4.44737 0
M  V30 257 H 28.5924 3.7758 -2.76679 0
M  V30 258 H 28.7654 5.0736 -4.031 0
M  V30 259 N 22.1715 0.800033 1.35784 0
M  V30 260 C 23.3965 0.388511 2.03729 0
M  V30 261 C 23.8215 -0.990481 1.5991 0
M  V30 262 O 23.1795 -1.64013 0.772612 0
M  V30 263 C 23.2275 0.4726 3.5749 0
M  V30 264 O 22.3315 -0.51646 4.09153 0
M  V30 265 H 21.6725 0.163271 0.643614 0
M  V30 266 H 24.2025 1.0841 1.73518 0
M  V30 267 H 24.2125 0.34003 4.06581 0
M  V30 268 H 22.8875 1.47848 3.88734 0
M  V30 269 H 21.4645 -0.344673 3.71304 0
M  V30 270 N 23.6496 -1.47581 0.552962 0
M  V30 271 C 24.8956 -2.02782 0.0273648 0
M  V30 272 C 25.2286 -1.42687 -1.31734 0
M  V30 273 O 24.5036 -0.580897 -1.85623 0
M  V30 274 C 24.7866 -3.60031 -0.0702371 0
M  V30 275 C 24.6396 -4.30566 1.30126 0
M  V30 276 C 25.9586 -4.33028 -0.785771 0
M  V30 277 H 23.0776 -0.736912 0.0114185 0
M  V30 278 H 25.7196 -1.76056 0.714432 0
M  V30 279 H 23.8696 -3.82932 -0.655382 0
M  V30 280 H 25.5416 -4.19018 1.92929 0
M  V30 281 H 23.7846 -3.91086 1.87709 0
M  V30 282 H 24.4556 -5.39114 1.18573 0
M  V30 283 H 26.9316 -4.15095 -0.288982 0
M  V30 284 H 25.8076 -5.42695 -0.823013 0
M  V30 285 H 26.0686 -4.01945 -1.841 0
M  V30 286 N 25.1277 -0.289203 -1.54924 0
M  V30 287 C 26.3757 0.322879 -1.99504 0
M  V30 288 C 26.6967 1.55313 -1.1791 0
M  V30 289 O 25.9667 1.94001 -0.272097 0
M  V30 290 H 24.5467 0.122291 -0.736922 0
M  V30 291 H 27.2087 -0.397802 -1.90797 0
M  V30 292 H 26.3047 0.603061 -3.06218 0
M  V30 293 N 26.6058 1.57591 -0.0167156 0
M  V30 294 C 27.5528 2.09462 0.969251 0
M  V30 295 C 28.5228 0.99381 1.33089 0
M  V30 296 O 29.7078 1.26726 1.42636 0
M  V30 297 C 26.8478 2.61622 2.25051 0
M  V30 298 C 25.9608 3.85666 1.94642 0
M  V30 299 C 25.0958 4.26266 3.16972 0
M  V30 300 C 24.1348 5.43101 2.82326 0
M  V30 301 N 23.2718 5.78915 3.97243 0
M  V30 302 H 28.1118 2.93428 0.519997 0
M  V30 303 H 25.6488 1.45044 0.245087 0
M  V30 304 H 27.6068 2.89949 2.99976 0
M  V30 305 H 26.2368 1.80505 2.67615 0
M  V30 306 H 25.2888 3.64145 1.10013 0
M  V30 307 H 26.6008 4.70678 1.65117 0
M  V30 308 H 25.7548 4.55963 4.00228 0
M  V30 309 H 24.4938 3.39996 3.49648 0
M  V30 310 H 23.4988 5.1311 1.97479 0
M  V30 311 H 24.7238 6.3106 2.50879 0
M  V30 312 H 22.6698 4.95602 4.29785 0
M  V30 313 H 22.5868 6.58539 3.71299 0
M  V30 314 H 23.8548 6.13212 4.81239 0
M  V30 315 N 28.0839 -0.256276 1.55502 0
M  V30 316 C 29.3089 -1.00766 1.81276 0
M  V30 317 C 29.7339 -1.78524 0.59252 0
M  V30 318 O 29.0919 -1.75413 -0.45827 0
M  V30 319 C 29.1399 -1.92869 3.04687 0
M  V30 320 O 28.2439 -3.019 2.80945 0
M  V30 321 H 27.5849 -0.287224 0.598664 0
M  V30 322 H 30.1149 -0.280109 2.02674 0
M  V30 323 H 30.1249 -2.34511 3.33869 0
M  V30 324 H 28.7999 -1.35689 3.93143 0
M  V30 325 H 27.3769 -2.64454 2.62904 0
M  V30 326 N 29.562 -1.4872 -0.521534 0
M  V30 327 C 30.787 -1.61101 -1.30618 0
M  V30 328 C 31.212 -0.274611 -1.86085 0
M  V30 329 O 30.57 0.754937 -1.64834 0
M  V30 330 C 30.618 -2.66709 -2.4269 0
M  V30 331 O 29.722 -2.24456 -3.45967 0
M  V30 332 H 29.063 -0.539921 -0.386499 0
M  V30 333 H 31.593 -1.94767 -0.626645 0
M  V30 334 H 31.603 -2.88245 -2.88754 0
M  V30 335 H 30.278 -3.63727 -2.01682 0
M  V30 336 H 28.855 -2.13168 -3.05964 0
M  V30 337 N 31.0401 0.771051 -1.3745 0
M  V30 338 C 31.9701 1.89827 -1.3597 0
M  V30 339 C 32.9511 1.68562 -0.228216 0
M  V30 340 O 34.1361 1.8941 -0.428675 0
M  V30 341 C 31.2661 3.2712 -1.16662 0
M  V30 342 C 30.2201 3.6295 -2.2683 0
M  V30 343 C 29.5461 4.98791 -1.92644 0
M  V30 344 C 30.8461 3.69627 -3.69017 0
M  V30 345 H 32.5401 1.91323 -2.30295 0
M  V30 346 H 30.0861 0.919082 -1.10855 0
M  V30 347 H 32.0391 4.05615 -1.14256 0
M  V30 348 H 30.7631 3.26059 -0.187926 0
M  V30 349 H 29.4221 2.86763 -2.28392 0
M  V30 350 H 29.0701 4.94271 -0.933021 0
M  V30 351 H 28.7701 5.23733 -2.66416 0
M  V30 352 H 30.2941 5.79685 -1.91826 0
M  V30 353 H 31.7081 4.38273 -3.69581 0
M  V30 354 H 30.1051 4.06067 -4.41848 0
M  V30 355 H 31.1751 2.70273 -4.02592 0
M  V30 356 N 32.5182 1.22032 0.997298 0
M  V30 357 C 33.7462 1.06841 1.7718 0
M  V30 358 C 34.1612 -0.381325 1.84909 0
M  V30 359 O 33.5182 -1.26437 1.31605 0
M  V30 360 C 33.5692 1.66814 3.20711 0
M  V30 361 O 33.2902 3.06116 3.13408 0
M  V30 362 C 34.7912 1.56838 4.14628 0
M  V30 363 H 32.0112 0.374782 0.556578 0
M  V30 364 H 34.5552 1.61532 1.2541 0
M  V30 365 H 32.7102 1.16196 3.69564 0
M  V30 366 H 33.1242 3.34926 4.0364 0
M  V30 367 H 34.5982 2.03532 5.13107 0
M  V30 368 H 35.0752 0.524155 4.36061 0
M  V30 369 H 35.6812 2.06741 3.7167 0
M  V30 370 N 33.9963 -1.19345 1.0293 0
M  V30 371 C 35.2453 -1.88363 0.721256 0
M  V30 372 C 35.5583 -1.80514 -0.753254 0
M  V30 373 O 36.7643 -2.44788 -1.17436 0
M  V30 374 C 35.2203 -3.37872 1.23978 0
M  V30 375 C 34.8283 -3.54278 2.74211 0
M  V30 376 C 36.5723 -4.12365 1.00775 0
M  V30 377 C 34.4793 -4.97682 3.19479 0
M  V30 378 H 33.4093 -0.705484 0.266098 0
M  V30 379 H 36.0603 -1.34928 1.24365 0
M  V30 380 H 34.4423 -3.90707 0.6453 0
M  V30 381 H 35.6163 -3.11769 3.39318 0
M  V30 382 H 33.9313 -2.93174 2.95699 0
M  V30 383 H 36.5283 -5.18119 1.32123 0
M  V30 384 H 36.8713 -4.16263 -0.0554308 0
M  V30 385 H 37.4043 -3.65668 1.56625 0
M  V30 386 H 34.1433 -4.98945 4.25128 0
M  V30 387 H 33.6633 -5.4095 2.591 0
M  V30 388 H 35.3423 -5.66337 3.12845 0
M  V30 389 N 35.4744 -0.807222 -1.35358 0
M  V30 390 C 36.4064 -0.175717 -2.28525 0
M  V30 391 C 37.4194 0.625354 -1.5031 0
M  V30 392 O 38.6084 0.457611 -1.72535 0
M  V30 393 C 35.7084 0.773471 -3.29956 0
M  V30 394 C 34.8814 0.0186296 -4.37396 0
M  V30 395 C 33.9404 0.886395 -5.18681 0
M  V30 396 O 32.9664 0.337106 -5.68201 0
M  V30 397 N 34.1684 2.20839 -5.36852 0
M  V30 398 H 36.9334 -0.976091 -2.83359 0
M  V30 399 H 34.4944 -0.662737 -1.47714 0
M  V30 400 H 36.4864 1.35824 -3.81227 0
M  V30 401 H 35.0564 1.47465 -2.75632 0
M  V30 402 H 34.2764 -0.747349 -3.87051 0
M  V30 403 H 35.5644 -0.501577 -5.06322 0
M  V30 404 H 34.9624 2.67858 -4.98265 0
M  V30 405 H 33.5194 2.74237 -5.91301 0
M  V30 406 N 36.9525 1.47285 -0.560781 0
M  V30 407 C 38.1995 2.02464 -0.038062 0
M  V30 408 C 38.5275 1.43474 1.31322 0
M  V30 409 O 37.7825 0.581311 1.86867 0
M  V30 410 C 38.0815 3.57258 0.100784 0
M  V30 411 C 37.7475 4.35184 -1.18007 0
M  V30 412 C 36.4095 4.56194 -1.53103 0
M  V30 413 C 38.7615 4.80098 -2.02867 0
M  V30 414 C 36.0895 5.19367 -2.729 0
M  V30 415 C 38.4415 5.44593 -3.21871 0
M  V30 416 C 37.1055 5.63835 -3.57276 0
M  V30 417 H 36.3755 0.740869 -0.0139279 0
M  V30 418 H 39.0225 1.76916 -0.733012 0
M  V30 419 H 37.3275 3.81819 0.878724 0
M  V30 420 H 39.0245 3.97606 0.520639 0
M  V30 421 H 35.6145 4.19113 -0.8968 0
M  V30 422 H 39.7985 4.63642 -1.7706 0
M  V30 423 H 35.0545 5.32459 -3.00496 0
M  V30 424 H 39.2285 5.78358 -3.87911 0
M  V30 425 H 36.8555 6.12557 -4.50197 0
M  V30 426 N 38.4306 0.297415 1.54768 0
M  V30 427 C 39.6766 -0.313376 2.00364 0
M  V30 428 C 40.0096 -1.53815 1.18553 0
M  V30 429 O 39.2846 -1.92739 0.261103 0
M  V30 430 C 39.5676 -0.673525 3.53745 0
M  V30 431 C 39.4206 0.560133 4.46299 0
M  V30 432 C 40.7396 -1.50143 4.13697 0
M  V30 433 H 37.8586 -0.112428 0.728374 0
M  V30 434 H 40.5006 0.4088 1.8555 0
M  V30 435 H 38.6506 -1.28881 3.665 0
M  V30 436 H 40.3226 1.19863 4.45455 0
M  V30 437 H 38.5656 1.19405 4.17043 0
M  V30 438 H 39.2366 0.26405 5.51368 0
M  V30 439 H 41.7126 -0.981588 4.04356 0
M  V30 440 H 40.5886 -1.72221 5.21182 0
M  V30 441 H 40.8496 -2.48952 3.65343 0
M  V30 442 N 39.9087 -1.5758 0.0250728 0
M  V30 443 C 40.8187 -2.1343 -0.973905 0
M  V30 444 C 41.8347 -1.08556 -1.35984 0
M  V30 445 O 43.0107 -1.40592 -1.44207 0
M  V30 446 C 40.0757 -2.64703 -2.23904 0
M  V30 447 C 39.1367 -3.84276 -1.91391 0
M  V30 448 C 38.3697 -4.33095 -3.11873 0
M  V30 449 O 38.5927 -3.81107 -4.24398 0
M  V30 450 O 37.5267 -5.24984 -2.94406 0
M  V30 451 H 41.3527 -2.99057 -0.529036 0
M  V30 452 H 38.9377 -1.48118 -0.195288 0
M  V30 453 H 40.8197 -2.97769 -2.98181 0
M  V30 454 H 39.4947 -1.82161 -2.6758 0
M  V30 455 H 38.4017 -3.56143 -1.14511 0
M  V30 456 H 39.7347 -4.67968 -1.52534 0
M  V30 457 N 41.3868 0.248026 -1.55636 0
M  V30 458 C 42.6348 0.974295 -1.77065 0
M  V30 459 C 42.9558 1.85897 -0.588849 0
M  V30 460 O 42.2258 1.91868 0.395407 0
M  V30 461 H 40.8058 0.362733 -0.653019 0
M  V30 462 H 43.4678 0.266244 -1.93073 0
M  V30 463 H 42.5638 1.59667 -2.68166 0
M  V30 464 N 42.8649 1.48995 0.513639 0
M  V30 465 C 43.7969 1.60836 1.63293 0
M  V30 466 C 44.8099 0.491701 1.55197 0
M  V30 467 O 45.9989 0.763238 1.6136 0
M  V30 468 C 43.0989 1.53731 3.02027 0
M  V30 469 C 42.2719 2.80715 3.35437 0
M  V30 470 C 41.3309 2.66837 4.53525 0
M  V30 471 O 40.3569 3.40753 4.55934 0
M  V30 472 N 41.5589 1.77539 5.52684 0
M  V30 473 H 44.3239 2.57366 1.53566 0
M  V30 474 H 41.8849 1.45925 0.701259 0
M  V30 475 H 43.8769 1.42118 3.78926 0
M  V30 476 H 42.4469 0.651092 3.05744 0
M  V30 477 H 41.6669 3.06772 2.47557 0
M  V30 478 H 42.9549 3.64927 3.54551 0
M  V30 479 H 42.3529 1.16719 5.53528 0
M  V30 480 H 40.9099 1.71856 6.28736 0
M  V30 481 N 44.343 -0.763751 1.37857 0
M  V30 482 C 45.59 -1.52257 1.33506 0
M  V30 483 C 45.918 -1.94343 -0.078022 0
M  V30 484 O 45.173 -1.64958 -1.05297 0
M  V30 485 C 45.472 -2.79499 2.22745 0
M  V30 486 C 45.138 -2.56426 3.70886 0
M  V30 487 C 43.8 -2.49842 4.11257 0
M  V30 488 C 46.152 -2.36008 4.64704 0
M  V30 489 C 43.48 -2.20841 5.43549 0
M  V30 490 C 45.832 -2.0853 5.97242 0
M  V30 491 C 44.496 -2.00396 6.36709 0
M  V30 492 H 43.766 -0.557149 0.488534 0
M  V30 493 H 46.413 -0.879073 1.70131 0
M  V30 494 H 44.718 -3.48447 1.79142 0
M  V30 495 H 46.415 -3.37413 2.16688 0
M  V30 496 H 43.005 -2.62416 3.38874 0
M  V30 497 H 47.189 -2.40079 4.34368 0
M  V30 498 H 42.445 -2.13045 5.73081 0
M  V30 499 H 46.619 -1.91732 6.69486 0
M  V30 500 H 44.246 -1.77688 7.39142 0
M  V30 501 N 45.8211 -1.22559 -0.990812 0
M  V30 502 C 47.0671 -1.05297 -1.73322 0
M  V30 503 C 47.4001 0.410655 -1.89808 0
M  V30 504 O 46.6751 1.30439 -1.44277 0
M  V30 505 C 46.9581 -1.76713 -3.13759 0
M  V30 506 C 46.8111 -3.30684 -3.04907 0
M  V30 507 C 48.1301 -1.52121 -4.12974 0
M  V30 508 H 45.2491 -0.38392 -0.629106 0
M  V30 509 H 47.8911 -1.50926 -1.15418 0
M  V30 510 H 46.0411 -1.37924 -3.63193 0
M  V30 511 H 47.7131 -3.7893 -2.63077 0
M  V30 512 H 45.9561 -3.60253 -2.41661 0
M  V30 513 H 46.6271 -3.75833 -4.04294 0
M  V30 514 H 49.1031 -1.85819 -3.72304 0
M  V30 515 H 47.9791 -2.04582 -5.0935 0
M  V30 516 H 48.2401 -0.454257 -4.3976 0
M  V30 517 N 47.2992 1.18797 -1.03562 0
M  V30 518 C 48.5762 1.84469 -0.650434 0
M  V30 519 C 48.9562 1.92319 0.870433 0
M  V30 520 O 48.3042 1.44528 1.76986 0
M  V30 521 C 48.5142 3.2306 -1.32036 0
M  V30 522 C 49.8622 3.9915 -1.44792 0
M  V30 523 O 50.8862 3.32481 -1.27806 0
M  V30 524 O 49.7452 5.18587 -1.72423 0
M  V30 525 H 46.8392 0.795251 -0.226946 0
M  V30 526 H 49.3852 1.26231 -1.13419 0
M  V30 527 H 48.1572 3.1222 -2.3587 0
M  V30 528 H 47.7802 3.88949 -0.8249 0
M  V30 529 N 48.7773 0.814389 1.34928 0
M  V30 530 C 50.0023 0.410097 2.03305 0
M  V30 531 C 50.4273 -0.973464 1.60951 0
M  V30 532 O 49.7853 -1.63185 0.789964 0
M  V30 533 C 49.8333 0.51049 3.56968 0
M  V30 534 O 48.9373 -0.473035 4.09678 0
M  V30 535 H 48.2783 0.170088 0.641846 0
M  V30 536 H 50.8083 1.10244 1.72358 0
M  V30 537 H 50.8183 0.383135 4.06197 0
M  V30 538 H 49.4933 1.51963 3.87144 0
M  V30 539 H 48.0703 -0.305272 3.71648 0
M  V30 540 N 50.2554 -1.46986 0.568584 0
M  V30 541 C 51.4854 -2.0653 0.0539173 0
M  V30 542 C 51.8934 -1.42004 -1.25026 0
M  V30 543 O 51.2364 -0.514541 -1.76347 0
M  V30 544 C 51.2984 -3.58938 -0.200854 0
M  V30 545 C 50.9624 -4.45572 1.01559 0
M  V30 546 C 51.9594 -4.82986 1.92407 0
M  V30 547 C 49.6444 -4.8692 1.23346 0
M  V30 548 C 51.6384 -5.60559 3.03402 0
M  V30 549 C 49.3254 -5.64255 2.34649 0
M  V30 550 C 50.3234 -6.00986 3.24507 0
M  V30 551 O 50.0114 -6.76761 4.33878 0
M  V30 552 H 49.7434 -0.674292 0.0480234 0
M  V30 553 H 52.2974 -1.89812 0.784896 0
M  V30 554 H 50.5274 -3.73911 -0.986279 0
M  V30 555 H 52.2164 -4.0046 -0.662294 0
M  V30 556 H 52.9824 -4.51633 1.76785 0
M  V30 557 H 48.8614 -4.57789 0.543178 0
M  V30 558 H 52.4054 -5.89147 3.73565 0
M  V30 559 H 48.3024 -5.95021 2.5024 0
M  V30 560 H 49.0704 -6.95168 4.32068 0
M  V30 561 N 51.7335 -0.305618 -1.54608 0
M  V30 562 C 53.0105 0.355652 -1.92339 0
M  V30 563 C 53.3905 1.71324 -1.23335 0
M  V30 564 O 52.7385 2.25473 -0.370702 0
M  V30 565 C 52.9485 0.46572 -3.45879 0
M  V30 566 C 54.2965 0.734426 -4.182 0
M  V30 567 O 55.3205 0.54935 -3.51938 0
M  V30 568 O 54.1795 1.09024 -5.35515 0
M  V30 569 H 51.2735 0.199666 -0.802535 0
M  V30 570 H 53.8195 -0.354017 -1.65966 0
M  V30 571 H 52.5915 -0.488461 -3.88239 0
M  V30 572 H 52.2145 1.22367 -3.78301 0
M  V30 573 N 53.2116 1.57565 -0.0334293 0
M  V30 574 C 54.6226 1.79746 0.504798 0
M  V30 575 C 54.9736 0.944091 1.71992 0
M  V30 576 O 54.0986 0.155694 2.15839 0
M  V30 577 C 54.6936 3.25997 0.922567 0
M  V30 578 C 53.2526 3.49159 1.40588 0
M  V30 579 C 52.3996 2.74785 0.372633 0
M  V30 580 H 55.3506 1.56565 -0.259436 0
M  V30 581 H 55.3716 3.35945 1.78666 0
M  V30 582 H 54.8836 3.88081 0.0379825 0
M  V30 583 H 52.9846 2.92332 2.31025 0
M  V30 584 H 53.0976 4.57873 1.41028 0
M  V30 585 H 51.4616 2.40391 0.841672 0
M  V30 586 H 52.2446 3.39587 -0.503559 0
M  V30 587 N 54.6897 -0.239769 1.55765 0
M  V30 588 C 55.9177 -0.98417 1.81994 0
M  V30 589 C 56.3327 -1.7867 0.610124 0
M  V30 590 O 55.6897 -1.77571 -0.421271 0
M  V30 591 C 55.7407 -1.91635 3.06526 0
M  V30 592 O 55.4617 -1.14629 4.22838 0
M  V30 593 C 56.9627 -2.77616 3.45607 0
M  V30 594 H 54.1827 -0.28928 0.605441 0
M  V30 595 H 56.7267 -0.260499 2.02834 0
M  V30 596 H 54.8817 -2.5942 2.87715 0
M  V30 597 H 55.2957 -1.77745 4.93464 0
M  V30 598 H 56.7697 -3.38759 4.35828 0
M  V30 599 H 57.2467 -3.4909 2.6652 0
M  V30 600 H 57.8527 -2.15271 3.66795 0
M  V30 601 N 56.1678 -1.49265 -0.50573 0
M  V30 602 C 57.4168 -1.57761 -1.25675 0
M  V30 603 C 57.7298 -0.267371 -1.93764 0
M  V30 604 O 58.9358 -0.230827 -2.70517 0
M  V30 605 C 57.3918 -2.78332 -2.28165 0
M  V30 606 C 56.9998 -4.16096 -1.66037 0
M  V30 607 C 58.7438 -2.96155 -3.04125 0
M  V30 608 C 56.6508 -5.27895 -2.6661 0
M  V30 609 H 55.5808 -0.587391 -0.472745 0
M  V30 610 H 58.2318 -1.75644 -0.53118 0
M  V30 611 H 56.6138 -2.53934 -3.03865 0
M  V30 612 H 57.7878 -4.50612 -0.963622 0
M  V30 613 H 56.1028 -4.03591 -1.02484 0
M  V30 614 H 58.6998 -3.76849 -3.79327 0
M  V30 615 H 59.0428 -2.06534 -3.61455 0
M  V30 616 H 59.5758 -3.2057 -2.35541 0
M  V30 617 H 56.3148 -6.1956 -2.14068 0
M  V30 618 H 55.8348 -4.97839 -3.34539 0
M  V30 619 H 57.5138 -5.57031 -3.29129 0
M  V30 620 N 57.6459 0.756429 -1.3826 0
M  V30 621 C 58.5559 1.9009 -1.37488 0
M  V30 622 C 59.5719 1.71855 -0.272366 0
M  V30 623 O 60.7479 1.94827 -0.510318 0
M  V30 624 C 57.8129 3.25421 -1.19592 0
M  V30 625 C 56.8739 3.56202 -2.39622 0
M  V30 626 C 56.1069 4.85075 -2.2257 0
M  V30 627 O 56.3299 5.57246 -1.21793 0
M  V30 628 O 55.2639 5.15269 -3.11098 0
M  V30 629 H 59.0899 1.93695 -2.33914 0
M  V30 630 H 56.6749 0.901313 -1.1915 0
M  V30 631 H 58.5569 4.06337 -1.11661 0
M  V30 632 H 57.2319 3.22634 -0.262486 0
M  V30 633 H 56.1389 2.75458 -2.53128 0
M  V30 634 H 57.4719 3.63747 -3.31586 0
M  V30 635 N 59.124 1.23083 0.984299 0
M  V30 636 C 60.072 1.00593 2.09723 0
M  V30 637 C 61.066 -0.0538014 1.69315 0
M  V30 638 O 62.272 0.0993719 1.79725 0
M  V30 639 H 58.647 0.30817 0.685956 0
M  V30 640 H 60.618 1.95012 2.2586 0
M  V30 641 C 59.367 0.609601 3.42314 0
M  V30 642 H 58.69 1.41675 3.73856 0
M  V30 643 H 60.13 0.491726 4.21139 0
M  V30 644 C 58.589 -0.681745 3.2993 0
M  V30 645 O 59.119 -1.73192 3.62446 0
M  V30 646 N 57.325 -0.656178 2.83095 0
M  V30 647 H 56.872 0.198759 2.56832 0
M  V30 648 H 56.83 -1.52044 2.75191 0
M  V30 649 N 60.6021 -1.18246 1.0419 0
M  V30 650 C 61.8301 -1.92195 0.766072 0
M  V30 651 C 62.2451 -1.76247 -0.676933 0
M  V30 652 O 61.6021 -1.09293 -1.46155 0
M  V30 653 C 61.6531 -3.43568 1.12442 0
M  V30 654 O 61.3741 -3.59015 2.51078 0
M  V30 655 C 62.8751 -4.34613 0.873275 0
M  V30 656 H 60.0951 -0.610114 0.279288 0
M  V30 657 H 62.6391 -1.50007 1.38989 0
M  V30 658 H 60.7941 -3.8354 0.545542 0
M  V30 659 H 61.2081 -4.5273 2.64831 0
M  V30 660 H 62.6821 -5.39374 1.17385 0
M  V30 661 H 63.1591 -4.38781 -0.191909 0
M  V30 662 H 63.7651 -4.00341 1.43551 0
M  V30 663 N 62.0802 -0.821533 -1.34494 0
M  V30 664 C 63.3272 -0.408946 -1.98328 0
M  V30 665 C 63.6552 1.02764 -1.65136 0
M  V30 666 O 62.9102 1.73026 -0.914349 0
M  V30 667 C 63.2092 -0.556512 -3.53041 0
M  V30 668 C 62.8752 -1.95861 -4.0614 0
M  V30 669 C 61.5372 -2.34217 -4.20352 0
M  V30 670 C 63.8892 -2.87523 -4.34718 0
M  V30 671 C 61.2172 -3.63572 -4.6047 0
M  V30 672 C 63.5692 -4.1634 -4.76281 0
M  V30 673 C 62.2332 -4.54675 -4.88699 0
M  V30 674 H 61.5032 -0.149644 -0.725732 0
M  V30 675 H 64.1502 -1.04521 -1.6046 0
M  V30 676 H 62.4552 0.163148 -3.9146 0
M  V30 677 H 64.1522 -0.217826 -4.00408 0
M  V30 678 H 60.7422 -1.65066 -3.95539 0
M  V30 679 H 64.9262 -2.59133 -4.23277 0
M  V30 680 H 60.1822 -3.93101 -4.68275 0
M  V30 681 H 64.3562 -4.87455 -4.97354 0
M  V30 682 H 61.9832 -5.54959 -5.19542 0
M  V30 683 N 63.5583 1.46682 -0.576371 0
M  V30 684 C 64.7863 2.06798 -0.0649635 0
M  V30 685 C 65.2013 1.42612 1.23723 0
M  V30 686 O 64.5583 0.529203 1.74659 0
M  V30 687 C 64.6093 3.6132 0.114202 0
M  V30 688 O 64.3303 4.23104 -1.13644 0
M  V30 689 C 65.8313 4.38349 0.66069 0
M  V30 690 H 63.0513 0.668778 -0.0545616 0
M  V30 691 H 65.5953 1.88404 -0.795237 0
M  V30 692 H 63.7503 3.79162 0.794673 0
M  V30 693 H 64.1643 5.15894 -0.946253 0
M  V30 694 H 65.6383 5.47081 0.73526 0
M  V30 695 H 66.1153 4.05953 1.67627 0
M  V30 696 H 66.7213 4.25297 0.0152951 0
M  V30 697 N 65.0364 0.313813 1.54444 0
M  V30 698 C 65.9834 -0.55655 2.23989 0
M  V30 699 C 66.9534 -1.11943 1.22711 0
M  V30 700 O 68.1384 -1.16158 1.51367 0
M  V30 701 C 65.2784 -1.71635 2.99392 0
M  V30 702 C 64.3914 -1.18364 4.15468 0
M  V30 703 C 63.5264 -2.30834 4.78424 0
M  V30 704 C 62.5654 -1.74762 5.86622 0
M  V30 705 N 61.7024 -2.80855 6.43479 0
M  V30 706 H 66.5424 0.0430893 2.97969 0
M  V30 707 H 64.0794 0.0330359 1.47063 0
M  V30 708 H 66.0374 -2.39868 3.41349 0
M  V30 709 H 64.6674 -2.28742 2.27765 0
M  V30 710 H 63.7194 -0.393163 3.78363 0
M  V30 711 H 65.0314 -0.733262 4.93381 0
M  V30 712 H 64.1854 -3.0699 5.23299 0
M  V30 713 H 62.9244 -2.79204 3.99871 0
M  V30 714 H 61.9294 -0.970995 5.41158 0
M  V30 715 H 63.1544 -1.2728 6.67066 0
M  V30 716 H 61.1004 -3.28535 5.67804 0
M  V30 717 H 61.0174 -2.40351 7.16776 0
M  V30 718 H 62.2854 -3.5687 6.93011 0
M  V30 719 N 66.5145 -1.57545 0.0417849 0
M  V30 720 C 67.4445 -2.14009 -0.933929 0
M  V30 721 C 68.4255 -1.05938 -1.33083 0
M  V30 722 O 69.6105 -1.33833 -1.40721 0
M  V30 723 C 66.7405 -2.67747 -2.21199 0
M  V30 724 C 65.6945 -3.80718 -1.95544 0
M  V30 725 C 65.0205 -4.20935 -3.29724 0
M  V30 726 C 66.3205 -5.06258 -1.28452 0
M  V30 727 H 68.0145 -2.95788 -0.463645 0
M  V30 728 H 65.5605 -1.42285 -0.221573 0
M  V30 729 H 67.5135 -3.05886 -2.89848 0
M  V30 730 H 66.2375 -1.83147 -2.70416 0
M  V30 731 H 64.8965 -3.43037 -1.2931 0
M  V30 732 H 64.5445 -3.33298 -3.76724 0
M  V30 733 H 64.2445 -4.9707 -3.13361 0
M  V30 734 H 65.7685 -4.61666 -3.9962 0
M  V30 735 H 67.1825 -5.41903 -1.8712 0
M  V30 736 H 65.5795 -5.87475 -1.22445 0
M  V30 737 H 66.6495 -4.84207 -0.259219 0
M  V30 738 N 67.9926 0.231505 -1.5589 0
M  V30 739 C 69.2416 0.955346 -1.7764 0
M  V30 740 C 69.5546 1.85893 -0.608546 0
M  V30 741 O 70.7606 2.62067 -0.70943 0
M  V30 742 C 69.2166 1.74886 -3.14552 0
M  V30 743 C 68.8246 0.891915 -4.39032 0
M  V30 744 C 70.5686 2.46452 -3.45633 0
M  V30 745 C 68.4756 1.68221 -5.66971 0
M  V30 746 H 67.4056 0.360446 -0.662265 0
M  V30 747 H 70.0566 0.209516 -1.823 0
M  V30 748 H 68.4386 2.53723 -3.04041 0
M  V30 749 H 69.6126 0.144793 -4.60572 0
M  V30 750 H 67.9276 0.288863 -4.15397 0
M  V30 751 H 70.5246 3.06061 -4.38441 0
M  V30 752 H 70.8676 3.18841 -2.67668 0
M  V30 753 H 71.4006 1.74613 -3.57428 0
M  V30 754 H 68.1396 1.00178 -6.478 0
M  V30 755 H 67.6596 2.4042 -5.49507 0
M  V30 756 H 69.3386 2.24544 -6.06786 0
M  V30 757 N 69.4707 1.49531 0.497807 0
M  V30 758 C 70.6987 1.62893 1.27567 0
M  V30 759 C 71.1137 0.301585 1.86376 0
M  V30 760 O 70.4707 -0.713335 1.67982 0
M  V30 761 C 70.5217 2.70013 2.40364 0
M  V30 762 O 70.2427 3.976 1.83972 0
M  V30 763 C 71.7437 2.94109 3.31685 0
M  V30 764 H 68.9637 0.548298 0.386794 0
M  V30 765 H 71.5077 1.95584 0.597245 0
M  V30 766 H 69.6627 2.40092 3.04031 0
M  V30 767 H 70.0767 4.56631 2.58047 0
M  V30 768 H 71.5507 3.72788 4.07104 0
M  V30 769 H 72.0277 2.04147 3.88871 0
M  V30 770 H 72.6337 3.2546 2.73781 0
M  V30 771 N 70.9488 -0.749086 1.3866 0
M  V30 772 C 72.1948 -1.51056 1.35314 0
M  V30 773 C 72.5278 -1.94121 -0.0553751 0
M  V30 774 O 71.8028 -1.65763 -1.01749 0
M  V30 775 C 72.0858 -2.76003 2.31288 0
M  V30 776 C 71.9388 -2.39047 3.8102 0
M  V30 777 C 73.2578 -3.78046 2.2532 0
M  V30 778 H 70.3768 -0.547972 0.492844 0
M  V30 779 H 73.0188 -0.857628 1.69543 0
M  V30 780 H 71.1688 -3.31716 2.02229 0
M  V30 781 H 72.8408 -1.89074 4.20771 0
M  V30 782 H 71.0838 -1.71449 3.98482 0
M  V30 783 H 71.7548 -3.28462 4.4364 0
M  V30 784 H 74.2308 -3.31884 2.50983 0
M  V30 785 H 73.1068 -4.63159 2.94576 0
M  V30 786 H 73.3678 -4.23957 1.25352 0
M  V30 787 N 72.4269 -1.23603 -0.977757 0
M  V30 788 C 73.3749 -1.01704 -2.09187 0
M  V30 789 C 74.3689 0.0448214 -1.69341 0
M  V30 790 O 75.5749 -0.108902 -1.7967 0
M  V30 791 H 71.9499 -0.311803 -0.684312 0
M  V30 792 H 73.9209 -1.96207 -2.24823 0
M  V30 793 C 72.6699 -0.627746 -3.41986 0
M  V30 794 H 71.9929 -1.43656 -3.73099 0
M  V30 795 H 73.4329 -0.514053 -4.20872 0
M  V30 796 C 71.8919 0.664238 -3.30287 0
M  V30 797 O 72.4219 1.71268 -3.6336 0
M  V30 798 N 70.6279 0.641156 -2.83439 0
M  V30 799 H 70.1749 -0.212376 -2.56723 0
M  V30 800 H 70.1329 1.50583 -2.75993 0
M  V30 801 N 73.905 1.17692 -1.04816 0
M  V30 802 C 75.153 1.87488 -0.754497 0
M  V30 803 C 75.474 1.81205 0.720407 0
M  V30 804 O 74.744 1.23544 1.52032 0
M  V30 805 H 73.324 0.694101 -0.276102 0
M  V30 806 H 75.986 1.42793 -1.32651 0
M  V30 807 H 75.082 2.93328 -1.06606 0
M  V30 808 N 75.3831 0.828654 1.34056 0
M  V30 809 C 76.3151 0.212052 2.28217 0
M  V30 810 C 77.3281 -0.601362 1.51286 0
M  V30 811 O 78.5171 -0.430104 1.73241 0
M  V30 812 C 75.6171 -0.72088 3.31144 0
M  V30 813 C 74.7901 0.0509587 4.3737 0
M  V30 814 C 73.8491 -0.803766 5.20025 0
M  V30 815 O 72.8751 -0.246667 5.68665 0
M  V30 816 N 74.0771 -2.1227 5.40298 0
M  V30 817 H 76.8421 1.02105 2.81771 0
M  V30 818 H 74.4031 0.686153 1.46641 0
M  V30 819 H 76.3951 -1.29742 3.8334 0
M  V30 820 H 74.9651 -1.43061 2.77943 0
M  V30 821 H 74.1851 0.808831 3.85813 0
M  V30 822 H 75.4731 0.582065 5.0546 0
M  V30 823 H 74.8711 -2.59898 5.02464 0
M  V30 824 H 73.4281 -2.64796 5.95589 0
M  V30 825 N 76.8612 -1.46375 0.584142 0
M  V30 826 C 77.7712 -2.34115 -0.150728 0
M  V30 827 C 78.7872 -1.49838 -0.884567 0
M  V30 828 O 79.9632 -1.82704 -0.847429 0
M  V30 829 C 77.0282 -3.2705 -1.15062 0
M  V30 830 C 76.0892 -4.27228 -0.421293 0
M  V30 831 C 75.3222 -5.15722 -1.37355 0
M  V30 832 O 75.5452 -5.07176 -2.61014 0
M  V30 833 O 74.4792 -5.95383 -0.883355 0
M  V30 834 H 78.3052 -2.98309 0.569708 0
M  V30 835 H 75.8902 -1.45373 0.344535 0
M  V30 836 H 77.7722 -3.84381 -1.72712 0
M  V30 837 H 76.4472 -2.65451 -1.8525 0
M  V30 838 H 75.3542 -3.7358 0.197085 0
M  V30 839 H 76.6872 -4.91616 0.239641 0
M  V30 840 N 78.3393 -0.321999 -1.54275 0
M  V30 841 C 79.5693 0.282642 -2.04658 0
M  V30 842 C 79.9773 1.46453 -1.19784 0
M  V30 843 O 79.3203 1.82367 -0.220932 0
M  V30 844 C 79.3823 0.781857 -3.50895 0
M  V30 845 C 79.0463 -0.277517 -4.56157 0
M  V30 846 C 80.0433 -1.11307 -5.07845 0
M  V30 847 C 77.7283 -0.425256 -5.00497 0
M  V30 848 C 79.7223 -2.08211 -6.02434 0
M  V30 849 C 77.4093 -1.39771 -5.94901 0
M  V30 850 C 78.4073 -2.2246 -6.45756 0
M  V30 851 O 78.0953 -3.18054 -7.38307 0
M  V30 852 H 77.8273 0.0622636 -0.673126 0
M  V30 853 H 80.3813 -0.465792 -2.00049 0
M  V30 854 H 78.6113 1.58118 -3.52896 0
M  V30 855 H 80.3003 1.30467 -3.84361 0
M  V30 856 H 81.0663 -1.00991 -4.74369 0
M  V30 857 H 76.9453 0.20847 -4.60528 0
M  V30 858 H 80.4893 -2.72791 -6.42052 0
M  V30 859 H 76.3863 -1.50152 -6.27794 0
M  V30 860 H 77.1543 -3.13275 -7.56175 0
M  V30 861 N 79.8174 1.5752 -0.0501392 0
M  V30 862 C 80.7674 2.07981 0.934231 0
M  V30 863 C 81.7514 0.984745 1.27246 0
M  V30 864 O 82.9434 1.24809 1.25506 0
M  V30 865 C 80.0724 2.62751 2.20945 0
M  V30 866 C 79.1584 3.79225 1.89865 0
M  V30 867 N 79.5494 4.89036 1.29142 0
M  V30 868 C 77.8474 3.88111 2.19741 0
M  V30 869 C 78.5484 5.70084 1.15669 0
M  V30 870 N 77.5244 5.17659 1.65923 0
M  V30 871 H 81.3264 2.90277 0.460053 0
M  V30 872 H 78.8404 1.61665 0.15434 0
M  V30 873 H 80.8374 2.97205 2.9236 0
M  V30 874 H 79.4974 1.81894 2.6897 0
M  V30 875 H 80.5084 5.08854 0.963756 0
M  V30 876 H 77.1854 3.18194 2.70293 0
M  V30 877 H 78.5754 6.68395 0.685356 0
M  V30 878 N 81.2955 -0.223234 1.56011 0
M  V30 879 C 82.2255 -1.27988 1.95298 0
M  V30 880 C 83.2065 -1.48976 0.820979 0
M  V30 881 O 84.3915 -1.61188 1.08315 0
M  V30 882 C 81.5215 -2.63 2.26822 0
M  V30 883 C 80.4755 -2.56671 3.42497 0
M  V30 884 C 79.8015 -3.95697 3.59622 0
M  V30 885 C 81.1015 -2.11601 4.77517 0
M  V30 886 H 82.7955 -0.953525 2.8381 0
M  V30 887 H 80.3415 -0.457244 1.36548 0
M  V30 888 H 82.2945 -3.37077 2.52898 0
M  V30 889 H 81.0185 -2.9732 1.35161 0
M  V30 890 H 79.6775 -1.85051 3.16467 0
M  V30 891 H 79.3255 -4.27322 2.6534 0
M  V30 892 H 79.0255 -3.92345 4.37424 0
M  V30 893 H 80.5495 -4.71438 3.88044 0
M  V30 894 H 81.9635 -2.7542 5.02809 0
M  V30 895 H 80.3605 -2.19311 5.5859 0
M  V30 896 H 81.4305 -1.06824 4.72987 0
M  V30 897 N 82.7736 -1.49793 -0.48987 0
M  V30 898 C 83.7056 -1.63413 -1.60713 0
M  V30 899 C 84.7186 -0.516329 -1.54395 0
M  V30 900 O 85.9076 -0.788812 -1.60125 0
M  V30 901 C 83.0076 -1.58516 -2.99543 0
M  V30 902 C 82.1806 -2.86016 -3.30928 0
M  V30 903 C 81.2396 -2.74018 -4.49222 0
M  V30 904 O 80.2656 -3.47964 -4.50455 0
M  V30 905 N 81.4676 -1.86309 -5.4979 0
M  V30 906 H 84.2326 -2.59777 -1.49452 0
M  V30 907 H 81.7936 -1.47022 -0.677955 0
M  V30 908 H 83.7856 -1.48128 -3.76617 0
M  V30 909 H 82.3556 -0.69965 -3.0467 0
M  V30 910 H 81.5756 -3.10672 -2.42645 0
M  V30 911 H 82.8636 -3.70521 -3.487 0
M  V30 912 H 82.2616 -1.2551 -5.51601 0
M  V30 913 H 80.8186 -1.81837 -6.25922 0
M  V30 914 N 84.2517 0.741722 -1.39055 0
M  V30 915 C 85.1817 1.869 -1.39966 0
M  V30 916 C 86.1627 1.6804 -0.26392 0
M  V30 917 O 87.3477 1.88458 -0.468755 0
M  V30 918 C 84.4777 3.24572 -1.23574 0
M  V30 919 C 83.4317 3.58056 -2.34477 0
M  V30 920 C 82.7577 4.94593 -2.0318 0
M  V30 921 C 84.0577 3.61716 -3.76774 0
M  V30 922 H 85.7517 1.86395 -2.34302 0
M  V30 923 H 83.2977 0.895361 -1.1278 0
M  V30 924 H 85.2507 4.031 -1.22834 0
M  V30 925 H 83.9747 3.25587 -0.257045 0
M  V30 926 H 82.6337 2.81854 -2.34423 0
M  V30 927 H 82.2817 4.92181 -1.03765 0
M  V30 928 H 81.9817 5.17964 -2.77465 0
M  V30 929 H 83.5057 5.75486 -2.04079 0
M  V30 930 H 84.9197 4.30335 -3.78794 0
M  V30 931 H 83.3167 3.96603 -4.50362 0
M  V30 932 H 84.3867 2.61672 -4.08235 0
M  V30 933 N 85.7298 1.2412 0.971189 0
M  V30 934 C 86.9758 1.08041 1.71625 0
M  V30 935 C 87.3088 -0.380407 1.90438 0
M  V30 936 O 86.5838 -1.28127 1.46334 0
M  V30 937 C 86.8668 1.81682 3.10908 0
M  V30 938 C 86.7198 3.35493 2.99608 0
M  V30 939 C 88.0388 1.58671 4.10501 0
M  V30 940 H 85.1578 0.39388 0.622919 0
M  V30 941 H 87.7998 1.52743 1.13003 0
M  V30 942 H 85.9498 1.43684 3.60953 0
M  V30 943 H 87.6218 3.83068 2.57015 0
M  V30 944 H 85.8648 3.64052 2.35899 0
M  V30 945 H 86.5358 3.82217 3.98264 0
M  V30 946 H 89.0118 1.91719 3.69301 0
M  V30 947 H 87.8878 2.1266 5.06031 0
M  V30 948 H 88.1488 0.524161 4.38982 0
M  V30 949 N 87.2079 -1.17134 1.05439 0
M  V30 950 C 88.4849 -1.83411 0.679699 0
M  V30 951 C 88.8649 -1.9368 -0.839726 0
M  V30 952 O 88.2129 -1.47325 -1.74664 0
M  V30 953 C 88.4229 -3.20918 1.37159 0
M  V30 954 C 89.7709 -3.96796 1.51123 0
M  V30 955 O 90.7949 -3.30406 1.3308 0
M  V30 956 O 89.6539 -5.15778 1.80651 0
M  V30 957 H 86.7479 -0.79154 0.239569 0
M  V30 958 H 89.2939 -1.24411 1.15413 0
M  V30 959 H 88.0659 -3.08428 2.40807 0
M  V30 960 H 87.6889 -3.87587 0.886674 0
M  V30 961 N 88.686 -0.835752 -1.33615 0
M  V30 962 C 89.914 -0.443344 -2.02094 0
M  V30 963 C 90.329 0.954522 -1.62894 0
M  V30 964 O 89.686 1.61982 -0.840723 0
M  V30 965 C 89.737 -0.550775 -3.5728 0
M  V30 966 O 89.458 -1.89356 -3.95065 0
M  V30 967 C 90.959 -0.154919 -4.43029 0
M  V30 968 H 88.179 -0.176359 -0.647409 0
M  V30 969 H 90.723 -1.12746 -1.70612 0
M  V30 970 H 88.878 0.0853997 -3.87306 0
M  V30 971 H 89.292 -1.87687 -4.89769 0
M  V30 972 H 90.766 -0.281144 -5.51284 0
M  V30 973 H 91.243 0.902863 -4.2982 0
M  V30 974 H 91.849 -0.765404 -4.18356 0
M  V30 975 N 90.1641 1.46063 -0.591896 0
M  V30 976 C 91.1271 2.28854 0.125973 0
M  V30 977 C 92.1271 1.38903 0.810107 0
M  V30 978 O 93.3171 1.61186 0.66066 0
M  V30 979 C 90.4491 3.19526 1.1881 0
M  V30 980 H 91.6421 2.93802 -0.601717 0
M  V30 981 H 89.1951 1.52325 -0.350254 0
M  V30 982 H 89.9301 2.59345 1.94707 0
M  V30 983 H 89.7151 3.85766 0.701936 0
M  V30 984 H 91.2051 3.81817 1.69132 0
M  V30 985 N 91.6422 0.330177 1.54103 0
M  V30 986 C 92.8902 -0.269871 2.0029 0
M  V30 987 C 93.2112 -1.52133 1.21986 0
M  V30 988 O 92.4812 -1.93212 0.323438 0
M  V30 989 H 91.0612 -0.10271 0.739905 0
M  V30 990 H 93.7232 0.448249 1.89675 0
M  V30 991 H 92.8192 -0.52166 3.07709 0
M  V30 992 N 93.1203 -1.57491 0.0584922 0
M  V30 993 C 94.0523 -2.08916 -0.942694 0
M  V30 994 C 95.0653 -1.0185 -1.27006 0
M  V30 995 O 96.2543 -1.29398 -1.22957 0
M  V30 996 C 93.3543 -2.52341 -2.26224 0
M  V30 997 C 92.5273 -3.82827 -2.1157 0
M  V30 998 C 91.5863 -4.12487 -3.26712 0
M  V30 999 O 90.6123 -4.82295 -3.02292 0
M  V30 1000 N 91.8143 -3.64978 -4.5141 0
M  V30 1001 H 94.5793 -2.95437 -0.503722 0
M  V30 1002 H 92.1403 -1.61397 -0.12757 0
M  V30 1003 H 94.1323 -2.69254 -3.02133 0
M  V30 1004 H 92.7023 -1.7103 -2.61663 0
M  V30 1005 H 91.9223 -3.75425 -1.20208 0
M  V30 1006 H 93.2103 -4.68263 -1.99015 0
M  V30 1007 H 92.6083 -3.08558 -4.7414 0
M  V30 1008 H 91.1653 -3.87115 -5.2439 0
M  V30 1009 N 94.5984 0.214957 -1.56127 0
M  V30 1010 C 95.8754 0.963093 -1.70247 0
M  V30 1011 C 96.2554 2.02166 -0.60764 0
M  V30 1012 O 95.6034 2.25244 0.384385 0
M  V30 1013 C 95.8134 1.56756 -3.11815 0
M  V30 1014 C 97.1614 2.0573 -3.7143 0
M  V30 1015 O 98.1854 1.66637 -3.14818 0
M  V30 1016 O 97.0444 2.77603 -4.70743 0
M  V30 1017 H 94.1384 0.450321 -0.693643 0
M  V30 1018 H 96.6844 0.206219 -1.68442 0
M  V30 1019 H 95.4564 0.803533 -3.82961 0
M  V30 1020 H 95.0794 2.3898 -3.17765 0
M  V30 1021 N 96.0765 1.50051 0.48192 0
M  V30 1022 C 96.9865 1.7089 1.60728 0
M  V30 1023 C 98.0025 0.591788 1.63627 0
M  V30 1024 O 99.1785 0.868817 1.81696 0
M  V30 1025 C 96.2435 1.78855 2.97005 0
M  V30 1026 C 95.3045 3.02537 3.04581 0
M  V30 1027 C 94.5375 3.10112 4.34357 0
M  V30 1028 O 94.7605 2.24765 5.24249 0
M  V30 1029 O 93.6945 4.02747 4.47301 0
M  V30 1030 H 97.5205 2.66264 1.46072 0
M  V30 1031 H 95.1055 1.34018 0.660264 0
M  V30 1032 H 96.9875 1.86336 3.77964 0
M  V30 1033 H 95.6625 0.866628 3.11883 0
M  V30 1034 H 94.5695 3.00563 2.22739 0
M  V30 1035 H 95.9025 3.94272 2.94636 0
M  V30 1036 N 97.5546 -0.734337 1.39446 0
M  V30 1037 C 98.7846 -1.52137 1.39778 0
M  V30 1038 C 99.1926 -1.89198 -0.00929312 0
M  V30 1039 O 98.5356 -1.54666 -0.991168 0
M  V30 1040 C 98.5976 -2.83762 2.20724 0
M  V30 1041 C 98.2616 -2.69131 3.69347 0
M  V30 1042 C 99.2586 -2.37635 4.62413 0
M  V30 1043 C 96.9436 -2.85982 4.1294 0
M  V30 1044 C 98.9376 -2.23172 5.97054 0
M  V30 1045 C 96.6246 -2.71137 5.47657 0
M  V30 1046 C 97.6226 -2.39777 6.39528 0
M  V30 1047 O 97.3106 -2.25026 7.71763 0
M  V30 1048 H 97.0426 -0.476717 0.479288 0
M  V30 1049 H 99.5966 -0.915012 1.83893 0
M  V30 1050 H 97.8266 -3.4666 1.71359 0
M  V30 1051 H 99.5156 -3.45383 2.13226 0
M  V30 1052 H 100.282 -2.24267 4.30034 0
M  V30 1053 H 96.1606 -3.09383 3.41765 0
M  V30 1054 H 99.7046 -1.98617 6.68728 0
M  V30 1055 H 95.6016 -2.84083 5.79626 0
M  V30 1056 H 96.3696 -2.40091 7.82495 0
M  V30 1057 N 99.0327 -1.24633 -0.964593 0
M  V30 1058 C 100.258 -1.11596 -1.74818 0
M  V30 1059 C 100.683 0.32723 -1.85232 0
M  V30 1060 O 100.041 1.23695 -1.32549 0
M  V30 1061 C 100.089 -1.76397 -3.1451 0
M  V30 1062 O 99.1927 -1.03685 -3.99153 0
M  V30 1063 H 98.5337 -0.390196 -0.537255 0
M  V30 1064 H 101.064 -1.65002 -1.20977 0
M  V30 1065 H 101.074 -1.8228 -3.65018 0
M  V30 1066 H 99.7487 -2.81401 -3.06246 0
M  V30 1067 H 98.3257 -1.05611 -3.57632 0
M  V30 1068 N 100.511 1.16574 -1.06058 0
M  V30 1069 C 101.76 1.86385 -0.770944 0
M  V30 1070 C 102.073 1.82448 0.705129 0
M  V30 1071 O 103.279 2.47815 1.10905 0
M  V30 1072 C 101.735 3.34466 -1.32893 0
M  V30 1073 C 101.343 3.46883 -2.83507 0
M  V30 1074 C 103.087 4.09548 -1.11672 0
M  V30 1075 C 100.994 4.89036 -3.32562 0
M  V30 1076 H 99.9238 0.698181 -0.284709 0
M  V30 1077 H 102.575 1.31583 -1.27899 0
M  V30 1078 H 100.957 3.88859 -0.748662 0
M  V30 1079 H 102.131 3.02663 -3.47465 0
M  V30 1080 H 100.446 2.85232 -3.03368 0
M  V30 1081 H 103.043 5.14434 -1.45814 0
M  V30 1082 H 103.386 4.16264 -0.0549535 0
M  V30 1083 H 103.919 3.61387 -1.66265 0
M  V30 1084 H 100.658 4.87499 -4.38207 0
M  V30 1085 H 100.178 5.3389 -2.73351 0
M  V30 1086 H 101.857 5.57843 -3.2775 0
M  V30 1087 N 101.989 0.842826 1.3317 0
M  V30 1088 C 103.236 0.440447 1.97652 0
M  V30 1089 C 103.564 -1.00123 1.6675 0
M  V30 1090 O 102.819 -1.7155 0.941761 0
M  V30 1091 C 103.118 0.612607 3.52111 0
M  V30 1092 C 102.784 2.02297 4.02972 0
M  V30 1093 C 101.446 2.40874 4.16573 0
M  V30 1094 C 103.798 2.94402 4.30089 0
M  V30 1095 C 101.126 3.70852 4.54627 0
M  V30 1096 C 103.478 4.23865 4.69597 0
M  V30 1097 C 102.142 4.62392 4.81404 0
M  V30 1098 H 101.412 0.161171 0.72326 0
M  V30 1099 H 104.059 1.07061 1.58777 0
M  V30 1100 H 102.364 -0.100849 3.9167 0
M  V30 1101 H 104.061 0.2815 4.00011 0
M  V30 1102 H 100.651 1.71338 3.92863 0
M  V30 1103 H 104.835 2.65835 4.19101 0
M  V30 1104 H 100.091 4.00501 4.61962 0
M  V30 1105 H 104.265 4.95306 4.89536 0
M  V30 1106 H 101.892 5.63154 5.10648 0
M  V30 1107 N 103.467 -1.45747 0.599634 0
M  V30 1108 C 104.878 -1.85853 0.177681 0
M  V30 1109 C 105.229 -1.50102 -1.26348 0
M  V30 1110 O 104.354 -0.923905 -1.95686 0
M  V30 1111 C 104.949 -3.37326 0.315688 0
M  V30 1112 C 103.508 -3.76365 -0.0515144 0
M  V30 1113 C 102.655 -2.69722 0.643822 0
M  V30 1114 H 105.606 -1.36661 0.806814 0
M  V30 1115 H 105.627 -3.77778 -0.454321 0
M  V30 1116 H 105.139 -3.63315 1.36468 0
M  V30 1117 H 103.24 -3.55993 -1.09999 0
M  V30 1118 H 103.353 -4.77916 0.336594 0
M  V30 1119 H 101.717 -2.54567 0.0822881 0
M  V30 1120 H 102.5 -2.98549 1.6948 0
M  V30 1121 N 104.945 -0.338344 -1.53925 0
M  V30 1122 C 105.877 0.555117 -2.22376 0
M  V30 1123 C 106.89 1.06812 -1.22862 0
M  V30 1124 O 108.079 0.979163 -1.49247 0
M  V30 1125 C 105.179 1.77609 -2.88631 0
M  V30 1126 C 104.352 1.39927 -4.14414 0
M  V30 1127 C 103.411 2.47936 -4.64127 0
M  V30 1128 O 102.437 2.11461 -5.28463 0
M  V30 1129 N 103.639 3.79107 -4.39612 0
M  V30 1130 H 106.404 -0.0310778 -2.99684 0
M  V30 1131 H 103.965 -0.162226 -1.61085 0
M  V30 1132 H 105.957 2.49287 -3.18807 0
M  V30 1133 H 104.527 2.26978 -2.14941 0
M  V30 1134 H 103.747 0.513481 -3.90841 0
M  V30 1135 H 105.035 1.12341 -4.96243 0
M  V30 1136 H 104.433 4.11531 -3.88148 0
M  V30 1137 H 102.99 4.4697 -4.74406 0
M  V30 1138 N 106.423 1.57458 -0.0668435 0
M  V30 1139 C 107.651 1.97624 0.612565 0
M  V30 1140 C 108.066 0.94502 1.63447 0
M  V30 1141 O 107.423 -0.0689276 1.8237 0
M  V30 1142 C 107.474 3.37869 1.28555 0
M  V30 1143 O 107.195 4.3704 0.304557 0
M  V30 1144 C 108.696 3.92882 2.05325 0
M  V30 1145 H 105.916 0.650045 0.166381 0
M  V30 1146 H 108.46 2.04035 -0.137782 0
M  V30 1147 H 106.615 3.3256 1.98702 0
M  V30 1148 H 107.029 5.18565 0.786779 0
M  V30 1149 H 108.503 4.93247 2.47812 0
M  V30 1150 H 108.98 3.29156 2.9078 0
M  V30 1151 H 109.586 4.01577 1.40056 0
M  V30 1152 N 107.901 -0.206675 1.56239 0
M  V30 1153 C 109.131 -0.943975 1.83773 0
M  V30 1154 C 109.539 -1.77841 0.645703 0
M  V30 1155 O 108.882 -1.79403 -0.395008 0
M  V30 1156 C 108.944 -1.899 3.05251 0
M  V30 1157 C 108.608 -1.24764 4.39639 0
M  V30 1158 C 109.605 -0.630216 5.16066 0
M  V30 1159 C 107.29 -1.25496 4.8637 0
M  V30 1160 C 109.284 -0.0287946 6.37393 0
M  V30 1161 C 106.971 -0.649698 6.07637 0
M  V30 1162 C 107.969 -0.0376845 6.8299 0
M  V30 1163 O 107.657 0.55812 8.0196 0
M  V30 1164 H 107.389 -0.281508 0.614597 0
M  V30 1165 H 109.943 -0.222458 2.04192 0
M  V30 1166 H 108.173 -2.6599 2.80689 0
M  V30 1167 H 109.862 -2.5031 3.1953 0
M  V30 1168 H 110.628 -0.616785 4.81062 0
M  V30 1169 H 106.507 -1.72072 4.27683 0
M  V30 1170 H 110.051 0.449518 6.9615 0
M  V30 1171 H 105.948 -0.660592 6.42111 0
M  V30 1172 H 106.716 0.453891 8.17241 0
M  V30 1173 N 109.379 -1.50304 -0.473955 0
M  V30 1174 C 110.604 -1.65175 -1.25427 0
M  V30 1175 C 111.029 -0.333673 -1.85117 0
M  V30 1176 O 110.387 0.702114 -1.67153 0
M  V30 1177 C 110.435 -2.74295 -2.34082 0
M  V30 1178 O 109.539 -2.35349 -3.38651 0
M  V30 1179 H 108.88 -0.551944 -0.369126 0
M  V30 1180 H 111.41 -1.96662 -0.564364 0
M  V30 1181 H 111.42 -2.97285 -2.79438 0
M  V30 1182 H 110.095 -3.69959 -1.90008 0
M  V30 1183 H 108.672 -2.22794 -2.99027 0
M  V30 1184 N 110.857 0.726932 -1.39834 0
M  V30 1185 C 112.106 1.48214 -1.36805 0
M  V30 1186 C 112.419 1.95576 0.0305291 0
M  V30 1187 O 113.625 2.7088 0.183417 0
M  V30 1188 C 112.081 2.67854 -2.40379 0
M  V30 1189 C 111.689 2.27408 -3.85992 0
M  V30 1190 C 113.433 3.45641 -2.46439 0
M  V30 1191 C 111.34 3.43819 -4.81189 0
M  V30 1192 H 110.27 0.556606 -0.508631 0
M  V30 1193 H 112.921 0.792216 -1.65518 0
M  V30 1194 H 111.303 3.3896 -2.04749 0
M  V30 1195 H 112.477 1.63795 -4.30706 0
M  V30 1196 H 110.792 1.62692 -3.83302 0
M  V30 1197 H 113.389 4.32244 -3.14753 0
M  V30 1198 H 113.732 3.88669 -1.49139 0
M  V30 1199 H 114.265 2.8157 -2.81004 0
M  V30 1200 H 111.004 3.05834 -5.79781 0
M  V30 1201 H 110.524 4.06385 -4.41148 0
M  V30 1202 H 112.203 4.10043 -5.00474 0
M  V30 1203 N 112.336 1.25143 0.95797 0
M  V30 1204 C 113.613 1.00472 1.67823 0
M  V30 1205 C 113.993 -0.470056 2.058 0
M  V30 1206 O 113.341 -1.44663 1.76875 0
M  V30 1207 C 113.551 1.9372 2.90299 0
M  V30 1208 C 114.899 2.21371 3.62326 0
M  V30 1209 O 115.923 1.91451 3.00375 0
M  V30 1210 O 114.782 2.72231 4.7387 0
M  V30 1211 H 111.876 0.380752 0.734137 0
M  V30 1212 H 114.422 1.36283 1.01119 0
M  V30 1213 H 113.194 2.93316 2.59001 0
M  V30 1214 H 112.817 1.58286 3.64735 0
M  V30 1215 N 113.814 -1.1601 1.06675 0
M  V30 1216 C 115.063 -1.85973 0.780818 0
M  V30 1217 C 115.376 -1.82819 -0.695444 0
M  V30 1218 O 116.582 -2.484 -1.09589 0
M  V30 1219 C 115.038 -3.33757 1.34665 0
M  V30 1220 C 114.646 -3.45374 2.85343 0
M  V30 1221 C 116.39 -4.0895 1.13843 0
M  V30 1222 C 114.297 -4.87266 3.35151 0
M  V30 1223 H 113.227 -0.696661 0.288407 0
M  V30 1224 H 115.878 -1.30903 1.28595 0
M  V30 1225 H 114.26 -3.88456 0.769274 0
M  V30 1226 H 115.434 -3.00816 3.49065 0
M  V30 1227 H 113.749 -2.83619 3.04876 0
M  V30 1228 H 116.346 -5.13654 1.4854 0
M  V30 1229 H 116.689 -4.16229 0.0770282 0
M  V30 1230 H 117.222 -3.605 1.68179 0
M  V30 1231 H 113.961 -4.85168 4.40786 0
M  V30 1232 H 113.481 -5.32433 2.76179 0
M  V30 1233 H 115.16 -5.56097 3.30704 0
M  V30 1234 N 115.292 -0.849877 -1.32721 0
M  V30 1235 C 116.24 -0.279745 -2.30912 0
M  V30 1236 C 117.234 0.594278 -1.58634 0
M  V30 1237 O 118.44 0.482613 -1.73409 0
M  V30 1238 H 114.815 -0.0717521 -0.748569 0
M  V30 1239 H 116.786 -1.12222 -2.76494 0
M  V30 1240 C 115.535 0.521108 -3.43773 0
M  V30 1241 H 114.858 -0.142141 -3.99547 0
M  V30 1242 H 116.298 0.885693 -4.14646 0
M  V30 1243 C 114.757 1.70442 -2.90605 0
M  V30 1244 O 115.287 2.8034 -2.87702 0
M  V30 1245 N 113.493 1.52991 -2.47067 0
M  V30 1246 H 113.04 0.635914 -2.49628 0
M  V30 1247 H 112.998 2.32311 -2.11847 0
M  V30 1248 N 116.77 1.45427 -0.607355 0
M  V30 1249 C 118.018 2.01841 -0.102253 0
M  V30 1250 C 118.339 1.47832 1.27164 0
M  V30 1251 O 117.609 0.672497 1.83995 0
M  V30 1252 H 116.189 0.746188 -0.0348101 0
M  V30 1253 H 118.851 1.78229 -0.7887 0
M  V30 1254 H 117.947 3.12057 -0.0518585 0
M  V30 1255 N 118.248 0.346503 1.53744 0
M  V30 1256 C 119.478 -0.250047 2.05081 0
M  V30 1257 C 119.886 -1.44529 1.22098 0
M  V30 1258 O 119.229 -1.81992 0.249917 0
M  V30 1259 C 119.291 -0.725934 3.52094 0
M  V30 1260 C 118.955 0.350053 4.55657 0
M  V30 1261 C 119.952 1.19372 5.0601 0
M  V30 1262 C 117.637 0.504827 4.99757 0
M  V30 1263 C 119.631 2.17768 5.99046 0
M  V30 1264 C 117.318 1.49218 5.92602 0
M  V30 1265 C 118.316 2.32706 6.42135 0
M  V30 1266 O 118.004 3.2976 7.33153 0
M  V30 1267 H 117.736 -0.0515469 0.674032 0
M  V30 1268 H 120.29 0.497559 1.99282 0
M  V30 1269 H 118.52 -1.52483 3.55367 0
M  V30 1270 H 120.209 -1.24336 3.86388 0
M  V30 1271 H 120.975 1.08525 4.72702 0
M  V30 1272 H 116.854 -0.135178 4.60802 0
M  V30 1273 H 120.398 2.82971 6.37631 0
M  V30 1274 H 116.295 1.6012 6.25325 0
M  V30 1275 H 117.063 3.25265 7.51096 0
M  V30 1276 N 119.726 -1.57421 0.075193 0
M  V30 1277 C 120.975 -1.92794 -0.592731 0
M  V30 1278 C 121.288 -0.957478 -1.70563 0
M  V30 1279 O 122.494 -1.20417 -2.43335 0
M  V30 1280 C 120.95 -3.42495 -1.10569 0
M  V30 1281 C 120.558 -4.47994 -0.0236121 0
M  V30 1282 C 122.302 -3.86864 -1.74748 0
M  V30 1283 C 120.209 -5.88829 -0.550803 0
M  V30 1284 H 119.139 -0.719591 -0.225177 0
M  V30 1285 H 121.79 -1.82902 0.147978 0
M  V30 1286 H 120.172 -3.47471 -1.89947 0
M  V30 1287 H 121.346 -4.54637 0.751099 0
M  V30 1288 H 119.661 -4.13113 0.522159 0
M  V30 1289 H 122.258 -4.8947 -2.15229 0
M  V30 1290 H 122.601 -3.24417 -2.60882 0
M  V30 1291 H 123.134 -3.84504 -1.01986 0
M  V30 1292 H 119.873 -6.54929 0.273457 0
M  V30 1293 H 119.393 -5.85698 -1.29296 0
M  V30 1294 H 121.072 -6.38811 -1.02613 0
M  V30 1295 N 121.204 0.198386 -1.56346 0
M  V30 1296 C 122.134 1.24865 -1.9731 0
M  V30 1297 C 123.115 1.47651 -0.844576 0
M  V30 1298 O 124.3 1.59444 -1.10866 0
M  V30 1299 C 121.43 2.59358 -2.30977 0
M  V30 1300 C 120.384 2.5119 -3.46537 0
M  V30 1301 C 119.71 3.89926 -3.65871 0
M  V30 1302 C 121.01 2.03977 -4.80823 0
M  V30 1303 H 122.704 0.908252 -2.85291 0
M  V30 1304 H 120.25 0.435462 -1.37258 0
M  V30 1305 H 122.203 3.33011 -2.58228 0
M  V30 1306 H 120.927 2.95132 -1.39874 0
M  V30 1307 H 119.586 1.79993 -3.19371 0
M  V30 1308 H 119.234 4.23046 -2.72105 0
M  V30 1309 H 118.934 3.85336 -4.4361 0
M  V30 1310 H 120.458 4.65205 -3.95495 0
M  V30 1311 H 121.872 2.67386 -5.07127 0
M  V30 1312 H 120.269 2.10397 -5.62008 0
M  V30 1313 H 121.339 0.992861 -4.74626 0
M  V30 1314 N 122.682 1.50554 0.465978 0
M  V30 1315 C 123.928 1.62038 1.21949 0
M  V30 1316 C 124.261 0.322116 1.9151 0
M  V30 1317 O 123.536 -0.676723 1.82348 0
M  V30 1318 C 123.819 2.80421 2.25912 0
M  V30 1319 C 123.672 4.20144 1.60622 0
M  V30 1320 C 124.991 2.94354 3.27176 0
M  V30 1321 H 122.11 0.589752 0.441998 0
M  V30 1322 H 124.752 1.82956 0.51257 0
M  V30 1323 H 122.902 2.62717 2.86203 0
M  V30 1324 H 124.574 4.49449 1.03889 0
M  V30 1325 H 122.817 4.24165 0.909211 0
M  V30 1326 H 123.488 4.98914 2.36196 0
M  V30 1327 H 125.964 3.10578 2.76913 0
M  V30 1328 H 124.84 3.788 3.97242 0
M  V30 1329 H 125.101 2.05186 3.916 0
M  V30 1330 N 124.16 -0.719506 1.40217 0
M  V30 1331 C 125.39 -1.50646 1.41384 0
M  V30 1332 C 125.798 -1.89197 0.0107743 0
M  V30 1333 O 125.141 -1.55709 -0.974708 0
M  V30 1334 C 125.203 -2.81405 2.23722 0
M  V30 1335 C 124.867 -2.65199 3.72181 0
M  V30 1336 C 125.864 -2.32717 4.64907 0
M  V30 1337 C 123.549 -2.81586 4.1595 0
M  V30 1338 C 125.543 -2.16827 5.99387 0
M  V30 1339 C 123.23 -2.65313 5.50502 0
M  V30 1340 C 124.228 -2.32981 6.42035 0
M  V30 1341 O 123.916 -2.16827 7.74107 0
M  V30 1342 H 123.648 -0.471606 0.484318 0
M  V30 1343 H 126.202 -0.895456 1.84853 0
M  V30 1344 H 124.432 -3.44823 1.75026 0
M  V30 1345 H 126.121 -3.43102 2.16878 0
M  V30 1346 H 126.887 -2.19694 4.32388 0
M  V30 1347 H 122.766 -3.0574 3.45027 0
M  V30 1348 H 126.31 -1.91513 6.70797 0
M  V30 1349 H 122.207 -2.7792 5.82607 0
M  V30 1350 H 122.975 -2.31778 7.84998 0
M  V30 1351 N 125.638 -1.25649 -0.95132 0
M  V30 1352 C 126.863 -1.13443 -1.73624 0
M  V30 1353 C 127.288 0.307565 -1.85568 0
M  V30 1354 O 126.646 1.22282 -1.33854 0
M  V30 1355 C 126.694 -1.79723 -3.12621 0
M  V30 1356 O 125.798 -1.07912 -3.98031 0
M  V30 1357 H 125.139 -0.395872 -0.533086 0
M  V30 1358 H 127.669 -1.66276 -1.1922 0
M  V30 1359 H 127.679 -1.86141 -3.63064 0
M  V30 1360 H 126.354 -2.84633 -3.03244 0
M  V30 1361 H 124.931 -1.09398 -3.56492 0
M  V30 1362 N 127.117 1.15442 -1.07289 0
M  V30 1363 C 128.363 1.86489 -0.796846 0
M  V30 1364 C 128.696 1.82078 0.675371 0
M  V30 1365 O 127.971 1.24346 1.4956 0
M  V30 1366 C 128.254 3.35626 -1.30489 0
M  V30 1367 C 128.107 3.48673 -2.84161 0
M  V30 1368 C 129.426 4.30357 -0.920907 0
M  V30 1369 H 126.545 0.677144 -0.290939 0
M  V30 1370 H 129.187 1.35633 -1.33056 0
M  V30 1371 H 127.337 3.79068 -0.850883 0
M  V30 1372 H 129.009 3.14099 -3.37846 0
M  V30 1373 H 127.252 2.90253 -3.22391 0
M  V30 1374 H 127.923 4.53453 -3.14777 0
M  V30 1375 H 130.399 3.94871 -1.3121 0
M  V30 1376 H 129.275 5.33193 -1.30372 0
M  V30 1377 H 129.536 4.4176 0.173226 0
M  V30 1378 N 128.595 0.856903 1.32268 0
M  V30 1379 C 129.823 0.475439 2.01363 0
M  V30 1380 C 130.238 -0.928486 1.64392 0
M  V30 1381 O 129.595 -1.60624 0.866387 0
M  V30 1382 C 129.646 0.607545 3.56358 0
M  V30 1383 O 129.367 1.95617 3.92002 0
M  V30 1384 C 130.868 0.225382 4.42727 0
M  V30 1385 H 128.088 0.186636 0.644521 0
M  V30 1386 H 130.632 1.15446 1.68797 0
M  V30 1387 H 128.787 -0.0237719 3.87393 0
M  V30 1388 H 129.201 1.95455 4.86721 0
M  V30 1389 H 130.675 0.368813 5.50767 0
M  V30 1390 H 131.152 -0.834369 4.31202 0
M  V30 1391 H 131.758 0.831864 4.17085 0
M  V30 1392 N 130.073 -1.45103 0.615059 0
M  V30 1393 C 131.298 -2.07064 0.117988 0
M  V30 1394 C 131.723 -1.4554 -1.19163 0
M  V30 1395 O 131.081 -0.550855 -1.72729 0
M  V30 1396 C 131.129 -3.606 -0.000288387 0
M  V30 1397 O 130.233 -3.98847 -1.04856 0
M  V30 1398 H 129.574 -0.659467 0.0774581 0
M  V30 1399 H 132.104 -1.86236 0.847186 0
M  V30 1400 H 132.114 -4.07529 -0.196091 0
M  V30 1401 H 130.789 -4.04765 0.955932 0
M  V30 1402 H 129.366 -3.63577 -0.828619 0
M  V30 1403 N 131.551 -0.354651 -1.53558 0
M  V30 1404 C 132.8 0.239504 -2.00273 0
M  V30 1405 C 133.113 1.50759 -1.24623 0
M  V30 1406 O 134.319 2.17968 -1.61871 0
M  V30 1407 C 132.775 0.477341 -3.5672 0
M  V30 1408 C 132.383 -0.775488 -4.41237 0
M  V30 1409 C 134.127 1.02975 -4.11821 0
M  V30 1410 C 132.034 -0.507838 -5.89216 0
M  V30 1411 H 130.964 0.0932743 -0.748208 0
M  V30 1412 H 133.615 -0.471701 -1.77334 0
M  V30 1413 H 131.997 1.24953 -3.7577 0
M  V30 1414 H 133.171 -1.54963 -4.33962 0
M  V30 1415 H 131.486 -1.25033 -3.97185 0
M  V30 1416 H 134.083 1.24513 -5.2 0
M  V30 1417 H 134.426 1.98862 -3.65731 0
M  V30 1418 H 134.959 0.317994 -3.96527 0
M  V30 1419 H 131.698 -1.43674 -6.39561 0
M  V30 1420 H 131.218 0.228011 -5.99366 0
M  V30 1421 H 132.897 -0.129238 -6.46871 0
M  V30 1422 N 133.029 1.57378 -0.0835403 0
M  V30 1423 C 133.976 2.13384 0.879539 0
M  V30 1424 C 134.946 1.04936 1.28754 0
M  V30 1425 O 136.131 1.32662 1.37133 0
M  V30 1426 C 133.271 2.70932 2.13752 0
M  V30 1427 C 132.384 3.93575 1.7811 0
M  V30 1428 C 131.519 4.39326 2.98607 0
M  V30 1429 C 130.558 5.54587 2.59037 0
M  V30 1430 N 129.695 5.95243 3.72331 0
M  V30 1431 H 134.535 2.9537 0.395076 0
M  V30 1432 H 132.072 1.45953 0.183349 0
M  V30 1433 H 134.03 3.02411 2.87408 0
M  V30 1434 H 132.66 1.91693 2.59718 0
M  V30 1435 H 131.712 3.68483 0.94469 0
M  V30 1436 H 133.024 4.77258 1.45005 0
M  V30 1437 H 132.178 4.72528 3.80529 0
M  V30 1438 H 130.917 3.5452 3.34913 0
M  V30 1439 H 129.922 5.21024 1.75539 0
M  V30 1440 H 131.147 6.41133 2.23887 0
M  V30 1441 H 129.093 5.13385 4.08378 0
M  V30 1442 H 129.01 6.73694 3.43034 0
M  V30 1443 H 130.278 6.33072 4.54797 0
M  V30 1444 N 134.507 -0.190092 1.56449 0
M  V30 1445 C 135.732 -0.929864 1.85387 0
M  V30 1446 C 136.157 -1.7585 0.667704 0
M  V30 1447 O 135.515 -1.77198 -0.383459 0
M  V30 1448 C 135.563 -1.79773 3.12593 0
M  V30 1449 O 134.667 -2.89713 2.93496 0
M  V30 1450 H 134.008 -0.261574 0.610307 0
M  V30 1451 H 136.538 -0.193896 2.03679 0
M  V30 1452 H 136.548 -2.20139 3.43515 0
M  V30 1453 H 135.223 -1.18892 3.98544 0
M  V30 1454 H 133.8 -2.53065 2.73884 0
M  V30 1455 N 135.985 -1.50799 -0.457987 0
M  V30 1456 C 137.232 -1.62442 -1.20908 0
M  V30 1457 C 137.56 -0.330865 -1.91665 0
M  V30 1458 O 136.815 0.68401 -1.83357 0
M  V30 1459 C 137.114 -2.76358 -2.2663 0
M  V30 1460 C 136.78 -4.16378 -1.73033 0
M  V30 1461 C 135.442 -4.54473 -1.58138 0
M  V30 1462 C 137.794 -5.03836 -1.33413 0
M  V30 1463 C 135.122 -5.77754 -1.02065 0
M  V30 1464 C 137.474 -6.27676 -0.78778 0
M  V30 1465 C 136.138 -6.64562 -0.625561 0
M  V30 1466 H 135.408 -0.594417 -0.442435 0
M  V30 1467 H 138.055 -1.84772 -0.503136 0
M  V30 1468 H 136.36 -2.48167 -3.03184 0
M  V30 1469 H 138.057 -2.82568 -2.84528 0
M  V30 1470 H 134.647 -3.86331 -1.85598 0
M  V30 1471 H 138.831 -4.75026 -1.4375 0
M  V30 1472 H 134.087 -6.04997 -0.882547 0
M  V30 1473 H 138.261 -6.94797 -0.472177 0
M  V30 1474 H 135.888 -7.59965 -0.188926 0
M  V30 1475 N 137.463 0.71206 -1.40597 0
M  V30 1476 C 138.373 1.8562 -1.43466 0
M  V30 1477 C 139.389 1.70902 -0.326902 0
M  V30 1478 O 140.565 1.93105 -0.572043 0
M  V30 1479 C 137.63 3.21451 -1.29884 0
M  V30 1480 C 136.691 3.48398 -2.50833 0
M  V30 1481 C 135.924 4.77749 -2.3789 0
M  V30 1482 O 136.147 5.53089 -1.39459 0
M  V30 1483 O 135.081 5.05111 -3.27333 0
M  V30 1484 H 138.907 1.86155 -2.39958 0
M  V30 1485 H 136.492 0.86295 -1.21957 0
M  V30 1486 H 138.374 4.02579 -1.24531 0
M  V30 1487 H 137.049 3.21636 -0.364997 0
M  V30 1488 H 135.956 2.67265 -2.61763 0
M  V30 1489 H 137.289 3.53014 -3.4299 0
M  V30 1490 N 138.941 1.26152 0.944643 0
M  V30 1491 C 140.187 1.11657 1.69294 0
M  V30 1492 C 140.52 -0.339926 1.91202 0
M  V30 1493 O 139.795 -1.24994 1.49019 0
M  V30 1494 C 140.078 1.88236 3.06984 0
M  V30 1495 C 139.931 3.41772 2.92424 0
M  V30 1496 C 141.25 1.67343 4.07043 0
M  V30 1497 H 138.369 0.407004 0.614424 0
M  V30 1498 H 141.011 1.55106 1.09737 0
M  V30 1499 H 139.161 1.51308 3.57824 0
M  V30 1500 H 140.833 3.88433 2.48832 0
M  V30 1501 H 139.076 3.68974 2.28124 0
M  V30 1502 H 139.747 3.90579 3.90067 0
M  V30 1503 H 142.223 1.99509 3.65151 0
M  V30 1504 H 141.099 2.23346 5.01406 0
M  V30 1505 H 141.36 0.617158 4.37771 0
M  V30 1506 N 140.419 -1.14872 1.07899 0
M  V30 1507 C 141.668 -1.85135 0.800499 0
M  V30 1508 C 141.981 -1.83547 -0.676014 0
M  V30 1509 O 143.187 -2.49548 -1.06948 0
M  V30 1510 C 141.643 -3.3231 1.38197 0
M  V30 1511 C 141.251 -3.42329 2.8899 0
M  V30 1512 C 142.995 -4.0772 1.18174 0
M  V30 1513 C 140.902 -4.83684 3.403 0
M  V30 1514 H 139.832 -0.693563 0.29578 0
M  V30 1515 H 142.483 -1.29532 1.29976 0
M  V30 1516 H 140.865 -3.87618 0.810431 0
M  V30 1517 H 142.039 -2.97097 3.52236 0
M  V30 1518 H 140.354 -2.80369 3.07867 0
M  V30 1519 H 142.951 -5.12049 1.5398 0
M  V30 1520 H 143.294 -4.16124 0.12117 0
M  V30 1521 H 143.827 -3.58696 1.71994 0
M  V30 1522 H 140.566 -4.80465 4.45907 0
M  V30 1523 H 140.086 -5.29474 2.81811 0
M  V30 1524 H 141.765 -5.52558 3.36584 0
M  V30 1525 N 141.898 -0.863906 -1.31812 0
M  V30 1526 C 142.845 -0.313303 -2.28664 0
M  V30 1527 C 143.815 0.584868 -1.55462 0
M  V30 1528 O 145 0.517805 -1.83639 0
M  V30 1529 C 142.14 0.48441 -3.41683 0
M  V30 1530 C 141.253 -0.440594 -4.29747 0
M  V30 1531 C 140.388 0.370652 -5.29905 0
M  V30 1532 C 139.427 -0.551164 -6.09613 0
M  V30 1533 N 138.564 0.223462 -7.01744 0
M  V30 1534 H 143.404 -1.14444 -2.75148 0
M  V30 1535 H 140.941 -0.575769 -1.35364 0
M  V30 1536 H 142.899 0.962627 -4.05943 0
M  V30 1537 H 141.529 1.28029 -2.96325 0
M  V30 1538 H 140.581 -1.03724 -3.65986 0
M  V30 1539 H 141.893 -1.14767 -4.85417 0
M  V30 1540 H 141.047 0.911638 -5.99812 0
M  V30 1541 H 139.786 1.11105 -4.74876 0
M  V30 1542 H 138.791 -1.10396 -5.38603 0
M  V30 1543 H 140.016 -1.29032 -6.66729 0
M  V30 1544 H 137.962 0.946787 -6.49132 0
M  V30 1545 H 137.879 -0.424399 -7.54808 0
M  V30 1546 H 139.147 0.745876 -7.75923 0
M  V30 1547 N 143.376 1.44774 -0.622745 0
M  V30 1548 C 144.622 2.0242 -0.124083 0
M  V30 1549 C 144.955 1.4881 1.24777 0
M  V30 1550 O 144.23 0.668799 1.8264 0
M  V30 1551 C 144.513 3.59957 -0.101619 0
M  V30 1552 C 144.366 4.23867 -1.50521 0
M  V30 1553 C 145.685 4.36284 0.578272 0
M  V30 1554 H 142.804 0.735528 -0.0465645 0
M  V30 1555 H 145.446 1.72447 -0.797617 0
M  V30 1556 H 143.596 3.85623 0.471934 0
M  V30 1557 H 145.268 4.09336 -2.12701 0
M  V30 1558 H 143.511 3.81684 -2.06154 0
M  V30 1559 H 144.182 5.32843 -1.4416 0
M  V30 1560 H 146.658 4.16001 0.0906057 0
M  V30 1561 H 145.534 5.46004 0.563149 0
M  V30 1562 H 145.795 4.10271 1.64713 0
M  V30 1563 N 144.854 0.36279 1.53368 0
M  V30 1564 C 146.103 -0.22888 2.00397 0
M  V30 1565 C 146.416 -1.50096 1.25421 0
M  V30 1566 O 147.622 -2.17106 1.63025 0
M  V30 1567 C 146.078 -0.458417 3.56969 0
M  V30 1568 C 145.686 0.798877 4.4082 0
M  V30 1569 C 147.43 -1.00789 4.12361 0
M  V30 1570 C 145.337 0.539078 5.88938 0
M  V30 1571 H 144.267 -0.089305 0.748693 0
M  V30 1572 H 146.918 0.481099 1.77081 0
M  V30 1573 H 145.3 -1.22959 3.76427 0
M  V30 1574 H 146.474 1.57262 4.33134 0
M  V30 1575 H 144.789 1.27137 3.96516 0
M  V30 1576 H 147.386 -1.21754 5.20653 0
M  V30 1577 H 147.729 -1.9692 3.66781 0
M  V30 1578 H 148.262 -0.296961 3.9669 0
M  V30 1579 H 145.001 1.47064 6.3879 0
M  V30 1580 H 144.521 -0.196222 5.99479 0
M  V30 1581 H 146.2 0.163542 6.46793 0
M  V30 1582 N 146.332 -1.57332 0.0918853 0
M  V30 1583 C 147.282 -2.10385 -0.87876 0
M  V30 1584 C 148.266 -1.01814 -1.24591 0
M  V30 1585 O 149.458 -1.28093 -1.22152 0
M  V30 1586 C 146.587 -2.68517 -2.13901 0
M  V30 1587 C 145.673 -3.84126 -1.79744 0
M  V30 1588 N 146.064 -4.92288 -1.1613 0
M  V30 1589 C 144.362 -3.93801 -2.09373 0
M  V30 1590 C 145.063 -5.7295 -1.00513 0
M  V30 1591 N 144.039 -5.21876 -1.5214 0
M  V30 1592 H 147.841 -2.91395 -0.38293 0
M  V30 1593 H 145.355 -1.62017 -0.111423 0
M  V30 1594 H 147.352 -3.04852 -2.84378 0
M  V30 1595 H 146.012 -1.88961 -2.64053 0
M  V30 1596 H 147.023 -5.1123 -0.828504 0
M  V30 1597 H 143.7 -3.25249 -2.61762 0
M  V30 1598 H 145.09 -6.69978 -0.507902 0
M  V30 1599 N 147.81 0.181792 -1.56548 0
M  V30 1600 C 149.058 0.89832 -1.81038 0
M  V30 1601 C 149.379 1.83232 -0.667164 0
M  V30 1602 O 148.649 1.93372 0.313673 0
M  V30 1603 H 147.229 0.33471 -0.667816 0
M  V30 1604 H 149.891 0.184116 -1.94028 0
M  V30 1605 H 148.987 1.4815 -2.74696 0
M  V30 1606 N 149.288 1.51039 0.449983 0
M  V30 1607 C 150.235 1.71439 1.54523 0
M  V30 1608 C 151.205 0.555871 1.56522 0
M  V30 1609 O 152.39 0.788871 1.73728 0
M  V30 1610 C 149.53 1.83384 2.92343 0
M  V30 1611 C 148.643 3.10873 2.9997 0
M  V30 1612 C 147.778 3.13488 4.28834 0
M  V30 1613 C 146.817 4.35343 4.30282 0
M  V30 1614 N 145.954 4.35579 5.5065 0
M  V30 1615 H 150.794 2.64934 1.36433 0
M  V30 1616 H 148.331 1.31312 0.662982 0
M  V30 1617 H 150.289 1.88291 3.72293 0
M  V30 1618 H 148.919 0.933086 3.0902 0
M  V30 1619 H 147.971 3.15336 2.12761 0
M  V30 1620 H 149.283 4.00814 2.96901 0
M  V30 1621 H 148.437 3.17241 5.17149 0
M  V30 1622 H 147.176 2.21414 4.34543 0
M  V30 1623 H 146.181 4.3178 3.40362 0
M  V30 1624 H 147.406 5.28668 4.26248 0
M  V30 1625 H 145.352 3.46369 5.57104 0
M  V30 1626 H 145.269 5.19313 5.49409 0
M  V30 1627 H 146.537 4.43507 6.41032 0
M  V30 1628 N 150.766 -0.704594 1.40972 0
M  V30 1629 C 151.696 -1.83124 1.44872 0
M  V30 1630 C 152.677 -1.67281 0.30838 0
M  V30 1631 O 153.862 -1.87149 0.518556 0
M  V30 1632 C 150.992 -3.21181 1.32136 0
M  V30 1633 C 149.946 -3.51714 2.43888 0
M  V30 1634 C 149.272 -4.89032 2.16222 0
M  V30 1635 C 150.572 -3.516 3.86232 0
M  V30 1636 H 152.266 -1.80117 2.39161 0
M  V30 1637 H 149.812 -0.865145 1.15114 0
M  V30 1638 H 151.765 -3.99702 1.33479 0
M  V30 1639 H 150.489 -3.24791 0.343279 0
M  V30 1640 H 149.148 -2.75539 2.41813 0
M  V30 1641 H 148.796 -4.89256 1.16778 0
M  V30 1642 H 148.496 -5.10426 2.911 0
M  V30 1643 H 150.02 -5.69873 2.19265 0
M  V30 1644 H 151.434 -4.2014 3.9007 0
M  V30 1645 H 149.831 -3.84523 4.60719 0
M  V30 1646 H 150.901 -2.50757 4.15029 0
M  V30 1647 N 152.244 -1.26651 -0.937939 0
M  V30 1648 C 153.174 -1.10993 -2.05433 0
M  V30 1649 C 154.155 -0.0142161 -1.70094 0
M  V30 1650 O 155.34 -0.186837 -1.93299 0
M  V30 1651 C 152.47 -0.745561 -3.39203 0
M  V30 1652 C 151.424 -1.79337 -3.88616 0
M  V30 1653 C 150.75 -1.28324 -5.19073 0
M  V30 1654 C 152.05 -3.19553 -4.13138 0
M  V30 1655 H 153.744 -2.0438 -2.1879 0
M  V30 1656 H 151.29 -0.984041 -1.05131 0
M  V30 1657 H 153.243 -0.622888 -4.16771 0
M  V30 1658 H 151.967 0.22401 -3.25831 0
M  V30 1659 H 150.626 -1.90477 -3.13231 0
M  V30 1660 H 150.274 -0.303414 -5.02084 0
M  V30 1661 H 149.974 -1.98369 -5.53103 0
M  V30 1662 H 151.498 -1.1733 -5.99221 0
M  V30 1663 H 152.912 -3.11471 -4.81309 0
M  V30 1664 H 151.309 -3.87218 -4.58457 0
M  V30 1665 H 152.379 -3.65368 -3.18801 0
M  V30 1666 N 153.722 1.14298 -1.08507 0
M  V30 1667 C 154.999 1.81544 -0.728088 0
M  V30 1668 C 155.379 1.95838 0.78808 0
M  V30 1669 O 154.727 1.51904 1.70697 0
M  V30 1670 C 154.937 3.17169 -1.45619 0
M  V30 1671 C 156.285 3.9265 -1.61591 0
M  V30 1672 O 157.309 3.26762 -1.41793 0
M  V30 1673 O 156.168 5.10807 -1.94263 0
M  V30 1674 H 153.262 0.78491 -0.260471 0
M  V30 1675 H 155.808 1.21307 -1.18671 0
M  V30 1676 H 154.58 3.01934 -2.489 0
M  V30 1677 H 154.203 3.851 -0.989124 0
M  V30 1678 N 155.201 0.870884 1.31352 0
M  V30 1679 C 156.134 0.271983 2.26573 0
M  V30 1680 C 157.112 -0.599385 1.51149 0
M  V30 1681 O 158.296 -0.552605 1.80218 0
M  V30 1682 C 155.423 -0.614801 3.33073 0
M  V30 1683 C 154.469 0.185342 4.26097 0
M  V30 1684 S 155.302 1.56444 5.12138 0
M  V30 1685 C 156.458 0.683807 6.22153 0
M  V30 1686 H 156.691 1.07916 2.77023 0
M  V30 1687 H 154.224 0.669459 1.39132 0
M  V30 1688 H 156.182 -1.12074 3.94905 0
M  V30 1689 H 154.843 -1.39593 2.81376 0
M  V30 1690 H 154.036 -0.490771 5.01605 0
M  V30 1691 H 153.638 0.623415 3.68768 0
M  V30 1692 H 155.93 -0.10521 6.77418 0
M  V30 1693 H 156.873 1.41004 6.93919 0
M  V30 1694 H 157.281 0.250952 5.63942 0
M  V30 1695 N 156.679 -1.44442 0.630414 0
M  V30 1696 C 157.925 -2.02351 0.134816 0
M  V30 1697 C 158.258 -1.4947 -1.23986 0
M  V30 1698 O 157.533 -0.678475 -1.82283 0
M  V30 1699 C 157.816 -3.59898 0.120707 0
M  V30 1700 C 157.669 -4.23063 1.52767 0
M  V30 1701 C 158.988 -4.36585 -0.555127 0
M  V30 1702 H 156.107 -0.73527 0.0504646 0
M  V30 1703 H 158.749 -1.72022 0.806751 0
M  V30 1704 H 156.899 -3.85868 -0.451477 0
M  V30 1705 H 158.571 -4.08202 2.14869 0
M  V30 1706 H 156.814 -3.80586 2.08175 0
M  V30 1707 H 157.485 -5.32071 1.46984 0
M  V30 1708 H 159.961 -4.16044 -0.0685429 0
M  V30 1709 H 158.837 -5.46294 -0.534185 0
M  V30 1710 H 159.098 -4.11138 -1.62535 0
M  V30 1711 N 158.157 -0.370918 -1.53173 0
M  V30 1712 C 159.405 0.216673 -2.00935 0
M  V30 1713 C 159.726 1.48845 -1.25977 0
M  V30 1714 O 158.996 1.92286 -0.374551 0
M  V30 1715 H 157.576 0.0830565 -0.742368 0
M  V30 1716 H 160.238 -0.49838 -1.8842 0
M  V30 1717 H 159.334 0.439893 -3.08984 0
M  V30 1718 N 159.635 1.57281 -0.100228 0
M  V30 1719 C 160.582 2.14305 0.856858 0
M  V30 1720 C 161.552 1.06296 1.27634 0
M  V30 1721 O 162.737 1.34109 1.35718 0
M  V30 1722 C 159.877 2.73184 2.10866 0
M  V30 1723 C 158.99 3.95442 1.73925 0
M  V30 1724 C 158.125 4.42468 2.93931 0
M  V30 1725 C 157.164 5.57303 2.5314 0
M  V30 1726 N 156.301 5.99158 3.65997 0
M  V30 1727 H 161.141 2.95772 0.363726 0
M  V30 1728 H 158.678 1.46139 0.167858 0
M  V30 1729 H 160.636 3.05442 2.84185 0
M  V30 1730 H 159.266 1.94437 2.57671 0
M  V30 1731 H 158.318 3.69464 0.905554 0
M  V30 1732 H 159.63 4.78769 1.39935 0
M  V30 1733 H 158.784 4.76537 3.75496 0
M  V30 1734 H 157.523 3.58052 3.31134 0
M  V30 1735 H 156.528 5.22857 1.70003 0
M  V30 1736 H 157.753 6.43471 2.17075 0
M  V30 1737 H 155.699 5.17687 4.02909 0
M  V30 1738 H 155.616 6.77295 3.35869 0
M  V30 1739 H 156.884 6.3786 4.48057 0
M  V30 1740 N 161.113 -0.173488 1.56642 0
M  V30 1741 C 162.359 -0.891784 1.8214 0
M  V30 1742 C 162.692 -1.8199 0.677736 0
M  V30 1743 O 161.967 -1.91842 -0.320446 0
M  V30 1744 C 162.25 -1.68933 3.18015 0
M  V30 1745 C 162.103 -0.784487 4.42906 0
M  V30 1746 C 163.422 -2.65748 3.50808 0
M  V30 1747 H 160.541 -0.322761 0.662567 0
M  V30 1748 H 163.183 -0.158095 1.89341 0
M  V30 1749 H 161.333 -2.31482 3.12007 0
M  V30 1750 H 163.005 -0.172046 4.60979 0
M  V30 1751 H 161.248 -0.0924117 4.33702 0
M  V30 1752 H 161.919 -1.37799 5.34524 0
M  V30 1753 H 164.395 -2.13327 3.57255 0
M  V30 1754 H 163.271 -3.18619 4.4696 0
M  V30 1755 H 163.532 -3.45842 2.75401 0
M  V30 1756 N 162.591 -1.51276 -0.441967 0
M  V30 1757 C 163.523 -1.68444 -1.55433 0
M  V30 1758 C 164.536 -0.565187 -1.52674 0
M  V30 1759 O 165.725 -0.839356 -1.57534 0
M  V30 1760 C 162.825 -1.67966 -2.94348 0
M  V30 1761 C 161.998 -2.964 -3.21661 0
M  V30 1762 C 161.057 -2.88171 -4.40277 0
M  V30 1763 O 160.083 -3.62119 -4.39157 0
M  V30 1764 N 161.285 -2.03706 -5.43584 0
M  V30 1765 H 164.05 -2.644 -1.41112 0
M  V30 1766 H 161.611 -1.49104 -0.630838 0
M  V30 1767 H 163.603 -1.60035 -3.71713 0
M  V30 1768 H 162.173 -0.796225 -3.0229 0
M  V30 1769 H 161.393 -3.18234 -2.32638 0
M  V30 1770 H 162.681 -3.81427 -3.36736 0
M  V30 1771 H 162.079 -1.42995 -5.47329 0
M  V30 1772 H 160.636 -2.01658 -6.1982 0
M  V30 1773 N 164.069 0.697108 -1.41344 0
M  V30 1774 C 165.318 1.45279 -1.39918 0
M  V30 1775 C 165.631 1.95597 -0.0109624 0
M  V30 1776 O 166.837 2.71208 0.125919 0
M  V30 1777 C 165.293 2.62695 -2.46007 0
M  V30 1778 C 164.901 2.19169 -3.90729 0
M  V30 1779 C 166.645 3.40336 -2.53715 0
M  V30 1780 C 164.552 3.33535 -4.88373 0
M  V30 1781 H 163.482 0.545692 -0.520323 0
M  V30 1782 H 166.133 0.756929 -1.67161 0
M  V30 1783 H 164.515 3.34541 -2.11892 0
M  V30 1784 H 165.689 1.54623 -4.34083 0
M  V30 1785 H 164.004 1.54525 -3.86666 0
M  V30 1786 H 166.601 4.2547 -3.2385 0
M  V30 1787 H 166.944 3.85418 -1.5735 0
M  V30 1788 H 167.477 2.75546 -2.86913 0
M  V30 1789 H 164.216 2.93468 -5.86137 0
M  V30 1790 H 163.736 3.96936 -4.49668 0
M  V30 1791 H 165.415 3.99335 -5.09059 0
M  V30 1792 N 165.547 1.27147 0.931209 0
M  V30 1793 C 166.958 1.12044 1.49342 0
M  V30 1794 C 167.309 -0.295795 1.93957 0
M  V30 1795 O 166.434 -1.18835 1.80852 0
M  V30 1796 C 167.029 2.02781 2.71414 0
M  V30 1797 C 165.588 1.91794 3.2387 0
M  V30 1798 C 164.735 1.95543 1.96617 0
M  V30 1799 H 167.686 1.40091 0.745672 0
M  V30 1800 H 167.707 1.58156 3.46074 0
M  V30 1801 H 167.219 3.05848 2.38911 0
M  V30 1802 H 165.32 0.916992 3.6114 0
M  V30 1803 H 165.433 2.77852 3.90302 0
M  V30 1804 H 163.797 1.39722 2.12955 0
M  V30 1805 H 164.58 3.00259 1.66432 0
M  V30 1806 N 167.025 -1.13721 1.09112 0
M  V30 1807 C 168.274 -1.84275 0.82009 0
M  V30 1808 C 168.587 -1.84253 -0.656509 0
M  V30 1809 O 169.793 -2.50668 -1.04296 0
M  V30 1810 C 168.249 -3.30825 1.41714 0
M  V30 1811 C 167.857 -3.39244 2.92605 0
M  V30 1812 C 169.601 -4.06443 1.22492 0
M  V30 1813 C 167.508 -4.80047 3.45411 0
M  V30 1814 H 166.438 -0.690387 0.30312 0
M  V30 1815 H 169.089 -1.28146 1.31343 0
M  V30 1816 H 167.471 -3.86737 0.851498 0
M  V30 1817 H 168.645 -2.93344 3.55367 0
M  V30 1818 H 166.96 -2.77088 3.10823 0
M  V30 1819 H 169.557 -5.10387 1.59402 0
M  V30 1820 H 169.9 -4.15972 0.165299 0
M  V30 1821 H 170.433 -3.56852 1.75788 0
M  V30 1822 H 167.172 -4.75709 4.50978 0
M  V30 1823 H 166.692 -5.26455 2.87411 0
M  V30 1824 H 168.371 -5.48957 3.42425 0
M  V30 1825 N 168.503 -0.877838 -1.30888 0
M  V30 1826 C 169.436 -0.283995 -2.26426 0
M  V30 1827 C 170.414 0.591361 -1.51465 0
M  V30 1828 O 171.598 0.54304 -1.80509 0
M  V30 1829 C 168.725 0.597129 -3.33395 0
M  V30 1830 C 167.771 -0.207937 -4.25993 0
M  V30 1831 S 168.604 -1.59158 -5.11301 0
M  V30 1832 C 169.76 -0.716791 -6.21782 0
M  V30 1833 H 169.993 -1.09383 -2.76446 0
M  V30 1834 H 167.526 -0.676828 -1.38775 0
M  V30 1835 H 169.484 1.09978 -3.95493 0
M  V30 1836 H 168.145 1.38099 -2.82113 0
M  V30 1837 H 167.338 0.464163 -5.01858 0
M  V30 1838 H 166.94 -0.642963 -3.68432 0
M  V30 1839 H 169.232 0.0692833 -6.77465 0
M  V30 1840 H 170.175 -1.44682 -6.93161 0
M  V30 1841 H 170.583 -0.280855 -5.63801 0
M  V30 1842 N 169.982 1.44106 -0.638065 0
M  V30 1843 C 170.912 2.33448 0.0494287 0
M  V30 1844 C 171.893 1.48606 0.827672 0
M  V30 1845 O 173.078 1.77308 0.792173 0
M  V30 1846 C 170.208 3.31771 1.02691 0
M  V30 1847 C 169.162 4.26485 0.359823 0
M  V30 1848 C 168.488 5.14729 1.44769 0
M  V30 1849 C 169.788 5.17056 -0.738296 0
M  V30 1850 H 171.482 2.91183 -0.696636 0
M  V30 1851 H 169.028 1.40014 -0.336456 0
M  V30 1852 H 170.981 3.93161 1.51666 0
M  V30 1853 H 169.705 2.7226 1.80395 0
M  V30 1854 H 168.364 3.66437 -0.10934 0
M  V30 1855 H 168.012 4.51566 2.21578 0
M  V30 1856 H 167.712 5.78913 1.00668 0
M  V30 1857 H 169.236 5.78991 1.93911 0
M  V30 1858 H 170.65 5.72342 -0.331354 0
M  V30 1859 H 169.047 5.89879 -1.10286 0
M  V30 1860 H 170.117 4.57652 -1.60258 0
M  V30 1861 N 171.46 0.379036 1.52974 0
M  V30 1862 C 172.706 -0.206727 2.01744 0
M  V30 1863 C 173.039 -1.47314 1.26539 0
M  V30 1864 O 172.314 -1.91084 0.362903 0
M  V30 1865 C 172.597 -0.485066 3.56818 0
M  V30 1866 C 172.45 0.795919 4.42702 0
M  V30 1867 C 173.769 -1.28003 4.21074 0
M  V30 1868 H 170.888 -0.0736607 0.73331 0
M  V30 1869 H 173.53 0.506581 1.83122 0
M  V30 1870 H 171.68 -1.09272 3.72816 0
M  V30 1871 H 173.352 1.43307 4.38476 0
M  V30 1872 H 171.595 1.41344 4.10127 0
M  V30 1873 H 172.266 0.555947 5.49193 0
M  V30 1874 H 174.742 -0.765867 4.08991 0
M  V30 1875 H 173.618 -1.44352 5.29579 0
M  V30 1876 H 173.879 -2.29236 3.78026 0
M  V30 1877 N 172.938 -1.57226 0.108567 0
M  V30 1878 C 174.186 -1.94448 -0.550853 0
M  V30 1879 C 174.507 -0.992074 -1.67878 0
M  V30 1880 O 173.777 -0.0465 -1.95845 0
M  V30 1881 H 172.357 -0.717897 -0.206479 0
M  V30 1882 H 175.019 -1.94112 0.175062 0
M  V30 1883 H 174.115 -2.97218 -0.952259 0
M  V30 1884 N 174.416 0.165178 -1.56732 0
M  V30 1885 C 175.364 1.22369 -1.97809 0
M  V30 1886 C 176.358 1.45488 -0.867741 0
M  V30 1887 O 177.564 1.45995 -1.05288 0
M  V30 1888 H 173.939 0.411486 -0.629431 0
M  V30 1889 H 175.91 0.850425 -2.86025 0
M  V30 1890 C 174.659 2.55403 -2.35934 0
M  V30 1891 H 173.982 2.38438 -3.20916 0
M  V30 1892 H 175.422 3.2814 -2.68514 0
M  V30 1893 C 173.881 3.14611 -1.20506 0
M  V30 1894 O 174.411 3.98626 -0.496016 0
M  V30 1895 N 172.617 2.7379 -0.97403 0
M  V30 1896 H 172.164 2.0557 -1.55238 0
M  V30 1897 H 172.122 3.1374 -0.203573 0
M  V30 1898 N 175.894 1.51508 0.433938 0
M  V30 1899 C 176.841 1.73068 1.52696 0
M  V30 1900 C 177.811 0.572441 1.55924 0
M  V30 1901 O 178.996 0.807253 1.72882 0
M  V30 1902 C 176.136 1.86474 2.90381 0
M  V30 1903 C 175.249 3.14037 2.96656 0
M  V30 1904 C 174.384 3.18019 4.25485 0
M  V30 1905 C 173.423 4.39882 4.2564 0
M  V30 1906 N 172.56 4.41394 5.45999 0
M  V30 1907 H 177.4 2.66366 1.33615 0
M  V30 1908 H 174.937 1.32008 0.649018 0
M  V30 1909 H 176.895 1.92229 3.70275 0
M  V30 1910 H 175.525 0.965809 3.08013 0
M  V30 1911 H 174.577 3.17575 2.09404 0
M  V30 1912 H 175.889 4.0394 2.92633 0
M  V30 1913 H 175.043 3.22708 5.13755 0
M  V30 1914 H 173.782 2.2601 4.3217 0
M  V30 1915 H 172.787 4.35366 3.35763 0
M  V30 1916 H 174.012 5.33159 4.20617 0
M  V30 1917 H 171.958 3.52258 5.53399 0
M  V30 1918 H 171.875 5.25111 5.4387 0
M  V30 1919 H 173.143 4.50281 6.36292 0
M  V30 1920 N 177.372 -0.689602 1.41712 0
M  V30 1921 C 178.319 -1.80345 1.44029 0
M  V30 1922 C 179.289 -1.63478 0.293948 0
M  V30 1923 O 180.474 -1.84244 0.495869 0
M  V30 1924 C 177.614 -3.18272 1.33405 0
M  V30 1925 C 176.727 -3.46529 2.57956 0
M  V30 1926 C 175.862 -4.74103 2.39582 0
M  V30 1927 C 174.901 -4.95347 3.5958 0
M  V30 1928 N 174.038 -6.14151 3.40239 0
M  V30 1929 H 178.878 -1.77698 2.39222 0
M  V30 1930 H 176.415 -0.867688 1.18784 0
M  V30 1931 H 178.373 -3.97956 1.25246 0
M  V30 1932 H 177.003 -3.2008 0.418164 0
M  V30 1933 H 176.055 -2.61207 2.76542 0
M  V30 1934 H 177.367 -3.58126 3.47199 0
M  V30 1935 H 176.521 -5.61853 2.28924 0
M  V30 1936 H 175.26 -4.64763 1.47805 0
M  V30 1937 H 174.265 -4.06044 3.70686 0
M  V30 1938 H 175.49 -5.06542 4.52318 0
M  V30 1939 H 173.436 -6.06013 2.51167 0
M  V30 1940 H 173.353 -6.26543 4.23061 0
M  V30 1941 H 174.621 -7.04619 3.33365 0
M  V30 1942 N 178.85 -1.27639 -0.924453 0
M  V30 1943 C 180.127 -1.04887 -1.651 0
M  V30 1944 C 180.507 0.415327 -2.06974 0
M  V30 1945 O 179.855 1.39923 -1.80648 0
M  V30 1946 C 180.065 -2.01348 -2.85061 0
M  V30 1947 C 181.413 -2.30899 -3.56329 0
M  V30 1948 O 182.437 -1.99348 -2.95193 0
M  V30 1949 O 181.296 -2.84699 -4.66485 0
M  V30 1950 H 178.39 -0.400083 -0.723784 0
M  V30 1951 H 180.936 -1.38916 -0.974703 0
M  V30 1952 H 179.708 -3.0008 -2.51133 0
M  V30 1953 H 179.331 -1.679 -3.6041 0
M  V30 1954 N 180.328 1.1314 -1.09713 0
M  V30 1955 C 181.258 2.20748 -0.761102 0
M  V30 1956 C 182.239 1.68061 0.262566 0
M  V30 1957 O 183.424 1.93765 0.129977 0
M  V30 1958 C 180.554 3.46812 -0.184054 0
M  V30 1959 C 179.508 4.12606 -1.13757 0
M  V30 1960 C 178.834 5.33031 -0.422083 0
M  V30 1961 C 180.134 4.59603 -2.48118 0
M  V30 1962 H 181.828 2.49113 -1.66082 0
M  V30 1963 H 179.374 1.19734 -0.799987 0
M  V30 1964 H 181.327 4.21353 0.0631215 0
M  V30 1965 H 180.051 3.17851 0.750868 0
M  V30 1966 H 178.71 3.40036 -1.37007 0
M  V30 1967 H 178.358 5.00335 0.517072 0
M  V30 1968 H 178.058 5.77999 -1.05788 0
M  V30 1969 H 179.582 6.10325 -0.183277 0
M  V30 1970 H 180.996 5.25552 -2.29059 0
M  V30 1971 H 179.393 5.15321 -3.07514 0
M  V30 1972 H 180.463 3.73971 -3.08665 0
M  V30 1973 N 181.806 0.884767 1.30421 0
M  V30 1974 C 182.756 0.322846 2.25703 0
M  V30 1975 C 183.74 -0.548582 1.51259 0
M  V30 1976 O 184.932 -0.39304 1.72581 0
M  V30 1977 C 182.061 -0.461787 3.4018 0
M  V30 1978 C 181.147 0.423717 4.21978 0
M  V30 1979 N 181.538 1.52408 4.82292 0
M  V30 1980 C 179.836 0.218795 4.45463 0
M  V30 1981 C 180.537 2.07136 5.43571 0
M  V30 1982 N 179.513 1.36635 5.26148 0
M  V30 1983 H 183.315 1.16363 2.69883 0
M  V30 1984 H 180.829 0.73415 1.44859 0
M  V30 1985 H 182.826 -0.880985 4.07485 0
M  V30 1986 H 181.486 -1.30001 2.9754 0
M  V30 1987 H 182.497 1.90693 4.81515 0
M  V30 1988 H 179.174 -0.582275 4.1342 0
M  V30 1989 H 180.564 2.99538 6.01437 0
M  V30 1990 N 183.284 -1.43765 0.645699 0
M  V30 1991 C 184.217 -2.2798 -0.100072 0
M  V30 1992 C 185.195 -1.39391 -0.837194 0
M  V30 1993 O 186.379 -1.68833 -0.838306 0
M  V30 1994 C 183.506 -3.18643 -1.14823 0
M  V30 1995 C 182.552 -4.2344 -0.510009 0
M  V30 1996 S 183.385 -5.30761 0.710824 0
M  V30 1997 C 184.541 -6.24992 -0.33699 0
M  V30 1998 H 184.774 -2.90884 0.614322 0
M  V30 1999 H 182.307 -1.48166 0.434304 0
M  V30 2000 H 184.265 -3.71424 -1.74799 0
M  V30 2001 H 182.926 -2.54932 -1.8349 0
M  V30 2002 H 182.119 -4.86948 -1.29991 0
M  V30 2003 H 181.721 -3.73997 0.0154577 0
M  V30 2004 H 184.013 -6.66691 -1.20537 0
M  V30 2005 H 184.956 -7.07612 0.262879 0
M  V30 2006 H 185.364 -5.60517 -0.669425 0
M  V30 2007 N 184.763 -0.387143 -1.52771 0
M  V30 2008 C 185.673 0.456442 -2.30117 0
M  V30 2009 C 186.689 1.07342 -1.36944 0
M  V30 2010 O 187.865 1.07971 -1.70013 0
M  V30 2011 C 184.93 1.56957 -3.09136 0
M  V30 2012 C 183.991 0.977916 -4.18014 0
M  V30 2013 C 183.224 2.038 -4.93256 0
M  V30 2014 O 183.447 3.25271 -4.68567 0
M  V30 2015 O 182.381 1.6565 -5.78657 0
M  V30 2016 H 186.207 -0.17359 -3.03203 0
M  V30 2017 H 183.792 -0.150919 -1.48636 0
M  V30 2018 H 185.674 2.21628 -3.58412 0
M  V30 2019 H 184.349 2.18461 -2.38865 0
M  V30 2020 H 183.256 0.294525 -3.72939 0
M  V30 2021 H 184.589 0.407128 -4.90513 0
M  V30 2022 N 186.241 1.57166 -0.116904 0
M  V30 2023 C 187.657 1.5779 0.239693 0
M  V30 2024 C 187.857 1.1295 1.66867 0
M  V30 2025 O 186.913 0.81592 2.38954 0
M  V30 2026 C 188.226 3.00699 0.00828202 0
M  V30 2027 C 189.774 3.12912 0.0743438 0
M  V30 2028 C 190.249 4.57817 -0.129348 0
M  V30 2029 N 191.74 4.63139 -0.075247 0
M  V30 2030 C 192.475 5.73023 -0.207788 0
M  V30 2031 N 191.971 6.91665 -0.396382 0
M  V30 2032 N 193.764 5.61906 -0.14751 0
M  V30 2033 H 185.915 1.84615 -1.05029 0
M  V30 2034 H 188.178 0.85311 -0.41341 0
M  V30 2035 H 187.884 3.37784 -0.979531 0
M  V30 2036 H 187.758 3.69848 0.741077 0
M  V30 2037 H 190.145 2.75686 1.05268 0
M  V30 2038 H 190.226 2.4631 -0.690297 0
M  V30 2039 H 189.87 4.95742 -1.10465 0
M  V30 2040 H 189.8 5.22507 0.655253 0
M  V30 2041 H 192.291 3.7784 0.0670898 0
M  V30 2042 H 192.604 7.71255 -0.488437 0
M  V30 2043 H 190.949 6.93654 -0.432329 0
M  V30 2044 H 194.14 4.681 -0.00115036 0
M  V30 2045 H 194.313 6.47501 -0.254247 0
M  V30 2046 N 187.719 -0.156864 1.56817 0
M  V30 2047 C 188.965 -0.872416 1.83076 0
M  V30 2048 C 189.298 -1.81261 0.697001 0
M  V30 2049 O 188.573 -1.92171 -0.30008 0
M  V30 2050 C 188.856 -1.65551 3.19789 0
M  V30 2051 C 188.709 -0.737467 4.43713 0
M  V30 2052 C 190.028 -2.62012 3.53606 0
M  V30 2053 H 187.147 -0.315715 0.665953 0
M  V30 2054 H 189.789 -0.138004 1.89498 0
M  V30 2055 H 187.939 -2.28159 3.14445 0
M  V30 2056 H 189.611 -0.123143 4.61136 0
M  V30 2057 H 187.854 -0.0464067 4.33775 0
M  V30 2058 H 188.525 -1.32122 5.35955 0
M  V30 2059 H 191.001 -2.09525 3.59497 0
M  V30 2060 H 189.877 -3.13861 4.50314 0
M  V30 2061 H 190.138 -3.42902 2.79053 0
M  V30 2062 N 189.197 -1.51736 -0.425897 0
M  V30 2063 C 190.446 -1.64201 -1.17136 0
M  V30 2064 C 190.759 -0.369705 -1.92074 0
M  V30 2065 O 191.965 -0.373898 -2.68913 0
M  V30 2066 C 190.421 -2.90035 -2.13091 0
M  V30 2067 C 190.029 -4.24312 -1.43747 0
M  V30 2068 C 191.773 -3.1186 -2.87999 0
M  V30 2069 C 189.68 -5.41285 -2.38253 0
M  V30 2070 H 188.61 -0.611624 -0.440944 0
M  V30 2071 H 191.261 -1.78212 -0.437328 0
M  V30 2072 H 189.643 -2.69684 -2.89977 0
M  V30 2073 H 190.817 -4.55086 -0.723408 0
M  V30 2074 H 189.132 -4.08456 -0.809465 0
M  V30 2075 H 191.729 -3.96427 -3.58817 0
M  V30 2076 H 192.072 -2.25403 -3.49999 0
M  V30 2077 H 192.605 -3.32605 -2.18217 0
M  V30 2078 H 189.344 -6.30037 -1.80925 0
M  V30 2079 H 188.864 -5.14872 -3.0768 0
M  V30 2080 H 190.543 -5.73694 -2.99139 0
M  V30 2081 N 190.675 0.682077 -1.42076 0
M  V30 2082 C 191.9 1.47558 -1.45744 0
M  V30 2083 C 192.325 1.87977 -0.0680981 0
M  V30 2084 O 191.683 1.55522 0.9318 0
M  V30 2085 C 191.731 2.70575 -2.38373 0
M  V30 2086 O 190.835 3.68573 -1.85007 0
M  V30 2087 H 190.176 0.443585 -0.494093 0
M  V30 2088 H 192.706 0.837238 -1.86686 0
M  V30 2089 H 192.716 3.18729 -2.54707 0
M  V30 2090 H 191.391 2.40495 -3.39315 0
M  V30 2091 H 189.968 3.2757 -1.78192 0
M  V30 2092 N 192.153 1.28127 0.917671 0
M  V30 2093 C 193.383 1.17722 1.6978 0
M  V30 2094 C 193.791 -0.267261 1.87303 0
M  V30 2095 O 193.134 -1.19286 1.39702 0
M  V30 2096 C 193.196 1.79958 3.11216 0
M  V30 2097 C 192.86 3.29187 3.16993 0
M  V30 2098 C 193.857 4.25679 2.98485 0
M  V30 2099 C 191.542 3.70075 3.39632 0
M  V30 2100 C 193.536 5.61035 3.02521 0
M  V30 2101 C 191.223 5.05557 3.433 0
M  V30 2102 C 192.221 6.00847 3.24764 0
M  V30 2103 O 191.909 7.33859 3.28187 0
M  V30 2104 H 191.641 0.409788 0.537634 0
M  V30 2105 H 194.195 1.69694 1.15728 0
M  V30 2106 H 192.425 1.22475 3.66793 0
M  V30 2107 H 194.114 1.64125 3.71238 0
M  V30 2108 H 194.88 3.95426 2.80826 0
M  V30 2109 H 190.759 2.96373 3.53106 0
M  V30 2110 H 194.303 6.35388 2.87971 0
M  V30 2111 H 190.2 5.35462 3.60486 0
M  V30 2112 H 190.968 7.42436 3.44575 0
M  V30 2113 N 193.631 -1.12557 1.10312 0
M  V30 2114 C 194.541 -2.21841 0.763142 0
M  V30 2115 C 195.557 -1.72354 -0.238801 0
M  V30 2116 O 196.733 -2.01249 -0.0778746 0
M  V30 2117 C 193.798 -3.46131 0.198632 0
M  V30 2118 C 192.859 -4.10464 1.25769 0
M  V30 2119 C 192.092 -5.28821 0.72002 0
M  V30 2120 O 192.315 -5.6859 -0.453993 0
M  V30 2121 O 191.249 -5.83437 1.47935 0
M  V30 2122 H 195.075 -2.53312 1.67532 0
M  V30 2123 H 192.66 -1.20867 0.878157 0
M  V30 2124 H 194.542 -4.2125 -0.112401 0
M  V30 2125 H 193.217 -3.16338 -0.686419 0
M  V30 2126 H 192.124 -3.3713 1.62156 0
M  V30 2127 H 193.457 -4.44408 2.11571 0
M  V30 2128 N 195.109 -0.891671 -1.2995 0
M  V30 2129 C 196.019 -0.367691 -2.31701 0
M  V30 2130 C 197.035 0.533486 -1.6562 0
M  V30 2131 O 198.211 0.424997 -1.96865 0
M  V30 2132 C 195.276 0.403406 -3.44345 0
M  V30 2133 C 194.337 -0.528328 -4.26037 0
M  V30 2134 C 193.57 0.206063 -5.33302 0
M  V30 2135 O 193.793 1.43119 -5.52153 0
M  V30 2136 O 192.727 -0.447281 -6.00236 0
M  V30 2137 H 196.553 -1.21163 -2.78484 0
M  V30 2138 H 194.138 -0.655725 -1.34241 0
M  V30 2139 H 196.02 0.839753 -4.12948 0
M  V30 2140 H 194.695 1.22354 -2.99685 0
M  V30 2141 H 193.602 -1.01362 -3.60106 0
M  V30 2142 H 194.935 -1.31465 -4.74318 0
M  V30 2143 N 196.587 1.43421 -0.653314 0
M  V30 2144 C 197.835 2.01414 -0.166415 0
M  V30 2145 C 198.156 1.51803 1.22397 0
M  V30 2146 O 197.426 0.730693 1.81763 0
M  V30 2147 H 196.006 0.744703 -0.0585319 0
M  V30 2148 H 198.668 1.75629 -0.845003 0
M  V30 2149 H 197.764 3.11734 -0.151111 0
M  V30 2150 N 198.065 0.39524 1.52563 0
M  V30 2151 C 199.012 -0.437036 2.26624 0
M  V30 2152 C 199.982 -1.05281 1.28472 0
M  V30 2153 O 201.167 -1.07971 1.57311 0
M  V30 2154 C 198.307 -1.55524 3.08069 0
M  V30 2155 C 197.42 -0.961745 4.21158 0
M  V30 2156 C 196.555 -2.05149 4.89987 0
M  V30 2157 C 195.594 -1.4342 5.95061 0
M  V30 2158 N 194.731 -2.46351 6.57462 0
M  V30 2159 H 199.571 0.200976 2.97322 0
M  V30 2160 H 197.108 0.110944 1.46681 0
M  V30 2161 H 199.066 -2.21437 3.53584 0
M  V30 2162 H 197.696 -2.16348 2.3957 0
M  V30 2163 H 196.748 -0.192048 3.79915 0
M  V30 2164 H 198.06 -0.470701 4.96574 0
M  V30 2165 H 197.214 -2.78819 5.38837 0
M  V30 2166 H 195.953 -2.57615 4.14109 0
M  V30 2167 H 194.958 -0.682774 5.45544 0
M  V30 2168 H 196.183 -0.917416 6.72875 0
M  V30 2169 H 194.129 -2.97975 5.8442 0
M  V30 2170 H 194.046 -2.02019 7.28508 0
M  V30 2171 H 195.314 -3.19633 7.10954 0
M  V30 2172 N 199.544 -1.57102 0.125237 0
M  V30 2173 C 200.507 -2.14471 -0.80838 0
M  V30 2174 C 201.507 -1.0811 -1.19033 0
M  V30 2175 O 202.697 -1.33856 -1.11482 0
M  V30 2176 C 199.829 -2.69005 -2.09402 0
M  V30 2177 H 201.022 -2.98297 -0.309696 0
M  V30 2178 H 198.575 -1.55807 -0.124051 0
M  V30 2179 H 199.31 -1.88785 -2.63687 0
M  V30 2180 H 199.095 -3.46799 -1.82957 0
M  V30 2181 H 200.585 -3.13278 -2.76128 0
M  V30 2182 N 201.022 0.148545 -1.56898 0
M  V30 2183 C 201.952 1.18524 -2.01182 0
M  V30 2184 C 202.933 1.4489 -0.891123 0
M  V30 2185 O 204.118 1.55836 -1.15882 0
M  V30 2186 C 201.248 2.51879 -2.39112 0
M  V30 2187 C 200.202 2.40038 -3.54353 0
M  V30 2188 C 199.528 3.78089 -3.78091 0
M  V30 2189 C 200.828 1.88577 -4.87069 0
M  V30 2190 H 202.522 0.817029 -2.88036 0
M  V30 2191 H 200.068 0.391575 -1.38574 0
M  V30 2192 H 202.021 3.24627 -2.68692 0
M  V30 2193 H 200.745 2.90532 -1.49193 0
M  V30 2194 H 199.404 1.69742 -3.24936 0
M  V30 2195 H 199.052 4.14175 -2.85426 0
M  V30 2196 H 198.752 3.71028 -4.55645 0
M  V30 2197 H 200.276 4.52387 -4.10095 0
M  V30 2198 H 201.69 2.51117 -5.15377 0
M  V30 2199 H 200.087 1.9241 -5.68417 0
M  V30 2200 H 201.157 0.84136 -4.77545 0
M  V30 2201 N 202.5 1.5196 0.417844 0
M  V30 2202 C 203.463 1.74065 1.49111 0
M  V30 2203 C 204.463 0.610537 1.48758 0
M  V30 2204 O 205.653 0.87832 1.50437 0
M  V30 2205 C 202.785 1.81502 2.88565 0
M  V30 2206 H 203.978 2.69869 1.30807 0
M  V30 2207 H 201.531 1.42244 0.647785 0
M  V30 2208 H 202.266 0.875813 3.1225 0
M  V30 2209 H 202.051 2.63651 2.90225 0
M  V30 2210 H 203.541 2.00376 3.66387 0
M  V30 2211 N 203.978 -0.674533 1.42435 0
M  V30 2212 C 204.888 -1.81751 1.48337 0
M  V30 2213 C 205.904 -1.69975 0.372099 0
M  V30 2214 O 207.08 -1.91521 0.62304 0
M  V30 2215 C 204.145 -3.17895 1.38361 0
M  V30 2216 C 203.206 -3.41625 2.59982 0
M  V30 2217 C 202.439 -4.71274 2.50473 0
M  V30 2218 O 202.662 -5.49197 1.54075 0
M  V30 2219 O 201.596 -4.96254 3.4061 0
M  V30 2220 H 205.422 -1.79728 2.44809 0
M  V30 2221 H 203.007 -0.830312 1.24202 0
M  V30 2222 H 204.889 -3.99136 1.35161 0
M  V30 2223 H 203.564 -3.20555 0.450144 0
M  V30 2224 H 202.471 -2.60231 2.68757 0
M  V30 2225 H 203.804 -3.43796 3.52229 0
M  V30 2226 N 205.456 -1.28612 -0.910864 0
M  V30 2227 C 206.681 -1.1891 -1.69927 0
M  V30 2228 C 207.106 0.248372 -1.86453 0
M  V30 2229 O 206.464 1.17961 -1.37676 0
M  V30 2230 C 206.512 -1.89578 -3.06745 0
M  V30 2231 O 205.616 -1.20521 -3.94396 0
M  V30 2232 H 204.957 -0.412632 -0.520222 0
M  V30 2233 H 207.487 -1.69985 -1.1387 0
M  V30 2234 H 207.497 -1.97597 -3.56958 0
M  V30 2235 H 206.172 -2.94136 -2.94035 0
M  V30 2236 H 204.749 -1.20684 -3.52831 0
M  V30 2237 N 206.934 1.1197 -1.10907 0
M  V30 2238 C 208.18 1.84059 -0.865674 0
M  V30 2239 C 208.535 1.82731 0.602254 0
M  V30 2240 O 207.828 1.26543 1.43866 0
M  V30 2241 C 208.022 3.30749 -1.35425 0
M  V30 2242 C 207.851 3.46363 -2.86815 0
M  V30 2243 C 206.621 3.59712 -3.54874 0
M  V30 2244 C 208.819 3.41116 -3.84895 0
M  V30 2245 N 206.801 3.63741 -4.94536 0
M  V30 2246 C 208.172 3.51698 -5.10596 0
M  V30 2247 C 210.227 3.24612 -3.77533 0
M  V30 2248 C 208.93 3.4748 -6.29802 0
M  V30 2249 C 210.956 3.21708 -4.96244 0
M  V30 2250 C 210.318 3.32856 -6.20795 0
M  V30 2251 H 206.417 0.689015 -0.369841 0
M  V30 2252 H 209.001 1.34016 -1.41237 0
M  V30 2253 H 207.172 3.79322 -0.834814 0
M  V30 2254 H 208.904 3.90718 -1.05458 0
M  V30 2255 H 205.659 3.62038 -3.05329 0
M  V30 2256 H 206.083 3.69408 -5.67333 0
M  V30 2257 H 210.725 3.14883 -2.8215 0
M  V30 2258 H 208.443 3.55978 -7.25469 0
M  V30 2259 H 212.029 3.10113 -4.92261 0
M  V30 2260 H 210.909 3.3059 -7.11112 0
M  V30 2261 N 208.412 0.89855 1.29475 0
M  V30 2262 C 209.36 0.365253 2.29714 0
M  V30 2263 C 210.354 -0.534993 1.6073 0
M  V30 2264 O 211.56 -0.417921 1.75081 0
M  V30 2265 H 207.935 0.0994853 0.74539 0
M  V30 2266 H 209.906 1.22406 2.72138 0
M  V30 2267 C 208.655 -0.393159 3.4547 0
M  V30 2268 H 207.978 0.290332 3.98744 0
M  V30 2269 H 209.418 -0.731189 4.17648 0
M  V30 2270 C 207.877 -1.59539 2.9673 0
M  V30 2271 O 208.407 -2.69469 2.97908 0
M  V30 2272 N 206.613 -1.43716 2.52575 0
M  V30 2273 H 206.16 -0.542828 2.51816 0
M  V30 2274 H 206.118 -2.24288 2.20323 0
M  V30 2275 N 209.89 -1.43072 0.660911 0
M  V30 2276 C 210.853 -2.29194 -0.0166406 0
M  V30 2277 C 211.853 -1.42609 -0.742912 0
M  V30 2278 O 213.043 -1.64155 -0.583004 0
M  V30 2279 C 210.175 -3.24831 -1.0343 0
M  V30 2280 H 211.368 -2.90596 0.741208 0
M  V30 2281 H 208.921 -1.5048 0.422532 0
M  V30 2282 H 209.656 -2.68339 -1.82111 0
M  V30 2283 H 209.441 -3.88676 -0.517082 0
M  V30 2284 H 210.931 -3.89451 -1.50723 0
M  V30 2285 N 211.368 -0.403325 -1.52352 0
M  V30 2286 C 212.331 0.413051 -2.25447 0
M  V30 2287 C 213.331 0.978513 -1.276 0
M  V30 2288 O 214.521 0.858305 -1.51587 0
M  V30 2289 C 211.653 1.58087 -3.02029 0
M  V30 2290 H 212.846 -0.227094 -2.99039 0
M  V30 2291 H 210.399 -0.155722 -1.55522 0
M  V30 2292 H 211.134 2.25804 -2.32772 0
M  V30 2293 H 210.919 1.18195 -3.73861 0
M  V30 2294 H 212.409 2.1585 -3.57489 0
M  V30 2295 N 212.846 1.57033 -0.133567 0
M  V30 2296 C 214.093 1.95686 0.520877 0
M  V30 2297 C 214.421 1.0177 1.6575 0
M  V30 2298 O 213.676 0.0443195 1.9565 0
M  V30 2299 C 213.975 3.40674 1.08057 0
M  V30 2300 C 213.641 4.50855 0.0637899 0
M  V30 2301 C 212.303 4.80716 -0.215757 0
M  V30 2302 C 214.655 5.17398 -0.62835 0
M  V30 2303 C 211.983 5.74433 -1.19348 0
M  V30 2304 C 214.335 6.12167 -1.5948 0
M  V30 2305 C 212.999 6.40414 -1.88218 0
M  V30 2306 H 212.269 0.716067 0.190602 0
M  V30 2307 H 214.916 1.9026 -0.217556 0
M  V30 2308 H 213.221 3.42865 1.89606 0
M  V30 2309 H 214.918 3.67902 1.59529 0
M  V30 2310 H 211.508 4.27605 0.291855 0
M  V30 2311 H 215.692 4.94472 -0.425562 0
M  V30 2312 H 210.948 5.94616 -1.42272 0
M  V30 2313 H 215.122 6.6281 -2.13671 0
M  V30 2314 H 212.749 7.12838 -2.64133 0
M  V30 2315 N 214.325 -0.140222 1.56975 0
M  V30 2316 C 215.255 -1.17456 2.01808 0
M  V30 2317 C 216.236 -1.44415 0.898794 0
M  V30 2318 O 217.421 -1.5522 1.16707 0
M  V30 2319 C 214.551 -2.50607 2.40444 0
M  V30 2320 C 213.505 -2.38155 3.55621 0
M  V30 2321 C 212.831 -3.76078 3.80091 0
M  V30 2322 C 214.131 -1.85991 4.88062 0
M  V30 2323 H 215.825 -0.801743 2.88466 0
M  V30 2324 H 213.371 -0.38422 1.38779 0
M  V30 2325 H 215.324 -3.23197 2.7041 0
M  V30 2326 H 214.048 -2.89737 1.50732 0
M  V30 2327 H 212.707 -1.68016 3.25832 0
M  V30 2328 H 212.355 -4.12656 2.87618 0
M  V30 2329 H 212.055 -3.68606 4.57606 0
M  V30 2330 H 213.579 -4.50206 4.12488 0
M  V30 2331 H 214.993 -2.4838 5.16701 0
M  V30 2332 H 213.39 -1.89393 5.6943 0
M  V30 2333 H 214.46 -0.816023 4.77984 0
M  V30 2334 N 215.803 -1.52179 -0.40978 0
M  V30 2335 C 216.713 -1.78364 -1.52392 0
M  V30 2336 C 217.729 -0.669183 -1.60617 0
M  V30 2337 O 218.905 -0.954518 -1.77344 0
M  V30 2338 C 215.97 -1.92822 -2.88133 0
M  V30 2339 C 215.031 -3.16725 -2.898 0
M  V30 2340 C 214.264 -3.30483 -4.19067 0
M  V30 2341 O 214.487 -2.49522 -5.12928 0
M  V30 2342 O 213.421 -4.2363 -4.27576 0
M  V30 2343 H 217.247 -2.72931 -1.33201 0
M  V30 2344 H 214.832 -1.37016 -0.59557 0
M  V30 2345 H 216.714 -2.04157 -3.68643 0
M  V30 2346 H 215.389 -1.01444 -3.07393 0
M  V30 2347 H 214.296 -3.10848 -2.08146 0
M  V30 2348 H 215.629 -4.07881 -2.75489 0
M  V30 2349 N 217.281 0.66697 -1.42791 0
M  V30 2350 C 218.506 1.46004 -1.47301 0
M  V30 2351 C 218.931 1.87894 -0.0880317 0
M  V30 2352 O 218.289 1.56502 0.915253 0
M  V30 2353 C 218.337 2.68031 -2.41229 0
M  V30 2354 O 217.441 3.6659 -1.88906 0
M  V30 2355 H 216.782 0.43832 -0.49877 0
M  V30 2356 H 219.312 0.817391 -1.87563 0
M  V30 2357 H 219.322 3.1601 -2.58073 0
M  V30 2358 H 217.997 2.36883 -3.41847 0
M  V30 2359 H 216.574 3.25661 -1.81656 0
M  V30 2360 N 218.759 1.29093 0.90403 0
M  V30 2361 C 219.984 1.19809 1.69294 0
M  V30 2362 C 220.409 -0.238481 1.86582 0
M  V30 2363 O 219.767 -1.1723 1.383 0
M  V30 2364 C 219.815 1.91202 3.05736 0
M  V30 2365 O 218.919 1.22611 3.93752 0
M  V30 2366 H 218.26 0.415385 0.518027 0
M  V30 2367 H 220.79 1.70586 1.12967 0
M  V30 2368 H 220.8 1.99487 3.55906 0
M  V30 2369 H 219.475 2.95692 2.92471 0
M  V30 2370 H 218.052 1.22554 3.52186 0
M  V30 2371 N 220.237 -1.11381 1.11499 0
M  V30 2372 C 221.2 -2.15622 0.777153 0
M  V30 2373 C 222.2 -1.59504 -0.203779 0
M  V30 2374 O 223.39 -1.74188 0.020782 0
M  V30 2375 C 220.522 -3.40556 0.153116 0
M  V30 2376 H 221.715 -2.47021 1.70061 0
M  V30 2377 H 219.268 -1.26577 0.916952 0
M  V30 2378 H 220.003 -3.14767 -0.780536 0
M  V30 2379 H 219.788 -3.8257 0.859238 0
M  V30 2380 H 221.278 -4.17546 -0.0671044 0
M  V30 2381 N 221.715 -0.905404 -1.28997 0
M  V30 2382 C 222.662 -0.385892 -2.27551 0
M  V30 2383 C 223.632 0.535113 -1.57244 0
M  V30 2384 O 224.817 0.459119 -1.85194 0
M  V30 2385 C 221.957 0.375461 -3.43051 0
M  V30 2386 C 221.07 -0.577092 -4.28128 0
M  V30 2387 C 220.205 0.201879 -5.30816 0
M  V30 2388 C 219.244 -0.744829 -6.07551 0
M  V30 2389 N 218.381 9.42587e-05 -7.021 0
M  V30 2390 H 223.221 -1.23139 -2.71368 0
M  V30 2391 H 220.758 -0.618542 -1.33463 0
M  V30 2392 H 222.716 0.832992 -4.088 0
M  V30 2393 H 221.346 1.18537 -3.00248 0
M  V30 2394 H 220.398 -1.15315 -3.62501 0
M  V30 2395 H 221.71 -1.30152 -4.8152 0
M  V30 2396 H 220.864 0.720351 -6.02408 0
M  V30 2397 H 219.603 0.959413 -4.7817 0
M  V30 2398 H 218.608 -1.27475 -5.34818 0
M  V30 2399 H 219.833 -1.50178 -6.62286 0
M  V30 2400 H 217.779 0.739791 -6.51815 0
M  V30 2401 H 217.696 -0.664321 -7.53076 0
M  V30 2402 H 218.964 0.498644 -7.77903 0
M  V30 2403 N 223.193 1.4272 -0.668489 0
M  V30 2404 C 224.103 2.34596 0.0139753 0
M  V30 2405 C 225.119 1.5474 0.795703 0
M  V30 2406 O 226.295 1.87334 0.739466 0
M  V30 2407 C 223.36 3.33202 0.957982 0
M  V30 2408 C 222.421 4.28957 0.17149 0
M  V30 2409 C 221.654 5.22853 1.07053 0
M  V30 2410 O 221.877 5.21531 2.31001 0
M  V30 2411 O 220.811 5.9952 0.534727 0
M  V30 2412 H 224.637 2.9448 -0.742661 0
M  V30 2413 H 222.222 1.43117 -0.428705 0
M  V30 2414 H 224.104 3.93796 1.50008 0
M  V30 2415 H 222.779 2.758 1.69458 0
M  V30 2416 H 221.686 3.71796 -0.414558 0
M  V30 2417 H 223.019 4.89383 -0.52586 0
M  V30 2418 N 224.671 0.411399 1.52136 0
M  V30 2419 C 225.619 -0.427633 2.28635 0
M  V30 2420 C 226.613 -1.04383 1.33419 0
M  V30 2421 O 227.819 -0.981772 1.50868 0
M  V30 2422 H 224.194 -0.156689 0.735495 0
M  V30 2423 H 226.165 0.238761 2.97443 0
M  V30 2424 C 224.914 -1.53082 3.12188 0
M  V30 2425 H 224.237 -1.06601 3.85326 0
M  V30 2426 H 225.677 -2.09167 3.68816 0
M  V30 2427 C 224.136 -2.49946 2.25895 0
M  V30 2428 O 224.666 -3.53884 1.90076 0
M  V30 2429 N 222.872 -2.2021 1.8962 0
M  V30 2430 H 222.419 -1.35719 2.18948 0
M  V30 2431 H 222.377 -2.85266 1.32176 0
M  V30 2432 N 226.149 -1.5696 0.141893 0
M  V30 2433 C 227.081 -2.13619 -0.830627 0
M  V30 2434 C 228.094 -1.08439 -1.21428 0
M  V30 2435 O 229.283 -1.35734 -1.15925 0
M  V30 2436 C 226.383 -2.63978 -2.12529 0
M  V30 2437 C 225.556 -3.93504 -1.9098 0
M  V30 2438 C 224.615 -4.29225 -3.04388 0
M  V30 2439 O 223.641 -4.97641 -2.76302 0
M  V30 2440 N 224.843 -3.88393 -4.31429 0
M  V30 2441 H 227.608 -2.97691 -0.34641 0
M  V30 2442 H 225.169 -1.61846 -0.0418375 0
M  V30 2443 H 227.161 -2.84891 -2.87436 0
M  V30 2444 H 225.731 -1.84659 -2.52229 0
M  V30 2445 H 224.951 -3.81269 -1.00139 0
M  V30 2446 H 226.239 -4.78154 -1.73914 0
M  V30 2447 H 225.637 -3.33257 -4.57117 0
M  V30 2448 H 224.194 -4.14368 -5.03133 0
M  V30 2449 N 227.627 0.131896 -1.57047 0
M  V30 2450 C 228.855 0.856461 -1.88341 0
M  V30 2451 C 229.27 1.74042 -0.731757 0
M  V30 2452 O 228.627 1.80051 0.297945 0
M  V30 2453 C 228.678 1.70064 -3.18999 0
M  V30 2454 O 228.399 0.852278 -4.2973 0
M  V30 2455 C 229.9 2.53148 -3.63911 0
M  V30 2456 H 227.12 0.246885 -0.62393 0
M  V30 2457 H 229.664 0.120152 -2.04147 0
M  V30 2458 H 227.819 2.38984 -3.04902 0
M  V30 2459 H 228.233 1.43329 -5.04537 0
M  V30 2460 H 229.707 3.07931 -4.58129 0
M  V30 2461 H 230.184 3.29901 -2.89935 0
M  V30 2462 H 230.79 1.89492 -3.80753 0
M  V30 2463 N 229.106 1.52395 0.401703 0
M  V30 2464 C 230.069 1.75636 1.47257 0
M  V30 2465 C 231.069 0.62628 1.48103 0
M  V30 2466 O 232.259 0.894227 1.49497 0
M  V30 2467 C 229.391 1.84553 2.86624 0
M  V30 2468 H 230.584 2.71241 1.27938 0
M  V30 2469 H 228.137 1.42923 0.632662 0
M  V30 2470 H 228.872 0.908882 3.11303 0
M  V30 2471 H 228.657 2.66715 2.87412 0
M  V30 2472 H 230.147 2.04251 3.64241 0
M  V30 2473 N 230.584 -0.659388 1.43143 0
M  V30 2474 C 231.83 -1.42145 1.44647 0
M  V30 2475 C 232.163 -1.9408 0.0681907 0
M  V30 2476 O 231.438 -1.71899 -0.910007 0
M  V30 2477 C 231.721 -2.60735 2.48373 0
M  V30 2478 C 231.574 -2.14332 3.95451 0
M  V30 2479 C 232.893 -3.62951 2.48906 0
M  V30 2480 H 230.012 -0.51552 0.526696 0
M  V30 2481 H 232.654 -0.748069 1.74654 0
M  V30 2482 H 230.804 -3.18184 2.22916 0
M  V30 2483 H 232.476 -1.61932 4.31944 0
M  V30 2484 H 230.719 -1.4576 4.08578 0
M  V30 2485 H 231.39 -2.99583 4.63631 0
M  V30 2486 H 233.866 -3.1525 2.71582 0
M  V30 2487 H 232.742 -4.43487 3.23435 0
M  V30 2488 H 233.003 -4.15126 1.52061 0
M  V30 2489 N 232.062 -1.29571 -0.897171 0
M  V30 2490 C 233.339 -1.08365 -1.62839 0
M  V30 2491 C 233.719 0.371331 -2.07808 0
M  V30 2492 O 233.067 1.3606 -1.83576 0
M  V30 2493 C 233.277 -2.0735 -2.80726 0
M  V30 2494 C 234.625 -2.38406 -3.51351 0
M  V30 2495 O 235.649 -2.05564 -2.90898 0
M  V30 2496 O 234.508 -2.9453 -4.60341 0
M  V30 2497 H 231.602 -0.415345 -0.715134 0
M  V30 2498 H 234.148 -1.40952 -0.945018 0
M  V30 2499 H 232.92 -3.05339 -2.44711 0
M  V30 2500 H 232.543 -1.75507 -3.56767 0
M  V30 2501 N 233.54 1.10788 -1.12088 0
M  V30 2502 C 234.786 1.82942 -0.875226 0
M  V30 2503 C 235.119 1.84779 0.597538 0
M  V30 2504 O 234.394 1.30578 1.44152 0
M  V30 2505 C 234.677 3.29789 -1.44606 0
M  V30 2506 C 234.53 3.36307 -2.98693 0
M  V30 2507 C 235.849 4.26064 -1.10261 0
M  V30 2508 H 232.968 0.664195 -0.319397 0
M  V30 2509 H 235.61 1.29867 -1.38689 0
M  V30 2510 H 233.76 3.75118 -1.01089 0
M  V30 2511 H 235.432 2.99487 -3.50864 0
M  V30 2512 H 233.675 2.76318 -3.34411 0
M  V30 2513 H 234.346 4.39694 -3.33726 0
M  V30 2514 H 236.822 3.88951 -1.4784 0
M  V30 2515 H 235.698 5.27183 -1.52869 0
M  V30 2516 H 235.959 4.42098 -0.0142953 0
M  V30 2517 N 235.018 0.912232 1.28515 0
M  V30 2518 C 236.265 0.544599 1.95039 0
M  V30 2519 C 236.593 -0.911435 1.71823 0
M  V30 2520 O 235.848 -1.66317 1.03137 0
M  V30 2521 C 236.147 0.798392 3.48368 0
M  V30 2522 C 235.813 2.23374 3.91682 0
M  V30 2523 C 234.475 2.62617 4.03219 0
M  V30 2524 C 236.827 3.16786 4.13879 0
M  V30 2525 C 234.155 3.94429 4.3433 0
M  V30 2526 C 236.507 4.48161 4.46469 0
M  V30 2527 C 235.171 4.8726 4.56217 0
M  V30 2528 H 234.441 0.199283 0.7137 0
M  V30 2529 H 237.088 1.15327 1.52879 0
M  V30 2530 H 235.393 0.106908 3.91654 0
M  V30 2531 H 237.09 0.493141 3.97956 0
M  V30 2532 H 233.68 1.91922 3.83228 0
M  V30 2533 H 237.864 2.87677 4.0442 0
M  V30 2534 H 233.12 4.24426 4.40082 0
M  V30 2535 H 237.294 5.20559 4.62592 0
M  V30 2536 H 234.921 5.89431 4.80078 0
M  V30 2537 N 236.496 -1.42363 0.676048 0
M  V30 2538 C 237.912 -1.55811 0.345718 0
M  V30 2539 C 238.112 -1.65544 -1.14879 0
M  V30 2540 O 237.168 -1.62306 -1.93424 0
M  V30 2541 C 238.481 -2.80746 1.07713 0
M  V30 2542 C 240.029 -2.9452 1.05958 0
M  V30 2543 C 240.504 -4.22318 1.77233 0
M  V30 2544 N 241.995 -4.29233 1.74108 0
M  V30 2545 C 242.73 -5.26935 2.26113 0
M  V30 2546 N 242.226 -6.30783 2.86505 0
M  V30 2547 N 244.019 -5.18741 2.1648 0
M  V30 2548 H 236.17 -1.34289 1.6456 0
M  V30 2549 H 238.433 -0.646506 0.69335 0
M  V30 2550 H 238.139 -2.79696 2.13221 0
M  V30 2551 H 238.013 -3.71676 0.64316 0
M  V30 2552 H 240.4 -2.95097 0.0128255 0
M  V30 2553 H 240.481 -2.04817 1.53244 0
M  V30 2554 H 240.125 -4.22502 2.81877 0
M  V30 2555 H 240.055 -5.10958 1.27396 0
M  V30 2556 H 242.546 -3.54814 1.30059 0
M  V30 2557 H 242.859 -7.01691 3.23805 0
M  V30 2558 H 241.204 -6.31341 2.90575 0
M  V30 2559 H 244.395 -4.36533 1.68987 0
M  V30 2560 H 244.568 -5.94721 2.57316 0
M  V30 2561 N 237.974 -0.419461 -1.51915 0
M  V30 2562 C 239.39 -0.0708431 -1.59443 0
M  V30 2563 C 239.59 1.41796 -1.43164 0
M  V30 2564 O 238.646 2.18596 -1.26381 0
M  V30 2565 C 239.959 -0.574991 -2.95151 0
M  V30 2566 C 241.507 -0.533867 -3.08413 0
M  V30 2567 C 241.982 -1.01469 -4.46618 0
M  V30 2568 N 243.473 -0.971939 -4.52888 0
M  V30 2569 C 244.208 -1.31505 -5.58116 0
M  V30 2570 N 243.704 -1.73014 -6.70849 0
M  V30 2571 N 245.497 -1.23436 -5.48379 0
M  V30 2572 H 237.648 -1.38836 -1.60743 0
M  V30 2573 H 239.911 -0.570998 -0.756747 0
M  V30 2574 H 239.617 -1.61597 -3.12377 0
M  V30 2575 H 239.491 0.00979777 -3.77199 0
M  V30 2576 H 241.878 0.498086 -2.90866 0
M  V30 2577 H 241.959 -1.15484 -2.28248 0
M  V30 2578 H 241.603 -2.04502 -4.6491 0
M  V30 2579 H 241.533 -0.370433 -5.25295 0
M  V30 2580 H 244.024 -0.666893 -3.71969 0
M  V30 2581 H 244.337 -1.97479 -7.47143 0
M  V30 2582 H 242.682 -1.76926 -6.72103 0
M  V30 2583 H 245.873 -0.908869 -4.59192 0
M  V30 2584 H 246.046 -1.50506 -6.30279 0
M  V30 2585 N 239.452 1.56882 -0.150215 0
M  V30 2586 C 240.701 1.95403 0.500071 0
M  V30 2587 C 241.014 1.03777 1.658 0
M  V30 2588 O 242.22 1.31889 2.37313 0
M  V30 2589 C 240.676 3.4738 0.941018 0
M  V30 2590 C 240.284 4.47596 -0.190158 0
M  V30 2591 C 242.028 3.9476 1.56091 0
M  V30 2592 C 239.935 5.90787 0.269237 0
M  V30 2593 H 238.865 0.729515 0.190588 0
M  V30 2594 H 241.516 1.81988 -0.235074 0
M  V30 2595 H 239.898 3.56138 1.73152 0
M  V30 2596 H 241.072 4.50536 -0.967157 0
M  V30 2597 H 239.387 4.10151 -0.718666 0
M  V30 2598 H 241.984 4.99181 1.9163 0
M  V30 2599 H 242.327 3.36494 2.45107 0
M  V30 2600 H 242.86 3.88932 0.835249 0
M  V30 2601 H 239.599 6.52879 -0.585621 0
M  V30 2602 H 239.119 5.912 1.01204 0
M  V30 2603 H 240.798 6.42979 0.720176 0
M  V30 2604 N 240.93 -0.123565 1.57115 0
M  V30 2605 C 242.179 -0.830704 1.83799 0
M  V30 2606 C 242.492 -1.81259 0.735158 0
M  V30 2607 O 243.698 -2.56558 0.888278 0
M  V30 2608 C 242.154 -1.52802 3.25852 0
M  V30 2609 C 241.762 -0.587356 4.44133 0
M  V30 2610 C 243.506 -2.22056 3.61789 0
M  V30 2611 C 241.413 -1.28764 5.77212 0
M  V30 2612 H 240.343 -0.313967 0.685522 0
M  V30 2613 H 242.994 -0.0834359 1.8331 0
M  V30 2614 H 241.376 -2.32175 3.20797 0
M  V30 2615 H 242.55 0.172829 4.60476 0
M  V30 2616 H 240.865 -0.00201892 4.164 0
M  V30 2617 H 243.462 -2.75131 4.58483 0
M  V30 2618 H 243.805 -2.99644 2.88997 0
M  V30 2619 H 244.338 -1.49576 3.68608 0
M  V30 2620 H 241.077 -0.55314 6.53162 0
M  V30 2621 H 240.597 -2.01995 5.64764 0
M  V30 2622 H 242.276 -1.8221 6.20813 0
M  V30 2623 N 242.408 -1.52605 -0.393616 0
M  V30 2624 C 243.338 -1.80022 -1.48709 0
M  V30 2625 C 244.319 -0.651995 -1.57108 0
M  V30 2626 O 245.504 -0.89913 -1.72132 0
M  V30 2627 C 242.634 -1.96492 -2.86371 0
M  V30 2628 C 241.588 -3.12161 -2.92813 0
M  V30 2629 C 240.914 -3.13877 -4.3288 0
M  V30 2630 C 242.214 -4.51322 -2.6288 0
M  V30 2631 H 243.908 -2.71589 -1.26015 0
M  V30 2632 H 241.454 -1.30684 -0.604778 0
M  V30 2633 H 243.407 -2.14255 -3.62867 0
M  V30 2634 H 242.131 -1.01611 -3.10391 0
M  V30 2635 H 240.79 -2.94173 -2.18764 0
M  V30 2636 H 240.438 -2.16687 -4.53933 0
M  V30 2637 H 240.138 -3.91576 -4.38112 0
M  V30 2638 H 241.662 -3.33789 -5.1129 0
M  V30 2639 H 243.076 -4.69435 -3.29096 0
M  V30 2640 H 241.473 -5.31053 -2.79468 0
M  V30 2641 H 242.543 -4.58353 -1.58242 0
M  V30 2642 N 243.887 0.651787 -1.4349 0
M  V30 2643 C 244.797 1.79368 -1.5121 0
M  V30 2644 C 245.813 1.69361 -0.399093 0
M  V30 2645 O 246.989 1.90505 -0.653431 0
M  V30 2646 C 244.054 3.15653 -1.43401 0
M  V30 2647 C 243.115 3.37446 -2.65384 0
M  V30 2648 C 242.348 4.67229 -2.57939 0
M  V30 2649 O 242.571 5.46676 -1.62792 0
M  V30 2650 O 241.505 4.90773 -3.48462 0
M  V30 2651 H 245.331 1.7581 -2.47638 0
M  V30 2652 H 242.916 0.810447 -1.25507 0
M  V30 2653 H 244.798 3.96935 -1.41494 0
M  V30 2654 H 243.473 3.19798 -0.501085 0
M  V30 2655 H 242.38 2.55923 -2.72863 0
M  V30 2656 H 243.713 3.38148 -3.57654 0
M  V30 2657 N 245.365 1.30045 0.890287 0
M  V30 2658 C 246.328 1.15963 1.977 0
M  V30 2659 C 247.328 0.0923777 1.60534 0
M  V30 2660 O 248.518 0.340071 1.70848 0
M  V30 2661 C 245.65 0.775451 3.31963 0
M  V30 2662 H 246.843 2.12502 2.11619 0
M  V30 2663 H 244.396 1.13366 1.07601 0
M  V30 2664 H 245.131 -0.189671 3.23745 0
M  V30 2665 H 244.916 1.54668 3.60306 0
M  V30 2666 H 246.406 0.700251 4.11687 0
M  V30 2667 N 246.843 -1.10192 1.12674 0
M  V30 2668 C 247.753 -2.20172 0.810026 0
M  V30 2669 C 248.769 -1.72821 -0.202188 0
M  V30 2670 O 249.945 -2.01369 -0.0351691 0
M  V30 2671 C 247.01 -3.45631 0.272007 0
M  V30 2672 C 246.071 -4.07704 1.34447 0
M  V30 2673 C 245.304 -5.27175 0.832029 0
M  V30 2674 O 245.527 -5.69425 -0.333284 0
M  V30 2675 O 244.461 -5.80168 1.60277 0
M  V30 2676 H 248.287 -2.49701 1.72867 0
M  V30 2677 H 245.872 -1.18977 0.903597 0
M  V30 2678 H 247.754 -4.21394 -0.0230219 0
M  V30 2679 H 246.429 -3.17723 -0.619164 0
M  V30 2680 H 245.336 -3.33614 1.6927 0
M  V30 2681 H 246.669 -4.3982 2.2095 0
M  V30 2682 N 248.321 -0.919034 -1.28029 0
M  V30 2683 C 249.268 -0.410005 -2.27129 0
M  V30 2684 C 250.238 0.518405 -1.57803 0
M  V30 2685 O 251.423 0.439451 -1.8567 0
M  V30 2686 C 248.563 0.339054 -3.4343 0
M  V30 2687 C 247.676 -0.622468 -4.27492 0
M  V30 2688 C 246.811 0.145567 -5.31001 0
M  V30 2689 C 245.85 -0.809226 -6.06727 0
M  V30 2690 N 244.987 -0.0743728 -7.02061 0
M  V30 2691 H 249.827 -1.26011 -2.70047 0
M  V30 2692 H 247.364 -0.632663 -1.328 0
M  V30 2693 H 249.322 0.789586 -4.0966 0
M  V30 2694 H 247.952 1.15346 -3.01488 0
M  V30 2695 H 247.004 -1.19153 -3.61257 0
M  V30 2696 H 248.316 -1.35252 -4.80113 0
M  V30 2697 H 247.47 0.656417 -6.03139 0
M  V30 2698 H 246.209 0.908643 -4.79161 0
M  V30 2699 H 245.214 -1.3314 -5.33436 0
M  V30 2700 H 246.439 -1.57194 -6.60656 0
M  V30 2701 H 244.385 0.670616 -6.52563 0
M  V30 2702 H 244.302 -0.744157 -7.52329 0
M  V30 2703 H 245.57 0.416109 -7.78389 0
M  V30 2704 N 249.799 1.42003 -0.683588 0
M  V30 2705 C 250.732 2.28166 0.039592 0
M  V30 2706 C 251.71 1.41562 0.799942 0
M  V30 2707 O 252.894 1.70997 0.793248 0
M  V30 2708 C 250.021 3.21575 1.06335 0
M  V30 2709 C 249.067 4.24643 0.397562 0
M  V30 2710 S 249.9 5.2869 -0.851296 0
M  V30 2711 C 251.056 6.25666 0.171166 0
M  V30 2712 H 251.289 2.89153 -0.691229 0
M  V30 2713 H 248.822 1.46962 -0.473435 0
M  V30 2714 H 250.78 3.75928 1.6489 0
M  V30 2715 H 249.441 2.59707 1.76667 0
M  V30 2716 H 248.634 4.90223 1.17035 0
M  V30 2717 H 248.236 3.73824 -0.114611 0
M  V30 2718 H 250.528 6.69653 1.02819 0
M  V30 2719 H 251.471 7.06666 -0.450397 0
M  V30 2720 H 251.879 5.62095 0.520578 0
M  V30 2721 N 251.277 0.427512 1.51691 0
M  V30 2722 C 252.554 -0.201684 1.94557 0
M  V30 2723 C 252.934 -1.60981 1.36559 0
M  V30 2724 O 252.282 -2.21814 0.548702 0
M  V30 2725 C 252.492 -0.189394 3.48486 0
M  V30 2726 C 253.84 -0.39978 4.22714 0
M  V30 2727 O 254.864 -0.267945 3.55191 0
M  V30 2728 O 253.723 -0.661249 5.42485 0
M  V30 2729 H 250.817 -0.135261 0.815864 0
M  V30 2730 H 253.363 0.484782 1.62628 0
M  V30 2731 H 252.135 0.795431 3.8313 0
M  V30 2732 H 251.758 -0.919187 3.86829 0
M  V30 2733 N 252.755 -1.56801 0.158532 0
M  V30 2734 C 254.003 -1.96102 -0.488712 0
M  V30 2735 C 254.324 -1.04498 -1.64636 0
M  V30 2736 O 253.594 -0.108783 -1.95598 0
M  V30 2737 H 252.174 -0.724102 -0.183535 0
M  V30 2738 H 254.836 -1.93457 0.236728 0
M  V30 2739 H 253.932 -3.00097 -0.857219 0
M  V30 2740 N 254.233 0.115231 -1.57178 0
M  V30 2741 C 255.196 1.12526 -1.99676 0
M  V30 2742 C 256.196 1.34095 -0.88742 0
M  V30 2743 O 257.386 1.30548 -1.15337 0
M  V30 2744 C 254.518 2.4789 -2.34015 0
M  V30 2745 H 255.711 0.759912 -2.90113 0
M  V30 2746 H 253.264 0.359648 -1.52106 0
M  V30 2747 H 253.999 2.89339 -1.4647 0
M  V30 2748 H 253.784 2.33588 -3.14927 0
M  V30 2749 H 255.274 3.20575 -2.67622 0
M  V30 2750 N 255.711 1.52812 0.385517 0
M  V30 2751 C 256.674 1.77188 1.45386 0
M  V30 2752 C 257.674 0.641953 1.4743 0
M  V30 2753 O 258.864 0.910033 1.4854 0
M  V30 2754 C 255.996 1.87582 2.8465 0
M  V30 2755 H 257.189 2.72583 1.25054 0
M  V30 2756 H 254.742 1.43586 0.617467 0
M  V30 2757 H 255.477 0.941849 3.10322 0
M  V30 2758 H 255.262 2.69748 2.84567 0
M  V30 2759 H 256.752 2.08102 3.62054 0
M  V30 2760 N 257.189 -0.644168 1.43834 0
M  V30 2761 C 258.414 -1.43642 1.49605 0
M  V30 2762 C 258.839 -1.8773 0.117913 0
M  V30 2763 O 258.197 -1.57938 -0.890239 0
M  V30 2764 C 258.245 -2.6416 2.45463 0
M  V30 2765 O 257.349 -3.63538 1.94714 0
M  V30 2766 H 256.69 -0.430329 0.50568 0
M  V30 2767 H 259.22 -0.787448 1.8884 0
M  V30 2768 H 259.23 -3.11864 2.63068 0
M  V30 2769 H 257.905 -2.31414 3.45572 0
M  V30 2770 H 256.482 -3.2273 1.86814 0
M  V30 2771 N 258.668 -1.30515 -0.883378 0
M  V30 2772 C 259.6 -1.12846 -1.99496 0
M  V30 2773 C 260.613 -0.0712571 -1.62644 0
M  V30 2774 O 261.802 -0.317432 -1.75655 0
M  V30 2775 C 258.902 -0.699123 -3.3161 0
M  V30 2776 C 258.075 -1.83842 -3.96889 0
M  V30 2777 C 257.134 -1.39737 -5.07307 0
M  V30 2778 O 256.16 -2.10485 -5.28852 0
M  V30 2779 N 257.362 -0.277279 -5.79837 0
M  V30 2780 H 260.127 -2.08585 -2.15203 0
M  V30 2781 H 257.688 -1.22672 -1.05656 0
M  V30 2782 H 259.68 -0.387044 -4.02845 0
M  V30 2783 H 258.25 0.166276 -3.12157 0
M  V30 2784 H 257.47 -2.31853 -3.18807 0
M  V30 2785 H 258.758 -2.60187 -4.37241 0
M  V30 2786 H 258.156 0.3122 -5.64838 0
M  V30 2787 H 256.713 -0.0246623 -6.51795 0
M  V30 2788 N 260.146 1.09593 -1.13257 0
M  V30 2789 C 261.394 1.81375 -0.891492 0
M  V30 2790 C 261.715 1.86049 0.584009 0
M  V30 2791 O 260.985 1.34481 1.42449 0
M  V30 2792 H 259.565 0.671708 -0.326828 0
M  V30 2793 H 262.227 1.3256 -1.42877 0
M  V30 2794 H 261.323 2.84612 -1.28071 0
M  V30 2795 N 261.624 0.925811 1.2754 0
M  V30 2796 C 262.571 0.422045 2.26908 0
M  V30 2797 C 263.541 -0.510029 1.58076 0
M  V30 2798 O 264.726 -0.429599 1.85901 0
M  V30 2799 C 261.866 -0.320837 3.43605 0
M  V30 2800 C 260.979 0.64513 4.27156 0
M  V30 2801 C 260.114 -0.117405 5.3107 0
M  V30 2802 C 259.153 0.841391 6.0629 0
M  V30 2803 N 258.29 0.111604 7.02011 0
M  V30 2804 H 263.13 1.27441 2.69375 0
M  V30 2805 H 260.667 0.639697 1.32462 0
M  V30 2806 H 262.625 -0.76785 4.10073 0
M  V30 2807 H 261.255 -1.13745 3.02096 0
M  V30 2808 H 260.307 1.21067 3.6062 0
M  V30 2809 H 261.619 1.37797 4.79389 0
M  V30 2810 H 260.773 -0.624422 6.03478 0
M  V30 2811 H 259.512 -0.883219 4.79636 0
M  V30 2812 H 258.517 1.35967 5.32722 0
M  V30 2813 H 259.742 1.60696 6.59813 0
M  V30 2814 H 257.688 -0.635999 6.5291 0
M  V30 2815 H 257.605 0.784044 7.51923 0
M  V30 2816 H 258.873 -0.374823 7.78598 0
M  V30 2817 N 263.102 -1.41638 0.69111 0
M  V30 2818 C 264.327 -2.06148 0.227583 0
M  V30 2819 C 264.752 -1.51652 -1.11281 0
M  V30 2820 O 264.11 -0.64164 -1.69566 0
M  V30 2821 C 264.158 -3.60095 0.190858 0
M  V30 2822 O 263.262 -4.03845 -0.835664 0
M  V30 2823 H 262.603 -0.654434 0.112306 0
M  V30 2824 H 265.133 -1.81484 0.944714 0
M  V30 2825 H 265.143 -4.07995 0.020207 0
M  V30 2826 H 263.818 -3.99129 1.16915 0
M  V30 2827 H 262.395 -3.67458 -0.63473 0
M  V30 2828 N 264.58 -0.43555 -1.51462 0
M  V30 2829 C 265.805 0.132627 -2.06976 0
M  V30 2830 C 266.23 1.35848 -1.30104 0
M  V30 2831 O 265.588 1.78112 -0.338493 0
M  V30 2832 C 265.636 0.43523 -3.57964 0
M  V30 2833 O 264.74 1.52198 -3.83288 0
M  V30 2834 H 264.081 0.00265 -0.663995 0
M  V30 2835 H 266.611 -0.616369 -1.95095 0
M  V30 2836 H 266.621 0.686206 -4.02188 0
M  V30 2837 H 265.296 -0.460739 -4.1334 0
M  V30 2838 H 263.873 1.2611 -3.50928 0
M  V30 2839 N 266.058 1.56714 -0.166846 0
M  V30 2840 C 267.298 1.98641 0.481763 0
M  V30 2841 C 267.662 1.05038 1.6072 0
M  V30 2842 O 268.863 1.36087 2.31805 0
M  V30 2843 C 267.134 3.44362 0.956517 0
M  V30 2844 S 268.693 4.08317 1.60694 0
M  V30 2845 H 265.511 0.693873 0.155116 0
M  V30 2846 H 268.113 1.93719 -0.263251 0
M  V30 2847 H 266.817 4.10204 0.126936 0
M  V30 2848 H 266.348 3.53041 1.73568 0
M  V30 2849 H 268.363 4.02999 2.89494 0
M  V30 2850 N 267.536 -0.106894 1.57237 0
M  V30 2851 C 268.761 -0.830287 1.90055 0
M  V30 2852 C 269.186 -1.72064 0.75998 0
M  V30 2853 O 268.544 -1.78982 -0.288991 0
M  V30 2854 C 268.592 -1.6295 3.21683 0
M  V30 2855 O 267.696 -2.73748 3.08441 0
M  V30 2856 H 267.037 -0.228855 0.623315 0
M  V30 2857 H 269.567 -0.085658 2.04421 0
M  V30 2858 H 269.577 -2.01621 3.54701 0
M  V30 2859 H 268.252 -0.975989 4.04286 0
M  V30 2860 H 266.829 -2.38192 2.86913 0
M  V30 2861 N 269.014 -1.53014 -0.377408 0
M  V30 2862 C 270.26 -1.68872 -1.12294 0
M  V30 2863 C 270.593 -0.433224 -1.89306 0
M  V30 2864 O 269.868 0.569258 -1.85983 0
M  V30 2865 C 270.151 -2.93115 -2.09179 0
M  V30 2866 C 270.004 -4.28794 -1.35853 0
M  V30 2867 C 271.323 -3.12928 -3.09458 0
M  V30 2868 H 268.442 -0.614518 -0.406862 0
M  V30 2869 H 271.084 -1.85633 -0.40503 0
M  V30 2870 H 269.234 -2.78956 -2.70399 0
M  V30 2871 H 270.906 -4.54742 -0.775082 0
M  V30 2872 H 269.149 -4.28744 -0.660364 0
M  V30 2873 H 269.82 -5.11837 -2.06706 0
M  V30 2874 H 272.296 -3.26194 -2.58334 0
M  V30 2875 H 271.172 -4.01316 -3.74482 0
M  V30 2876 H 271.433 -2.27669 -3.78971 0
M  V30 2877 N 270.492 0.636531 -1.44174 0
M  V30 2878 C 271.425 1.76139 -1.45087 0
M  V30 2879 C 272.403 1.59611 -0.310326 0
M  V30 2880 O 273.587 1.81568 -0.506477 0
M  V30 2881 C 270.714 3.13648 -1.27839 0
M  V30 2882 C 269.76 3.48838 -2.45386 0
M  V30 2883 S 270.593 3.46927 -4.07924 0
M  V30 2884 C 271.749 4.87064 -3.9309 0
M  V30 2885 H 271.982 1.75096 -2.40268 0
M  V30 2886 H 269.515 0.810666 -1.31406 0
M  V30 2887 H 271.473 3.93002 -1.18575 0
M  V30 2888 H 270.134 3.12235 -0.341787 0
M  V30 2889 H 269.327 4.48886 -2.29167 0
M  V30 2890 H 268.929 2.76935 -2.51362 0
M  V30 2891 H 271.221 5.76153 -3.56446 0
M  V30 2892 H 272.164 5.08337 -4.92949 0
M  V30 2893 H 272.572 4.61384 -3.25246 0
M  V30 2894 O 272.009 1.41421 0.779892 0
M  V30 2895 H 272.7 1.31013 1.42672 0
M  V30 END ATOM
M  V30 BEGIN BOND
M  V30 END BOND
M  V30 END CTAB
M  END
$$$$
