drugbank_target|P0A6M2 Disulfide bond formation protein B (DB08689; DB08690)
 OpenBabel12092120523D

  0  0  0     0  0            999 V3000
M  V30 BEGIN CTAB
M  V30 COUNTS 2878 2922 0 0 0
M  V30 BEGIN ATOM
M  V30 1 H -0.908 1.98254 -0.117106 0
M  V30 2 N 0 1.576 0 0
M  V30 3 C 0.933 2.03868 1.02534 0
M  V30 4 C 1.911 0.928543 1.3348 0
M  V30 5 O 3.095 1.19667 1.45644 0
M  V30 6 C 0.222 2.43627 2.35294 0
M  V30 7 C -0.732 3.65373 2.2001 0
M  V30 8 S 0.101 5.13292 1.52614 0
M  V30 9 C 1.257 5.56322 2.86805 0
M  V30 10 H 1.49 2.90518 0.631377 0
M  V30 11 H -0.977 1.52953 0.210867 0
M  V30 12 H 0.981 2.67203 3.11629 0
M  V30 13 H -0.358 1.57376 2.7183 0
M  V30 14 H -1.165 3.90944 3.18086 0
M  V30 15 H -1.563 3.418 1.51819 0
M  V30 16 H 0.729 5.58782 3.83104 0
M  V30 17 H 1.672 6.56266 2.65933 0
M  V30 18 H 2.08 4.83886 2.90714 0
M  V30 19 N 1.4781 -0.272755 1.55222 0
M  V30 20 C 2.4081 -1.34136 1.91127 0
M  V30 21 C 3.3891 -1.51513 0.773168 0
M  V30 22 O 4.5741 -1.64552 1.03132 0
M  V30 23 C 1.7041 -2.70083 2.1834 0
M  V30 24 C 0.6581 -2.67437 3.34158 0
M  V30 25 C -0.0159 -4.06938 3.46851 0
M  V30 26 C 1.2841 -2.26686 4.70543 0
M  V30 27 H 2.9781 -1.04333 2.80633 0
M  V30 28 H 0.5241 -0.500454 1.35024 0
M  V30 29 H 2.4771 -3.44952 2.42046 0
M  V30 30 H 1.2011 -3.01469 1.25634 0
M  V30 31 H -0.1399 -1.95026 3.1042 0
M  V30 32 H -0.4919 -4.35547 2.51611 0
M  V30 33 H -0.7919 -4.06062 4.2472 0
M  V30 34 H 0.7321 -4.83545 3.72849 0
M  V30 35 H 2.1461 -2.91277 4.93792 0
M  V30 36 H 0.5431 -2.36971 5.5133 0
M  V30 37 H 1.6131 -1.21818 4.69349 0
M  V30 38 N 2.9562 -1.48159 -0.537278 0
M  V30 39 C 4.3722 -1.34118 -0.865129 0
M  V30 40 C 4.5722 -0.346678 -1.98495 0
M  V30 41 O 3.6282 0.234715 -2.51407 0
M  V30 42 C 4.9412 -2.73963 -1.23954 0
M  V30 43 C 6.4892 -2.82397 -1.34984 0
M  V30 44 C 6.9642 -4.22928 -1.75772 0
M  V30 45 N 8.4552 -4.25566 -1.82887 0
M  V30 46 C 9.1902 -5.31235 -2.15817 0
M  V30 47 N 8.6862 -6.47189 -2.47222 0
M  V30 48 N 10.4792 -5.18624 -2.16761 0
M  V30 49 H 2.6302 -2.1144 0.201715 0
M  V30 50 H 4.8932 -0.947598 0.0275949 0
M  V30 51 H 4.5992 -3.48264 -0.490381 0
M  V30 52 H 4.4732 -3.0702 -2.19132 0
M  V30 53 H 6.8602 -2.08356 -2.08978 0
M  V30 54 H 6.9412 -2.5297 -0.379448 0
M  V30 55 H 6.5852 -4.97482 -1.02341 0
M  V30 56 H 6.5152 -4.49794 -2.73848 0
M  V30 57 H 9.0062 -3.41924 -1.60924 0
M  V30 58 H 9.3192 -7.23564 -2.71433 0
M  V30 59 H 7.6642 -6.50476 -2.44757 0
M  V30 60 H 10.8552 -4.27056 -1.91679 0
M  V30 61 H 11.0282 -6.01078 -2.42093 0
M  V30 62 N 4.4343 0.785586 -1.36625 0
M  V30 63 C 5.6813 1.54362 -1.31067 0
M  V30 64 C 6.0093 1.94195 0.10893 0
M  V30 65 O 5.2643 1.63262 1.07908 0
M  V30 66 C 5.5633 2.83007 -2.1827 0
M  V30 67 C 5.2293 2.62294 -3.6676 0
M  V30 68 C 3.8913 2.56353 -4.0723 0
M  V30 69 C 6.2433 2.43371 -4.6089 0
M  V30 70 C 3.5713 2.29461 -5.39967 0
M  V30 71 C 5.9233 2.18005 -5.93849 0
M  V30 72 C 4.5873 2.105 -6.3344 0
M  V30 73 H 3.8573 0.564851 -0.479609 0
M  V30 74 H 6.5043 0.906028 -1.68711 0
M  V30 75 H 4.8093 3.51253 -1.73576 0
M  V30 76 H 6.5063 3.40817 -2.11292 0
M  V30 77 H 3.0963 2.67774 -3.34656 0
M  V30 78 H 7.2803 2.46959 -4.30494 0
M  V30 79 H 2.5363 2.22135 -5.69619 0
M  V30 80 H 6.7103 2.02359 -6.66351 0
M  V30 81 H 4.3373 1.89425 -7.36222 0
M  V30 82 N 5.9124 1.20967 1.01018 0
M  V30 83 C 6.8424 0.988272 2.11555 0
M  V30 84 C 7.8234 -0.0849778 1.69888 0
M  V30 85 O 9.0084 0.0738202 1.9406 0
M  V30 86 C 6.1384 0.546528 3.42973 0
M  V30 87 C 5.0924 1.56375 3.9841 0
M  V30 88 C 4.4184 0.97842 5.25672 0
M  V30 89 C 5.7184 2.94922 4.31066 0
M  V30 90 H 7.4124 1.91276 2.30334 0
M  V30 91 H 4.9584 0.921073 1.1069 0
M  V30 92 H 6.9114 0.378839 4.19694 0
M  V30 93 H 5.6354 -0.413598 3.23971 0
M  V30 94 H 4.2944 1.71891 3.23804 0
M  V30 95 H 3.9424 0.0101688 5.02999 0
M  V30 96 H 3.6424 1.65784 5.63728 0
M  V30 97 H 5.1664 0.821939 6.05043 0
M  V30 98 H 6.5804 2.8288 4.9865 0
M  V30 99 H 4.9774 3.5983 4.80253 0
M  V30 100 H 6.0474 3.4616 3.39561 0
M  V30 101 N 7.3905 -1.2043 1.01659 0
M  V30 102 C 8.3385 -2.25249 0.580143 0
M  V30 103 C 9.3325 -1.65057 -0.381115 0
M  V30 104 O 10.5385 -1.78241 -0.251039 0
M  V30 105 H 6.9135 -0.732695 0.169299 0
M  V30 106 H 8.8845 -2.59389 1.47512 0
M  V30 107 C 7.6335 -3.47638 -0.065788 0
M  V30 108 H 6.9565 -3.94233 0.664874 0
M  V30 109 H 8.3965 -4.2268 -0.334282 0
M  V30 110 C 6.8555 -3.10447 -1.3086 0
M  V30 111 O 7.3855 -3.21981 -2.4019 0
M  V30 112 N 5.5915 -2.64996 -1.1927 0
M  V30 113 H 5.1385 -2.55811 -0.303064 0
M  V30 114 H 5.0965 -2.40482 -2.02523 0
M  V30 115 N 8.8686 -0.792821 -1.36206 0
M  V30 116 C 9.8006 -0.151469 -2.28699 0
M  V30 117 C 10.8136 0.641262 -1.49638 0
M  V30 118 O 12.0026 0.475885 -1.72039 0
M  V30 119 C 9.1026 0.808424 -3.29117 0
M  V30 120 C 8.2756 0.0650202 -4.37352 0
M  V30 121 C 7.3346 0.941358 -5.17711 0
M  V30 122 O 6.3606 0.397352 -5.67811 0
M  V30 123 N 7.5626 2.2652 -5.3448 0
M  V30 124 H 10.3276 -0.945982 -2.84379 0
M  V30 125 H 7.8886 -0.647032 -1.48409 0
M  V30 126 H 9.8806 1.3986 -3.79765 0
M  V30 127 H 8.4506 1.5038 -2.74052 0
M  V30 128 H 7.6706 -0.706255 -3.87822 0
M  V30 129 H 8.9586 -0.447847 -5.06825 0
M  V30 130 H 8.3566 2.73128 -4.95396 0
M  V30 131 H 6.9136 2.80493 -5.88359 0
M  V30 132 N 10.3467 1.47872 -0.545128 0
M  V30 133 C 11.5867 2.04391 -0.0187854 0
M  V30 134 C 11.9507 1.41162 1.30144 0
M  V30 135 O 13.1517 1.88656 1.91474 0
M  V30 136 C 11.4227 3.57299 0.0850867 0
M  V30 137 S 12.9817 4.35221 0.559302 0
M  V30 138 H 9.7997 0.710737 -0.0193301 0
M  V30 139 H 12.4017 1.81395 -0.729125 0
M  V30 140 H 11.1057 4.00847 -0.880351 0
M  V30 141 H 10.6367 3.84773 0.819348 0
M  V30 142 H 12.6517 4.61571 1.82118 0
M  V30 143 N 11.8248 0.280983 1.55075 0
M  V30 144 C 13.0498 -0.340154 2.04592 0
M  V30 145 C 13.4748 -1.48246 1.15779 0
M  V30 146 O 12.8328 -1.80614 0.15761 0
M  V30 147 C 12.8808 -0.793104 3.5177 0
M  V30 148 O 11.9848 -1.89981 3.66034 0
M  V30 149 H 11.3258 -0.0694289 0.66036 0
M  V30 150 H 13.8558 0.416993 2.00306 0
M  V30 151 H 13.8658 -1.08729 3.93245 0
M  V30 152 H 12.5408 0.0426163 4.15878 0
M  V30 153 H 11.1178 -1.60771 3.36463 0
M  V30 154 N 13.3029 -1.57598 0.00835791 0
M  V30 155 C 14.2349 -2.05811 -1.00868 0
M  V30 156 C 15.2479 -0.977579 -1.30182 0
M  V30 157 O 16.4369 -1.25421 -1.27011 0
M  V30 158 C 13.5369 -2.45016 -2.34137 0
M  V30 159 C 12.7099 -3.75903 -2.23643 0
M  V30 160 C 11.7689 -4.01884 -3.3967 0
M  V30 161 O 10.7949 -4.72433 -3.17483 0
M  V30 162 N 11.9969 -3.50432 -4.62793 0
M  V30 163 H 14.7619 -2.93684 -0.597458 0
M  V30 164 H 12.3229 -1.60909 -0.178852 0
M  V30 165 H 14.3149 -2.59506 -3.10546 0
M  V30 166 H 12.8849 -1.62618 -2.66972 0
M  V30 167 H 12.1049 -3.7141 -1.32091 0
M  V30 168 H 13.3929 -4.61695 -2.13812 0
M  V30 169 H 12.7909 -2.93317 -4.83716 0
M  V30 170 H 11.3479 -3.70236 -5.3644 0
M  V30 171 N 14.781 0.264519 -1.55364 0
M  V30 172 C 16.029 0.993021 -1.76021 0
M  V30 173 C 16.35 1.86511 -0.569099 0
M  V30 174 O 15.62 1.91438 0.415735 0
M  V30 175 H 14.2 0.369639 -0.649135 0
M  V30 176 H 16.862 0.286707 -1.9278 0
M  V30 177 H 15.958 1.62502 -2.66457 0
M  V30 178 N 16.2591 1.48442 0.529413 0
M  V30 179 C 17.6751 1.34575 0.858004 0
M  V30 180 C 17.8751 0.3572 1.98309 0
M  V30 181 O 16.9311 -0.221379 2.51528 0
M  V30 182 C 18.2441 2.74617 1.22499 0
M  V30 183 C 19.7921 2.83109 1.33484 0
M  V30 184 C 20.2671 4.23854 1.73526 0
M  V30 185 N 21.7581 4.2653 1.80628 0
M  V30 186 C 22.4931 5.32372 2.12997 0
M  V30 187 N 21.9891 6.48491 2.43786 0
M  V30 188 N 23.7821 5.19766 2.14008 0
M  V30 189 H 15.9331 2.1133 -0.212925 0
M  V30 190 H 18.1961 0.947439 -0.0326199 0
M  V30 191 H 17.9021 3.4852 0.471905 0
M  V30 192 H 17.7761 3.08177 2.17501 0
M  V30 193 H 20.1631 2.09462 2.0787 0
M  V30 194 H 20.2441 2.53168 0.366027 0
M  V30 195 H 19.8881 4.98018 0.997013 0
M  V30 196 H 19.8181 4.5124 2.71459 0
M  V30 197 H 22.3091 3.42772 1.59108 0
M  V30 198 H 22.6221 7.24993 2.67592 0
M  V30 199 H 20.9671 6.51765 2.41304 0
M  V30 200 H 24.1581 4.28066 1.89412 0
M  V30 201 H 24.3311 6.02354 2.38902 0
M  V30 202 N 17.7372 -0.778329 1.37039 0
M  V30 203 C 18.9852 -1.53361 1.31623 0
M  V30 204 C 19.3062 -1.94739 -0.100831 0
M  V30 205 O 18.5762 -1.65797 -1.04347 0
M  V30 206 H 17.1562 -0.568794 0.484234 0
M  V30 207 H 19.8182 -0.926742 1.71457 0
M  V30 208 H 18.9142 -2.43606 1.95096 0
M  V30 209 N 19.2153 -1.21501 -1.00376 0
M  V30 210 C 20.1783 -0.976927 -2.07337 0
M  V30 211 C 21.1783 0.0525322 -1.60714 0
M  V30 212 O 22.3683 -0.184869 -1.73216 0
M  V30 213 C 19.5003 -0.473423 -3.37597 0
M  V30 214 H 20.6933 -1.92587 -2.29892 0
M  V30 215 H 18.2463 -1.03217 -1.17371 0
M  V30 216 H 18.9813 0.480379 -3.20722 0
M  V30 217 H 18.7663 -1.216 -3.72768 0
M  V30 218 H 20.2563 -0.32675 -4.1632 0
M  V30 219 N 20.6934 1.19889 -1.02296 0
M  V30 220 C 21.9394 1.89973 -0.726759 0
M  V30 221 C 22.2944 1.7776 0.73614 0
M  V30 222 O 21.5874 1.15523 1.52856 0
M  V30 223 C 21.7814 3.39883 -1.10518 0
M  V30 224 C 21.6104 3.66684 -2.60332 0
M  V30 225 C 20.3804 3.85045 -3.27213 0
M  V30 226 C 22.5784 3.68727 -3.58532 0
M  V30 227 N 20.5604 3.99422 -4.66192 0
M  V30 228 C 21.9314 3.88604 -4.83101 0
M  V30 229 C 23.9864 3.51722 -3.52414 0
M  V30 230 C 22.6894 3.9324 -6.02292 0
M  V30 231 C 24.7154 3.57632 -4.71013 0
M  V30 232 C 24.0774 3.77988 -5.94394 0
M  V30 233 H 20.1764 0.714551 -0.317712 0
M  V30 234 H 22.7604 1.44123 -1.30907 0
M  V30 235 H 20.9314 3.8447 -0.551142 0
M  V30 236 H 22.6634 3.97464 -0.761853 0
M  V30 237 H 19.4184 3.83689 -2.77632 0
M  V30 238 H 19.8424 4.10473 -5.38368 0
M  V30 239 H 24.4844 3.34945 -2.58015 0
M  V30 240 H 22.2024 4.08811 -6.97065 0
M  V30 241 H 25.7884 3.45773 -4.67902 0
M  V30 242 H 24.6684 3.82428 -6.8463 0
M  V30 243 N 22.1715 0.800033 1.35784 0
M  V30 244 C 23.1015 0.220184 2.3246 0
M  V30 245 C 24.0825 -0.65073 1.57161 0
M  V30 246 O 25.2675 -0.582359 1.85263 0
M  V30 247 C 22.3975 -0.637353 3.41402 0
M  V30 248 C 21.3515 0.134531 4.27789 0
M  V30 249 C 20.6775 -0.844285 5.27992 0
M  V30 250 C 21.9775 1.32979 5.05088 0
M  V30 251 H 23.6715 1.02787 2.81203 0
M  V30 252 H 21.2175 0.495717 1.35199 0
M  V30 253 H 23.1705 -1.05302 4.08031 0
M  V30 254 H 21.8945 -1.47785 2.91251 0
M  V30 255 H 20.5535 0.531296 3.6273 0
M  V30 256 H 20.2015 -1.68011 4.74111 0
M  V30 257 H 19.9015 -0.332184 5.8666 0
M  V30 258 H 21.4255 -1.2583 5.97494 0
M  V30 259 H 22.8395 0.98934 5.64699 0
M  V30 260 H 21.2365 1.77593 5.7322 0
M  V30 261 H 22.3065 2.11978 4.36111 0
M  V30 262 N 23.6496 -1.47581 0.552962 0
M  V30 263 C 24.5796 -2.32762 -0.185451 0
M  V30 264 C 25.5606 -1.43527 -0.912905 0
M  V30 265 O 26.7456 -1.72388 -0.894201 0
M  V30 266 C 23.8756 -3.25219 -1.21859 0
M  V30 267 C 22.8296 -4.23661 -0.607864 0
M  V30 268 C 22.1556 -5.05413 -1.74533 0
M  V30 269 C 23.4556 -5.20481 0.435582 0
M  V30 270 H 25.1496 -2.94749 0.525684 0
M  V30 271 H 22.6956 -1.41738 0.254251 0
M  V30 272 H 24.6486 -3.8365 -1.7433 0
M  V30 273 H 23.3726 -2.61279 -1.95961 0
M  V30 274 H 22.0316 -3.66451 -0.104489 0
M  V30 275 H 21.6796 -4.3788 -2.47529 0
M  V30 276 H 21.3796 -5.72059 -1.34249 0
M  V30 277 H 22.9036 -5.66701 -2.27338 0
M  V30 278 H 24.3176 -5.733 -0.00290157 0
M  V30 279 H 22.7146 -5.95305 0.757067 0
M  V30 280 H 23.7846 -4.66217 1.33303 0
M  V30 281 N 25.1277 -0.289203 -1.54924 0
M  V30 282 C 26.0607 0.633823 -2.19221 0
M  V30 283 C 27.0387 1.14174 -1.15772 0
M  V30 284 O 28.2227 1.21211 -1.44361 0
M  V30 285 C 25.3497 1.86592 -2.82668 0
M  V30 286 C 24.3957 1.49227 -3.99542 0
M  V30 287 S 25.2287 0.558312 -5.32582 0
M  V30 288 C 26.3847 1.79847 -5.99505 0
M  V30 289 H 26.6177 0.0875416 -2.97171 0
M  V30 290 H 24.1507 -0.0733899 -1.54225 0
M  V30 291 H 26.1087 2.57305 -3.19851 0
M  V30 292 H 24.7697 2.38335 -2.04585 0
M  V30 293 H 23.9627 2.40945 -4.42676 0
M  V30 294 H 23.5647 0.865193 -3.63855 0
M  V30 295 H 25.8567 2.7406 -6.19595 0
M  V30 296 H 26.7997 1.4099 -6.93922 0
M  V30 297 H 27.2077 1.96982 -5.29016 0
M  V30 298 N 26.6058 1.57591 -0.0167156 0
M  V30 299 C 27.5688 2.08393 0.954204 0
M  V30 300 C 28.5688 0.996531 1.26198 0
M  V30 301 O 29.7588 1.25858 1.20438 0
M  V30 302 C 26.8908 2.5394 2.27436 0
M  V30 303 H 28.0838 2.95455 0.514451 0
M  V30 304 H 25.6368 1.54582 0.231089 0
M  V30 305 H 26.3718 1.70171 2.76066 0
M  V30 306 H 26.1568 3.33371 2.06412 0
M  V30 307 H 27.6468 2.93512 2.97053 0
M  V30 308 N 28.0839 -0.256276 1.55502 0
M  V30 309 C 29.3309 -0.985619 1.76895 0
M  V30 310 C 29.6589 -1.85671 0.579355 0
M  V30 311 O 28.9139 -1.90744 -0.437651 0
M  V30 312 C 29.2129 -1.88432 3.03691 0
M  V30 313 C 28.8789 -1.16936 4.35473 0
M  V30 314 C 27.5409 -0.97173 4.71286 0
M  V30 315 C 29.8929 -0.661889 5.1698 0
M  V30 316 C 27.2209 -0.254179 5.86149 0
M  V30 317 C 29.5729 0.042149 6.32586 0
M  V30 318 C 28.2369 0.25134 6.67027 0
M  V30 319 H 27.5069 -0.360663 0.647304 0
M  V30 320 H 30.1539 -0.256483 1.89775 0
M  V30 321 H 28.4589 -2.68021 2.85783 0
M  V30 322 H 30.1559 -2.45015 3.1744 0
M  V30 323 H 26.7459 -1.33332 4.07333 0
M  V30 324 H 30.9299 -0.802145 4.89775 0
M  V30 325 H 26.1859 -0.0815408 6.11346 0
M  V30 326 H 30.3599 0.443049 6.94989 0
M  V30 327 H 27.9869 0.809314 7.5588 0
M  V30 328 N 29.562 -1.4872 -0.521534 0
M  V30 329 C 30.79 -1.60843 -1.30142 0
M  V30 330 C 31.205 -0.271897 -1.86832 0
M  V30 331 O 30.562 0.739969 -1.66825 0
M  V30 332 C 30.613 -2.66155 -2.4463 0
M  V30 333 O 30.334 -3.94623 -1.90275 0
M  V30 334 C 31.835 -2.88795 -3.36322 0
M  V30 335 H 29.055 -0.542075 -0.395468 0
M  V30 336 H 31.599 -1.94609 -0.628285 0
M  V30 337 H 29.754 -2.35224 -3.07812 0
M  V30 338 H 30.168 -4.52468 -2.65279 0
M  V30 339 H 31.642 -3.66264 -4.12983 0
M  V30 340 H 32.119 -1.97934 -3.9207 0
M  V30 341 H 32.725 -3.21063 -2.78924 0
M  V30 342 N 31.0401 0.771051 -1.3745 0
M  V30 343 C 32.0031 1.86598 -1.33093 0
M  V30 344 C 33.0031 1.59076 -0.234845 0
M  V30 345 O 34.1931 1.67145 -0.490732 0
M  V30 346 C 31.3251 3.23747 -1.06773 0
M  V30 347 H 32.5181 1.91873 -2.30488 0
M  V30 348 H 30.0711 0.970876 -1.2249 0
M  V30 349 H 30.8061 3.24148 -0.099129 0
M  V30 350 H 30.5911 3.45115 -1.86112 0
M  V30 351 H 32.0811 4.03824 -1.06377 0
M  V30 352 N 32.5182 1.22032 0.997298 0
M  V30 353 C 33.4482 1.01065 2.10495 0
M  V30 354 C 34.4292 -0.0669542 1.69968 0
M  V30 355 O 35.6142 0.0943987 1.9397 0
M  V30 356 C 32.7442 0.582874 3.42374 0
M  V30 357 C 31.6982 1.60592 3.96729 0
M  V30 358 C 31.0242 1.03412 5.24605 0
M  V30 359 C 32.3242 2.99478 4.27914 0
M  V30 360 H 34.0182 1.93708 2.28292 0
M  V30 361 H 31.5642 0.932761 1.09707 0
M  V30 362 H 33.5172 0.423332 4.19268 0
M  V30 363 H 32.2412 -0.379213 3.24391 0
M  V30 364 H 30.9002 1.75316 3.21963 0
M  V30 365 H 30.5482 0.063518 5.0296 0
M  V30 366 H 30.2482 1.71754 5.61938 0
M  V30 367 H 31.7722 0.886066 6.04137 0
M  V30 368 H 33.1862 2.88153 4.95622 0
M  V30 369 H 31.5832 3.64903 4.76409 0
M  V30 370 H 32.6532 3.49742 3.3587 0
M  V30 371 N 33.9963 -1.19345 1.0293 0
M  V30 372 C 34.9593 -2.20793 0.615069 0
M  V30 373 C 35.9593 -1.57553 -0.321533 0
M  V30 374 O 37.1493 -1.73862 -0.108483 0
M  V30 375 C 34.2813 -3.40754 -0.0999222 0
M  V30 376 H 35.4743 -2.58955 1.51269 0
M  V30 377 H 33.0273 -1.3303 0.820534 0
M  V30 378 H 33.7623 -3.0811 -1.01187 0
M  V30 379 H 33.5473 -3.87889 0.57309 0
M  V30 380 H 35.0373 -4.15898 -0.376645 0
M  V30 381 N 35.4744 -0.807222 -1.35358 0
M  V30 382 C 36.4044 -0.232509 -2.3234 0
M  V30 383 C 37.3854 0.642386 -1.57504 0
M  V30 384 O 38.5704 0.572526 -1.85569 0
M  V30 385 C 35.7004 0.619238 -3.41735 0
M  V30 386 C 34.6544 -0.157215 -4.27711 0
M  V30 387 C 33.9804 0.816273 -5.28433 0
M  V30 388 C 35.2804 -1.35656 -5.04376 0
M  V30 389 H 36.9744 -1.04276 -2.80654 0
M  V30 390 H 34.5204 -0.50288 -1.34934 0
M  V30 391 H 36.4734 1.03137 -4.08584 0
M  V30 392 H 35.1974 1.46239 -2.92031 0
M  V30 393 H 33.8564 -0.550525 -3.62443 0
M  V30 394 H 33.5044 1.65494 -4.74996 0
M  V30 395 H 33.2044 0.301067 -5.86828 0
M  V30 396 H 34.7284 1.22659 -5.98153 0
M  V30 397 H 36.1424 -1.01927 -5.64166 0
M  V30 398 H 34.5394 -1.8063 -5.7227 0
M  V30 399 H 35.6094 -2.14288 -4.34981 0
M  V30 400 N 36.9525 1.47285 -0.560781 0
M  V30 401 C 37.8625 2.33846 0.187954 0
M  V30 402 C 38.8785 1.48412 0.908293 0
M  V30 403 O 40.0545 1.81332 0.876388 0
M  V30 404 C 37.1195 3.25178 1.2025 0
M  V30 405 C 36.1805 4.26504 0.489208 0
M  V30 406 C 35.4135 5.13472 1.45542 0
M  V30 407 O 35.6365 5.02959 2.6905 0
M  V30 408 O 34.5705 5.93902 0.977963 0
M  V30 409 H 38.3965 2.99177 -0.522177 0
M  V30 410 H 35.9815 1.45903 -0.321364 0
M  V30 411 H 37.8635 3.81584 1.78805 0
M  V30 412 H 36.5385 2.6247 1.89449 0
M  V30 413 H 35.4455 3.73847 -0.137627 0
M  V30 414 H 36.7785 4.91935 -0.161399 0
M  V30 415 N 38.4306 0.297415 1.54768 0
M  V30 416 C 39.3606 -0.573494 2.26348 0
M  V30 417 C 40.3416 -1.14085 1.26169 0
M  V30 418 O 41.5266 -1.17086 1.54934 0
M  V30 419 C 38.6566 -1.74716 3.00153 0
M  V30 420 C 37.6106 -1.31032 4.07449 0
M  V30 421 C 36.9366 -2.56887 4.68949 0
M  V30 422 C 38.2366 -0.444183 5.20408 0
M  V30 423 H 39.9306 0.0235131 2.99391 0
M  V30 424 H 37.4766 0.0127488 1.43994 0
M  V30 425 H 39.4296 -2.3625 3.48947 0
M  V30 426 H 38.1536 -2.37035 2.24682 0
M  V30 427 H 36.8126 -0.718066 3.59499 0
M  V30 428 H 36.4606 -3.17512 3.90122 0
M  V30 429 H 36.1606 -2.2836 5.41411 0
M  V30 430 H 37.6846 -3.19229 5.20505 0
M  V30 431 H 39.0986 -0.9651 5.65118 0
M  V30 432 H 37.4956 -0.252846 5.99567 0
M  V30 433 H 38.5656 0.531609 4.81977 0
M  V30 434 N 39.9087 -1.5758 0.0250728 0
M  V30 435 C 41.1367 -1.9593 -0.664747 0
M  V30 436 C 41.5517 -0.901352 -1.65895 0
M  V30 437 O 40.9087 0.117255 -1.82123 0
M  V30 438 C 40.9597 -3.34342 -1.37468 0
M  V30 439 O 40.6807 -4.36079 -0.420324 0
M  V30 440 C 42.1817 -3.873 -2.1567 0
M  V30 441 H 39.4017 -0.645405 -0.183557 0
M  V30 442 H 41.9457 -2.04329 0.0836372 0
M  V30 443 H 40.1007 -3.27175 -2.0745 0
M  V30 444 H 40.5147 -5.16297 -0.923991 0
M  V30 445 H 41.9887 -4.86504 -2.60803 0
M  V30 446 H 42.4657 -3.21331 -2.99405 0
M  V30 447 H 43.0717 -3.97723 -1.50654 0
M  V30 448 N 41.3868 0.248026 -1.55636 0
M  V30 449 C 42.3498 1.29044 -1.89421 0
M  V30 450 C 43.3498 1.41134 -0.770581 0
M  V30 451 O 44.5398 1.39854 -1.03858 0
M  V30 452 C 41.6718 2.66831 -2.12165 0
M  V30 453 H 42.8648 1.00305 -2.82629 0
M  V30 454 H 40.4178 0.487265 -1.48511 0
M  V30 455 H 41.1528 3.00711 -1.21422 0
M  V30 456 H 40.9378 2.59438 -2.93997 0
M  V30 457 H 42.4278 3.42103 -2.3949 0
M  V30 458 N 42.8649 1.48995 0.513639 0
M  V30 459 C 43.7949 1.67636 1.62544 0
M  V30 460 C 44.7759 0.525087 1.61793 0
M  V30 461 O 45.9609 0.759502 1.78732 0
M  V30 462 C 43.0909 1.73114 3.01079 0
M  V30 463 C 42.0449 2.87905 3.16693 0
M  V30 464 C 41.3709 2.78486 4.56453 0
M  V30 465 C 42.6709 4.29005 2.97913 0
M  V30 466 H 44.3649 2.60716 1.47198 0
M  V30 467 H 41.9109 1.25465 0.706714 0
M  V30 468 H 43.8639 1.84742 3.78746 0
M  V30 469 H 42.5879 0.766241 3.17484 0
M  V30 470 H 41.2469 2.75859 2.41448 0
M  V30 471 H 40.8949 1.7993 4.69717 0
M  V30 472 H 40.5949 3.55523 4.67843 0
M  V30 473 H 42.1189 2.92104 5.36197 0
M  V30 474 H 43.5329 4.41798 3.65359 0
M  V30 475 H 41.9299 5.07166 3.20785 0
M  V30 476 H 42.9999 4.44329 1.94165 0
M  V30 477 N 44.343 -0.763751 1.37857 0
M  V30 478 C 45.589 -1.52396 1.3471 0
M  V30 479 C 45.944 -1.92288 -0.0656435 0
M  V30 480 O 45.237 -1.6181 -1.02606 0
M  V30 481 C 45.431 -2.79499 2.22745 0
M  V30 482 C 45.26 -2.52031 3.72438 0
M  V30 483 C 44.03 -2.45759 4.4151 0
M  V30 484 C 46.228 -2.19489 4.65112 0
M  V30 485 N 44.21 -2.1046 5.76697 0
M  V30 486 C 45.581 -1.94396 5.88736 0
M  V30 487 C 47.636 -2.05712 4.53417 0
M  V30 488 C 46.339 -1.56917 7.01975 0
M  V30 489 C 48.365 -1.69634 5.66549 0
M  V30 490 C 47.727 -1.45407 6.89229 0
M  V30 491 H 43.826 -0.55765 0.548225 0
M  V30 492 H 46.41 -0.890302 1.73152 0
M  V30 493 H 44.581 -3.4069 1.86507 0
M  V30 494 H 46.313 -3.45465 2.10798 0
M  V30 495 H 43.068 -2.61885 3.94605 0
M  V30 496 H 43.492 -1.95484 6.48163 0
M  V30 497 H 48.134 -2.23123 3.59133 0
M  V30 498 H 45.852 -1.38246 7.96187 0
M  V30 499 H 49.438 -1.59621 5.59475 0
M  V30 500 H 48.318 -1.17904 7.75286 0
M  V30 501 N 45.8211 -1.22559 -0.990812 0
M  V30 502 C 47.0681 -1.05141 -1.73065 0
M  V30 503 C 47.3961 0.413191 -1.9006 0
M  V30 504 O 46.6511 1.32257 -1.44245 0
M  V30 505 C 46.9501 -1.71011 -3.13831 0
M  V30 506 C 46.6161 -3.20911 -3.16745 0
M  V30 507 C 45.2781 -3.61812 -3.17247 0
M  V30 508 C 47.6301 -4.16846 -3.12872 0
M  V30 509 C 44.9581 -4.97127 -3.1158 0
M  V30 510 C 47.3101 -5.5214 -3.08746 0
M  V30 511 C 45.9741 -5.92419 -3.07565 0
M  V30 512 H 45.2441 -0.384738 -0.633291 0
M  V30 513 H 47.8911 -1.5235 -1.16025 0
M  V30 514 H 46.1961 -1.16133 -3.74193 0
M  V30 515 H 47.8931 -1.55023 -3.69823 0
M  V30 516 H 44.4831 -2.88344 -3.17105 0
M  V30 517 H 48.6671 -3.86263 -3.11632 0
M  V30 518 H 43.9231 -5.27562 -3.09012 0
M  V30 519 H 48.0971 -6.26201 -3.04705 0
M  V30 520 H 45.7241 -6.97236 -3.02929 0
M  V30 521 N 47.2992 1.18797 -1.03562 0
M  V30 522 C 48.2312 2.21731 -0.580337 0
M  V30 523 C 49.2442 1.59051 0.347349 0
M  V30 524 O 50.4332 1.77929 0.142669 0
M  V30 525 C 47.5332 3.38459 0.172805 0
M  V30 526 C 46.7062 4.3072 -0.761496 0
M  V30 527 C 45.7652 5.26174 -0.0525547 0
M  V30 528 O 44.7912 5.65108 -0.681333 0
M  V30 529 N 45.9932 5.67624 1.21586 0
M  V30 530 H 48.7582 2.61417 -1.46565 0
M  V30 531 H 46.3192 1.33531 -0.915476 0
M  V30 532 H 48.3112 3.99335 0.656793 0
M  V30 533 H 46.8812 2.97507 0.959602 0
M  V30 534 H 46.1012 3.67525 -1.42544 0
M  V30 535 H 47.3892 4.89267 -1.39626 0
M  V30 536 H 46.7872 5.38038 1.74732 0
M  V30 537 H 45.3442 6.30721 1.64421 0
M  V30 538 N 48.7773 0.814389 1.34928 0
M  V30 539 C 49.7273 0.202752 2.27097 0
M  V30 540 C 50.7113 -0.62799 1.48139 0
M  V30 541 O 51.9033 -0.483969 1.70255 0
M  V30 542 C 49.0323 -0.64146 3.37254 0
M  V30 543 C 48.1183 0.19944 4.23631 0
M  V30 544 N 48.5093 1.26628 4.89693 0
M  V30 545 C 46.8073 -0.0176433 4.45997 0
M  V30 546 C 47.5083 1.78031 5.53787 0
M  V30 547 N 46.4843 1.08553 5.32651 0
M  V30 548 H 50.2863 1.01893 2.75672 0
M  V30 549 H 47.8003 0.656332 1.48546 0
M  V30 550 H 49.7973 -1.09575 4.02243 0
M  V30 551 H 48.4573 -1.4559 2.9023 0
M  V30 552 H 49.4683 1.64901 4.90946 0
M  V30 553 H 46.1453 -0.800601 4.09752 0
M  V30 554 H 47.5353 2.67236 6.16469 0
M  V30 555 N 50.2554 -1.46986 0.568584 0
M  V30 556 C 51.5014 -2.02741 0.0488709 0
M  V30 557 C 51.8344 -1.44077 -1.30214 0
M  V30 558 O 51.1094 -0.600552 -1.84996 0
M  V30 559 C 51.3924 -3.60086 -0.032047 0
M  V30 560 C 51.2454 -4.29162 1.34686 0
M  V30 561 C 52.5644 -4.33838 -0.739798 0
M  V30 562 H 49.6834 -0.736749 0.0192338 0
M  V30 563 H 52.3254 -1.75289 0.733065 0
M  V30 564 H 50.4754 -3.83606 -0.61473 0
M  V30 565 H 52.1474 -4.16948 1.97362 0
M  V30 566 H 50.3904 -3.89073 1.91846 0
M  V30 567 H 51.0614 -5.37826 1.24285 0
M  V30 568 H 53.5374 -4.15378 -0.244939 0
M  V30 569 H 52.4134 -5.43537 -0.765406 0
M  V30 570 H 52.6744 -4.03875 -1.79827 0
M  V30 571 N 51.7335 -0.305618 -1.54608 0
M  V30 572 C 52.6665 0.610536 -2.19881 0
M  V30 573 C 53.6445 1.1294 -1.16976 0
M  V30 574 O 54.8285 1.19673 -1.45638 0
M  V30 575 C 51.9555 1.83583 -2.84631 0
M  V30 576 C 51.0015 1.4498 -4.01102 0
M  V30 577 S 51.8345 0.501793 -5.33144 0
M  V30 578 C 52.9905 1.73478 -6.01379 0
M  V30 579 H 53.2235 0.0560177 -2.97247 0
M  V30 580 H 50.7565 -0.0897434 -1.54139 0
M  V30 581 H 52.7145 2.53898 -3.22562 0
M  V30 582 H 51.3755 2.36152 -2.07102 0
M  V30 583 H 50.5685 2.36236 -4.45206 0
M  V30 584 H 50.1705 0.826553 -3.64752 0
M  V30 585 H 52.4625 2.67473 -6.22467 0
M  V30 586 H 53.4055 1.33622 -6.95378 0
M  V30 587 H 53.8135 1.9136 -5.31076 0
M  V30 588 N 53.2116 1.57565 -0.0334293 0
M  V30 589 C 54.1416 2.13511 0.945265 0
M  V30 590 C 55.1226 1.05231 1.33643 0
M  V30 591 O 56.3076 1.33084 1.41429 0
M  V30 592 C 53.4376 2.6657 2.22616 0
M  V30 593 C 52.3916 3.79676 1.97561 0
M  V30 594 C 51.7176 4.1918 3.31952 0
M  V30 595 C 53.0176 5.0557 1.31135 0
M  V30 596 H 54.7116 2.95538 0.479325 0
M  V30 597 H 52.2576 1.42166 0.229115 0
M  V30 598 H 54.2106 3.04344 2.91466 0
M  V30 599 H 52.9346 1.8171 2.71384 0
M  V30 600 H 51.5936 3.42347 1.31127 0
M  V30 601 H 51.2416 3.31296 3.78487 0
M  V30 602 H 50.9416 4.95402 3.15992 0
M  V30 603 H 52.4656 4.59541 4.02063 0
M  V30 604 H 53.8796 5.40903 1.89992 0
M  V30 605 H 52.2766 5.86818 1.25559 0
M  V30 606 H 53.3466 4.84062 0.284894 0
M  V30 607 N 54.6897 -0.239769 1.55765 0
M  V30 608 C 55.6197 -1.30052 1.9393 0
M  V30 609 C 56.6007 -1.49839 0.805132 0
M  V30 610 O 57.7857 -1.62328 1.06599 0
M  V30 611 C 54.9157 -2.65391 2.2402 0
M  V30 612 C 53.8697 -2.60289 3.39755 0
M  V30 613 C 53.1957 -3.99489 3.55405 0
M  V30 614 C 54.4957 -2.16654 4.75246 0
M  V30 615 H 56.1897 -0.983573 2.82783 0
M  V30 616 H 53.7357 -0.471701 1.36055 0
M  V30 617 H 55.6887 -3.3974 2.49308 0
M  V30 618 H 54.4127 -2.98736 1.32 0
M  V30 619 H 53.0717 -1.88398 3.14487 0
M  V30 620 H 52.7197 -4.30112 2.60793 0
M  V30 621 H 52.4197 -3.96962 4.33238 0
M  V30 622 H 53.9437 -4.75528 3.83022 0
M  V30 623 H 55.3577 -2.80737 4.99859 0
M  V30 624 H 53.7547 -2.25223 5.56232 0
M  V30 625 H 54.8247 -1.11835 4.71827 0
M  V30 626 N 56.1678 -1.49265 -0.50573 0
M  V30 627 C 57.1148 -1.65585 -1.6078 0
M  V30 628 C 58.0848 -0.497396 -1.58478 0
M  V30 629 O 59.2698 -0.72385 -1.76536 0
M  V30 630 C 56.4098 -1.72408 -2.98948 0
M  V30 631 C 55.5228 -2.99525 -3.11301 0
M  V30 632 C 54.6578 -2.97356 -4.40174 0
M  V30 633 C 53.6968 -4.19074 -4.46143 0
M  V30 634 N 52.8338 -4.14841 -5.66437 0
M  V30 635 H 57.6738 -2.59688 -1.46172 0
M  V30 636 H 55.2108 -1.28761 -0.711261 0
M  V30 637 H 57.1688 -1.74344 -3.79025 0
M  V30 638 H 55.7988 -0.817753 -3.1227 0
M  V30 639 H 54.8508 -3.07222 -2.24318 0
M  V30 640 H 56.1628 -3.89518 -3.11572 0
M  V30 641 H 55.3168 -2.97829 -5.28567 0
M  V30 642 H 54.0558 -2.05133 -4.42461 0
M  V30 643 H 53.0608 -4.1885 -3.56153 0
M  V30 644 H 54.2858 -5.12483 -4.45575 0
M  V30 645 H 52.2318 -3.25453 -5.69575 0
M  V30 646 H 52.1488 -4.98564 -5.68304 0
M  V30 647 H 53.4168 -4.1941 -6.57051 0
M  V30 648 N 57.6459 0.756429 -1.3826 0
M  V30 649 C 59.0569 1.33359 -1.30661 0
M  V30 650 C 59.4079 1.96161 0.0388875 0
M  V30 651 O 58.5329 1.94874 0.940918 0
M  V30 652 C 59.1279 2.42477 -2.36622 0
M  V30 653 C 57.6869 2.95922 -2.3261 0
M  V30 654 C 56.8339 1.69275 -2.19639 0
M  V30 655 H 59.7849 0.55552 -1.4866 0
M  V30 656 H 59.8059 3.22345 -2.02174 0
M  V30 657 H 59.3179 1.96739 -3.34538 0
M  V30 658 H 57.4189 3.45996 -1.38267 0
M  V30 659 H 57.5319 3.50494 -3.26636 0
M  V30 660 H 55.8959 1.92793 -1.66442 0
M  V30 661 H 56.6789 1.25619 -3.19491 0
M  V30 662 N 59.124 1.23083 0.984299 0
M  V30 663 C 60.364 1.07226 1.74017 0
M  V30 664 C 60.728 -0.384766 1.88105 0
M  V30 665 O 61.929 -0.664411 2.60459 0
M  V30 666 C 60.2 1.77348 3.10294 0
M  V30 667 S 61.759 1.77014 4.01512 0
M  V30 668 H 58.577 0.383819 0.598502 0
M  V30 669 H 61.179 1.56158 1.17622 0
M  V30 670 H 59.883 2.82506 2.97689 0
M  V30 671 H 59.414 1.28682 3.71759 0
M  V30 672 H 61.429 0.825956 4.89277 0
M  V30 673 N 60.6021 -1.18246 1.0419 0
M  V30 674 C 61.8481 -1.88536 0.747122 0
M  V30 675 C 62.1811 -1.80223 -0.723409 0
M  V30 676 O 61.4561 -1.20337 -1.52804 0
M  V30 677 C 61.7391 -3.38968 1.21544 0
M  V30 678 C 61.5921 -3.56084 2.74816 0
M  V30 679 C 62.9111 -4.32648 0.806482 0
M  V30 680 H 60.0301 -0.684619 0.272883 0
M  V30 681 H 62.6721 -1.39113 1.29413 0
M  V30 682 H 60.8221 -3.8119 0.750081 0
M  V30 683 H 62.4941 -3.22946 3.29399 0
M  V30 684 H 60.7371 -2.98699 3.14582 0
M  V30 685 H 61.4081 -4.61639 3.02644 0
M  V30 686 H 63.8841 -3.98211 1.20695 0
M  V30 687 H 62.7601 -5.36462 1.1619 0
M  V30 688 H 63.0211 -4.41146 -0.29029 0
M  V30 689 N 62.0802 -0.821533 -1.34494 0
M  V30 690 C 63.0102 -0.257138 -2.3208 0
M  V30 691 C 63.9912 0.625645 -1.58176 0
M  V30 692 O 65.1762 0.552811 -1.86166 0
M  V30 693 C 62.3062 0.582958 -3.42372 0
M  V30 694 C 61.2602 -0.202571 -4.2752 0
M  V30 695 C 60.5862 0.760179 -5.29269 0
M  V30 696 C 61.8862 -1.40998 -5.02908 0
M  V30 697 H 63.5802 -1.07247 -2.79532 0
M  V30 698 H 61.1262 -0.517163 -1.34393 0
M  V30 699 H 63.0792 0.987972 -4.09655 0
M  V30 700 H 61.8032 1.43133 -2.93565 0
M  V30 701 H 60.4622 -0.588936 -3.61838 0
M  V30 702 H 60.1102 1.60447 -4.76724 0
M  V30 703 H 59.8102 0.238809 -5.87115 0
M  V30 704 H 61.3342 1.16308 -5.9942 0
M  V30 705 H 62.7482 -1.07905 -5.63054 0
M  V30 706 H 61.1452 -1.86689 -5.70322 0
M  V30 707 H 62.2152 -2.1889 -4.32684 0
M  V30 708 N 63.5583 1.46682 -0.576371 0
M  V30 709 C 64.7983 2.04306 -0.0621356 0
M  V30 710 C 65.1623 1.4389 1.2712 0
M  V30 711 O 66.3633 1.92675 1.87429 0
M  V30 712 C 64.6343 3.57399 0.00927922 0
M  V30 713 S 66.1933 4.36309 0.466859 0
M  V30 714 H 63.0113 0.710167 -0.0344016 0
M  V30 715 H 65.6133 1.79807 -0.767437 0
M  V30 716 H 64.3173 3.98889 -0.965178 0
M  V30 717 H 63.8483 3.86424 0.737547 0
M  V30 718 H 65.8633 4.6533 1.72287 0
M  V30 719 N 65.0364 0.313813 1.54444 0
M  V30 720 C 66.2854 -0.292519 1.99568 0
M  V30 721 C 66.5984 -1.54011 1.20582 0
M  V30 722 O 67.8044 -2.22183 1.56035 0
M  V30 723 C 66.2604 -0.571752 3.55329 0
M  V30 724 C 65.8684 0.658229 4.43138 0
M  V30 725 C 67.6124 -1.13857 4.08946 0
M  V30 726 C 65.5194 0.351439 5.90355 0
M  V30 727 H 64.4494 -0.113079 0.745472 0
M  V30 728 H 67.1004 0.424518 1.78522 0
M  V30 729 H 65.4824 -1.34872 3.72325 0
M  V30 730 H 66.6564 1.43403 4.37918 0
M  V30 731 H 64.9714 1.14458 4.0036 0
M  V30 732 H 67.5684 -1.38257 5.16516 0
M  V30 733 H 67.9114 -2.08489 3.6033 0
M  V30 734 H 68.4444 -0.423015 3.95544 0
M  V30 735 H 65.1834 1.26667 6.43145 0
M  V30 736 H 64.7034 -0.386842 5.98551 0
M  V30 737 H 66.3824 -0.0423134 6.46986 0
M  V30 738 N 66.5145 -1.57545 0.0417849 0
M  V30 739 C 67.7445 -1.96339 -0.642995 0
M  V30 740 C 68.1525 -0.917536 -1.65463 0
M  V30 741 O 67.4955 0.107747 -1.83384 0
M  V30 742 C 67.5575 -3.31333 -1.39494 0
M  V30 743 C 67.2215 -4.53796 -0.540204 0
M  V30 744 C 68.2185 -5.19553 0.189806 0
M  V30 745 C 65.9035 -5.0006 -0.473886 0
M  V30 746 C 67.8975 -6.29904 0.974674 0
M  V30 747 C 65.5845 -6.10289 0.314677 0
M  V30 748 C 66.5825 -6.75072 1.03765 0
M  V30 749 O 66.2705 -7.83183 1.81327 0
M  V30 750 H 66.0025 -0.651241 -0.181277 0
M  V30 751 H 68.5565 -2.05148 0.101665 0
M  V30 752 H 66.7865 -3.19052 -2.18502 0
M  V30 753 H 68.4755 -3.54942 -1.96904 0
M  V30 754 H 69.2415 -4.84774 0.147981 0
M  V30 755 H 65.1205 -4.49433 -1.0262 0
M  V30 756 H 68.6645 -6.80401 1.5395 0
M  V30 757 H 64.5615 -6.44506 0.358174 0
M  V30 758 H 65.3295 -7.99913 1.73438 0
M  V30 759 N 67.9926 0.231505 -1.5589 0
M  V30 760 C 68.9026 1.308 -1.94752 0
M  V30 761 C 69.9186 1.51826 -0.849989 0
M  V30 762 O 71.0946 1.6515 -1.15271 0
M  V30 763 C 68.1596 2.63968 -2.24771 0
M  V30 764 C 67.2206 2.51331 -3.48039 0
M  V30 765 C 66.4536 3.78148 -3.76616 0
M  V30 766 O 66.6766 4.80722 -3.07022 0
M  V30 767 O 65.6106 3.75857 -4.70123 0
M  V30 768 H 69.4366 1.0083 -2.86474 0
M  V30 769 H 67.0216 0.433547 -1.42971 0
M  V30 770 H 68.9036 3.42633 -2.45318 0
M  V30 771 H 67.5786 2.9364 -1.36225 0
M  V30 772 H 66.4856 1.709 -3.32782 0
M  V30 773 H 67.8186 2.26601 -4.36936 0
M  V30 774 N 69.4707 1.49531 0.497807 0
M  V30 775 C 70.8867 1.36365 0.829266 0
M  V30 776 C 71.0867 0.399184 1.97506 0
M  V30 777 O 70.1427 -0.167977 2.51941 0
M  V30 778 C 71.4557 2.77153 1.16647 0
M  V30 779 C 73.0037 2.85877 1.27449 0
M  V30 780 C 73.4787 4.2744 1.64497 0
M  V30 781 N 74.9697 4.30265 1.7154 0
M  V30 782 C 75.7047 5.3677 2.01656 0
M  V30 783 N 75.2007 6.53516 2.29976 0
M  V30 784 N 76.9937 5.24189 2.02934 0
M  V30 785 H 69.1447 2.10831 -0.257703 0
M  V30 786 H 71.4077 0.946534 -0.0527091 0
M  V30 787 H 71.1137 3.49442 0.397872 0
M  V30 788 H 70.9877 3.12722 2.10915 0
M  V30 789 H 73.3747 2.13824 2.0338 0
M  V30 790 H 73.4557 2.53887 0.312244 0
M  V30 791 H 73.0997 5.00021 0.891151 0
M  V30 792 H 73.0297 4.56896 2.61827 0
M  V30 793 H 75.5207 3.4607 1.51802 0
M  V30 794 H 75.8337 7.30506 2.52153 0
M  V30 795 H 74.1787 6.56737 2.27425 0
M  V30 796 H 77.3697 4.31988 1.80289 0
M  V30 797 H 77.5427 6.07286 2.26071 0
M  V30 798 N 70.9488 -0.749086 1.3866 0
M  V30 799 C 72.1888 -1.52112 1.36534 0
M  V30 800 C 72.5528 -1.91951 -0.0432316 0
M  V30 801 O 73.7538 -2.68132 -0.189396 0
M  V30 802 C 72.0248 -2.73704 2.29828 0
M  V30 803 S 73.5838 -3.63519 2.45763 0
M  V30 804 H 70.4018 -0.520482 0.484375 0
M  V30 805 H 73.0038 -0.878963 1.74627 0
M  V30 806 H 71.7078 -2.42552 3.31054 0
M  V30 807 H 71.2388 -3.4286 1.929 0
M  V30 808 H 73.2538 -4.66712 1.68505 0
M  V30 809 N 72.4269 -1.23603 -0.977757 0
M  V30 810 C 73.3899 -1.02069 -2.05218 0
M  V30 811 C 74.3899 0.0184305 -1.60789 0
M  V30 812 O 75.5799 -0.221569 -1.72785 0
M  V30 813 C 72.7119 -0.544926 -3.36517 0
M  V30 814 H 73.9049 -1.9742 -2.25755 0
M  V30 815 H 71.4579 -1.05684 -1.15155 0
M  V30 816 H 72.1929 0.412241 -3.21669 0
M  V30 817 H 71.9779 -1.2948 -3.70105 0
M  V30 818 H 73.4679 -0.414985 -4.15533 0
M  V30 819 N 73.905 1.17692 -1.04816 0
M  V30 820 C 74.835 2.23777 -0.666791 0
M  V30 821 C 75.816 1.66796 0.33361 0
M  V30 822 O 77.001 1.93039 0.212042 0
M  V30 823 C 74.131 3.47281 -0.0367933 0
M  V30 824 C 73.085 4.17059 -0.961546 0
M  V30 825 C 72.411 5.34342 -0.195626 0
M  V30 826 C 73.711 4.69713 -2.28402 0
M  V30 827 H 75.405 2.55933 -1.55367 0
M  V30 828 H 72.951 1.23019 -0.748484 0
M  V30 829 H 74.904 4.20706 0.241775 0
M  V30 830 H 73.628 3.14381 0.885004 0
M  V30 831 H 72.287 3.45541 -1.22462 0
M  V30 832 H 71.935 4.97692 0.728816 0
M  V30 833 H 71.635 5.81966 -0.811775 0
M  V30 834 H 73.159 6.10553 0.0757473 0
M  V30 835 H 74.573 5.34794 -2.06563 0
M  V30 836 H 72.97 5.279 -2.8538 0
M  V30 837 H 74.04 3.86726 -2.92525 0
M  V30 838 N 75.3831 0.828654 1.34056 0
M  V30 839 C 76.6301 0.419458 1.98108 0
M  V30 840 C 76.9581 -1.01886 1.65679 0
M  V30 841 O 76.2131 -1.72539 0.923512 0
M  V30 842 C 76.5121 0.575226 3.52741 0
M  V30 843 C 76.1781 1.98012 4.05095 0
M  V30 844 C 74.8401 2.36442 4.19104 0
M  V30 845 C 77.1921 2.89824 4.33188 0
M  V30 846 C 74.5201 3.66009 4.58535 0
M  V30 847 C 76.8721 4.1886 4.74066 0
M  V30 848 C 75.5361 4.5726 4.86281 0
M  V30 849 H 74.8061 0.153491 0.724929 0
M  V30 850 H 77.4531 1.05371 1.59904 0
M  V30 851 H 75.7581 -0.142385 3.91541 0
M  V30 852 H 77.4551 0.239057 4.00287 0
M  V30 853 H 74.0451 1.67162 3.94658 0
M  V30 854 H 78.2291 2.61375 4.21897 0
M  V30 855 H 73.4851 3.95579 4.66184 0
M  V30 856 H 77.6591 4.90086 4.94761 0
M  V30 857 H 75.2861 5.57707 5.16592 0
M  V30 858 N 76.8612 -1.46375 0.584142 0
M  V30 859 C 78.1092 -2.01978 0.0701287 0
M  V30 860 C 78.4302 -1.4579 -1.295 0
M  V30 861 O 77.7002 -0.64314 -1.85042 0
M  V30 862 H 76.2802 -0.746648 0.0229345 0
M  V30 863 H 78.9422 -1.79461 0.760245 0
M  V30 864 H 78.0382 -3.121 0.0022064 0
M  V30 865 N 78.3393 -0.321999 -1.54275 0
M  V30 866 C 79.5853 0.281461 -2.00837 0
M  V30 867 C 79.9183 1.51909 -1.20985 0
M  V30 868 O 79.1933 1.923 -0.291733 0
M  V30 869 C 79.4763 0.617162 -3.54772 0
M  V30 870 C 79.3293 -0.631064 -4.45351 0
M  V30 871 C 80.6483 1.43542 -4.16033 0
M  V30 872 H 77.7673 0.100826 -0.730071 0
M  V30 873 H 80.4093 -0.438268 -1.84876 0
M  V30 874 H 78.5593 1.23034 -3.68504 0
M  V30 875 H 80.2313 -1.26934 -4.43492 0
M  V30 876 H 78.4743 -1.26025 -4.15091 0
M  V30 877 H 79.1453 -0.351735 -5.50878 0
M  V30 878 H 81.6213 0.917134 -4.05867 0
M  V30 879 H 80.4973 1.63907 -5.23856 0
M  V30 880 H 80.7583 2.43108 -3.69257 0
M  V30 881 N 79.8174 1.5752 -0.0501392 0
M  V30 882 C 80.7474 2.14502 0.922566 0
M  V30 883 C 81.7284 1.06642 1.3252 0
M  V30 884 O 82.9134 1.34577 1.4001 0
M  V30 885 C 80.0434 2.68916 2.19776 0
M  V30 886 C 78.9974 3.8175 1.93523 0
M  V30 887 C 78.3234 4.22677 3.27487 0
M  V30 888 C 79.6234 5.06932 1.25765 0
M  V30 889 H 81.3174 2.9603 0.447952 0
M  V30 890 H 78.8634 1.42401 0.214024 0
M  V30 891 H 80.8164 3.07419 2.88222 0
M  V30 892 H 79.5404 1.84578 2.69441 0
M  V30 893 H 78.1994 3.43718 1.27489 0
M  V30 894 H 77.8474 3.35291 3.74952 0
M  V30 895 H 77.5474 4.98725 3.1072 0
M  V30 896 H 79.0714 4.63779 3.97166 0
M  V30 897 H 80.4854 5.42888 1.84244 0
M  V30 898 H 78.8824 5.88116 1.19328 0
M  V30 899 H 79.9524 4.84337 0.233536 0
M  V30 900 N 81.2955 -0.223234 1.56011 0
M  V30 901 C 82.5435 -0.946003 1.78592 0
M  V30 902 C 82.8645 -1.84936 0.618349 0
M  V30 903 O 82.1345 -1.92473 -0.364833 0
M  V30 904 H 80.7145 -0.352298 0.658707 0
M  V30 905 H 83.3765 -0.235494 1.93472 0
M  V30 906 H 82.4725 -1.55381 2.70672 0
M  V30 907 N 82.7736 -1.49793 -0.48987 0
M  V30 908 C 83.7366 -1.66752 -1.57246 0
M  V30 909 C 84.7366 -0.538867 -1.51502 0
M  V30 910 O 85.9266 -0.805545 -1.54456 0
M  V30 911 C 83.0586 -1.67528 -2.96896 0
M  V30 912 H 84.2516 -2.63321 -1.43534 0
M  V30 913 H 81.8046 -1.38992 -0.714914 0
M  V30 914 H 82.5396 -0.725837 -3.16073 0
M  V30 915 H 82.3246 -2.49504 -3.02473 0
M  V30 916 H 83.8146 -1.82667 -3.7553 0
M  V30 917 N 84.2517 0.741722 -1.39055 0
M  V30 918 C 85.2147 1.83733 -1.37021 0
M  V30 919 C 86.2147 1.58542 -0.268534 0
M  V30 920 O 87.4047 1.66067 -0.526076 0
M  V30 921 C 84.5367 3.2141 -1.13617 0
M  V30 922 H 85.7297 1.86941 -2.34506 0
M  V30 923 H 83.2827 0.944676 -1.24521 0
M  V30 924 H 84.0177 3.23865 -0.167863 0
M  V30 925 H 83.8027 3.4109 -1.93391 0
M  V30 926 H 85.2927 4.01477 -1.14918 0
M  V30 927 N 85.7298 1.2412 0.971189 0
M  V30 928 C 86.6598 1.05508 2.08304 0
M  V30 929 C 87.6408 -0.0308864 1.70072 0
M  V30 930 O 88.8258 0.135521 1.93727 0
M  V30 931 C 85.9558 0.655365 3.4106 0
M  V30 932 C 84.9098 1.68971 3.93234 0
M  V30 933 C 84.2358 1.14516 5.22293 0
M  V30 934 C 85.5358 3.08487 4.21465 0
M  V30 935 H 87.2298 1.98507 2.24132 0
M  V30 936 H 84.7758 0.955821 1.07704 0
M  V30 937 H 86.7288 0.51217 4.18276 0
M  V30 938 H 85.4528 -0.31032 3.25122 0
M  V30 939 H 84.1118 1.82106 3.18171 0
M  V30 940 H 83.7598 0.170189 5.02712 0
M  V30 941 H 83.4598 1.83635 5.58168 0
M  V30 942 H 84.9838 1.01401 6.02121 0
M  V30 943 H 86.3978 2.98601 4.89398 0
M  V30 944 H 84.7948 3.74926 4.68562 0
M  V30 945 H 85.8648 3.56787 3.28376 0
M  V30 946 N 87.2079 -1.17134 1.05439 0
M  V30 947 C 88.4569 -1.86791 0.761049 0
M  V30 948 C 88.7699 -1.82072 -0.714795 0
M  V30 949 O 89.9759 -2.47223 -1.12218 0
M  V30 950 C 88.4319 -3.35166 1.31117 0
M  V30 951 C 88.0399 -3.48381 2.81664 0
M  V30 952 C 89.7839 -4.10134 1.09499 0
M  V30 953 C 87.6909 -4.90793 3.29964 0
M  V30 954 H 86.6209 -0.699681 0.281002 0
M  V30 955 H 89.2719 -1.3226 1.27199 0
M  V30 956 H 87.6539 -3.8925 0.72803 0
M  V30 957 H 88.8279 -3.04502 3.45855 0
M  V30 958 H 87.1429 -2.86836 3.01851 0
M  V30 959 H 89.7399 -5.152 1.43084 0
M  V30 960 H 90.0829 -4.16287 0.0328772 0
M  V30 961 H 90.6159 -3.62264 1.64346 0
M  V30 962 H 87.3549 -4.89816 4.35616 0
M  V30 963 H 86.8749 -5.35333 2.70516 0
M  V30 964 H 88.5539 -5.59573 3.24787 0
M  V30 965 N 88.686 -0.835752 -1.33615 0
M  V30 966 C 89.934 -0.429109 -1.97492 0
M  V30 967 C 90.255 1.01433 -1.66543 0
M  V30 968 O 89.525 1.70611 -0.962744 0
M  V30 969 H 88.105 -0.155686 -0.730596 0
M  V30 970 H 90.767 -1.06802 -1.63031 0
M  V30 971 H 89.863 -0.55861 -3.0706 0
M  V30 972 N 90.1641 1.46063 -0.591896 0
M  V30 973 C 91.1271 2.28854 0.125973 0
M  V30 974 C 92.1271 1.38903 0.810107 0
M  V30 975 O 93.3171 1.61186 0.66066 0
M  V30 976 C 90.4491 3.19526 1.1881 0
M  V30 977 H 91.6421 2.93802 -0.601717 0
M  V30 978 H 89.1951 1.52325 -0.350254 0
M  V30 979 H 89.9301 2.59345 1.94707 0
M  V30 980 H 89.7151 3.85766 0.701936 0
M  V30 981 H 91.2051 3.81817 1.69132 0
M  V30 982 N 91.6422 0.330177 1.54103 0
M  V30 983 C 92.8912 -0.271336 1.99867 0
M  V30 984 C 93.2042 -1.52723 1.22209 0
M  V30 985 O 94.4102 -2.20515 1.58383 0
M  V30 986 C 92.8662 -0.534032 3.55916 0
M  V30 987 C 92.4742 0.705193 4.42415 0
M  V30 988 C 94.2182 -1.09514 4.1013 0
M  V30 989 C 92.1252 0.414035 5.89949 0
M  V30 990 H 91.0552 -0.105166 0.74663 0
M  V30 991 H 93.7062 0.443429 1.78062 0
M  V30 992 H 92.0882 -1.30915 3.73734 0
M  V30 993 H 93.2622 1.4804 4.36372 0
M  V30 994 H 91.5772 1.18698 3.99124 0
M  V30 995 H 94.1742 -1.3277 5.17954 0
M  V30 996 H 94.5172 -2.04656 3.62521 0
M  V30 997 H 95.0502 -0.381038 3.95971 0
M  V30 998 H 91.7892 1.33481 6.41766 0
M  V30 999 H 91.3092 -0.323336 5.98928 0
M  V30 1000 H 92.9882 0.0263105 6.46995 0
M  V30 1001 N 93.1203 -1.57491 0.0584922 0
M  V30 1002 C 94.0833 -2.1085 -0.898617 0
M  V30 1003 C 95.0833 -1.02964 -1.23511 0
M  V30 1004 O 96.2733 -1.29007 -1.17059 0
M  V30 1005 C 93.4053 -2.59881 -2.20623 0
M  V30 1006 H 94.5983 -2.96715 -0.435936 0
M  V30 1007 H 92.1513 -1.55141 -0.190023 0
M  V30 1008 H 92.8863 -1.77431 -2.71457 0
M  V30 1009 H 92.6713 -3.38727 -1.97501 0
M  V30 1010 H 94.1613 -3.01285 -2.89166 0
M  V30 1011 N 94.5984 0.214957 -1.56127 0
M  V30 1012 C 96.0094 0.781386 -1.69562 0
M  V30 1013 C 96.3604 1.84707 -0.66165 0
M  V30 1014 O 95.4854 2.156 0.185927 0
M  V30 1015 C 96.0804 1.42411 -3.07416 0
M  V30 1016 C 94.6394 1.93786 -3.22683 0
M  V30 1017 C 93.7864 0.800438 -2.65496 0
M  V30 1018 H 96.7374 -0.00980633 -1.58697 0
M  V30 1019 H 96.7584 2.29309 -3.0364 0
M  V30 1020 H 96.2704 0.64826 -3.82648 0
M  V30 1021 H 94.3714 2.74152 -2.52332 0
M  V30 1022 H 94.4844 2.1133 -4.29973 0
M  V30 1023 H 92.8484 1.2095 -2.2415 0
M  V30 1024 H 93.6314 0.0371471 -3.4328 0
M  V30 1025 N 96.0765 1.50051 0.48192 0
M  V30 1026 C 97.0235 1.68122 1.58125 0
M  V30 1027 C 97.9935 0.522545 1.57666 0
M  V30 1028 O 99.1785 0.751844 1.75362 0
M  V30 1029 C 96.3185 1.77142 2.96167 0
M  V30 1030 C 95.4315 3.0444 3.06497 0
M  V30 1031 C 94.5665 3.04321 4.35387 0
M  V30 1032 C 93.6055 4.26118 4.3942 0
M  V30 1033 N 92.7425 4.238 5.59766 0
M  V30 1034 H 97.5825 2.6198 1.42022 0
M  V30 1035 H 95.1195 1.29877 0.690687 0
M  V30 1036 H 97.0775 1.80352 3.76203 0
M  V30 1037 H 95.7075 0.867329 3.1093 0
M  V30 1038 H 94.7595 3.10752 2.19402 0
M  V30 1039 H 96.0715 3.94426 3.05336 0
M  V30 1040 H 95.2255 3.062 5.23762 0
M  V30 1041 H 93.9645 2.12147 4.39141 0
M  V30 1042 H 92.9695 4.24463 3.49444 0
M  V30 1043 H 94.1945 5.19507 4.37366 0
M  V30 1044 H 92.1405 3.34474 5.64326 0
M  V30 1045 H 92.0575 5.07542 5.60301 0
M  V30 1046 H 93.3255 4.2981 6.50295 0
M  V30 1047 N 97.5546 -0.734337 1.39446 0
M  V30 1048 C 98.7826 -1.52358 1.39981 0
M  V30 1049 C 99.1976 -1.88799 -0.0054975 0
M  V30 1050 O 98.5546 -1.54146 -0.976998 0
M  V30 1051 C 98.6056 -2.81072 2.27333 0
M  V30 1052 O 98.3266 -2.46178 3.62392 0
M  V30 1053 C 99.8276 -3.75096 2.36259 0
M  V30 1054 H 97.0476 -0.470806 0.478103 0
M  V30 1055 H 99.5916 -0.907339 1.83269 0
M  V30 1056 H 97.7466 -3.39026 1.87457 0
M  V30 1057 H 98.1606 -3.28866 4.08592 0
M  V30 1058 H 99.6346 -4.62305 3.01626 0
M  V30 1059 H 100.112 -4.16892 1.38194 0
M  V30 1060 H 100.718 -3.23061 2.76608 0
M  V30 1061 N 99.0327 -1.24633 -0.964593 0
M  V30 1062 C 100.444 -1.08045 -1.5226 0
M  V30 1063 C 100.795 0.347116 -1.93105 0
M  V30 1064 O 99.9197 1.23588 -1.77637 0
M  V30 1065 C 100.515 -1.95514 -2.76695 0
M  V30 1066 C 99.0737 -1.8314 -3.28841 0
M  V30 1067 C 98.2207 -1.90262 -2.01732 0
M  V30 1068 H 101.172 -1.38064 -0.782553 0
M  V30 1069 H 101.193 -1.48925 -3.50145 0
M  V30 1070 H 100.705 -2.99407 -2.46936 0
M  V30 1071 H 98.8057 -0.82092 -3.63444 0
M  V30 1072 H 98.9187 -2.67406 -3.97531 0
M  V30 1073 H 97.2827 -1.34027 -2.16584 0
M  V30 1074 H 98.0657 -2.9574 -1.74334 0
M  V30 1075 N 100.511 1.16574 -1.06058 0
M  V30 1076 C 101.441 2.23057 -0.690488 0
M  V30 1077 C 102.422 1.67141 0.315901 0
M  V30 1078 O 103.607 1.93253 0.191556 0
M  V30 1079 C 100.737 3.47222 -0.073625 0
M  V30 1080 C 99.6908 4.16016 -1.00573 0
M  V30 1081 C 99.0168 5.34104 -0.252289 0
M  V30 1082 C 100.317 4.67264 -2.33371 0
M  V30 1083 H 102.011 2.54271 -1.58072 0
M  V30 1084 H 99.5568 1.22218 -0.76149 0
M  V30 1085 H 101.51 4.20939 0.19714 0
M  V30 1086 H 100.234 3.15302 0.85161 0
M  V30 1087 H 98.8928 3.44223 -1.2612 0
M  V30 1088 H 98.5408 4.98437 0.675988 0
M  V30 1089 H 98.2408 5.81072 -0.873455 0
M  V30 1090 H 99.7648 6.10599 0.0109857 0
M  V30 1091 H 101.179 5.32573 -2.12223 0
M  V30 1092 H 99.5758 5.24843 -2.90963 0
M  V30 1093 H 100.646 3.83602 -2.96611 0
M  V30 1094 N 101.989 0.842826 1.3317 0
M  V30 1095 C 103.405 0.531128 1.50503 0
M  V30 1096 C 103.605 -0.940734 1.78192 0
M  V30 1097 O 102.661 -1.72436 1.84451 0
M  V30 1098 C 103.974 1.40789 2.65705 0
M  V30 1099 C 105.522 1.40708 2.79589 0
M  V30 1100 C 105.997 2.26878 3.97857 0
M  V30 1101 N 107.488 2.24609 4.05099 0
M  V30 1102 C 108.223 2.88019 4.95815 0
M  V30 1103 N 107.719 3.60496 5.9162 0
M  V30 1104 N 109.512 2.77469 4.88843 0
M  V30 1105 H 101.663 1.79557 1.1346 0
M  V30 1106 H 103.926 0.766267 0.558156 0
M  V30 1107 H 103.632 2.454 2.51936 0
M  V30 1108 H 103.506 1.08677 3.61205 0
M  V30 1109 H 105.893 0.368668 2.92788 0
M  V30 1110 H 105.974 1.76829 1.84838 0
M  V30 1111 H 105.618 3.3078 3.85418 0
M  V30 1112 H 105.548 1.88096 4.91861 0
M  V30 1113 H 108.039 1.71906 3.36536 0
M  V30 1114 H 108.352 4.06076 6.57512 0
M  V30 1115 H 106.697 3.64604 5.91683 0
M  V30 1116 H 109.888 2.20406 4.12963 0
M  V30 1117 H 110.061 3.2717 5.59342 0
M  V30 1118 N 103.467 -1.45747 0.599634 0
M  V30 1119 C 104.697 -2.06369 0.0977132 0
M  V30 1120 C 105.105 -1.44624 -1.21985 0
M  V30 1121 O 104.448 -0.551831 -1.75216 0
M  V30 1122 C 104.51 -3.59284 -0.124673 0
M  V30 1123 C 104.174 -4.43318 1.10987 0
M  V30 1124 C 105.171 -4.78796 2.02609 0
M  V30 1125 C 102.856 -4.84194 1.33647 0
M  V30 1126 C 104.85 -5.53997 3.15224 0
M  V30 1127 C 102.537 -5.5915 2.46565 0
M  V30 1128 C 103.535 -5.93968 3.37182 0
M  V30 1129 O 103.223 -6.67405 4.48136 0
M  V30 1130 H 102.955 -0.673122 0.0623153 0
M  V30 1131 H 105.509 -1.88104 0.824981 0
M  V30 1132 H 103.739 -3.75919 -0.906745 0
M  V30 1133 H 105.428 -4.01775 -0.577201 0
M  V30 1134 H 106.194 -4.47781 1.86325 0
M  V30 1135 H 102.073 -4.56534 0.64016 0
M  V30 1136 H 105.617 -5.81091 3.85978 0
M  V30 1137 H 101.514 -5.89579 2.62805 0
M  V30 1138 H 102.282 -6.85847 4.46717 0
M  V30 1139 N 104.945 -0.338344 -1.53925 0
M  V30 1140 C 106.191 0.260143 -2.01125 0
M  V30 1141 C 106.524 1.50617 -1.22589 0
M  V30 1142 O 105.799 1.91979 -0.312113 0
M  V30 1143 C 106.082 0.579499 -3.55407 0
M  V30 1144 C 105.935 -0.678264 -4.44657 0
M  V30 1145 C 107.254 1.39122 -4.17532 0
M  V30 1146 H 104.373 0.0930772 -0.731099 0
M  V30 1147 H 107.015 -0.457852 -1.84401 0
M  V30 1148 H 105.165 1.19118 -3.69788 0
M  V30 1149 H 106.837 -1.31631 -4.42121 0
M  V30 1150 H 105.08 -1.3042 -4.13731 0
M  V30 1151 H 105.751 -0.410143 -5.50474 0
M  V30 1152 H 108.227 0.874035 -4.06817 0
M  V30 1153 H 107.103 1.58342 -5.25565 0
M  V30 1154 H 107.364 2.39178 -3.71815 0
M  V30 1155 N 106.423 1.57458 -0.0668435 0
M  V30 1156 C 107.386 2.11323 0.887422 0
M  V30 1157 C 108.386 1.03618 1.22964 0
M  V30 1158 O 109.576 1.29626 1.16373 0
M  V30 1159 C 106.708 2.61048 2.19242 0
M  V30 1160 H 107.901 2.96942 0.420194 0
M  V30 1161 H 105.454 1.55239 0.181793 0
M  V30 1162 H 106.189 1.78868 2.70512 0
M  V30 1163 H 105.974 3.39769 1.95702 0
M  V30 1164 H 107.464 3.02814 2.87565 0
M  V30 1165 N 107.901 -0.206675 1.56239 0
M  V30 1166 C 108.834 -1.28383 1.88661 0
M  V30 1167 C 109.812 -1.44504 0.745481 0
M  V30 1168 O 110.996 -1.60079 0.995336 0
M  V30 1169 C 108.123 -2.65211 2.10667 0
M  V30 1170 C 107.169 -2.66025 3.33366 0
M  V30 1171 S 108.002 -2.18609 4.88846 0
M  V30 1172 C 109.158 -3.57283 5.13906 0
M  V30 1173 H 109.391 -1.00691 2.7973 0
M  V30 1174 H 106.924 -0.409627 1.48867 0
M  V30 1175 H 108.882 -3.43979 2.24029 0
M  V30 1176 H 107.543 -2.90121 1.20369 0
M  V30 1177 H 106.736 -3.66607 3.45855 0
M  V30 1178 H 106.338 -1.95331 3.18938 0
M  V30 1179 H 108.63 -4.53074 5.03717 0
M  V30 1180 H 109.573 -3.49699 6.15724 0
M  V30 1181 H 109.981 -3.51659 4.41583 0
M  V30 1182 N 109.379 -1.50304 -0.473955 0
M  V30 1183 C 110.625 -1.61389 -1.22806 0
M  V30 1184 C 110.958 -0.311955 -1.91678 0
M  V30 1185 O 110.233 0.686384 -1.81986 0
M  V30 1186 C 110.516 -2.79219 -2.27396 0
M  V30 1187 C 110.369 -4.19286 -1.62848 0
M  V30 1188 C 111.688 -2.92614 -3.28732 0
M  V30 1189 H 108.807 -0.587399 -0.445119 0
M  V30 1190 H 111.449 -1.82681 -0.522265 0
M  V30 1191 H 109.599 -2.61195 -2.87592 0
M  V30 1192 H 111.271 -4.48892 -1.06271 0
M  V30 1193 H 109.514 -4.23677 -0.931693 0
M  V30 1194 H 110.185 -4.97655 -2.38838 0
M  V30 1195 H 112.661 -3.09105 -2.78556 0
M  V30 1196 H 111.537 -3.76688 -3.99246 0
M  V30 1197 H 111.798 -2.03107 -3.92683 0
M  V30 1198 N 110.857 0.726932 -1.39834 0
M  V30 1199 C 112.106 1.48214 -1.36805 0
M  V30 1200 C 112.419 1.95576 0.0305291 0
M  V30 1201 O 113.625 2.7088 0.183417 0
M  V30 1202 C 112.081 2.67854 -2.40379 0
M  V30 1203 C 111.689 2.27408 -3.85992 0
M  V30 1204 C 113.433 3.45641 -2.46439 0
M  V30 1205 C 111.34 3.43819 -4.81189 0
M  V30 1206 H 110.27 0.556606 -0.508631 0
M  V30 1207 H 112.921 0.792216 -1.65518 0
M  V30 1208 H 111.303 3.3896 -2.04749 0
M  V30 1209 H 112.477 1.63795 -4.30706 0
M  V30 1210 H 110.792 1.62692 -3.83302 0
M  V30 1211 H 113.389 4.32244 -3.14753 0
M  V30 1212 H 113.732 3.88669 -1.49139 0
M  V30 1213 H 114.265 2.8157 -2.81004 0
M  V30 1214 H 111.004 3.05834 -5.79781 0
M  V30 1215 H 110.524 4.06385 -4.41148 0
M  V30 1216 H 112.203 4.10043 -5.00474 0
M  V30 1217 N 112.336 1.25143 0.95797 0
M  V30 1218 C 113.582 1.10863 1.70531 0
M  V30 1219 C 113.937 -0.347391 1.89238 0
M  V30 1220 O 113.23 -1.25262 1.44983 0
M  V30 1221 C 113.424 1.79272 3.09187 0
M  V30 1222 C 113.253 3.31376 3.04006 0
M  V30 1223 C 112.023 4.0062 3.07948 0
M  V30 1224 C 114.221 4.27825 2.8543 0
M  V30 1225 N 112.203 5.39526 2.9289 0
M  V30 1226 C 113.574 5.53794 2.78769 0
M  V30 1227 C 115.629 4.1828 2.70085 0
M  V30 1228 C 114.332 6.7131 2.58331 0
M  V30 1229 C 116.358 5.35485 2.51017 0
M  V30 1230 C 115.72 6.60393 2.45073 0
M  V30 1231 H 111.819 0.460362 0.632132 0
M  V30 1232 H 114.403 1.58196 1.13499 0
M  V30 1233 H 112.574 1.34439 3.64391 0
M  V30 1234 H 114.306 1.57764 3.72683 0
M  V30 1235 H 111.061 3.51855 3.17009 0
M  V30 1236 H 111.485 6.12416 2.88574 0
M  V30 1237 H 116.127 3.22461 2.73457 0
M  V30 1238 H 113.845 7.67243 2.53701 0
M  V30 1239 H 117.431 5.29959 2.40073 0
M  V30 1240 H 116.311 7.49557 2.30509 0
M  V30 1241 N 113.814 -1.1601 1.06675 0
M  V30 1242 C 114.744 -2.22688 0.702307 0
M  V30 1243 C 115.725 -1.67306 -0.307032 0
M  V30 1244 O 116.91 -1.93352 -0.181305 0
M  V30 1245 C 114.04 -3.47178 0.092038 0
M  V30 1246 C 112.994 -4.15477 1.02777 0
M  V30 1247 C 112.32 -5.33963 0.28061 0
M  V30 1248 C 113.62 -4.66019 2.35846 0
M  V30 1249 H 115.314 -2.53429 1.59419 0
M  V30 1250 H 112.86 -1.21813 0.767961 0
M  V30 1251 H 114.813 -4.21037 -0.174814 0
M  V30 1252 H 113.537 -3.15749 -0.834877 0
M  V30 1253 H 112.196 -3.43549 1.27944 0
M  V30 1254 H 111.844 -4.98788 -0.649545 0
M  V30 1255 H 111.544 -5.806 0.904258 0
M  V30 1256 H 113.068 -6.10596 0.021396 0
M  V30 1257 H 114.482 -5.3144 2.15045 0
M  V30 1258 H 112.879 -5.23293 2.93743 0
M  V30 1259 H 113.949 -3.82023 2.98641 0
M  V30 1260 N 115.292 -0.849877 -1.32721 0
M  V30 1261 C 116.522 -0.46408 -2.0132 0
M  V30 1262 C 116.93 0.94246 -1.64056 0
M  V30 1263 O 116.273 1.6257 -0.855379 0
M  V30 1264 C 116.335 -0.517887 -3.5575 0
M  V30 1265 C 115.999 -1.88248 -4.16427 0
M  V30 1266 C 116.996 -2.84726 -4.35002 0
M  V30 1267 C 114.681 -2.17832 -4.52609 0
M  V30 1268 C 116.675 -4.08945 -4.8892 0
M  V30 1269 C 114.362 -3.42304 -5.06232 0
M  V30 1270 C 115.36 -4.37677 -5.24335 0
M  V30 1271 O 115.048 -5.59946 -5.76815 0
M  V30 1272 H 114.78 -0.181327 -0.651227 0
M  V30 1273 H 117.334 -1.14713 -1.70382 0
M  V30 1274 H 115.564 0.221997 -3.86062 0
M  V30 1275 H 117.253 -0.148366 -4.05629 0
M  V30 1276 H 118.019 -2.63174 -4.07388 0
M  V30 1277 H 113.898 -1.44385 -4.37806 0
M  V30 1278 H 117.442 -4.83396 -5.02966 0
M  V30 1279 H 113.339 -3.63709 -5.33278 0
M  V30 1280 H 114.107 -5.61838 -5.95214 0
M  V30 1281 N 116.77 1.45427 -0.607355 0
M  V30 1282 C 117.995 2.07124 -0.107006 0
M  V30 1283 C 118.42 1.44906 1.19933 0
M  V30 1284 O 117.778 0.541687 1.73019 0
M  V30 1285 C 117.826 3.60595 0.0194119 0
M  V30 1286 O 116.93 3.98285 1.0697 0
M  V30 1287 H 116.271 0.659868 -0.0739597 0
M  V30 1288 H 118.801 1.86683 -0.837297 0
M  V30 1289 H 118.811 4.07419 0.2177 0
M  V30 1290 H 117.486 4.05266 -0.934453 0
M  V30 1291 H 116.063 3.63133 0.847889 0
M  V30 1292 N 118.248 0.346503 1.53744 0
M  V30 1293 C 119.211 -0.496439 2.23759 0
M  V30 1294 C 120.211 -1.0252 1.2388 0
M  V30 1295 O 121.401 -0.913974 1.48297 0
M  V30 1296 C 118.533 -1.69187 2.95954 0
M  V30 1297 H 119.726 0.115952 2.99676 0
M  V30 1298 H 117.279 0.0978939 1.55993 0
M  V30 1299 H 118.014 -2.34288 2.24231 0
M  V30 1300 H 117.799 -1.31989 3.69217 0
M  V30 1301 H 119.289 -2.28969 3.49232 0
M  V30 1302 N 119.726 -1.57421 0.075193 0
M  V30 1303 C 120.973 -1.93618 -0.593146 0
M  V30 1304 C 121.301 -0.955484 -1.69413 0
M  V30 1305 O 120.556 0.0283251 -1.9568 0
M  V30 1306 C 120.855 -3.36428 -1.20626 0
M  V30 1307 C 120.521 -4.50307 -0.231078 0
M  V30 1308 C 119.183 -4.81186 0.0371936 0
M  V30 1309 C 121.535 -5.19374 0.435888 0
M  V30 1310 C 118.863 -5.78466 0.979461 0
M  V30 1311 C 121.215 -6.17665 1.3665 0
M  V30 1312 C 119.879 -6.46958 1.6432 0
M  V30 1313 H 119.149 -0.708499 -0.217047 0
M  V30 1314 H 121.796 -1.90937 0.146793 0
M  V30 1315 H 120.101 -3.35592 -2.02201 0
M  V30 1316 H 121.798 -3.61727 -1.73073 0
M  V30 1317 H 118.388 -4.26227 -0.450357 0
M  V30 1318 H 122.572 -4.95711 0.241748 0
M  V30 1319 H 117.828 -5.99487 1.20106 0
M  V30 1320 H 122.002 -6.70284 1.88924 0
M  V30 1321 H 119.629 -7.2215 2.37494 0
M  V30 1322 N 121.204 0.198386 -1.56346 0
M  V30 1323 C 122.62 0.549085 -1.49857 0
M  V30 1324 C 122.82 1.86016 -0.774611 0
M  V30 1325 O 121.876 2.50416 -0.323776 0
M  V30 1326 C 123.189 0.606868 -2.94512 0
M  V30 1327 C 124.737 0.695925 -3.05165 0
M  V30 1328 C 125.212 0.784848 -4.51225 0
M  V30 1329 N 126.703 0.848463 -4.55363 0
M  V30 1330 C 127.438 0.937378 -5.65686 0
M  V30 1331 N 126.934 0.9888 -6.85707 0
M  V30 1332 N 128.727 0.974312 -5.53592 0
M  V30 1333 H 120.878 -0.661655 -2.01831 0
M  V30 1334 H 123.141 -0.235261 -0.918344 0
M  V30 1335 H 122.847 -0.28732 -3.50524 0
M  V30 1336 H 122.721 1.46268 -3.47686 0
M  V30 1337 H 125.108 1.58055 -2.49204 0
M  V30 1338 H 125.189 -0.186022 -2.55123 0
M  V30 1339 H 124.833 -0.0954072 -5.0781 0
M  V30 1340 H 124.763 1.68255 -4.98997 0
M  V30 1341 H 127.254 0.818103 -3.68938 0
M  V30 1342 H 127.567 1.05707 -7.65536 0
M  V30 1343 H 125.912 0.957534 -6.88372 0
M  V30 1344 H 129.103 0.930954 -4.58749 0
M  V30 1345 H 129.276 1.04015 -6.39597 0
M  V30 1346 N 122.682 1.50554 0.465978 0
M  V30 1347 C 123.93 1.61479 1.21528 0
M  V30 1348 C 124.251 0.319596 1.92363 0
M  V30 1349 O 123.521 -0.663194 1.84333 0
M  V30 1350 H 122.101 0.595055 0.451573 0
M  V30 1351 H 124.763 1.87355 0.53704 0
M  V30 1352 H 123.859 2.42846 1.96042 0
M  V30 1353 N 124.16 -0.719506 1.40217 0
M  V30 1354 C 125.406 -1.48152 1.38488 0
M  V30 1355 C 125.739 -1.94195 -0.0141867 0
M  V30 1356 O 125.014 -1.67884 -0.982096 0
M  V30 1357 C 125.297 -2.71035 2.37091 0
M  V30 1358 C 125.15 -2.30912 3.86005 0
M  V30 1359 C 126.469 -3.73182 2.33288 0
M  V30 1360 H 123.588 -0.537395 0.504357 0
M  V30 1361 H 126.23 -0.821472 1.71324 0
M  V30 1362 H 124.38 -3.27352 2.0922 0
M  V30 1363 H 126.052 -1.80107 4.24687 0
M  V30 1364 H 124.295 -1.62958 4.02029 0
M  V30 1365 H 124.966 -3.18978 4.50508 0
M  V30 1366 H 127.442 -3.26485 2.57966 0
M  V30 1367 H 126.318 -4.56806 3.04334 0
M  V30 1368 H 126.579 -4.21202 1.34317 0
M  V30 1369 N 125.638 -1.25649 -0.95132 0
M  V30 1370 C 126.57 -1.02112 -2.05197 0
M  V30 1371 C 127.583 0.0150571 -1.62793 0
M  V30 1372 O 128.772 -0.223874 -1.77091 0
M  V30 1373 C 125.872 -0.522361 -3.3485 0
M  V30 1374 C 125.045 -1.62546 -4.06076 0
M  V30 1375 C 124.104 -1.12649 -5.14001 0
M  V30 1376 O 123.13 -1.82156 -5.39266 0
M  V30 1377 N 124.332 0.03047 -5.80492 0
M  V30 1378 H 127.097 -1.96885 -2.25957 0
M  V30 1379 H 124.658 -1.16899 -1.1201 0
M  V30 1380 H 126.65 -0.172961 -4.0433 0
M  V30 1381 H 125.22 0.33151 -3.10837 0
M  V30 1382 H 124.44 -2.14628 -3.30649 0
M  V30 1383 H 125.728 -2.36644 -4.50419 0
M  V30 1384 H 125.126 0.611169 -5.62389 0
M  V30 1385 H 123.683 0.320875 -6.5101 0
M  V30 1386 N 127.117 1.15442 -1.07289 0
M  V30 1387 C 128.047 2.22312 -0.714107 0
M  V30 1388 C 129.028 1.67467 0.298155 0
M  V30 1389 O 130.213 1.93445 0.171048 0
M  V30 1390 C 127.343 3.47124 -0.110448 0
M  V30 1391 C 126.297 4.14926 -1.04979 0
M  V30 1392 C 125.623 5.33807 -0.308924 0
M  V30 1393 C 126.923 4.64762 -2.38314 0
M  V30 1394 H 128.617 2.5258 -1.6076 0
M  V30 1395 H 126.163 1.21404 -0.77441 0
M  V30 1396 H 128.116 4.21124 0.152482 0
M  V30 1397 H 126.84 3.16187 0.81812 0
M  V30 1398 H 125.499 3.42866 -1.29764 0
M  V30 1399 H 125.147 4.99126 0.623084 0
M  V30 1400 H 124.847 5.80113 -0.935036 0
M  V30 1401 H 126.371 6.10576 -0.0537771 0
M  V30 1402 H 127.785 5.30292 -2.1786 0
M  V30 1403 H 126.182 5.21728 -2.96514 0
M  V30 1404 H 127.252 3.80434 -3.00663 0
M  V30 1405 N 128.595 0.856903 1.32268 0
M  V30 1406 C 129.823 0.475439 2.01363 0
M  V30 1407 C 130.238 -0.928486 1.64392 0
M  V30 1408 O 129.595 -1.60624 0.866387 0
M  V30 1409 C 129.646 0.607545 3.56358 0
M  V30 1410 O 129.367 1.95617 3.92002 0
M  V30 1411 C 130.868 0.225382 4.42727 0
M  V30 1412 H 128.088 0.186636 0.644521 0
M  V30 1413 H 130.632 1.15446 1.68797 0
M  V30 1414 H 128.787 -0.0237719 3.87393 0
M  V30 1415 H 129.201 1.95455 4.86721 0
M  V30 1416 H 130.675 0.368813 5.50767 0
M  V30 1417 H 131.152 -0.834369 4.31202 0
M  V30 1418 H 131.758 0.831864 4.17085 0
M  V30 1419 N 130.073 -1.45103 0.615059 0
M  V30 1420 C 131.303 -2.06254 0.119596 0
M  V30 1421 C 131.711 -1.4591 -1.20445 0
M  V30 1422 O 131.054 -0.570384 -1.7462 0
M  V30 1423 C 131.116 -3.59396 -0.0865591 0
M  V30 1424 C 130.78 -4.42116 1.15683 0
M  V30 1425 C 131.777 -4.7662 2.07676 0
M  V30 1426 C 129.462 -4.82749 1.38775 0
M  V30 1427 C 131.456 -5.50622 3.21082 0
M  V30 1428 C 129.143 -5.56504 2.52481 0
M  V30 1429 C 130.141 -5.90358 3.43463 0
M  V30 1430 O 129.829 -6.62615 4.55189 0
M  V30 1431 H 129.561 -0.672423 0.0694512 0
M  V30 1432 H 132.115 -1.87219 0.844885 0
M  V30 1433 H 130.345 -3.76859 -0.866823 0
M  V30 1434 H 132.034 -4.02365 -0.534555 0
M  V30 1435 H 132.8 -4.4578 1.91063 0
M  V30 1436 H 128.679 -4.55829 0.688545 0
M  V30 1437 H 132.223 -5.76965 3.92119 0
M  V30 1438 H 128.12 -5.86759 2.69043 0
M  V30 1439 H 128.888 -6.81071 4.53966 0
M  V30 1440 N 131.551 -0.354651 -1.53558 0
M  V30 1441 C 132.461 0.50515 -2.29097 0
M  V30 1442 C 133.477 1.10223 -1.34636 0
M  V30 1443 O 134.653 1.11553 -1.67684 0
M  V30 1444 C 131.718 1.63479 -3.05738 0
M  V30 1445 C 130.779 1.06636 -4.15845 0
M  V30 1446 C 130.012 2.14217 -4.88822 0
M  V30 1447 O 130.235 3.35137 -4.61562 0
M  V30 1448 O 129.169 1.77887 -5.75013 0
M  V30 1449 H 132.995 -0.109237 -3.03503 0
M  V30 1450 H 130.58 -0.119357 -1.48922 0
M  V30 1451 H 132.462 2.2918 -3.5363 0
M  V30 1452 H 131.137 2.23478 -2.34178 0
M  V30 1453 H 130.044 0.373565 -3.7223 0
M  V30 1454 H 131.377 0.511081 -4.89539 0
M  V30 1455 N 133.029 1.57378 -0.0835403 0
M  V30 1456 C 133.979 2.09916 0.889905 0
M  V30 1457 C 134.963 1.01151 1.25129 0
M  V30 1458 O 136.155 1.27443 1.2283 0
M  V30 1459 C 133.284 2.67379 2.15322 0
M  V30 1460 C 132.37 3.83167 1.81779 0
M  V30 1461 N 132.761 4.91665 1.18739 0
M  V30 1462 C 131.059 3.92685 2.11459 0
M  V30 1463 C 131.76 5.72409 1.0355 0
M  V30 1464 N 130.736 5.21062 1.54906 0
M  V30 1465 H 134.538 2.91188 0.398378 0
M  V30 1466 H 132.052 1.61956 0.120013 0
M  V30 1467 H 134.049 3.0334 2.8599 0
M  V30 1468 H 132.709 1.87558 2.65051 0
M  V30 1469 H 133.72 5.10784 0.855604 0
M  V30 1470 H 130.397 3.23856 2.63483 0
M  V30 1471 H 131.787 6.69699 0.543425 0
M  V30 1472 N 134.507 -0.190092 1.56449 0
M  V30 1473 C 135.735 -0.925772 1.85033 0
M  V30 1474 C 136.15 -1.76638 0.666658 0
M  V30 1475 O 135.507 -1.78822 -0.364565 0
M  V30 1476 C 135.558 -1.81786 3.12468 0
M  V30 1477 O 135.279 -1.01118 4.26271 0
M  V30 1478 C 136.78 -2.6648 3.54265 0
M  V30 1479 H 134 -0.269872 0.614337 0
M  V30 1480 H 136.544 -0.195837 2.0356 0
M  V30 1481 H 134.699 -2.50136 2.95822 0
M  V30 1482 H 135.113 -1.61956 4.98869 0
M  V30 1483 H 136.587 -3.24722 4.46385 0
M  V30 1484 H 137.064 -3.40434 2.77491 0
M  V30 1485 H 137.67 -2.03493 3.73458 0
M  V30 1486 N 135.985 -1.50799 -0.457987 0
M  V30 1487 C 136.918 -1.65273 -1.57353 0
M  V30 1488 C 137.896 -0.500578 -1.54703 0
M  V30 1489 O 139.08 -0.721781 -1.74134 0
M  V30 1490 C 136.207 -1.64737 -2.95938 0
M  V30 1491 C 135.253 -2.8567 -3.16693 0
M  V30 1492 S 136.086 -4.46791 -2.95191 0
M  V30 1493 C 137.242 -4.48968 -4.36095 0
M  V30 1494 H 137.475 -2.59633 -1.44838 0
M  V30 1495 H 135.008 -1.40225 -0.64625 0
M  V30 1496 H 136.966 -1.65112 -3.7583 0
M  V30 1497 H 135.627 -0.715899 -3.05833 0
M  V30 1498 H 134.82 -2.81637 -4.17967 0
M  V30 1499 H 134.422 -2.8293 -2.44594 0
M  V30 1500 H 136.714 -4.23337 -5.28954 0
M  V30 1501 H 137.657 -5.50664 -4.45168 0
M  V30 1502 H 138.065 -3.78522 -4.18786 0
M  V30 1503 N 137.463 0.71206 -1.40597 0
M  V30 1504 C 138.393 1.83889 -1.43899 0
M  V30 1505 C 139.374 1.67442 -0.299504 0
M  V30 1506 O 140.559 1.87421 -0.508624 0
M  V30 1507 C 137.689 3.21877 -1.30431 0
M  V30 1508 C 136.643 3.53002 -2.42019 0
M  V30 1509 C 135.969 4.90172 -2.13626 0
M  V30 1510 C 137.269 3.53643 -3.84362 0
M  V30 1511 H 138.963 1.81383 -2.38203 0
M  V30 1512 H 136.509 0.871237 -1.14654 0
M  V30 1513 H 138.462 4.00404 -1.31357 0
M  V30 1514 H 137.186 3.24968 -0.326049 0
M  V30 1515 H 135.845 2.76818 -2.40349 0
M  V30 1516 H 135.493 4.89869 -1.14182 0
M  V30 1517 H 135.193 5.11962 -2.88389 0
M  V30 1518 H 136.717 5.71028 -2.1624 0
M  V30 1519 H 138.131 4.22203 -3.87837 0
M  V30 1520 H 136.528 3.86961 -4.58673 0
M  V30 1521 H 137.598 2.52954 -4.13693 0
M  V30 1522 N 138.941 1.26152 0.944643 0
M  V30 1523 C 139.873 1.03199 2.04652 0
M  V30 1524 C 140.886 -0.00642356 1.62799 0
M  V30 1525 O 142.075 0.233263 1.76969 0
M  V30 1526 C 139.175 0.540111 3.34568 0
M  V30 1527 C 138.348 1.64697 4.05208 0
M  V30 1528 C 137.407 1.15374 5.13396 0
M  V30 1529 O 136.433 1.85013 5.38293 0
M  V30 1530 N 137.635 0.00031529 5.805 0
M  V30 1531 H 140.4 1.9808 2.2491 0
M  V30 1532 H 137.961 1.17491 1.11389 0
M  V30 1533 H 139.953 0.194401 4.04233 0
M  V30 1534 H 138.523 -0.315021 3.11009 0
M  V30 1535 H 137.743 2.16379 3.29506 0
M  V30 1536 H 139.031 2.3903 4.49157 0
M  V30 1537 H 138.429 -0.581336 5.62705 0
M  V30 1538 H 136.986 -0.286346 6.51171 0
M  V30 1539 N 140.419 -1.14872 1.07899 0
M  V30 1540 C 141.349 -2.2193 0.725887 0
M  V30 1541 C 142.33 -1.67622 -0.28927 0
M  V30 1542 O 143.515 -1.93533 -0.160787 0
M  V30 1543 C 140.645 -3.47061 0.128856 0
M  V30 1544 C 139.599 -4.14363 1.07178 0
M  V30 1545 C 138.925 -5.33636 0.337229 0
M  V30 1546 C 140.225 -4.63492 2.40775 0
M  V30 1547 H 141.919 -2.51724 1.62097 0
M  V30 1548 H 139.465 -1.20991 0.780838 0
M  V30 1549 H 141.418 -4.21199 -0.130147 0
M  V30 1550 H 140.142 -3.16617 -0.80134 0
M  V30 1551 H 138.801 -3.42173 1.3158 0
M  V30 1552 H 138.449 -4.99449 -0.596606 0
M  V30 1553 H 138.149 -5.79609 0.965788 0
M  V30 1554 H 139.673 -6.10539 0.0861567 0
M  V30 1555 H 141.087 -5.2913 2.20669 0
M  V30 1556 H 139.484 -5.20148 2.99276 0
M  V30 1557 H 140.554 -3.78834 3.02676 0
M  V30 1558 N 141.898 -0.863906 -1.31812 0
M  V30 1559 C 143.128 -0.485406 -2.00817 0
M  V30 1560 C 143.536 0.925007 -1.65046 0
M  V30 1561 O 142.879 1.61653 -0.872574 0
M  V30 1562 C 142.941 -0.555589 -3.55181 0
M  V30 1563 C 142.605 -1.92654 -4.14407 0
M  V30 1564 C 143.602 -2.89324 -4.31958 0
M  V30 1565 C 141.287 -2.2262 -4.50273 0
M  V30 1566 C 143.281 -4.14108 -4.84555 0
M  V30 1567 C 140.968 -3.47654 -5.02573 0
M  V30 1568 C 141.966 -4.43214 -5.19664 0
M  V30 1569 O 141.654 -5.66033 -5.70843 0
M  V30 1570 H 141.386 -0.188224 -0.649267 0
M  V30 1571 H 143.94 -1.16514 -1.69156 0
M  V30 1572 H 142.17 0.181037 -3.86276 0
M  V30 1573 H 143.859 -0.19138 -4.05449 0
M  V30 1574 H 144.625 -2.6748 -4.04573 0
M  V30 1575 H 140.504 -1.4902 -4.3625 0
M  V30 1576 H 144.048 -4.88703 -4.9781 0
M  V30 1577 H 139.945 -3.69345 -5.29391 0
M  V30 1578 H 140.713 -5.6812 -5.89222 0
M  V30 1579 N 143.376 1.44774 -0.622745 0
M  V30 1580 C 144.787 1.85546 -0.207226 0
M  V30 1581 C 145.138 1.52093 1.23944 0
M  V30 1582 O 144.263 0.95492 1.94191 0
M  V30 1583 C 144.858 3.36781 -0.369313 0
M  V30 1584 C 143.417 3.76399 -0.00836847 0
M  V30 1585 C 142.564 2.68664 -0.686651 0
M  V30 1586 H 145.515 1.3536 -0.828454 0
M  V30 1587 H 145.536 3.78453 0.394162 0
M  V30 1588 H 145.048 3.61098 -1.42231 0
M  V30 1589 H 143.149 3.57698 1.04322 0
M  V30 1590 H 143.262 4.7732 -0.412584 0
M  V30 1591 H 141.626 2.54404 -0.122777 0
M  V30 1592 H 142.409 2.95815 -1.74208 0
M  V30 1593 N 144.854 0.36279 1.53368 0
M  V30 1594 C 146.079 -0.231226 2.06107 0
M  V30 1595 C 146.504 -1.419 1.23474 0
M  V30 1596 O 145.862 -1.79524 0.253128 0
M  V30 1597 C 145.91 -0.605523 3.5548 0
M  V30 1598 O 145.014 -1.70312 3.7559 0
M  V30 1599 H 144.355 -0.034327 0.663112 0
M  V30 1600 H 146.885 0.522584 1.97814 0
M  V30 1601 H 146.895 -0.877314 3.98456 0
M  V30 1602 H 145.57 0.263004 4.15068 0
M  V30 1603 H 144.147 -1.4271 3.44512 0
M  V30 1604 N 146.332 -1.57332 0.0918853 0
M  V30 1605 C 147.743 -1.81496 -0.437739 0
M  V30 1606 C 148.094 -1.00727 -1.6837 0
M  V30 1607 O 147.219 -0.235694 -2.15113 0
M  V30 1608 C 147.814 -3.29197 -0.800939 0
M  V30 1609 C 146.373 -3.54136 -1.27532 0
M  V30 1610 C 145.52 -2.75979 -0.270392 0
M  V30 1611 H 148.471 -1.55494 0.317366 0
M  V30 1612 H 148.492 -3.42344 -1.66074 0
M  V30 1613 H 148.004 -3.87955 0.106078 0
M  V30 1614 H 146.105 -3.00705 -2.20016 0
M  V30 1615 H 146.218 -4.62792 -1.23938 0
M  V30 1616 H 144.582 -2.43349 -0.751872 0
M  V30 1617 H 145.365 -3.37484 0.629248 0
M  V30 1618 N 147.81 0.181792 -1.56548 0
M  V30 1619 C 149.057 0.900097 -1.81396 0
M  V30 1620 C 149.385 1.82695 -0.667281 0
M  V30 1621 O 148.64 1.92614 0.346146 0
M  V30 1622 C 148.939 1.73728 -3.12335 0
M  V30 1623 C 148.605 0.960255 -4.40556 0
M  V30 1624 C 147.267 0.745766 -4.75386 0
M  V30 1625 C 149.619 0.414477 -5.19549 0
M  V30 1626 C 146.947 -0.0257694 -5.86694 0
M  V30 1627 C 149.299 -0.343916 -6.31664 0
M  V30 1628 C 147.963 -0.569301 -6.65068 0
M  V30 1629 H 147.233 0.329369 -0.663775 0
M  V30 1630 H 149.88 0.165647 -1.90782 0
M  V30 1631 H 148.185 2.54081 -2.98245 0
M  V30 1632 H 149.882 2.29591 -3.28769 0
M  V30 1633 H 146.472 1.13746 -4.13231 0
M  V30 1634 H 150.656 0.567554 -4.93044 0
M  V30 1635 H 145.912 -0.210233 -6.11038 0
M  V30 1636 H 150.086 -0.774133 -6.92084 0
M  V30 1637 H 147.713 -1.16903 -7.51158 0
M  V30 1638 N 149.288 1.51039 0.449983 0
M  V30 1639 C 150.251 1.70863 1.5277 0
M  V30 1640 C 151.251 0.578846 1.5002 0
M  V30 1641 O 152.441 0.846213 1.52266 0
M  V30 1642 C 149.573 1.75341 2.9235 0
M  V30 1643 H 150.766 2.67034 1.36502 0
M  V30 1644 H 148.319 1.40838 0.677812 0
M  V30 1645 H 149.054 0.809383 3.14037 0
M  V30 1646 H 148.839 2.57436 2.95752 0
M  V30 1647 H 150.329 1.92559 3.70555 0
M  V30 1648 N 150.766 -0.704594 1.40972 0
M  V30 1649 C 151.994 -1.49354 1.43182 0
M  V30 1650 C 152.409 -1.88768 0.0345508 0
M  V30 1651 O 151.766 -1.56184 -0.944081 0
M  V30 1652 C 151.817 -2.76187 2.33244 0
M  V30 1653 O 151.538 -2.38436 3.67532 0
M  V30 1654 C 153.039 -3.7 2.44162 0
M  V30 1655 H 150.259 -0.460559 0.487982 0
M  V30 1656 H 152.803 -0.868261 1.85153 0
M  V30 1657 H 150.958 -3.34974 1.94606 0
M  V30 1658 H 151.372 -3.20126 4.15475 0
M  V30 1659 H 152.846 -4.55803 3.11364 0
M  V30 1660 H 153.323 -4.13867 1.47006 0
M  V30 1661 H 153.929 -3.17121 2.83398 0
M  V30 1662 N 152.244 -1.26651 -0.937939 0
M  V30 1663 C 153.484 -1.13611 -1.69917 0
M  V30 1664 C 153.848 0.314687 -1.89404 0
M  V30 1665 O 155.049 0.567285 -2.62746 0
M  V30 1666 C 153.32 -1.88742 -3.03498 0
M  V30 1667 S 154.879 -1.91794 -3.94665 0
M  V30 1668 H 151.697 -0.405767 -0.583844 0
M  V30 1669 H 154.299 -1.60416 -1.11745 0
M  V30 1670 H 153.003 -2.9336 -2.86999 0
M  V30 1671 H 152.534 -1.42391 -3.66727 0
M  V30 1672 H 154.549 -1.00698 -4.85875 0
M  V30 1673 N 153.722 1.14298 -1.08507 0
M  V30 1674 C 154.999 1.81544 -0.728088 0
M  V30 1675 C 155.379 1.95838 0.78808 0
M  V30 1676 O 154.727 1.51904 1.70697 0
M  V30 1677 C 154.937 3.17169 -1.45619 0
M  V30 1678 C 156.285 3.9265 -1.61591 0
M  V30 1679 O 157.309 3.26762 -1.41793 0
M  V30 1680 O 156.168 5.10807 -1.94263 0
M  V30 1681 H 153.262 0.78491 -0.260471 0
M  V30 1682 H 155.808 1.21307 -1.18671 0
M  V30 1683 H 154.58 3.01934 -2.489 0
M  V30 1684 H 154.203 3.851 -0.989124 0
M  V30 1685 N 155.201 0.870884 1.31352 0
M  V30 1686 C 156.448 0.482273 1.96673 0
M  V30 1687 C 156.776 -0.965638 1.68836 0
M  V30 1688 O 156.031 -1.69514 0.977937 0
M  V30 1689 C 156.33 0.687157 3.50732 0
M  V30 1690 C 155.996 2.108 3.9859 0
M  V30 1691 C 154.658 2.49656 4.1137 0
M  V30 1692 C 157.01 3.03459 4.23748 0
M  V30 1693 C 154.338 3.80412 4.46659 0
M  V30 1694 C 156.69 4.3373 4.60501 0
M  V30 1695 C 155.354 4.725 4.71487 0
M  V30 1696 H 154.624 0.176476 0.719679 0
M  V30 1697 H 157.271 1.10405 1.56471 0
M  V30 1698 H 155.576 -0.0177476 3.91796 0
M  V30 1699 H 157.273 0.366284 3.99324 0
M  V30 1700 H 153.863 1.79633 3.8914 0
M  V30 1701 H 158.047 2.74665 4.13368 0
M  V30 1702 H 153.303 4.1021 4.53362 0
M  V30 1703 H 157.477 5.05578 4.78919 0
M  V30 1704 H 155.104 5.73859 4.98588 0
M  V30 1705 N 156.679 -1.44442 0.630414 0
M  V30 1706 C 157.612 -2.27862 -0.124247 0
M  V30 1707 C 158.59 -1.38495 -0.851931 0
M  V30 1708 O 159.774 -1.67935 -0.856166 0
M  V30 1709 C 156.901 -3.17407 -1.18197 0
M  V30 1710 C 155.947 -4.22875 -0.554892 0
M  V30 1711 S 156.78 -5.31485 0.654489 0
M  V30 1712 C 157.936 -6.246 -0.40326 0
M  V30 1713 H 158.169 -2.91519 0.583435 0
M  V30 1714 H 155.702 -1.48618 0.418565 0
M  V30 1715 H 157.66 -3.69549 -1.78728 0
M  V30 1716 H 156.321 -2.52971 -1.86184 0
M  V30 1717 H 155.514 -4.85542 -1.35148 0
M  V30 1718 H 155.116 -3.73992 -0.0242105 0
M  V30 1719 H 157.408 -6.65375 -1.27602 0
M  V30 1720 H 158.351 -7.07851 0.187813 0
M  V30 1721 H 158.759 -5.59775 -0.728837 0
M  V30 1722 N 158.157 -0.370918 -1.53173 0
M  V30 1723 C 159.403 0.217423 -2.01631 0
M  V30 1724 C 159.736 1.47983 -1.25756 0
M  V30 1725 O 159.011 1.91274 -0.352764 0
M  V30 1726 C 159.294 0.503982 -3.56556 0
M  V30 1727 C 159.147 -0.77243 -4.43118 0
M  V30 1728 C 160.466 1.30234 -4.20389 0
M  V30 1729 H 157.585 0.0775486 -0.732909 0
M  V30 1730 H 160.227 -0.496863 -1.83388 0
M  V30 1731 H 158.377 1.11248 -3.72231 0
M  V30 1732 H 160.049 -1.4098 -4.39229 0
M  V30 1733 H 158.292 -1.39167 -4.10871 0
M  V30 1734 H 158.963 -0.526815 -5.4948 0
M  V30 1735 H 161.439 0.787546 -4.08579 0
M  V30 1736 H 160.315 1.47158 -5.28806 0
M  V30 1737 H 160.576 2.31237 -3.76805 0
M  V30 1738 N 159.635 1.57281 -0.100228 0
M  V30 1739 C 161.051 1.57527 0.256416 0
M  V30 1740 C 161.251 1.11173 1.68056 0
M  V30 1741 O 160.307 0.79053 2.39806 0
M  V30 1742 C 161.62 3.00673 0.0401747 0
M  V30 1743 C 163.168 3.12815 0.107528 0
M  V30 1744 C 163.643 4.57929 -0.0807834 0
M  V30 1745 N 165.134 4.63193 -0.0261207 0
M  V30 1746 C 165.869 5.73212 -0.146999 0
M  V30 1747 N 165.365 6.92047 -0.322999 0
M  V30 1748 N 167.158 5.62031 -0.0879044 0
M  V30 1749 H 159.309 1.85718 -1.03065 0
M  V30 1750 H 161.572 0.857446 -0.404339 0
M  V30 1751 H 161.278 3.38804 -0.943649 0
M  V30 1752 H 161.152 3.69042 0.780262 0
M  V30 1753 H 163.539 2.74554 1.08186 0
M  V30 1754 H 163.62 2.47028 -0.664134 0
M  V30 1755 H 163.264 4.96886 -1.05201 0
M  V30 1756 H 163.194 5.21783 0.710635 0
M  V30 1757 H 165.685 3.77748 0.107161 0
M  V30 1758 H 165.998 7.7173 -0.406608 0
M  V30 1759 H 164.343 6.94074 -0.358733 0
M  V30 1760 H 167.534 4.68075 0.048498 0
M  V30 1761 H 167.707 6.47734 -0.185557 0
M  V30 1762 N 161.113 -0.173488 1.56642 0
M  V30 1763 C 162.36 -0.890465 1.81871 0
M  V30 1764 C 162.688 -1.82339 0.67696 0
M  V30 1765 O 161.943 -1.92795 -0.335926 0
M  V30 1766 C 162.242 -1.72069 3.13252 0
M  V30 1767 C 161.908 -0.936878 4.41059 0
M  V30 1768 C 160.57 -0.720545 4.75775 0
M  V30 1769 C 162.922 -0.386919 5.19762 0
M  V30 1770 C 160.25 0.0568829 5.86672 0
M  V30 1771 C 162.602 0.37741 6.31473 0
M  V30 1772 C 161.266 0.604563 6.64757 0
M  V30 1773 H 160.536 -0.325844 0.665512 0
M  V30 1774 H 163.183 -0.155527 1.90867 0
M  V30 1775 H 161.488 -2.52496 2.99588 0
M  V30 1776 H 163.185 -2.27844 3.29982 0
M  V30 1777 H 159.775 -1.11553 4.13828 0
M  V30 1778 H 163.959 -0.541398 4.93338 0
M  V30 1779 H 159.215 0.242635 6.10918 0
M  V30 1780 H 163.389 0.810825 6.91664 0
M  V30 1781 H 161.016 1.20885 7.50527 0
M  V30 1782 N 162.591 -1.51276 -0.441967 0
M  V30 1783 C 164.002 -1.56244 -1.02199 0
M  V30 1784 C 164.353 -0.383149 -1.92422 0
M  V30 1785 O 163.478 0.500613 -2.1053 0
M  V30 1786 C 164.073 -2.83162 -1.86024 0
M  V30 1787 C 162.632 -2.90716 -2.39084 0
M  V30 1788 C 161.779 -2.50858 -1.18175 0
M  V30 1789 H 164.73 -1.5712 -0.223416 0
M  V30 1790 H 164.751 -2.66663 -2.71425 0
M  V30 1791 H 164.263 -3.68974 -1.20331 0
M  V30 1792 H 162.364 -2.09323 -3.08244 0
M  V30 1793 H 162.477 -3.94266 -2.72198 0
M  V30 1794 H 160.841 -2.03951 -1.52565 0
M  V30 1795 H 161.624 -3.3901 -0.541001 0
M  V30 1796 N 164.069 0.697108 -1.41344 0
M  V30 1797 C 164.979 1.84088 -1.45427 0
M  V30 1798 C 165.995 1.70545 -0.34501 0
M  V30 1799 O 167.171 1.92488 -0.592492 0
M  V30 1800 C 164.236 3.20056 -1.33286 0
M  V30 1801 C 163.297 3.45718 -2.54514 0
M  V30 1802 C 162.53 4.75199 -2.42944 0
M  V30 1803 O 162.753 5.51579 -1.45318 0
M  V30 1804 O 161.687 5.0161 -3.32672 0
M  V30 1805 H 165.513 1.836 -2.41919 0
M  V30 1806 H 163.098 0.849966 -1.22866 0
M  V30 1807 H 164.98 4.01236 -1.28794 0
M  V30 1808 H 163.655 3.2123 -0.39909 0
M  V30 1809 H 162.562 2.64474 -2.64583 0
M  V30 1810 H 163.895 3.49356 -3.46715 0
M  V30 1811 N 165.547 1.27147 0.931209 0
M  V30 1812 C 166.793 1.14455 1.68141 0
M  V30 1813 C 167.148 -0.307172 1.89932 0
M  V30 1814 O 166.441 -1.22158 1.47607 0
M  V30 1815 C 166.635 1.8579 3.05314 0
M  V30 1816 C 166.464 3.3775 2.96909 0
M  V30 1817 C 165.234 4.07062 2.99381 0
M  V30 1818 C 167.432 4.33783 2.76291 0
M  V30 1819 N 165.414 5.45618 2.8138 0
M  V30 1820 C 166.785 5.59582 2.6696 0
M  V30 1821 C 168.84 4.23915 2.61152 0
M  V30 1822 C 167.543 6.76639 2.44033 0
M  V30 1823 C 169.569 5.40689 2.39602 0
M  V30 1824 C 168.931 6.65443 2.3101 0
M  V30 1825 H 165.03 0.473667 0.622225 0
M  V30 1826 H 167.614 1.60568 1.10118 0
M  V30 1827 H 165.785 1.42138 3.61457 0
M  V30 1828 H 167.517 1.65634 3.69253 0
M  V30 1829 H 164.272 3.585 3.09475 0
M  V30 1830 H 164.696 6.184 2.75519 0
M  V30 1831 H 169.338 3.28189 2.66555 0
M  V30 1832 H 167.056 7.72451 2.3737 0
M  V30 1833 H 170.642 5.34932 2.28778 0
M  V30 1834 H 169.522 7.54277 2.14558 0
M  V30 1835 N 167.025 -1.13721 1.09112 0
M  V30 1836 C 167.955 -2.21148 0.749385 0
M  V30 1837 C 168.936 -1.6792 -0.271475 0
M  V30 1838 O 170.121 -1.93693 -0.140251 0
M  V30 1839 C 167.251 -3.46905 0.165659 0
M  V30 1840 C 166.205 -4.13203 1.11567 0
M  V30 1841 C 165.531 -5.33248 0.393809 0
M  V30 1842 C 166.831 -4.60912 2.45678 0
M  V30 1843 H 168.525 -2.4999 1.64758 0
M  V30 1844 H 166.071 -1.20156 0.793626 0
M  V30 1845 H 168.024 -4.21313 -0.085466 0
M  V30 1846 H 166.748 -3.17449 -0.767714 0
M  V30 1847 H 165.407 -3.40758 1.35202 0
M  V30 1848 H 165.055 -5.00054 -0.543599 0
M  V30 1849 H 164.755 -5.78552 1.02721 0
M  V30 1850 H 166.279 -6.10413 0.150908 0
M  V30 1851 H 167.693 -5.26759 2.26269 0
M  V30 1852 H 166.09 -5.16944 3.04776 0
M  V30 1853 H 167.16 -3.75603 3.06677 0
M  V30 1854 N 168.503 -0.877838 -1.30888 0
M  V30 1855 C 169.914 -0.544193 -1.78593 0
M  V30 1856 C 170.265 0.939301 -1.72254 0
M  V30 1857 O 169.39 1.7337 -1.29505 0
M  V30 1858 C 169.985 -0.98105 -3.24285 0
M  V30 1859 C 168.544 -0.698935 -3.69854 0
M  V30 1860 C 167.691 -1.168 -2.51502 0
M  V30 1861 H 170.642 -1.06278 -1.17859 0
M  V30 1862 H 170.663 -0.307009 -3.79259 0
M  V30 1863 H 170.175 -2.06079 -3.28866 0
M  V30 1864 H 168.276 0.369112 -3.70767 0
M  V30 1865 H 168.389 -1.28148 -4.61644 0
M  V30 1866 H 166.753 -0.587535 -2.47831 0
M  V30 1867 H 167.536 -2.25533 -2.58824 0
M  V30 1868 N 169.982 1.44106 -0.638065 0
M  V30 1869 C 170.912 2.33448 0.0494287 0
M  V30 1870 C 171.893 1.48606 0.827672 0
M  V30 1871 O 173.078 1.77308 0.792173 0
M  V30 1872 C 170.208 3.31771 1.02691 0
M  V30 1873 C 169.162 4.26485 0.359823 0
M  V30 1874 C 168.488 5.14729 1.44769 0
M  V30 1875 C 169.788 5.17056 -0.738296 0
M  V30 1876 H 171.482 2.91183 -0.696636 0
M  V30 1877 H 169.028 1.40014 -0.336456 0
M  V30 1878 H 170.981 3.93161 1.51666 0
M  V30 1879 H 169.705 2.7226 1.80395 0
M  V30 1880 H 168.364 3.66437 -0.10934 0
M  V30 1881 H 168.012 4.51566 2.21578 0
M  V30 1882 H 167.712 5.78913 1.00668 0
M  V30 1883 H 169.236 5.78991 1.93911 0
M  V30 1884 H 170.65 5.72342 -0.331354 0
M  V30 1885 H 169.047 5.89879 -1.10286 0
M  V30 1886 H 170.117 4.57652 -1.60258 0
M  V30 1887 N 171.46 0.379036 1.52974 0
M  V30 1888 C 172.737 -0.263479 1.93817 0
M  V30 1889 C 173.117 -1.65244 1.31368 0
M  V30 1890 O 172.465 -2.23448 0.477856 0
M  V30 1891 C 172.675 -0.300166 3.47707 0
M  V30 1892 C 174.023 -0.534061 4.21228 0
M  V30 1893 O 175.047 -0.38081 3.54159 0
M  V30 1894 O 173.906 -0.833501 5.40106 0
M  V30 1895 H 171 -0.161149 0.811147 0
M  V30 1896 H 173.546 0.432798 1.64088 0
M  V30 1897 H 172.318 0.673138 3.85467 0
M  V30 1898 H 171.941 -1.04179 3.83709 0
M  V30 1899 N 172.938 -1.57226 0.108567 0
M  V30 1900 C 173.885 -2.14756 -0.845481 0
M  V30 1901 C 174.855 -1.06971 -1.27068 0
M  V30 1902 O 176.04 -1.34827 -1.35005 0
M  V30 1903 C 173.18 -2.74298 -2.09415 0
M  V30 1904 C 172.293 -3.96358 -1.71826 0
M  V30 1905 C 171.428 -4.44021 -2.9158 0
M  V30 1906 C 170.467 -5.58637 -2.50181 0
M  V30 1907 N 169.604 -6.01091 -3.62814 0
M  V30 1908 H 174.444 -2.95961 -0.348035 0
M  V30 1909 H 171.981 -1.46226 -0.160106 0
M  V30 1910 H 173.939 -3.06945 -2.82561 0
M  V30 1911 H 172.569 -1.95801 -2.56636 0
M  V30 1912 H 171.621 -3.69939 -0.885947 0
M  V30 1913 H 172.933 -4.79504 -1.37394 0
M  V30 1914 H 172.087 -4.78522 -3.72963 0
M  V30 1915 H 170.826 -3.59803 -3.29231 0
M  V30 1916 H 169.831 -5.23751 -1.67228 0
M  V30 1917 H 171.056 -6.44613 -2.13659 0
M  V30 1918 H 169.002 -5.19817 -4.00158 0
M  V30 1919 H 168.919 -6.79066 -3.32273 0
M  V30 1920 H 170.187 -6.40227 -4.44668 0
M  V30 1921 N 174.416 0.165178 -1.56732 0
M  V30 1922 C 175.662 0.877389 -1.83503 0
M  V30 1923 C 176.017 1.79602 -0.689996 0
M  V30 1924 O 175.31 1.89023 0.313205 0
M  V30 1925 C 175.504 1.70405 -3.1416 0
M  V30 1926 C 175.333 0.866961 -4.41264 0
M  V30 1927 C 174.103 0.539646 -5.0241 0
M  V30 1928 C 176.301 0.205671 -5.13889 0
M  V30 1929 N 174.283 -0.312946 -6.13102 0
M  V30 1930 C 175.654 -0.507823 -6.17917 0
M  V30 1931 C 177.709 0.124468 -4.97744 0
M  V30 1932 C 176.412 -1.29483 -7.0755 0
M  V30 1933 C 178.438 -0.649222 -5.87826 0
M  V30 1934 C 177.8 -1.35106 -6.91322 0
M  V30 1935 H 173.899 0.299477 -0.722383 0
M  V30 1936 H 176.483 0.143949 -1.94167 0
M  V30 1937 H 174.654 2.40887 -3.04677 0
M  V30 1938 H 176.386 2.35804 -3.28905 0
M  V30 1939 H 173.141 0.871176 -4.65519 0
M  V30 1940 H 173.565 -0.729731 -6.73056 0
M  V30 1941 H 178.207 0.652724 -4.17731 0
M  V30 1942 H 175.925 -1.83441 -7.87004 0
M  V30 1943 H 179.511 -0.713804 -5.77405 0
M  V30 1944 H 178.391 -1.94013 -7.59821 0
M  V30 1945 N 175.894 1.51508 0.433938 0
M  V30 1946 C 177.14 1.64588 1.18484 0
M  V30 1947 C 177.473 0.362666 1.90784 0
M  V30 1948 O 176.748 -0.637892 1.83742 0
M  V30 1949 C 177.031 2.85149 2.19913 0
M  V30 1950 C 176.884 4.23456 1.51674 0
M  V30 1951 C 178.203 3.01227 3.20858 0
M  V30 1952 H 175.322 0.598994 0.429389 0
M  V30 1953 H 177.964 1.84002 0.473647 0
M  V30 1954 H 176.114 2.68729 2.80566 0
M  V30 1955 H 177.786 4.51552 0.943322 0
M  V30 1956 H 176.029 4.25998 0.819035 0
M  V30 1957 H 176.7 5.03812 2.2556 0
M  V30 1958 H 179.176 3.16382 2.70263 0
M  V30 1959 H 178.052 3.87141 3.89118 0
M  V30 1960 H 178.313 2.13447 3.8716 0
M  V30 1961 N 177.372 -0.689602 1.41712 0
M  V30 1962 C 178.783 -1.26973 1.36875 0
M  V30 1963 C 179.134 -1.96124 0.054748 0
M  V30 1964 O 178.259 -1.99141 -0.84687 0
M  V30 1965 C 178.854 -2.30912 2.47922 0
M  V30 1966 C 177.413 -2.84486 2.46464 0
M  V30 1967 C 176.56 -1.58603 2.27465 0
M  V30 1968 H 179.511 -0.48396 1.51141 0
M  V30 1969 H 179.532 -3.12331 2.17323 0
M  V30 1970 H 179.044 -1.80554 3.43543 0
M  V30 1971 H 177.145 -3.39005 1.54617 0
M  V30 1972 H 177.258 -3.34511 3.42986 0
M  V30 1973 H 175.622 -1.84632 1.75451 0
M  V30 1974 H 176.405 -1.10233 3.25121 0
M  V30 1975 N 178.85 -1.27639 -0.924453 0
M  V30 1976 C 179.782 -1.06442 -2.02985 0
M  V30 1977 C 180.795 -0.0194771 -1.62788 0
M  V30 1978 O 181.984 -0.261388 -1.76576 0
M  V30 1979 C 179.084 -0.59327 -3.33667 0
M  V30 1980 C 178.257 -1.71123 -4.02537 0
M  V30 1981 C 177.316 -1.23527 -5.11495 0
M  V30 1982 O 176.342 -1.93553 -5.35281 0
M  V30 1983 N 177.544 -0.0926678 -5.80426 0
M  V30 1984 H 180.309 -2.01633 -2.2173 0
M  V30 1985 H 177.87 -1.19248 -1.09505 0
M  V30 1986 H 179.862 -0.258686 -4.03872 0
M  V30 1987 H 178.432 0.265502 -3.1147 0
M  V30 1988 H 177.652 -2.21593 -3.26022 0
M  V30 1989 H 178.94 -2.46145 -4.45298 0
M  V30 1990 H 178.338 0.491741 -5.63559 0
M  V30 1991 H 176.895 0.182714 -6.51544 0
M  V30 1992 N 180.328 1.1314 -1.09713 0
M  V30 1993 C 181.574 1.84757 -0.836224 0
M  V30 1994 C 181.907 1.8347 0.636598 0
M  V30 1995 O 181.182 1.27491 1.46889 0
M  V30 1996 C 181.465 3.32782 -1.37578 0
M  V30 1997 C 181.318 3.42567 -2.91493 0
M  V30 1998 C 182.637 4.28307 -1.01198 0
M  V30 1999 H 179.756 0.67082 -0.305236 0
M  V30 2000 H 182.398 1.3278 -1.35903 0
M  V30 2001 H 180.548 3.77177 -0.931097 0
M  V30 2002 H 182.22 3.06862 -3.44432 0
M  V30 2003 H 180.463 2.83349 -3.28475 0
M  V30 2004 H 181.134 4.46674 -3.24324 0
M  V30 2005 H 183.61 3.91999 -1.39556 0
M  V30 2006 H 182.486 5.30307 -1.41653 0
M  V30 2007 H 182.747 4.42029 0.0794833 0
M  V30 2008 N 181.806 0.884767 1.30421 0
M  V30 2009 C 183.053 0.503105 1.96151 0
M  V30 2010 C 183.381 -0.947676 1.69851 0
M  V30 2011 O 182.636 -1.68467 0.995861 0
M  V30 2012 C 182.935 0.724318 3.49983 0
M  V30 2013 C 182.601 2.15015 3.96332 0
M  V30 2014 C 181.263 2.54005 4.08699 0
M  V30 2015 C 183.615 3.07936 4.20505 0
M  V30 2016 C 180.943 3.85128 4.42599 0
M  V30 2017 C 183.295 4.3859 4.55874 0
M  V30 2018 C 181.959 4.77474 4.66449 0
M  V30 2019 H 181.229 0.184099 0.717766 0
M  V30 2020 H 183.876 1.12058 1.55291 0
M  V30 2021 H 182.181 0.0238086 3.91793 0
M  V30 2022 H 183.878 0.408617 3.98913 0
M  V30 2023 H 180.468 1.8375 3.87213 0
M  V30 2024 H 184.652 2.79033 4.10431 0
M  V30 2025 H 179.908 4.14996 4.48986 0
M  V30 2026 H 184.082 5.10629 4.7353 0
M  V30 2027 H 181.709 5.79115 4.92473 0
M  V30 2028 N 183.284 -1.43765 0.645699 0
M  V30 2029 C 184.53 -2.02197 0.156271 0
M  V30 2030 C 184.863 -1.50776 -1.22393 0
M  V30 2031 O 184.138 -0.697771 -1.81553 0
M  V30 2032 C 184.421 -3.59749 0.158872 0
M  V30 2033 C 184.274 -4.21419 1.57245 0
M  V30 2034 C 185.593 -4.37149 -0.50879 0
M  V30 2035 H 182.712 -0.734694 0.0582602 0
M  V30 2036 H 185.354 -1.71157 0.824951 0
M  V30 2037 H 183.504 -3.86325 -0.410525 0
M  V30 2038 H 185.176 -4.059 2.19186 0
M  V30 2039 H 183.419 -3.78356 2.122 0
M  V30 2040 H 184.09 -5.30482 1.52619 0
M  V30 2041 H 186.566 -4.16093 -0.024412 0
M  V30 2042 H 185.442 -5.4683 -0.476213 0
M  V30 2043 H 185.703 -4.12839 -1.58165 0
M  V30 2044 N 184.763 -0.387143 -1.52771 0
M  V30 2045 C 185.726 0.436939 -2.24997 0
M  V30 2046 C 186.726 0.991991 -1.26555 0
M  V30 2047 O 187.916 0.874335 -1.50669 0
M  V30 2048 C 185.048 1.61281 -3.00335 0
M  V30 2049 H 186.241 -0.195365 -2.99263 0
M  V30 2050 H 183.794 -0.139218 -1.55679 0
M  V30 2051 H 184.529 2.2826 -2.30364 0
M  V30 2052 H 184.314 1.22154 -3.72587 0
M  V30 2053 H 185.804 2.19629 -3.5518 0
M  V30 2054 N 186.241 1.57166 -0.116904 0
M  V30 2055 C 187.466 1.999 0.55271 0
M  V30 2056 C 187.891 0.996039 1.59564 0
M  V30 2057 O 187.249 -0.032556 1.81271 0
M  V30 2058 C 187.297 3.4152 1.15742 0
M  V30 2059 O 186.401 3.44106 2.27299 0
M  V30 2060 H 185.742 0.649447 0.138258 0
M  V30 2061 H 188.272 2.03573 -0.204759 0
M  V30 2062 H 188.282 3.79684 1.49346 0
M  V30 2063 H 186.957 4.14034 0.393493 0
M  V30 2064 H 185.534 3.17759 1.9515 0
M  V30 2065 N 187.719 -0.156864 1.56817 0
M  V30 2066 C 188.967 -0.869404 1.82444 0
M  V30 2067 C 189.288 -1.82147 0.69623 0
M  V30 2068 O 188.558 -1.93847 -0.28287 0
M  V30 2069 H 187.138 -0.324043 0.673056 0
M  V30 2070 H 189.8 -0.153224 1.94297 0
M  V30 2071 H 188.896 -1.43761 2.77019 0
M  V30 2072 N 189.197 -1.51736 -0.425897 0
M  V30 2073 C 190.474 -1.55519 -1.1863 0
M  V30 2074 C 190.854 -0.326219 -2.08564 0
M  V30 2075 O 190.202 0.688012 -2.17896 0
M  V30 2076 C 190.412 -2.87521 -1.9782 0
M  V30 2077 C 191.76 -3.39899 -2.54468 0
M  V30 2078 O 192.784 -2.89148 -2.08019 0
M  V30 2079 O 191.643 -4.2848 -3.39215 0
M  V30 2080 H 188.737 -0.625739 -0.540721 0
M  V30 2081 H 191.283 -1.64055 -0.434038 0
M  V30 2082 H 190.055 -3.68422 -1.31836 0
M  V30 2083 H 189.678 -2.822 -2.80088 0
M  V30 2084 N 190.675 0.682077 -1.42076 0
M  V30 2085 C 191.915 1.45424 -1.43636 0
M  V30 2086 C 192.279 1.91939 -0.0484001 0
M  V30 2087 O 193.48 2.6873 0.0612514 0
M  V30 2088 C 191.751 2.62427 -2.42625 0
M  V30 2089 S 193.31 3.51379 -2.62827 0
M  V30 2090 H 190.128 0.496779 -0.508657 0
M  V30 2091 H 192.73 0.794645 -1.78621 0
M  V30 2092 H 191.434 2.26481 -3.42249 0
M  V30 2093 H 190.965 3.33266 -2.09039 0
M  V30 2094 H 192.98 4.58141 -1.9058 0
M  V30 2095 N 192.153 1.28127 0.917671 0
M  V30 2096 C 193.116 1.11744 2.00115 0
M  V30 2097 C 194.116 0.0583052 1.60694 0
M  V30 2098 O 195.306 0.303755 1.71531 0
M  V30 2099 C 192.438 0.704862 3.33533 0
M  V30 2100 H 193.631 2.07966 2.16079 0
M  V30 2101 H 191.184 1.11058 1.09981 0
M  V30 2102 H 191.919 -0.258299 3.2327 0
M  V30 2103 H 191.704 1.4699 3.63505 0
M  V30 2104 H 193.194 0.612768 4.1308 0
M  V30 2105 N 193.631 -1.12557 1.10312 0
M  V30 2106 C 194.541 -2.21841 0.763142 0
M  V30 2107 C 195.557 -1.72354 -0.238801 0
M  V30 2108 O 196.733 -2.01249 -0.0778746 0
M  V30 2109 C 193.798 -3.46131 0.198632 0
M  V30 2110 C 192.859 -4.10464 1.25769 0
M  V30 2111 C 192.092 -5.28821 0.72002 0
M  V30 2112 O 192.315 -5.6859 -0.453993 0
M  V30 2113 O 191.249 -5.83437 1.47935 0
M  V30 2114 H 195.075 -2.53312 1.67532 0
M  V30 2115 H 192.66 -1.20867 0.878157 0
M  V30 2116 H 194.542 -4.2125 -0.112401 0
M  V30 2117 H 193.217 -3.16338 -0.686419 0
M  V30 2118 H 192.124 -3.3713 1.62156 0
M  V30 2119 H 193.457 -4.44408 2.11571 0
M  V30 2120 N 195.109 -0.891671 -1.2995 0
M  V30 2121 C 196.525 -0.58662 -1.48428 0
M  V30 2122 C 196.725 0.873951 -1.81561 0
M  V30 2123 O 195.781 1.65471 -1.90724 0
M  V30 2124 C 197.094 -1.50553 -2.60296 0
M  V30 2125 C 198.642 -1.50988 -2.74175 0
M  V30 2126 C 199.117 -2.41488 -3.89163 0
M  V30 2127 N 200.608 -2.39489 -3.96483 0
M  V30 2128 C 201.343 -3.06223 -4.84784 0
M  V30 2129 N 200.839 -3.82206 -5.77833 0
M  V30 2130 N 202.632 -2.95421 -4.78208 0
M  V30 2131 H 194.783 -1.83644 -1.06718 0
M  V30 2132 H 197.046 -0.786455 -0.529332 0
M  V30 2133 H 196.752 -2.54581 -2.42654 0
M  V30 2134 H 196.626 -1.22008 -3.56923 0
M  V30 2135 H 199.013 -0.47708 -2.91218 0
M  V30 2136 H 199.094 -1.83567 -1.78148 0
M  V30 2137 H 198.738 -3.44857 -3.72876 0
M  V30 2138 H 198.668 -2.06222 -4.84541 0
M  V30 2139 H 201.159 -1.84278 -3.29924 0
M  V30 2140 H 201.472 -4.302 -6.41988 0
M  V30 2141 H 199.817 -3.86313 -5.77743 0
M  V30 2142 H 203.008 -2.35581 -4.04499 0
M  V30 2143 H 203.181 -3.47704 -5.46814 0
M  V30 2144 N 196.587 1.43421 -0.653314 0
M  V30 2145 C 197.519 2.29071 0.0769134 0
M  V30 2146 C 198.532 1.42513 0.787017 0
M  V30 2147 O 199.721 1.66449 0.644757 0
M  V30 2148 C 196.821 3.19436 1.13199 0
M  V30 2149 C 195.994 4.34533 0.500006 0
M  V30 2150 C 195.053 5.05771 1.45198 0
M  V30 2151 O 194.079 5.61037 0.960538 0
M  V30 2152 N 195.281 5.0928 2.78594 0
M  V30 2153 H 198.046 2.92382 -0.658235 0
M  V30 2154 H 195.607 1.54112 -0.496104 0
M  V30 2155 H 197.599 3.63958 1.76964 0
M  V30 2156 H 196.169 2.57724 1.7691 0
M  V30 2157 H 195.389 3.92925 -0.316738 0
M  V30 2158 H 196.677 5.08766 0.0588345 0
M  V30 2159 H 196.075 4.65751 3.2108 0
M  V30 2160 H 194.632 5.57519 3.37662 0
M  V30 2161 N 198.065 0.39524 1.52563 0
M  V30 2162 C 199.311 -0.177763 2.02622 0
M  V30 2163 C 199.666 -1.43974 1.27629 0
M  V30 2164 O 198.959 -1.87995 0.36992 0
M  V30 2165 C 199.153 -0.493444 3.53977 0
M  V30 2166 C 198.982 0.736392 4.4363 0
M  V30 2167 C 197.752 1.25744 4.89404 0
M  V30 2168 C 199.95 1.61046 4.88435 0
M  V30 2169 N 197.932 2.44421 5.63145 0
M  V30 2170 C 199.303 2.64359 5.60816 0
M  V30 2171 C 201.358 1.62985 4.70468 0
M  V30 2172 C 200.061 3.69505 6.17137 0
M  V30 2173 C 202.087 2.67042 5.27677 0
M  V30 2174 C 201.449 3.69077 5.99968 0
M  V30 2175 H 197.548 -0.0269794 0.781534 0
M  V30 2176 H 200.132 0.546466 1.86874 0
M  V30 2177 H 198.303 -1.18672 3.69826 0
M  V30 2178 H 200.035 -1.05412 3.90731 0
M  V30 2179 H 196.79 0.817546 4.6649 0
M  V30 2180 H 197.214 3.04485 6.04663 0
M  V30 2181 H 201.856 0.854442 4.14076 0
M  V30 2182 H 199.574 4.4791 6.72608 0
M  V30 2183 H 203.16 2.69433 5.15652 0
M  V30 2184 H 202.04 4.48273 6.43444 0
M  V30 2185 N 199.544 -1.57102 0.125237 0
M  V30 2186 C 200.821 -1.86953 -0.575142 0
M  V30 2187 C 201.201 -1.02749 -1.84407 0
M  V30 2188 O 200.549 -0.108144 -2.28244 0
M  V30 2189 C 200.759 -3.38198 -0.861583 0
M  V30 2190 C 202.107 -4.06937 -1.21192 0
M  V30 2191 O 203.131 -3.43252 -0.951645 0
M  V30 2192 O 201.99 -5.19364 -1.70068 0
M  V30 2193 H 199.084 -0.774147 -0.290906 0
M  V30 2194 H 201.63 -1.68942 0.160211 0
M  V30 2195 H 200.402 -3.91282 0.0373647 0
M  V30 2196 H 200.025 -3.61661 -1.65188 0
M  V30 2197 N 201.022 0.148545 -1.56898 0
M  V30 2198 C 202.269 0.861418 -1.83264 0
M  V30 2199 C 202.597 1.81239 -0.705883 0
M  V30 2200 O 201.852 1.93305 0.305212 0
M  V30 2201 C 202.151 1.67064 -3.1595 0
M  V30 2202 C 201.817 0.866591 -4.42494 0
M  V30 2203 C 200.479 0.644762 -4.76861 0
M  V30 2204 C 202.831 0.30418 -5.20312 0
M  V30 2205 C 200.159 -0.15021 -5.86508 0
M  V30 2206 C 202.511 -0.477824 -6.30793 0
M  V30 2207 C 201.175 -0.710244 -6.63711 0
M  V30 2208 H 200.445 0.315215 -0.670612 0
M  V30 2209 H 203.092 0.125142 -1.91091 0
M  V30 2210 H 201.397 2.47698 -3.03567 0
M  V30 2211 H 203.094 2.22566 -3.33565 0
M  V30 2212 H 199.684 1.04955 -4.15551 0
M  V30 2213 H 203.868 0.462844 -4.94137 0
M  V30 2214 H 199.124 -0.339796 -6.10455 0
M  V30 2215 H 203.298 -0.92076 -6.90286 0
M  V30 2216 H 200.925 -1.3281 -7.48509 0
M  V30 2217 N 202.5 1.5196 0.417844 0
M  V30 2218 C 203.43 1.77634 1.51554 0
M  V30 2219 C 204.411 0.626918 1.58126 0
M  V30 2220 O 205.596 0.871632 1.7354 0
M  V30 2221 C 202.726 1.91911 2.8946 0
M  V30 2222 C 201.68 3.07463 2.97743 0
M  V30 2223 C 201.006 3.06951 4.37819 0
M  V30 2224 C 202.306 4.47082 2.70027 0
M  V30 2225 H 204 2.6955 1.3032 0
M  V30 2226 H 201.546 1.29706 0.625492 0
M  V30 2227 H 203.499 2.08455 3.6623 0
M  V30 2228 H 202.223 0.966598 3.11969 0
M  V30 2229 H 200.882 2.90656 2.23416 0
M  V30 2230 H 200.53 2.09438 4.57323 0
M  V30 2231 H 200.23 3.84556 4.44286 0
M  V30 2232 H 201.754 3.25613 5.16535 0
M  V30 2233 H 203.168 4.6414 3.36522 0
M  V30 2234 H 201.565 5.2654 2.87881 0
M  V30 2235 H 202.635 4.55777 1.65514 0
M  V30 2236 N 203.978 -0.674533 1.42435 0
M  V30 2237 C 205.226 -1.43175 1.42637 0
M  V30 2238 C 205.547 -1.94951 0.0438992 0
M  V30 2239 O 204.817 -1.7308 -0.917607 0
M  V30 2240 H 203.397 -0.531307 0.525092 0
M  V30 2241 H 206.059 -0.797006 1.77859 0
M  V30 2242 H 205.155 -2.28463 2.12629 0
M  V30 2243 N 205.456 -1.28612 -0.910864 0
M  V30 2244 C 206.386 -1.15326 -2.03032 0
M  V30 2245 C 207.367 -0.0502924 -1.70026 0
M  V30 2246 O 208.552 -0.227797 -1.92859 0
M  V30 2247 C 205.682 -0.817343 -3.37545 0
M  V30 2248 C 204.636 -1.8754 -3.84724 0
M  V30 2249 C 203.962 -1.39305 -5.16235 0
M  V30 2250 C 205.262 -3.28244 -4.06267 0
M  V30 2251 H 206.956 -2.08975 -2.14406 0
M  V30 2252 H 204.502 -1.00612 -1.03021 0
M  V30 2253 H 206.455 -0.711151 -4.15356 0
M  V30 2254 H 205.179 0.154846 -3.26233 0
M  V30 2255 H 203.838 -1.97079 -3.09121 0
M  V30 2256 H 203.486 -0.409846 -5.01328 0
M  V30 2257 H 203.186 -2.10057 -5.48771 0
M  V30 2258 H 204.71 -1.30014 -5.96598 0
M  V30 2259 H 206.124 -3.21611 -4.74594 0
M  V30 2260 H 204.521 -3.96855 -4.5014 0
M  V30 2261 H 205.591 -3.72048 -3.10979 0
M  V30 2262 N 206.934 1.1197 -1.10907 0
M  V30 2263 C 207.844 2.21433 -0.774896 0
M  V30 2264 C 208.86 1.72478 0.229657 0
M  V30 2265 O 210.036 2.01288 0.0672008 0
M  V30 2266 C 207.101 3.4602 -0.216986 0
M  V30 2267 C 206.162 4.09791 -1.27944 0
M  V30 2268 C 205.395 5.28431 -0.748055 0
M  V30 2269 O 205.618 5.68823 0.423833 0
M  V30 2270 O 204.552 5.82644 -1.51027 0
M  V30 2271 H 208.378 2.5242 -1.68873 0
M  V30 2272 H 205.963 1.20399 -0.884555 0
M  V30 2273 H 207.845 4.21304 0.090059 0
M  V30 2274 H 206.52 3.16698 0.669633 0
M  V30 2275 H 205.427 3.36265 -1.63941 0
M  V30 2276 H 206.76 4.4328 -2.13925 0
M  V30 2277 N 208.412 0.89855 1.29475 0
M  V30 2278 C 209.345 0.319981 2.25945 0
M  V30 2279 C 210.323 -0.567189 1.52387 0
M  V30 2280 O 211.507 -0.514254 1.8135 0
M  V30 2281 C 208.634 -0.544013 3.34303 0
M  V30 2282 C 207.68 0.275682 4.25608 0
M  V30 2283 S 208.513 1.67272 5.08704 0
M  V30 2284 C 209.669 0.815621 6.20563 0
M  V30 2285 H 209.902 1.13767 2.74671 0
M  V30 2286 H 207.435 0.69882 1.3768 0
M  V30 2287 H 209.393 -1.03673 3.97193 0
M  V30 2288 H 208.054 -1.33593 2.84274 0
M  V30 2289 H 207.247 -0.384263 5.02533 0
M  V30 2290 H 206.849 0.701496 3.67362 0
M  V30 2291 H 209.141 0.0385042 6.77489 0
M  V30 2292 H 210.084 1.55691 6.90772 0
M  V30 2293 H 210.492 0.370516 5.63283 0
M  V30 2294 N 209.89 -1.43072 0.660911 0
M  V30 2295 C 211.301 -1.84932 0.256348 0
M  V30 2296 C 211.652 -1.55325 -1.19868 0
M  V30 2297 O 210.777 -1.00607 -1.91591 0
M  V30 2298 C 211.372 -3.35684 0.458475 0
M  V30 2299 C 209.931 -3.76245 0.108161 0
M  V30 2300 C 209.078 -2.66749 0.757641 0
M  V30 2301 H 212.029 -1.33116 0.864051 0
M  V30 2302 H 212.05 -3.79365 -0.293683 0
M  V30 2303 H 211.562 -3.572 1.51755 0
M  V30 2304 H 209.663 -3.60338 -0.948014 0
M  V30 2305 H 209.776 -4.76058 0.538992 0
M  V30 2306 H 208.14 -2.53989 0.190185 0
M  V30 2307 H 208.923 -2.91092 1.81989 0
M  V30 2308 N 211.368 -0.403325 -1.52352 0
M  V30 2309 C 212.3 0.4603 -2.2453 0
M  V30 2310 C 213.313 1.01505 -1.27282 0
M  V30 2311 O 214.502 0.914982 -1.53266 0
M  V30 2312 C 211.602 1.65208 -2.95905 0
M  V30 2313 C 210.775 1.22224 -4.19976 0
M  V30 2314 C 209.834 2.28028 -4.74226 0
M  V30 2315 O 208.86 1.88857 -5.36956 0
M  V30 2316 N 210.062 3.6012 -4.55295 0
M  V30 2317 H 212.827 -0.158156 -2.99282 0
M  V30 2318 H 210.388 -0.230402 -1.60252 0
M  V30 2319 H 212.38 2.35541 -3.29093 0
M  V30 2320 H 210.95 2.17658 -2.24374 0
M  V30 2321 H 210.17 0.34725 -3.92668 0
M  V30 2322 H 211.458 0.911924 -5.00561 0
M  V30 2323 H 210.856 3.94698 -4.05253 0
M  V30 2324 H 209.413 4.26447 -4.92936 0
M  V30 2325 N 212.846 1.57033 -0.133567 0
M  V30 2326 C 214.092 1.96764 0.515326 0
M  V30 2327 C 214.447 1.01653 1.63353 0
M  V30 2328 O 213.74 0.0491374 1.91537 0
M  V30 2329 C 213.934 3.40674 1.08057 0
M  V30 2330 C 213.763 4.49696 0.0186522 0
M  V30 2331 C 212.533 5.03567 -0.418174 0
M  V30 2332 C 214.731 5.08536 -0.767809 0
M  V30 2333 N 212.713 5.9618 -1.46434 0
M  V30 2334 C 214.084 5.97231 -1.6648 0
M  V30 2335 C 216.139 4.9115 -0.817087 0
M  V30 2336 C 214.842 6.70401 -2.60681 0
M  V30 2337 C 216.868 5.65012 -1.74687 0
M  V30 2338 C 216.23 6.53403 -2.63141 0
M  V30 2339 H 212.329 0.765919 0.157771 0
M  V30 2340 H 214.913 1.93395 -0.22506 0
M  V30 2341 H 213.084 3.44662 1.79061 0
M  V30 2342 H 214.816 3.67495 1.69497 0
M  V30 2343 H 211.571 4.73594 -0.0229803 0
M  V30 2344 H 211.995 6.47191 -1.98678 0
M  V30 2345 H 216.637 4.22543 -0.147326 0
M  V30 2346 H 214.355 7.38245 -3.28664 0
M  V30 2347 H 217.941 5.53559 -1.79063 0
M  V30 2348 H 216.821 7.09556 -3.33917 0
M  V30 2349 N 214.325 -0.140222 1.56975 0
M  V30 2350 C 215.255 -1.17456 2.01808 0
M  V30 2351 C 216.236 -1.44415 0.898794 0
M  V30 2352 O 217.421 -1.5522 1.16707 0
M  V30 2353 C 214.551 -2.50607 2.40444 0
M  V30 2354 C 213.505 -2.38155 3.55621 0
M  V30 2355 C 212.831 -3.76078 3.80091 0
M  V30 2356 C 214.131 -1.85991 4.88062 0
M  V30 2357 H 215.825 -0.801743 2.88466 0
M  V30 2358 H 213.371 -0.38422 1.38779 0
M  V30 2359 H 215.324 -3.23197 2.7041 0
M  V30 2360 H 214.048 -2.89737 1.50732 0
M  V30 2361 H 212.707 -1.68016 3.25832 0
M  V30 2362 H 212.355 -4.12656 2.87618 0
M  V30 2363 H 212.055 -3.68606 4.57606 0
M  V30 2364 H 213.579 -4.50206 4.12488 0
M  V30 2365 H 214.993 -2.4838 5.16701 0
M  V30 2366 H 213.39 -1.89393 5.6943 0
M  V30 2367 H 214.46 -0.816023 4.77984 0
M  V30 2368 N 215.803 -1.52179 -0.40978 0
M  V30 2369 C 216.733 -1.78435 -1.5061 0
M  V30 2370 C 217.714 -0.635295 -1.57791 0
M  V30 2371 O 218.899 -0.880823 -1.73076 0
M  V30 2372 C 216.029 -1.93444 -2.88439 0
M  V30 2373 C 214.983 -3.09038 -2.96108 0
M  V30 2374 C 214.309 -3.09268 -4.36185 0
M  V30 2375 C 215.609 -4.48508 -2.67652 0
M  V30 2376 H 217.303 -2.70237 -1.28889 0
M  V30 2377 H 214.849 -1.30036 -0.618605 0
M  V30 2378 H 216.802 -2.10394 -3.65119 0
M  V30 2379 H 215.526 -0.983129 -3.11452 0
M  V30 2380 H 214.185 -2.91837 -2.21872 0
M  V30 2381 H 213.833 -2.11861 -4.56206 0
M  V30 2382 H 213.533 -3.86907 -4.42241 0
M  V30 2383 H 215.057 -3.28348 -5.14801 0
M  V30 2384 H 216.471 -4.65918 -3.34056 0
M  V30 2385 H 214.868 -5.28059 -2.85085 0
M  V30 2386 H 215.938 -4.56649 -1.63095 0
M  V30 2387 N 217.281 0.66697 -1.42791 0
M  V30 2388 C 218.529 1.42417 -1.43394 0
M  V30 2389 C 218.85 1.94925 -0.0542373 0
M  V30 2390 O 218.12 1.73564 0.908415 0
M  V30 2391 H 216.7 0.528515 -0.527902 0
M  V30 2392 H 219.362 0.787562 -1.78279 0
M  V30 2393 H 218.458 2.27333 -2.13837 0
M  V30 2394 N 218.759 1.29093 0.90403 0
M  V30 2395 C 220.008 1.16187 1.64874 0
M  V30 2396 C 220.321 -0.286742 1.93487 0
M  V30 2397 O 221.527 -0.537062 2.66135 0
M  V30 2398 C 219.983 2.03177 2.97064 0
M  V30 2399 C 219.591 3.52836 2.76062 0
M  V30 2400 C 221.335 1.98984 3.74974 0
M  V30 2401 C 219.242 4.31945 4.03952 0
M  V30 2402 H 218.172 0.431246 0.618501 0
M  V30 2403 H 220.823 1.53699 1.00243 0
M  V30 2404 H 219.205 1.5853 3.62883 0
M  V30 2405 H 220.379 4.05507 2.18863 0
M  V30 2406 H 218.694 3.58656 2.11553 0
M  V30 2407 H 221.291 2.55351 4.69787 0
M  V30 2408 H 221.634 0.968815 4.0487 0
M  V30 2409 H 222.167 2.41652 3.15989 0
M  V30 2410 H 218.906 5.34667 3.79225 0
M  V30 2411 H 218.426 3.84045 4.60727 0
M  V30 2412 H 220.105 4.42379 4.72133 0
M  V30 2413 N 220.237 -1.11381 1.11499 0
M  V30 2414 C 221.484 -1.83132 0.864231 0
M  V30 2415 C 221.812 -1.84683 -0.610114 0
M  V30 2416 O 221.067 -1.29589 -1.46646 0
M  V30 2417 C 221.366 -3.30026 1.37177 0
M  V30 2418 C 221.032 -3.48634 2.85946 0
M  V30 2419 C 219.694 -3.53421 3.26569 0
M  V30 2420 C 222.046 -3.54837 3.81759 0
M  V30 2421 C 219.374 -3.61967 4.61733 0
M  V30 2422 C 221.726 -3.64915 5.1674 0
M  V30 2423 C 220.39 -3.67962 5.5692 0
M  V30 2424 H 219.66 -0.670127 0.316245 0
M  V30 2425 H 222.307 -1.31354 1.3935 0
M  V30 2426 H 220.612 -3.84304 0.762753 0
M  V30 2427 H 222.309 -3.84034 1.15408 0
M  V30 2428 H 218.899 -3.45579 2.53521 0
M  V30 2429 H 223.083 -3.50399 3.51474 0
M  V30 2430 H 218.339 -3.62603 4.92269 0
M  V30 2431 H 222.513 -3.68658 5.90816 0
M  V30 2432 H 220.14 -3.74336 6.61647 0
M  V30 2433 N 221.715 -0.905404 -1.28997 0
M  V30 2434 C 222.964 -0.530191 -1.94607 0
M  V30 2435 C 223.277 0.929185 -1.72121 0
M  V30 2436 O 224.483 1.41218 -2.31883 0
M  V30 2437 C 222.939 -0.897333 -3.48534 0
M  V30 2438 C 222.547 -2.37587 -3.79811 0
M  V30 2439 C 224.291 -0.592304 -4.20347 0
M  V30 2440 C 222.198 -2.68357 -5.27009 0
M  V30 2441 H 221.128 -0.194558 -0.728466 0
M  V30 2442 H 223.779 -1.10318 -1.46636 0
M  V30 2443 H 222.161 -0.253214 -3.9519 0
M  V30 2444 H 223.335 -3.06602 -3.43994 0
M  V30 2445 H 221.65 -2.6505 -3.2115 0
M  V30 2446 H 224.247 -0.798975 -5.28697 0
M  V30 2447 H 224.59 0.469474 -4.13644 0
M  V30 2448 H 225.123 -1.19452 -3.79442 0
M  V30 2449 H 221.862 -3.73355 -5.38782 0
M  V30 2450 H 221.382 -2.03971 -5.64053 0
M  V30 2451 H 223.061 -2.54922 -5.94663 0
M  V30 2452 N 223.193 1.4272 -0.668489 0
M  V30 2453 C 224.156 2.292 0.00448567 0
M  V30 2454 C 225.156 1.43001 0.735339 0
M  V30 2455 O 226.346 1.64461 0.57429 0
M  V30 2456 C 223.478 3.25375 1.01705 0
M  V30 2457 H 224.671 2.90199 -0.756608 0
M  V30 2458 H 222.224 1.50254 -0.430506 0
M  V30 2459 H 222.959 2.69301 1.80686 0
M  V30 2460 H 222.744 3.88944 0.496463 0
M  V30 2461 H 224.234 3.90245 1.48655 0
M  V30 2462 N 224.671 0.411399 1.52136 0
M  V30 2463 C 225.901 -0.16284 2.05957 0
M  V30 2464 C 226.309 -1.3922 1.28119 0
M  V30 2465 O 225.652 -1.80768 0.326881 0
M  V30 2466 C 225.714 -0.575946 3.54856 0
M  V30 2467 C 225.378 0.542998 4.53763 0
M  V30 2468 C 226.375 1.40726 5.00492 0
M  V30 2469 C 224.06 0.716337 4.97166 0
M  V30 2470 C 226.054 2.4298 5.8927 0
M  V30 2471 C 223.741 1.74218 5.8574 0
M  V30 2472 C 224.739 2.59731 6.31687 0
M  V30 2473 O 224.427 3.60558 7.18507 0
M  V30 2474 H 224.159 -0.0229125 0.675612 0
M  V30 2475 H 226.713 0.581634 1.96993 0
M  V30 2476 H 224.943 -1.37274 3.61515 0
M  V30 2477 H 226.632 -1.07836 3.91313 0
M  V30 2478 H 227.398 1.28476 4.67674 0
M  V30 2479 H 223.277 0.0603857 4.6096 0
M  V30 2480 H 226.821 3.0976 6.25055 0
M  V30 2481 H 222.718 1.86498 6.17971 0
M  V30 2482 H 223.486 3.56829 7.36624 0
M  V30 2483 N 226.149 -1.5696 0.141893 0
M  V30 2484 C 227.079 -2.19516 -0.795936 0
M  V30 2485 C 228.06 -1.14187 -1.26077 0
M  V30 2486 O 229.245 -1.42511 -1.31925 0
M  V30 2487 C 226.375 -2.81272 -2.03723 0
M  V30 2488 C 225.329 -3.92384 -1.70936 0
M  V30 2489 C 224.655 -4.41052 -3.02287 0
M  V30 2490 C 225.955 -5.13403 -0.959954 0
M  V30 2491 H 227.649 -2.98138 -0.274596 0
M  V30 2492 H 225.195 -1.43406 -0.130636 0
M  V30 2493 H 227.148 -3.237 -2.69808 0
M  V30 2494 H 225.872 -1.99973 -2.58221 0
M  V30 2495 H 224.531 -3.50566 -1.07232 0
M  V30 2496 H 224.179 -3.56582 -3.54765 0
M  V30 2497 H 223.879 -5.15993 -2.81114 0
M  V30 2498 H 225.403 -4.86146 -3.69451 0
M  V30 2499 H 226.817 -5.52706 -1.52279 0
M  V30 2500 H 225.214 -5.94073 -0.848357 0
M  V30 2501 H 226.284 -4.84875 0.0492434 0
M  V30 2502 N 227.627 0.131896 -1.57047 0
M  V30 2503 C 228.876 0.84044 -1.83356 0
M  V30 2504 C 229.189 1.81646 -0.725535 0
M  V30 2505 O 230.395 2.57025 -0.874659 0
M  V30 2506 C 228.851 1.54528 -3.25037 0
M  V30 2507 C 228.459 0.610902 -4.43815 0
M  V30 2508 C 230.203 2.23972 -3.60606 0
M  V30 2509 C 228.11 1.31823 -5.76521 0
M  V30 2510 H 227.04 0.317599 -0.683847 0
M  V30 2511 H 229.691 0.0931561 -1.83263 0
M  V30 2512 H 228.073 2.33873 -3.19561 0
M  V30 2513 H 229.247 -0.148407 -4.60561 0
M  V30 2514 H 227.562 0.0241016 -4.16393 0
M  V30 2515 H 230.159 2.77558 -4.57018 0
M  V30 2516 H 230.502 3.01173 -2.87403 0
M  V30 2517 H 231.035 1.51529 -3.6781 0
M  V30 2518 H 227.774 0.587771 -6.52859 0
M  V30 2519 H 227.294 2.04987 -5.63685 0
M  V30 2520 H 228.973 1.855 -6.19838 0
M  V30 2521 N 229.106 1.52395 0.401703 0
M  V30 2522 C 230.352 1.67065 1.14966 0
M  V30 2523 C 230.685 0.403052 1.89971 0
M  V30 2524 O 229.96 -0.598774 1.85054 0
M  V30 2525 C 230.243 2.8975 2.13815 0
M  V30 2526 C 230.096 4.26578 1.42658 0
M  V30 2527 C 231.415 3.07965 3.14397 0
M  V30 2528 H 228.534 0.607968 0.416587 0
M  V30 2529 H 231.176 1.84965 0.434511 0
M  V30 2530 H 229.326 2.74619 2.74803 0
M  V30 2531 H 230.998 4.53451 0.847329 0
M  V30 2532 H 229.241 4.27639 0.72849 0
M  V30 2533 H 229.912 5.08483 2.14823 0
M  V30 2534 H 232.388 3.22043 2.63491 0
M  V30 2535 H 231.264 3.95308 3.80819 0
M  V30 2536 H 231.525 2.21611 3.82545 0
M  V30 2537 N 230.584 -0.659388 1.43143 0
M  V30 2538 C 231.547 -1.75432 1.47501 0
M  V30 2539 C 232.547 -1.56707 0.360512 0
M  V30 2540 O 233.737 -1.62717 0.622002 0
M  V30 2541 C 230.869 -3.14239 1.32162 0
M  V30 2542 H 232.062 -1.7295 2.45006 0
M  V30 2543 H 229.615 -0.870469 1.29817 0
M  V30 2544 H 230.35 -3.22336 0.356401 0
M  V30 2545 H 230.135 -3.29235 2.12948 0
M  V30 2546 H 231.625 -3.94094 1.3813 0
M  V30 2547 N 232.062 -1.29571 -0.897171 0
M  V30 2548 C 233.308 -1.17863 -1.65034 0
M  V30 2549 C 233.641 0.268729 -1.92332 0
M  V30 2550 O 232.916 1.19378 -1.53555 0
M  V30 2551 C 233.199 -1.995 -2.99786 0
M  V30 2552 C 233.052 -3.5239 -2.79538 0
M  V30 2553 C 234.371 -1.82335 -4.00552 0
M  V30 2554 H 231.49 -0.429528 -0.598895 0
M  V30 2555 H 234.132 -1.59072 -1.03905 0
M  V30 2556 H 232.282 -1.64485 -3.51962 0
M  V30 2557 H 233.954 -3.97401 -2.34244 0
M  V30 2558 H 232.197 -3.77187 -2.14273 0
M  V30 2559 H 232.868 -4.04787 -3.75302 0
M  V30 2560 H 235.344 -2.12924 -3.57495 0
M  V30 2561 H 234.22 -2.41801 -4.92771 0
M  V30 2562 H 234.481 -0.779209 -4.35179 0
M  V30 2563 N 233.54 1.10788 -1.12088 0
M  V30 2564 C 234.47 2.19083 -0.807755 0
M  V30 2565 C 235.451 1.6858 0.226859 0
M  V30 2566 O 236.636 1.93997 0.0888475 0
M  V30 2567 C 233.766 3.46344 -0.257576 0
M  V30 2568 C 232.72 4.101 -1.22483 0
M  V30 2569 C 232.046 5.32016 -0.535052 0
M  V30 2570 C 233.346 4.54236 -2.57811 0
M  V30 2571 H 235.04 2.45534 -1.71328 0
M  V30 2572 H 232.586 1.1801 -0.825205 0
M  V30 2573 H 234.539 4.21392 -0.0262679 0
M  V30 2574 H 233.263 3.19373 0.683278 0
M  V30 2575 H 231.922 3.37054 -1.44189 0
M  V30 2576 H 231.57 5.01319 0.410827 0
M  V30 2577 H 231.27 5.75625 -1.18024 0
M  V30 2578 H 232.794 6.09799 -0.312695 0
M  V30 2579 H 234.208 5.20575 -2.40155 0
M  V30 2580 H 232.605 5.08682 -3.18375 0
M  V30 2581 H 233.675 3.6734 -3.16528 0
M  V30 2582 N 235.018 0.912232 1.28515 0
M  V30 2583 C 236.264 0.545405 1.95328 0
M  V30 2584 C 236.597 -0.908313 1.71649 0
M  V30 2585 O 235.872 -1.64575 1.03659 0
M  V30 2586 C 236.155 0.853483 3.4984 0
M  V30 2587 C 236.008 2.35982 3.82926 0
M  V30 2588 C 237.327 0.348589 4.38717 0
M  V30 2589 H 234.446 0.199626 0.709449 0
M  V30 2590 H 237.088 1.1412 1.5191 0
M  V30 2591 H 235.238 0.34643 3.86952 0
M  V30 2592 H 236.91 2.93738 3.55691 0
M  V30 2593 H 235.153 2.81543 3.30024 0
M  V30 2594 H 235.824 2.52593 4.90816 0
M  V30 2595 H 238.3 0.78294 4.08668 0
M  V30 2596 H 237.176 0.593242 5.45685 0
M  V30 2597 H 237.437 -0.751049 4.35674 0
M  V30 2598 N 236.496 -1.42363 0.676048 0
M  V30 2599 C 237.742 -2.0182 0.199125 0
M  V30 2600 C 238.075 -1.53339 -1.19168 0
M  V30 2601 O 237.35 -0.736124 -1.80032 0
M  V30 2602 C 237.633 -3.59331 0.235144 0
M  V30 2603 C 237.486 -4.17989 1.66149 0
M  V30 2604 C 238.805 -4.3813 -0.41595 0
M  V30 2605 H 235.924 -0.733293 0.0738311 0
M  V30 2606 H 238.566 -1.69368 0.86107 0
M  V30 2607 H 236.716 -3.87109 -0.328487 0
M  V30 2608 H 238.388 -4.0116 2.27747 0
M  V30 2609 H 236.631 -3.7377 2.20178 0
M  V30 2610 H 237.302 -5.27126 1.63837 0
M  V30 2611 H 239.778 -4.16051 0.0638529 0
M  V30 2612 H 238.654 -5.47717 -0.360115 0
M  V30 2613 H 238.915 -4.16101 -1.49373 0
M  V30 2614 N 237.974 -0.419461 -1.51915 0
M  V30 2615 C 239.223 0.154346 -2.01109 0
M  V30 2616 C 239.536 1.45338 -1.30905 0
M  V30 2617 O 240.742 2.10906 -1.7097 0
M  V30 2618 C 239.198 0.325615 -3.58424 0
M  V30 2619 C 238.806 -0.961934 -4.37551 0
M  V30 2620 C 240.55 0.854155 -4.15818 0
M  V30 2621 C 238.457 -0.757287 -5.86531 0
M  V30 2622 H 237.387 0.0614563 -0.751491 0
M  V30 2623 H 240.038 -0.54649 -1.75173 0
M  V30 2624 H 238.42 1.08903 -3.80731 0
M  V30 2625 H 239.594 -1.7323 -4.26999 0
M  V30 2626 H 237.909 -1.41766 -3.91524 0
M  V30 2627 H 240.506 1.02346 -5.24814 0
M  V30 2628 H 240.849 1.83172 -3.73837 0
M  V30 2629 H 241.382 0.149528 -3.97519 0
M  V30 2630 H 238.121 -1.70671 -6.32892 0
M  V30 2631 H 237.641 -0.0264061 -5.99794 0
M  V30 2632 H 239.32 -0.403482 -6.45741 0
M  V30 2633 N 239.452 1.56882 -0.150215 0
M  V30 2634 C 240.677 2.01027 0.510184 0
M  V30 2635 C 241.102 1.02966 1.57415 0
M  V30 2636 O 240.46 0.00590158 1.81299 0
M  V30 2637 C 240.508 3.43899 1.08472 0
M  V30 2638 O 239.612 3.4885 2.19948 0
M  V30 2639 H 238.953 0.652233 0.124451 0
M  V30 2640 H 241.483 2.03093 -0.247894 0
M  V30 2641 H 241.493 3.82766 1.41259 0
M  V30 2642 H 240.168 4.14776 0.305582 0
M  V30 2643 H 238.745 3.21827 1.88366 0
M  V30 2644 N 240.93 -0.123565 1.57115 0
M  V30 2645 C 241.862 -1.17739 1.96648 0
M  V30 2646 C 242.875 -1.37906 0.865201 0
M  V30 2647 O 244.064 -1.37062 1.14351 0
M  V30 2648 C 241.164 -2.53821 2.24562 0
M  V30 2649 C 240.337 -2.54317 3.55867 0
M  V30 2650 C 239.396 -3.72112 3.72047 0
M  V30 2651 O 238.422 -3.55907 4.44206 0
M  V30 2652 N 239.624 -4.90498 3.10471 0
M  V30 2653 H 242.389 -0.841147 2.87654 0
M  V30 2654 H 239.95 -0.31289 1.58848 0
M  V30 2655 H 241.942 -3.31175 2.32606 0
M  V30 2656 H 240.512 -2.79645 1.39705 0
M  V30 2657 H 239.732 -1.62711 3.59053 0
M  V30 2658 H 241.02 -2.51701 4.42181 0
M  V30 2659 H 240.418 -5.06567 2.51806 0
M  V30 2660 H 238.975 -5.65544 3.24043 0
M  V30 2661 N 242.408 -1.52605 -0.393616 0
M  V30 2662 C 243.819 -1.59417 -0.971761 0
M  V30 2663 C 244.17 -0.444173 -1.91106 0
M  V30 2664 O 243.295 0.433382 -2.12016 0
M  V30 2665 C 243.89 -2.88936 -1.76921 0
M  V30 2666 C 242.449 -2.98175 -2.29714 0
M  V30 2667 C 241.596 -2.54491 -1.10135 0
M  V30 2668 H 244.547 -1.57751 -0.173317 0
M  V30 2669 H 244.568 -2.75163 -2.62804 0
M  V30 2670 H 244.08 -3.72616 -1.08532 0
M  V30 2671 H 242.181 -2.19024 -3.01429 0
M  V30 2672 H 242.294 -4.02726 -2.59517 0
M  V30 2673 H 240.658 -2.08702 -1.45999 0
M  V30 2674 H 241.441 -3.4056 -0.432874 0
M  V30 2675 N 243.887 0.651787 -1.4349 0
M  V30 2676 C 245.134 1.41167 -1.45183 0
M  V30 2677 C 245.462 1.94349 -0.0766601 0
M  V30 2678 O 244.717 1.72804 0.918555 0
M  V30 2679 C 245.016 2.60914 -2.44251 0
M  V30 2680 C 244.682 2.26142 -3.9009 0
M  V30 2681 C 243.344 2.16371 -4.2981 0
M  V30 2682 C 245.696 1.98334 -4.81989 0
M  V30 2683 C 243.024 1.7695 -5.5938 0
M  V30 2684 C 245.376 1.6041 -6.11924 0
M  V30 2685 C 244.04 1.49166 -6.5062 0
M  V30 2686 H 243.31 0.516566 -0.531263 0
M  V30 2687 H 245.957 0.741099 -1.76579 0
M  V30 2688 H 244.262 3.3311 -2.06265 0
M  V30 2689 H 245.959 3.19127 -2.42815 0
M  V30 2690 H 242.549 2.34658 -3.58655 0
M  V30 2691 H 246.733 2.04803 -4.52072 0
M  V30 2692 H 241.989 1.66831 -5.88198 0
M  V30 2693 H 246.163 1.37925 -6.82605 0
M  V30 2694 H 243.79 1.1839 -7.50925 0
M  V30 2695 N 245.365 1.30045 0.890287 0
M  V30 2696 C 246.312 1.15976 1.99545 0
M  V30 2697 C 247.282 0.0506202 1.66023 0
M  V30 2698 O 248.467 0.219847 1.89529 0
M  V30 2699 C 245.607 0.852054 3.34416 0
M  V30 2700 C 244.72 2.04255 3.80662 0
M  V30 2701 C 243.855 1.6734 5.04154 0
M  V30 2702 C 242.894 2.82916 5.42794 0
M  V30 2703 N 242.031 2.46333 6.57468 0
M  V30 2704 H 246.871 2.10524 2.10911 0
M  V30 2705 H 244.408 1.04749 1.03276 0
M  V30 2706 H 246.366 0.654296 4.12037 0
M  V30 2707 H 244.996 -0.0565502 3.2275 0
M  V30 2708 H 244.048 2.35172 2.98995 0
M  V30 2709 H 245.36 2.90826 4.05242 0
M  V30 2710 H 244.514 1.43908 5.89386 0
M  V30 2711 H 243.253 0.779308 4.81433 0
M  V30 2712 H 242.258 3.0702 4.56091 0
M  V30 2713 H 243.483 3.73004 5.6749 0
M  V30 2714 H 241.429 1.59423 6.36334 0
M  V30 2715 H 241.346 3.26436 6.81891 0
M  V30 2716 H 242.614 2.26244 7.45945 0
M  V30 2717 N 246.843 -1.10192 1.12674 0
M  V30 2718 C 247.806 -2.14786 0.799979 0
M  V30 2719 C 248.806 -1.59711 -0.18685 0
M  V30 2720 O 249.996 -1.74156 0.0392558 0
M  V30 2721 C 247.128 -3.40374 0.189228 0
M  V30 2722 H 248.321 -2.45203 1.72671 0
M  V30 2723 H 245.874 -1.25597 0.930326 0
M  V30 2724 H 246.609 -3.15577 -0.747107 0
M  V30 2725 H 246.394 -3.81637 0.899766 0
M  V30 2726 H 247.884 -4.17594 -0.0228143 0
M  V30 2727 N 248.321 -0.919034 -1.28029 0
M  V30 2728 C 249.268 -0.410005 -2.27129 0
M  V30 2729 C 250.238 0.518405 -1.57803 0
M  V30 2730 O 251.423 0.439451 -1.8567 0
M  V30 2731 C 248.563 0.339054 -3.4343 0
M  V30 2732 C 247.676 -0.622468 -4.27492 0
M  V30 2733 C 246.811 0.145567 -5.31001 0
M  V30 2734 C 245.85 -0.809226 -6.06727 0
M  V30 2735 N 244.987 -0.0743728 -7.02061 0
M  V30 2736 H 249.827 -1.26011 -2.70047 0
M  V30 2737 H 247.364 -0.632663 -1.328 0
M  V30 2738 H 249.322 0.789586 -4.0966 0
M  V30 2739 H 247.952 1.15346 -3.01488 0
M  V30 2740 H 247.004 -1.19153 -3.61257 0
M  V30 2741 H 248.316 -1.35252 -4.80113 0
M  V30 2742 H 247.47 0.656417 -6.03139 0
M  V30 2743 H 246.209 0.908643 -4.79161 0
M  V30 2744 H 245.214 -1.3314 -5.33436 0
M  V30 2745 H 246.439 -1.57194 -6.60656 0
M  V30 2746 H 244.385 0.670616 -6.52563 0
M  V30 2747 H 244.302 -0.744157 -7.52329 0
M  V30 2748 H 245.57 0.416109 -7.78389 0
M  V30 2749 N 249.799 1.42003 -0.683588 0
M  V30 2750 C 250.746 2.30798 -0.0107309 0
M  V30 2751 C 251.716 1.4645 0.783688 0
M  V30 2752 O 252.901 1.75263 0.754156 0
M  V30 2753 C 250.041 3.3238 0.928306 0
M  V30 2754 C 249.154 4.31814 0.126776 0
M  V30 2755 C 248.289 5.20468 1.06236 0
M  V30 2756 C 247.328 6.11577 0.253035 0
M  V30 2757 N 246.465 6.92754 1.14179 0
M  V30 2758 H 251.305 2.8778 -0.773727 0
M  V30 2759 H 248.842 1.41745 -0.393283 0
M  V30 2760 H 250.8 3.89813 1.48666 0
M  V30 2761 H 249.43 2.76976 1.65783 0
M  V30 2762 H 248.482 3.76427 -0.54833 0
M  V30 2763 H 249.794 4.96276 -0.501192 0
M  V30 2764 H 248.948 5.82677 1.69035 0
M  V30 2765 H 247.687 4.56204 1.7242 0
M  V30 2766 H 246.692 5.48428 -0.388108 0
M  V30 2767 H 247.917 6.77892 -0.404839 0
M  V30 2768 H 245.863 6.3111 1.78987 0
M  V30 2769 H 245.78 7.53855 0.569111 0
M  V30 2770 H 247.048 7.59441 1.75697 0
M  V30 2771 N 251.277 0.427512 1.51691 0
M  V30 2772 C 252.693 0.0792977 1.59403 0
M  V30 2773 C 252.893 -1.41035 1.43914 0
M  V30 2774 O 251.949 -2.17922 1.27539 0
M  V30 2775 C 253.262 0.590636 2.94842 0
M  V30 2776 C 254.81 0.550215 3.08126 0
M  V30 2777 C 255.285 1.03836 4.46074 0
M  V30 2778 N 256.776 0.995943 4.52366 0
M  V30 2779 C 257.511 1.34463 5.57411 0
M  V30 2780 N 257.007 1.76569 6.69922 0
M  V30 2781 N 258.8 1.26343 5.47717 0
M  V30 2782 H 250.951 1.39687 1.60004 0
M  V30 2783 H 253.214 0.575003 0.753708 0
M  V30 2784 H 252.92 1.63251 3.11516 0
M  V30 2785 H 252.794 0.0102061 3.77199 0
M  V30 2786 H 255.181 -0.482654 2.91126 0
M  V30 2787 H 255.262 1.16693 2.27632 0
M  V30 2788 H 254.906 2.06965 4.63819 0
M  V30 2789 H 254.836 0.398286 5.25092 0
M  V30 2790 H 257.327 0.68661 3.7161 0
M  V30 2791 H 257.64 2.01438 7.46085 0
M  V30 2792 H 255.985 1.80488 6.71155 0
M  V30 2793 H 259.176 0.933209 4.58703 0
M  V30 2794 H 259.349 1.53846 6.29472 0
M  V30 2795 N 252.755 -1.56801 0.158532 0
M  V30 2796 C 254.032 -1.88131 -0.535357 0
M  V30 2797 C 254.412 -1.06638 -1.82186 0
M  V30 2798 O 253.76 -0.156533 -2.27963 0
M  V30 2799 C 253.97 -3.39949 -0.789653 0
M  V30 2800 C 255.318 -4.09416 -1.12533 0
M  V30 2801 O 256.342 -3.45194 -0.878622 0
M  V30 2802 O 255.201 -5.22855 -1.59014 0
M  V30 2803 H 252.295 -0.780143 -0.27442 0
M  V30 2804 H 254.841 -1.68564 0.19601 0
M  V30 2805 H 253.613 -3.91115 0.120353 0
M  V30 2806 H 253.236 -3.65084 -1.57479 0
M  V30 2807 N 254.233 0.115231 -1.57178 0
M  V30 2808 C 255.163 1.1423 -2.03651 0
M  V30 2809 C 256.144 1.42967 -0.921655 0
M  V30 2810 O 257.329 1.53343 -1.19162 0
M  V30 2811 C 254.459 2.4675 -2.44401 0
M  V30 2812 C 253.413 2.32467 -3.59365 0
M  V30 2813 C 252.739 3.69984 -3.86026 0
M  V30 2814 C 254.039 1.78203 -4.90959 0
M  V30 2815 H 255.733 0.755749 -2.89705 0
M  V30 2816 H 253.279 0.362093 -1.39373 0
M  V30 2817 H 255.232 3.18854 -2.75517 0
M  V30 2818 H 253.956 2.87302 -1.55322 0
M  V30 2819 H 252.615 1.62811 -3.28463 0
M  V30 2820 H 252.263 4.08028 -2.94147 0
M  V30 2821 H 251.963 3.61279 -4.63412 0
M  V30 2822 H 253.487 4.43587 -4.19599 0
M  V30 2823 H 254.901 2.40128 -5.20587 0
M  V30 2824 H 253.298 1.8031 -5.72371 0
M  V30 2825 H 254.368 0.739876 -4.79222 0
M  V30 2826 N 255.711 1.52812 0.385517 0
M  V30 2827 C 256.958 1.68026 1.1302 0
M  V30 2828 C 257.286 0.421934 1.89868 0
M  V30 2829 O 256.541 -0.595749 1.86412 0
M  V30 2830 C 256.84 2.86856 2.13187 0
M  V30 2831 C 256.506 4.24159 1.5297 0
M  V30 2832 C 255.168 4.61501 1.36274 0
M  V30 2833 C 257.52 5.09627 1.09223 0
M  V30 2834 C 254.848 5.81966 0.743837 0
M  V30 2835 C 257.2 6.30719 0.487411 0
M  V30 2836 C 255.864 6.6679 0.307777 0
M  V30 2837 H 255.134 0.614849 0.413571 0
M  V30 2838 H 257.781 1.86962 0.414405 0
M  V30 2839 H 256.086 2.6235 2.90998 0
M  V30 2840 H 257.783 2.95821 2.70722 0
M  V30 2841 H 254.373 3.94746 1.66954 0
M  V30 2842 H 258.557 4.81343 1.20922 0
M  V30 2843 H 253.813 6.08519 0.592891 0
M  V30 2844 H 257.987 6.96259 0.140143 0
M  V30 2845 H 255.614 7.60001 -0.173879 0
M  V30 2846 N 257.189 -0.644168 1.43834 0
M  V30 2847 C 258.437 -1.40117 1.45642 0
M  V30 2848 C 258.758 -1.94814 0.0852413 0
M  V30 2849 O 258.028 -1.74988 -0.880688 0
M  V30 2850 H 256.608 -0.52005 0.536243 0
M  V30 2851 H 259.27 -0.7591 1.7951 0
M  V30 2852 H 258.366 -2.23902 2.17427 0
M  V30 2853 N 258.668 -1.30515 -0.883378 0
M  V30 2854 C 260.084 -1.08881 -1.16692 0
M  V30 2855 C 260.284 0.149409 -2.00945 0
M  V30 2856 O 259.34 0.84257 -2.38027 0
M  V30 2857 C 260.653 -2.35319 -1.87204 0
M  V30 2858 C 262.201 -2.40799 -1.99962 0
M  V30 2859 C 262.676 -3.67083 -2.73887 0
M  V30 2860 N 264.167 -3.679 -2.81432 0
M  V30 2861 C 264.902 -4.62303 -3.3921 0
M  V30 2862 N 264.398 -5.67052 -3.98025 0
M  V30 2863 N 266.191 -4.49845 -3.3704 0
M  V30 2864 H 258.342 -2.09951 -0.321633 0
M  V30 2865 H 260.605 -0.92556 -0.205043 0
M  V30 2866 H 260.311 -3.25689 -1.3274 0
M  V30 2867 H 260.185 -2.44089 -2.87577 0
M  V30 2868 H 262.572 -1.50907 -2.53597 0
M  V30 2869 H 262.653 -2.36003 -0.98673 0
M  V30 2870 H 262.297 -4.57334 -2.20925 0
M  V30 2871 H 262.227 -3.69141 -3.75556 0
M  V30 2872 H 264.718 -2.92171 -2.39676 0
M  V30 2873 H 265.031 -6.35184 -4.40183 0
M  V30 2874 H 263.376 -5.70842 -3.96439 0
M  V30 2875 H 266.567 -3.67194 -2.90321 0
M  V30 2876 H 266.74 -5.23597 -3.81772 0
M  V30 2877 O 260.185 1.01953 -1.25251 0
M  V30 2878 H 260.876 1.63744 -1.03478 0
M  V30 END ATOM
M  V30 BEGIN BOND
M  V30 END BOND
M  V30 END CTAB
M  END
$$$$
