drugbank_target|P80561 Aminopeptidase S (DB02467; DB03660; DB04713)
 OpenBabel12092120243D

  0  0  0     0  0            999 V3000
M  V30 BEGIN CTAB
M  V30 COUNTS 6363 6435 0 0 0
M  V30 BEGIN ATOM
M  V30 1 H -0.908 1.98254 -0.117106 0
M  V30 2 N 0 1.576 0 0
M  V30 3 C 0.933 2.03868 1.02534 0
M  V30 4 C 1.911 0.928543 1.3348 0
M  V30 5 O 3.095 1.19667 1.45644 0
M  V30 6 C 0.222 2.43627 2.35294 0
M  V30 7 C -0.732 3.65373 2.2001 0
M  V30 8 S 0.101 5.13292 1.52614 0
M  V30 9 C 1.257 5.56322 2.86805 0
M  V30 10 H 1.49 2.90518 0.631377 0
M  V30 11 H -0.977 1.52953 0.210867 0
M  V30 12 H 0.981 2.67203 3.11629 0
M  V30 13 H -0.358 1.57376 2.7183 0
M  V30 14 H -1.165 3.90944 3.18086 0
M  V30 15 H -1.563 3.418 1.51819 0
M  V30 16 H 0.729 5.58782 3.83104 0
M  V30 17 H 1.672 6.56266 2.65933 0
M  V30 18 H 2.08 4.83886 2.90714 0
M  V30 19 N 1.4781 -0.272755 1.55222 0
M  V30 20 C 2.8941 -0.619959 1.47067 0
M  V30 21 C 3.0941 -1.895 0.684978 0
M  V30 22 O 2.1501 -2.51675 0.203931 0
M  V30 23 C 3.4631 -0.746693 2.91282 0
M  V30 24 C 5.0111 -0.840731 3.01497 0
M  V30 25 C 5.4861 -0.99924 4.46967 0
M  V30 26 N 6.9771 -1.06476 4.50796 0
M  V30 27 C 7.7121 -1.20621 5.6057 0
M  V30 28 N 7.2081 -1.31483 6.80209 0
M  V30 29 N 9.0011 -1.23733 5.48312 0
M  V30 30 H 1.1521 0.564606 2.04758 0
M  V30 31 H 3.4151 0.191177 0.928523 0
M  V30 32 H 3.1211 0.119753 3.51496 0
M  V30 33 H 2.9951 -1.6269 3.40311 0
M  V30 34 H 5.3821 -1.69764 2.41379 0
M  V30 35 H 5.4631 0.0640874 2.5572 0
M  V30 36 H 5.1071 -0.146984 5.07687 0
M  V30 37 H 5.0371 -1.91871 4.90401 0
M  V30 38 H 7.5281 -0.993196 3.64615 0
M  V30 39 H 7.8411 -1.42111 7.59621 0
M  V30 40 H 6.1861 -1.28487 6.8302 0
M  V30 41 H 9.3771 -1.14877 4.53785 0
M  V30 42 H 9.5501 -1.34412 6.33906 0
M  V30 43 N 2.9562 -1.48159 -0.537278 0
M  V30 44 C 4.3672 -1.49429 -1.11928 0
M  V30 45 C 4.7182 -0.26 -1.9447 0
M  V30 46 O 3.8432 0.633489 -2.0692 0
M  V30 47 C 4.4382 -2.70758 -2.03656 0
M  V30 48 C 2.9972 -2.74923 -2.57088 0
M  V30 49 C 2.1442 -2.42835 -1.3389 0
M  V30 50 H 5.0952 -1.55381 -0.322886 0
M  V30 51 H 5.1162 -2.48861 -2.87834 0
M  V30 52 H 4.6282 -3.60575 -1.43553 0
M  V30 53 H 2.7292 -1.89296 -3.20933 0
M  V30 54 H 2.8422 -3.76157 -2.9672 0
M  V30 55 H 1.2062 -1.93836 -1.65226 0
M  V30 56 H 1.9892 -3.34884 -0.755504 0
M  V30 57 N 4.4343 0.785586 -1.36625 0
M  V30 58 C 5.3823 1.91978 -1.31329 0
M  V30 59 C 6.3763 1.68162 -0.204416 0
M  V30 60 O 7.5823 1.76122 -0.371645 0
M  V30 61 H 3.9573 0.631087 -0.408942 0
M  V30 62 H 5.9283 1.93562 -2.27104 0
M  V30 63 C 4.6773 3.29055 -1.12329 0
M  V30 64 H 4.0003 3.4795 -1.96903 0
M  V30 65 H 5.4403 4.08756 -1.12671 0
M  V30 66 C 3.8993 3.36461 0.171861 0
M  V30 67 O 4.4293 3.84576 1.16035 0
M  V30 68 N 2.6353 2.89782 0.217846 0
M  V30 69 H 2.1823 2.50819 -0.587183 0
M  V30 70 H 2.1403 2.95119 1.08408 0
M  V30 71 N 5.9124 1.20967 1.01018 0
M  V30 72 C 7.3284 0.965905 1.27053 0
M  V30 73 C 7.5284 -0.350785 1.98423 0
M  V30 74 O 6.5844 -1.07773 2.28344 0
M  V30 75 C 7.8974 2.15294 2.09926 0
M  V30 76 C 9.4454 2.19463 2.23171 0
M  V30 77 C 9.9204 3.3767 3.09424 0
M  V30 78 N 11.4114 3.37724 3.17012 0
M  V30 79 C 12.1464 4.25837 3.83993 0
M  V30 80 N 11.6424 5.24138 4.53047 0
M  V30 81 N 13.4354 4.1366 3.80581 0
M  V30 82 H 5.5864 2.0565 0.531194 0
M  V30 83 H 7.8494 0.90024 0.297106 0
M  V30 84 H 7.5554 3.10684 1.64828 0
M  V30 85 H 7.4294 2.13923 3.10672 0
M  V30 86 H 9.8164 1.24632 2.6749 0
M  V30 87 H 9.8974 2.2488 1.21912 0
M  V30 88 H 9.5414 4.32791 2.65808 0
M  V30 89 H 9.4714 3.29491 4.10784 0
M  V30 90 H 11.9624 2.6658 2.6785 0
M  V30 91 H 12.2754 5.87684 5.01844 0
M  V30 92 H 10.6204 5.28068 4.5185 0
M  V30 93 H 13.8114 3.36127 3.25785 0
M  V30 94 H 13.9844 4.82538 4.32505 0
M  V30 95 N 7.3905 -1.2043 1.01659 0
M  V30 96 C 8.6375 -1.89797 0.705917 0
M  V30 97 C 8.9655 -1.78848 -0.764439 0
M  V30 98 O 8.2205 -1.16694 -1.57102 0
M  V30 99 C 8.5195 -3.40464 1.08714 0
M  V30 100 C 8.1855 -3.71614 2.5537 0
M  V30 101 C 6.8475 -3.79826 2.95441 0
M  V30 102 C 9.1995 -3.85915 3.50313 0
M  V30 103 C 6.5275 -3.99797 4.29394 0
M  V30 104 C 8.8795 -4.07396 4.83954 0
M  V30 105 C 7.5435 -4.13837 5.23732 0
M  V30 106 H 6.8135 -0.694518 0.258313 0
M  V30 107 H 9.4605 -1.42691 1.27717 0
M  V30 108 H 7.7655 -3.89385 0.434309 0
M  V30 109 H 9.4625 -3.92433 0.824461 0
M  V30 110 H 6.0525 -3.65822 2.23321 0
M  V30 111 H 10.2365 -3.78926 3.20513 0
M  V30 112 H 5.4925 -4.03018 4.59768 0
M  V30 113 H 9.6665 -4.17404 5.57447 0
M  V30 114 H 7.2935 -4.29064 6.27541 0
M  V30 115 N 8.8686 -0.792821 -1.36206 0
M  V30 116 C 10.0936 -0.377701 -2.03932 0
M  V30 117 C 10.5186 0.998947 -1.59382 0
M  V30 118 O 9.8766 1.64421 -0.763903 0
M  V30 119 C 9.9246 -0.453635 -3.57735 0
M  V30 120 O 9.0286 0.538151 -4.08874 0
M  V30 121 H 8.3696 -0.159855 -0.644471 0
M  V30 122 H 10.8996 -1.07488 -1.7409 0
M  V30 123 H 10.9096 -0.318464 -4.06755 0
M  V30 124 H 9.5846 -1.45784 -3.89512 0
M  V30 125 H 8.1616 0.364359 -3.71116 0
M  V30 126 N 10.3467 1.47872 -0.545128 0
M  V30 127 C 11.2767 2.32661 0.197793 0
M  V30 128 C 12.2577 1.43041 0.920504 0
M  V30 129 O 13.4427 1.71912 0.90333 0
M  V30 130 C 10.5727 3.24569 1.23582 0
M  V30 131 C 9.5267 4.23333 0.630323 0
M  V30 132 C 8.8527 5.0448 1.77211 0
M  V30 133 C 10.1527 5.20704 -0.407974 0
M  V30 134 H 11.8467 2.95024 -0.510045 0
M  V30 135 H 9.3927 1.4187 -0.246731 0
M  V30 136 H 11.3457 3.8272 1.76362 0
M  V30 137 H 10.0697 2.60236 1.97344 0
M  V30 138 H 8.7287 3.6639 0.123922 0
M  V30 139 H 8.3767 4.36561 2.49847 0
M  V30 140 H 8.0767 5.71339 1.37281 0
M  V30 141 H 9.6007 5.65487 2.3034 0
M  V30 142 H 11.0147 5.7329 0.033305 0
M  V30 143 H 9.4117 5.95699 -0.725486 0
M  V30 144 H 10.4817 4.66917 -1.30828 0
M  V30 145 N 11.8248 0.280983 1.55075 0
M  V30 146 C 13.2408 -0.0729964 1.59433 0
M  V30 147 C 13.4408 -1.5411 1.29817 0
M  V30 148 O 12.4968 -2.29086 1.06187 0
M  V30 149 C 13.8098 0.306921 2.9913 0
M  V30 150 C 15.3578 0.254023 3.11968 0
M  V30 151 C 15.8328 0.608467 4.5394 0
M  V30 152 N 17.3238 0.560241 4.59799 0
M  V30 153 C 18.0588 0.80722 5.6769 0
M  V30 154 N 17.5548 1.11912 6.83701 0
M  V30 155 N 19.3478 0.735623 5.57266 0
M  V30 156 H 11.4988 1.238 1.7259 0
M  V30 157 H 13.7618 0.500547 0.805082 0
M  V30 158 H 13.4678 1.32816 3.25657 0
M  V30 159 H 13.3418 -0.349363 3.75579 0
M  V30 160 H 15.7288 -0.75794 2.852 0
M  V30 161 H 15.8098 0.944649 2.37718 0
M  V30 162 H 15.4538 1.61814 4.81434 0
M  V30 163 H 15.3838 -0.104013 5.26497 0
M  V30 164 H 17.8748 0.329288 3.76463 0
M  V30 165 H 18.1878 1.29409 7.61888 0
M  V30 166 H 16.5328 1.15695 6.85303 0
M  V30 167 H 19.7238 0.491752 4.6551 0
M  V30 168 H 19.8968 0.931482 6.4127 0
M  V30 169 N 13.3029 -1.57598 0.00835791 0
M  V30 170 C 14.7189 -1.55764 -0.347822 0
M  V30 171 C 14.9189 -1.01186 -1.74252 0
M  V30 172 O 13.9749 -0.649371 -2.44007 0
M  V30 173 C 15.2879 -2.99927 -0.215407 0
M  V30 174 C 16.8359 -3.11656 -0.289725 0
M  V30 175 C 17.3109 -4.57621 -0.18634 0
M  V30 176 N 18.8019 -4.62557 -0.243978 0
M  V30 177 C 19.5369 -5.73094 -0.18745 0
M  V30 178 N 19.0329 -6.92753 -0.0810331 0
M  V30 179 N 20.8259 -5.61588 -0.239925 0
M  V30 180 H 12.9769 -1.91411 0.92062 0
M  V30 181 H 15.2399 -0.879562 0.353659 0
M  V30 182 H 14.9459 -3.43729 0.744512 0
M  V30 183 H 14.8199 -3.63865 -0.994097 0
M  V30 184 H 17.2069 -2.67779 -1.24009 0
M  V30 185 H 17.2879 -2.5048 0.51898 0
M  V30 186 H 16.9319 -5.02174 0.760519 0
M  V30 187 H 16.8619 -5.16752 -1.01364 0
M  V30 188 H 19.3529 -3.76481 -0.327217 0
M  V30 189 H 19.6659 -7.72787 -0.0440241 0
M  V30 190 H 18.0109 -6.94984 -0.0465419 0
M  V30 191 H 21.2019 -4.66996 -0.321317 0
M  V30 192 H 21.3749 -6.47714 -0.192407 0
M  V30 193 N 14.781 0.264519 -1.55364 0
M  V30 194 C 16.006 1.01726 -1.80739 0
M  V30 195 C 16.431 1.78836 -0.583044 0
M  V30 196 O 15.789 1.75167 0.467566 0
M  V30 197 C 15.837 1.94482 -3.03659 0
M  V30 198 O 14.941 3.03386 -2.7934 0
M  V30 199 H 14.282 0.290395 -0.597132 0
M  V30 200 H 16.812 0.290854 -2.02522 0
M  V30 201 H 16.822 2.36278 -3.32621 0
M  V30 202 H 15.497 1.37772 -3.92418 0
M  V30 203 H 14.074 2.65844 -2.61498 0
M  V30 204 N 16.2591 1.48442 0.529413 0
M  V30 205 C 17.6701 1.5002 1.11134 0
M  V30 206 C 18.0211 0.27031 1.94329 0
M  V30 207 O 17.1461 -0.622507 2.07253 0
M  V30 208 C 17.7411 2.71834 2.02217 0
M  V30 209 C 16.3001 2.76283 2.55627 0
M  V30 210 C 15.4471 2.43542 1.326 0
M  V30 211 H 18.3981 1.5555 0.314641 0
M  V30 212 H 18.4191 2.50384 2.8651 0
M  V30 213 H 17.9311 3.61331 1.41639 0
M  V30 214 H 16.0321 1.90995 3.19924 0
M  V30 215 H 16.1451 3.77725 2.94721 0
M  V30 216 H 14.5091 1.94709 1.64196 0
M  V30 217 H 15.2921 3.3528 0.737734 0
M  V30 218 N 17.7372 -0.778329 1.37039 0
M  V30 219 C 18.9652 -1.56734 1.35063 0
M  V30 220 C 19.3802 -1.88686 -0.0655597 0
M  V30 221 O 18.7372 -1.5096 -1.02554 0
M  V30 222 C 18.7882 -2.88163 2.18276 0
M  V30 223 O 18.5092 -2.57583 3.54376 0
M  V30 224 C 20.0102 -3.82422 2.24206 0
M  V30 225 H 17.2302 -0.485778 0.462883 0
M  V30 226 H 19.7742 -0.965185 1.8029 0
M  V30 227 H 17.9292 -3.44818 1.76576 0
M  V30 228 H 18.3432 -3.41699 3.97922 0
M  V30 229 H 19.8172 -4.71667 2.86765 0
M  V30 230 H 20.2942 -4.21078 1.24861 0
M  V30 231 H 20.9002 -3.31697 2.6619 0
M  V30 232 N 19.2153 -1.21501 -1.00376 0
M  V30 233 C 20.1783 -0.976927 -2.07337 0
M  V30 234 C 21.1783 0.0525322 -1.60714 0
M  V30 235 O 22.3683 -0.184869 -1.73216 0
M  V30 236 C 19.5003 -0.473423 -3.37597 0
M  V30 237 H 20.6933 -1.92587 -2.29892 0
M  V30 238 H 18.2463 -1.03217 -1.17371 0
M  V30 239 H 18.9813 0.480379 -3.20722 0
M  V30 240 H 18.7663 -1.216 -3.72768 0
M  V30 241 H 20.2563 -0.32675 -4.1632 0
M  V30 242 N 20.6934 1.19889 -1.02296 0
M  V30 243 C 21.9394 1.89701 -0.717033 0
M  V30 244 C 22.2724 1.7905 0.751989 0
M  V30 245 O 21.5474 1.17891 1.547 0
M  V30 246 C 21.8304 3.40858 -1.16136 0
M  V30 247 C 21.6834 3.60411 -2.69117 0
M  V30 248 C 23.0024 4.33876 -0.737549 0
M  V30 249 H 20.1214 0.688874 -0.261957 0
M  V30 250 H 22.7634 1.41154 -1.27183 0
M  V30 251 H 20.9134 3.82335 -0.689342 0
M  V30 252 H 22.5854 3.28145 -3.2422 0
M  V30 253 H 20.8284 3.03665 -3.0979 0
M  V30 254 H 21.4994 4.66396 -2.95261 0
M  V30 255 H 23.9754 4.00081 -1.14344 0
M  V30 256 H 22.8514 5.38242 -1.0764 0
M  V30 257 H 23.1124 4.40628 0.360436 0
M  V30 258 N 22.1715 0.800033 1.35784 0
M  V30 259 C 23.1345 0.211565 2.28221 0
M  V30 260 C 24.1345 -0.59728 1.49296 0
M  V30 261 O 25.3245 -0.416721 1.69142 0
M  V30 262 C 22.4565 -0.705846 3.33513 0
M  V30 263 H 23.6495 1.02677 2.81776 0
M  V30 264 H 21.2025 0.570211 1.45528 0
M  V30 265 H 21.9375 -1.54498 2.85133 0
M  V30 266 H 21.7225 -0.127655 3.91892 0
M  V30 267 H 23.2125 -1.11211 4.02519 0
M  V30 268 N 23.6496 -1.47581 0.552962 0
M  V30 269 C 24.6126 -2.28439 -0.186605 0
M  V30 270 C 25.6126 -1.36706 -0.84665 0
M  V30 271 O 26.8026 -1.59378 -0.703164 0
M  V30 272 C 23.9346 -3.16264 -1.2724 0
M  V30 273 H 25.1276 -2.95294 0.523609 0
M  V30 274 H 22.6806 -1.532 0.309745 0
M  V30 275 H 23.4156 -2.54091 -2.01514 0
M  V30 276 H 23.2006 -3.83769 -0.803968 0
M  V30 277 H 24.6906 -3.77198 -1.79196 0
M  V30 278 N 25.1277 -0.289203 -1.54924 0
M  V30 279 C 26.3737 0.323998 -2.00195 0
M  V30 280 C 26.7067 1.54441 -1.17735 0
M  V30 281 O 25.9817 1.92875 -0.250878 0
M  V30 282 C 26.2647 0.692276 -3.53383 0
M  V30 283 C 26.1177 -0.536457 -4.46589 0
M  V30 284 C 27.4367 1.52335 -4.12895 0
M  V30 285 H 24.5557 0.116289 -0.727768 0
M  V30 286 H 27.1977 -0.398954 -1.85764 0
M  V30 287 H 25.3477 1.30822 -3.65811 0
M  V30 288 H 27.0197 -1.17499 -4.46085 0
M  V30 289 H 25.2627 -1.17192 -4.1767 0
M  V30 290 H 25.9337 -0.234806 -5.515 0
M  V30 291 H 28.4097 1.00302 -4.0383 0
M  V30 292 H 27.2857 1.74982 -5.20262 0
M  V30 293 H 27.5467 2.50886 -3.64018 0
M  V30 294 N 26.6058 1.57591 -0.0167156 0
M  V30 295 C 27.5688 2.08393 0.954204 0
M  V30 296 C 28.5688 0.996531 1.26198 0
M  V30 297 O 29.7588 1.25858 1.20438 0
M  V30 298 C 26.8908 2.5394 2.27436 0
M  V30 299 H 28.0838 2.95455 0.514451 0
M  V30 300 H 25.6368 1.54582 0.231089 0
M  V30 301 H 26.3718 1.70171 2.76066 0
M  V30 302 H 26.1568 3.33371 2.06412 0
M  V30 303 H 27.6468 2.93512 2.97053 0
M  V30 304 N 28.0839 -0.256276 1.55502 0
M  V30 305 C 29.0139 -1.32102 1.92539 0
M  V30 306 C 29.9949 -1.50684 0.789194 0
M  V30 307 O 31.1799 -1.63449 1.04872 0
M  V30 308 C 28.3099 -2.67752 2.21192 0
M  V30 309 C 27.2639 -2.63878 3.36975 0
M  V30 310 C 26.5899 -4.03236 3.51147 0
M  V30 311 C 27.8899 -2.21682 4.72921 0
M  V30 312 H 29.5839 -1.01351 2.81724 0
M  V30 313 H 27.1299 -0.486105 1.35547 0
M  V30 314 H 29.0829 -3.42365 2.45691 0
M  V30 315 H 27.8069 -3.0012 1.28824 0
M  V30 316 H 26.4659 -1.91722 3.12471 0
M  V30 317 H 26.1139 -4.32854 2.56216 0
M  V30 318 H 25.8139 -4.01535 4.29003 0
M  V30 319 H 27.3379 -4.79563 3.77957 0
M  V30 320 H 28.7519 -2.86023 4.96854 0
M  V30 321 H 27.1489 -2.3111 5.53812 0
M  V30 322 H 28.2189 -1.16833 4.70615 0
M  V30 323 N 29.562 -1.4872 -0.521534 0
M  V30 324 C 30.525 -1.63379 -1.60748 0
M  V30 325 C 31.525 -0.50661 -1.52611 0
M  V30 326 O 32.715 -0.772601 -1.5613 0
M  V30 327 C 29.847 -1.61192 -3.00383 0
M  V30 328 H 31.04 -2.60217 -1.49087 0
M  V30 329 H 28.593 -1.37444 -0.744235 0
M  V30 330 H 29.328 -0.65863 -3.17541 0
M  V30 331 H 29.113 -2.43032 -3.07698 0
M  V30 332 H 30.603 -1.7466 -3.7932 0
M  V30 333 N 31.0401 0.771051 -1.3745 0
M  V30 334 C 32.0031 1.86598 -1.33093 0
M  V30 335 C 33.0031 1.59076 -0.234845 0
M  V30 336 O 34.1931 1.67145 -0.490732 0
M  V30 337 C 31.3251 3.23747 -1.06773 0
M  V30 338 H 32.5181 1.91873 -2.30488 0
M  V30 339 H 30.0711 0.970876 -1.2249 0
M  V30 340 H 30.8061 3.24148 -0.099129 0
M  V30 341 H 30.5911 3.45115 -1.86112 0
M  V30 342 H 32.0811 4.03824 -1.06377 0
M  V30 343 N 32.5182 1.22032 0.997298 0
M  V30 344 C 33.7642 1.04376 1.73878 0
M  V30 345 C 34.0972 -0.420716 1.89588 0
M  V30 346 O 33.3722 -1.31202 1.43583 0
M  V30 347 C 33.6552 1.75047 3.14691 0
M  V30 348 C 33.5082 3.29062 3.06656 0
M  V30 349 C 34.8272 1.49928 4.13775 0
M  V30 350 H 31.9462 0.380578 0.631133 0
M  V30 351 H 34.5882 1.50312 1.16217 0
M  V30 352 H 32.7382 1.35996 3.63919 0
M  V30 353 H 34.4102 3.7753 2.65083 0
M  V30 354 H 32.6532 3.58967 2.43568 0
M  V30 355 H 33.3242 3.73683 4.06282 0
M  V30 356 H 35.8002 1.83842 3.73285 0
M  V30 357 H 34.6762 2.01878 5.10428 0
M  V30 358 H 34.9372 0.430929 4.39995 0
M  V30 359 N 33.9963 -1.19345 1.0293 0
M  V30 360 C 34.9263 -2.2481 0.631105 0
M  V30 361 C 35.9073 -1.66245 -0.360104 0
M  V30 362 O 37.0923 -1.92677 -0.242726 0
M  V30 363 C 34.2223 -3.47295 -0.0184607 0
M  V30 364 C 33.1763 -4.18536 0.895073 0
M  V30 365 C 32.5023 -5.34586 0.110592 0
M  V30 366 C 33.8023 -4.73287 2.209 0
M  V30 367 H 35.4963 -2.58372 1.51275 0
M  V30 368 H 33.0423 -1.24194 0.728818 0
M  V30 369 H 34.9953 -4.20268 -0.308675 0
M  V30 370 H 33.7193 -3.12933 -0.934907 0
M  V30 371 H 32.3783 -3.47446 1.16949 0
M  V30 372 H 32.0263 -4.96469 -0.807902 0
M  V30 373 H 31.7263 -5.83183 0.719087 0
M  V30 374 H 33.2503 -6.10355 -0.172871 0
M  V30 375 H 34.6643 -5.38013 1.98028 0
M  V30 376 H 33.0613 -5.32373 2.76946 0
M  V30 377 H 34.1313 -3.91331 2.86336 0
M  V30 378 N 35.4744 -0.807222 -1.35358 0
M  V30 379 C 36.4374 -0.223665 -2.28106 0
M  V30 380 C 37.4374 0.589354 -1.4961 0
M  V30 381 O 38.6274 0.407745 -1.69361 0
M  V30 382 C 35.7594 0.688149 -3.33882 0
M  V30 383 H 36.9524 -1.04169 -2.81227 0
M  V30 384 H 34.5054 -0.577921 -1.45223 0
M  V30 385 H 35.2404 1.52984 -2.85948 0
M  V30 386 H 35.0254 0.10687 -3.91954 0
M  V30 387 H 36.5154 1.09075 -4.03104 0
M  V30 388 N 36.9525 1.47285 -0.560781 0
M  V30 389 C 37.9155 2.28535 0.174488 0
M  V30 390 C 38.9155 1.37153 0.839388 0
M  V30 391 O 40.1055 1.59748 0.694702 0
M  V30 392 C 37.2375 3.16934 1.25561 0
M  V30 393 H 38.4305 2.95012 -0.539262 0
M  V30 394 H 35.9835 1.53034 -0.317865 0
M  V30 395 H 36.7185 2.55157 2.00164 0
M  V30 396 H 36.5035 3.8419 0.783604 0
M  V30 397 H 37.9935 3.78143 1.77193 0
M  V30 398 N 38.4306 0.297415 1.54768 0
M  V30 399 C 39.6786 -0.312295 1.99673 0
M  V30 400 C 39.9996 -1.54686 1.18732 0
M  V30 401 O 39.2696 -1.93854 0.282382 0
M  V30 402 H 37.8496 -0.118381 0.73756 0
M  V30 403 H 40.5116 0.407915 1.90583 0
M  V30 404 H 39.6076 -0.586813 3.06534 0
M  V30 405 N 39.9087 -1.5758 0.0250728 0
M  V30 406 C 40.8717 -2.08896 -0.943139 0
M  V30 407 C 41.8717 -1.00321 -1.25668 0
M  V30 408 O 43.0617 -1.26495 -1.19769 0
M  V30 409 C 40.1937 -2.55143 -2.26086 0
M  V30 410 H 41.3867 -2.95723 -0.498775 0
M  V30 411 H 38.9397 -1.54703 -0.222888 0
M  V30 412 H 39.6747 -1.71633 -2.75159 0
M  V30 413 H 39.4597 -3.34461 -2.04641 0
M  V30 414 H 40.9497 -2.95083 -2.95492 0
M  V30 415 N 41.3868 0.248026 -1.55636 0
M  V30 416 C 42.7978 0.817177 -1.67866 0
M  V30 417 C 43.1488 1.86069 -0.622322 0
M  V30 418 O 42.2738 2.15157 0.231618 0
M  V30 419 C 42.8688 1.489 -3.04326 0
M  V30 420 C 41.4278 2.00587 -3.185 0
M  V30 421 C 40.5748 0.856573 -2.63739 0
M  V30 422 H 43.5258 0.0238579 -1.58682 0
M  V30 423 H 43.5468 2.35698 -2.98708 0
M  V30 424 H 43.0588 0.729279 -3.81186 0
M  V30 425 H 41.1598 2.79443 -2.4646 0
M  V30 426 H 41.2728 2.20402 -4.25393 0
M  V30 427 H 39.6368 1.25678 -2.21534 0
M  V30 428 H 40.4198 0.109953 -3.43124 0
M  V30 429 N 42.8649 1.48995 0.513639 0
M  V30 430 C 43.8279 1.64229 1.59879 0
M  V30 431 C 44.8279 0.514696 1.5234 0
M  V30 432 O 46.0179 0.78087 1.55718 0
M  V30 433 C 43.1499 1.62783 2.99524 0
M  V30 434 H 44.3429 2.61004 1.47705 0
M  V30 435 H 41.8959 1.37837 0.736936 0
M  V30 436 H 42.6309 0.675461 3.17188 0
M  V30 437 H 42.4159 2.4466 3.06404 0
M  V30 438 H 43.9059 1.76669 3.78388 0
M  V30 439 N 44.343 -0.763751 1.37857 0
M  V30 440 C 45.306 -1.85889 1.34081 0
M  V30 441 C 46.306 -1.58949 0.243277 0
M  V30 442 O 47.496 -1.66882 0.499589 0
M  V30 443 C 44.628 -3.23176 1.08489 0
M  V30 444 H 45.821 -1.90648 2.31502 0
M  V30 445 H 43.374 -0.964367 1.23003 0
M  V30 446 H 44.109 -3.24091 0.116318 0
M  V30 447 H 43.894 -3.44124 1.8794 0
M  V30 448 H 45.384 -4.03254 1.08517 0
M  V30 449 N 45.8211 -1.22559 -0.990812 0
M  V30 450 C 46.7531 -0.955325 -2.08342 0
M  V30 451 C 47.7661 0.0668408 -1.62663 0
M  V30 452 O 48.9551 -0.167421 -1.77713 0
M  V30 453 C 46.0551 -0.415566 -3.36342 0
M  V30 454 C 45.2281 -1.49544 -4.11042 0
M  V30 455 C 44.2871 -0.962399 -5.17324 0
M  V30 456 O 43.3131 -1.64907 -5.44788 0
M  V30 457 N 44.5151 0.215134 -5.80101 0
M  V30 458 H 47.2801 -1.89596 -2.32106 0
M  V30 459 H 44.8411 -1.13276 -1.15673 0
M  V30 460 H 46.8331 -0.0442386 -4.04676 0
M  V30 461 H 45.4031 0.430232 -3.09625 0
M  V30 462 H 44.6231 -2.04 -3.37309 0
M  V30 463 H 45.9111 -2.22195 -4.57719 0
M  V30 464 H 45.3091 0.789779 -5.6016 0
M  V30 465 H 43.8661 0.527826 -6.49659 0
M  V30 466 N 47.2992 1.18797 -1.03562 0
M  V30 467 C 48.2622 2.20464 -0.626769 0
M  V30 468 C 49.2622 1.57721 0.313173 0
M  V30 469 O 50.4522 1.73917 0.0992615 0
M  V30 470 C 47.5842 3.40802 0.0818498 0
M  V30 471 H 48.7772 2.58149 -1.5264 0
M  V30 472 H 46.3302 1.32593 -0.827578 0
M  V30 473 H 47.0652 3.08642 0.995518 0
M  V30 474 H 46.8502 3.8758 -0.593652 0
M  V30 475 H 48.3402 4.16092 0.354584 0
M  V30 476 N 48.7773 0.814389 1.34928 0
M  V30 477 C 49.7403 0.235759 2.27984 0
M  V30 478 C 50.7403 -0.581412 1.49921 0
M  V30 479 O 51.9303 -0.398758 1.69575 0
M  V30 480 C 49.0623 -0.670433 3.34242 0
M  V30 481 H 50.2553 1.05659 2.80671 0
M  V30 482 H 47.8083 0.585614 1.44915 0
M  V30 483 H 48.5433 -1.51466 2.86755 0
M  V30 484 H 48.3283 -0.0860822 3.92005 0
M  V30 485 H 49.8183 -1.06935 4.03676 0
M  V30 486 N 50.2554 -1.46986 0.568584 0
M  V30 487 C 51.5034 -2.02041 0.0487022 0
M  V30 488 C 51.8244 -1.44408 -1.31039 0
M  V30 489 O 51.0944 -0.623477 -1.85714 0
M  V30 490 H 49.6744 -0.746849 0.015014 0
M  V30 491 H 52.3364 -1.80257 0.741168 0
M  V30 492 H 51.4324 -3.12085 -0.0308961 0
M  V30 493 N 51.7335 -0.305618 -1.54608 0
M  V30 494 C 52.6965 0.555591 -2.22364 0
M  V30 495 C 53.6965 1.05768 -1.21119 0
M  V30 496 O 54.8865 0.952972 -1.45822 0
M  V30 497 C 52.0185 1.76974 -2.91364 0
M  V30 498 H 53.2115 -0.0364572 -2.99878 0
M  V30 499 H 50.7645 -0.0565007 -1.56198 0
M  V30 500 H 51.4995 2.40151 -2.17941 0
M  V30 501 H 51.2845 1.41732 -3.65588 0
M  V30 502 H 52.7745 2.38148 -3.43038 0
M  V30 503 N 53.2116 1.57565 -0.0334293 0
M  V30 504 C 54.1746 2.09393 0.932048 0
M  V30 505 C 55.1746 1.00986 1.25134 0
M  V30 506 O 56.3646 1.27129 1.19096 0
M  V30 507 C 53.4966 2.56338 2.2473 0
M  V30 508 H 54.6896 2.95984 0.483085 0
M  V30 509 H 52.2426 1.54819 0.21468 0
M  V30 510 H 52.9776 1.7309 2.74245 0
M  V30 511 H 52.7626 3.35542 2.02865 0
M  V30 512 H 54.2526 2.96646 2.93923 0
M  V30 513 N 54.6897 -0.239769 1.55765 0
M  V30 514 C 55.6527 -1.28038 1.90103 0
M  V30 515 C 56.6527 -1.40723 0.778055 0
M  V30 516 O 57.8427 -1.39301 1.04599 0
M  V30 517 C 54.9747 -2.65702 2.13577 0
M  V30 518 H 56.1677 -0.988048 2.83157 0
M  V30 519 H 53.7207 -0.479382 1.48767 0
M  V30 520 H 54.4557 -3.00063 1.23015 0
M  V30 521 H 54.2407 -2.57875 2.95369 0
M  V30 522 H 55.7307 -3.40828 2.41301 0
M  V30 523 N 56.1678 -1.49265 -0.50573 0
M  V30 524 C 57.5788 -1.51769 -1.08734 0
M  V30 525 C 57.9298 -0.301192 -1.93874 0
M  V30 526 O 57.0548 0.589456 -2.08217 0
M  V30 527 C 57.6498 -2.75017 -1.97867 0
M  V30 528 C 56.2088 -2.80314 -2.51199 0
M  V30 529 C 55.3558 -2.4562 -1.28709 0
M  V30 530 H 58.3068 -1.56031 -0.289855 0
M  V30 531 H 58.3278 -2.5491 -2.82491 0
M  V30 532 H 57.8398 -3.63539 -1.35873 0
M  V30 533 H 55.9408 -1.96061 -3.16845 0
M  V30 534 H 56.0538 -3.82366 -2.88675 0
M  V30 535 H 54.4178 -1.97297 -1.61078 0
M  V30 536 H 55.2008 -3.36411 -0.6843 0
M  V30 537 N 57.6459 0.756429 -1.3826 0
M  V30 538 C 58.8739 1.54565 -1.3754 0
M  V30 539 C 59.2889 1.88767 0.0355331 0
M  V30 540 O 58.6459 1.52572 1.0014 0
M  V30 541 C 58.6969 2.84654 -2.22833 0
M  V30 542 O 58.4179 2.51912 -3.5843 0
M  V30 543 C 59.9189 3.78807 -2.30261 0
M  V30 544 H 57.1389 0.478353 -0.470553 0
M  V30 545 H 59.6829 0.936381 -1.81803 0
M  V30 546 H 57.8379 3.41965 -1.8204 0
M  V30 547 H 58.2519 3.35325 -4.03308 0
M  V30 548 H 59.7259 4.67045 -2.94233 0
M  V30 549 H 60.2029 4.19038 -1.31545 0
M  V30 550 H 60.8089 3.2742 -2.71433 0
M  V30 551 N 59.124 1.23083 0.984299 0
M  V30 552 C 60.087 1.00979 2.05757 0
M  V30 553 C 61.087 -0.0269573 1.60777 0
M  V30 554 O 62.277 0.212403 1.729 0
M  V30 555 C 59.409 0.527072 3.36801 0
M  V30 556 H 60.602 1.9622 2.26799 0
M  V30 557 H 58.155 1.05072 1.15714 0
M  V30 558 H 58.89 -0.429294 3.21446 0
M  V30 559 H 58.675 1.27515 3.70786 0
M  V30 560 H 60.165 0.392942 4.15747 0
M  V30 561 N 60.6021 -1.18246 1.0419 0
M  V30 562 C 61.5651 -2.20128 0.638452 0
M  V30 563 C 62.5651 -1.57885 -0.304805 0
M  V30 564 O 63.7551 -1.73967 -0.0900369 0
M  V30 565 C 60.8871 -3.4084 -0.0637751 0
M  V30 566 H 62.0801 -2.57336 1.54007 0
M  V30 567 H 59.6331 -1.32152 0.834598 0
M  V30 568 H 60.3681 -3.09166 -0.979136 0
M  V30 569 H 60.1531 -3.8726 0.614198 0
M  V30 570 H 61.6431 -4.16274 -0.332512 0
M  V30 571 N 62.0802 -0.821533 -1.34494 0
M  V30 572 C 63.0432 -0.247847 -2.27856 0
M  V30 573 C 64.0432 0.573453 -1.50227 0
M  V30 574 O 65.2332 0.389759 -1.69784 0
M  V30 575 C 62.3652 0.652698 -3.34593 0
M  V30 576 H 63.5582 -1.07146 -2.80107 0
M  V30 577 H 61.1112 -0.593291 -1.44602 0
M  V30 578 H 61.8462 1.49943 -2.87555 0
M  V30 579 H 61.6312 0.065292 -3.92046 0
M  V30 580 H 63.1212 1.04793 -4.04238 0
M  V30 581 N 63.5583 1.46682 -0.576371 0
M  V30 582 C 64.5213 2.28707 0.150239 0
M  V30 583 C 65.5213 1.38035 0.824794 0
M  V30 584 O 66.7113 1.60476 0.677719 0
M  V30 585 C 63.8433 3.18248 1.22192 0
M  V30 586 H 65.0363 2.94423 -0.570521 0
M  V30 587 H 62.5893 1.52688 -0.334078 0
M  V30 588 H 63.3243 2.57265 1.97447 0
M  V30 589 H 63.1093 3.85 0.742812 0
M  V30 590 H 64.5993 3.80001 1.73172 0
M  V30 591 N 65.0364 0.313813 1.54444 0
M  V30 592 C 65.9994 -0.54379 2.22656 0
M  V30 593 C 66.9994 -1.05124 1.21678 0
M  V30 594 O 68.1894 -0.945225 1.46325 0
M  V30 595 C 65.3214 -1.75427 2.92298 0
M  V30 596 H 66.5144 0.0523599 2.99854 0
M  V30 597 H 64.0674 0.0647834 1.56166 0
M  V30 598 H 64.8024 -2.38991 2.19211 0
M  V30 599 H 64.5874 -1.39791 3.66334 0
M  V30 600 H 66.0774 -2.36325 3.44297 0
M  V30 601 N 66.5145 -1.57545 0.0417849 0
M  V30 602 C 67.4775 -2.09885 -0.92093 0
M  V30 603 C 68.4775 -1.01648 -1.24596 0
M  V30 604 O 69.6675 -1.27759 -1.1842 0
M  V30 605 C 66.7995 -2.57527 -2.23367 0
M  V30 606 H 67.9925 -2.96236 -0.467382 0
M  V30 607 H 65.5455 -1.5493 -0.206467 0
M  V30 608 H 66.2805 -1.74542 -2.73323 0
M  V30 609 H 66.0655 -3.36613 -2.01083 0
M  V30 610 H 67.5555 -2.98201 -2.92346 0
M  V30 611 N 67.9926 0.231505 -1.5589 0
M  V30 612 C 69.4036 0.799327 -1.68724 0
M  V30 613 C 69.7546 1.85398 -0.642022 0
M  V30 614 O 68.8796 2.1539 0.208784 0
M  V30 615 C 69.4746 1.45664 -3.05888 0
M  V30 616 C 68.0336 1.97197 -3.20609 0
M  V30 617 C 67.1806 0.828552 -2.64632 0
M  V30 618 H 70.1316 0.00702616 -1.58698 0
M  V30 619 H 70.1526 2.32517 -3.01191 0
M  V30 620 H 69.6646 0.688808 -3.81939 0
M  V30 621 H 67.7656 2.76813 -2.4941 0
M  V30 622 H 67.8786 2.15878 -4.27707 0
M  V30 623 H 66.2426 1.23321 -2.22854 0
M  V30 624 H 67.0256 0.0735544 -3.43221 0
M  V30 625 N 69.4707 1.49531 0.497807 0
M  V30 626 C 70.7477 1.49682 1.25915 0
M  V30 627 C 71.1277 0.226339 2.09883 0
M  V30 628 O 70.4757 -0.791189 2.14365 0
M  V30 629 C 70.6857 2.77755 2.11313 0
M  V30 630 C 72.0337 3.27371 2.70395 0
M  V30 631 O 73.0577 2.78894 2.21578 0
M  V30 632 O 71.9167 4.11808 3.59272 0
M  V30 633 H 69.0107 0.599228 0.56996 0
M  V30 634 H 71.5567 1.61798 0.511816 0
M  V30 635 H 70.3287 3.61713 1.49264 0
M  V30 636 H 69.9517 2.68515 2.93233 0
M  V30 637 N 70.9488 -0.749086 1.3866 0
M  V30 638 C 72.1978 -1.50371 1.3443 0
M  V30 639 C 72.5108 -1.95503 -0.0616397 0
M  V30 640 O 73.7168 -2.70554 -0.226489 0
M  V30 641 C 72.1728 -2.71644 2.36088 0
M  V30 642 C 71.7808 -2.3352 3.82325 0
M  V30 643 C 73.5248 -3.49518 2.40909 0
M  V30 644 C 71.4318 -3.51431 4.75658 0
M  V30 645 H 70.3618 -0.564628 0.499712 0
M  V30 646 H 73.0128 -0.818449 1.64237 0
M  V30 647 H 71.3948 -3.42175 1.9933 0
M  V30 648 H 72.5688 -1.70627 4.28046 0
M  V30 649 H 70.8838 -1.6877 3.80665 0
M  V30 650 H 73.4808 -4.37197 3.07836 0
M  V30 651 H 73.8238 -3.90992 1.42937 0
M  V30 652 H 74.3568 -2.86005 2.76489 0
M  V30 653 H 71.0958 -3.15019 5.74842 0
M  V30 654 H 70.6158 -4.13352 4.34627 0
M  V30 655 H 72.2948 -4.17953 4.93887 0
M  V30 656 N 72.4269 -1.23603 -0.977757 0
M  V30 657 C 73.8379 -1.06424 -1.53398 0
M  V30 658 C 74.1889 0.367578 -1.92726 0
M  V30 659 O 73.3139 1.25465 -1.76316 0
M  V30 660 C 73.9089 -1.92568 -2.78753 0
M  V30 661 C 72.4679 -1.79642 -3.30765 0
M  V30 662 C 71.6149 -1.88111 -2.03739 0
M  V30 663 H 74.5659 -1.37227 -0.797152 0
M  V30 664 H 74.5869 -1.45203 -3.51705 0
M  V30 665 H 74.0989 -2.96771 -2.50098 0
M  V30 666 H 72.1999 -0.782325 -3.64294 0
M  V30 667 H 72.3129 -2.63174 -4.00345 0
M  V30 668 H 70.6769 -1.31723 -2.17994 0
M  V30 669 H 71.4599 -2.93875 -1.77461 0
M  V30 670 N 73.905 1.17692 -1.04816 0
M  V30 671 C 74.835 2.23777 -0.666791 0
M  V30 672 C 75.816 1.66796 0.33361 0
M  V30 673 O 77.001 1.93039 0.212042 0
M  V30 674 C 74.131 3.47281 -0.0367933 0
M  V30 675 C 73.085 4.17059 -0.961546 0
M  V30 676 C 72.411 5.34342 -0.195626 0
M  V30 677 C 73.711 4.69713 -2.28402 0
M  V30 678 H 75.405 2.55933 -1.55367 0
M  V30 679 H 72.951 1.23019 -0.748484 0
M  V30 680 H 74.904 4.20706 0.241775 0
M  V30 681 H 73.628 3.14381 0.885004 0
M  V30 682 H 72.287 3.45541 -1.22462 0
M  V30 683 H 71.935 4.97692 0.728816 0
M  V30 684 H 71.635 5.81966 -0.811775 0
M  V30 685 H 73.159 6.10553 0.0757473 0
M  V30 686 H 74.573 5.34794 -2.06563 0
M  V30 687 H 72.97 5.279 -2.8538 0
M  V30 688 H 74.04 3.86726 -2.92525 0
M  V30 689 N 75.3831 0.828654 1.34056 0
M  V30 690 C 76.3461 0.259927 2.27721 0
M  V30 691 C 77.3461 -0.565478 1.50529 0
M  V30 692 O 78.5361 -0.38075 1.69988 0
M  V30 693 C 75.6681 -0.634944 3.34935 0
M  V30 694 H 76.8611 1.0863 2.79534 0
M  V30 695 H 74.4141 0.600951 1.44285 0
M  V30 696 H 75.1491 -1.48416 2.88346 0
M  V30 697 H 74.9341 -0.0444999 3.92075 0
M  V30 698 H 76.4241 -1.02648 4.04788 0
M  V30 699 N 76.8612 -1.46375 0.584142 0
M  V30 700 C 77.8092 -2.32042 -0.161047 0
M  V30 701 C 78.8032 -1.44569 -0.882966 0
M  V30 702 O 80.0092 -1.61186 -0.801191 0
M  V30 703 H 76.3842 -0.748659 -0.0708033 0
M  V30 704 H 78.3552 -2.92704 0.580269 0
M  V30 705 C 77.1042 -3.27762 -1.1605 0
M  V30 706 H 76.4272 -3.95051 -0.614419 0
M  V30 707 H 77.8672 -3.90481 -1.65228 0
M  V30 708 C 76.3262 -2.53218 -2.22221 0
M  V30 709 O 76.8562 -2.29628 -3.29597 0
M  V30 710 N 75.0622 -2.13756 -1.96868 0
M  V30 711 H 74.6092 -2.33142 -1.09557 0
M  V30 712 H 74.5672 -1.642 -2.68115 0
M  V30 713 N 78.3393 -0.321999 -1.54275 0
M  V30 714 C 79.5853 0.281461 -2.00837 0
M  V30 715 C 79.9183 1.51909 -1.20985 0
M  V30 716 O 79.1933 1.923 -0.291733 0
M  V30 717 C 79.4763 0.617162 -3.54772 0
M  V30 718 C 79.3293 -0.631064 -4.45351 0
M  V30 719 C 80.6483 1.43542 -4.16033 0
M  V30 720 H 77.7673 0.100826 -0.730071 0
M  V30 721 H 80.4093 -0.438268 -1.84876 0
M  V30 722 H 78.5593 1.23034 -3.68504 0
M  V30 723 H 80.2313 -1.26934 -4.43492 0
M  V30 724 H 78.4743 -1.26025 -4.15091 0
M  V30 725 H 79.1453 -0.351735 -5.50878 0
M  V30 726 H 81.6213 0.917134 -4.05867 0
M  V30 727 H 80.4973 1.63907 -5.23856 0
M  V30 728 H 80.7583 2.43108 -3.69257 0
M  V30 729 N 79.8174 1.5752 -0.0501392 0
M  V30 730 C 80.7644 2.1147 0.924603 0
M  V30 731 C 81.7344 1.02182 1.30951 0
M  V30 732 O 82.9194 1.29723 1.39916 0
M  V30 733 C 80.0594 2.66337 2.19451 0
M  V30 734 C 79.1724 3.89708 1.86418 0
M  V30 735 C 78.3074 4.32893 3.07859 0
M  V30 736 C 77.3464 5.48967 2.70742 0
M  V30 737 N 76.4834 5.87211 3.84874 0
M  V30 738 H 81.3234 2.94465 0.457639 0
M  V30 739 H 78.8604 1.45531 0.214266 0
M  V30 740 H 80.8184 2.96247 2.93758 0
M  V30 741 H 79.4484 1.86141 2.63726 0
M  V30 742 H 78.5004 3.66396 1.02264 0
M  V30 743 H 79.8124 4.74074 1.55096 0
M  V30 744 H 78.9664 4.6435 3.90466 0
M  V30 745 H 77.7054 3.47336 3.42358 0
M  V30 746 H 76.7104 5.17183 1.86551 0
M  V30 747 H 77.9354 6.3624 2.37436 0
M  V30 748 H 75.8814 5.04607 4.19175 0
M  V30 749 H 75.7984 6.66266 3.57247 0
M  V30 750 H 77.0664 6.23282 4.68123 0
M  V30 751 N 81.2955 -0.223234 1.56011 0
M  V30 752 C 82.2585 -1.26014 1.9145 0
M  V30 753 C 83.2585 -1.3989 0.792937 0
M  V30 754 O 84.4485 -1.38184 1.0607 0
M  V30 755 C 81.5805 -2.63422 2.16383 0
M  V30 756 H 82.7735 -0.95796 2.84189 0
M  V30 757 H 80.3265 -0.463576 1.49267 0
M  V30 758 H 81.0615 -2.98741 1.2619 0
M  V30 759 H 80.8465 -2.54728 2.98088 0
M  V30 760 H 82.3365 -3.38249 2.44903 0
M  V30 761 N 82.7736 -1.49793 -0.48987 0
M  V30 762 C 83.7236 -1.63673 -1.5873 0
M  V30 763 C 84.7076 -0.491956 -1.53195 0
M  V30 764 O 85.8996 -0.745461 -1.60536 0
M  V30 765 C 83.0286 -1.71689 -2.97284 0
M  V30 766 C 82.1146 -2.91781 -3.07774 0
M  V30 767 N 82.5056 -4.15714 -2.88124 0
M  V30 768 C 80.8036 -2.89949 -3.38889 0
M  V30 769 C 81.5046 -4.965 -3.03088 0
M  V30 770 N 80.4806 -4.30083 -3.3246 0
M  V30 771 H 84.2826 -2.57204 -1.42208 0
M  V30 772 H 81.7966 -1.46719 -0.69623 0
M  V30 773 H 83.7936 -1.79732 -3.76168 0
M  V30 774 H 82.4536 -0.793024 -3.14867 0
M  V30 775 H 83.4646 -4.45515 -2.64077 0
M  V30 776 H 80.1416 -2.06987 -3.62578 0
M  V30 777 H 81.5316 -6.04991 -2.92294 0
M  V30 778 N 84.2517 0.741722 -1.39055 0
M  V30 779 C 85.1817 1.869 -1.39966 0
M  V30 780 C 86.1627 1.6804 -0.26392 0
M  V30 781 O 87.3477 1.88458 -0.468755 0
M  V30 782 C 84.4777 3.24572 -1.23574 0
M  V30 783 C 83.4317 3.58056 -2.34477 0
M  V30 784 C 82.7577 4.94593 -2.0318 0
M  V30 785 C 84.0577 3.61716 -3.76774 0
M  V30 786 H 85.7517 1.86395 -2.34302 0
M  V30 787 H 83.2977 0.895361 -1.1278 0
M  V30 788 H 85.2507 4.031 -1.22834 0
M  V30 789 H 83.9747 3.25587 -0.257045 0
M  V30 790 H 82.6337 2.81854 -2.34423 0
M  V30 791 H 82.2817 4.92181 -1.03765 0
M  V30 792 H 81.9817 5.17964 -2.77465 0
M  V30 793 H 83.5057 5.75486 -2.04079 0
M  V30 794 H 84.9197 4.30335 -3.78794 0
M  V30 795 H 83.3167 3.96603 -4.50362 0
M  V30 796 H 84.3867 2.61672 -4.08235 0
M  V30 797 N 85.7298 1.2412 0.971189 0
M  V30 798 C 86.9578 1.10575 1.74874 0
M  V30 799 C 87.3728 -0.342017 1.85676 0
M  V30 800 O 86.7298 -1.23617 1.34258 0
M  V30 801 C 86.7808 1.73579 3.171 0
M  V30 802 O 86.5018 3.12695 3.06844 0
M  V30 803 C 88.0028 1.65598 4.11208 0
M  V30 804 H 85.2228 0.386504 0.548503 0
M  V30 805 H 87.7668 1.64156 1.21955 0
M  V30 806 H 85.9218 1.24009 3.67016 0
M  V30 807 H 86.3358 3.43412 3.96445 0
M  V30 808 H 87.8098 2.1437 5.08674 0
M  V30 809 H 88.2868 0.616532 4.34851 0
M  V30 810 H 88.8928 2.14578 3.67201 0
M  V30 811 N 87.2079 -1.17134 1.05439 0
M  V30 812 C 88.1399 -2.2078 0.615539 0
M  V30 813 C 89.1529 -1.59584 -0.322001 0
M  V30 814 O 90.3419 -1.78133 -0.114344 0
M  V30 815 C 87.4419 -3.38691 -0.118938 0
M  V30 816 C 86.6149 -4.29454 0.829924 0
M  V30 817 C 85.6739 -5.26024 0.136258 0
M  V30 818 O 84.6999 -5.63952 0.77115 0
M  V30 819 N 85.9019 -5.69487 -1.1254 0
M  V30 820 H 88.6669 -2.59052 1.50705 0
M  V30 821 H 86.2279 -1.32058 0.936603 0
M  V30 822 H 88.2199 -4.00329 -0.593179 0
M  V30 823 H 86.7899 -2.98996 -0.91215 0
M  V30 824 H 86.0099 -3.65211 1.48373 0
M  V30 825 H 87.2979 -4.86984 1.47392 0
M  V30 826 H 86.6959 -5.4075 -1.6615 0
M  V30 827 H 85.2529 -6.33257 -1.54366 0
M  V30 828 N 88.686 -0.835752 -1.33615 0
M  V30 829 C 89.616 -0.281739 -2.31794 0
M  V30 830 C 90.597 0.608833 -1.58831 0
M  V30 831 O 91.782 0.533035 -1.86741 0
M  V30 832 C 88.912 0.546612 -3.42971 0
M  V30 833 C 87.866 -0.247904 -4.27281 0
M  V30 834 C 87.192 0.704001 -5.30045 0
M  V30 835 C 88.492 -1.46324 -5.01385 0
M  V30 836 H 90.186 -1.10206 -2.78379 0
M  V30 837 H 87.732 -0.531388 -1.33837 0
M  V30 838 H 89.685 0.944467 -4.1068 0
M  V30 839 H 88.409 1.40011 -2.95067 0
M  V30 840 H 87.068 -0.627281 -3.61194 0
M  V30 841 H 86.716 1.55381 -4.78399 0
M  V30 842 H 86.416 0.176524 -5.87335 0
M  V30 843 H 87.94 1.09944 -6.0062 0
M  V30 844 H 89.354 -1.13871 -5.61877 0
M  V30 845 H 87.751 -1.92728 -5.6831 0
M  V30 846 H 88.821 -2.23467 -4.30338 0
M  V30 847 N 90.1641 1.46063 -0.591896 0
M  V30 848 C 91.3891 2.07226 -0.0850314 0
M  V30 849 C 91.8141 1.43625 1.21463 0
M  V30 850 O 91.1721 0.523305 1.73583 0
M  V30 851 C 91.2201 3.60554 0.0576567 0
M  V30 852 O 90.3241 3.97128 1.11188 0
M  V30 853 H 89.6651 0.660615 -0.0669568 0
M  V30 854 H 92.1951 1.8756 -0.81745 0
M  V30 855 H 92.2051 4.07165 0.2609 0
M  V30 856 H 90.8801 4.06235 -0.891416 0
M  V30 857 H 89.4571 3.62213 0.886356 0
M  V30 858 N 91.6422 0.330177 1.54103 0
M  V30 859 C 92.8702 -0.272179 2.05102 0
M  V30 860 C 93.2852 -1.45267 1.20595 0
M  V30 861 O 92.6422 -1.8094 0.238144 0
M  V30 862 C 92.6932 -0.70023 3.54653 0
M  V30 863 O 92.4142 0.433301 4.35952 0
M  V30 864 C 93.9152 -1.3647 4.21771 0
M  V30 865 H 91.1352 -0.0549159 0.668749 0
M  V30 866 H 93.6792 0.478285 1.98828 0
M  V30 867 H 91.8342 -1.40066 3.61193 0
M  V30 868 H 92.2482 0.0947539 5.24414 0
M  V30 869 H 93.7222 -1.61509 5.27843 0
M  V30 870 H 94.1992 -2.31409 3.73292 0
M  V30 871 H 94.8052 -0.706675 4.19388 0
M  V30 872 N 93.1203 -1.57491 0.0584922 0
M  V30 873 C 94.3693 -1.92155 -0.613146 0
M  V30 874 C 94.6823 -0.939334 -1.71569 0
M  V30 875 O 95.8883 -1.17829 -2.44599 0
M  V30 876 C 94.3443 -3.41303 -1.14195 0
M  V30 877 C 93.9523 -4.47944 -0.0711265 0
M  V30 878 C 95.6963 -3.84988 -1.78841 0
M  V30 879 C 93.6033 -5.88212 -0.613225 0
M  V30 880 H 92.5333 -0.717162 -0.232796 0
M  V30 881 H 95.1843 -1.83049 0.12857 0
M  V30 882 H 93.5663 -3.45437 -1.93621 0
M  V30 883 H 94.7403 -4.55408 0.702836 0
M  V30 884 H 93.0553 -4.13644 0.478313 0
M  V30 885 H 95.6523 -4.87159 -2.20408 0
M  V30 886 H 95.9953 -3.21632 -2.64308 0
M  V30 887 H 96.5283 -3.83401 -1.06059 0
M  V30 888 H 93.2673 -6.55183 0.203978 0
M  V30 889 H 92.7873 -5.84294 -1.35501 0
M  V30 890 H 94.4663 -6.37687 -1.09383 0
M  V30 891 N 94.5984 0.214957 -1.56127 0
M  V30 892 C 95.5614 1.24997 -1.92116 0
M  V30 893 C 96.5614 1.39467 -0.800344 0
M  V30 894 O 97.7514 1.37619 -1.06802 0
M  V30 895 C 94.8834 2.62271 -2.17777 0
M  V30 896 H 96.0764 0.942875 -2.84693 0
M  V30 897 H 93.6294 0.455654 -1.49511 0
M  V30 898 H 94.3644 2.98068 -1.27773 0
M  V30 899 H 94.1494 2.53143 -2.99434 0
M  V30 900 H 95.6394 3.36946 -2.46693 0
M  V30 901 N 96.0765 1.50051 0.48192 0
M  V30 902 C 97.0395 1.67584 1.5636 0
M  V30 903 C 98.0395 0.546894 1.51214 0
M  V30 904 O 99.2295 0.813725 1.54026 0
M  V30 905 C 96.3615 1.691 2.96003 0
M  V30 906 H 97.5545 2.64078 1.42136 0
M  V30 907 H 95.1075 1.39369 0.707533 0
M  V30 908 H 95.8425 0.742589 3.15684 0
M  V30 909 H 95.6275 2.51105 3.01146 0
M  V30 910 H 97.1175 1.84656 3.74556 0
M  V30 911 N 97.5546 -0.734337 1.39446 0
M  V30 912 C 98.5026 -1.86971 1.38364 0
M  V30 913 C 99.4966 -1.67288 0.266687 0
M  V30 914 O 100.703 -1.74621 0.436755 0
M  V30 915 H 97.0776 -0.615474 0.432082 0
M  V30 916 H 99.0486 -1.85 2.34132 0
M  V30 917 C 97.7976 -3.2466 1.24465 0
M  V30 918 H 97.1206 -3.40402 2.09682 0
M  V30 919 H 98.5606 -4.04292 1.27764 0
M  V30 920 C 97.0196 -3.36867 -0.0468674 0
M  V30 921 O 97.5496 -3.88618 -1.01681 0
M  V30 922 N 95.7556 -2.90391 -0.110145 0
M  V30 923 H 95.3026 -2.48466 0.679868 0
M  V30 924 H 95.2606 -2.98939 -0.973799 0
M  V30 925 N 99.0327 -1.24633 -0.964593 0
M  V30 926 C 99.9807 -1.03917 -2.08096 0
M  V30 927 C 100.975 0.0268581 -1.69379 0
M  V30 928 O 102.181 -0.127952 -1.79545 0
M  V30 929 H 98.5557 -0.319044 -0.680966 0
M  V30 930 H 100.527 -1.98581 -2.22729 0
M  V30 931 C 99.2757 -0.663983 -3.41301 0
M  V30 932 H 98.5987 -1.47605 -3.71555 0
M  V30 933 H 100.039 -0.558663 -4.20303 0
M  V30 934 C 98.4977 0.629169 -3.30973 0
M  V30 935 O 99.0277 1.67404 -3.65156 0
M  V30 936 N 97.2337 0.611057 -2.84103 0
M  V30 937 H 96.7807 -0.239593 -2.56483 0
M  V30 938 H 96.7387 1.47647 -2.77575 0
M  V30 939 N 100.511 1.16574 -1.06058 0
M  V30 940 C 101.759 1.86677 -0.77434 0
M  V30 941 C 102.08 1.81959 0.701147 0
M  V30 942 O 101.35 1.2515 1.50713 0
M  V30 943 H 99.9298 0.691134 -0.283449 0
M  V30 944 H 102.592 1.41378 -1.34158 0
M  V30 945 H 101.688 2.92181 -1.09711 0
M  V30 946 N 101.989 0.842826 1.3317 0
M  V30 947 C 103.237 0.439577 1.97262 0
M  V30 948 C 103.558 -1.00548 1.67078 0
M  V30 949 O 102.828 -1.70098 0.971779 0
M  V30 950 H 101.408 0.159558 0.72976 0
M  V30 951 H 104.07 1.07665 1.62463 0
M  V30 952 H 103.166 0.574886 3.0676 0
M  V30 953 N 103.467 -1.45747 0.599634 0
M  V30 954 C 104.415 -2.322 -0.136426 0
M  V30 955 C 105.409 -1.45497 -0.867583 0
M  V30 956 O 106.615 -1.62027 -0.78405 0
M  V30 957 H 102.99 -0.749368 -0.0628588 0
M  V30 958 H 104.961 -2.92072 0.611281 0
M  V30 959 C 103.71 -3.28974 -1.12567 0
M  V30 960 H 103.033 -3.9568 -0.572484 0
M  V30 961 H 104.473 -3.92212 -1.61077 0
M  V30 962 C 102.932 -2.55561 -2.19523 0
M  V30 963 O 103.462 -2.33111 -3.27143 0
M  V30 964 N 101.668 -2.15832 -1.94589 0
M  V30 965 H 101.215 -2.3429 -1.07078 0
M  V30 966 H 101.173 -1.67034 -2.66359 0
M  V30 967 N 104.945 -0.338344 -1.53925 0
M  V30 968 C 106.361 0.0137736 -1.59594 0
M  V30 969 C 106.561 1.49186 -1.35447 0
M  V30 970 O 105.617 2.24987 -1.14616 0
M  V30 971 C 106.93 -0.41773 -2.97784 0
M  V30 972 C 108.478 -0.369633 -3.1081 0
M  V30 973 C 108.953 -0.776524 -4.51369 0
M  V30 974 N 110.444 -0.730506 -4.57403 0
M  V30 975 C 111.179 -1.01736 -5.64303 0
M  V30 976 N 110.675 -1.3721 -6.79077 0
M  V30 977 N 112.468 -0.941942 -5.54151 0
M  V30 978 H 104.619 -1.3012 -1.67876 0
M  V30 979 H 106.882 -0.530082 -0.78595 0
M  V30 980 H 106.588 -1.44811 -3.20504 0
M  V30 981 H 106.462 0.209729 -3.76616 0
M  V30 982 H 108.849 0.651568 -2.87817 0
M  V30 983 H 108.93 -1.03223 -2.34049 0
M  V30 984 H 108.574 -1.79571 -4.75096 0
M  V30 985 H 108.504 -0.0914649 -5.26521 0
M  V30 986 H 110.995 -0.468783 -3.74981 0
M  V30 987 H 111.308 -1.57597 -7.5656 0
M  V30 988 H 109.653 -1.4105 -6.80536 0
M  V30 989 H 112.844 -0.664184 -4.63364 0
M  V30 990 H 113.017 -1.16884 -6.37371 0
M  V30 991 N 106.423 1.57458 -0.0668435 0
M  V30 992 C 107.386 2.11323 0.887422 0
M  V30 993 C 108.386 1.03618 1.22964 0
M  V30 994 O 109.576 1.29626 1.16373 0
M  V30 995 C 106.708 2.61048 2.19242 0
M  V30 996 H 107.901 2.96942 0.420194 0
M  V30 997 H 105.454 1.55239 0.181793 0
M  V30 998 H 106.189 1.78868 2.70512 0
M  V30 999 H 105.974 3.39769 1.95702 0
M  V30 1000 H 107.464 3.02814 2.87565 0
M  V30 1001 N 107.901 -0.206675 1.56239 0
M  V30 1002 C 108.851 -1.26 1.90021 0
M  V30 1003 C 109.835 -1.41566 0.764721 0
M  V30 1004 O 111.027 -1.44131 1.02739 0
M  V30 1005 C 108.156 -2.6073 2.23326 0
M  V30 1006 C 107.242 -2.49005 3.43304 0
M  V30 1007 N 107.633 -2.06946 4.61527 0
M  V30 1008 C 105.931 -2.79927 3.47213 0
M  V30 1009 C 106.632 -2.06832 5.43687 0
M  V30 1010 N 105.608 -2.47892 4.83788 0
M  V30 1011 H 109.41 -0.925955 2.78932 0
M  V30 1012 H 106.924 -0.415172 1.57003 0
M  V30 1013 H 108.921 -3.36798 2.45708 0
M  V30 1014 H 107.581 -2.94968 1.35735 0
M  V30 1015 H 108.592 -1.77839 4.86409 0
M  V30 1016 H 105.269 -3.18438 2.70006 0
M  V30 1017 H 106.659 -1.76312 6.48354 0
M  V30 1018 N 109.379 -1.50304 -0.473955 0
M  V30 1019 C 110.627 -1.60832 -1.22382 0
M  V30 1020 C 110.948 -0.30939 -1.9253 0
M  V30 1021 O 110.218 0.67296 -1.83978 0
M  V30 1022 H 108.798 -0.592652 -0.454723 0
M  V30 1023 H 111.46 -1.87068 -0.546968 0
M  V30 1024 H 110.556 -2.41803 -1.97327 0
M  V30 1025 N 110.857 0.726932 -1.39834 0
M  V30 1026 C 112.273 1.03354 -1.21615 0
M  V30 1027 C 112.473 2.01327 -0.08338 0
M  V30 1028 O 111.529 2.46158 0.56238 0
M  V30 1029 C 112.842 1.58811 -2.55342 0
M  V30 1030 C 114.39 1.70851 -2.62257 0
M  V30 1031 C 114.865 2.29716 -3.96225 0
M  V30 1032 N 116.356 2.37116 -3.97907 0
M  V30 1033 C 117.091 2.83619 -4.98345 0
M  V30 1034 N 116.587 3.29958 -6.09179 0
M  V30 1035 N 118.38 2.82901 -4.8572 0
M  V30 1036 H 110.531 0.0773069 -2.12259 0
M  V30 1037 H 112.794 0.0969102 -0.943034 0
M  V30 1038 H 112.5 0.942855 -3.38826 0
M  V30 1039 H 112.374 2.57502 -2.75632 0
M  V30 1040 H 114.761 2.34497 -1.79152 0
M  V30 1041 H 114.842 0.707913 -2.45809 0
M  V30 1042 H 114.486 1.66696 -4.79765 0
M  V30 1043 H 114.416 3.30469 -4.09997 0
M  V30 1044 H 116.907 2.04374 -3.17868 0
M  V30 1045 H 117.22 3.63976 -6.8172 0
M  V30 1046 H 115.565 3.27946 -6.12761 0
M  V30 1047 H 118.756 2.46027 -3.98231 0
M  V30 1048 H 118.929 3.18827 -5.6414 0
M  V30 1049 N 112.336 1.25143 0.95797 0
M  V30 1050 C 113.747 1.08851 1.51685 0
M  V30 1051 C 114.098 -0.33687 1.93286 0
M  V30 1052 O 113.223 -1.22644 1.7829 0
M  V30 1053 C 113.818 1.96978 2.75654 0
M  V30 1054 C 112.377 1.84881 3.27866 0
M  V30 1055 C 111.524 1.91329 2.0072 0
M  V30 1056 H 114.475 1.38478 0.77522 0
M  V30 1057 H 114.496 1.5078 3.4935 0
M  V30 1058 H 114.008 3.00712 2.45345 0
M  V30 1059 H 112.109 0.840182 3.63004 0
M  V30 1060 H 112.222 2.6951 3.96107 0
M  V30 1061 H 110.586 1.35174 2.15871 0
M  V30 1062 H 111.369 2.96661 1.72764 0
M  V30 1063 N 113.814 -1.1601 1.06675 0
M  V30 1064 C 115.062 -1.86264 0.784229 0
M  V30 1065 C 115.383 -1.82328 -0.691488 0
M  V30 1066 O 114.653 -1.25947 -1.50047 0
M  V30 1067 H 113.233 -0.689621 0.28711 0
M  V30 1068 H 115.895 -1.40664 1.34906 0
M  V30 1069 H 114.991 -2.91595 1.11259 0
M  V30 1070 N 115.292 -0.849877 -1.32721 0
M  V30 1071 C 116.522 -0.46408 -2.0132 0
M  V30 1072 C 116.93 0.94246 -1.64056 0
M  V30 1073 O 116.273 1.6257 -0.855379 0
M  V30 1074 C 116.335 -0.517887 -3.5575 0
M  V30 1075 C 115.999 -1.88248 -4.16427 0
M  V30 1076 C 116.996 -2.84726 -4.35002 0
M  V30 1077 C 114.681 -2.17832 -4.52609 0
M  V30 1078 C 116.675 -4.08945 -4.8892 0
M  V30 1079 C 114.362 -3.42304 -5.06232 0
M  V30 1080 C 115.36 -4.37677 -5.24335 0
M  V30 1081 O 115.048 -5.59946 -5.76815 0
M  V30 1082 H 114.78 -0.181327 -0.651227 0
M  V30 1083 H 117.334 -1.14713 -1.70382 0
M  V30 1084 H 115.564 0.221997 -3.86062 0
M  V30 1085 H 117.253 -0.148366 -4.05629 0
M  V30 1086 H 118.019 -2.63174 -4.07388 0
M  V30 1087 H 113.898 -1.44385 -4.37806 0
M  V30 1088 H 117.442 -4.83396 -5.02966 0
M  V30 1089 H 113.339 -3.63709 -5.33278 0
M  V30 1090 H 114.107 -5.61838 -5.95214 0
M  V30 1091 N 116.77 1.45427 -0.607355 0
M  V30 1092 C 117.717 2.3053 0.111625 0
M  V30 1093 C 118.687 1.4209 0.860216 0
M  V30 1094 O 119.872 1.71019 0.845998 0
M  V30 1095 C 117.012 3.26992 1.10319 0
M  V30 1096 C 116.125 4.30535 0.355493 0
M  V30 1097 C 115.26 5.14105 1.33676 0
M  V30 1098 C 114.299 6.09376 0.576862 0
M  V30 1099 N 113.436 6.85727 1.5074 0
M  V30 1100 H 118.276 2.91477 -0.620093 0
M  V30 1101 H 115.813 1.43631 -0.317594 0
M  V30 1102 H 117.771 3.81385 1.6912 0
M  V30 1103 H 116.401 2.67799 1.80232 0
M  V30 1104 H 115.453 3.78805 -0.348023 0
M  V30 1105 H 116.765 4.98235 -0.237423 0
M  V30 1106 H 115.919 5.72897 1.99684 0
M  V30 1107 H 114.658 4.46423 1.9636 0
M  V30 1108 H 113.663 5.49715 -0.0968519 0
M  V30 1109 H 114.888 6.79085 -0.0449341 0
M  V30 1110 H 112.834 6.20735 2.12189 0
M  V30 1111 H 112.751 7.49778 0.967913 0
M  V30 1112 H 114.019 7.4906 2.15706 0
M  V30 1113 N 118.248 0.346503 1.53744 0
M  V30 1114 C 119.211 -0.496439 2.23759 0
M  V30 1115 C 120.211 -1.0252 1.2388 0
M  V30 1116 O 121.401 -0.913974 1.48297 0
M  V30 1117 C 118.533 -1.69187 2.95954 0
M  V30 1118 H 119.726 0.115952 2.99676 0
M  V30 1119 H 117.279 0.0978939 1.55993 0
M  V30 1120 H 118.014 -2.34288 2.24231 0
M  V30 1121 H 117.799 -1.31989 3.69217 0
M  V30 1122 H 119.289 -2.28969 3.49232 0
M  V30 1123 N 119.726 -1.57421 0.075193 0
M  V30 1124 C 120.951 -1.98364 -0.605515 0
M  V30 1125 C 121.376 -0.953383 -1.62149 0
M  V30 1126 O 120.734 0.0806053 -1.81121 0
M  V30 1127 C 120.782 -3.38332 -1.24756 0
M  V30 1128 O 119.886 -3.37959 -2.36342 0
M  V30 1129 H 119.227 -0.645553 -0.155428 0
M  V30 1130 H 121.757 -2.04044 0.150714 0
M  V30 1131 H 121.767 -3.75591 -1.5936 0
M  V30 1132 H 120.442 -4.12846 -0.503129 0
M  V30 1133 H 119.019 -3.12474 -2.03506 0
M  V30 1134 N 121.204 0.198386 -1.56346 0
M  V30 1135 C 122.45 0.920648 -1.80698 0
M  V30 1136 C 122.783 1.83045 -0.648697 0
M  V30 1137 O 122.058 1.91308 0.350925 0
M  V30 1138 C 122.341 1.73971 -3.15287 0
M  V30 1139 C 122.194 0.85485 -4.41602 0
M  V30 1140 C 123.513 2.71296 -3.46535 0
M  V30 1141 H 120.632 0.333261 -0.657348 0
M  V30 1142 H 123.274 0.188198 -1.89066 0
M  V30 1143 H 121.424 2.36416 -3.08285 0
M  V30 1144 H 123.096 0.245362 -4.60647 0
M  V30 1145 H 121.339 0.161398 -4.335 0
M  V30 1146 H 122.01 1.46286 -5.32264 0
M  V30 1147 H 124.486 2.18983 -3.53816 0
M  V30 1148 H 123.362 3.2569 -4.41834 0
M  V30 1149 H 123.623 3.5018 -2.69864 0
M  V30 1150 N 122.682 1.50554 0.465978 0
M  V30 1151 C 123.959 1.5232 1.22712 0
M  V30 1152 C 124.339 0.270807 2.09356 0
M  V30 1153 O 123.687 -0.745541 2.15995 0
M  V30 1154 C 123.897 2.82175 2.05374 0
M  V30 1155 C 125.245 3.33033 2.6339 0
M  V30 1156 O 126.269 2.83531 2.15612 0
M  V30 1157 O 125.128 4.19336 3.50456 0
M  V30 1158 H 122.222 0.611183 0.557122 0
M  V30 1159 H 124.768 1.62847 0.477381 0
M  V30 1160 H 123.54 3.64797 1.41558 0
M  V30 1161 H 123.163 2.74675 2.87471 0
M  V30 1162 N 124.16 -0.719506 1.40217 0
M  V30 1163 C 125.39 -1.50646 1.41384 0
M  V30 1164 C 125.798 -1.89197 0.0107743 0
M  V30 1165 O 125.141 -1.55709 -0.974708 0
M  V30 1166 C 125.203 -2.81405 2.23722 0
M  V30 1167 C 124.867 -2.65199 3.72181 0
M  V30 1168 C 125.864 -2.32717 4.64907 0
M  V30 1169 C 123.549 -2.81586 4.1595 0
M  V30 1170 C 125.543 -2.16827 5.99387 0
M  V30 1171 C 123.23 -2.65313 5.50502 0
M  V30 1172 C 124.228 -2.32981 6.42035 0
M  V30 1173 O 123.916 -2.16827 7.74107 0
M  V30 1174 H 123.648 -0.471606 0.484318 0
M  V30 1175 H 126.202 -0.895456 1.84853 0
M  V30 1176 H 124.432 -3.44823 1.75026 0
M  V30 1177 H 126.121 -3.43102 2.16878 0
M  V30 1178 H 126.887 -2.19694 4.32388 0
M  V30 1179 H 122.766 -3.0574 3.45027 0
M  V30 1180 H 126.31 -1.91513 6.70797 0
M  V30 1181 H 122.207 -2.7792 5.82607 0
M  V30 1182 H 122.975 -2.31778 7.84998 0
M  V30 1183 N 125.638 -1.25649 -0.95132 0
M  V30 1184 C 126.884 -1.10757 -1.69884 0
M  V30 1185 C 127.217 0.350061 -1.91019 0
M  V30 1186 O 126.492 1.25783 -1.48354 0
M  V30 1187 C 126.775 -1.86606 -3.07978 0
M  V30 1188 C 126.628 -3.40217 -2.94232 0
M  V30 1189 C 127.947 -1.65182 -4.07925 0
M  V30 1190 H 125.066 -0.40374 -0.616574 0
M  V30 1191 H 127.708 -1.54521 -1.10558 0
M  V30 1192 H 125.858 -1.49409 -3.58621 0
M  V30 1193 H 127.53 -3.87108 -2.50889 0
M  V30 1194 H 125.773 -3.67759 -2.30078 0
M  V30 1195 H 126.444 -3.88505 -3.92133 0
M  V30 1196 H 128.92 -1.9757 -3.66204 0
M  V30 1197 H 127.796 -2.20683 -5.02583 0
M  V30 1198 H 128.057 -0.593933 -4.38092 0
M  V30 1199 N 127.117 1.15442 -1.07289 0
M  V30 1200 C 128.064 2.20161 -0.692653 0
M  V30 1201 C 129.034 1.63073 0.31564 0
M  V30 1202 O 130.219 1.89725 0.202235 0
M  V30 1203 C 127.359 3.44967 -0.0959509 0
M  V30 1204 C 126.472 4.16256 -1.15564 0
M  V30 1205 C 125.607 5.28609 -0.524011 0
M  V30 1206 C 124.646 5.91715 -1.56653 0
M  V30 1207 N 123.783 6.9554 -0.957531 0
M  V30 1208 H 128.623 2.52037 -1.59002 0
M  V30 1209 H 126.16 1.2378 -0.794798 0
M  V30 1210 H 128.118 4.16341 0.267628 0
M  V30 1211 H 126.748 3.1361 0.764772 0
M  V30 1212 H 125.8 3.43385 -1.6368 0
M  V30 1213 H 127.112 4.59268 -1.94613 0
M  V30 1214 H 126.266 6.06604 -0.108032 0
M  V30 1215 H 125.005 4.86787 0.29825 0
M  V30 1216 H 124.01 5.12433 -1.9923 0
M  V30 1217 H 125.235 6.35614 -2.39107 0
M  V30 1218 H 123.181 6.55814 -0.156162 0
M  V30 1219 H 123.098 7.36977 -1.68526 0
M  V30 1220 H 124.366 7.77435 -0.567032 0
M  V30 1221 N 128.595 0.856903 1.32268 0
M  V30 1222 C 129.558 0.308171 2.27119 0
M  V30 1223 C 130.558 -0.533421 1.51695 0
M  V30 1224 O 131.748 -0.344607 1.70757 0
M  V30 1225 C 128.88 -0.563757 3.36206 0
M  V30 1226 H 130.073 1.14535 2.77167 0
M  V30 1227 H 127.626 0.631421 1.42978 0
M  V30 1228 H 128.361 -1.42266 2.91429 0
M  V30 1229 H 128.146 0.0386749 3.92081 0
M  V30 1230 H 129.636 -0.940386 4.06874 0
M  V30 1231 N 130.073 -1.45103 0.615059 0
M  V30 1232 C 131.02 -2.30586 -0.0993978 0
M  V30 1233 C 131.99 -1.42544 -0.852669 0
M  V30 1234 O 133.175 -1.71465 -0.836917 0
M  V30 1235 C 130.315 -3.27572 -1.08583 0
M  V30 1236 C 129.428 -4.30717 -0.332656 0
M  V30 1237 C 128.563 -5.14807 -1.30947 0
M  V30 1238 C 127.602 -6.09673 -0.544538 0
M  V30 1239 N 126.739 -6.86517 -1.47101 0
M  V30 1240 H 131.579 -2.91144 0.635542 0
M  V30 1241 H 129.116 -1.4346 0.325206 0
M  V30 1242 H 131.074 -3.82276 -1.67095 0
M  V30 1243 H 129.704 -2.68751 -1.78809 0
M  V30 1244 H 128.756 -3.78615 0.368107 0
M  V30 1245 H 130.068 -4.98102 0.263842 0
M  V30 1246 H 129.222 -5.73948 -1.96643 0
M  V30 1247 H 127.961 -4.47458 -1.9399 0
M  V30 1248 H 126.966 -5.49656 0.126003 0
M  V30 1249 H 128.191 -6.79052 0.080947 0
M  V30 1250 H 126.137 -6.21851 -2.08895 0
M  V30 1251 H 126.054 -7.50281 -0.928137 0
M  V30 1252 H 127.322 -7.50194 -2.11731 0
M  V30 1253 N 131.551 -0.354651 -1.53558 0
M  V30 1254 C 132.481 0.489091 -2.2832 0
M  V30 1255 C 133.462 1.09324 -1.30316 0
M  V30 1256 O 134.647 1.11255 -1.59173 0
M  V30 1257 C 131.777 1.63456 -3.0643 0
M  V30 1258 C 130.731 1.1582 -4.12031 0
M  V30 1259 C 130.057 2.39305 -4.7816 0
M  V30 1260 C 131.357 0.250731 -5.21698 0
M  V30 1261 H 133.051 -0.134614 -2.99097 0
M  V30 1262 H 130.597 -0.0661826 -1.43848 0
M  V30 1263 H 132.55 2.23136 -3.57475 0
M  V30 1264 H 131.274 2.28533 -2.33325 0
M  V30 1265 H 129.933 0.584146 -3.61916 0
M  V30 1266 H 129.581 3.02814 -4.01637 0
M  V30 1267 H 129.281 2.08109 -5.49513 0
M  V30 1268 H 130.805 2.99691 -5.31994 0
M  V30 1269 H 132.219 0.754695 -5.68311 0
M  V30 1270 H 130.616 0.0301468 -6.00092 0
M  V30 1271 H 131.686 -0.710125 -4.79672 0
M  V30 1272 N 133.029 1.57378 -0.0835403 0
M  V30 1273 C 134.306 1.85363 0.624507 0
M  V30 1274 C 134.686 0.978239 1.87066 0
M  V30 1275 O 134.034 0.0475908 2.2845 0
M  V30 1276 C 134.244 3.35795 0.950947 0
M  V30 1277 C 135.592 4.03581 1.31939 0
M  V30 1278 O 136.616 3.40609 1.04232 0
M  V30 1279 O 135.475 5.14672 1.83779 0
M  V30 1280 H 132.569 0.766162 0.311329 0
M  V30 1281 H 135.115 1.69307 -0.115362 0
M  V30 1282 H 133.887 3.91244 0.0663899 0
M  V30 1283 H 133.51 3.57154 1.74719 0
M  V30 1284 N 134.507 -0.190092 1.56449 0
M  V30 1285 C 135.47 -1.21925 1.9408 0
M  V30 1286 C 136.47 -1.38176 0.822431 0
M  V30 1287 O 137.66 -1.35903 1.08977 0
M  V30 1288 C 134.792 -2.58773 2.21922 0
M  V30 1289 H 135.985 -0.897464 2.86157 0
M  V30 1290 H 133.538 -0.43181 1.50217 0
M  V30 1291 H 134.273 -2.95998 1.32499 0
M  V30 1292 H 134.058 -2.48348 3.03424 0
M  V30 1293 H 135.548 -3.32978 2.52022 0
M  V30 1294 N 135.985 -1.50799 -0.457987 0
M  V30 1295 C 136.948 -1.7005 -1.53674 0
M  V30 1296 C 137.948 -0.570881 -1.50325 0
M  V30 1297 O 139.138 -0.838126 -1.52712 0
M  V30 1298 C 136.27 -1.73788 -2.93276 0
M  V30 1299 H 137.463 -2.66306 -1.37917 0
M  V30 1300 H 135.016 -1.40477 -0.685271 0
M  V30 1301 H 135.751 -0.792717 -3.14462 0
M  V30 1302 H 135.536 -2.55864 -2.97113 0
M  V30 1303 H 137.026 -1.90591 -3.71571 0
M  V30 1304 N 137.463 0.71206 -1.40597 0
M  V30 1305 C 138.711 1.46907 -1.38791 0
M  V30 1306 C 139.032 1.94998 0.00780391 0
M  V30 1307 O 138.302 1.70587 0.963174 0
M  V30 1308 H 136.882 0.545043 -0.51082 0
M  V30 1309 H 139.544 0.843882 -1.75683 0
M  V30 1310 H 138.64 2.34021 -2.06496 0
M  V30 1311 N 138.941 1.26152 0.944643 0
M  V30 1312 C 140.171 1.14094 1.72239 0
M  V30 1313 C 140.579 -0.306931 1.86694 0
M  V30 1314 O 139.922 -1.22222 1.3714 0
M  V30 1315 C 139.984 1.73316 3.14963 0
M  V30 1316 C 139.648 3.2239 3.23904 0
M  V30 1317 C 140.645 4.19252 3.07447 0
M  V30 1318 C 138.33 3.62788 3.47405 0
M  V30 1319 C 140.324 5.54491 3.14353 0
M  V30 1320 C 138.011 4.98162 3.53947 0
M  V30 1321 C 139.009 5.93823 3.37436 0
M  V30 1322 O 138.697 7.26732 3.43679 0
M  V30 1323 H 138.429 0.398292 0.546205 0
M  V30 1324 H 140.983 1.67201 1.19301 0
M  V30 1325 H 139.213 1.14667 3.69308 0
M  V30 1326 H 140.902 1.56214 3.74636 0
M  V30 1327 H 141.668 3.8938 2.8915 0
M  V30 1328 H 137.547 2.88816 3.59313 0
M  V30 1329 H 141.091 6.29137 3.01384 0
M  V30 1330 H 136.988 5.27695 3.71763 0
M  V30 1331 H 137.756 7.3496 3.60245 0
M  V30 1332 N 140.419 -1.14872 1.07899 0
M  V30 1333 C 141.647 -1.89661 0.82683 0
M  V30 1334 C 142.062 -1.78312 -0.620519 0
M  V30 1335 O 141.419 -1.13888 -1.42604 0
M  V30 1336 C 141.47 -3.39817 1.23316 0
M  V30 1337 O 141.191 -3.50845 2.62372 0
M  V30 1338 C 142.692 -4.31615 1.0111 0
M  V30 1339 H 139.912 -0.60092 0.298557 0
M  V30 1340 H 142.456 -1.4551 1.43691 0
M  V30 1341 H 140.611 -3.8161 0.667286 0
M  V30 1342 H 141.025 -4.44076 2.79101 0
M  V30 1343 H 142.499 -5.35367 1.34486 0
M  V30 1344 H 142.976 -4.39169 -0.0522168 0
M  V30 1345 H 143.582 -3.95572 1.56215 0
M  V30 1346 N 141.898 -0.863906 -1.31812 0
M  V30 1347 C 143.126 -0.486111 -2.01108 0
M  V30 1348 C 143.541 0.919755 -1.64882 0
M  V30 1349 O 142.898 1.60162 -0.874893 0
M  V30 1350 C 142.949 -0.626435 -3.56031 0
M  V30 1351 O 142.67 -1.97693 -3.90959 0
M  V30 1352 C 144.171 -0.248857 -4.42601 0
M  V30 1353 H 141.391 -0.190052 -0.643523 0
M  V30 1354 H 143.935 -1.1634 -1.68182 0
M  V30 1355 H 142.09 0.00322717 -3.874 0
M  V30 1356 H 142.504 -1.98034 -4.85678 0
M  V30 1357 H 143.978 -0.398016 -5.50563 0
M  V30 1358 H 144.455 0.811489 -4.31638 0
M  V30 1359 H 145.061 -0.853971 -4.16638 0
M  V30 1360 N 143.376 1.44774 -0.622745 0
M  V30 1361 C 144.604 2.06487 -0.130722 0
M  V30 1362 C 145.019 1.46476 1.19123 0
M  V30 1363 O 144.376 0.584502 1.72887 0
M  V30 1364 C 144.427 3.615 -0.000807207 0
M  V30 1365 O 144.148 4.19274 -1.27048 0
M  V30 1366 C 145.649 4.40229 0.520898 0
M  V30 1367 H 142.869 0.666704 -0.0758106 0
M  V30 1368 H 145.413 1.85779 -0.854774 0
M  V30 1369 H 143.568 3.81498 0.673643 0
M  V30 1370 H 143.982 5.12622 -1.1099 0
M  V30 1371 H 145.456 5.49144 0.560838 0
M  V30 1372 H 145.933 4.1108 1.54627 0
M  V30 1373 H 146.539 4.25131 -0.120018 0
M  V30 1374 N 144.854 0.36279 1.53368 0
M  V30 1375 C 145.784 -0.476976 2.28576 0
M  V30 1376 C 146.765 -1.08631 1.30894 0
M  V30 1377 O 147.95 -1.10409 1.59761 0
M  V30 1378 C 145.08 -1.61828 3.07293 0
M  V30 1379 C 144.034 -1.13633 4.1264 0
M  V30 1380 C 143.36 -2.36766 4.79423 0
M  V30 1381 C 144.66 -0.223061 5.21823 0
M  V30 1382 H 146.354 0.150474 2.99022 0
M  V30 1383 H 143.9 0.0738103 1.43811 0
M  V30 1384 H 145.853 -2.21237 3.58653 0
M  V30 1385 H 144.577 -2.27292 2.34533 0
M  V30 1386 H 143.236 -0.564945 3.62221 0
M  V30 1387 H 142.884 -3.0068 4.03238 0
M  V30 1388 H 142.584 -2.05192 5.50609 0
M  V30 1389 H 144.108 -2.96865 5.33576 0
M  V30 1390 H 145.522 -0.724545 5.68703 0
M  V30 1391 H 143.919 0.001678 6.001 0
M  V30 1392 H 144.989 0.735553 4.79289 0
M  V30 1393 N 146.332 -1.57332 0.0918853 0
M  V30 1394 C 147.264 -2.10869 -0.898168 0
M  V30 1395 C 148.277 -1.04521 -1.24817 0
M  V30 1396 O 149.466 -1.31977 -1.20184 0
M  V30 1397 C 146.566 -2.57083 -2.2082 0
M  V30 1398 C 145.739 -3.87229 -2.03402 0
M  V30 1399 C 144.798 -4.19324 -3.17889 0
M  V30 1400 O 143.824 -4.88598 -2.91994 0
M  V30 1401 N 145.026 -3.74471 -4.43567 0
M  V30 1402 H 147.791 -2.96439 -0.440943 0
M  V30 1403 H 145.352 -1.61631 -0.0933064 0
M  V30 1404 H 147.344 -2.75602 -2.96354 0
M  V30 1405 H 145.914 -1.76541 -2.57977 0
M  V30 1406 H 145.134 -3.7789 -1.12218 0
M  V30 1407 H 146.422 -4.72379 -1.89038 0
M  V30 1408 H 145.82 -3.18546 -4.67488 0
M  V30 1409 H 144.377 -3.98151 -5.16061 0
M  V30 1410 N 147.81 0.181792 -1.56548 0
M  V30 1411 C 148.742 1.24956 -1.92142 0
M  V30 1412 C 149.755 1.41022 -0.813422 0
M  V30 1413 O 150.944 1.41212 -1.09186 0
M  V30 1414 C 148.044 2.61981 -2.14987 0
M  V30 1415 C 147.217 2.6735 -3.46183 0
M  V30 1416 C 146.276 3.85664 -3.5798 0
M  V30 1417 O 145.302 3.72148 -4.30691 0
M  V30 1418 N 146.504 5.01683 -2.92053 0
M  V30 1419 H 149.269 0.947329 -2.84334 0
M  V30 1420 H 146.83 0.371629 -1.57577 0
M  V30 1421 H 148.822 3.3958 -2.20154 0
M  V30 1422 H 147.392 2.84637 -1.2923 0
M  V30 1423 H 146.612 1.75925 -3.52766 0
M  V30 1424 H 147.9 2.67939 -4.32534 0
M  V30 1425 H 147.298 5.15564 -2.32832 0
M  V30 1426 H 145.855 5.77181 -3.0283 0
M  V30 1427 N 149.288 1.51039 0.449983 0
M  V30 1428 C 150.535 1.63081 1.20045 0
M  V30 1429 C 150.863 0.341024 1.91487 0
M  V30 1430 O 150.118 -0.674276 1.83717 0
M  V30 1431 C 150.417 2.77556 2.25161 0
M  V30 1432 C 150.083 4.17289 1.70823 0
M  V30 1433 C 148.745 4.55305 1.55725 0
M  V30 1434 C 151.097 5.04536 1.3074 0
M  V30 1435 C 148.425 5.78287 0.989999 0
M  V30 1436 C 150.777 6.28085 0.754482 0
M  V30 1437 C 149.441 6.64885 0.590308 0
M  V30 1438 H 148.711 0.596755 0.439277 0
M  V30 1439 H 151.358 1.85037 0.49333 0
M  V30 1440 H 149.663 2.49771 3.01863 0
M  V30 1441 H 151.36 2.84073 2.83026 0
M  V30 1442 H 147.95 3.8731 1.83546 0
M  V30 1443 H 152.134 4.75782 1.41229 0
M  V30 1444 H 147.39 6.05456 0.850451 0
M  V30 1445 H 151.564 6.95038 0.435324 0
M  V30 1446 H 149.191 7.60055 0.14862 0
M  V30 1447 N 150.766 -0.704594 1.40972 0
M  V30 1448 C 151.994 -1.49354 1.43182 0
M  V30 1449 C 152.409 -1.88768 0.0345508 0
M  V30 1450 O 151.766 -1.56184 -0.944081 0
M  V30 1451 C 151.817 -2.76187 2.33244 0
M  V30 1452 O 151.538 -2.38436 3.67532 0
M  V30 1453 C 153.039 -3.7 2.44162 0
M  V30 1454 H 150.259 -0.460559 0.487982 0
M  V30 1455 H 152.803 -0.868261 1.85153 0
M  V30 1456 H 150.958 -3.34974 1.94606 0
M  V30 1457 H 151.372 -3.20126 4.15475 0
M  V30 1458 H 152.846 -4.55803 3.11364 0
M  V30 1459 H 153.323 -4.13867 1.47006 0
M  V30 1460 H 153.929 -3.17121 2.83398 0
M  V30 1461 N 152.244 -1.26651 -0.937939 0
M  V30 1462 C 153.469 -1.15279 -1.72411 0
M  V30 1463 C 153.894 0.287866 -1.85884 0
M  V30 1464 O 153.252 1.20855 -1.35143 0
M  V30 1465 C 153.3 -1.83028 -3.10698 0
M  V30 1466 O 152.404 -1.12128 -3.96864 0
M  V30 1467 H 151.745 -0.401504 -0.528858 0
M  V30 1468 H 154.275 -1.67531 -1.1745 0
M  V30 1469 H 154.285 -1.89981 -3.6107 0
M  V30 1470 H 152.96 -2.87833 -3.00208 0
M  V30 1471 H 151.537 -1.13173 -3.55312 0
M  V30 1472 N 153.722 1.14298 -1.08507 0
M  V30 1473 C 154.97 1.84993 -0.813763 0
M  V30 1474 C 155.291 1.83405 0.662393 0
M  V30 1475 O 154.561 1.28319 1.48024 0
M  V30 1476 H 153.141 0.684966 -0.298045 0
M  V30 1477 H 155.803 1.385 -1.37126 0
M  V30 1478 H 154.899 2.89788 -1.15884 0
M  V30 1479 N 155.201 0.870884 1.31352 0
M  V30 1480 C 156.449 0.48132 1.96285 0
M  V30 1481 C 156.77 -0.969813 1.69173 0
M  V30 1482 O 156.04 -1.67998 1.00764 0
M  V30 1483 H 154.62 0.175002 0.726212 0
M  V30 1484 H 157.282 1.11087 1.60143 0
M  V30 1485 H 156.378 0.639825 3.05471 0
M  V30 1486 N 156.679 -1.44442 0.630414 0
M  V30 1487 C 157.642 -2.29107 -0.0652523 0
M  V30 1488 C 158.642 -1.41002 -0.772995 0
M  V30 1489 O 159.832 -1.62881 -0.617692 0
M  V30 1490 C 156.964 -3.22564 -1.10296 0
M  V30 1491 H 158.157 -2.92103 0.679401 0
M  V30 1492 H 155.71 -1.51343 0.390517 0
M  V30 1493 H 156.445 -2.64416 -1.87762 0
M  V30 1494 H 156.23 -3.87491 -0.59941 0
M  V30 1495 H 157.72 -3.86167 -1.5895 0
M  V30 1496 N 158.157 -0.370918 -1.53173 0
M  V30 1497 C 159.385 0.217704 -2.05751 0
M  V30 1498 C 159.8 1.42018 -1.24404 0
M  V30 1499 O 159.157 1.80245 -0.286033 0
M  V30 1500 C 159.208 0.605954 -3.56385 0
M  V30 1501 O 158.929 -0.548734 -4.3465 0
M  V30 1502 C 160.43 1.2524 -4.25241 0
M  V30 1503 H 157.65 0.0371659 -0.66997 0
M  V30 1504 H 160.194 -0.530832 -1.9749 0
M  V30 1505 H 158.349 1.3044 -3.6478 0
M  V30 1506 H 158.763 -0.23376 -5.23979 0
M  V30 1507 H 160.237 1.47458 -5.3194 0
M  V30 1508 H 160.714 2.2143 -3.79296 0
M  V30 1509 H 161.32 0.595233 -4.21114 0
M  V30 1510 N 159.635 1.57281 -0.100228 0
M  V30 1511 C 160.883 1.94153 0.561157 0
M  V30 1512 C 161.204 0.983157 1.68401 0
M  V30 1513 O 160.474 0.0361132 1.95867 0
M  V30 1514 H 159.054 0.716791 0.210283 0
M  V30 1515 H 161.716 1.94202 -0.164765 0
M  V30 1516 H 160.812 2.96709 0.968008 0
M  V30 1517 N 161.113 -0.173488 1.56642 0
M  V30 1518 C 162.343 -0.904781 1.85734 0
M  V30 1519 C 162.751 -1.76431 0.68328 0
M  V30 1520 O 162.094 -1.802 -0.356865 0
M  V30 1521 C 162.156 -1.83382 3.09211 0
M  V30 1522 C 161.82 -1.15411 4.42187 0
M  V30 1523 C 162.817 -0.520609 5.17287 0
M  V30 1524 C 160.502 -1.15151 4.88923 0
M  V30 1525 C 162.496 0.106412 6.37311 0
M  V30 1526 C 160.183 -0.520664 6.08878 0
M  V30 1527 C 161.181 0.107196 6.82916 0
M  V30 1528 O 160.869 0.728102 8.00596 0
M  V30 1529 H 160.601 -0.268408 0.62043 0
M  V30 1530 H 163.155 -0.179096 2.04618 0
M  V30 1531 H 161.385 -2.59976 2.86268 0
M  V30 1532 H 163.074 -2.43476 3.24768 0
M  V30 1533 H 163.84 -0.514606 4.82262 0
M  V30 1534 H 159.719 -1.62961 4.31236 0
M  V30 1535 H 163.263 0.597081 6.9504 0
M  V30 1536 H 159.16 -0.524242 6.43368 0
M  V30 1537 H 159.928 0.627138 8.16094 0
M  V30 1538 N 162.591 -1.51276 -0.441967 0
M  V30 1539 C 163.539 -1.72823 -1.55676 0
M  V30 1540 C 164.533 -0.59445 -1.58627 0
M  V30 1541 O 165.739 -0.775715 -1.62427 0
M  V30 1542 H 162.114 -0.545983 -0.517113 0
M  V30 1543 H 164.085 -2.6628 -1.34675 0
M  V30 1544 C 162.834 -1.86619 -2.93375 0
M  V30 1545 H 162.157 -2.73264 -2.91834 0
M  V30 1546 H 163.597 -2.05709 -3.70756 0
M  V30 1547 C 162.056 -0.624842 -3.31055 0
M  V30 1548 O 162.586 0.222636 -4.01083 0
M  V30 1549 N 160.792 -0.470288 -2.86769 0
M  V30 1550 H 160.339 -1.161 -2.29953 0
M  V30 1551 H 160.297 0.359051 -3.12343 0
M  V30 1552 N 164.069 0.697108 -1.41344 0
M  V30 1553 C 164.999 1.82353 -1.45841 0
M  V30 1554 C 165.98 1.67115 -0.317247 0
M  V30 1555 O 167.165 1.86871 -0.528474 0
M  V30 1556 C 164.295 3.20476 -1.33838 0
M  V30 1557 C 163.249 3.50415 -2.4575 0
M  V30 1558 C 162.575 4.87878 -2.18813 0
M  V30 1559 C 163.875 3.49546 -3.88091 0
M  V30 1560 H 165.569 1.78846 -2.40113 0
M  V30 1561 H 163.115 0.859028 -1.15571 0
M  V30 1562 H 165.068 3.98988 -1.35596 0
M  V30 1563 H 163.792 3.24604 -0.360498 0
M  V30 1564 H 162.451 2.74253 -2.43271 0
M  V30 1565 H 162.099 4.8863 -1.19371 0
M  V30 1566 H 161.799 5.08875 -2.93803 0
M  V30 1567 H 163.323 5.68702 -2.22284 0
M  V30 1568 H 164.737 4.18066 -3.92293 0
M  V30 1569 H 163.134 3.82075 -4.62751 0
M  V30 1570 H 164.204 2.48552 -4.16353 0
M  V30 1571 N 165.547 1.27147 0.931209 0
M  V30 1572 C 166.796 1.12664 1.67302 0
M  V30 1573 C 167.109 -0.327718 1.92835 0
M  V30 1574 O 168.315 -0.593392 2.64936 0
M  V30 1575 C 166.771 1.9683 3.01307 0
M  V30 1576 C 166.379 3.46901 2.83485 0
M  V30 1577 C 168.123 1.90985 3.79111 0
M  V30 1578 C 166.03 4.23279 4.13024 0
M  V30 1579 H 164.96 0.41803 0.627509 0
M  V30 1580 H 167.611 1.51539 1.03481 0
M  V30 1581 H 165.993 1.50797 3.66164 0
M  V30 1582 H 167.167 4.00773 2.27415 0
M  V30 1583 H 165.482 3.54088 2.19113 0
M  V30 1584 H 168.079 2.45328 4.75098 0
M  V30 1585 H 168.422 0.882718 4.06834 0
M  V30 1586 H 168.955 2.34895 3.21044 0
M  V30 1587 H 165.694 5.26503 3.90481 0
M  V30 1588 H 165.214 3.74186 4.6877 0
M  V30 1589 H 166.893 4.32265 4.81411 0
M  V30 1590 N 167.025 -1.13721 1.09112 0
M  V30 1591 C 167.988 -2.17222 0.731241 0
M  V30 1592 C 168.988 -1.59035 -0.237566 0
M  V30 1593 O 170.178 -1.74192 -0.0161704 0
M  V30 1594 C 167.31 -3.40804 0.0808443 0
M  V30 1595 H 168.503 -2.50573 1.64783 0
M  V30 1596 H 166.056 -1.28493 0.889897 0
M  V30 1597 H 166.791 -3.1304 -0.847127 0
M  V30 1598 H 166.576 -3.84306 0.777896 0
M  V30 1599 H 168.066 -4.1731 -0.155657 0
M  V30 1600 N 168.503 -0.877838 -1.30888 0
M  V30 1601 C 169.78 -0.413052 -1.91189 0
M  V30 1602 C 170.16 1.1056 -1.79832 0
M  V30 1603 O 169.508 1.93771 -1.21099 0
M  V30 1604 C 169.718 -0.903191 -3.3711 0
M  V30 1605 C 171.066 -0.93395 -4.14201 0
M  V30 1606 O 172.09 -0.849373 -3.45925 0
M  V30 1607 O 170.949 -1.05772 -5.36167 0
M  V30 1608 H 168.043 -0.125035 -0.817493 0
M  V30 1609 H 170.589 -0.966269 -1.39504 0
M  V30 1610 H 169.361 -1.94692 -3.39427 0
M  V30 1611 H 168.984 -0.328732 -3.96239 0
M  V30 1612 N 169.982 1.44106 -0.638065 0
M  V30 1613 C 171.228 2.02815 -0.15409 0
M  V30 1614 C 171.583 1.49342 1.21304 0
M  V30 1615 O 170.876 0.670699 1.79478 0
M  V30 1616 C 171.07 3.5729 -0.0887327 0
M  V30 1617 C 170.899 4.2575 -1.44799 0
M  V30 1618 C 169.669 4.62443 -2.03653 0
M  V30 1619 C 171.867 4.55746 -2.38327 0
M  V30 1620 N 169.849 5.15903 -3.32741 0
M  V30 1621 C 171.22 5.10364 -3.52036 0
M  V30 1622 C 173.275 4.37703 -2.3732 0
M  V30 1623 C 171.978 5.48837 -4.64941 0
M  V30 1624 C 174.004 4.77229 -3.49294 0
M  V30 1625 C 173.366 5.31966 -4.61726 0
M  V30 1626 H 169.465 0.775519 -0.100466 0
M  V30 1627 H 172.049 1.755 -0.843071 0
M  V30 1628 H 170.22 3.84201 0.569548 0
M  V30 1629 H 171.952 4.02671 0.404711 0
M  V30 1630 H 168.707 4.46987 -1.56523 0
M  V30 1631 H 169.131 5.47102 -3.98758 0
M  V30 1632 H 173.773 3.94671 -1.51641 0
M  V30 1633 H 171.491 5.9082 -5.51323 0
M  V30 1634 H 175.077 4.64976 -3.49698 0
M  V30 1635 H 173.957 5.61986 -5.46939 0
M  V30 1636 N 171.46 0.379036 1.52974 0
M  V30 1637 C 172.871 -0.0972525 1.86447 0
M  V30 1638 C 173.222 -1.47027 1.29914 0
M  V30 1639 O 172.347 -2.07135 0.626433 0
M  V30 1640 C 172.942 -0.183248 3.38304 0
M  V30 1641 C 171.501 -0.603812 3.71525 0
M  V30 1642 C 170.648 0.240632 2.76254 0
M  V30 1643 H 173.599 0.597316 1.4703 0
M  V30 1644 H 173.62 -1.00432 3.67006 0
M  V30 1645 H 173.132 0.816191 3.79421 0
M  V30 1646 H 171.233 -1.61099 3.35973 0
M  V30 1647 H 171.346 -0.369086 4.77676 0
M  V30 1648 H 169.71 -0.292548 2.53014 0
M  V30 1649 H 170.493 1.23786 3.20206 0
M  V30 1650 N 172.938 -1.57226 0.108567 0
M  V30 1651 C 174.186 -1.94448 -0.550853 0
M  V30 1652 C 174.507 -0.992074 -1.67878 0
M  V30 1653 O 173.777 -0.0465 -1.95845 0
M  V30 1654 H 172.357 -0.717897 -0.206479 0
M  V30 1655 H 175.019 -1.94112 0.175062 0
M  V30 1656 H 174.115 -2.97218 -0.952259 0
M  V30 1657 N 174.416 0.165178 -1.56732 0
M  V30 1658 C 175.664 0.879068 -1.8198 0
M  V30 1659 C 175.985 1.82514 -0.686561 0
M  V30 1660 O 175.255 1.93694 0.293146 0
M  V30 1661 H 173.835 0.327608 -0.671329 0
M  V30 1662 H 176.497 0.163526 -1.94213 0
M  V30 1663 H 175.593 1.45228 -2.76252 0
M  V30 1664 N 175.894 1.51508 0.433938 0
M  V30 1665 C 177.171 1.54888 1.19453 0
M  V30 1666 C 177.551 0.315154 2.08734 0
M  V30 1667 O 176.899 -0.699558 2.17528 0
M  V30 1668 C 177.109 2.86467 1.99342 0
M  V30 1669 C 178.457 3.38545 2.56267 0
M  V30 1670 O 179.481 2.88041 2.0955 0
M  V30 1671 O 178.34 4.26675 3.41483 0
M  V30 1672 H 175.434 0.622863 0.544032 0
M  V30 1673 H 177.98 1.63823 0.442732 0
M  V30 1674 H 176.752 3.67718 1.33788 0
M  V30 1675 H 176.375 2.8071 2.8158 0
M  V30 1676 N 177.372 -0.689602 1.41712 0
M  V30 1677 C 178.783 -1.26973 1.36875 0
M  V30 1678 C 179.134 -1.96124 0.054748 0
M  V30 1679 O 178.259 -1.99141 -0.84687 0
M  V30 1680 C 178.854 -2.30912 2.47922 0
M  V30 1681 C 177.413 -2.84486 2.46464 0
M  V30 1682 C 176.56 -1.58603 2.27465 0
M  V30 1683 H 179.511 -0.48396 1.51141 0
M  V30 1684 H 179.532 -3.12331 2.17323 0
M  V30 1685 H 179.044 -1.80554 3.43543 0
M  V30 1686 H 177.145 -3.39005 1.54617 0
M  V30 1687 H 177.258 -3.34511 3.42986 0
M  V30 1688 H 175.622 -1.84632 1.75451 0
M  V30 1689 H 176.405 -1.10233 3.25121 0
M  V30 1690 N 178.85 -1.27639 -0.924453 0
M  V30 1691 C 179.798 -1.10485 -2.04685 0
M  V30 1692 C 180.792 -0.0270421 -1.69378 0
M  V30 1693 O 181.998 -0.185008 -1.79047 0
M  V30 1694 H 178.373 -0.340546 -0.670472 0
M  V30 1695 H 180.344 -2.05566 -2.16298 0
M  V30 1696 C 179.093 -0.772229 -3.39016 0
M  V30 1697 H 178.416 -1.59351 -3.66671 0
M  V30 1698 H 179.856 -0.692097 -4.18313 0
M  V30 1699 C 178.315 0.523554 -3.32807 0
M  V30 1700 O 178.845 1.55702 -3.70297 0
M  V30 1701 N 177.051 0.520363 -2.85903 0
M  V30 1702 H 176.598 -0.32107 -2.55591 0
M  V30 1703 H 176.556 1.38742 -2.82131 0
M  V30 1704 N 180.328 1.1314 -1.09713 0
M  V30 1705 C 181.275 2.18642 -0.739196 0
M  V30 1706 C 182.245 1.63706 0.280978 0
M  V30 1707 O 183.43 1.90111 0.161946 0
M  V30 1708 C 180.57 3.44685 -0.169102 0
M  V30 1709 C 179.683 4.13711 -1.24367 0
M  V30 1710 C 178.818 5.27379 -0.636019 0
M  V30 1711 C 177.857 5.88259 -1.69169 0
M  V30 1712 N 176.994 6.93352 -1.10485 0
M  V30 1713 H 181.834 2.48607 -1.64312 0
M  V30 1714 H 179.371 1.22066 -0.820875 0
M  V30 1715 H 181.329 4.16815 0.179256 0
M  V30 1716 H 179.959 3.15161 0.698079 0
M  V30 1717 H 179.011 3.39835 -1.70927 0
M  V30 1718 H 180.323 4.55037 -2.04311 0
M  V30 1719 H 179.477 6.06238 -0.236677 0
M  V30 1720 H 178.216 4.8731 0.194928 0
M  V30 1721 H 177.221 5.08092 -2.10055 0
M  V30 1722 H 178.446 6.30399 -2.52536 0
M  V30 1723 H 176.392 6.55335 -0.295234 0
M  V30 1724 H 176.309 7.33236 -1.84121 0
M  V30 1725 H 177.577 7.76057 -0.73181 0
M  V30 1726 N 181.806 0.884767 1.30421 0
M  V30 1727 C 183.052 0.503851 1.96441 0
M  V30 1728 C 183.385 -0.944518 1.69684 0
M  V30 1729 O 182.66 -1.66737 1.00145 0
M  V30 1730 C 182.943 0.779085 3.51571 0
M  V30 1731 C 182.796 2.27807 3.87846 0
M  V30 1732 C 184.115 0.255452 4.39358 0
M  V30 1733 H 181.234 0.184533 0.713524 0
M  V30 1734 H 183.876 1.10872 1.54297 0
M  V30 1735 H 182.026 0.264274 3.876 0
M  V30 1736 H 183.698 2.86127 3.61841 0
M  V30 1737 H 181.941 2.74479 3.35922 0
M  V30 1738 H 182.612 2.42125 4.96064 0
M  V30 1739 H 185.088 0.696079 4.10236 0
M  V30 1740 H 183.964 0.477361 5.4682 0
M  V30 1741 H 184.225 -0.843293 4.33983 0
M  V30 1742 N 183.284 -1.43765 0.645699 0
M  V30 1743 C 184.214 -2.33471 -0.0370477 0
M  V30 1744 C 185.195 -1.49042 -0.819779 0
M  V30 1745 O 186.38 -1.77726 -0.782758 0
M  V30 1746 C 183.51 -3.32311 -1.0093 0
M  V30 1747 C 182.464 -4.2667 -0.337201 0
M  V30 1748 C 181.79 -5.1549 -1.42037 0
M  V30 1749 C 183.09 -5.16657 0.765706 0
M  V30 1750 H 184.784 -2.90809 0.712069 0
M  V30 1751 H 182.33 -1.39834 0.343876 0
M  V30 1752 H 184.283 -3.9396 -1.49578 0
M  V30 1753 H 183.007 -2.73213 -1.78948 0
M  V30 1754 H 181.666 -3.66374 0.128771 0
M  V30 1755 H 181.314 -4.52735 -2.1918 0
M  V30 1756 H 181.014 -5.79438 -0.975966 0
M  V30 1757 H 182.538 -5.80012 -1.90838 0
M  V30 1758 H 183.952 -5.72158 0.361702 0
M  V30 1759 H 182.349 -5.89286 1.13413 0
M  V30 1760 H 183.419 -4.56796 1.62683 0
M  V30 1761 N 184.763 -0.387143 -1.52771 0
M  V30 1762 C 185.696 0.493123 -2.22808 0
M  V30 1763 C 186.674 1.0658 -1.22798 0
M  V30 1764 O 187.858 1.11785 -1.51777 0
M  V30 1765 C 184.985 1.68238 -2.93962 0
M  V30 1766 C 184.031 1.23515 -4.08223 0
M  V30 1767 S 184.864 0.21848 -5.35054 0
M  V30 1768 C 186.02 1.41357 -6.09729 0
M  V30 1769 H 186.253 -0.101625 -2.97126 0
M  V30 1770 H 183.786 -0.171323 -1.53447 0
M  V30 1771 H 185.744 2.36443 -3.35567 0
M  V30 1772 H 184.405 2.24842 -2.19328 0
M  V30 1773 H 183.598 2.12304 -4.57103 0
M  V30 1774 H 183.2 0.632044 -3.68621 0
M  V30 1775 H 185.492 2.34101 -6.3577 0
M  V30 1776 H 186.435 0.965736 -7.01484 0
M  V30 1777 H 186.843 1.6294 -5.40473 0
M  V30 1778 N 186.241 1.57166 -0.116904 0
M  V30 1779 C 187.204 2.14039 0.819742 0
M  V30 1780 C 188.204 1.07477 1.19605 0
M  V30 1781 O 189.394 1.33263 1.1219 0
M  V30 1782 C 186.526 2.67891 2.10826 0
M  V30 1783 H 187.719 2.98128 0.325511 0
M  V30 1784 H 185.272 1.55739 0.132312 0
M  V30 1785 H 186.007 1.87384 2.64685 0
M  V30 1786 H 185.792 3.45823 1.84793 0
M  V30 1787 H 187.282 3.11809 2.77785 0
M  V30 1788 N 187.719 -0.156864 1.56817 0
M  V30 1789 C 188.967 -0.869404 1.82444 0
M  V30 1790 C 189.288 -1.82147 0.69623 0
M  V30 1791 O 188.558 -1.93847 -0.28287 0
M  V30 1792 H 187.138 -0.324043 0.673056 0
M  V30 1793 H 189.8 -0.153224 1.94297 0
M  V30 1794 H 188.896 -1.43761 2.77019 0
M  V30 1795 N 189.197 -1.51736 -0.425897 0
M  V30 1796 C 190.16 -1.73271 -1.50032 0
M  V30 1797 C 191.16 -0.602639 -1.4908 0
M  V30 1798 O 192.35 -0.87033 -1.509 0
M  V30 1799 C 189.482 -1.79969 -2.89523 0
M  V30 1800 H 190.675 -2.69172 -1.32237 0
M  V30 1801 H 188.228 -1.41899 -0.65532 0
M  V30 1802 H 188.963 -0.859241 -3.1271 0
M  V30 1803 H 188.748 -2.62109 -2.91619 0
M  V30 1804 H 190.238 -1.9843 -3.67444 0
M  V30 1805 N 190.675 0.682077 -1.42076 0
M  V30 1806 C 191.625 1.78823 -1.41444 0
M  V30 1807 C 192.609 1.58323 -0.28681 0
M  V30 1808 O 193.801 1.68926 -0.528498 0
M  V30 1809 C 190.93 3.17232 -1.3122 0
M  V30 1810 C 190.016 3.4338 -2.489 0
M  V30 1811 N 190.407 3.40152 -3.7434 0
M  V30 1812 C 188.705 3.73986 -2.43003 0
M  V30 1813 C 189.406 3.65581 -4.52466 0
M  V30 1814 N 188.382 3.85989 -3.8277 0
M  V30 1815 H 192.184 1.7471 -2.36334 0
M  V30 1816 H 189.698 0.882622 -1.36321 0
M  V30 1817 H 191.695 3.96489 -1.2885 0
M  V30 1818 H 190.355 3.22547 -0.373263 0
M  V30 1819 H 191.366 3.20221 -4.07037 0
M  V30 1820 H 188.043 3.86591 -1.57651 0
M  V30 1821 H 189.433 3.69108 -5.61435 0
M  V30 1822 N 192.153 1.28127 0.917671 0
M  V30 1823 C 193.083 1.14248 2.03641 0
M  V30 1824 C 194.064 0.0412748 1.7005 0
M  V30 1825 O 195.249 0.217566 1.92977 0
M  V30 1826 C 192.379 0.799431 3.37974 0
M  V30 1827 C 191.333 1.85497 3.85713 0
M  V30 1828 C 190.659 1.36565 5.16966 0
M  V30 1829 C 191.959 3.26085 4.08002 0
M  V30 1830 H 193.653 2.07835 2.15511 0
M  V30 1831 H 191.199 1.00064 1.03553 0
M  V30 1832 H 193.152 0.689114 4.15727 0
M  V30 1833 H 191.876 -0.172145 3.26146 0
M  V30 1834 H 190.535 1.95437 3.10161 0
M  V30 1835 H 190.183 0.383253 5.01538 0
M  V30 1836 H 189.883 2.07143 5.49878 0
M  V30 1837 H 191.407 1.26848 5.97279 0
M  V30 1838 H 192.821 3.19089 4.76293 0
M  V30 1839 H 191.218 3.94462 4.52238 0
M  V30 1840 H 192.288 3.70394 3.12948 0
M  V30 1841 N 193.631 -1.12557 1.10312 0
M  V30 1842 C 194.908 -1.80363 0.756878 0
M  V30 1843 C 195.288 -1.97067 -0.756824 0
M  V30 1844 O 194.636 -1.54601 -1.68259 0
M  V30 1845 C 194.846 -3.14812 1.50647 0
M  V30 1846 C 196.194 -3.90029 1.67817 0
M  V30 1847 O 197.218 -3.24464 1.46974 0
M  V30 1848 O 196.077 -5.07652 2.02365 0
M  V30 1849 H 193.171 -0.780667 0.272926 0
M  V30 1850 H 195.717 -1.19404 1.20586 0
M  V30 1851 H 194.489 -2.97936 2.53672 0
M  V30 1852 H 194.112 -3.83478 1.05026 0
M  V30 1853 N 195.109 -0.891671 -1.2995 0
M  V30 1854 C 196.334 -0.527932 -2.00568 0
M  V30 1855 C 196.759 0.877969 -1.66353 0
M  V30 1856 O 196.117 1.58301 -0.883762 0
M  V30 1857 C 196.165 -0.717745 -3.53385 0
M  V30 1858 O 195.269 0.233376 -4.11739 0
M  V30 1859 H 194.61 -0.20722 -0.630837 0
M  V30 1860 H 197.14 -1.20105 -1.65638 0
M  V30 1861 H 197.15 -0.619307 -4.03272 0
M  V30 1862 H 195.825 -1.74276 -3.77625 0
M  V30 1863 H 194.402 0.0880706 -3.72796 0
M  V30 1864 N 196.587 1.43421 -0.653314 0
M  V30 1865 C 197.833 2.02111 -0.166992 0
M  V30 1866 C 198.166 1.51423 1.21592 0
M  V30 1867 O 197.441 0.707389 1.8118 0
M  V30 1868 C 197.724 3.5966 -0.177948 0
M  V30 1869 C 197.577 4.20579 -1.59478 0
M  V30 1870 C 198.896 4.37413 0.4856 0
M  V30 1871 H 196.015 0.734374 -0.0621557 0
M  V30 1872 H 198.657 1.70717 -0.834016 0
M  V30 1873 H 196.807 3.86537 0.390032 0
M  V30 1874 H 198.479 4.04732 -2.21336 0
M  V30 1875 H 196.722 3.77226 -2.14204 0
M  V30 1876 H 197.393 5.29665 -1.5543 0
M  V30 1877 H 199.869 4.161 0.00234528 0
M  V30 1878 H 198.745 5.47075 0.447207 0
M  V30 1879 H 199.006 4.13672 1.55974 0
M  V30 1880 N 198.065 0.39524 1.52563 0
M  V30 1881 C 199.29 -0.187456 2.06551 0
M  V30 1882 C 199.715 -1.39249 1.26457 0
M  V30 1883 O 199.073 -1.78947 0.291151 0
M  V30 1884 C 199.121 -0.529985 3.56684 0
M  V30 1885 O 198.225 -1.62307 3.79118 0
M  V30 1886 H 197.566 -0.0202537 0.663691 0
M  V30 1887 H 200.096 0.564426 1.96661 0
M  V30 1888 H 200.106 -0.792598 4.00227 0
M  V30 1889 H 198.781 0.350987 4.14416 0
M  V30 1890 H 197.358 -1.3537 3.47461 0
M  V30 1891 N 199.544 -1.57102 0.125237 0
M  V30 1892 C 200.769 -2.0019 -0.542101 0
M  V30 1893 C 201.194 -1.00449 -1.59034 0
M  V30 1894 O 200.552 0.0229423 -1.81285 0
M  V30 1895 C 200.6 -3.42129 -1.13929 0
M  V30 1896 O 199.704 -3.45307 -2.2547 0
M  V30 1897 H 199.045 -0.650171 -0.134812 0
M  V30 1898 H 201.575 -2.03461 0.215553 0
M  V30 1899 H 201.585 -3.80471 -1.4733 0
M  V30 1900 H 200.26 -4.14237 -0.371531 0
M  V30 1901 H 198.837 -3.1879 -1.93462 0
M  V30 1902 N 201.022 0.148545 -1.56898 0
M  V30 1903 C 202.27 0.859717 -1.82902 0
M  V30 1904 C 202.591 1.81775 -0.70588 0
M  V30 1905 O 201.861 1.93994 0.272586 0
M  V30 1906 H 200.441 0.320469 -0.674766 0
M  V30 1907 H 203.103 0.142918 -1.94375 0
M  V30 1908 H 202.199 1.4229 -2.77777 0
M  V30 1909 N 202.5 1.5196 0.417844 0
M  V30 1910 C 203.463 1.74065 1.49111 0
M  V30 1911 C 204.463 0.610537 1.48758 0
M  V30 1912 O 205.653 0.87832 1.50437 0
M  V30 1913 C 202.785 1.81502 2.88565 0
M  V30 1914 H 203.978 2.69869 1.30807 0
M  V30 1915 H 201.531 1.42244 0.647785 0
M  V30 1916 H 202.266 0.875813 3.1225 0
M  V30 1917 H 202.051 2.63651 2.90225 0
M  V30 1918 H 203.541 2.00376 3.66387 0
M  V30 1919 N 203.978 -0.674533 1.42435 0
M  V30 1920 C 205.226 -1.43175 1.42637 0
M  V30 1921 C 205.547 -1.94951 0.0438992 0
M  V30 1922 O 204.817 -1.7308 -0.917607 0
M  V30 1923 H 203.397 -0.531307 0.525092 0
M  V30 1924 H 206.059 -0.797006 1.77859 0
M  V30 1925 H 205.155 -2.28463 2.12629 0
M  V30 1926 N 205.456 -1.28612 -0.910864 0
M  V30 1927 C 206.705 -1.15311 -1.65488 0
M  V30 1928 C 207.018 0.296999 -1.93332 0
M  V30 1929 O 208.224 0.551168 -2.65847 0
M  V30 1930 C 206.68 -2.01599 -2.98137 0
M  V30 1931 C 206.288 -3.51367 -2.7793 0
M  V30 1932 C 208.032 -1.96993 -3.76024 0
M  V30 1933 C 205.939 -4.29797 -4.06237 0
M  V30 1934 H 204.869 -0.42796 -0.620779 0
M  V30 1935 H 207.52 -1.53166 -1.01057 0
M  V30 1936 H 205.902 -1.56603 -3.63719 0
M  V30 1937 H 207.076 -4.0434 -2.21011 0
M  V30 1938 H 205.391 -3.57529 -2.13452 0
M  V30 1939 H 207.988 -2.52856 -4.71135 0
M  V30 1940 H 208.331 -0.94733 -4.05378 0
M  V30 1941 H 208.864 -2.39973 -3.17266 0
M  V30 1942 H 205.603 -5.32648 -3.82055 0
M  V30 1943 H 205.123 -3.81596 -4.62757 0
M  V30 1944 H 206.802 -4.39869 -4.74473 0
M  V30 1945 N 206.934 1.1197 -1.10907 0
M  V30 1946 C 207.882 2.19927 -0.757303 0
M  V30 1947 C 208.876 1.67564 0.248747 0
M  V30 1948 O 210.082 1.79672 0.108605 0
M  V30 1949 H 206.457 0.716925 -0.226987 0
M  V30 1950 H 208.428 2.46847 -1.67658 0
M  V30 1951 C 207.177 3.47061 -0.210671 0
M  V30 1952 H 206.5 3.87703 -0.976049 0
M  V30 1953 H 207.94 4.24 -0.0026584 0
M  V30 1954 C 206.399 3.19864 1.05777 0
M  V30 1955 O 206.929 3.40049 2.13845 0
M  V30 1956 N 205.135 2.73636 0.978349 0
M  V30 1957 H 204.682 2.5741 0.0988246 0
M  V30 1958 H 204.64 2.55815 1.82773 0
M  V30 1959 N 208.412 0.89855 1.29475 0
M  V30 1960 C 209.689 0.443416 1.90508 0
M  V30 1961 C 210.069 -1.07685 1.81569 0
M  V30 1962 O 209.417 -1.9182 1.24166 0
M  V30 1963 C 209.627 0.956708 3.35631 0
M  V30 1964 C 210.975 0.999728 4.12663 0
M  V30 1965 O 211.999 0.904299 3.4453 0
M  V30 1966 O 210.858 1.14289 5.34416 0
M  V30 1967 H 207.952 0.138025 0.815401 0
M  V30 1968 H 210.498 0.98834 1.37949 0
M  V30 1969 H 209.27 2.00067 3.36287 0
M  V30 1970 H 208.893 0.391728 3.95666 0
M  V30 1971 N 209.89 -1.43072 0.660911 0
M  V30 1972 C 210.838 -2.32569 -0.0378199 0
M  V30 1973 C 211.832 -1.49046 -0.805092 0
M  V30 1974 O 213.038 -1.65206 -0.714624 0
M  V30 1975 H 209.413 -0.75136 -0.031019 0
M  V30 1976 H 211.384 -2.89216 0.734609 0
M  V30 1977 C 210.133 -3.33453 -0.985124 0
M  V30 1978 H 209.456 -3.97752 -0.404147 0
M  V30 1979 H 210.896 -3.98691 -1.44297 0
M  V30 1980 C 209.355 -2.64642 -2.08486 0
M  V30 1981 O 209.885 -2.46776 -3.16961 0
M  V30 1982 N 208.091 -2.23891 -1.8526 0
M  V30 1983 H 207.638 -2.38621 -0.970449 0
M  V30 1984 H 207.596 -1.78181 -2.59034 0
M  V30 1985 N 211.368 -0.403325 -1.52352 0
M  V30 1986 C 212.616 0.174003 -2.0135 0
M  V30 1987 C 212.937 1.46139 -1.29106 0
M  V30 1988 O 212.207 1.91448 -0.415253 0
M  V30 1989 H 210.787 0.0672911 -0.743963 0
M  V30 1990 H 213.449 -0.538235 -1.87321 0
M  V30 1991 H 212.545 0.374254 -3.09848 0
M  V30 1992 N 212.846 1.57033 -0.133567 0
M  V30 1993 C 214.071 2.00475 0.531477 0
M  V30 1994 C 214.496 1.01291 1.58499 0
M  V30 1995 O 213.854 -0.0133279 1.81295 0
M  V30 1996 C 213.902 3.42729 1.12113 0
M  V30 1997 O 213.006 3.46498 2.23636 0
M  V30 1998 H 212.347 0.650876 0.131362 0
M  V30 1999 H 214.877 2.03344 -0.22634 0
M  V30 2000 H 214.887 3.81246 1.4531 0
M  V30 2001 H 213.562 4.14428 0.349557 0
M  V30 2002 H 212.139 3.19811 1.91769 0
M  V30 2003 N 214.325 -0.140222 1.56975 0
M  V30 2004 C 215.573 -0.850005 1.83356 0
M  V30 2005 C 215.894 -1.81399 0.71551 0
M  V30 2006 O 215.164 -1.94136 -0.262294 0
M  V30 2007 H 213.744 -0.316886 0.676456 0
M  V30 2008 H 216.406 -0.132608 1.94448 0
M  V30 2009 H 215.502 -1.40814 2.78528 0
M  V30 2010 N 215.803 -1.52179 -0.40978 0
M  V30 2011 C 217.028 -1.70347 -1.18308 0
M  V30 2012 C 217.453 -0.411887 -1.83535 0
M  V30 2013 O 216.811 0.630587 -1.6998 0
M  V30 2014 C 216.859 -2.83977 -2.22238 0
M  V30 2015 O 215.963 -2.495 -3.28365 0
M  V30 2016 H 215.304 -0.567103 -0.345384 0
M  V30 2017 H 217.834 -1.98879 -0.480445 0
M  V30 2018 H 217.844 -3.0887 -2.66577 0
M  V30 2019 H 216.519 -3.77685 -1.74146 0
M  V30 2020 H 215.096 -2.35277 -2.89308 0
M  V30 2021 N 217.281 0.66697 -1.42791 0
M  V30 2022 C 218.244 1.76211 -1.46568 0
M  V30 2023 C 219.244 1.56896 -0.352196 0
M  V30 2024 O 220.434 1.63044 -0.613364 0
M  V30 2025 C 217.566 3.14935 -1.30494 0
M  V30 2026 H 218.759 1.74247 -2.44086 0
M  V30 2027 H 216.312 0.877342 -1.29354 0
M  V30 2028 H 217.047 3.2252 -0.339301 0
M  V30 2029 H 216.832 3.30359 -2.11199 0
M  V30 2030 H 218.322 3.94821 -1.36038 0
M  V30 2031 N 218.759 1.29093 0.90403 0
M  V30 2032 C 219.722 1.1386 1.98919 0
M  V30 2033 C 220.722 0.0753457 1.60623 0
M  V30 2034 O 221.912 0.321931 1.71199 0
M  V30 2035 C 219.044 0.740198 3.32767 0
M  V30 2036 H 220.237 2.10246 2.13861 0
M  V30 2037 H 217.79 1.12218 1.08797 0
M  V30 2038 H 218.525 -0.223997 3.23525 0
M  V30 2039 H 218.31 1.50838 3.61926 0
M  V30 2040 H 219.8 0.656546 4.12407 0
M  V30 2041 N 220.237 -1.11381 1.11499 0
M  V30 2042 C 221.483 -1.83403 0.865512 0
M  V30 2043 C 221.816 -1.84459 -0.607329 0
M  V30 2044 O 221.091 -1.29811 -1.44842 0
M  V30 2045 C 221.374 -3.30552 1.42855 0
M  V30 2046 C 221.227 -3.37886 2.96906 0
M  V30 2047 C 222.546 -4.26643 1.08 0
M  V30 2048 H 219.665 -0.665879 0.31587 0
M  V30 2049 H 222.307 -1.30601 1.37998 0
M  V30 2050 H 220.457 -3.75648 0.990985 0
M  V30 2051 H 222.129 -3.01343 3.49271 0
M  V30 2052 H 220.372 -2.78088 3.32941 0
M  V30 2053 H 221.043 -4.41458 3.31389 0
M  V30 2054 H 223.519 -3.89729 1.45775 0
M  V30 2055 H 222.395 -5.27986 1.50072 0
M  V30 2056 H 222.656 -4.42099 -0.00915037 0
M  V30 2057 N 221.715 -0.905404 -1.28997 0
M  V30 2058 C 222.645 -0.404212 -2.29975 0
M  V30 2059 C 223.626 0.523784 -1.61835 0
M  V30 2060 O 224.811 0.433298 -1.89304 0
M  V30 2061 C 221.941 0.364042 -3.45387 0
M  V30 2062 C 220.895 -0.474048 -4.25367 0
M  V30 2063 C 220.221 0.422045 -5.33032 0
M  V30 2064 C 221.521 -1.72696 -4.92923 0
M  V30 2065 H 223.215 -1.24807 -2.72146 0
M  V30 2066 H 220.761 -0.601585 -1.30832 0
M  V30 2067 H 222.714 0.725447 -4.15109 0
M  V30 2068 H 221.438 1.24174 -3.02074 0
M  V30 2069 H 220.097 -0.81786 -3.57361 0
M  V30 2070 H 219.745 1.29804 -4.85963 0
M  V30 2071 H 219.445 -0.135057 -5.87445 0
M  V30 2072 H 220.969 0.779517 -6.05604 0
M  V30 2073 H 222.383 -1.43495 -5.55051 0
M  V30 2074 H 220.78 -2.22582 -5.57295 0
M  V30 2075 H 221.85 -2.45964 -4.17887 0
M  V30 2076 N 223.193 1.4272 -0.668489 0
M  V30 2077 C 224.103 2.34596 0.0139753 0
M  V30 2078 C 225.119 1.5474 0.795703 0
M  V30 2079 O 226.295 1.87334 0.739466 0
M  V30 2080 C 223.36 3.33202 0.957982 0
M  V30 2081 C 222.421 4.28957 0.17149 0
M  V30 2082 C 221.654 5.22853 1.07053 0
M  V30 2083 O 221.877 5.21531 2.31001 0
M  V30 2084 O 220.811 5.9952 0.534727 0
M  V30 2085 H 224.637 2.9448 -0.742661 0
M  V30 2086 H 222.222 1.43117 -0.428705 0
M  V30 2087 H 224.104 3.93796 1.50008 0
M  V30 2088 H 222.779 2.758 1.69458 0
M  V30 2089 H 221.686 3.71796 -0.414558 0
M  V30 2090 H 223.019 4.89383 -0.52586 0
M  V30 2091 N 224.671 0.411399 1.52136 0
M  V30 2092 C 225.899 -0.163076 2.06256 0
M  V30 2093 C 226.314 -1.3867 1.28125 0
M  V30 2094 O 225.671 -1.79423 0.333721 0
M  V30 2095 C 225.722 -0.511252 3.57867 0
M  V30 2096 O 225.443 0.66378 4.33042 0
M  V30 2097 C 226.944 -1.13921 4.28412 0
M  V30 2098 H 224.164 -0.0193897 0.67072 0
M  V30 2099 H 226.708 0.583007 1.96013 0
M  V30 2100 H 224.863 -1.20723 3.6811 0
M  V30 2101 H 225.277 0.372601 5.23175 0
M  V30 2102 H 226.751 -1.33302 5.35663 0
M  V30 2103 H 227.228 -2.11296 3.85033 0
M  V30 2104 H 227.834 -0.483373 4.22544 0
M  V30 2105 N 226.149 -1.5696 0.141893 0
M  V30 2106 C 227.112 -2.15316 -0.785587 0
M  V30 2107 C 228.112 -1.09366 -1.1788 0
M  V30 2108 O 229.302 -1.35031 -1.10056 0
M  V30 2109 C 226.434 -2.71211 -2.06537 0
M  V30 2110 H 227.627 -2.98608 -0.278041 0
M  V30 2111 H 225.18 -1.5593 -0.107519 0
M  V30 2112 H 225.915 -1.91571 -2.6167 0
M  V30 2113 H 225.7 -3.4872 -1.79268 0
M  V30 2114 H 227.19 -3.16189 -2.72789 0
M  V30 2115 N 227.627 0.131896 -1.57047 0
M  V30 2116 C 228.557 1.16384 -2.02428 0
M  V30 2117 C 229.538 1.43936 -0.90644 0
M  V30 2118 O 230.723 1.54599 -1.17528 0
M  V30 2119 C 227.853 2.49328 -2.4177 0
M  V30 2120 C 226.807 2.36266 -3.56879 0
M  V30 2121 C 226.133 3.74057 -3.8208 0
M  V30 2122 C 227.433 1.834 -4.89042 0
M  V30 2123 H 229.127 0.786433 -2.88887 0
M  V30 2124 H 226.673 0.376855 -1.38981 0
M  V30 2125 H 228.626 3.21759 -2.7212 0
M  V30 2126 H 227.35 2.88934 -1.52266 0
M  V30 2127 H 226.009 1.66286 -3.26718 0
M  V30 2128 H 225.657 4.11125 -2.89803 0
M  V30 2129 H 225.357 3.66174 -4.59554 0
M  V30 2130 H 226.881 4.48012 -4.1487 0
M  V30 2131 H 228.295 2.45636 -5.18011 0
M  V30 2132 H 226.692 1.8637 -5.70426 0
M  V30 2133 H 227.762 0.790662 -4.7841 0
M  V30 2134 N 229.106 1.52395 0.401703 0
M  V30 2135 C 230.069 1.75636 1.47257 0
M  V30 2136 C 231.069 0.62628 1.48103 0
M  V30 2137 O 232.259 0.894227 1.49497 0
M  V30 2138 C 229.391 1.84553 2.86624 0
M  V30 2139 H 230.584 2.71241 1.27938 0
M  V30 2140 H 228.137 1.42923 0.632662 0
M  V30 2141 H 228.872 0.908882 3.11303 0
M  V30 2142 H 228.657 2.66715 2.87412 0
M  V30 2143 H 230.147 2.04251 3.64241 0
M  V30 2144 N 230.584 -0.659388 1.43143 0
M  V30 2145 C 231.83 -1.42145 1.44647 0
M  V30 2146 C 232.163 -1.9408 0.0681907 0
M  V30 2147 O 231.438 -1.71899 -0.910007 0
M  V30 2148 C 231.721 -2.60735 2.48373 0
M  V30 2149 C 231.574 -2.14332 3.95451 0
M  V30 2150 C 232.893 -3.62951 2.48906 0
M  V30 2151 H 230.012 -0.51552 0.526696 0
M  V30 2152 H 232.654 -0.748069 1.74654 0
M  V30 2153 H 230.804 -3.18184 2.22916 0
M  V30 2154 H 232.476 -1.61932 4.31944 0
M  V30 2155 H 230.719 -1.4576 4.08578 0
M  V30 2156 H 231.39 -2.99583 4.63631 0
M  V30 2157 H 233.866 -3.1525 2.71582 0
M  V30 2158 H 232.742 -4.43487 3.23435 0
M  V30 2159 H 233.003 -4.15126 1.52061 0
M  V30 2160 N 232.062 -1.29571 -0.897171 0
M  V30 2161 C 233.287 -1.20705 -1.68656 0
M  V30 2162 C 233.712 0.228582 -1.86706 0
M  V30 2163 O 233.07 1.16494 -1.3892 0
M  V30 2164 C 233.118 -1.9282 -3.04717 0
M  V30 2165 O 232.222 -1.24697 -3.93096 0
M  V30 2166 H 231.563 -0.418126 -0.515816 0
M  V30 2167 H 234.093 -1.71183 -1.12061 0
M  V30 2168 H 234.103 -2.01372 -3.54843 0
M  V30 2169 H 232.778 -2.97239 -2.90899 0
M  V30 2170 H 231.355 -1.2442 -3.51531 0
M  V30 2171 N 233.54 1.10788 -1.12088 0
M  V30 2172 C 234.956 1.34691 -0.856186 0
M  V30 2173 C 235.156 1.94791 0.515615 0
M  V30 2174 O 234.212 2.18524 1.26505 0
M  V30 2175 C 235.525 2.27208 -1.9697 0
M  V30 2176 C 237.073 2.40755 -2.00016 0
M  V30 2177 C 237.548 3.36598 -3.1059 0
M  V30 2178 N 239.039 3.44164 -3.10008 0
M  V30 2179 C 239.774 4.18284 -3.92206 0
M  V30 2180 N 239.27 4.95322 -4.84384 0
M  V30 2181 N 241.063 4.13865 -3.80357 0
M  V30 2182 H 233.214 0.70144 -2.00483 0
M  V30 2183 H 235.477 0.371405 -0.872217 0
M  V30 2184 H 235.183 1.90251 -2.958 0
M  V30 2185 H 235.057 3.27485 -1.87172 0
M  V30 2186 H 237.444 2.76982 -1.01808 0
M  V30 2187 H 237.525 1.40305 -2.13888 0
M  V30 2188 H 237.169 3.01096 -4.09028 0
M  V30 2189 H 237.099 4.36918 -2.93956 0
M  V30 2190 H 239.59 2.8922 -2.43228 0
M  V30 2191 H 239.903 5.49267 -5.43623 0
M  V30 2192 H 238.248 4.94459 -4.884 0
M  V30 2193 H 241.439 3.52773 -3.07683 0
M  V30 2194 H 241.612 4.71372 -4.44649 0
M  V30 2195 N 235.018 0.912232 1.28515 0
M  V30 2196 C 235.981 0.404223 2.25607 0
M  V30 2197 C 236.981 -0.468602 1.53821 0
M  V30 2198 O 238.171 -0.271873 1.72065 0
M  V30 2199 C 235.303 -0.420653 3.38295 0
M  V30 2200 H 236.496 1.26188 2.7206 0
M  V30 2201 H 234.049 0.691495 1.40171 0
M  V30 2202 H 234.784 -1.29777 2.97201 0
M  V30 2203 H 234.569 0.204935 3.91564 0
M  V30 2204 H 236.059 -0.766971 4.10496 0
M  V30 2205 N 236.496 -1.42363 0.676048 0
M  V30 2206 C 237.744 -2.01123 0.198437 0
M  V30 2207 C 238.065 -1.53731 -1.19966 0
M  V30 2208 O 237.335 -0.759518 -1.80577 0
M  V30 2209 H 235.915 -0.743678 0.0703721 0
M  V30 2210 H 238.577 -1.74263 0.872837 0
M  V30 2211 H 237.673 -3.11454 0.200686 0
M  V30 2212 N 237.974 -0.419461 -1.51915 0
M  V30 2213 C 239.204 0.151915 -2.06041 0
M  V30 2214 C 239.612 1.38539 -1.28855 0
M  V30 2215 O 238.955 1.80592 -0.336463 0
M  V30 2216 C 239.017 0.557119 -3.55157 0
M  V30 2217 C 238.681 -0.567054 -4.53468 0
M  V30 2218 C 239.678 -1.43379 -4.99738 0
M  V30 2219 C 237.363 -0.742693 -4.96779 0
M  V30 2220 C 239.357 -2.46102 -5.87973 0
M  V30 2221 C 237.044 -1.77322 -5.84808 0
M  V30 2222 C 238.042 -2.63078 -6.30301 0
M  V30 2223 O 237.73 -3.64364 -7.16585 0
M  V30 2224 H 237.462 0.0193293 -0.675724 0
M  V30 2225 H 240.016 -0.592073 -1.96682 0
M  V30 2226 H 238.246 1.35355 -3.62238 0
M  V30 2227 H 239.935 1.05759 -3.9188 0
M  V30 2228 H 240.701 -1.30954 -4.66986 0
M  V30 2229 H 236.58 -0.0848307 -4.60922 0
M  V30 2230 H 240.124 -3.13071 -6.23404 0
M  V30 2231 H 236.021 -1.89773 -6.16974 0
M  V30 2232 H 236.789 -3.60731 -7.34721 0
M  V30 2233 N 239.452 1.56882 -0.150215 0
M  V30 2234 C 240.384 2.14057 0.819286 0
M  V30 2235 C 241.397 1.09082 1.20851 0
M  V30 2236 O 242.586 1.36347 1.15203 0
M  V30 2237 C 239.686 2.65102 2.11127 0
M  V30 2238 C 238.859 3.94511 1.88891 0
M  V30 2239 C 237.918 4.30834 3.02107 0
M  V30 2240 O 236.944 4.99099 2.73659 0
M  V30 2241 N 238.146 3.90676 4.29363 0
M  V30 2242 H 240.911 2.97871 0.330618 0
M  V30 2243 H 238.472 1.61866 0.0332538 0
M  V30 2244 H 240.464 2.86411 2.85921 0
M  V30 2245 H 239.034 1.85994 2.51247 0
M  V30 2246 H 238.254 3.81795 0.981152 0
M  V30 2247 H 239.542 4.7907 1.71376 0
M  V30 2248 H 238.94 3.35677 4.55343 0
M  V30 2249 H 237.497 4.1703 5.00928 0
M  V30 2250 N 240.93 -0.123565 1.57115 0
M  V30 2251 C 242.341 -0.681198 1.73829 0
M  V30 2252 C 242.692 -1.80535 0.768214 0
M  V30 2253 O 241.817 -2.16317 -0.0599103 0
M  V30 2254 C 242.412 -1.24246 3.15196 0
M  V30 2255 C 240.971 -1.74643 3.33432 0
M  V30 2256 C 240.118 -0.644284 2.69711 0
M  V30 2257 H 243.069 0.102315 1.5837 0
M  V30 2258 H 243.09 -2.11216 3.16493 0
M  V30 2259 H 242.602 -0.424062 3.85776 0
M  V30 2260 H 240.703 -2.58974 2.67886 0
M  V30 2261 H 240.816 -1.85902 4.41562 0
M  V30 2262 H 239.18 -1.07676 2.3082 0
M  V30 2263 H 239.963 0.163058 3.42913 0
M  V30 2264 N 242.408 -1.52605 -0.393616 0
M  V30 2265 C 243.685 -1.58001 -1.15304 0
M  V30 2266 C 244.065 -0.370385 -2.07825 0
M  V30 2267 O 243.413 0.641638 -2.19306 0
M  V30 2268 C 243.623 -2.91652 -1.91677 0
M  V30 2269 C 244.971 -3.4522 -2.47201 0
M  V30 2270 O 245.995 -2.93495 -2.01839 0
M  V30 2271 O 244.854 -4.35579 -3.3005 0
M  V30 2272 H 241.948 -0.637068 -0.527327 0
M  V30 2273 H 244.494 -1.64939 -0.399141 0
M  V30 2274 H 243.266 -3.71136 -1.23992 0
M  V30 2275 H 242.889 -2.88077 -2.74039 0
M  V30 2276 N 243.887 0.651787 -1.4349 0
M  V30 2277 C 244.834 1.76462 -1.4876 0
M  V30 2278 C 245.804 1.62641 -0.337189 0
M  V30 2279 O 246.989 1.82864 -0.544544 0
M  V30 2280 C 244.129 3.14623 -1.41796 0
M  V30 2281 C 243.242 3.39568 -2.67053 0
M  V30 2282 C 242.377 4.67585 -2.52068 0
M  V30 2283 C 241.416 4.85639 -3.72587 0
M  V30 2284 N 240.553 6.04915 -3.56402 0
M  V30 2285 H 245.393 1.71293 -2.43849 0
M  V30 2286 H 242.93 0.835889 -1.21043 0
M  V30 2287 H 244.888 3.94496 -1.35753 0
M  V30 2288 H 243.518 3.18859 -0.50288 0
M  V30 2289 H 242.57 2.53783 -2.8337 0
M  V30 2290 H 243.882 3.48795 -3.56572 0
M  V30 2291 H 243.036 5.55586 -2.4374 0
M  V30 2292 H 241.775 4.60681 -1.60075 0
M  V30 2293 H 240.78 3.96073 -3.81321 0
M  V30 2294 H 242.005 4.94372 -4.65589 0
M  V30 2295 H 239.951 5.9914 -2.67146 0
M  V30 2296 H 239.868 6.15106 -4.39524 0
M  V30 2297 H 241.136 6.95533 -3.51929 0
M  V30 2298 N 245.365 1.30045 0.890287 0
M  V30 2299 C 246.315 1.12592 1.9826 0
M  V30 2300 C 247.299 0.0426021 1.60844 0
M  V30 2301 O 248.491 0.265346 1.75 0
M  V30 2302 C 245.62 0.814301 3.33503 0
M  V30 2303 C 244.706 1.93761 3.7725 0
M  V30 2304 N 245.097 3.18232 3.93143 0
M  V30 2305 C 243.395 1.83277 4.06602 0
M  V30 2306 C 244.096 3.9158 4.30163 0
M  V30 2307 N 243.072 3.19591 4.3973 0
M  V30 2308 H 246.874 2.07003 2.08631 0
M  V30 2309 H 244.388 1.21307 1.07974 0
M  V30 2310 H 246.385 0.67029 4.11476 0
M  V30 2311 H 245.045 -0.121797 3.24471 0
M  V30 2312 H 246.056 3.53581 3.78419 0
M  V30 2313 H 242.733 0.97001 4.06075 0
M  V30 2314 H 244.123 4.98744 4.50226 0
M  V30 2315 N 246.843 -1.10192 1.12674 0
M  V30 2316 C 247.773 -2.18652 0.819362 0
M  V30 2317 C 248.754 -1.68698 -0.217915 0
M  V30 2318 O 249.939 -1.94041 -0.0785581 0
M  V30 2319 C 247.069 -3.46202 0.27594 0
M  V30 2320 C 246.023 -4.09444 1.24656 0
M  V30 2321 C 245.349 -5.31725 0.563258 0
M  V30 2322 C 246.649 -4.52863 2.60217 0
M  V30 2323 H 248.343 -2.44622 1.72628 0
M  V30 2324 H 245.889 -1.17571 0.831451 0
M  V30 2325 H 247.842 -4.21372 0.0486149 0
M  V30 2326 H 246.566 -3.1973 -0.666331 0
M  V30 2327 H 245.225 -3.36284 1.45974 0
M  V30 2328 H 244.873 -5.0153 -0.384235 0
M  V30 2329 H 244.573 -5.74991 1.21075 0
M  V30 2330 H 246.097 -6.09624 0.34503 0
M  V30 2331 H 247.511 -5.19294 2.42913 0
M  V30 2332 H 245.908 -5.06986 3.21068 0
M  V30 2333 H 246.978 -3.65656 3.18471 0
M  V30 2334 N 248.321 -0.919034 -1.28029 0
M  V30 2335 C 249.737 -0.617972 -1.4715 0
M  V30 2336 C 249.937 0.835242 -1.83374 0
M  V30 2337 O 248.993 1.61388 -1.94191 0
M  V30 2338 C 250.306 -1.56041 -2.57044 0
M  V30 2339 C 251.854 -1.56769 -2.7091 0
M  V30 2340 C 252.329 -2.49688 -3.83953 0
M  V30 2341 N 253.82 -2.47845 -3.91314 0
M  V30 2342 C 254.555 -3.16437 -4.78179 0
M  V30 2343 N 254.051 -3.94376 -5.69596 0
M  V30 2344 N 255.844 -3.05498 -4.71834 0
M  V30 2345 H 247.995 -1.85866 -1.02798 0
M  V30 2346 H 250.258 -0.797506 -0.512531 0
M  V30 2347 H 249.964 -2.59671 -2.372 0
M  V30 2348 H 249.838 -1.29551 -3.54255 0
M  V30 2349 H 252.225 -0.538745 -2.90141 0
M  V30 2350 H 252.306 -1.87305 -1.74214 0
M  V30 2351 H 251.95 -3.52688 -3.65477 0
M  V30 2352 H 251.88 -2.16453 -4.80058 0
M  V30 2353 H 254.371 -1.91234 -3.25941 0
M  V30 2354 H 254.684 -4.43721 -6.32718 0
M  V30 2355 H 253.029 -3.98481 -5.69419 0
M  V30 2356 H 256.22 -2.44108 -3.99411 0
M  V30 2357 H 256.393 -3.59225 -5.39316 0
M  V30 2358 N 249.799 1.42003 -0.683588 0
M  V30 2359 C 251.046 2.01413 -0.209514 0
M  V30 2360 C 251.374 1.54088 1.1869 0
M  V30 2361 O 250.629 0.737591 1.81268 0
M  V30 2362 C 250.928 3.56827 -0.202357 0
M  V30 2363 C 250.594 4.23617 -1.54464 0
M  V30 2364 C 249.256 4.41577 -1.91215 0
M  V30 2365 C 251.608 4.61178 -2.42826 0
M  V30 2366 C 248.936 4.9437 -3.15935 0
M  V30 2367 C 251.288 5.15355 -3.66867 0
M  V30 2368 C 249.952 5.31528 -4.03776 0
M  V30 2369 H 249.222 0.737023 -0.0766668 0
M  V30 2370 H 251.869 1.70067 -0.880312 0
M  V30 2371 H 250.174 3.87892 0.551969 0
M  V30 2372 H 251.871 4.00588 0.181793 0
M  V30 2373 H 248.461 4.10004 -1.24877 0
M  V30 2374 H 252.645 4.46968 -2.15717 0
M  V30 2375 H 247.901 5.05076 -3.44541 0
M  V30 2376 H 252.075 5.43402 -4.35531 0
M  V30 2377 H 249.702 5.72199 -5.00492 0
M  V30 2378 N 251.277 0.427512 1.51691 0
M  V30 2379 C 252.24 -0.377132 2.26076 0
M  V30 2380 C 253.24 -0.958089 1.29141 0
M  V30 2381 O 254.43 -0.83408 1.52934 0
M  V30 2382 C 251.562 -1.53262 3.04506 0
M  V30 2383 H 252.755 0.27464 2.9864 0
M  V30 2384 H 250.308 0.180445 1.55255 0
M  V30 2385 H 251.043 -2.22072 2.36335 0
M  V30 2386 H 250.828 -1.12232 3.75694 0
M  V30 2387 H 252.318 -2.10135 3.60878 0
M  V30 2388 N 252.755 -1.56801 0.158532 0
M  V30 2389 C 254.001 -1.97559 -0.483957 0
M  V30 2390 C 254.356 -1.04239 -1.61716 0
M  V30 2391 O 253.649 -0.079603 -1.91435 0
M  V30 2392 C 253.843 -3.4235 -1.02623 0
M  V30 2393 C 253.672 -4.49669 0.0528929 0
M  V30 2394 C 252.442 -5.02838 0.498234 0
M  V30 2395 C 254.64 -5.0725 0.848616 0
M  V30 2396 N 252.622 -5.93775 1.559 0
M  V30 2397 C 253.993 -5.94506 1.7596 0
M  V30 2398 C 256.048 -4.89788 0.895121 0
M  V30 2399 C 254.751 -6.66169 2.71314 0
M  V30 2400 C 256.777 -5.62161 1.83654 0
M  V30 2401 C 256.139 -6.49134 2.73503 0
M  V30 2402 H 252.238 -0.768332 -0.145566 0
M  V30 2403 H 254.822 -1.93012 0.255799 0
M  V30 2404 H 252.993 -3.47467 -1.73555 0
M  V30 2405 H 254.725 -3.70145 -1.63629 0
M  V30 2406 H 251.48 -4.73498 0.0983222 0
M  V30 2407 H 251.904 -6.43948 2.08949 0
M  V30 2408 H 256.546 -4.22255 0.21453 0
M  V30 2409 H 254.264 -7.32923 3.40367 0
M  V30 2410 H 257.85 -5.5064 1.87847 0
M  V30 2411 H 256.73 -7.04153 3.45163 0
M  V30 2412 N 254.233 0.115231 -1.57178 0
M  V30 2413 C 255.479 0.818565 -1.86202 0
M  V30 2414 C 255.834 1.77316 -0.746785 0
M  V30 2415 O 255.127 1.89923 0.25291 0
M  V30 2416 C 255.321 1.60324 -3.19423 0
M  V30 2417 C 255.15 0.726138 -4.43799 0
M  V30 2418 C 253.92 0.379535 -5.03873 0
M  V30 2419 C 256.118 0.0420774 -5.14283 0
M  V30 2420 N 254.1 -0.507841 -6.11796 0
M  V30 2421 C 255.471 -0.704152 -6.15988 0
M  V30 2422 C 257.526 -0.0339486 -4.97888 0
M  V30 2423 C 256.229 -1.51927 -7.03072 0
M  V30 2424 C 258.255 -0.835906 -5.85463 0
M  V30 2425 C 257.617 -1.57031 -6.86673 0
M  V30 2426 H 253.716 0.276343 -0.731545 0
M  V30 2427 H 256.3 0.0821032 -1.94527 0
M  V30 2428 H 254.471 2.31072 -3.12186 0
M  V30 2429 H 256.203 2.2522 -3.36241 0
M  V30 2430 H 252.958 0.722634 -4.68054 0
M  V30 2431 H 253.382 -0.94349 -6.70393 0
M  V30 2432 H 258.024 0.519496 -4.19596 0
M  V30 2433 H 255.742 -2.08386 -7.80769 0
M  V30 2434 H 259.328 -0.89714 -5.74841 0
M  V30 2435 H 258.208 -2.18088 -7.53264 0
M  V30 2436 N 255.711 1.52812 0.385517 0
M  V30 2437 C 256.959 1.67694 1.12797 0
M  V30 2438 C 257.28 0.421115 1.90399 0
M  V30 2439 O 256.55 -0.564551 1.87589 0
M  V30 2440 H 255.13 0.618155 0.419396 0
M  V30 2441 H 257.792 1.89938 0.436972 0
M  V30 2442 H 256.888 2.52896 1.82894 0
M  V30 2443 N 257.189 -0.644168 1.43834 0
M  V30 2444 C 258.152 -1.73857 1.49353 0
M  V30 2445 C 259.152 -1.56315 0.377112 0
M  V30 2446 O 260.342 -1.62048 0.639226 0
M  V30 2447 C 257.474 -3.12819 1.35488 0
M  V30 2448 H 258.667 -1.70342 2.46827 0
M  V30 2449 H 256.22 -0.856652 1.30733 0
M  V30 2450 H 256.955 -3.2194 0.390569 0
M  V30 2451 H 256.74 -3.26958 2.16428 0
M  V30 2452 H 258.23 -3.92606 1.42302 0
M  V30 2453 N 258.668 -1.30515 -0.883378 0
M  V30 2454 C 259.578 -1.18959 -2.02203 0
M  V30 2455 C 260.594 -0.109172 -1.73657 0
M  V30 2456 O 261.77 -0.324413 -1.9877 0
M  V30 2457 C 258.835 -0.883871 -3.35244 0
M  V30 2458 C 257.896 -2.04982 -3.77201 0
M  V30 2459 C 257.129 -1.75859 -5.03894 0
M  V30 2460 O 257.352 -0.687276 -5.66244 0
M  V30 2461 O 256.286 -2.61146 -5.42297 0
M  V30 2462 H 260.112 -2.14616 -2.1488 0
M  V30 2463 H 257.697 -1.10124 -1.0096 0
M  V30 2464 H 259.579 -0.728644 -4.15053 0
M  V30 2465 H 258.254 0.0427798 -3.23672 0
M  V30 2466 H 257.161 -2.26038 -2.9809 0
M  V30 2467 H 258.494 -2.95825 -3.93381 0
M  V30 2468 N 260.146 1.09593 -1.13257 0
M  V30 2469 C 261.056 2.19739 -0.821691 0
M  V30 2470 C 262.072 1.72926 0.19302 0
M  V30 2471 O 263.248 2.01385 0.0244895 0
M  V30 2472 C 260.313 3.45482 -0.290333 0
M  V30 2473 C 259.374 4.06985 -1.36607 0
M  V30 2474 C 258.607 5.26726 -0.859975 0
M  V30 2475 O 258.83 5.69594 0.303082 0
M  V30 2476 O 257.764 5.7931 -1.63351 0
M  V30 2477 H 261.59 2.48781 -1.74189 0
M  V30 2478 H 259.175 1.18496 -0.909894 0
M  V30 2479 H 261.057 4.214 0.000674022 0
M  V30 2480 H 259.732 3.18047 0.602306 0
M  V30 2481 H 258.639 3.32712 -1.71037 0
M  V30 2482 H 259.972 4.38643 -2.23279 0
M  V30 2483 N 261.624 0.925811 1.2754 0
M  V30 2484 C 262.554 0.440748 2.29303 0
M  V30 2485 C 263.535 -0.497971 1.62648 0
M  V30 2486 O 264.72 -0.403126 1.8997 0
M  V30 2487 C 261.85 -0.309048 3.45922 0
M  V30 2488 C 260.804 0.54166 4.24559 0
M  V30 2489 C 260.13 -0.337191 5.33636 0
M  V30 2490 C 261.43 1.80516 4.90114 0
M  V30 2491 H 263.124 1.29121 2.70126 0
M  V30 2492 H 260.67 0.622323 1.29858 0
M  V30 2493 H 262.623 -0.659315 4.1621 0
M  V30 2494 H 261.347 -1.19352 3.04011 0
M  V30 2495 H 260.006 0.874609 3.56014 0
M  V30 2496 H 259.654 -1.22056 4.87966 0
M  V30 2497 H 259.354 0.228497 5.87156 0
M  V30 2498 H 260.878 -0.683072 6.06767 0
M  V30 2499 H 262.292 1.52307 5.52698 0
M  V30 2500 H 260.689 2.3142 5.53683 0
M  V30 2501 H 261.759 2.52581 4.13921 0
M  V30 2502 N 263.102 -1.41638 0.69111 0
M  V30 2503 C 264.35 -2.00902 0.219758 0
M  V30 2504 C 264.671 -1.54994 -1.18329 0
M  V30 2505 O 263.941 -0.778628 -1.79762 0
M  V30 2506 H 262.521 -0.74289 0.0782558 0
M  V30 2507 H 265.183 -1.73327 0.891271 0
M  V30 2508 H 264.279 -3.11224 0.233708 0
M  V30 2509 N 264.58 -0.43555 -1.51462 0
M  V30 2510 C 265.51 0.367376 -2.30592 0
M  V30 2511 C 266.491 1.02263 -1.35928 0
M  V30 2512 O 267.676 1.02661 -1.64847 0
M  V30 2513 C 264.806 1.46983 -3.14664 0
M  V30 2514 C 263.76 0.938161 -4.17591 0
M  V30 2515 C 263.086 2.13622 -4.90173 0
M  V30 2516 C 264.386 -0.0261621 -5.22293 0
M  V30 2517 H 266.08 -0.292969 -2.97963 0
M  V30 2518 H 263.626 -0.14234 -1.43295 0
M  V30 2519 H 265.579 2.03873 -3.688 0
M  V30 2520 H 264.303 2.15843 -2.4511 0
M  V30 2521 H 262.962 0.391481 -3.64504 0
M  V30 2522 H 262.61 2.81098 -4.17124 0
M  V30 2523 H 262.31 1.78688 -5.59772 0
M  V30 2524 H 263.834 2.7107 -5.47132 0
M  V30 2525 H 265.248 0.452384 -5.71512 0
M  V30 2526 H 263.645 -0.287992 -5.99409 0
M  V30 2527 H 264.715 -0.963391 -4.75233 0
M  V30 2528 N 266.058 1.56714 -0.166846 0
M  V30 2529 C 267.307 1.95922 0.479318 0
M  V30 2530 C 267.62 1.05529 1.6469 0
M  V30 2531 O 268.826 1.34399 2.35901 0
M  V30 2532 C 267.282 3.48359 0.90412 0
M  V30 2533 C 266.89 4.47369 -0.237621 0
M  V30 2534 C 268.634 3.96394 1.51896 0
M  V30 2535 C 266.541 5.91039 0.206561 0
M  V30 2536 H 265.471 0.731495 0.18284 0
M  V30 2537 H 268.122 1.81728 -0.254363 0
M  V30 2538 H 266.504 3.57955 1.69365 0
M  V30 2539 H 267.678 4.49485 -1.01489 0
M  V30 2540 H 265.993 4.09366 -0.762128 0
M  V30 2541 H 268.59 5.01186 1.86325 0
M  V30 2542 H 268.933 3.39075 2.41524 0
M  V30 2543 H 269.466 3.89796 0.79395 0
M  V30 2544 H 266.205 6.52221 -0.654834 0
M  V30 2545 H 265.725 5.9224 0.949282 0
M  V30 2546 H 267.404 6.43707 0.651939 0
M  V30 2547 N 267.536 -0.106894 1.57237 0
M  V30 2548 C 268.784 -0.810921 1.85117 0
M  V30 2549 C 269.105 -1.7984 0.753827 0
M  V30 2550 O 268.375 -1.94649 -0.221056 0
M  V30 2551 H 266.955 -0.302466 0.683025 0
M  V30 2552 H 269.617 -0.0913324 1.94686 0
M  V30 2553 H 268.713 -1.34875 2.81452 0
M  V30 2554 N 269.014 -1.53014 -0.377408 0
M  V30 2555 C 270.239 -1.72818 -1.14668 0
M  V30 2556 C 270.664 -0.450725 -1.8262 0
M  V30 2557 O 270.022 0.59439 -1.7128 0
M  V30 2558 C 270.07 -2.88627 -2.16164 0
M  V30 2559 O 269.174 -2.56409 -3.22998 0
M  V30 2560 H 268.515 -0.574301 -0.333278 0
M  V30 2561 H 271.045 -1.99853 -0.438152 0
M  V30 2562 H 271.055 -3.14455 -2.59966 0
M  V30 2563 H 269.73 -3.81294 -1.66095 0
M  V30 2564 H 268.307 -2.4136 -2.84253 0
M  V30 2565 N 270.492 0.636531 -1.44174 0
M  V30 2566 C 271.439 1.74875 -1.50624 0
M  V30 2567 C 272.409 1.62275 -0.35442 0
M  V30 2568 O 273.594 1.82276 -0.563908 0
M  V30 2569 C 270.734 3.13102 -1.45125 0
M  V30 2570 C 269.847 3.36717 -2.7064 0
M  V30 2571 C 268.982 4.64885 -2.57013 0
M  V30 2572 C 268.021 4.8166 -3.77717 0
M  V30 2573 N 267.158 6.01101 -3.62798 0
M  V30 2574 H 271.998 1.68697 -2.45653 0
M  V30 2575 H 269.535 0.823004 -1.21922 0
M  V30 2576 H 271.493 3.93034 -1.39929 0
M  V30 2577 H 270.123 3.18308 -0.536671 0
M  V30 2578 H 269.175 2.50763 -2.86046 0
M  V30 2579 H 270.487 3.44993 -3.60252 0
M  V30 2580 H 269.641 5.52969 -2.49619 0
M  V30 2581 H 268.38 4.58957 -1.64953 0
M  V30 2582 H 267.385 3.92007 -3.85501 0
M  V30 2583 H 268.61 4.89406 -4.70807 0
M  V30 2584 H 266.556 5.96273 -2.73486 0
M  V30 2585 H 266.473 6.10409 -4.46023 0
M  V30 2586 H 267.741 6.91761 -3.59286 0
M  V30 2587 N 271.97 1.30982 0.876444 0
M  V30 2588 C 273.2 1.23063 1.65949 0
M  V30 2589 C 273.608 -0.207537 1.88058 0
M  V30 2590 O 272.951 -1.14781 1.43426 0
M  V30 2591 C 273.013 1.89768 3.05333 0
M  V30 2592 C 272.677 3.39106 3.0636 0
M  V30 2593 C 273.674 4.3496 2.84791 0
M  V30 2594 C 271.359 3.80693 3.27686 0
M  V30 2595 C 273.353 5.70375 2.84519 0
M  V30 2596 C 271.04 5.16223 3.27043 0
M  V30 2597 C 272.038 6.10875 3.05485 0
M  V30 2598 O 271.726 7.43928 3.04674 0
M  V30 2599 H 271.458 0.426685 0.524324 0
M  V30 2600 H 274.012 1.7329 1.10271 0
M  V30 2601 H 272.242 1.34082 3.6271 0
M  V30 2602 H 273.931 1.75853 3.65829 0
M  V30 2603 H 274.697 4.0416 2.68103 0
M  V30 2604 H 270.576 3.07457 3.43499 0
M  V30 2605 H 274.12 6.44228 2.67611 0
M  V30 2606 H 270.017 5.4666 3.43269 0
M  V30 2607 H 270.785 7.53022 3.2078 0
M  V30 2608 N 273.449 -1.08991 1.13837 0
M  V30 2609 C 274.679 -1.84743 0.924859 0
M  V30 2610 C 275.087 -1.81629 -0.529874 0
M  V30 2611 O 274.43 -1.21397 -1.37872 0
M  V30 2612 C 274.492 -3.33568 1.34061 0
M  V30 2613 C 274.156 -3.60425 2.80968 0
M  V30 2614 C 275.153 -3.55771 3.79108 0
M  V30 2615 C 272.838 -3.88627 3.18236 0
M  V30 2616 C 274.832 -3.78939 5.12527 0
M  V30 2617 C 272.519 -4.11449 4.51833 0
M  V30 2618 C 273.517 -4.06598 5.48787 0
M  V30 2619 O 273.205 -4.28826 6.79973 0
M  V30 2620 H 272.937 -0.590258 0.329502 0
M  V30 2621 H 275.491 -1.38598 1.51591 0
M  V30 2622 H 273.721 -3.80442 0.692853 0
M  V30 2623 H 275.41 -3.90743 1.09886 0
M  V30 2624 H 276.176 -3.34005 3.51661 0
M  V30 2625 H 272.055 -3.91526 2.43369 0
M  V30 2626 H 275.599 -3.75068 5.88192 0
M  V30 2627 H 271.496 -4.32698 4.79002 0
M  V30 2628 H 272.264 -4.46264 6.86142 0
M  V30 2629 N 274.927 -0.932562 -1.27047 0
M  V30 2630 C 276.173 -0.576412 -1.94436 0
M  V30 2631 C 276.506 0.880891 -1.73072 0
M  V30 2632 O 275.781 1.62905 -1.06264 0
M  V30 2633 C 276.064 -0.909031 -3.48437 0
M  V30 2634 C 275.917 -2.42044 -3.79123 0
M  V30 2635 C 277.236 -0.418341 -4.38107 0
M  V30 2636 H 274.355 -0.210888 -0.706184 0
M  V30 2637 H 276.997 -1.16522 -1.50075 0
M  V30 2638 H 275.147 -0.407947 -3.86352 0
M  V30 2639 H 276.819 -2.99359 -3.50973 0
M  V30 2640 H 275.062 -2.86758 -3.25503 0
M  V30 2641 H 275.733 -2.6037 -4.86736 0
M  V30 2642 H 278.209 -0.847856 -4.0737 0
M  V30 2643 H 277.085 -0.679981 -5.44672 0
M  V30 2644 H 277.346 0.681642 -4.36814 0
M  V30 2645 N 276.405 1.4127 -0.698611 0
M  V30 2646 C 277.353 2.32588 -0.023855 0
M  V30 2647 C 278.347 1.51128 0.765292 0
M  V30 2648 O 279.553 1.67043 0.670571 0
M  V30 2649 H 275.928 0.751918 0.0110871 0
M  V30 2650 H 277.899 2.87167 -0.811031 0
M  V30 2651 C 276.648 3.35947 0.896369 0
M  V30 2652 H 275.971 3.98684 0.298548 0
M  V30 2653 H 277.411 4.02376 1.33676 0
M  V30 2654 C 275.87 2.70076 2.01396 0
M  V30 2655 O 276.4 2.55093 3.10307 0
M  V30 2656 N 274.606 2.28724 1.79259 0
M  V30 2657 H 274.153 2.4111 0.906841 0
M  V30 2658 H 274.111 1.84986 2.54219 0
M  V30 2659 N 277.883 0.443576 1.51229 0
M  V30 2660 C 278.831 -0.37904 2.29491 0
M  V30 2661 C 279.825 -1.0153 1.35603 0
M  V30 2662 O 281.031 -0.94955 1.52917 0
M  V30 2663 H 277.406 -0.141053 0.738653 0
M  V30 2664 H 279.377 0.301799 2.9687 0
M  V30 2665 C 278.126 -1.46426 3.15364 0
M  V30 2666 H 277.449 -0.984037 3.87501 0
M  V30 2667 H 278.889 -2.01297 3.7317 0
M  V30 2668 C 277.348 -2.45099 2.31146 0
M  V30 2669 O 277.878 -3.49773 1.9754 0
M  V30 2670 N 276.084 -2.16139 1.94249 0
M  V30 2671 H 275.631 -1.31044 2.21777 0
M  V30 2672 H 275.589 -2.82398 1.38198 0
M  V30 2673 N 279.361 -1.56624 0.175154 0
M  V30 2674 C 280.291 -2.21155 -0.749195 0
M  V30 2675 C 281.272 -1.16836 -1.23626 0
M  V30 2676 O 282.457 -1.45277 -1.28873 0
M  V30 2677 C 279.587 -2.8553 -1.97711 0
M  V30 2678 C 278.541 -3.95921 -1.62575 0
M  V30 2679 C 277.867 -4.47365 -2.92864 0
M  V30 2680 C 279.167 -5.15323 -0.850838 0
M  V30 2681 H 280.861 -2.98653 -0.211295 0
M  V30 2682 H 278.407 -1.43651 -0.100188 0
M  V30 2683 H 280.36 -3.2935 -2.62881 0
M  V30 2684 H 279.084 -2.05406 -2.53921 0
M  V30 2685 H 277.743 -3.52762 -0.997719 0
M  V30 2686 H 277.391 -3.64027 -3.47122 0
M  V30 2687 H 277.091 -5.21839 -2.70106 0
M  V30 2688 H 278.615 -4.93873 -3.59056 0
M  V30 2689 H 280.029 -5.55812 -1.40521 0
M  V30 2690 H 278.426 -5.95739 -0.722154 0
M  V30 2691 H 279.496 -4.84661 0.152082 0
M  V30 2692 N 280.839 0.0985539 -1.57292 0
M  V30 2693 C 282.25 0.653457 -1.74891 0
M  V30 2694 C 282.601 1.7929 -0.796838 0
M  V30 2695 O 281.726 2.16385 0.0254886 0
M  V30 2696 C 282.321 1.19216 -3.17133 0
M  V30 2697 C 280.88 1.69316 -3.36168 0
M  V30 2698 C 280.027 0.601294 -2.70702 0
M  V30 2699 H 282.978 -0.127497 -1.58187 0
M  V30 2700 H 282.999 2.06154 -3.19814 0
M  V30 2701 H 282.511 0.362635 -3.86402 0
M  V30 2702 H 280.612 2.5468 -2.71972 0
M  V30 2703 H 280.725 1.78853 -4.44464 0
M  V30 2704 H 279.089 1.0399 -2.32504 0
M  V30 2705 H 279.872 -0.217592 -3.4261 0
M  V30 2706 N 282.317 1.53212 0.369288 0
M  V30 2707 C 283.542 1.73423 1.1375 0
M  V30 2708 C 283.967 0.460404 1.82378 0
M  V30 2709 O 283.325 -0.585298 1.71592 0
M  V30 2710 C 283.373 2.89769 2.1463 0
M  V30 2711 O 282.477 2.58119 3.21634 0
M  V30 2712 H 281.818 0.576061 0.330227 0
M  V30 2713 H 284.348 2.00083 0.427547 0
M  V30 2714 H 284.358 3.15829 2.58294 0
M  V30 2715 H 283.033 3.8217 1.64071 0
M  V30 2716 H 281.61 2.42864 2.82969 0
M  V30 2717 N 283.795 -0.628877 1.44509 0
M  V30 2718 C 284.758 -1.72263 1.51188 0
M  V30 2719 C 285.758 -1.55907 0.39367 0
M  V30 2720 O 286.948 -1.61361 0.656377 0
M  V30 2721 C 284.08 -3.11365 1.38798 0
M  V30 2722 H 285.273 -1.67714 2.4862 0
M  V30 2723 H 282.826 -0.842737 1.31634 0
M  V30 2724 H 283.561 -3.21507 0.424693 0
M  V30 2725 H 283.346 -3.24644 2.19884 0
M  V30 2726 H 284.836 -3.91075 1.46458 0
M  V30 2727 N 285.273 -1.31445 -0.869486 0
M  V30 2728 C 286.55 -1.11795 -1.60503 0
M  V30 2729 C 286.93 0.327168 -2.08549 0
M  V30 2730 O 286.278 1.32135 -1.8642 0
M  V30 2731 C 286.488 -2.13258 -2.76265 0
M  V30 2732 C 287.836 -2.45805 -3.46215 0
M  V30 2733 O 288.86 -2.11688 -2.86473 0
M  V30 2734 O 287.719 -3.04228 -4.5399 0
M  V30 2735 H 284.813 -0.430421 -0.706163 0
M  V30 2736 H 287.359 -1.42925 -0.914907 0
M  V30 2737 H 286.131 -3.10461 -2.3818 0
M  V30 2738 H 285.754 -1.83035 -3.52964 0
M  V30 2739 N 286.751 1.08385 -1.14413 0
M  V30 2740 C 288.167 1.32844 -0.884563 0
M  V30 2741 C 288.367 1.95841 0.474181 0
M  V30 2742 O 287.423 2.21158 1.21842 0
M  V30 2743 C 288.736 2.22978 -2.01745 0
M  V30 2744 C 290.284 2.36458 -2.05077 0
M  V30 2745 C 290.759 3.29934 -3.1766 0
M  V30 2746 N 292.25 3.37511 -3.17239 0
M  V30 2747 C 292.985 4.09871 -4.0099 0
M  V30 2748 N 292.481 4.84936 -4.94781 0
M  V30 2749 N 294.274 4.05704 -3.89051 0
M  V30 2750 H 286.425 0.658756 -2.01926 0
M  V30 2751 H 288.688 0.352821 -0.879899 0
M  V30 2752 H 288.394 1.83934 -2.99769 0
M  V30 2753 H 288.268 3.23441 -1.94077 0
M  V30 2754 H 290.655 2.7476 -1.0766 0
M  V30 2755 H 290.736 1.35736 -2.16816 0
M  V30 2756 H 290.38 2.92352 -4.15322 0
M  V30 2757 H 290.31 4.30584 -3.03158 0
M  V30 2758 H 292.801 2.83996 -2.49308 0
M  V30 2759 H 293.114 5.37612 -5.55151 0
M  V30 2760 H 291.459 4.83988 -4.98779 0
M  V30 2761 H 294.65 3.46167 -3.15097 0
M  V30 2762 H 294.823 4.61834 -4.54547 0
M  V30 2763 N 288.23 0.939286 1.26551 0
M  V30 2764 C 289.455 0.602008 1.98471 0
M  V30 2765 C 289.88 -0.815624 1.69497 0
M  V30 2766 O 289.238 -1.54912 0.941905 0
M  V30 2767 C 289.286 0.848407 3.50477 0
M  V30 2768 O 288.39 -0.0804009 4.12322 0
M  V30 2769 H 287.731 0.23049 0.622712 0
M  V30 2770 H 290.261 1.2617 1.61066 0
M  V30 2771 H 290.271 0.768553 4.00696 0
M  V30 2772 H 288.946 1.88171 3.70897 0
M  V30 2773 H 287.523 0.0503508 3.72866 0
M  V30 2774 N 289.708 -1.40897 0.706093 0
M  V30 2775 C 290.655 -2.30751 0.0474474 0
M  V30 2776 C 291.625 -1.47678 -0.76029 0
M  V30 2777 O 292.81 -1.76441 -0.726177 0
M  V30 2778 C 289.95 -3.33815 -0.875309 0
M  V30 2779 C 289.063 -4.31961 -0.0580623 0
M  V30 2780 C 288.198 -5.22093 -0.979425 0
M  V30 2781 C 287.237 -6.11902 -0.155706 0
M  V30 2782 N 286.374 -6.94482 -1.03144 0
M  V30 2783 H 291.214 -2.86513 0.819413 0
M  V30 2784 H 288.751 -1.41102 0.415783 0
M  V30 2785 H 290.709 -3.92129 -1.42446 0
M  V30 2786 H 289.339 -2.79579 -1.61356 0
M  V30 2787 H 288.391 -3.75507 0.608147 0
M  V30 2788 H 289.703 -4.95415 0.580082 0
M  V30 2789 H 288.857 -5.85292 -1.59744 0
M  V30 2790 H 287.596 -4.5889 -1.65141 0
M  V30 2791 H 286.601 -5.47742 0.475309 0
M  V30 2792 H 287.826 -6.77162 0.512635 0
M  V30 2793 H 285.772 -6.33877 -1.68924 0
M  V30 2794 H 285.689 -7.54665 -0.449108 0
M  V30 2795 H 286.957 -7.6214 -1.63593 0
M  V30 2796 N 291.186 -0.45159 -1.50991 0
M  V30 2797 C 292.116 0.342898 -2.30969 0
M  V30 2798 C 293.097 1.00815 -1.37005 0
M  V30 2799 O 294.282 1.00907 -1.65926 0
M  V30 2800 C 291.412 1.43637 -3.16205 0
M  V30 2801 C 290.366 0.893818 -4.18563 0
M  V30 2802 C 289.692 2.08411 -4.92411 0
M  V30 2803 C 290.992 -0.0815568 -5.22236 0
M  V30 2804 H 292.686 -0.324556 -2.97636 0
M  V30 2805 H 290.232 -0.157531 -1.43136 0
M  V30 2806 H 292.185 1.9995 -3.70942 0
M  V30 2807 H 290.909 2.13232 -2.47386 0
M  V30 2808 H 289.568 0.352798 -3.64898 0
M  V30 2809 H 289.216 2.76658 -4.20082 0
M  V30 2810 H 288.916 1.72741 -5.61636 0
M  V30 2811 H 290.44 2.65251 -5.49976 0
M  V30 2812 H 291.854 0.391742 -5.7196 0
M  V30 2813 H 290.251 -0.351551 -5.99069 0
M  V30 2814 H 291.321 -1.01374 -4.74185 0
M  V30 2815 N 292.664 1.56529 -0.183458 0
M  V30 2816 C 293.627 2.17324 0.728223 0
M  V30 2817 C 294.627 1.12453 1.14939 0
M  V30 2818 O 295.817 1.37902 1.06437 0
M  V30 2819 C 292.949 2.76591 1.99274 0
M  V30 2820 H 294.142 2.99241 0.198772 0
M  V30 2821 H 291.695 1.5616 0.0661391 0
M  V30 2822 H 292.43 1.98441 2.56499 0
M  V30 2823 H 292.215 3.5335 1.69959 0
M  V30 2824 H 293.705 3.23311 2.6431 0
M  V30 2825 N 294.142 -0.090211 1.57342 0
M  V30 2826 C 295.39 -0.791241 1.85967 0
M  V30 2827 C 295.711 -1.7903 0.772859 0
M  V30 2828 O 294.981 -1.94872 -0.200398 0
M  V30 2829 H 293.561 -0.295205 0.686195 0
M  V30 2830 H 296.223 -0.0706782 1.94772 0
M  V30 2831 H 295.319 -1.31882 2.82867 0
M  V30 2832 N 295.62 -1.53406 -0.361157 0
M  V30 2833 C 296.85 -1.73465 -1.1222 0
M  V30 2834 C 297.258 -0.465486 -1.83384 0
M  V30 2835 O 296.601 0.571611 -1.7458 0
M  V30 2836 C 296.663 -2.84834 -2.19339 0
M  V30 2837 C 296.327 -4.25038 -1.67903 0
M  V30 2838 C 297.324 -5.07231 -1.14074 0
M  V30 2839 C 295.009 -4.71464 -1.73282 0
M  V30 2840 C 297.003 -6.33942 -0.663068 0
M  V30 2841 C 294.69 -5.98153 -1.25127 0
M  V30 2842 C 295.688 -6.79223 -0.717296 0
M  V30 2843 O 295.376 -8.03533 -0.242865 0
M  V30 2844 H 295.108 -0.583526 -0.341283 0
M  V30 2845 H 297.662 -2.00964 -0.424591 0
M  V30 2846 H 295.892 -2.5282 -2.92607 0
M  V30 2847 H 297.581 -2.9303 -2.80871 0
M  V30 2848 H 298.347 -4.72534 -1.09254 0
M  V30 2849 H 294.226 -4.08432 -2.13786 0
M  V30 2850 H 297.77 -6.97167 -0.245612 0
M  V30 2851 H 293.667 -6.32347 -1.29642 0
M  V30 2852 H 294.435 -8.177 -0.361786 0
M  V30 2853 N 297.098 0.621204 -1.44841 0
M  V30 2854 C 298.028 1.74366 -1.55303 0
M  V30 2855 C 299.009 1.65199 -0.405385 0
M  V30 2856 O 300.194 1.83807 -0.626787 0
M  V30 2857 C 297.324 3.12931 -1.50637 0
M  V30 2858 C 296.278 3.36896 -2.63979 0
M  V30 2859 C 295.604 4.75594 -2.44366 0
M  V30 2860 C 296.904 3.28483 -4.06074 0
M  V30 2861 H 298.598 1.65867 -2.49256 0
M  V30 2862 H 296.144 0.796558 -1.19962 0
M  V30 2863 H 298.097 3.9124 -1.56555 0
M  V30 2864 H 296.821 3.22237 -0.532057 0
M  V30 2865 H 295.48 2.60972 -2.57467 0
M  V30 2866 H 295.128 4.81616 -1.45105 0
M  V30 2867 H 294.828 4.92586 -3.20364 0
M  V30 2868 H 296.352 5.5612 -2.52117 0
M  V30 2869 H 297.766 3.96684 -4.13902 0
M  V30 2870 H 296.163 3.57008 -4.82354 0
M  V30 2871 H 297.233 2.26133 -4.28943 0
M  V30 2872 N 298.576 1.31904 0.862503 0
M  V30 2873 C 299.524 1.20125 1.9918 0
M  V30 2874 C 300.518 0.107824 1.69056 0
M  V30 2875 O 301.724 0.270223 1.7796 0
M  V30 2876 H 298.099 0.372148 0.65346 0
M  V30 2877 H 300.07 2.15652 2.06244 0
M  V30 2878 C 298.819 0.933099 3.34946 0
M  V30 2879 H 298.142 1.76664 3.5865 0
M  V30 2880 H 299.582 0.890892 4.14535 0
M  V30 2881 C 298.041 -0.364172 3.34926 0
M  V30 2882 O 298.571 -1.37858 3.77304 0
M  V30 2883 N 296.777 -0.383362 2.8806 0
M  V30 2884 H 296.324 0.442651 2.53768 0
M  V30 2885 H 296.282 -1.25123 2.8843 0
M  V30 2886 N 300.054 -1.07777 1.14986 0
M  V30 2887 C 301.301 -1.8029 0.922056 0
M  V30 2888 C 301.629 -1.86531 -0.55105 0
M  V30 2889 O 300.884 -1.34189 -1.42449 0
M  V30 2890 C 301.183 -3.25495 1.47608 0
M  V30 2891 C 300.849 -3.39361 2.96893 0
M  V30 2892 C 299.511 -3.42852 3.37647 0
M  V30 2893 C 301.863 -3.42512 3.92854 0
M  V30 2894 C 299.191 -3.47094 4.73015 0
M  V30 2895 C 301.543 -3.4829 5.28088 0
M  V30 2896 C 300.207 -3.50058 5.68345 0
M  V30 2897 H 299.477 -0.659727 0.337404 0
M  V30 2898 H 302.124 -1.26854 1.43459 0
M  V30 2899 H 300.429 -3.81683 0.88463 0
M  V30 2900 H 302.126 -3.80168 1.27568 0
M  V30 2901 H 298.716 -3.37339 2.64387 0
M  V30 2902 H 302.9 -3.3904 3.62444 0
M  V30 2903 H 298.156 -3.46758 5.03556 0
M  V30 2904 H 302.33 -3.49675 6.02246 0
M  V30 2905 H 299.957 -3.53097 6.73221 0
M  V30 2906 N 301.532 -0.945985 -1.26051 0
M  V30 2907 C 302.809 -0.513816 -1.88731 0
M  V30 2908 C 303.189 1.00872 -1.8544 0
M  V30 2909 O 302.537 1.8708 -1.312 0
M  V30 2910 C 302.747 -1.08062 -3.31849 0
M  V30 2911 C 304.095 -1.1522 -4.08668 0
M  V30 2912 O 305.119 -1.03155 -3.40936 0
M  V30 2913 O 303.978 -1.34044 -5.29806 0
M  V30 2914 H 301.072 -0.168193 -0.809716 0
M  V30 2915 H 303.618 -1.03886 -1.34186 0
M  V30 2916 H 302.39 -2.1241 -3.2863 0
M  V30 2917 H 302.013 -0.538307 -3.93939 0
M  V30 2918 N 303.011 1.40521 -0.713556 0
M  V30 2919 C 303.944 2.28198 -0.00881422 0
M  V30 2920 C 304.922 1.43227 0.769735 0
M  V30 2921 O 306.106 1.72641 0.756799 0
M  V30 2922 C 303.233 3.23758 0.994899 0
M  V30 2923 C 302.279 4.25391 0.3074 0
M  V30 2924 S 303.112 5.26765 -0.963247 0
M  V30 2925 C 304.268 6.25888 0.0384143 0
M  V30 2926 H 304.501 2.87622 -0.752407 0
M  V30 2927 H 302.034 1.45925 -0.504502 0
M  V30 2928 H 303.992 3.79341 1.56879 0
M  V30 2929 H 302.653 2.63396 1.71118 0
M  V30 2930 H 301.846 4.92596 1.0661 0
M  V30 2931 H 301.448 3.73497 -0.193879 0
M  V30 2932 H 303.74 6.71683 0.885912 0
M  V30 2933 H 304.683 7.05552 -0.60019 0
M  V30 2934 H 305.091 5.63072 0.401233 0
M  V30 2935 N 304.489 0.459591 1.5075 0
M  V30 2936 C 305.738 -0.100971 2.01447 0
M  V30 2937 C 306.051 -1.41816 1.34713 0
M  V30 2938 O 307.257 -2.06299 1.76502 0
M  V30 2939 C 305.713 -0.23047 3.59161 0
M  V30 2940 C 305.321 1.0776 4.34847 0
M  V30 2941 C 307.065 -0.743608 4.17936 0
M  V30 2942 C 304.972 0.91253 5.84317 0
M  V30 2943 H 303.902 -0.0415102 0.752856 0
M  V30 2944 H 306.553 0.592742 1.73663 0
M  V30 2945 H 304.935 -0.987703 3.83485 0
M  V30 2946 H 306.109 1.8449 4.22256 0
M  V30 2947 H 304.424 1.52097 3.87628 0
M  V30 2948 H 307.021 -0.883959 5.27343 0
M  V30 2949 H 307.364 -1.73196 3.78562 0
M  V30 2950 H 307.897 -0.04408 3.97776 0
M  V30 2951 H 304.636 1.87391 6.28144 0
M  V30 2952 H 304.156 0.185422 5.99513 0
M  V30 2953 H 305.835 0.574547 6.44444 0
M  V30 2954 N 305.967 -1.56429 0.191757 0
M  V30 2955 C 307.215 -1.97095 -0.447006 0
M  V30 2956 C 307.536 -1.07967 -1.62383 0
M  V30 2957 O 306.806 -0.150248 -1.95323 0
M  V30 2958 H 305.386 -0.727832 -0.168135 0
M  V30 2959 H 308.048 -1.92911 0.27771 0
M  V30 2960 H 307.144 -3.01848 -0.793371 0
M  V30 2961 N 307.445 0.0818655 -1.57387 0
M  V30 2962 C 308.67 0.799946 -1.91352 0
M  V30 2963 C 309.095 1.70833 -0.787258 0
M  V30 2964 O 308.453 1.79419 0.26048 0
M  V30 2965 C 308.501 1.57812 -3.24234 0
M  V30 2966 O 307.605 2.68806 -3.12757 0
M  V30 2967 H 306.946 0.21891 -0.626877 0
M  V30 2968 H 309.476 0.0531256 -2.04531 0
M  V30 2969 H 309.486 1.95952 -3.57864 0
M  V30 2970 H 308.161 0.911548 -4.05788 0
M  V30 2971 H 306.738 2.33597 -2.90666 0
M  V30 2972 N 308.923 1.53595 0.353017 0
M  V30 2973 C 310.334 1.61937 0.929153 0
M  V30 2974 C 310.685 0.494686 1.89861 0
M  V30 2975 O 309.81 -0.377017 2.1309 0
M  V30 2976 C 310.405 2.93526 1.69199 0
M  V30 2977 C 308.964 3.04161 2.21727 0
M  V30 2978 C 308.111 2.57322 1.03348 0
M  V30 2979 H 311.062 1.58155 0.131431 0
M  V30 2980 H 311.083 2.82034 2.55416 0
M  V30 2981 H 310.595 3.75362 0.986144 0
M  V30 2982 H 308.696 2.26938 2.95516 0
M  V30 2983 H 308.809 4.09465 2.48748 0
M  V30 2984 H 307.173 2.12499 1.40414 0
M  V30 2985 H 307.956 3.41588 0.342428 0
M  V30 2986 N 310.401 -0.613514 1.45168 0
M  V30 2987 C 311.349 -1.74572 1.53712 0
M  V30 2988 C 312.343 -1.64426 0.407505 0
M  V30 2989 O 313.549 -1.70291 0.583176 0
M  V30 2990 H 309.924 -0.576641 0.48269 0
M  V30 2991 H 311.895 -1.64492 2.48968 0
M  V30 2992 C 310.644 -3.12943 1.51532 0
M  V30 2993 H 309.967 -3.21407 2.37776 0
M  V30 2994 H 311.407 -3.9201 1.61569 0
M  V30 2995 C 309.866 -3.36053 0.238798 0
M  V30 2996 O 310.396 -3.95837 -0.6838 0
M  V30 2997 N 308.602 -2.9028 0.136359 0
M  V30 2998 H 308.149 -2.41811 0.887999 0
M  V30 2999 H 308.107 -3.06116 -0.716944 0
M  V30 3000 N 311.879 -1.3236 -0.855495 0
M  V30 3001 C 313.29 -1.2056 -1.42556 0
M  V30 3002 C 313.641 0.182209 -1.95352 0
M  V30 3003 O 312.766 1.08088 -1.87472 0
M  V30 3004 C 313.361 -2.1826 -2.59129 0
M  V30 3005 C 311.92 -2.10351 -3.12137 0
M  V30 3006 C 311.067 -2.06674 -1.84882 0
M  V30 3007 H 314.018 -1.442 -0.662727 0
M  V30 3008 H 314.039 -1.78064 -3.36264 0
M  V30 3009 H 313.551 -3.19257 -2.20673 0
M  V30 3010 H 311.652 -1.12599 -3.55179 0
M  V30 3011 H 311.765 -3.00135 -3.73438 0
M  V30 3012 H 310.129 -1.51901 -2.04446 0
M  V30 3013 H 310.912 -3.09451 -1.48643 0
M  V30 3014 N 313.357 1.07166 -1.15556 0
M  V30 3015 C 314.605 1.79443 -0.929764 0
M  V30 3016 C 314.926 1.87246 0.544414 0
M  V30 3017 O 314.196 1.37473 1.39564 0
M  V30 3018 H 312.776 0.664625 -0.341003 0
M  V30 3019 H 315.438 1.29499 -1.45657 0
M  V30 3020 H 314.534 2.81832 -1.34079 0
M  V30 3021 N 314.835 0.952656 1.25548 0
M  V30 3022 C 316.065 0.622592 1.96996 0
M  V30 3023 C 316.473 -0.809112 1.71026 0
M  V30 3024 O 315.816 -1.55258 0.981861 0
M  V30 3025 C 315.878 0.798946 3.5051 0
M  V30 3026 C 315.542 2.20744 4.00151 0
M  V30 3027 C 316.539 3.18394 4.11001 0
M  V30 3028 C 314.224 2.5311 4.33867 0
M  V30 3029 C 316.218 4.46504 4.54877 0
M  V30 3030 C 313.905 3.8145 4.7743 0
M  V30 3031 C 314.903 4.77959 4.87897 0
M  V30 3032 O 314.591 6.04012 5.30494 0
M  V30 3033 H 314.323 0.232503 0.634758 0
M  V30 3034 H 316.877 1.2789 1.60728 0
M  V30 3035 H 315.107 0.0854903 3.86605 0
M  V30 3036 H 316.796 0.47023 4.03167 0
M  V30 3037 H 317.562 2.94715 3.85186 0
M  V30 3038 H 313.441 1.78719 4.24948 0
M  V30 3039 H 316.985 5.21835 4.62962 0
M  V30 3040 H 312.882 4.04936 5.0269 0
M  V30 3041 H 313.65 6.0736 5.48685 0
M  V30 3042 N 316.313 -1.40141 0.720998 0
M  V30 3043 C 317.56 -2.00787 0.262842 0
M  V30 3044 C 317.888 -1.5718 -1.14563 0
M  V30 3045 O 317.143 -0.785391 -1.79249 0
M  V30 3046 C 317.442 -3.56165 0.296892 0
M  V30 3047 C 317.108 -4.19373 1.65641 0
M  V30 3048 C 315.77 -4.36352 2.02855 0
M  V30 3049 C 318.122 -4.54578 2.54968 0
M  V30 3050 C 315.45 -4.8582 3.28931 0
M  V30 3051 C 317.802 -5.05447 3.80402 0
M  V30 3052 C 316.466 -5.20635 4.17726 0
M  V30 3053 H 315.736 -0.734731 0.0961807 0
M  V30 3054 H 318.383 -1.67673 0.925093 0
M  V30 3055 H 316.688 -3.8922 -0.448932 0
M  V30 3056 H 318.385 -4.00929 -0.0755208 0
M  V30 3057 H 314.975 -4.06549 1.35704 0
M  V30 3058 H 319.159 -4.41091 2.27491 0
M  V30 3059 H 314.415 -4.95764 3.57811 0
M  V30 3060 H 318.589 -5.31663 4.49786 0
M  V30 3061 H 316.216 -5.58728 5.15487 0
M  V30 3062 N 317.792 -0.46758 -1.50504 0
M  V30 3063 C 319.038 0.0887532 -2.02606 0
M  V30 3064 C 319.371 1.39686 -1.34913 0
M  V30 3065 O 318.646 1.88644 -0.473694 0
M  V30 3066 C 318.929 0.276206 -3.59039 0
M  V30 3067 C 318.782 -1.05267 -4.37309 0
M  V30 3068 C 320.101 1.03235 -4.27821 0
M  V30 3069 H 317.22 0.0307814 -0.736357 0
M  V30 3070 H 319.862 -0.612485 -1.79857 0
M  V30 3071 H 318.012 0.8735 -3.78553 0
M  V30 3072 H 319.684 -1.68628 -4.29374 0
M  V30 3073 H 317.927 -1.65015 -4.01189 0
M  V30 3074 H 318.598 -0.875197 -5.45018 0
M  V30 3075 H 321.074 0.526111 -4.12761 0
M  V30 3076 H 319.95 1.1323 -5.37094 0
M  V30 3077 H 320.211 2.06806 -3.90748 0
M  V30 3078 N 319.27 1.56325 -0.20005 0
M  V30 3079 C 320.5 2.01811 0.442232 0
M  V30 3080 C 320.908 1.07932 1.55394 0
M  V30 3081 O 320.251 0.0772685 1.83537 0
M  V30 3082 C 320.313 3.43685 1.05457 0
M  V30 3083 C 319.977 4.56928 0.0809833 0
M  V30 3084 C 320.974 5.15009 -0.711471 0
M  V30 3085 C 318.659 5.0229 -0.0315364 0
M  V30 3086 C 320.653 6.16904 -1.60336 0
M  V30 3087 C 318.34 6.04028 -0.926981 0
M  V30 3088 C 319.338 6.6121 -1.71146 0
M  V30 3089 O 319.026 7.60971 -2.59189 0
M  V30 3090 H 318.758 0.666173 0.114848 0
M  V30 3091 H 321.312 2.03085 -0.307511 0
M  V30 3092 H 319.542 3.39413 1.85299 0
M  V30 3093 H 321.231 3.72948 1.60201 0
M  V30 3094 H 321.997 4.80827 -0.634873 0
M  V30 3095 H 317.876 4.57476 0.568902 0
M  V30 3096 H 321.42 6.61464 -2.21611 0
M  V30 3097 H 317.317 6.37634 -1.00468 0
M  V30 3098 H 318.085 7.7841 -2.53023 0
M  V30 3099 N 320.748 -0.0735177 1.57428 0
M  V30 3100 C 322.025 -0.805903 1.78226 0
M  V30 3101 C 322.405 -1.95874 0.787189 0
M  V30 3102 O 321.753 -2.2779 -0.180029 0
M  V30 3103 C 321.963 -1.28045 3.24662 0
M  V30 3104 C 323.311 -1.71453 3.88444 0
M  V30 3105 O 324.335 -1.37616 3.28543 0
M  V30 3106 O 323.194 -2.34093 4.93825 0
M  V30 3107 H 320.288 -0.386041 0.73137 0
M  V30 3108 H 322.834 -0.0537269 1.69615 0
M  V30 3109 H 321.606 -0.455476 3.8864 0
M  V30 3110 H 321.229 -2.094 3.37991 0
M  V30 3111 N 322.226 -1.5378 -0.344866 0
M  V30 3112 C 323.503 -1.61589 -1.10219 0
M  V30 3113 C 323.883 -0.436316 -2.06542 0
M  V30 3114 O 323.231 0.571543 -2.21237 0
M  V30 3115 C 323.441 -2.97602 -1.82301 0
M  V30 3116 C 324.789 -3.5291 -2.36093 0
M  V30 3117 O 325.813 -2.99768 -1.924 0
M  V30 3118 O 324.672 -4.45859 -3.16026 0
M  V30 3119 H 321.766 -0.653522 -0.506792 0
M  V30 3120 H 324.312 -1.66126 -0.346465 0
M  V30 3121 H 323.084 -3.74893 -1.12121 0
M  V30 3122 H 322.707 -2.9665 -2.64735 0
M  V30 3123 N 323.704 0.605807 -1.45491 0
M  V30 3124 C 324.981 1.36522 -1.40075 0
M  V30 3125 C 325.361 2.10976 -0.0722744 0
M  V30 3126 O 324.709 2.08007 0.945808 0
M  V30 3127 C 324.919 2.31056 -2.61561 0
M  V30 3128 C 326.267 2.93608 -3.06724 0
M  V30 3129 O 327.291 2.41376 -2.61946 0
M  V30 3130 O 326.15 3.88421 -3.84437 0
M  V30 3131 H 323.244 0.612248 -0.555951 0
M  V30 3132 H 325.79 0.628747 -1.57623 0
M  V30 3133 H 324.562 1.75311 -3.49831 0
M  V30 3134 H 324.185 3.12081 -2.46356 0
M  V30 3135 N 325.182 1.32811 0.848464 0
M  V30 3136 C 326.593 1.21315 1.41914 0
M  V30 3137 C 326.944 -0.171847 1.95446 0
M  V30 3138 O 326.069 -1.07093 1.88043 0
M  V30 3139 C 326.664 2.19631 2.57968 0
M  V30 3140 C 325.223 2.12003 3.11017 0
M  V30 3141 C 324.37 2.07651 1.83783 0
M  V30 3142 H 327.321 1.44549 0.655071 0
M  V30 3143 H 327.342 1.79845 3.35315 0
M  V30 3144 H 326.854 3.20423 2.18976 0
M  V30 3145 H 324.955 1.14481 3.54577 0
M  V30 3146 H 325.068 3.02111 3.71841 0
M  V30 3147 H 323.432 1.52983 2.03638 0
M  V30 3148 H 324.215 3.10235 1.47 0
M  V30 3149 N 326.66 -1.06551 1.16123 0
M  V30 3150 C 327.906 -1.79567 0.94252 0
M  V30 3151 C 328.239 -1.86869 -0.528547 0
M  V30 3152 O 327.514 -1.35838 -1.39206 0
M  V30 3153 C 327.797 -3.24195 1.56747 0
M  V30 3154 C 327.65 -3.24989 3.10969 0
M  V30 3155 C 328.969 -4.21678 1.25998 0
M  V30 3156 H 326.088 -0.651883 0.343828 0
M  V30 3157 H 328.73 -1.2463 1.43413 0
M  V30 3158 H 326.88 -3.71107 1.14942 0
M  V30 3159 H 328.552 -2.86258 3.61737 0
M  V30 3160 H 326.795 -2.63716 3.44436 0
M  V30 3161 H 327.466 -4.27005 3.49815 0
M  V30 3162 H 329.942 -3.83196 1.62174 0
M  V30 3163 H 328.818 -5.21146 1.7233 0
M  V30 3164 H 329.079 -4.4174 0.178367 0
M  V30 3165 N 328.138 -0.959301 -1.25041 0
M  V30 3166 C 329.387 -0.612254 -1.92183 0
M  V30 3167 C 329.7 0.855347 -1.75907 0
M  V30 3168 O 330.906 1.31256 -2.37664 0
M  V30 3169 C 329.362 -1.04435 -3.44414 0
M  V30 3170 C 328.97 -2.53482 -3.69393 0
M  V30 3171 C 330.714 -0.770055 -4.17457 0
M  V30 3172 C 328.621 -2.90468 -5.15153 0
M  V30 3173 H 327.551 -0.225279 -0.719559 0
M  V30 3174 H 330.202 -1.16438 -1.41825 0
M  V30 3175 H 328.584 -0.4206 -3.9376 0
M  V30 3176 H 329.758 -3.20916 -3.30681 0
M  V30 3177 H 328.073 -2.78432 -3.0962 0
M  V30 3178 H 330.67 -1.02249 -5.24832 0
M  V30 3179 H 331.013 0.293611 -4.15263 0
M  V30 3180 H 331.546 -1.35437 -3.74034 0
M  V30 3181 H 328.285 -3.95871 -5.22462 0
M  V30 3182 H 327.805 -2.27711 -5.54894 0
M  V30 3183 H 329.484 -2.79914 -5.83315 0
M  V30 3184 N 329.616 1.39756 -0.72842 0
M  V30 3185 C 330.526 2.34444 -0.0855374 0
M  V30 3186 C 331.542 1.57976 0.729356 0
M  V30 3187 O 332.718 1.90301 0.659346 0
M  V30 3188 C 329.783 3.36965 0.815798 0
M  V30 3189 C 328.844 4.29299 -0.0105996 0
M  V30 3190 C 328.077 5.26923 0.84781 0
M  V30 3191 O 328.3 5.30859 2.08673 0
M  V30 3192 O 327.234 6.01249 0.279969 0
M  V30 3193 H 331.06 2.91065 -0.866892 0
M  V30 3194 H 328.645 1.4117 -0.48902 0
M  V30 3195 H 330.527 3.99804 1.33171 0
M  V30 3196 H 329.202 2.82739 1.57608 0
M  V30 3197 H 328.109 3.69703 -0.571877 0
M  V30 3198 H 329.442 4.86712 -0.73295 0
M  V30 3199 N 331.094 0.475555 1.50254 0
M  V30 3200 C 332.041 -0.316293 2.28622 0
M  V30 3201 C 333.011 -0.983227 1.33873 0
M  V30 3202 O 334.196 -0.994805 1.62814 0
M  V30 3203 C 331.336 -1.38975 3.1588 0
M  V30 3204 C 330.449 -0.737146 4.25664 0
M  V30 3205 C 329.584 -1.78887 5.00173 0
M  V30 3206 C 328.623 -1.11676 6.01826 0
M  V30 3207 N 327.76 -2.11154 6.69596 0
M  V30 3208 H 332.6 0.358297 2.95838 0
M  V30 3209 H 330.137 0.188541 1.45887 0
M  V30 3210 H 332.095 -2.02383 3.64825 0
M  V30 3211 H 330.725 -2.03344 2.50701 0
M  V30 3212 H 329.777 0.0096065 3.80399 0
M  V30 3213 H 331.089 -0.206816 4.98371 0
M  V30 3214 H 330.243 -2.49865 5.52859 0
M  V30 3215 H 328.982 -2.35302 4.27182 0
M  V30 3216 H 327.987 -0.392633 5.48396 0
M  V30 3217 H 329.212 -0.55945 6.76792 0
M  V30 3218 H 327.158 -2.66577 5.99394 0
M  V30 3219 H 327.075 -1.63118 7.38193 0
M  V30 3220 H 328.343 -2.81497 7.26897 0
M  V30 3221 N 332.573 -1.56217 0.208337 0
M  V30 3222 C 333.801 -2.02337 -0.43215 0
M  V30 3223 C 334.216 -1.08834 -1.54275 0
M  V30 3224 O 333.573 -0.0955462 -1.8225 0
M  V30 3225 C 333.624 -3.48072 -0.976138 0
M  V30 3226 O 333.345 -4.38007 0.0901621 0
M  V30 3227 C 334.846 -4.09773 -1.69119 0
M  V30 3228 H 332.066 -0.662385 -0.10718 0
M  V30 3229 H 334.61 -2.01966 0.320923 0
M  V30 3230 H 332.765 -3.49099 -1.67954 0
M  V30 3231 H 333.179 -5.23543 -0.316701 0
M  V30 3232 H 334.653 -5.13556 -2.02397 0
M  V30 3233 H 335.13 -3.53999 -2.59964 0
M  V30 3234 H 335.736 -4.12556 -1.03332 0
M  V30 3235 N 334.051 0.0651679 -1.57465 0
M  V30 3236 C 335.298 0.763063 -1.87573 0
M  V30 3237 C 335.626 1.77242 -0.800961 0
M  V30 3238 O 334.881 1.94651 0.202316 0
M  V30 3239 C 335.18 1.50081 -3.24362 0
M  V30 3240 C 334.846 0.630816 -4.46466 0
M  V30 3241 C 333.508 0.391082 -4.79608 0
M  V30 3242 C 335.86 0.0279465 -5.21193 0
M  V30 3243 C 333.188 -0.460894 -5.84887 0
M  V30 3244 C 335.54 -0.811522 -6.27373 0
M  V30 3245 C 334.204 -1.06106 -6.59013 0
M  V30 3246 H 333.474 0.279224 -0.686378 0
M  V30 3247 H 336.121 0.0236726 -1.91485 0
M  V30 3248 H 334.426 2.31258 -3.16271 0
M  V30 3249 H 336.123 2.04571 -3.44894 0
M  V30 3250 H 332.713 0.8278 -4.2053 0
M  V30 3251 H 336.897 0.200262 -4.95896 0
M  V30 3252 H 332.153 -0.662907 -6.07796 0
M  V30 3253 H 336.327 -1.28537 -6.84435 0
M  V30 3254 H 333.954 -1.723 -7.40417 0
M  V30 3255 N 335.529 1.53961 0.336706 0
M  V30 3256 C 336.476 1.82428 1.41381 0
M  V30 3257 C 337.446 0.670444 1.51968 0
M  V30 3258 O 338.631 0.915565 1.67398 0
M  V30 3259 C 335.771 2.04564 2.77934 0
M  V30 3260 C 334.884 3.32267 2.76084 0
M  V30 3261 C 334.019 3.44434 4.04399 0
M  V30 3262 C 333.058 4.66061 3.96804 0
M  V30 3263 N 332.195 4.75224 5.16823 0
M  V30 3264 H 337.035 2.74324 1.16405 0
M  V30 3265 H 334.572 1.35869 0.563752 0
M  V30 3266 H 336.53 2.15388 3.57301 0
M  V30 3267 H 335.16 1.15974 3.01247 0
M  V30 3268 H 334.212 3.3025 1.88784 0
M  V30 3269 H 335.524 4.21733 2.66351 0
M  V30 3270 H 334.678 3.54728 4.92192 0
M  V30 3271 H 333.417 2.53037 4.16921 0
M  V30 3272 H 332.422 4.55838 3.07396 0
M  V30 3273 H 333.647 5.58829 3.85858 0
M  V30 3274 H 331.593 3.86739 5.29876 0
M  V30 3275 H 331.51 5.58636 5.09374 0
M  V30 3276 H 332.778 4.89835 6.06367 0
M  V30 3277 N 337.007 -0.598083 1.45811 0
M  V30 3278 C 338.284 -1.35777 1.40797 0
M  V30 3279 C 338.664 -2.10935 0.083462 0
M  V30 3280 O 338.012 -2.08505 -0.934763 0
M  V30 3281 C 338.222 -2.29666 2.62783 0
M  V30 3282 C 339.57 -2.91977 3.08277 0
M  V30 3283 O 340.594 -2.39984 2.63223 0
M  V30 3284 O 339.453 -3.86376 3.86491 0
M  V30 3285 H 336.547 -0.609291 0.55919 0
M  V30 3286 H 339.093 -0.620379 1.57954 0
M  V30 3287 H 337.865 -1.73454 3.50756 0
M  V30 3288 H 337.488 -3.1077 2.48008 0
M  V30 3289 N 338.485 -1.33259 -0.841409 0
M  V30 3290 C 339.715 -1.2742 -1.62628 0
M  V30 3291 C 340.123 0.157604 -1.88542 0
M  V30 3292 O 339.466 1.10938 -1.46419 0
M  V30 3293 C 339.528 -1.97797 -3.00194 0
M  V30 3294 C 339.192 -3.47109 -2.97261 0
M  V30 3295 C 340.189 -4.42358 -2.73159 0
M  V30 3296 C 337.874 -3.89247 -3.17478 0
M  V30 3297 C 339.868 -5.77718 -2.69296 0
M  V30 3298 C 337.555 -5.24713 -3.13241 0
M  V30 3299 C 338.553 -6.1876 -2.89181 0
M  V30 3300 O 338.241 -7.51745 -2.84843 0
M  V30 3301 H 337.973 -0.440436 -0.512827 0
M  V30 3302 H 340.527 -1.76153 -1.05638 0
M  V30 3303 H 338.757 -1.43652 -3.59028 0
M  V30 3304 H 340.446 -1.8549 -3.61038 0
M  V30 3305 H 341.212 -4.11127 -2.57294 0
M  V30 3306 H 337.091 -3.16456 -3.35226 0
M  V30 3307 H 340.635 -6.51097 -2.50436 0
M  V30 3308 H 336.532 -5.55569 -3.28654 0
M  V30 3309 H 337.3 -7.61262 -3.00702 0
M  V30 3310 N 339.963 1.05934 -1.16686 0
M  V30 3311 C 341.21 1.788 -0.950622 0
M  V30 3312 C 341.538 1.87384 0.521305 0
M  V30 3313 O 340.793 1.36438 1.40297 0
M  V30 3314 C 341.092 3.23105 -1.52767 0
M  V30 3315 C 340.758 3.34594 -3.02254 0
M  V30 3316 C 339.42 3.37437 -3.43059 0
M  V30 3317 C 341.772 3.36219 -3.98254 0
M  V30 3318 C 339.1 3.39525 -4.78477 0
M  V30 3319 C 341.452 3.39845 -5.33562 0
M  V30 3320 C 340.116 3.40971 -5.73842 0
M  V30 3321 H 339.386 0.654275 -0.347857 0
M  V30 3322 H 342.033 1.24555 -1.45459 0
M  V30 3323 H 340.338 3.80227 -0.94524 0
M  V30 3324 H 342.035 3.7809 -1.336 0
M  V30 3325 H 338.625 3.3309 -2.6972 0
M  V30 3326 H 342.809 3.33231 -3.67792 0
M  V30 3327 H 338.065 3.38703 -5.09009 0
M  V30 3328 H 342.239 3.4005 -6.07733 0
M  V30 3329 H 339.866 3.42342 -6.78753 0
M  V30 3330 N 341.441 0.965919 1.2453 0
M  V30 3331 C 342.404 0.499547 2.2369 0
M  V30 3332 C 343.404 -0.40294 1.5567 0
M  V30 3333 O 344.594 -0.19865 1.73064 0
M  V30 3334 C 341.726 -0.276792 3.39774 0
M  V30 3335 H 342.919 1.37613 2.66463 0
M  V30 3336 H 340.472 0.750324 1.37112 0
M  V30 3337 H 341.207 -1.17055 3.02438 0
M  V30 3338 H 340.992 0.370826 3.90343 0
M  V30 3339 H 342.482 -0.592175 4.1338 0
M  V30 3340 N 342.919 -1.39368 0.735821 0
M  V30 3341 C 344.167 -2.00101 0.283562 0
M  V30 3342 C 344.488 -1.5868 -1.13338 0
M  V30 3343 O 343.758 -0.835423 -1.77193 0
M  V30 3344 H 342.338 -0.740024 0.101851 0
M  V30 3345 H 345 -1.70404 0.945962 0
M  V30 3346 H 344.096 -3.10323 0.332604 0
M  V30 3347 N 344.397 -0.483516 -1.5 0
M  V30 3348 C 345.327 0.293829 -2.31644 0
M  V30 3349 C 346.308 0.978864 -1.39112 0
M  V30 3350 O 347.493 0.973644 -1.68029 0
M  V30 3351 C 344.623 1.36897 -3.19181 0
M  V30 3352 C 343.577 0.804833 -4.20365 0
M  V30 3353 C 342.903 1.9792 -4.96721 0
M  V30 3354 C 344.203 -0.192313 -5.21946 0
M  V30 3355 H 345.897 -0.387616 -2.9688 0
M  V30 3356 H 343.443 -0.187856 -1.42769 0
M  V30 3357 H 345.396 1.92037 -3.751 0
M  V30 3358 H 344.12 2.07936 -2.51853 0
M  V30 3359 H 342.779 0.275319 -3.65565 0
M  V30 3360 H 342.427 2.67686 -4.25856 0
M  V30 3361 H 342.127 1.60789 -5.65173 0
M  V30 3362 H 343.651 2.53526 -5.55479 0
M  V30 3363 H 345.065 0.270333 -5.72662 0
M  V30 3364 H 343.462 -0.478543 -5.98189 0
M  V30 3365 H 344.532 -1.11409 -4.71928 0
M  V30 3366 N 345.875 1.56104 -0.216619 0
M  V30 3367 C 346.823 2.21434 0.712036 0
M  V30 3368 C 347.817 1.19218 1.20348 0
M  V30 3369 O 349.023 1.3731 1.16387 0
M  V30 3370 H 345.398 0.70992 0.248026 0
M  V30 3371 H 347.369 2.98083 0.137558 0
M  V30 3372 C 346.118 2.90434 1.91163 0
M  V30 3373 H 345.441 3.68842 1.54258 0
M  V30 3374 H 346.881 3.39552 2.5393 0
M  V30 3375 C 345.34 1.92635 2.76394 0
M  V30 3376 O 345.87 1.44017 3.74996 0
M  V30 3377 N 344.076 1.60392 2.42328 0
M  V30 3378 H 343.623 2.00122 1.622 0
M  V30 3379 H 343.581 0.952159 2.99635 0
M  V30 3380 N 347.353 -0.0568162 1.57498 0
M  V30 3381 C 348.599 -0.75422 1.88253 0
M  V30 3382 C 348.932 -1.76461 0.810865 0
M  V30 3383 O 348.207 -1.93691 -0.177259 0
M  V30 3384 C 348.49 -1.44878 3.2967 0
M  V30 3385 C 348.343 -0.453789 4.47505 0
M  V30 3386 C 349.662 -2.38994 3.69554 0
M  V30 3387 H 346.781 -0.272724 0.684683 0
M  V30 3388 H 349.423 -0.0172113 1.89992 0
M  V30 3389 H 347.573 -2.077 3.28318 0
M  V30 3390 H 349.245 0.170371 4.60985 0
M  V30 3391 H 347.488 0.229552 4.33192 0
M  V30 3392 H 348.159 -0.977699 5.43273 0
M  V30 3393 H 350.635 -1.86239 3.72095 0
M  V30 3394 H 349.511 -2.84587 4.69363 0
M  V30 3395 H 349.772 -3.24461 3.00296 0
M  V30 3396 N 348.832 -1.54138 -0.328536 0
M  V30 3397 C 350.243 -1.63395 -0.903272 0
M  V30 3398 C 350.594 -0.524828 -1.8905 0
M  V30 3399 O 349.719 0.343068 -2.13663 0
M  V30 3400 C 350.314 -2.9618 -1.64507 0
M  V30 3401 C 348.873 -3.0765 -2.1686 0
M  V30 3402 C 348.02 -2.58933 -0.992416 0
M  V30 3403 H 350.971 -1.58344 -0.106253 0
M  V30 3404 H 350.992 -2.86061 -2.50897 0
M  V30 3405 H 350.504 -3.76884 -0.926302 0
M  V30 3406 H 348.605 -2.31611 -2.91868 0
M  V30 3407 H 348.718 -4.1337 -2.42202 0
M  V30 3408 H 347.082 -2.14706 -1.37016 0
M  V30 3409 H 347.865 -3.42089 -0.288041 0
M  V30 3410 N 350.31 0.590341 -1.46126 0
M  V30 3411 C 351.538 1.37504 -1.54597 0
M  V30 3412 C 351.953 1.87897 -0.184447 0
M  V30 3413 O 351.31 1.63192 0.816984 0
M  V30 3414 C 351.361 2.56779 -2.54454 0
M  V30 3415 O 351.082 2.08476 -3.85317 0
M  V30 3416 C 352.583 3.49427 -2.72792 0
M  V30 3417 H 349.803 0.420325 -0.523037 0
M  V30 3418 H 352.347 0.718383 -1.91467 0
M  V30 3419 H 350.502 3.1845 -2.20609 0
M  V30 3420 H 350.916 2.86097 -4.396 0
M  V30 3421 H 352.39 4.29619 -3.466 0
M  V30 3422 H 352.867 4.00876 -1.79429 0
M  V30 3423 H 353.473 2.93598 -3.07702 0
M  V30 3424 N 351.788 1.33704 0.83433 0
M  V30 3425 C 352.698 1.26382 1.97648 0
M  V30 3426 C 353.714 0.173548 1.73132 0
M  V30 3427 O 354.89 0.397962 1.97429 0
M  V30 3428 C 351.955 1.00769 3.31733 0
M  V30 3429 C 351.016 2.1884 3.69334 0
M  V30 3430 C 350.249 1.9444 4.9702 0
M  V30 3431 O 350.472 0.896961 5.63303 0
M  V30 3432 O 349.406 2.81093 5.32231 0
M  V30 3433 H 353.232 2.22444 2.06767 0
M  V30 3434 H 350.817 1.13795 0.968037 0
M  V30 3435 H 352.699 0.882186 4.12062 0
M  V30 3436 H 351.374 0.0773783 3.23608 0
M  V30 3437 H 350.281 2.36946 2.89495 0
M  V30 3438 H 351.614 3.10221 3.82131 0
M  V30 3439 N 353.266 -1.05314 1.17247 0
M  V30 3440 C 354.515 -1.77685 0.954521 0
M  V30 3441 C 354.828 -1.88616 -0.518025 0
M  V30 3442 O 356.034 -2.57714 -0.854144 0
M  V30 3443 C 354.49 -3.19402 1.65863 0
M  V30 3444 C 354.098 -3.16605 3.16963 0
M  V30 3445 C 355.842 -3.96237 1.52303 0
M  V30 3446 C 353.749 -4.53103 3.80068 0
M  V30 3447 H 352.679 -0.666 0.353496 0
M  V30 3448 H 355.33 -1.1805 1.40486 0
M  V30 3449 H 353.712 -3.79355 1.13602 0
M  V30 3450 H 354.886 -2.66176 3.76148 0
M  V30 3451 H 353.201 -2.53268 3.30521 0
M  V30 3452 H 355.798 -4.97157 1.96822 0
M  V30 3453 H 356.141 -4.136 0.473401 0
M  V30 3454 H 356.674 -3.42829 2.01775 0
M  V30 3455 H 353.413 -4.40946 4.85023 0
M  V30 3456 H 352.933 -5.03686 3.2567 0
M  V30 3457 H 354.612 -5.22045 3.82202 0
M  V30 3458 N 354.744 -0.972509 -1.24016 0
M  V30 3459 C 355.654 -0.5143 -2.28893 0
M  V30 3460 C 356.67 0.427078 -1.68677 0
M  V30 3461 O 357.846 0.298939 -1.99169 0
M  V30 3462 C 354.911 0.183598 -3.46214 0
M  V30 3463 C 353.972 -0.798202 -4.21814 0
M  V30 3464 C 353.205 -0.133514 -5.33533 0
M  V30 3465 O 353.428 1.07714 -5.60137 0
M  V30 3466 O 352.362 -0.828103 -5.96176 0
M  V30 3467 H 356.188 -1.38629 -2.70214 0
M  V30 3468 H 353.773 -0.739769 -1.29799 0
M  V30 3469 H 355.655 0.575433 -4.17453 0
M  V30 3470 H 354.33 1.03048 -3.0686 0
M  V30 3471 H 353.237 -1.24059 -3.52931 0
M  V30 3472 H 354.57 -1.61364 -4.64997 0
M  V30 3473 N 356.222 1.38976 -0.743202 0
M  V30 3474 C 357.45 2.04636 -0.30525 0
M  V30 3475 C 357.865 1.56044 1.06281 0
M  V30 3476 O 357.222 0.728921 1.67311 0
M  V30 3477 C 357.273 3.60193 -0.307177 0
M  V30 3478 O 356.994 4.06998 -1.62124 0
M  V30 3479 C 358.495 4.4306 0.145928 0
M  V30 3480 H 355.715 0.65788 -0.132041 0
M  V30 3481 H 358.259 1.77866 -1.00915 0
M  V30 3482 H 356.414 3.85835 0.347898 0
M  V30 3483 H 356.828 5.01371 -1.54036 0
M  V30 3484 H 358.302 5.51921 0.0934183 0
M  V30 3485 H 358.779 4.22706 1.19231 0
M  V30 3486 H 359.385 4.22584 -0.479886 0
M  V30 3487 N 357.7 0.491464 1.49741 0
M  V30 3488 C 358.61 -0.296835 2.32715 0
M  V30 3489 C 359.626 -0.976536 1.44013 0
M  V30 3490 O 360.802 -0.960023 1.77047 0
M  V30 3491 C 357.867 -1.35288 3.19215 0
M  V30 3492 C 356.928 -0.687632 4.23757 0
M  V30 3493 C 356.161 -1.69336 5.06123 0
M  V30 3494 O 356.384 -2.92219 4.89861 0
M  V30 3495 O 355.318 -1.25394 5.88693 0
M  V30 3496 H 359.144 0.382048 3.01287 0
M  V30 3497 H 356.729 0.252953 1.47243 0
M  V30 3498 H 358.611 -1.96411 3.72828 0
M  V30 3499 H 357.286 -2.01487 2.53347 0
M  V30 3500 H 356.193 -0.0369159 3.74082 0
M  V30 3501 H 357.526 -0.0682566 4.92153 0
M  V30 3502 N 359.178 -1.55987 0.224894 0
M  V30 3503 C 360.426 -1.97998 -0.405099 0
M  V30 3504 C 360.747 -1.11387 -1.60056 0
M  V30 3505 O 360.017 -0.191645 -1.9496 0
M  V30 3506 H 358.597 -0.731235 -0.152658 0
M  V30 3507 H 361.259 -1.92279 0.318567 0
M  V30 3508 H 360.355 -3.03463 -0.729167 0
M  V30 3509 N 360.656 0.0484629 -1.57525 0
M  V30 3510 C 361.933 0.777447 -1.79486 0
M  V30 3511 C 362.313 1.94597 -0.818251 0
M  V30 3512 O 361.661 2.28047 0.143767 0
M  V30 3513 C 361.871 1.22864 -3.26658 0
M  V30 3514 C 363.219 1.65251 -3.91123 0
M  V30 3515 O 364.243 1.32372 -3.3069 0
M  V30 3516 O 363.102 2.26207 -4.97486 0
M  V30 3517 H 360.196 0.374357 -0.737419 0
M  V30 3518 H 362.742 0.0267359 -1.69679 0
M  V30 3519 H 361.514 0.393589 -3.89316 0
M  V30 3520 H 361.137 2.03996 -3.41279 0
M  V30 3521 N 362.134 1.5431 0.320358 0
M  V30 3522 C 363.382 1.72327 1.05583 0
M  V30 3523 C 363.703 0.50149 1.88441 0
M  V30 3524 O 362.973 -0.48448 1.89815 0
M  V30 3525 H 361.553 0.635387 0.3928 0
M  V30 3526 H 364.215 1.91621 0.356019 0
M  V30 3527 H 363.311 2.60426 1.72003 0
M  V30 3528 N 363.613 -0.582584 1.46437 0
M  V30 3529 C 365.029 -0.905962 1.31394 0
M  V30 3530 C 365.229 -1.99468 0.285476 0
M  V30 3531 O 364.285 -2.50566 -0.311914 0
M  V30 3532 C 365.598 -1.3232 2.70022 0
M  V30 3533 C 367.146 -1.43604 2.78113 0
M  V30 3534 C 367.621 -1.88694 4.17323 0
M  V30 3535 N 369.112 -1.95887 4.19741 0
M  V30 3536 C 369.847 -2.32051 5.24347 0
M  V30 3537 N 369.343 -2.67006 6.39281 0
M  V30 3538 N 371.136 -2.32606 5.11713 0
M  V30 3539 H 363.287 0.1366 2.1196 0
M  V30 3540 H 365.55 -0.00155736 0.947999 0
M  V30 3541 H 365.256 -0.597242 3.46592 0
M  V30 3542 H 365.13 -2.28469 3.00136 0
M  V30 3543 H 367.517 -2.15286 2.01832 0
M  V30 3544 H 367.598 -0.457059 2.51684 0
M  V30 3545 H 367.242 -1.1759 4.941 0
M  V30 3546 H 367.172 -2.8755 4.4116 0
M  V30 3547 H 369.663 -1.71362 3.36814 0
M  V30 3548 H 369.976 -2.93554 7.14875 0
M  V30 3549 H 368.321 -2.64644 6.42642 0
M  V30 3550 H 371.512 -2.04721 4.2096 0
M  V30 3551 H 371.685 -2.60462 5.93349 0
M  V30 3552 N 365.091 -1.34144 -0.827227 0
M  V30 3553 C 366.316 -1.29476 -1.62021 0
M  V30 3554 C 366.741 0.129292 -1.87655 0
M  V30 3555 O 366.099 1.08967 -1.449 0
M  V30 3556 C 366.147 -2.08702 -2.94068 0
M  V30 3557 O 365.251 -1.45359 -3.85933 0
M  V30 3558 H 364.592 -0.444881 -0.492927 0
M  V30 3559 H 367.122 -1.76882 -1.02829 0
M  V30 3560 H 367.132 -2.19898 -3.43669 0
M  V30 3561 H 365.807 -3.12241 -2.74734 0
M  V30 3562 H 364.384 -1.42879 -3.44442 0
M  V30 3563 N 366.569 1.04691 -1.17803 0
M  V30 3564 C 367.846 1.7472 -0.879328 0
M  V30 3565 C 368.226 2.01812 0.619271 0
M  V30 3566 O 367.574 1.65824 1.57209 0
M  V30 3567 C 367.784 3.03686 -1.71976 0
M  V30 3568 C 369.132 3.77542 -1.94286 0
M  V30 3569 O 370.156 3.13569 -1.68976 0
M  V30 3570 O 369.015 4.92506 -2.36855 0
M  V30 3571 H 366.109 0.760011 -0.326056 0
M  V30 3572 H 368.655 1.10813 -1.28525 0
M  V30 3573 H 367.427 2.79754 -2.73594 0
M  V30 3574 H 367.05 3.75332 -1.31194 0
M  V30 3575 N 368.047 0.979072 1.23499 0
M  V30 3576 C 368.997 0.489378 2.22686 0
M  V30 3577 C 369.981 -0.434871 1.54912 0
M  V30 3578 O 371.173 -0.263941 1.75021 0
M  V30 3579 C 368.302 -0.208178 3.42668 0
M  V30 3580 C 367.388 0.735563 4.17672 0
M  V30 3581 N 367.779 1.87763 4.69658 0
M  V30 3582 C 366.077 0.548625 4.42613 0
M  V30 3583 C 366.778 2.46886 5.26709 0
M  V30 3584 N 365.754 1.75287 5.14563 0
M  V30 3585 H 369.556 1.36062 2.60508 0
M  V30 3586 H 367.07 0.83958 1.39014 0
M  V30 3587 H 369.067 -0.576295 4.12898 0
M  V30 3588 H 367.727 -1.07572 3.06363 0
M  V30 3589 H 368.738 2.25885 4.66043 0
M  V30 3590 H 365.415 -0.274006 4.166 0
M  V30 3591 H 366.805 3.43326 5.77561 0
M  V30 3592 N 369.525 -1.3858 0.750561 0
M  V30 3593 C 370.488 -2.28836 0.129152 0
M  V30 3594 C 371.488 -1.47045 -0.650714 0
M  V30 3595 O 372.678 -1.6753 -0.477428 0
M  V30 3596 C 369.81 -3.30751 -0.825622 0
M  V30 3597 H 371.003 -2.85294 0.924516 0
M  V30 3598 H 368.556 -1.47489 0.517376 0
M  V30 3599 H 369.291 -2.79378 -1.64677 0
M  V30 3600 H 369.076 -3.91177 -0.268852 0
M  V30 3601 H 370.566 -3.98249 -1.2565 0
M  V30 3602 N 371.003 -0.499398 -1.49478 0
M  V30 3603 C 372.414 -0.051215 -1.8663 0
M  V30 3604 C 372.765 1.36238 -1.41186 0
M  V30 3605 O 371.89 2.01502 -0.789051 0
M  V30 3606 C 372.485 -0.0861651 -3.3869 0
M  V30 3607 C 371.044 0.30667 -3.75149 0
M  V30 3608 C 370.191 -0.459397 -2.73468 0
M  V30 3609 H 373.142 -0.712264 -1.41818 0
M  V30 3610 H 373.163 0.709507 -3.73826 0
M  V30 3611 H 372.675 -1.11512 -3.71735 0
M  V30 3612 H 370.776 1.33892 -3.47712 0
M  V30 3613 H 370.889 -0.0116669 -4.79099 0
M  V30 3614 H 369.253 0.0905645 -2.54539 0
M  V30 3615 H 370.036 -1.4884 -3.09357 0
M  V30 3616 N 372.481 1.55866 -0.233164 0
M  V30 3617 C 373.728 1.98603 0.395374 0
M  V30 3618 C 374.056 1.12105 1.58942 0
M  V30 3619 O 373.311 0.168656 1.94972 0
M  V30 3620 C 373.61 3.46856 0.861724 0
M  V30 3621 C 373.276 4.50348 -0.223066 0
M  V30 3622 C 371.938 4.78371 -0.521038 0
M  V30 3623 C 374.29 5.12355 -0.956124 0
M  V30 3624 C 371.618 5.6568 -1.55638 0
M  V30 3625 C 373.97 6.00786 -1.98089 0
M  V30 3626 C 372.634 6.27148 -2.28565 0
M  V30 3627 H 371.904 0.726739 0.144677 0
M  V30 3628 H 374.551 1.88491 -0.338114 0
M  V30 3629 H 372.856 3.5423 1.67418 0
M  V30 3630 H 374.553 3.77302 1.35809 0
M  V30 3631 H 371.143 4.28596 0.0193234 0
M  V30 3632 H 375.327 4.90765 -0.739166 0
M  V30 3633 H 370.583 5.84365 -1.798 0
M  V30 3634 H 374.757 6.4788 -2.55391 0
M  V30 3635 H 372.384 6.94597 -3.08932 0
M  V30 3636 N 373.959 -0.0401083 1.57549 0
M  V30 3637 C 374.906 -1.04413 2.05831 0
M  V30 3638 C 375.876 -1.36585 0.945184 0
M  V30 3639 O 377.061 -1.47112 1.21502 0
M  V30 3640 C 374.201 -2.34336 2.53339 0
M  V30 3641 C 373.314 -2.08419 3.78398 0
M  V30 3642 C 372.449 -3.32133 4.14561 0
M  V30 3643 C 371.488 -3.01721 5.3257 0
M  V30 3644 N 370.625 -4.17855 5.64218 0
M  V30 3645 H 375.465 -0.625442 2.91363 0
M  V30 3646 H 373.002 -0.297218 1.44066 0
M  V30 3647 H 374.96 -3.10234 2.78946 0
M  V30 3648 H 373.59 -2.73948 1.7074 0
M  V30 3649 H 372.642 -1.23069 3.59942 0
M  V30 3650 H 373.954 -1.81978 4.64419 0
M  V30 3651 H 373.108 -4.16406 4.41238 0
M  V30 3652 H 371.847 -3.61678 3.2717 0
M  V30 3653 H 370.852 -2.15849 5.05657 0
M  V30 3654 H 372.077 -2.73466 6.21605 0
M  V30 3655 H 370.023 -4.47372 4.79786 0
M  V30 3656 H 369.94 -3.94798 6.44725 0
M  V30 3657 H 371.208 -5.03033 5.95465 0
M  V30 3658 N 375.437 -1.54477 -0.31217 0
M  V30 3659 C 376.385 -1.85395 -1.40469 0
M  V30 3660 C 377.379 -0.726749 -1.53019 0
M  V30 3661 O 378.585 -0.910582 -1.55269 0
M  V30 3662 H 374.96 -0.587845 -0.46898 0
M  V30 3663 H 376.931 -2.76736 -1.11623 0
M  V30 3664 C 375.68 -2.10811 -2.76503 0
M  V30 3665 H 375.003 -2.97014 -2.67625 0
M  V30 3666 H 376.443 -2.3639 -3.51988 0
M  V30 3667 C 374.902 -0.903165 -3.24568 0
M  V30 3668 O 375.432 -0.118085 -4.01526 0
M  V30 3669 N 373.638 -0.711634 -2.81752 0
M  V30 3670 H 373.185 -1.35171 -2.19286 0
M  V30 3671 H 373.143 0.0930473 -3.14262 0
M  V30 3672 N 376.915 0.57481 -1.46744 0
M  V30 3673 C 378.161 1.3347 -1.52688 0
M  V30 3674 C 378.494 1.93353 -0.181229 0
M  V30 3675 O 377.769 1.76912 0.808237 0
M  V30 3676 C 378.052 2.45811 -2.63152 0
M  V30 3677 C 377.905 1.90912 -4.07275 0
M  V30 3678 C 379.224 3.47822 -2.69644 0
M  V30 3679 H 376.343 0.483935 -0.555856 0
M  V30 3680 H 378.985 0.644968 -1.78718 0
M  V30 3681 H 377.135 3.04646 -2.41088 0
M  V30 3682 H 378.807 1.36473 -4.4065 0
M  V30 3683 H 377.05 1.21691 -4.16382 0
M  V30 3684 H 377.721 2.72042 -4.80309 0
M  V30 3685 H 380.197 2.9888 -2.895 0
M  V30 3686 H 379.073 4.23876 -3.48742 0
M  V30 3687 H 379.334 4.05555 -1.76005 0
M  V30 3688 N 378.394 1.34581 0.820102 0
M  V30 3689 C 379.642 1.26845 1.57336 0
M  V30 3690 C 379.963 -0.160667 1.94337 0
M  V30 3691 O 379.233 -1.09396 1.6251 0
M  V30 3692 H 377.813 0.466514 0.583415 0
M  V30 3693 H 380.475 1.68526 0.979027 0
M  V30 3694 H 379.571 1.87513 2.4949 0
M  V30 3695 N 379.872 -1.04064 1.18357 0
M  V30 3696 C 381.118 -1.77528 0.980397 0
M  V30 3697 C 381.451 -1.87948 -0.48879 0
M  V30 3698 O 380.726 -1.3876 -1.36293 0
M  V30 3699 C 381.009 -3.20797 1.63588 0
M  V30 3700 C 380.862 -3.1832 3.17793 0
M  V30 3701 C 382.181 -4.18911 1.34914 0
M  V30 3702 H 379.3 -0.644443 0.357578 0
M  V30 3703 H 381.942 -1.2156 1.46024 0
M  V30 3704 H 380.092 -3.68586 1.22788 0
M  V30 3705 H 381.764 -2.78521 3.67728 0
M  V30 3706 H 380.007 -2.56351 3.49952 0
M  V30 3707 H 380.678 -4.19489 3.58794 0
M  V30 3708 H 383.154 -3.7967 1.70265 0
M  V30 3709 H 382.03 -5.17374 1.83346 0
M  V30 3710 H 382.291 -4.41262 0.272027 0
M  V30 3711 N 381.35 -0.985608 -1.22978 0
M  V30 3712 C 382.761 -0.693593 -1.73338 0
M  V30 3713 C 383.112 0.789935 -1.79595 0
M  V30 3714 O 382.237 1.61771 -1.43733 0
M  V30 3715 C 382.832 -1.25235 -3.14804 0
M  V30 3716 C 381.391 -1.00987 -3.626 0
M  V30 3717 C 380.538 -1.37695 -2.40698 0
M  V30 3718 H 383.489 -1.15884 -1.08428 0
M  V30 3719 H 383.51 -0.627329 -3.75293 0
M  V30 3720 H 383.022 -2.33209 -3.10218 0
M  V30 3721 H 381.123 0.0535565 -3.72562 0
M  V30 3722 H 381.236 -1.66812 -4.49122 0
M  V30 3723 H 379.6 -0.795459 -2.4196 0
M  V30 3724 H 380.383 -2.46657 -2.38779 0
M  V30 3725 N 382.828 1.3818 -0.7579 0
M  V30 3726 C 384.074 2.00316 -0.316453 0
M  V30 3727 C 384.407 1.60026 1.10025 0
M  V30 3728 O 383.682 0.839835 1.75434 0
M  V30 3729 C 383.965 3.57349 -0.444245 0
M  V30 3730 C 383.818 4.07591 -1.90236 0
M  V30 3731 C 385.137 4.3981 0.1598 0
M  V30 3732 H 382.256 0.727741 -0.116459 0
M  V30 3733 H 384.898 1.6406 -0.958352 0
M  V30 3734 H 383.048 3.88365 0.102233 0
M  V30 3735 H 384.72 3.87199 -2.50748 0
M  V30 3736 H 382.963 3.60297 -2.41595 0
M  V30 3737 H 383.634 5.16677 -1.94291 0
M  V30 3738 H 386.11 4.14971 -0.306314 0
M  V30 3739 H 384.986 5.48885 0.0401675 0
M  V30 3740 H 385.247 4.24102 1.24859 0
M  V30 3741 N 384.306 0.507319 1.49211 0
M  V30 3742 C 385.554 -0.0348839 2.0207 0
M  V30 3743 C 385.875 -1.36898 1.38866 0
M  V30 3744 O 385.145 -1.88133 0.546151 0
M  V30 3745 H 383.725 -0.0158812 0.746831 0
M  V30 3746 H 386.387 0.665998 1.83168 0
M  V30 3747 H 385.483 -0.159917 3.1169 0
M  V30 3748 N 385.784 -1.5574 0.241426 0
M  V30 3749 C 387.032 -1.98417 -0.384075 0
M  V30 3750 C 387.353 -1.13078 -1.58866 0
M  V30 3751 O 386.623 -0.212312 -1.94746 0
M  V30 3752 H 385.203 -0.732813 -0.144894 0
M  V30 3753 H 387.865 -1.9193 0.338943 0
M  V30 3754 H 386.961 -3.04219 -0.696939 0
M  V30 3755 N 387.262 0.0317525 -1.57568 0
M  V30 3756 C 388.192 1.03274 -2.0942 0
M  V30 3757 C 389.173 1.3788 -0.996143 0
M  V30 3758 O 390.358 1.46811 -1.27122 0
M  V30 3759 C 387.488 2.33448 -2.57137 0
M  V30 3760 C 386.442 2.13091 -3.71182 0
M  V30 3761 C 385.768 3.49001 -4.05095 0
M  V30 3762 C 387.068 1.51928 -4.99715 0
M  V30 3763 H 388.762 0.60112 -2.93303 0
M  V30 3764 H 386.308 0.287705 -1.41097 0
M  V30 3765 H 388.261 3.03802 -2.92032 0
M  V30 3766 H 386.985 2.78665 -1.70333 0
M  V30 3767 H 385.644 1.45171 -3.36632 0
M  V30 3768 H 385.292 3.91862 -3.15362 0
M  V30 3769 H 384.992 3.36207 -4.81911 0
M  V30 3770 H 386.516 4.20721 -4.42522 0
M  V30 3771 H 387.93 2.12196 -5.32584 0
M  V30 3772 H 386.327 1.49716 -5.81124 0
M  V30 3773 H 387.397 0.484811 -4.8247 0
M  V30 3774 N 388.74 1.54641 0.303973 0
M  V30 3775 C 389.987 1.7378 1.03955 0
M  V30 3776 C 390.315 0.521986 1.87365 0
M  V30 3777 O 389.57 -0.496099 1.89308 0
M  V30 3778 C 389.869 2.97753 1.97681 0
M  V30 3779 C 389.535 4.31671 1.30271 0
M  V30 3780 C 388.197 4.68075 1.11619 0
M  V30 3781 C 390.549 5.147 0.82055 0
M  V30 3782 C 387.877 5.8509 0.434304 0
M  V30 3783 C 390.229 6.32416 0.152395 0
M  V30 3784 C 388.893 6.67484 -0.0461067 0
M  V30 3785 H 388.163 0.635908 0.380398 0
M  V30 3786 H 390.81 1.88896 0.314718 0
M  V30 3787 H 389.115 2.77406 2.76682 0
M  V30 3788 H 390.812 3.09756 2.54661 0
M  V30 3789 H 387.402 4.03041 1.45795 0
M  V30 3790 H 391.586 4.87077 0.952374 0
M  V30 3791 H 386.842 6.10806 0.269495 0
M  V30 3792 H 391.016 6.96023 -0.229126 0
M  V30 3793 H 388.643 7.58011 -0.576494 0
M  V30 3794 N 390.218 -0.567019 1.47046 0
M  V30 3795 C 391.446 -1.35027 1.56765 0
M  V30 3796 C 391.861 -1.8758 0.214316 0
M  V30 3797 O 391.218 -1.64471 -0.790919 0
M  V30 3798 C 391.269 -2.52698 2.58507 0
M  V30 3799 O 390.99 -2.0232 3.88585 0
M  V30 3800 C 392.491 -3.45043 2.78316 0
M  V30 3801 H 389.711 -0.41195 0.529658 0
M  V30 3802 H 392.255 -0.687832 1.92585 0
M  V30 3803 H 390.41 -3.149 2.25648 0
M  V30 3804 H 390.824 -2.79068 4.44096 0
M  V30 3805 H 392.298 -4.2405 3.53391 0
M  V30 3806 H 392.775 -3.97971 1.85784 0
M  V30 3807 H 393.381 -2.88665 3.12334 0
M  V30 3808 N 391.696 -1.35014 -0.812953 0
M  V30 3809 C 392.944 -1.27678 -1.56661 0
M  V30 3810 C 393.265 0.150359 -1.94419 0
M  V30 3811 O 392.535 1.08532 -1.63088 0
M  V30 3812 H 391.115 -0.469602 -0.580933 0
M  V30 3813 H 393.777 -1.69043 -0.970076 0
M  V30 3814 H 392.873 -1.88833 -2.48492 0
M  V30 3815 N 393.175 1.03435 -1.18907 0
M  V30 3816 C 394.138 2.09756 -0.923844 0
M  V30 3817 C 395.138 1.60528 0.093416 0
M  V30 3818 O 396.328 1.73631 -0.140727 0
M  V30 3819 C 393.46 3.38692 -0.387354 0
M  V30 3820 H 394.653 2.34719 -1.86674 0
M  V30 3821 H 392.206 1.19959 -1.00197 0
M  V30 3822 H 392.941 3.19396 0.561845 0
M  V30 3823 H 392.726 3.75742 -1.12074 0
M  V30 3824 H 394.216 4.17016 -0.220694 0
M  V30 3825 N 394.653 0.992116 1.22453 0
M  V30 3826 C 395.901 0.666215 1.90804 0
M  V30 3827 C 396.222 -0.804152 1.77647 0
M  V30 3828 O 395.492 -1.57629 1.16318 0
M  V30 3829 H 394.072 0.243423 0.706225 0
M  V30 3830 H 396.734 1.25845 1.48825 0
M  V30 3831 H 395.83 0.928069 2.97982 0
M  V30 3832 N 396.131 -1.37776 0.765217 0
M  V30 3833 C 397.361 -2.03828 0.337277 0
M  V30 3834 C 397.769 -1.57841 -1.04321 0
M  V30 3835 O 397.112 -0.752043 -1.67601 0
M  V30 3836 C 397.174 -3.58292 0.294407 0
M  V30 3837 C 396.838 -4.27384 1.61838 0
M  V30 3838 C 397.835 -4.51956 2.56967 0
M  V30 3839 C 395.52 -4.65345 1.89102 0
M  V30 3840 C 397.514 -5.13536 3.77571 0
M  V30 3841 C 395.201 -5.26647 3.09978 0
M  V30 3842 C 396.199 -5.50679 4.04032 0
M  V30 3843 O 395.887 -6.10702 5.2278 0
M  V30 3844 H 395.619 -0.661292 0.140248 0
M  V30 3845 H 398.173 -1.77222 1.03834 0
M  V30 3846 H 396.403 -3.83918 -0.462983 0
M  V30 3847 H 398.092 -4.05763 -0.105581 0
M  V30 3848 H 398.858 -4.23048 2.37183 0
M  V30 3849 H 394.737 -4.45978 1.16725 0
M  V30 3850 H 398.281 -5.3221 4.50997 0
M  V30 3851 H 394.178 -5.54979 3.29649 0
M  V30 3852 H 394.946 -6.29183 5.23517 0
M  V30 3853 N 397.609 -0.515225 -1.4894 0
M  V30 3854 C 398.837 0.0206034 -2.0689 0
M  V30 3855 C 399.252 1.29514 -1.37374 0
M  V30 3856 O 398.609 1.76698 -0.456529 0
M  V30 3857 C 398.66 0.26351 -3.60538 0
M  V30 3858 O 398.381 -0.960517 -4.27441 0
M  V30 3859 C 399.882 0.841383 -4.35242 0
M  V30 3860 H 397.102 -0.0268608 -0.670462 0
M  V30 3861 H 399.646 -0.716651 -1.91532 0
M  V30 3862 H 397.801 0.950777 -3.75552 0
M  V30 3863 H 398.215 -0.73212 -5.19365 0
M  V30 3864 H 399.689 0.96085 -5.43573 0
M  V30 3865 H 400.166 1.8427 -3.98674 0
M  V30 3866 H 400.772 0.191143 -4.2487 0
M  V30 3867 N 399.087 1.5561 -0.249682 0
M  V30 3868 C 400.034 2.21496 0.648694 0
M  V30 3869 C 401.004 1.17977 1.16921 0
M  V30 3870 O 402.189 1.46434 1.22318 0
M  V30 3871 C 399.329 2.92039 1.83868 0
M  V30 3872 C 398.442 4.10219 1.35442 0
M  V30 3873 C 397.577 4.6847 2.50419 0
M  V30 3874 C 396.616 5.78893 1.98869 0
M  V30 3875 N 395.753 6.31315 3.07223 0
M  V30 3876 H 400.593 2.97892 0.0801582 0
M  V30 3877 H 398.13 1.47074 0.0278031 0
M  V30 3878 H 400.088 3.31138 2.53778 0
M  V30 3879 H 398.718 2.18111 2.37965 0
M  V30 3880 H 397.77 3.76413 0.54928 0
M  V30 3881 H 399.082 4.89927 0.936649 0
M  V30 3882 H 398.236 5.10158 3.28366 0
M  V30 3883 H 396.975 3.87984 2.95499 0
M  V30 3884 H 395.98 5.3668 1.19393 0
M  V30 3885 H 397.205 6.61232 1.54755 0
M  V30 3886 H 395.151 5.53733 3.51732 0
M  V30 3887 H 395.068 7.06224 2.69784 0
M  V30 3888 H 396.336 6.77662 3.8522 0
M  V30 3889 N 400.565 -0.0233959 1.57583 0
M  V30 3890 C 401.79 -0.728376 1.94189 0
M  V30 3891 C 402.215 -1.67793 0.850119 0
M  V30 3892 O 401.573 -1.80262 -0.19371 0
M  V30 3893 C 401.621 -1.45669 3.29868 0
M  V30 3894 O 400.725 -2.57013 3.22518 0
M  V30 3895 H 400.066 -0.195493 0.63457 0
M  V30 3896 H 402.596 0.0228214 2.04587 0
M  V30 3897 H 402.606 -1.82535 3.6489 0
M  V30 3898 H 401.281 -0.760314 4.08891 0
M  V30 3899 H 399.858 -2.22648 2.99136 0
M  V30 3900 N 402.043 -1.548 -0.295768 0
M  V30 3901 C 403.006 -1.85363 -1.34808 0
M  V30 3902 C 404.006 -0.726817 -1.43436 0
M  V30 3903 O 405.196 -0.995088 -1.42981 0
M  V30 3904 C 402.328 -2.03859 -2.73229 0
M  V30 3905 H 403.521 -2.7941 -1.08949 0
M  V30 3906 H 401.074 -1.46942 -0.532702 0
M  V30 3907 H 401.809 -1.12117 -3.04303 0
M  V30 3908 H 401.594 -2.8588 -2.68356 0
M  V30 3909 H 403.084 -2.28857 -3.49305 0
M  V30 3910 N 403.521 0.559213 -1.47345 0
M  V30 3911 C 404.484 1.64854 -1.59235 0
M  V30 3912 C 405.484 1.53851 -0.467607 0
M  V30 3913 O 406.674 1.58045 -0.732617 0
M  V30 3914 C 403.806 3.04388 -1.53496 0
M  V30 3915 H 404.999 1.55662 -2.56339 0
M  V30 3916 H 402.552 0.778973 -1.35505 0
M  V30 3917 H 403.287 3.19115 -0.577604 0
M  V30 3918 H 403.072 3.13783 -2.35123 0
M  V30 3919 H 404.562 3.83642 -1.6495 0
M  V30 3920 N 404.999 1.35443 0.805782 0
M  V30 3921 C 405.931 1.24285 1.92577 0
M  V30 3922 C 406.944 0.165962 1.61952 0
M  V30 3923 O 408.133 0.419303 1.73505 0
M  V30 3924 C 405.233 0.891272 3.2697 0
M  V30 3925 C 404.406 2.06669 3.85495 0
M  V30 3926 C 403.465 1.69077 4.98297 0
M  V30 3927 O 402.491 2.4096 5.15681 0
M  V30 3928 N 403.693 0.614869 5.77234 0
M  V30 3929 H 406.458 2.20777 2.02676 0
M  V30 3930 H 404.019 1.28623 0.983243 0
M  V30 3931 H 406.011 0.621256 3.99903 0
M  V30 3932 H 404.581 0.016004 3.12596 0
M  V30 3933 H 403.801 2.50046 3.04747 0
M  V30 3934 H 405.089 2.85237 4.21328 0
M  V30 3935 H 404.487 0.017648 5.65697 0
M  V30 3936 H 403.044 0.404636 6.50543 0
M  V30 3937 N 406.477 -1.02803 1.19454 0
M  V30 3938 C 407.44 -2.09264 0.934955 0
M  V30 3939 C 408.44 -1.60576 -0.0849015 0
M  V30 3940 O 409.63 -1.73554 0.149933 0
M  V30 3941 C 406.762 -3.38482 0.40531 0
M  V30 3942 H 407.955 -2.33726 1.87916 0
M  V30 3943 H 405.508 -1.19426 1.00832 0
M  V30 3944 H 406.243 -3.19689 -0.544899 0
M  V30 3945 H 406.028 -3.75142 1.14065 0
M  V30 3946 H 407.518 -4.16894 0.242806 0
M  V30 3947 N 407.956 -0.998596 -1.21925 0
M  V30 3948 C 408.888 -0.511879 -2.23411 0
M  V30 3949 C 409.901 0.396094 -1.57908 0
M  V30 3950 O 411.09 0.197316 -1.77406 0
M  V30 3951 C 408.19 0.276802 -3.37768 0
M  V30 3952 C 407.363 -0.628687 -4.32858 0
M  V30 3953 C 406.422 0.109272 -5.26087 0
M  V30 3954 O 405.448 -0.507237 -5.66935 0
M  V30 3955 N 406.65 1.38983 -5.63617 0
M  V30 3956 H 409.415 -1.38457 -2.658 0
M  V30 3957 H 406.976 -0.873981 -1.36283 0
M  V30 3958 H 408.968 0.77928 -3.97126 0
M  V30 3959 H 407.538 1.05063 -2.94415 0
M  V30 3960 H 406.758 -1.31175 -3.71735 0
M  V30 3961 H 408.046 -1.24514 -4.93329 0
M  V30 3962 H 407.444 1.91194 -5.32411 0
M  V30 3963 H 406.001 1.83739 -6.25367 0
M  V30 3964 N 409.434 1.37368 -0.772513 0
M  V30 3965 C 410.381 2.30262 -0.157488 0
M  V30 3966 C 411.351 1.51137 0.688965 0
M  V30 3967 O 412.536 1.79704 0.641168 0
M  V30 3968 C 409.676 3.37611 0.715045 0
M  V30 3969 C 408.789 4.31746 -0.148098 0
M  V30 3970 C 407.924 5.26171 0.729213 0
M  V30 3971 C 406.963 6.11948 -0.136418 0
M  V30 3972 N 406.1 6.98613 0.698914 0
M  V30 3973 H 410.94 2.82277 -0.955179 0
M  V30 3974 H 408.477 1.38957 -0.482631 0
M  V30 3975 H 410.435 3.98479 1.23575 0
M  V30 3976 H 409.065 2.86959 1.47833 0
M  V30 3977 H 408.117 3.72178 -0.786613 0
M  V30 3978 H 409.429 4.92084 -0.81579 0
M  V30 3979 H 408.583 5.92247 1.31637 0
M  V30 3980 H 407.322 4.66246 1.43059 0
M  V30 3981 H 406.327 5.4485 -0.736102 0
M  V30 3982 H 407.552 6.73945 -0.835134 0
M  V30 3983 H 405.498 6.41215 1.38489 0
M  V30 3984 H 405.415 7.55948 0.0885358 0
M  V30 3985 H 406.683 7.69077 1.27044 0
M  V30 3986 N 410.912 0.523116 1.48665 0
M  V30 3987 C 412.158 -0.00540031 2.03399 0
M  V30 3988 C 412.513 -1.3264 1.39372 0
M  V30 3989 O 411.806 -1.84184 0.527916 0
M  V30 3990 C 412 -0.191671 3.56886 0
M  V30 3991 C 411.829 1.10972 4.35793 0
M  V30 3992 C 410.599 1.66769 4.76987 0
M  V30 3993 C 412.797 2.01861 4.73029 0
M  V30 3994 N 410.779 2.91268 5.40404 0
M  V30 3995 C 412.15 3.10937 5.36394 0
M  V30 3996 C 414.205 2.02271 4.54962 0
M  V30 3997 C 412.908 4.20478 5.83601 0
M  V30 3998 C 414.934 3.10802 5.03146 0
M  V30 3999 C 414.296 4.18597 5.6653 0
M  V30 4000 H 410.395 0.0393531 0.781009 0
M  V30 4001 H 412.979 0.702876 1.8157 0
M  V30 4002 H 411.15 -0.869025 3.78553 0
M  V30 4003 H 412.882 -0.719177 3.98259 0
M  V30 4004 H 409.637 1.20996 4.57883 0
M  V30 4005 H 410.061 3.54635 5.76683 0
M  V30 4006 H 414.703 1.2023 4.05345 0
M  V30 4007 H 412.421 5.03303 6.32228 0
M  V30 4008 H 416.007 3.12166 4.90962 0
M  V30 4009 H 414.887 5.01193 6.03138 0
M  V30 4010 N 412.39 -1.55475 0.257931 0
M  V30 4011 C 413.638 -1.98813 -0.363009 0
M  V30 4012 C 413.959 -1.14757 -1.57657 0
M  V30 4013 O 413.229 -0.232956 -1.9451 0
M  V30 4014 H 411.809 -0.734308 -0.137113 0
M  V30 4015 H 414.471 -1.9156 0.359281 0
M  V30 4016 H 413.567 -3.04941 -0.664634 0
M  V30 4017 N 413.868 0.0150385 -1.57593 0
M  V30 4018 C 415.116 0.701613 -1.8953 0
M  V30 4019 C 415.437 1.75139 -0.857396 0
M  V30 4020 O 414.707 1.95607 0.107194 0
M  V30 4021 H 413.287 0.26213 -0.699498 0
M  V30 4022 H 415.949 -0.0223304 -1.94887 0
M  V30 4023 H 415.045 1.18236 -2.88837 0
M  V30 4024 N 415.346 1.54954 0.287554 0
M  V30 4025 C 416.574 1.78881 1.03967 0
M  V30 4026 C 416.989 0.554894 1.80462 0
M  V30 4027 O 416.346 -0.475676 1.76192 0
M  V30 4028 C 416.397 3.00488 2.0097 0
M  V30 4029 O 416.118 4.19113 1.27577 0
M  V30 4030 C 417.619 3.36907 2.88112 0
M  V30 4031 H 414.839 0.596259 0.307761 0
M  V30 4032 H 417.383 2.01937 0.322749 0
M  V30 4033 H 415.538 2.79601 2.68145 0
M  V30 4034 H 415.952 4.87765 1.92835 0
M  V30 4035 H 417.426 4.25205 3.52001 0
M  V30 4036 H 417.903 2.55659 3.57121 0
M  V30 4037 H 418.509 3.60001 2.26449 0
M  V30 4038 N 416.824 -0.551391 1.4764 0
M  V30 4039 C 417.787 -1.64007 1.60107 0
M  V30 4040 C 418.787 -1.53601 0.47576 0
M  V30 4041 O 419.977 -1.57655 0.740988 0
M  V30 4042 C 417.109 -3.03569 1.55108 0
M  V30 4043 H 418.302 -1.543 2.57161 0
M  V30 4044 H 415.855 -0.771776 1.35917 0
M  V30 4045 H 416.59 -3.18804 0.594519 0
M  V30 4046 H 416.375 -3.12532 2.36783 0
M  V30 4047 H 417.865 -3.82762 1.66982 0
M  V30 4048 N 418.302 -1.35869 -0.798587 0
M  V30 4049 C 419.55 -1.29332 -1.55298 0
M  V30 4050 C 419.871 0.129729 -1.94568 0
M  V30 4051 O 419.141 1.06796 -1.6423 0
M  V30 4052 H 417.721 -0.475737 -0.57592 0
M  V30 4053 H 420.383 -1.70062 -0.952093 0
M  V30 4054 H 419.479 -1.91458 -2.46476 0
M  V30 4055 N 419.78 1.02168 -1.19998 0
M  V30 4056 C 420.712 2.10705 -0.901994 0
M  V30 4057 C 421.725 1.6244 0.108216 0
M  V30 4058 O 422.914 1.78082 -0.12214 0
M  V30 4059 C 420.014 3.37291 -0.329834 0
M  V30 4060 C 419.187 4.14714 -1.39035 0
M  V30 4061 C 418.246 5.19606 -0.830432 0
M  V30 4062 O 417.272 5.48809 -1.50989 0
M  V30 4063 N 418.474 5.79366 0.362696 0
M  V30 4064 H 421.239 2.36856 -1.83628 0
M  V30 4065 H 418.8 1.18518 -1.10296 0
M  V30 4066 H 420.792 4.04657 0.0587633 0
M  V30 4067 H 419.362 3.0843 0.508891 0
M  V30 4068 H 418.582 3.42392 -1.9535 0
M  V30 4069 H 419.87 4.63226 -2.10474 0
M  V30 4070 H 419.268 5.57968 0.932081 0
M  V30 4071 H 417.825 6.48106 0.69299 0
M  V30 4072 N 421.258 1.00505 1.21394 0
M  V30 4073 C 422.221 0.570459 2.21987 0
M  V30 4074 C 423.221 -0.353211 1.56873 0
M  V30 4075 O 424.411 -0.14349 1.73608 0
M  V30 4076 C 421.543 -0.168555 3.40483 0
M  V30 4077 H 422.736 1.46021 2.6195 0
M  V30 4078 H 420.289 0.793565 1.34656 0
M  V30 4079 H 421.024 -1.07374 3.06009 0
M  V30 4080 H 420.809 0.494823 3.88965 0
M  V30 4081 H 422.299 -0.460362 4.15055 0
M  V30 4082 N 422.737 -1.36956 0.779787 0
M  V30 4083 C 423.984 -1.99491 0.347766 0
M  V30 4084 C 424.312 -1.61898 -1.07793 0
M  V30 4085 O 423.567 -0.86071 -1.75756 0
M  V30 4086 C 423.866 -3.54585 0.447686 0
M  V30 4087 C 423.532 -4.1197 1.83279 0
M  V30 4088 C 422.194 -4.27356 2.2118 0
M  V30 4089 C 424.546 -4.43354 2.74019 0
M  V30 4090 C 421.874 -4.71432 3.4924 0
M  V30 4091 C 424.226 -4.88858 4.01497 0
M  V30 4092 C 422.89 -5.0245 4.39432 0
M  V30 4093 H 422.16 -0.729991 0.127257 0
M  V30 4094 H 424.807 -1.63599 0.995376 0
M  V30 4095 H 423.112 -3.90773 -0.283447 0
M  V30 4096 H 424.809 -4.00888 0.0945948 0
M  V30 4097 H 421.399 -4.00428 1.52825 0
M  V30 4098 H 425.583 -4.31045 2.45995 0
M  V30 4099 H 420.839 -4.80141 3.78516 0
M  V30 4100 H 425.013 -5.12108 4.71931 0
M  V30 4101 H 422.64 -5.36362 5.38721 0
M  V30 4102 N 424.215 -0.530993 -1.48385 0
M  V30 4103 C 425.492 0.0671788 -1.95485 0
M  V30 4104 C 425.872 1.51191 -1.47324 0
M  V30 4105 O 425.22 2.17507 -0.700202 0
M  V30 4106 C 425.43 -0.0511206 -3.48963 0
M  V30 4107 C 426.778 0.107632 -4.24464 0
M  V30 4108 O 427.802 0.0226248 -3.56193 0
M  V30 4109 O 426.661 0.285972 -5.45751 0
M  V30 4110 H 423.755 0.0787365 -0.823243 0
M  V30 4111 H 426.301 -0.595662 -1.58902 0
M  V30 4112 H 425.073 -1.05747 -3.7674 0
M  V30 4113 H 424.696 0.650525 -3.92242 0
M  V30 4114 N 425.693 1.55336 -0.266172 0
M  V30 4115 C 427.109 1.59356 0.0882065 0
M  V30 4116 C 427.309 1.2834 1.55342 0
M  V30 4117 O 426.365 1.03996 2.30089 0
M  V30 4118 C 427.678 2.99409 -0.278364 0
M  V30 4119 C 429.226 3.12196 -0.224243 0
M  V30 4120 C 429.701 4.545 -0.565123 0
M  V30 4121 N 431.192 4.60313 -0.51634 0
M  V30 4122 C 431.927 5.68434 -0.753013 0
M  V30 4123 N 431.423 6.84738 -1.05383 0
M  V30 4124 N 433.216 5.57942 -0.682414 0
M  V30 4125 H 425.367 1.73764 -1.22147 0
M  V30 4126 H 427.63 0.809822 -0.492841 0
M  V30 4127 H 427.336 3.2691 -1.29703 0
M  V30 4128 H 427.21 3.75228 0.385186 0
M  V30 4129 H 429.597 2.84464 0.78512 0
M  V30 4130 H 429.678 2.38609 -0.921922 0
M  V30 4131 H 429.322 4.82956 -1.57213 0
M  V30 4132 H 429.252 5.26374 0.154248 0
M  V30 4133 H 431.743 3.7676 -0.29335 0
M  V30 4134 H 432.056 7.63088 -1.22133 0
M  V30 4135 H 430.401 6.86375 -1.09151 0
M  V30 4136 H 433.592 4.65958 -0.44731 0
M  V30 4137 H 433.765 6.4213 -0.870248 0
M  V30 4138 N 427.171 -0.0066808 1.57599 0
M  V30 4139 C 428.411 -0.697501 1.92131 0
M  V30 4140 C 428.775 -1.71306 0.867071 0
M  V30 4141 O 429.976 -2.45377 1.09743 0
M  V30 4142 C 428.247 -1.32978 3.3174 0
M  V30 4143 S 429.806 -2.04665 3.88146 0
M  V30 4144 H 426.624 -0.230555 0.672581 0
M  V30 4145 H 429.226 0.0484026 1.9544 0
M  V30 4146 H 427.93 -0.57772 4.06313 0
M  V30 4147 H 427.461 -2.11376 3.31789 0
M  V30 4148 H 429.476 -3.32097 3.68682 0
M  V30 4149 N 428.649 -1.55105 -0.279332 0
M  V30 4150 C 429.879 -1.7917 -1.02867 0
M  V30 4151 C 430.287 -0.56204 -1.80659 0
M  V30 4152 O 429.63 0.478266 -1.77365 0
M  V30 4153 C 429.692 -2.96061 -2.03932 0
M  V30 4154 C 429.356 -4.33341 -1.45137 0
M  V30 4155 C 430.353 -5.12565 -0.870266 0
M  V30 4156 C 428.038 -4.79987 -1.48048 0
M  V30 4157 C 430.032 -6.36565 -0.326097 0
M  V30 4158 C 427.719 -6.03944 -0.932443 0
M  V30 4159 C 428.717 -6.8207 -0.356247 0
M  V30 4160 O 428.405 -8.03691 0.183412 0
M  V30 4161 H 428.137 -0.600796 -0.309872 0
M  V30 4162 H 430.691 -2.02932 -0.317468 0
M  V30 4163 H 428.921 -2.67975 -2.78794 0
M  V30 4164 H 430.61 -3.07506 -2.64943 0
M  V30 4165 H 431.376 -4.77661 -0.840521 0
M  V30 4166 H 427.255 -4.1919 -1.91835 0
M  V30 4167 H 430.799 -6.97489 0.124286 0
M  V30 4168 H 426.696 -6.3833 -0.959407 0
M  V30 4169 H 427.464 -8.18468 0.0721681 0
M  V30 4170 N 430.127 0.543554 -1.4793 0
M  V30 4171 C 431.077 1.64527 -1.57844 0
M  V30 4172 C 432.061 1.54869 -0.436408 0
M  V30 4173 O 433.253 1.63119 -0.687101 0
M  V30 4174 C 430.382 3.03281 -1.6086 0
M  V30 4175 C 429.468 3.18093 -2.80495 0
M  V30 4176 N 429.859 3.02923 -4.05057 0
M  V30 4177 C 428.157 3.49121 -2.77543 0
M  V30 4178 C 428.858 3.20791 -4.85251 0
M  V30 4179 N 427.834 3.47749 -4.17818 0
M  V30 4180 H 431.636 1.51388 -2.5191 0
M  V30 4181 H 429.15 0.748671 -1.44113 0
M  V30 4182 H 431.147 3.82403 -1.66054 0
M  V30 4183 H 429.807 3.17521 -0.678996 0
M  V30 4184 H 430.818 2.79966 -4.35705 0
M  V30 4185 H 427.495 3.69804 -1.93781 0
M  V30 4186 H 428.885 3.13915 -5.9406 0
M  V30 4187 N 431.605 1.3629 0.791371 0
M  V30 4188 C 432.83 1.33726 1.58531 0
M  V30 4189 C 433.255 -0.0794933 1.87932 0
M  V30 4190 O 432.613 -1.05087 1.47738 0
M  V30 4191 C 432.661 2.16425 2.88431 0
M  V30 4192 O 431.765 1.5554 3.81944 0
M  V30 4193 H 431.106 0.457793 0.480959 0
M  V30 4194 H 433.636 1.79547 0.981031 0
M  V30 4195 H 433.646 2.28933 3.37718 0
M  V30 4196 H 432.321 3.19415 2.66359 0
M  V30 4197 H 430.898 1.51961 3.40532 0
M  V30 4198 N 433.083 -1.0153 1.20538 0
M  V30 4199 C 434.308 -1.79283 1.04271 0
M  V30 4200 C 434.733 -1.8372 -0.403544 0
M  V30 4201 O 434.091 -1.27321 -1.2907 0
M  V30 4202 C 434.139 -3.21535 1.63241 0
M  V30 4203 O 433.243 -4.03099 0.870908 0
M  V30 4204 H 432.584 -0.55293 0.367647 0
M  V30 4205 H 435.114 -1.27696 1.59859 0
M  V30 4206 H 435.124 -3.72243 1.6703 0
M  V30 4207 H 433.799 -3.1762 2.68497 0
M  V30 4208 H 432.376 -3.61693 0.907323 0
M  V30 4209 N 434.561 -1.01147 -1.20859 0
M  V30 4210 C 435.801 -0.706331 -1.91808 0
M  V30 4211 C 436.165 0.749736 -1.76757 0
M  V30 4212 O 437.366 1.16716 -2.42138 0
M  V30 4213 C 435.637 -1.12371 -3.39275 0
M  V30 4214 S 437.196 -0.939764 -4.28619 0
M  V30 4215 H 434.014 -0.257665 -0.662669 0
M  V30 4216 H 436.616 -1.29766 -1.46223 0
M  V30 4217 H 435.32 -2.17943 -3.47749 0
M  V30 4218 H 434.851 -0.524952 -3.89882 0
M  V30 4219 H 436.866 0.159556 -4.95943 0
M  V30 4220 N 436.039 1.36541 -0.78704 0
M  V30 4221 C 437.316 1.9355 -0.282424 0
M  V30 4222 C 437.696 1.71919 1.22503 0
M  V30 4223 O 437.044 1.07677 2.01539 0
M  V30 4224 C 437.254 3.4246 -0.672462 0
M  V30 4225 C 438.602 4.19582 -0.650863 0
M  V30 4226 O 439.626 3.50889 -0.612789 0
M  V30 4227 O 438.485 5.42106 -0.691623 0
M  V30 4228 H 435.579 0.824091 -0.0693 0
M  V30 4229 H 438.125 1.45736 -0.869423 0
M  V30 4230 H 436.897 3.51851 -1.71221 0
M  V30 4231 H 436.52 3.97556 -0.0592211 0
M  V30 4232 N 437.518 0.538854 1.48102 0
M  V30 4233 C 438.743 0.0102694 2.07397 0
M  V30 4234 C 439.168 -1.26562 1.39153 0
M  V30 4235 O 438.526 -1.75357 0.460387 0
M  V30 4236 C 438.574 -0.187602 3.60112 0
M  V30 4237 O 437.678 -1.25432 3.92862 0
M  V30 4238 H 437.019 0.0430975 0.6626 0
M  V30 4239 H 439.549 0.749301 1.90385 0
M  V30 4240 H 439.559 -0.407517 4.0596 0
M  V30 4241 H 438.234 0.744386 4.09184 0
M  V30 4242 H 436.811 -1.01636 3.58782 0
M  V30 4243 N 438.996 -1.55193 0.274407 0
M  V30 4244 C 439.926 -2.25471 -0.607032 0
M  V30 4245 C 440.907 -1.24461 -1.15946 0
M  V30 4246 O 442.092 -1.53179 -1.19373 0
M  V30 4247 C 439.222 -2.97526 -1.79153 0
M  V30 4248 C 438.176 -4.05459 -1.37067 0
M  V30 4249 C 437.502 -4.65084 -2.6382 0
M  V30 4250 C 438.802 -5.19691 -0.521389 0
M  V30 4251 H 440.496 -2.99393 -0.0209343 0
M  V30 4252 H 438.042 -1.43997 -0.00862866 0
M  V30 4253 H 439.995 -3.45402 -2.41404 0
M  V30 4254 H 438.719 -2.21138 -2.40344 0
M  V30 4255 H 437.378 -3.58393 -0.771355 0
M  V30 4256 H 437.026 -3.85365 -3.23268 0
M  V30 4257 H 436.726 -5.37961 -2.36372 0
M  V30 4258 H 438.25 -5.15708 -3.26921 0
M  V30 4259 H 439.664 -5.63623 -1.04889 0
M  V30 4260 H 438.061 -5.99126 -0.341825 0
M  V30 4261 H 439.131 -4.82713 0.46 0
M  V30 4262 N 440.474 -0.00167713 -1.576 0
M  V30 4263 C 441.699 0.69739 -1.95323 0
M  V30 4264 C 442.124 1.6642 -0.876706 0
M  V30 4265 O 441.482 1.80548 0.165007 0
M  V30 4266 C 441.53 1.40403 -3.32144 0
M  V30 4267 O 440.634 2.5185 -3.26566 0
M  V30 4268 H 439.975 0.185373 -0.637599 0
M  V30 4269 H 442.505 -0.0553665 -2.04525 0
M  V30 4270 H 442.515 1.76707 -3.67748 0
M  V30 4271 H 441.19 0.695167 -4.10049 0
M  V30 4272 H 439.767 2.17861 -3.0264 0
M  V30 4273 N 441.952 1.55251 0.271103 0
M  V30 4274 C 442.9 1.89054 1.35504 0
M  V30 4275 C 443.894 0.767064 1.51038 0
M  V30 4276 O 445.1 0.951429 1.528 0
M  V30 4277 H 441.475 0.600072 0.45323 0
M  V30 4278 H 443.446 2.79598 1.04247 0
M  V30 4279 C 442.195 2.18068 2.70817 0
M  V30 4280 H 441.518 3.04005 2.59656 0
M  V30 4281 H 442.958 2.4564 3.45597 0
M  V30 4282 C 441.417 0.988901 3.2206 0
M  V30 4283 O 441.947 0.224501 4.01072 0
M  V30 4284 N 440.153 0.786085 2.79766 0
M  V30 4285 H 439.7 1.40937 2.15626 0
M  V30 4286 H 439.658 -0.00969349 3.14399 0
M  V30 4287 N 443.43 -0.535701 1.48216 0
M  V30 4288 C 444.679 -1.28828 1.55197 0
M  V30 4289 C 444.992 -1.94263 0.228278 0
M  V30 4290 O 446.198 -2.70927 0.176278 0
M  V30 4291 C 444.654 -2.33727 2.73678 0
M  V30 4292 C 444.262 -1.74386 4.12666 0
M  V30 4293 C 446.006 -3.1003 2.89968 0
M  V30 4294 C 443.913 -2.77192 5.22416 0
M  V30 4295 H 442.843 -0.484484 0.577747 0
M  V30 4296 H 445.494 -0.56646 1.74538 0
M  V30 4297 H 443.876 -3.08919 2.4776 0
M  V30 4298 H 445.05 -1.05421 4.48579 0
M  V30 4299 H 443.365 -1.10595 4.01445 0
M  V30 4300 H 445.962 -3.86842 3.6913 0
M  V30 4301 H 446.305 -3.65542 1.9921 0
M  V30 4302 H 446.838 -2.41952 3.15759 0
M  V30 4303 H 443.577 -2.26507 6.15122 0
M  V30 4304 H 443.097 -3.44502 4.90998 0
M  V30 4305 H 444.776 -3.40285 5.50286 0
M  V30 4306 N 444.908 -1.36708 -0.784132 0
M  V30 4307 C 445.856 -1.31533 -1.91838 0
M  V30 4308 C 446.85 -0.206205 -1.6814 0
M  V30 4309 O 448.056 -0.373519 -1.76082 0
M  V30 4310 H 444.431 -0.409613 -0.630651 0
M  V30 4311 H 446.402 -2.2731 -1.9332 0
M  V30 4312 C 445.151 -1.12679 -3.28936 0
M  V30 4313 H 444.474 -1.97274 -3.4774 0
M  V30 4314 H 445.914 -1.13106 -4.08636 0
M  V30 4315 C 444.373 0.168281 -3.36479 0
M  V30 4316 O 444.903 1.15625 -3.84699 0
M  V30 4317 N 443.109 0.214762 -2.89805 0
M  V30 4318 H 442.656 -0.589852 -2.50756 0
M  V30 4319 H 442.614 1.08094 -2.95234 0
M  V30 4320 N 446.386 1.0089 -1.21074 0
M  V30 4321 C 447.663 1.71834 -0.934469 0
M  V30 4322 C 448.043 2.0368 0.554753 0
M  V30 4323 O 447.391 1.70742 1.51854 0
M  V30 4324 C 447.601 2.98061 -1.8155 0
M  V30 4325 C 448.949 3.7117 -2.06199 0
M  V30 4326 O 449.973 3.08034 -1.78867 0
M  V30 4327 O 448.832 4.84721 -2.52404 0
M  V30 4328 H 445.926 0.749253 -0.35007 0
M  V30 4329 H 448.472 1.06668 -1.31985 0
M  V30 4330 H 447.244 2.70908 -2.82355 0
M  V30 4331 H 446.867 3.70968 -1.43068 0
M  V30 4332 N 447.864 1.01787 1.20321 0
M  V30 4333 C 449.092 0.727194 1.937 0
M  V30 4334 C 449.507 -0.712305 1.74848 0
M  V30 4335 O 448.864 -1.48327 1.06327 0
M  V30 4336 C 448.915 1.05497 3.45764 0
M  V30 4337 O 448.636 2.43794 3.64 0
M  V30 4338 C 450.137 0.785534 4.36285 0
M  V30 4339 H 447.357 0.266939 0.615617 0
M  V30 4340 H 449.901 1.35939 1.52777 0
M  V30 4341 H 448.056 0.468158 3.84561 0
M  V30 4342 H 448.47 2.55656 4.57974 0
M  V30 4343 H 449.944 1.06495 5.4163 0
M  V30 4344 H 450.421 -0.280273 4.38305 0
M  V30 4345 H 451.027 1.35456 4.03152 0
M  V30 4346 N 449.342 -1.36122 0.79427 0
M  V30 4347 C 450.305 -2.28309 0.201889 0
M  V30 4348 C 451.305 -1.49041 -0.603603 0
M  V30 4349 O 452.495 -1.68964 -0.423888 0
M  V30 4350 C 449.627 -3.3321 -0.719978 0
M  V30 4351 H 450.82 -2.82208 1.01481 0
M  V30 4352 H 448.373 -1.45768 0.564037 0
M  V30 4353 H 449.108 -2.84475 -1.55706 0
M  V30 4354 H 448.893 -3.91835 -0.144266 0
M  V30 4355 H 450.383 -4.02044 -1.12916 0
M  V30 4356 N 450.82 -0.546701 -1.47814 0
M  V30 4357 C 451.75 0.195317 -2.32682 0
M  V30 4358 C 452.731 0.918981 -1.43139 0
M  V30 4359 O 453.916 0.901501 -1.72008 0
M  V30 4360 C 451.046 1.23237 -3.247 0
M  V30 4361 C 450 0.625818 -4.234 0
M  V30 4362 C 449.326 1.76674 -5.04669 0
M  V30 4363 C 450.626 -0.413515 -5.2066 0
M  V30 4364 H 452.32 -0.513184 -2.94969 0
M  V30 4365 H 449.866 -0.248241 -1.41844 0
M  V30 4366 H 451.819 1.75955 -3.82907 0
M  V30 4367 H 450.543 1.97067 -2.60446 0
M  V30 4368 H 449.202 0.120023 -3.66403 0
M  V30 4369 H 448.85 2.49383 -4.36826 0
M  V30 4370 H 448.55 1.36673 -5.71484 0
M  V30 4371 H 450.074 2.29738 -5.65732 0
M  V30 4372 H 451.488 0.0272042 -5.73294 0
M  V30 4373 H 449.885 -0.731825 -5.95621 0
M  V30 4374 H 450.955 -1.31325 -4.66778 0
M  V30 4375 N 452.299 1.55045 -0.282633 0
M  V30 4376 C 453.576 1.9179 0.384166 0
M  V30 4377 C 453.956 1.20778 1.73136 0
M  V30 4378 O 453.304 0.33719 2.25998 0
M  V30 4379 C 453.514 3.45149 0.517014 0
M  V30 4380 C 454.862 4.17064 0.796427 0
M  V30 4381 O 455.886 3.51084 0.601535 0
M  V30 4382 O 454.745 5.33837 1.16962 0
M  V30 4383 H 451.839 0.799483 0.211558 0
M  V30 4384 H 454.385 1.66474 -0.32934 0
M  V30 4385 H 453.157 3.88922 -0.430772 0
M  V30 4386 H 452.78 3.76443 1.2797 0
M  V30 4387 N 453.777 0.010035 1.57597 0
M  V30 4388 C 455.193 -0.346164 1.55801 0
M  V30 4389 C 455.393 -1.74144 1.01371 0
M  V30 4390 O 454.449 -2.43938 0.651968 0
M  V30 4391 C 455.762 -0.212216 2.9995 0
M  V30 4392 C 457.31 -0.286409 3.11687 0
M  V30 4393 C 457.785 -0.18147 4.5764 0
M  V30 4394 N 459.276 -0.239056 4.62583 0
M  V30 4395 C 460.011 -0.181351 5.73113 0
M  V30 4396 N 459.507 -0.073661 6.92761 0
M  V30 4397 N 461.3 -0.233949 5.61613 0
M  V30 4398 H 453.451 0.922657 1.91313 0
M  V30 4399 H 455.714 0.354595 0.879185 0
M  V30 4400 H 455.42 0.748169 3.4365 0
M  V30 4401 H 455.294 -0.990224 3.6397 0
M  V30 4402 H 457.681 -1.23724 2.67911 0
M  V30 4403 H 457.762 0.521645 2.50425 0
M  V30 4404 H 457.406 0.765863 5.02093 0
M  V30 4405 H 457.336 -1.00814 5.1686 0
M  V30 4406 H 459.827 -0.32321 3.76515 0
M  V30 4407 H 460.14 -0.0358003 7.72792 0
M  V30 4408 H 458.485 -0.0391461 6.94989 0
M  V30 4409 H 461.676 -0.316347 4.6703 0
M  V30 4410 H 461.849 -0.185514 6.47734 0
M  V30 4411 N 455.255 -1.55392 -0.262866 0
M  V30 4412 C 456.203 -1.8977 -1.345 0
M  V30 4413 C 457.197 -0.775063 -1.50629 0
M  V30 4414 O 458.403 -0.959519 -1.52293 0
M  V30 4415 H 454.778 -0.602467 -0.450041 0
M  V30 4416 H 456.749 -2.80147 -1.02762 0
M  V30 4417 C 455.498 -2.19501 -2.69657 0
M  V30 4418 H 454.821 -3.05378 -2.5804 0
M  V30 4419 H 456.261 -2.47469 -3.44289 0
M  V30 4420 C 454.72 -1.00597 -3.21531 0
M  V30 4421 O 455.25 -0.245768 -4.00947 0
M  V30 4422 N 453.456 -0.800911 -2.79345 0
M  V30 4423 H 453.003 -1.42079 -2.14875 0
M  V30 4424 H 452.961 -0.00697996 -3.14399 0
M  V30 4425 N 456.733 0.527833 -1.48498 0
M  V30 4426 C 457.958 1.313 -1.60546 0
M  V30 4427 C 458.383 1.86199 -0.26672 0
M  V30 4428 O 457.741 1.64513 0.761918 0
M  V30 4429 C 457.789 2.43818 -2.65678 0
M  V30 4430 O 456.893 3.46916 -2.22987 0
M  V30 4431 H 456.234 0.388784 -0.538277 0
M  V30 4432 H 458.764 0.634896 -1.945 0
M  V30 4433 H 458.774 2.89973 -2.87018 0
M  V30 4434 H 457.449 2.03222 -3.62869 0
M  V30 4435 H 456.026 3.06864 -2.11869 0
M  V30 4436 N 458.211 1.37122 0.776871 0
M  V30 4437 C 459.488 1.22586 1.52421 0
M  V30 4438 C 459.868 -0.182726 2.10308 0
M  V30 4439 O 459.216 -1.18979 1.9508 0
M  V30 4440 C 459.426 2.31782 2.60918 0
M  V30 4441 C 460.774 2.69071 3.2846 0
M  V30 4442 O 461.798 2.3092 2.71209 0
M  V30 4443 O 460.657 3.3478 4.31954 0
M  V30 4444 H 457.751 0.478045 0.674835 0
M  V30 4445 H 460.297 1.48888 0.814275 0
M  V30 4446 H 459.069 3.26131 2.16227 0
M  V30 4447 H 458.692 2.06916 3.39517 0
M  V30 4448 N 459.689 -1.00246 1.21608 0
M  V30 4449 C 460.652 -2.07233 0.979133 0
M  V30 4450 C 461.652 -1.6072 -0.0508219 0
M  V30 4451 O 462.842 -1.73196 0.186712 0
M  V30 4452 C 459.974 -3.37546 0.477016 0
M  V30 4453 H 461.167 -2.29687 1.92831 0
M  V30 4454 H 458.72 -1.17261 1.03342 0
M  V30 4455 H 459.455 -3.20773 -0.476966 0
M  V30 4456 H 459.24 -3.72638 1.21997 0
M  V30 4457 H 460.73 -4.16285 0.331181 0
M  V30 4458 N 461.167 -1.02423 -1.1978 0
M  V30 4459 C 462.13 -0.605703 -2.21052 0
M  V30 4460 C 463.13 0.328209 -1.57415 0
M  V30 4461 O 464.32 0.115853 -1.73814 0
M  V30 4462 C 461.452 0.114366 -3.40708 0
M  V30 4463 H 462.645 -1.5017 -2.59594 0
M  V30 4464 H 460.198 -0.814888 -1.33376 0
M  V30 4465 H 460.933 1.02492 -3.07678 0
M  V30 4466 H 460.718 -0.556641 -3.88129 0
M  V30 4467 H 462.208 0.394272 -4.15735 0
M  V30 4468 N 462.645 1.35699 -0.801477 0
M  V30 4469 C 463.608 2.28199 -0.213994 0
M  V30 4470 C 464.608 1.49359 0.595691 0
M  V30 4471 O 465.798 1.69186 0.414921 0
M  V30 4472 C 462.93 3.33587 0.702297 0
M  V30 4473 H 464.123 2.81666 -1.02976 0
M  V30 4474 H 461.676 1.45467 -0.571759 0
M  V30 4475 H 462.411 2.85297 1.54195 0
M  V30 4476 H 462.196 3.91906 0.123484 0
M  V30 4477 H 463.686 4.02638 1.10783 0
M  V30 4478 N 464.123 0.554532 1.47522 0
M  V30 4479 C 465.073 -0.215008 2.26984 0
M  V30 4480 C 466.057 -0.88774 1.34194 0
M  V30 4481 O 467.249 -0.786489 1.58567 0
M  V30 4482 C 464.378 -1.24604 3.19889 0
M  V30 4483 C 463.464 -0.576857 4.20159 0
M  V30 4484 N 463.855 0.351541 5.04577 0
M  V30 4485 C 462.153 -0.831104 4.38188 0
M  V30 4486 C 462.854 0.739995 5.76974 0
M  V30 4487 N 461.83 0.0954407 5.43516 0
M  V30 4488 H 465.632 0.498843 2.89636 0
M  V30 4489 H 463.146 0.374279 1.58028 0
M  V30 4490 H 465.143 -1.81128 3.75498 0
M  V30 4491 H 463.803 -1.96101 2.58794 0
M  V30 4492 H 464.814 0.725556 5.12792 0
M  V30 4493 H 461.491 -1.53479 3.88266 0
M  V30 4494 H 462.881 1.50271 6.5488 0
M  V30 4495 N 465.601 -1.54893 0.290851 0
M  V30 4496 C 466.564 -2.21824 -0.576784 0
M  V30 4497 C 467.564 -1.20104 -1.06919 0
M  V30 4498 O 468.754 -1.44906 -0.966843 0
M  V30 4499 C 465.886 -2.89662 -1.79747 0
M  V30 4500 H 467.079 -2.99899 0.00784051 0
M  V30 4501 H 464.632 -1.56245 0.0415934 0
M  V30 4502 H 465.367 -2.15639 -2.42219 0
M  V30 4503 H 465.152 -3.64219 -1.45214 0
M  V30 4504 H 466.642 -3.4075 -2.4141 0
M  V30 4505 N 467.08 -0.0183926 -1.57589 0
M  V30 4506 C 468.329 0.66185 -1.90532 0
M  V30 4507 C 468.642 1.73904 -0.895366 0
M  V30 4508 O 469.848 2.47518 -1.11566 0
M  V30 4509 C 468.304 1.22844 -3.38286 0
M  V30 4510 C 467.912 0.185103 -4.47617 0
M  V30 4511 C 469.656 1.88581 -3.80312 0
M  V30 4512 C 467.563 0.762723 -5.86461 0
M  V30 4513 H 466.493 0.250972 -0.711006 0
M  V30 4514 H 469.144 -0.0819435 -1.83317 0
M  V30 4515 H 467.526 2.0235 -3.40398 0
M  V30 4516 H 468.7 -0.58671 -4.5705 0
M  V30 4517 H 467.015 -0.372889 -4.14727 0
M  V30 4518 H 469.612 2.32735 -4.81392 0
M  V30 4519 H 469.955 2.72408 -3.14801 0
M  V30 4520 H 470.488 1.15782 -3.80578 0
M  V30 4521 H 467.227 -0.0371713 -6.55489 0
M  V30 4522 H 466.747 1.50327 -5.80656 0
M  V30 4523 H 468.426 1.25576 -6.34697 0
M  V30 4524 N 468.558 1.5553 0.254621 0
M  V30 4525 C 469.804 1.7818 0.980989 0
M  V30 4526 C 470.159 0.586059 1.83257 0
M  V30 4527 O 469.452 -0.420889 1.8692 0
M  V30 4528 C 469.646 3.03891 1.88109 0
M  V30 4529 C 469.475 4.35578 1.11812 0
M  V30 4530 C 468.245 4.98497 0.826343 0
M  V30 4531 C 470.443 5.11869 0.499486 0
M  V30 4532 N 468.425 6.13888 0.0385095 0
M  V30 4533 C 469.796 6.1981 -0.153292 0
M  V30 4534 C 471.851 4.96216 0.409175 0
M  V30 4535 C 470.554 7.13801 -0.8877 0
M  V30 4536 C 472.58 5.90578 -0.311683 0
M  V30 4537 C 471.942 6.97922 -0.953129 0
M  V30 4538 H 468.041 0.704057 0.340335 0
M  V30 4539 H 470.625 1.93025 0.254855 0
M  V30 4540 H 468.796 2.90389 2.57932 0
M  V30 4541 H 470.528 3.14869 2.54244 0
M  V30 4542 H 467.283 4.59769 1.13621 0
M  V30 4543 H 467.707 6.76129 -0.343275 0
M  V30 4544 H 472.349 4.1331 0.890765 0
M  V30 4545 H 470.067 7.96214 -1.38092 0
M  V30 4546 H 473.653 5.80544 -0.382125 0
M  V30 4547 H 472.533 7.69681 -1.50203 0
M  V30 4548 N 470.036 -0.519951 1.48776 0
M  V30 4549 C 471.264 -1.29971 1.60982 0
M  V30 4550 C 471.679 -1.86803 0.273885 0
M  V30 4551 O 471.036 -1.66904 -0.738193 0
M  V30 4552 C 471.087 -2.44346 2.66415 0
M  V30 4553 O 470.808 -1.89855 3.94825 0
M  V30 4554 C 472.309 -3.36014 2.89153 0
M  V30 4555 H 469.529 -0.394891 0.542496 0
M  V30 4556 H 472.073 -0.626214 1.94676 0
M  V30 4557 H 470.228 -3.07562 2.35552 0
M  V30 4558 H 470.642 -2.64798 4.5275 0
M  V30 4559 H 472.116 -4.12593 3.66703 0
M  V30 4560 H 472.593 -3.91859 1.98351 0
M  V30 4561 H 473.199 -2.78582 3.21359 0
M  V30 4562 N 471.514 -1.37532 -0.769588 0
M  V30 4563 C 472.444 -1.36172 -1.89682 0
M  V30 4564 C 473.425 -0.23001 -1.68538 0
M  V30 4565 O 474.61 -0.43069 -1.89364 0
M  V30 4566 C 471.74 -1.1701 -3.26995 0
M  V30 4567 C 470.694 -2.27216 -3.62708 0
M  V30 4568 C 470.02 -1.93174 -4.98586 0
M  V30 4569 C 471.32 -3.6941 -3.69234 0
M  V30 4570 H 473.014 -2.30499 -1.91078 0
M  V30 4571 H 470.56 -1.10953 -0.917902 0
M  V30 4572 H 472.513 -1.14688 -4.05493 0
M  V30 4573 H 471.237 -0.191395 -3.26039 0
M  V30 4574 H 469.896 -2.28697 -2.86519 0
M  V30 4575 H 469.544 -0.938281 -4.94171 0
M  V30 4576 H 469.244 -2.66973 -5.23449 0
M  V30 4577 H 470.768 -1.92443 -5.79481 0
M  V30 4578 H 472.182 -3.70047 -4.37879 0
M  V30 4579 H 470.579 -4.4228 -4.05597 0
M  V30 4580 H 471.649 -4.0288 -2.69844 0
M  V30 4581 N 472.992 0.995999 -1.22138 0
M  V30 4582 C 474.217 1.77601 -1.0711 0
M  V30 4583 C 474.642 1.84339 0.374264 0
M  V30 4584 O 474 1.29359 1.27028 0
M  V30 4585 C 474.048 3.18897 -1.68336 0
M  V30 4586 O 473.152 4.01663 -0.934928 0
M  V30 4587 H 472.493 0.547011 -0.376397 0
M  V30 4588 H 475.023 1.25137 -1.6187 0
M  V30 4589 H 475.033 3.69539 -1.72931 0
M  V30 4590 H 473.708 3.13308 -2.73516 0
M  V30 4591 H 472.285 3.60204 -0.964751 0
M  V30 4592 N 474.47 1.03057 1.19235 0
M  V30 4593 C 475.695 0.74757 1.93458 0
M  V30 4594 C 476.12 -0.687648 1.7508 0
M  V30 4595 O 475.478 -1.47499 1.05422 0
M  V30 4596 C 475.526 1.10604 3.43219 0
M  V30 4597 O 474.63 0.225671 4.11782 0
M  V30 4598 H 473.971 0.276047 0.603899 0
M  V30 4599 H 476.501 1.3777 1.51263 0
M  V30 4600 H 476.511 1.06366 3.93891 0
M  V30 4601 H 475.186 2.15165 3.55917 0
M  V30 4602 H 473.763 0.326795 3.71465 0
M  V30 4603 N 475.948 -1.35272 0.808662 0
M  V30 4604 C 477.196 -1.98316 0.389233 0
M  V30 4605 C 477.517 -1.64465 -1.04767 0
M  V30 4606 O 476.787 -0.928175 -1.72516 0
M  V30 4607 H 475.367 -0.733585 0.140935 0
M  V30 4608 H 478.029 -1.6515 1.03496 0
M  V30 4609 H 477.125 -3.08123 0.496631 0
M  V30 4610 N 477.426 -0.562348 -1.47226 0
M  V30 4611 C 478.654 -0.0452275 -2.06851 0
M  V30 4612 C 479.069 1.25078 -1.41424 0
M  V30 4613 O 478.426 1.75156 -0.512513 0
M  V30 4614 C 478.477 0.148674 -3.61194 0
M  V30 4615 O 478.198 -1.09602 -4.24169 0
M  V30 4616 C 479.699 0.702488 -4.37699 0
M  V30 4617 H 476.919 -0.0481775 -0.669268 0
M  V30 4618 H 479.463 -0.777223 -1.89155 0
M  V30 4619 H 477.618 0.830817 -3.78386 0
M  V30 4620 H 478.032 -0.896982 -5.16773 0
M  V30 4621 H 479.506 0.78743 -5.46355 0
M  V30 4622 H 479.983 1.71493 -4.04335 0
M  V30 4623 H 480.589 0.0558772 -4.25263 0
M  V30 4624 N 478.904 1.54736 -0.299062 0
M  V30 4625 C 480.152 1.99706 0.31017 0
M  V30 4626 C 480.473 1.18896 1.54559 0
M  V30 4627 O 479.743 0.284445 1.93824 0
M  V30 4628 H 478.323 0.737686 0.117596 0
M  V30 4629 H 480.985 1.9054 -0.409943 0
M  V30 4630 H 480.081 3.06596 0.58355 0
M  V30 4631 N 480.382 0.0267497 1.57577 0
M  V30 4632 C 481.292 -0.971633 2.13533 0
M  V30 4633 C 482.308 -1.35868 1.08701 0
M  V30 4634 O 483.484 -1.44058 1.40746 0
M  V30 4635 C 480.549 -2.23622 2.64941 0
M  V30 4636 C 479.61 -1.90982 3.8448 0
M  V30 4637 C 478.843 -3.11411 4.33427 0
M  V30 4638 O 479.066 -4.23992 3.81558 0
M  V30 4639 O 478 -2.93848 5.25297 0
M  V30 4640 H 481.826 -0.525853 2.99113 0
M  V30 4641 H 479.411 -0.193712 1.48139 0
M  V30 4642 H 481.293 -2.97864 2.98086 0
M  V30 4643 H 479.968 -2.67386 1.82446 0
M  V30 4644 H 478.875 -1.14132 3.56265 0
M  V30 4645 H 480.208 -1.52036 4.6813 0
M  V30 4646 N 481.861 -1.55662 -0.24637 0
M  V30 4647 C 483.272 -1.67953 -0.81539 0
M  V30 4648 C 483.623 -0.624302 -1.86002 0
M  V30 4649 O 482.748 0.229328 -2.15181 0
M  V30 4650 C 483.343 -3.04484 -1.48576 0
M  V30 4651 C 481.902 -3.18713 -2.00248 0
M  V30 4652 C 481.049 -2.6383 -0.853766 0
M  V30 4653 H 484 -1.58685 -0.0221692 0
M  V30 4654 H 484.021 -2.98959 -2.3538 0
M  V30 4655 H 483.533 -3.81264 -0.725222 0
M  V30 4656 H 481.634 -2.46757 -2.79181 0
M  V30 4657 H 481.747 -4.25628 -2.1995 0
M  V30 4658 H 480.111 -2.21667 -1.25442 0
M  V30 4659 H 480.894 -3.43135 -0.106302 0
M  V30 4660 N 483.339 0.512053 -1.4905 0
M  V30 4661 C 484.75 1.09376 -1.51307 0
M  V30 4662 C 485.101 1.94 -0.292971 0
M  V30 4663 O 484.226 2.07965 0.598277 0
M  V30 4664 C 484.821 1.99031 -2.74176 0
M  V30 4665 C 483.38 2.52385 -2.79247 0
M  V30 4666 C 482.527 1.29749 -2.45073 0
M  V30 4667 H 485.478 0.296467 -1.55906 0
M  V30 4668 H 485.499 2.83569 -2.53711 0
M  V30 4669 H 485.011 1.37412 -3.62959 0
M  V30 4670 H 483.112 3.17673 -1.94716 0
M  V30 4671 H 483.225 2.90293 -3.81139 0
M  V30 4672 H 481.589 1.61912 -1.96612 0
M  V30 4673 H 482.372 0.698555 -3.36118 0
M  V30 4674 N 484.817 1.37938 0.762283 0
M  V30 4675 C 486.045 1.36883 1.55147 0
M  V30 4676 C 486.46 -0.0435348 1.8875 0
M  V30 4677 O 485.817 -1.00786 1.52146 0
M  V30 4678 C 485.868 2.21624 2.85596 0
M  V30 4679 O 485.589 3.57358 2.5343 0
M  V30 4680 C 487.09 2.28653 3.7978 0
M  V30 4681 H 484.31 0.468521 0.480343 0
M  V30 4682 H 486.854 1.81404 0.944079 0
M  V30 4683 H 485.009 1.80588 3.42734 0
M  V30 4684 H 485.423 4.01883 3.37032 0
M  V30 4685 H 486.897 2.9225 4.68288 0
M  V30 4686 H 487.374 1.29767 4.19592 0
M  V30 4687 H 487.98 2.70043 3.28568 0
M  V30 4688 N 486.295 -0.989507 1.22664 0
M  V30 4689 C 487.543 -1.72612 1.05117 0
M  V30 4690 C 487.864 -1.90552 -0.414131 0
M  V30 4691 O 487.134 -1.4676 -1.29762 0
M  V30 4692 H 485.714 -0.639555 0.385977 0
M  V30 4693 H 488.376 -1.19158 1.54232 0
M  V30 4694 H 487.472 -2.71926 1.53175 0
M  V30 4695 N 487.773 -1.03688 -1.18687 0
M  V30 4696 C 488.683 -0.634908 -2.25845 0
M  V30 4697 C 489.699 0.337065 -1.70704 0
M  V30 4698 O 490.875 0.192943 -2.00474 0
M  V30 4699 C 487.94 -0.000180054 -3.467 0
M  V30 4700 C 487.001 -1.02067 -4.1699 0
M  V30 4701 C 486.234 -0.41614 -5.32075 0
M  V30 4702 O 486.457 0.778712 -5.65059 0
M  V30 4703 O 485.391 -1.14296 -5.90948 0
M  V30 4704 H 489.217 -1.52757 -2.62486 0
M  V30 4705 H 486.802 -0.807533 -1.25695 0
M  V30 4706 H 488.684 0.353342 -4.19916 0
M  V30 4707 H 487.359 0.866367 -3.11891 0
M  V30 4708 H 486.266 -1.42592 -3.45859 0
M  V30 4709 H 487.599 -1.85786 -4.5579 0
M  V30 4710 N 489.251 1.34841 -0.815825 0
M  V30 4711 C 490.499 1.98107 -0.399744 0
M  V30 4712 C 490.82 1.65019 1.03894 0
M  V30 4713 O 490.09 0.937311 1.72021 0
M  V30 4714 H 488.67 0.732827 -0.144823 0
M  V30 4715 H 491.332 1.64599 -1.0437 0
M  V30 4716 H 490.428 3.07856 -0.512965 0
M  V30 4717 N 490.729 0.570148 1.46925 0
M  V30 4718 C 491.975 0.0510284 2.02736 0
M  V30 4719 C 492.308 -1.3006 1.44215 0
M  V30 4720 O 491.583 -1.84932 0.602521 0
M  V30 4721 C 491.866 -0.028215 3.60089 0
M  V30 4722 C 491.719 1.35142 4.29018 0
M  V30 4723 C 493.038 -0.735181 4.33916 0
M  V30 4724 H 490.157 0.0200178 0.736728 0
M  V30 4725 H 492.799 0.73493 1.75211 0
M  V30 4726 H 490.949 -0.610648 3.83671 0
M  V30 4727 H 492.621 1.97806 4.16738 0
M  V30 4728 H 490.864 1.9226 3.88868 0
M  V30 4729 H 491.535 1.24857 5.37694 0
M  V30 4730 H 494.011 -0.240519 4.15404 0
M  V30 4731 H 492.887 -0.759622 5.43618 0
M  V30 4732 H 493.148 -1.79397 4.04066 0
M  V30 4733 N 492.207 -1.54576 0.307264 0
M  V30 4734 C 493.454 -2.00263 -0.300167 0
M  V30 4735 C 493.782 -1.19561 -1.53413 0
M  V30 4736 O 493.037 -0.261487 -1.93945 0
M  V30 4737 C 493.336 -3.50572 -0.695253 0
M  V30 4738 C 493.002 -4.48771 0.437679 0
M  V30 4739 C 491.664 -4.7534 0.748681 0
M  V30 4740 C 494.016 -5.0721 1.19949 0
M  V30 4741 C 491.344 -5.5761 1.8245 0
M  V30 4742 C 493.696 -5.90651 2.26527 0
M  V30 4743 C 492.36 -6.15528 2.58227 0
M  V30 4744 H 491.63 -0.732814 -0.109839 0
M  V30 4745 H 494.277 -1.86664 0.427661 0
M  V30 4746 H 492.582 -3.61814 -1.50326 0
M  V30 4747 H 494.279 -3.83352 -1.17653 0
M  V30 4748 H 490.869 -4.282 0.185187 0
M  V30 4749 H 495.053 -4.86679 0.972474 0
M  V30 4750 H 490.309 -5.75121 2.07476 0
M  V30 4751 H 494.483 -6.34957 2.86011 0
M  V30 4752 H 492.11 -6.79066 3.4172 0
M  V30 4753 N 493.685 -0.035106 -1.57561 0
M  V30 4754 C 494.91 0.655802 -1.96759 0
M  V30 4755 C 495.335 1.64523 -0.911809 0
M  V30 4756 O 494.693 1.80857 0.126673 0
M  V30 4757 C 494.741 1.33326 -3.35047 0
M  V30 4758 O 493.845 2.44866 -3.31835 0
M  V30 4759 H 493.186 0.171807 -0.641388 0
M  V30 4760 H 495.716 -0.0987369 -2.04362 0
M  V30 4761 H 495.726 1.68867 -3.71413 0
M  V30 4762 H 494.401 0.608033 -4.11431 0
M  V30 4763 H 492.978 2.11392 -3.07193 0
M  V30 4764 N 495.163 1.55791 0.238111 0
M  V30 4765 C 496.111 1.91885 1.31464 0
M  V30 4766 C 497.105 0.798929 1.49377 0
M  V30 4767 O 498.311 0.983626 1.50747 0
M  V30 4768 H 494.686 0.609551 0.440399 0
M  V30 4769 H 496.657 2.81747 0.982925 0
M  V30 4770 C 495.406 2.23763 2.6613 0
M  V30 4771 H 494.729 3.09444 2.53149 0
M  V30 4772 H 496.169 2.52915 3.40309 0
M  V30 4773 C 494.628 1.05699 3.1989 0
M  V30 4774 O 495.158 0.309524 4.00506 0
M  V30 4775 N 493.364 0.845251 2.78036 0
M  V30 4776 H 492.911 1.4548 2.12588 0
M  V30 4777 H 492.869 0.0569973 3.14348 0
M  V30 4778 N 496.642 -0.504142 1.49319 0
M  V30 4779 C 497.87 -1.28256 1.62351 0
M  V30 4780 C 498.285 -1.86502 0.293682 0
M  V30 4781 O 497.642 -1.67678 -0.720449 0
M  V30 4782 C 497.693 -2.41507 2.68992 0
M  V30 4783 O 497.414 -1.85656 3.96817 0
M  V30 4784 C 498.915 -3.32929 2.927 0
M  V30 4785 H 496.135 -0.389115 0.546654 0
M  V30 4786 H 498.679 -0.605531 1.95329 0
M  V30 4787 H 496.834 -3.05046 2.38801 0
M  V30 4788 H 497.248 -2.59981 4.55533 0
M  V30 4789 H 498.722 -4.0868 3.71058 0
M  V30 4790 H 499.199 -3.89733 2.02496 0
M  V30 4791 H 499.805 -2.75158 3.24296 0
M  V30 4792 N 498.12 -1.38341 -0.754957 0
M  V30 4793 C 499.348 -1.37704 -1.54419 0
M  V30 4794 C 499.763 0.0335243 -1.8877 0
M  V30 4795 O 499.12 0.999773 -1.52679 0
M  V30 4796 C 499.171 -2.23136 -2.84416 0
M  V30 4797 O 498.892 -3.58697 -2.51531 0
M  V30 4798 C 500.393 -2.30664 -3.78562 0
M  V30 4799 H 497.613 -0.471061 -0.477852 0
M  V30 4800 H 500.157 -1.81902 -0.934446 0
M  V30 4801 H 498.312 -1.82403 -3.41772 0
M  V30 4802 H 498.726 -4.03665 -3.34896 0
M  V30 4803 H 500.2 -2.9473 -4.66732 0
M  V30 4804 H 500.677 -1.3199 -4.18898 0
M  V30 4805 H 501.283 -2.71781 -3.27131 0
M  V30 4806 N 499.598 0.982988 -1.23187 0
M  V30 4807 C 500.875 1.69814 -0.970707 0
M  V30 4808 C 501.255 2.04811 0.511424 0
M  V30 4809 O 500.603 1.73924 1.48198 0
M  V30 4810 C 500.813 2.94143 -1.87831 0
M  V30 4811 C 502.161 3.66712 -2.14026 0
M  V30 4812 O 503.185 3.04171 -1.8536 0
M  V30 4813 O 502.044 4.79258 -2.62629 0
M  V30 4814 H 499.138 0.741659 -0.365884 0
M  V30 4815 H 501.684 1.03844 -1.34218 0
M  V30 4816 H 500.456 2.64858 -2.88038 0
M  V30 4817 H 500.079 3.6785 -1.50905 0
M  V30 4818 N 501.076 1.04316 1.18135 0
M  V30 4819 C 502.322 0.749128 1.88457 0
M  V30 4820 C 502.655 -0.72149 1.803 0
M  V30 4821 O 501.93 -1.52676 1.205 0
M  V30 4822 C 502.213 1.21905 3.38838 0
M  V30 4823 C 502.066 2.75195 3.55792 0
M  V30 4824 C 503.385 0.811085 4.32561 0
M  V30 4825 H 500.504 0.273611 0.684329 0
M  V30 4826 H 503.146 1.29561 1.38975 0
M  V30 4827 H 501.296 0.754137 3.8111 0
M  V30 4828 H 502.968 3.29743 3.22595 0
M  V30 4829 H 501.211 3.14899 2.98364 0
M  V30 4830 H 501.882 3.03135 4.61317 0
M  V30 4831 H 504.358 1.21118 3.98082 0
M  V30 4832 H 503.234 1.16761 5.36338 0
M  V30 4833 H 503.495 -0.285596 4.41177 0
M  V30 4834 N 502.554 -1.34406 0.822964 0
M  V30 4835 C 503.517 -2.2783 0.250271 0
M  V30 4836 C 504.517 -1.50288 -0.571854 0
M  V30 4837 O 505.707 -1.69825 -0.387952 0
M  V30 4838 C 502.839 -3.34663 -0.649137 0
M  V30 4839 H 504.032 -2.79992 1.07444 0
M  V30 4840 H 501.585 -1.44539 0.594829 0
M  V30 4841 H 502.32 -2.87714 -1.49637 0
M  V30 4842 H 502.105 -3.92052 -0.0611199 0
M  V30 4843 H 503.595 -4.04349 -1.04363 0
M  V30 4844 N 504.032 -0.577932 -1.46621 0
M  V30 4845 C 505.281 -0.0594281 -2.01612 0
M  V30 4846 C 505.594 1.30663 -1.45556 0
M  V30 4847 O 506.8 1.91621 -1.92337 0
M  V30 4848 C 505.256 -0.0556666 -3.59857 0
M  V30 4849 C 504.864 -1.41975 -4.24908 0
M  V30 4850 C 506.608 0.409143 -4.22524 0
M  V30 4851 C 504.515 -1.37397 -5.75218 0
M  V30 4852 H 503.445 -0.0184469 -0.753774 0
M  V30 4853 H 506.096 -0.728869 -1.68404 0
M  V30 4854 H 504.478 0.679843 -3.90121 0
M  V30 4855 H 505.652 -2.17461 -4.0626 0
M  V30 4856 H 503.967 -1.82419 -3.74316 0
M  V30 4857 H 506.564 0.46211 -5.32699 0
M  V30 4858 H 506.907 1.42565 -3.91128 0
M  V30 4859 H 507.44 -0.272152 -3.96868 0
M  V30 4860 H 504.179 -2.36714 -6.11267 0
M  V30 4861 H 503.699 -0.661239 -5.96144 0
M  V30 4862 H 505.378 -1.08484 -6.3784 0
M  V30 4863 N 505.51 1.54411 -0.315457 0
M  V30 4864 C 506.921 1.85885 0.174265 0
M  V30 4865 C 507.272 1.23723 1.52273 0
M  V30 4866 O 506.397 0.540246 2.09548 0
M  V30 4867 C 506.992 3.37257 0.322981 0
M  V30 4868 C 505.551 3.68711 0.756922 0
M  V30 4869 C 504.698 2.77013 -0.126195 0
M  V30 4870 H 507.649 1.49374 -0.536007 0
M  V30 4871 H 507.67 3.62539 1.15522 0
M  V30 4872 H 507.182 3.82471 -0.658602 0
M  V30 4873 H 505.283 3.29024 1.74854 0
M  V30 4874 H 505.396 4.75741 0.566291 0
M  V30 4875 H 503.76 2.51588 0.39692 0
M  V30 4876 H 504.543 3.25051 -1.1044 0
M  V30 4877 N 506.988 0.0434614 1.5754 0
M  V30 4878 C 508.265 -0.671479 1.83713 0
M  V30 4879 C 508.645 -1.89495 0.930315 0
M  V30 4880 O 507.993 -2.28498 -0.0105639 0
M  V30 4881 C 508.203 -1.0361 3.33266 0
M  V30 4882 C 509.551 -1.42167 4.00092 0
M  V30 4883 O 510.575 -1.12866 3.37846 0
M  V30 4884 O 509.434 -1.96817 5.09829 0
M  V30 4885 H 506.528 -0.330726 0.75799 0
M  V30 4886 H 509.074 0.0722373 1.69546 0
M  V30 4887 H 507.846 -0.165938 3.90948 0
M  V30 4888 H 507.469 -1.83751 3.52592 0
M  V30 4889 N 508.466 -1.55915 -0.229846 0
M  V30 4890 C 509.429 -1.90914 -1.26824 0
M  V30 4891 C 510.429 -0.786999 -1.40225 0
M  V30 4892 O 511.619 -1.05484 -1.38632 0
M  V30 4893 C 508.751 -2.15264 -2.64337 0
M  V30 4894 H 509.944 -2.8378 -0.969998 0
M  V30 4895 H 507.497 -1.49069 -0.4699 0
M  V30 4896 H 508.232 -1.24923 -2.99274 0
M  V30 4897 H 508.017 -2.97005 -2.55989 0
M  V30 4898 H 509.507 -2.43467 -3.39284 0
M  V30 4899 N 509.944 0.496216 -1.49584 0
M  V30 4900 C 511.192 1.24756 -1.58998 0
M  V30 4901 C 511.513 1.92968 -0.280775 0
M  V30 4902 O 510.783 1.82959 0.700198 0
M  V30 4903 H 509.363 0.463471 -0.585836 0
M  V30 4904 H 512.025 0.574678 -1.86235 0
M  V30 4905 H 511.121 2.00895 -2.38847 0
M  V30 4906 N 511.423 1.38739 0.74761 0
M  V30 4907 C 512.386 1.36241 1.84312 0
M  V30 4908 C 513.386 0.261811 1.58654 0
M  V30 4909 O 514.576 0.519031 1.66288 0
M  V30 4910 C 511.708 1.12253 3.21888 0
M  V30 4911 H 512.901 2.33712 1.87933 0
M  V30 4912 H 510.454 1.2412 0.949946 0
M  V30 4913 H 511.189 0.154133 3.23934 0
M  V30 4914 H 510.974 1.91943 3.41907 0
M  V30 4915 H 512.464 1.13215 4.0196 0
M  V30 4916 N 512.901 -0.976442 1.23707 0
M  V30 4917 C 513.864 -2.0511 1.02287 0
M  V30 4918 C 514.864 -1.60791 -0.0167195 0
M  V30 4919 O 516.054 -1.72761 0.223408 0
M  V30 4920 C 513.186 -3.36458 0.548507 0
M  V30 4921 H 514.379 -2.25545 1.9766 0
M  V30 4922 H 511.932 -1.15042 1.05806 0
M  V30 4923 H 512.667 -3.21713 -0.408818 0
M  V30 4924 H 512.452 -3.69967 1.29874 0
M  V30 4925 H 513.942 -4.15489 0.419406 0
M  V30 4926 N 514.379 -1.04941 -1.1758 0
M  V30 4927 C 515.625 -0.759112 -1.88057 0
M  V30 4928 C 515.958 0.711918 -1.8068 0
M  V30 4929 O 515.233 1.52035 -1.21308 0
M  V30 4930 C 515.516 -1.237 -3.38187 0
M  V30 4931 C 515.369 -2.77078 -3.54327 0
M  V30 4932 C 516.688 -0.834014 -4.32125 0
M  V30 4933 H 513.807 -0.277237 -0.682868 0
M  V30 4934 H 516.449 -1.30296 -1.38286 0
M  V30 4935 H 514.599 -0.774337 -3.80705 0
M  V30 4936 H 516.271 -3.31449 -3.20842 0
M  V30 4937 H 514.514 -3.16477 -2.96689 0
M  V30 4938 H 515.185 -3.05577 -4.59703 0
M  V30 4939 H 517.661 -1.23228 -3.97434 0
M  V30 4940 H 516.537 -1.19603 -5.35711 0
M  V30 4941 H 516.798 0.262195 -4.41322 0
M  V30 4942 N 515.857 1.33968 -0.830081 0
M  V30 4943 C 517.085 2.0228 -0.434773 0
M  V30 4944 C 517.5 1.62487 0.961419 0
M  V30 4945 O 516.857 0.833849 1.62337 0
M  V30 4946 C 516.908 3.5751 -0.535625 0
M  V30 4947 O 516.629 3.95864 -1.87679 0
M  V30 4948 C 518.13 4.43091 -0.136137 0
M  V30 4949 H 515.35 0.648151 -0.173613 0
M  V30 4950 H 517.894 1.71089 -1.12022 0
M  V30 4951 H 516.049 3.87266 0.101817 0
M  V30 4952 H 516.463 4.9056 -1.85609 0
M  V30 4953 H 517.937 5.51398 -0.257772 0
M  V30 4954 H 518.414 4.29433 0.921076 0
M  V30 4955 H 519.02 4.18677 -0.747662 0
M  V30 4956 N 517.335 0.585699 1.46312 0
M  V30 4957 C 518.56 0.0762461 2.0726 0
M  V30 4958 C 518.985 -1.22071 1.43109 0
M  V30 4959 O 518.343 -1.73804 0.515942 0
M  V30 4960 C 518.391 -0.0729404 3.60526 0
M  V30 4961 O 517.495 -1.1287 3.96654 0
M  V30 4962 H 516.836 0.0641558 0.660893 0
M  V30 4963 H 519.366 0.809492 1.87905 0
M  V30 4964 H 519.376 -0.278158 4.07051 0
M  V30 4965 H 518.051 0.874188 4.06609 0
M  V30 4966 H 516.628 -0.901703 3.61834 0
M  V30 4967 N 518.813 -1.54241 0.323641 0
M  V30 4968 C 520.038 -2.05452 -0.283605 0
M  V30 4969 C 520.463 -1.19823 -1.44997 0
M  V30 4970 O 519.821 -0.207358 -1.8011 0
M  V30 4971 C 519.869 -3.53823 -0.695795 0
M  V30 4972 O 518.973 -3.71134 -1.79815 0
M  V30 4973 H 518.314 -0.662024 -0.0511917 0
M  V30 4974 H 520.844 -1.99079 0.472073 0
M  V30 4975 H 520.854 -3.96094 -0.978434 0
M  V30 4976 H 519.529 -4.15602 0.157287 0
M  V30 4977 H 518.106 -3.40768 -1.51431 0
M  V30 4978 N 520.291 -0.0518155 -1.57515 0
M  V30 4979 C 521.537 0.622745 -1.93002 0
M  V30 4980 C 521.87 1.70456 -0.930499 0
M  V30 4981 O 521.145 1.94452 0.0434086 0
M  V30 4982 C 521.428 1.21824 -3.38867 0
M  V30 4983 C 521.281 0.144434 -4.49568 0
M  V30 4984 C 522.6 2.12968 -3.8514 0
M  V30 4985 H 519.719 0.22491 -0.701844 0
M  V30 4986 H 522.361 -0.113711 -1.89659 0
M  V30 4987 H 520.511 1.8459 -3.41846 0
M  V30 4988 H 522.183 -0.48753 -4.58717 0
M  V30 4989 H 520.426 -0.527424 -4.30582 0
M  V30 4990 H 521.097 0.601127 -5.48717 0
M  V30 4991 H 523.573 1.60163 -3.8404 0
M  V30 4992 H 522.449 2.51578 -4.87852 0
M  V30 4993 H 522.71 3.03004 -3.21934 0
M  V30 4994 N 521.769 1.56035 0.221574 0
M  V30 4995 C 522.732 1.91584 1.2581 0
M  V30 4996 C 523.732 0.794425 1.39805 0
M  V30 4997 O 524.922 1.06217 1.38071 0
M  V30 4998 C 522.054 2.16663 2.63192 0
M  V30 4999 H 523.247 2.8429 0.954935 0
M  V30 5000 H 520.8 1.49316 0.461988 0
M  V30 5001 H 521.535 1.26508 2.98607 0
M  V30 5002 H 521.32 2.98358 2.5441 0
M  V30 5003 H 522.81 2.45262 3.37988 0
M  V30 5004 N 523.247 -0.488276 1.49845 0
M  V30 5005 C 524.493 -1.24341 1.6021 0
M  V30 5006 C 524.826 -1.91967 0.293651 0
M  V30 5007 O 524.101 -1.81323 -0.703718 0
M  V30 5008 C 524.384 -2.3005 2.77036 0
M  V30 5009 C 524.237 -1.66842 4.17713 0
M  V30 5010 C 525.556 -3.31509 2.89464 0
M  V30 5011 H 522.675 -0.450704 0.583125 0
M  V30 5012 H 525.317 -0.539673 1.82174 0
M  V30 5013 H 523.467 -2.90071 2.58439 0
M  V30 5014 H 525.139 -1.1055 4.47858 0
M  V30 5015 H 523.382 -0.972079 4.22768 0
M  V30 5016 H 524.053 -2.43576 4.95353 0
M  V30 5017 H 526.529 -2.81493 3.06433 0
M  V30 5018 H 525.405 -4.02822 3.72861 0
M  V30 5019 H 525.666 -3.94603 1.99351 0
M  V30 5020 N 524.725 -1.39134 -0.740242 0
M  V30 5021 C 525.953 -1.39334 -1.5295 0
M  V30 5022 C 526.368 0.0135008 -1.88795 0
M  V30 5023 O 525.725 0.983524 -1.5373 0
M  V30 5024 C 525.776 -2.2614 -2.82034 0
M  V30 5025 O 525.497 -3.61345 -2.47712 0
M  V30 5026 C 526.998 -2.34666 -3.76094 0
M  V30 5027 H 524.218 -0.476103 -0.472828 0
M  V30 5028 H 526.762 -1.82883 -0.9151 0
M  V30 5029 H 524.917 -1.86018 -3.39818 0
M  V30 5030 H 525.331 -4.07194 -3.30595 0
M  V30 5031 H 526.805 -2.99663 -4.63579 0
M  V30 5032 H 527.282 -1.36426 -4.17474 0
M  V30 5033 H 527.888 -2.75236 -3.2423 0
M  V30 5034 N 526.204 0.969867 -1.24223 0
M  V30 5035 C 527.452 1.70918 -1.0785 0
M  V30 5036 C 527.773 1.91186 0.383763 0
M  V30 5037 O 527.043 1.48806 1.27411 0
M  V30 5038 H 525.623 0.633334 -0.396103 0
M  V30 5039 H 528.285 1.16689 -1.56108 0
M  V30 5040 H 527.381 2.69455 -1.57482 0
M  V30 5041 N 527.682 1.05563 1.17022 0
M  V30 5042 C 529.098 0.777684 1.39371 0
M  V30 5043 C 529.298 -0.626269 1.91521 0
M  V30 5044 O 528.354 -1.38806 2.10924 0
M  V30 5045 C 529.667 1.83642 2.3811 0
M  V30 5046 C 531.215 1.85907 2.51809 0
M  V30 5047 C 531.69 2.90813 3.53824 0
M  V30 5048 N 533.181 2.898 3.61345 0
M  V30 5049 C 533.916 3.6762 4.40049 0
M  V30 5050 N 533.412 4.55237 5.22237 0
M  V30 5051 N 535.205 3.56044 4.34959 0
M  V30 5052 H 527.356 1.9614 0.815047 0
M  V30 5053 H 529.619 0.849527 0.420722 0
M  V30 5054 H 529.325 2.84425 2.06871 0
M  V30 5055 H 529.199 1.6812 3.37662 0
M  V30 5056 H 531.586 0.857865 2.82356 0
M  V30 5057 H 531.667 2.05506 1.52318 0
M  V30 5058 H 531.311 3.91122 3.24015 0
M  V30 5059 H 531.241 2.68465 4.53028 0
M  V30 5060 H 533.732 2.26274 3.02669 0
M  V30 5061 H 534.045 5.11291 5.79484 0
M  V30 5062 H 532.39 4.59296 5.21605 0
M  V30 5063 H 535.581 2.86986 3.69806 0
M  V30 5064 H 535.754 4.16938 4.96051 0
M  V30 5065 N 529.16 -1.33526 0.837174 0
M  V30 5066 C 530.388 -2.02047 0.445494 0
M  V30 5067 C 530.803 -1.62995 -0.952788 0
M  V30 5068 O 530.16 -0.842447 -1.61892 0
M  V30 5069 C 530.211 -3.57221 0.554577 0
M  V30 5070 O 529.932 -3.94863 1.89776 0
M  V30 5071 C 531.433 -4.43012 0.159634 0
M  V30 5072 H 528.653 -0.647221 0.177048 0
M  V30 5073 H 531.197 -1.70492 1.12928 0
M  V30 5074 H 529.352 -3.87315 -0.0812781 0
M  V30 5075 H 529.766 -4.89569 1.88208 0
M  V30 5076 H 531.24 -5.51253 0.28701 0
M  V30 5077 H 531.717 -4.29916 -0.898289 0
M  V30 5078 H 532.323 -4.18274 0.769855 0
M  V30 5079 N 530.638 -0.59345 -1.46 0
M  V30 5080 C 531.886 -0.082988 -2.0193 0
M  V30 5081 C 532.207 1.28569 -1.46612 0
M  V30 5082 O 531.477 1.84629 -0.654909 0
M  V30 5083 H 530.057 -0.0276882 -0.746487 0
M  V30 5084 H 532.719 -0.771657 -1.78973 0
M  V30 5085 H 531.815 -0.022079 -3.12092 0
M  V30 5086 N 532.116 1.54067 -0.331816 0
M  V30 5087 C 533.064 2.26105 0.54582 0
M  V30 5088 C 534.058 1.27816 1.11173 0
M  V30 5089 O 535.264 1.45565 1.05882 0
M  V30 5090 H 531.639 0.726363 0.194683 0
M  V30 5091 H 533.61 2.98282 -0.083931 0
M  V30 5092 C 532.359 3.03814 1.69092 0
M  V30 5093 H 531.682 3.79269 1.26473 0
M  V30 5094 H 533.122 3.57453 2.28043 0
M  V30 5095 C 531.581 2.12606 2.61343 0
M  V30 5096 O 532.111 1.71437 3.6328 0
M  V30 5097 N 530.317 1.77925 2.29763 0
M  V30 5098 H 529.864 2.11602 1.46909 0
M  V30 5099 H 529.822 1.1718 2.91747 0
M  V30 5100 N 533.594 0.0601682 1.57485 0
M  V30 5101 C 534.557 -0.896373 2.10945 0
M  V30 5102 C 535.557 -1.23402 1.03095 0
M  V30 5103 O 536.747 -1.16921 1.29132 0
M  V30 5104 C 533.879 -2.20346 2.60116 0
M  V30 5105 H 535.072 -0.432778 2.96761 0
M  V30 5106 H 532.625 -0.188372 1.55161 0
M  V30 5107 H 533.36 -2.71268 1.7772 0
M  V30 5108 H 533.145 -1.9714 3.38937 0
M  V30 5109 H 534.635 -2.88846 3.01592 0
M  V30 5110 N 535.072 -1.5615 -0.213296 0
M  V30 5111 C 536.483 -1.69645 -0.779582 0
M  V30 5112 C 536.834 -0.663615 -1.84636 0
M  V30 5113 O 535.959 0.183633 -2.15619 0
M  V30 5114 C 536.554 -3.07567 -1.42084 0
M  V30 5115 C 535.113 -3.22889 -1.93442 0
M  V30 5116 C 534.26 -2.65581 -0.797612 0
M  V30 5117 H 537.211 -1.58696 0.0114951 0
M  V30 5118 H 537.232 -3.03884 -2.28986 0
M  V30 5119 H 536.744 -3.82716 -0.644187 0
M  V30 5120 H 534.845 -2.52623 -2.73884 0
M  V30 5121 H 534.958 -4.30197 -2.10872 0
M  V30 5122 H 533.322 -2.24278 -1.20712 0
M  V30 5123 H 534.105 -3.43284 -0.033494 0
M  V30 5124 N 536.55 0.480323 -1.50102 0
M  V30 5125 C 537.513 1.56181 -1.6775 0
M  V30 5126 C 538.513 1.51156 -0.548503 0
M  V30 5127 O 539.703 1.5394 -0.815363 0
M  V30 5128 C 536.835 2.95823 -1.69415 0
M  V30 5129 H 538.028 1.41855 -2.6423 0
M  V30 5130 H 535.581 0.70605 -1.39444 0
M  V30 5131 H 536.316 3.15604 -0.745948 0
M  V30 5132 H 536.101 3.00878 -2.51425 0
M  V30 5133 H 537.591 3.74359 -1.85054 0
M  V30 5134 N 538.028 1.39524 0.732853 0
M  V30 5135 C 538.991 1.38189 1.82857 0
M  V30 5136 C 539.991 0.278624 1.58368 0
M  V30 5137 O 541.181 0.536639 1.65728 0
M  V30 5138 C 538.313 1.15661 3.2068 0
M  V30 5139 H 539.506 2.35692 1.85444 0
M  V30 5140 H 537.059 1.2512 0.936728 0
M  V30 5141 H 537.794 0.188482 3.23752 0
M  V30 5142 H 537.579 1.95559 3.39852 0
M  V30 5143 H 539.069 1.17472 4.00737 0
M  V30 5144 N 539.506 -0.963266 1.24736 0
M  V30 5145 C 540.436 -2.07628 1.06832 0
M  V30 5146 C 541.417 -1.70088 -0.0200566 0
M  V30 5147 O 542.602 -1.93636 0.147854 0
M  V30 5148 C 539.732 -3.40636 0.677069 0
M  V30 5149 C 538.686 -3.9215 1.71471 0
M  V30 5150 C 538.012 -5.21553 1.1784 0
M  V30 5151 C 539.312 -4.19493 3.11164 0
M  V30 5152 H 541.006 -2.22864 1.9993 0
M  V30 5153 H 538.552 -1.07093 0.96266 0
M  V30 5154 H 540.505 -4.17941 0.538792 0
M  V30 5155 H 539.229 -3.25313 -0.289612 0
M  V30 5156 H 537.888 -3.17005 1.84128 0
M  V30 5157 H 537.536 -5.02593 0.202195 0
M  V30 5158 H 537.236 -5.56988 1.87185 0
M  V30 5159 H 538.76 -6.01463 1.05233 0
M  V30 5160 H 540.174 -4.87487 3.01711 0
M  V30 5161 H 538.571 -4.66165 3.77902 0
M  V30 5162 H 539.641 -3.26097 3.58871 0
M  V30 5163 N 540.985 -1.06182 -1.16461 0
M  V30 5164 C 541.917 -0.629584 -2.20383 0
M  V30 5165 C 542.93 0.311834 -1.59786 0
M  V30 5166 O 544.119 0.103 -1.78203 0
M  V30 5167 C 541.219 0.0973695 -3.3876 0
M  V30 5168 C 540.392 -0.857252 -4.28917 0
M  V30 5169 C 539.451 -0.169749 -5.25926 0
M  V30 5170 O 538.477 -0.807044 -5.6345 0
M  V30 5171 N 539.679 1.08911 -5.70192 0
M  V30 5172 H 542.444 -1.52352 -2.58087 0
M  V30 5173 H 540.005 -0.944993 -1.31459 0
M  V30 5174 H 541.997 0.567676 -4.00699 0
M  V30 5175 H 540.567 0.893093 -2.99571 0
M  V30 5176 H 539.787 -1.50696 -3.64259 0
M  V30 5177 H 541.075 -1.50489 -4.86035 0
M  V30 5178 H 540.473 1.62703 -5.41797 0
M  V30 5179 H 539.03 1.50331 -6.34227 0
M  V30 5180 N 542.463 1.3308 -0.844243 0
M  V30 5181 C 543.709 1.97898 -0.443206 0
M  V30 5182 C 544.042 1.66699 0.99625 0
M  V30 5183 O 543.317 0.949704 1.69738 0
M  V30 5184 C 543.6 3.53801 -0.670606 0
M  V30 5185 C 543.453 3.94667 -2.15772 0
M  V30 5186 C 544.772 4.39936 -0.120226 0
M  V30 5187 H 541.891 0.718861 -0.162504 0
M  V30 5188 H 544.533 1.57633 -1.06075 0
M  V30 5189 H 542.683 3.88229 -0.14496 0
M  V30 5190 H 544.355 3.70469 -2.74865 0
M  V30 5191 H 542.598 3.44203 -2.6402 0
M  V30 5192 H 543.269 5.03275 -2.26757 0
M  V30 5193 H 545.745 4.12183 -0.5696 0
M  V30 5194 H 544.621 5.4803 -0.308984 0
M  V30 5195 H 544.882 4.31184 0.976347 0
M  V30 5196 N 543.941 0.601185 1.45683 0
M  V30 5197 C 545.189 0.0936957 2.01883 0
M  V30 5198 C 545.51 -1.2779 1.47291 0
M  V30 5199 O 544.78 -1.84279 0.664691 0
M  V30 5200 H 543.36 0.0316466 0.746329 0
M  V30 5201 H 546.022 0.781137 1.78562 0
M  V30 5202 H 545.118 0.0386297 3.12076 0
M  V30 5203 N 545.419 -1.53889 0.339982 0
M  V30 5204 C 546.665 -2.01152 -0.258003 0
M  V30 5205 C 546.998 -1.22749 -1.50487 0
M  V30 5206 O 546.273 -0.314156 -1.91946 0
M  V30 5207 C 546.556 -3.55468 -0.575717 0
M  V30 5208 C 546.409 -4.44584 0.682996 0
M  V30 5209 C 547.728 -4.1768 -1.38677 0
M  V30 5210 H 544.847 -0.731198 -0.0922992 0
M  V30 5211 H 547.489 -1.84352 0.459814 0
M  V30 5212 H 545.639 -3.69914 -1.18725 0
M  V30 5213 H 547.311 -4.41981 1.32102 0
M  V30 5214 H 545.554 -4.13592 1.3086 0
M  V30 5215 H 546.225 -5.5043 0.416001 0
M  V30 5216 H 548.701 -4.0691 -0.869705 0
M  V30 5217 H 547.577 -5.25734 -1.57783 0
M  V30 5218 H 547.838 -3.72069 -2.38782 0
M  V30 5219 N 546.897 -0.0685191 -1.57451 0
M  V30 5220 C 548.174 0.642167 -1.84758 0
M  V30 5221 C 548.554 1.87991 -0.960344 0
M  V30 5222 O 547.902 2.28485 -0.0257894 0
M  V30 5223 C 548.112 0.982946 -3.34872 0
M  V30 5224 C 549.46 1.35784 -4.02303 0
M  V30 5225 O 550.484 1.07477 -3.39598 0
M  V30 5226 O 549.343 1.88681 -5.12895 0
M  V30 5227 H 546.437 0.318625 -0.763156 0
M  V30 5228 H 548.983 -0.0992015 -1.6941 0
M  V30 5229 H 547.755 0.10372 -3.91163 0
M  V30 5230 H 547.378 1.78119 -3.55471 0
M  V30 5231 N 548.375 1.56261 0.205012 0
M  V30 5232 C 549.624 1.79236 0.925058 0
M  V30 5233 C 549.937 0.640011 1.84833 0
M  V30 5234 O 551.143 0.753809 2.60826 0
M  V30 5235 C 549.599 3.17475 1.69522 0
M  V30 5236 C 549.207 4.40482 0.817269 0
M  V30 5237 C 550.951 3.49766 2.4055 0
M  V30 5238 C 548.858 5.69744 1.58573 0
M  V30 5239 H 547.788 0.668287 0.349153 0
M  V30 5240 H 550.439 1.82629 0.178544 0
M  V30 5241 H 548.821 3.08304 2.48526 0
M  V30 5242 H 549.995 4.60752 0.0665988 0
M  V30 5243 H 548.31 4.15827 0.218316 0
M  V30 5244 H 550.907 4.43573 2.98575 0
M  V30 5245 H 551.25 2.73041 3.14252 0
M  V30 5246 H 551.783 3.60341 1.68522 0
M  V30 5247 H 548.522 6.49407 0.891679 0
M  V30 5248 H 548.042 5.53509 2.31059 0
M  V30 5249 H 549.721 6.1051 2.14212 0
M  V30 5250 N 549.853 -0.472356 1.50355 0
M  V30 5251 C 550.8 -1.57051 1.69126 0
M  V30 5252 C 551.77 -1.5733 0.532574 0
M  V30 5253 O 552.955 -1.7488 0.762994 0
M  V30 5254 C 550.095 -2.95033 1.79024 0
M  V30 5255 C 549.208 -3.04552 3.06386 0
M  V30 5256 C 548.343 -4.33441 3.07087 0
M  V30 5257 C 547.382 -4.36697 4.28908 0
M  V30 5258 N 546.519 -5.57056 4.27356 0
M  V30 5259 H 551.359 -1.40351 2.62879 0
M  V30 5260 H 548.896 -0.682403 1.30314 0
M  V30 5261 H 550.854 -3.75048 1.82744 0
M  V30 5262 H 549.484 -3.10371 0.887109 0
M  V30 5263 H 548.536 -2.17419 3.12143 0
M  V30 5264 H 549.848 -3.02818 3.96362 0
M  V30 5265 H 549.002 -5.21801 3.09529 0
M  V30 5266 H 547.741 -4.37782 2.14939 0
M  V30 5267 H 546.746 -3.46734 4.2668 0
M  V30 5268 H 547.971 -4.34049 5.22282 0
M  V30 5269 H 545.917 -5.62184 3.3806 0
M  V30 5270 H 545.834 -5.57058 5.111 0
M  V30 5271 H 547.102 -6.47545 4.33942 0
M  V30 5272 N 551.331 -1.39911 -0.725443 0
M  V30 5273 C 552.281 -1.35878 -1.83088 0
M  V30 5274 C 553.265 -0.237989 -1.5913 0
M  V30 5275 O 554.457 -0.476302 -1.70471 0
M  V30 5276 C 551.586 -1.21403 -3.21117 0
M  V30 5277 C 550.672 -2.38223 -3.50871 0
M  V30 5278 N 551.063 -3.63703 -3.51502 0
M  V30 5279 C 549.361 -2.31388 -3.81281 0
M  V30 5280 C 550.062 -4.4101 -3.79322 0
M  V30 5281 N 549.038 -3.7072 -3.97577 0
M  V30 5282 H 552.84 -2.3085 -1.81895 0
M  V30 5283 H 550.354 -1.33543 -0.924125 0
M  V30 5284 H 552.351 -1.16597 -4.00263 0
M  V30 5285 H 551.011 -0.273902 -3.23543 0
M  V30 5286 H 552.022 -3.96998 -3.32586 0
M  V30 5287 H 548.699 -1.45689 -3.91256 0
M  V30 5288 H 550.089 -5.49819 -3.86198 0
M  V30 5289 N 552.809 0.956637 -1.25245 0
M  V30 5290 C 554.037 1.73571 -1.12608 0
M  V30 5291 C 554.452 1.86063 0.320324 0
M  V30 5292 O 553.809 1.35691 1.22042 0
M  V30 5293 C 553.86 3.15053 -1.77268 0
M  V30 5294 O 553.581 3.03174 -3.16255 0
M  V30 5295 C 555.082 4.09248 -1.70386 0
M  V30 5296 H 552.302 0.543955 -0.392879 0
M  V30 5297 H 554.846 1.20031 -1.65568 0
M  V30 5298 H 553.001 3.65543 -1.28284 0
M  V30 5299 H 553.415 3.9241 -3.48015 0
M  V30 5300 H 554.889 5.06138 -2.20291 0
M  V30 5301 H 555.366 4.34102 -0.667239 0
M  V30 5302 H 555.972 3.64672 -2.18849 0
M  V30 5303 N 554.287 1.06798 1.15896 0
M  V30 5304 C 555.517 0.807522 1.90165 0
M  V30 5305 C 555.925 -0.642417 1.7796 0
M  V30 5306 O 555.268 -1.45193 1.12537 0
M  V30 5307 C 555.33 1.12939 3.41299 0
M  V30 5308 C 554.994 2.57879 3.7729 0
M  V30 5309 C 555.991 3.56118 3.78782 0
M  V30 5310 C 553.676 2.93311 4.07767 0
M  V30 5311 C 555.67 4.87827 4.10248 0
M  V30 5312 C 553.357 4.25219 4.38899 0
M  V30 5313 C 554.355 5.22287 4.4012 0
M  V30 5314 O 554.043 6.51826 4.70508 0
M  V30 5315 H 553.775 0.291946 0.609708 0
M  V30 5316 H 556.329 1.42627 1.47806 0
M  V30 5317 H 554.559 0.45359 3.84031 0
M  V30 5318 H 556.248 0.852363 3.9685 0
M  V30 5319 H 557.014 3.30086 3.55342 0
M  V30 5320 H 552.893 2.18409 4.05979 0
M  V30 5321 H 556.437 5.63586 4.11116 0
M  V30 5322 H 552.334 4.51006 4.61805 0
M  V30 5323 H 553.102 6.56893 4.88298 0
M  V30 5324 N 555.766 -1.3263 0.851289 0
M  V30 5325 C 557.182 -1.50162 0.5407 0
M  V30 5326 C 557.382 -1.78788 -0.929369 0
M  V30 5327 O 556.438 -1.85545 -1.71258 0
M  V30 5328 C 557.751 -2.64803 1.42478 0
M  V30 5329 C 559.299 -2.78688 1.42485 0
M  V30 5330 C 559.774 -3.96405 2.29407 0
M  V30 5331 N 561.265 -4.0366 2.27184 0
M  V30 5332 C 562 -4.93971 2.9117 0
M  V30 5333 N 561.496 -5.89313 3.64256 0
M  V30 5334 N 563.289 -4.87066 2.80576 0
M  V30 5335 H 555.44 -1.12315 1.80275 0
M  V30 5336 H 557.703 -0.553266 0.769806 0
M  V30 5337 H 557.409 -2.50368 2.46999 0
M  V30 5338 H 557.283 -3.60506 1.10974 0
M  V30 5339 H 559.67 -2.92547 0.387304 0
M  V30 5340 H 559.751 -1.83708 1.78002 0
M  V30 5341 H 559.395 -3.83304 3.33228 0
M  V30 5342 H 559.325 -4.90654 1.91224 0
M  V30 5343 H 561.816 -3.35435 1.74045 0
M  V30 5344 H 562.129 -6.54913 4.10255 0
M  V30 5345 H 560.474 -5.8935 3.68364 0
M  V30 5346 H 563.665 -4.11552 2.23031 0
M  V30 5347 H 563.838 -5.57248 3.30725 0
M  V30 5348 N 557.244 -0.608902 -1.45362 0
M  V30 5349 C 558.492 -0.104401 -2.0183 0
M  V30 5350 C 558.813 1.27007 -1.47967 0
M  V30 5351 O 558.083 1.83924 -0.674455 0
M  V30 5352 H 556.663 -0.0356042 -0.746151 0
M  V30 5353 H 559.325 -0.790596 -1.78145 0
M  V30 5354 H 558.421 -0.0551793 -3.12051 0
M  V30 5355 N 558.722 1.53707 -0.348139 0
M  V30 5356 C 559.999 1.93247 0.302475 0
M  V30 5357 C 560.379 1.28012 1.67857 0
M  V30 5358 O 559.727 0.43274 2.24365 0
M  V30 5359 C 559.937 3.47031 0.370159 0
M  V30 5360 C 561.285 4.20066 0.61882 0
M  V30 5361 O 562.309 3.53319 0.452087 0
M  V30 5362 O 561.168 5.38318 0.94215 0
M  V30 5363 H 558.262 0.807736 0.177458 0
M  V30 5364 H 560.808 1.64927 -0.399651 0
M  V30 5365 H 559.58 3.86745 -0.59534 0
M  V30 5366 H 559.203 3.81532 1.11888 0
M  V30 5367 N 560.2 0.0768682 1.57412 0
M  V30 5368 C 561.13 -0.886026 2.16037 0
M  V30 5369 C 562.111 -1.30691 1.08876 0
M  V30 5370 O 563.296 -1.37705 1.36934 0
M  V30 5371 C 560.426 -2.1518 2.72608 0
M  V30 5372 C 559.38 -1.87015 3.8498 0
M  V30 5373 C 558.706 -3.20266 4.28175 0
M  V30 5374 C 560.006 -1.17143 5.08994 0
M  V30 5375 H 561.7 -0.397642 2.96748 0
M  V30 5376 H 559.246 -0.189823 1.42743 0
M  V30 5377 H 561.199 -2.82962 3.12266 0
M  V30 5378 H 559.923 -2.66269 1.89125 0
M  V30 5379 H 558.582 -1.21636 3.45833 0
M  V30 5380 H 558.23 -3.69207 3.41607 0
M  V30 5381 H 557.93 -3.0221 5.03927 0
M  V30 5382 H 559.454 -3.89237 4.70454 0
M  V30 5383 H 560.868 -1.75003 5.45937 0
M  V30 5384 H 559.265 -1.09328 5.90057 0
M  V30 5385 H 560.335 -0.151295 4.84664 0
M  V30 5386 N 561.678 -1.56367 -0.196722 0
M  V30 5387 C 562.924 -1.80796 -0.918725 0
M  V30 5388 C 563.257 -0.650645 -1.82976 0
M  V30 5389 O 562.532 0.348889 -1.91345 0
M  V30 5390 C 562.815 -3.15472 -1.73636 0
M  V30 5391 C 562.668 -4.41693 -0.85015 0
M  V30 5392 C 563.987 -3.46824 -2.70927 0
M  V30 5393 H 561.106 -0.657702 -0.332561 0
M  V30 5394 H 563.748 -1.89086 -0.186186 0
M  V30 5395 H 561.898 -3.08536 -2.36088 0
M  V30 5396 H 563.57 -4.60673 -0.240459 0
M  V30 5397 H 561.813 -4.33517 -0.156785 0
M  V30 5398 H 562.484 -5.32419 -1.45719 0
M  V30 5399 H 564.96 -3.54049 -2.18607 0
M  V30 5400 H 563.836 -4.4218 -3.25219 0
M  V30 5401 H 564.097 -2.70236 -3.49893 0
M  V30 5402 N 563.156 0.464375 -1.50603 0
M  V30 5403 C 564.402 1.21776 -1.62168 0
M  V30 5404 C 564.735 1.91476 -0.324154 0
M  V30 5405 O 564.01 1.8242 0.674782 0
M  V30 5406 C 564.293 2.25614 -2.80661 0
M  V30 5407 C 564.146 1.60175 -4.20314 0
M  V30 5408 C 565.465 3.26862 -2.94702 0
M  V30 5409 H 562.584 0.44137 -0.590222 0
M  V30 5410 H 565.226 0.510623 -1.8301 0
M  V30 5411 H 563.376 2.85923 -2.63021 0
M  V30 5412 H 565.048 1.03411 -4.4956 0
M  V30 5413 H 563.291 0.904697 -4.24261 0
M  V30 5414 H 563.962 2.35665 -4.99165 0
M  V30 5415 H 566.438 2.76582 -3.10872 0
M  V30 5416 H 565.314 3.96839 -3.79223 0
M  V30 5417 H 565.575 3.91382 -2.05603 0
M  V30 5418 N 564.634 1.40294 0.718013 0
M  V30 5419 C 565.911 1.2894 1.47084 0
M  V30 5420 C 566.291 -0.0933625 2.10893 0
M  V30 5421 O 565.639 -1.10598 1.99951 0
M  V30 5422 C 565.849 2.4264 2.50852 0
M  V30 5423 C 567.197 2.8276 3.16752 0
M  V30 5424 O 568.221 2.42215 2.61171 0
M  V30 5425 O 567.08 3.528 4.17366 0
M  V30 5426 H 564.174 0.506236 0.653952 0
M  V30 5427 H 566.72 1.52208 0.750394 0
M  V30 5428 H 565.492 3.35009 2.022 0
M  V30 5429 H 565.115 2.21129 3.30435 0
M  V30 5430 N 566.112 -0.949982 1.2575 0
M  V30 5431 C 567.042 -2.06483 1.09028 0
M  V30 5432 C 568.023 -1.701 -0.00201532 0
M  V30 5433 O 569.208 -1.93469 0.168383 0
M  V30 5434 C 566.338 -3.39899 0.71316 0
M  V30 5435 C 565.292 -3.90309 1.75621 0
M  V30 5436 C 564.618 -5.20274 1.23365 0
M  V30 5437 C 565.918 -4.16169 3.15596 0
M  V30 5438 H 567.612 -2.20731 2.02283 0
M  V30 5439 H 565.158 -1.06066 0.973964 0
M  V30 5440 H 567.111 -4.17346 0.58309 0
M  V30 5441 H 565.835 -3.25602 -0.255091 0
M  V30 5442 H 564.494 -3.15035 1.8748 0
M  V30 5443 H 564.142 -5.02351 0.255491 0
M  V30 5444 H 563.842 -5.54971 1.93082 0
M  V30 5445 H 565.366 -6.00314 1.11607 0
M  V30 5446 H 566.78 -4.84259 3.06864 0
M  V30 5447 H 565.177 -4.62131 3.82825 0
M  V30 5448 H 566.247 -3.22273 3.6231 0
M  V30 5449 N 567.59 -1.07411 -1.15328 0
M  V30 5450 C 568.52 -0.716472 -2.22236 0
M  V30 5451 C 569.501 0.296373 -1.67498 0
M  V30 5452 O 570.686 0.168989 -1.93463 0
M  V30 5453 C 567.816 -0.114142 -3.47112 0
M  V30 5454 C 566.77 -1.05421 -4.14814 0
M  V30 5455 C 566.096 -0.314604 -5.33774 0
M  V30 5456 C 567.396 -2.38808 -4.64508 0
M  V30 5457 H 569.09 -1.61029 -2.52408 0
M  V30 5458 H 566.636 -0.775702 -1.21321 0
M  V30 5459 H 568.589 0.148001 -4.2114 0
M  V30 5460 H 567.313 0.814755 -3.16274 0
M  V30 5461 H 565.972 -1.30128 -3.42728 0
M  V30 5462 H 565.62 0.617772 -4.99192 0
M  V30 5463 H 565.32 -0.941209 -5.80013 0
M  V30 5464 H 566.844 -0.0602747 -6.1057 0
M  V30 5465 H 568.258 -2.18424 -5.3006 0
M  V30 5466 H 566.655 -2.97069 -5.21412 0
M  V30 5467 H 567.725 -3.01067 -3.80114 0
M  V30 5468 N 569.068 1.32177 -0.85831 0
M  V30 5469 C 570.031 2.27086 -0.310588 0
M  V30 5470 C 571.031 1.51751 0.531806 0
M  V30 5471 O 572.221 1.70794 0.34279 0
M  V30 5472 C 569.353 3.36266 0.560179 0
M  V30 5473 H 570.546 2.77045 -1.1483 0
M  V30 5474 H 568.099 1.42911 -0.632942 0
M  V30 5475 H 568.834 2.9158 1.41956 0
M  V30 5476 H 568.619 3.92077 -0.0428473 0
M  V30 5477 H 570.109 4.06974 0.936056 0
M  V30 5478 N 570.547 0.616602 1.45037 0
M  V30 5479 C 571.958 0.199359 1.85633 0
M  V30 5480 C 572.309 -1.24588 1.51566 0
M  V30 5481 O 571.434 -1.94594 0.94668 0
M  V30 5482 C 572.029 0.355033 3.36935 0
M  V30 5483 C 570.588 -0.00758748 3.76399 0
M  V30 5484 C 569.735 0.675256 2.68953 0
M  V30 5485 H 572.686 0.822708 1.3571 0
M  V30 5486 H 572.707 -0.410201 3.78282 0
M  V30 5487 H 572.219 1.40699 3.61698 0
M  V30 5488 H 570.32 -1.05837 3.57252 0
M  V30 5489 H 570.433 0.392346 4.77491 0
M  V30 5490 H 568.797 0.111992 2.54454 0
M  V30 5491 H 569.58 1.72952 2.96551 0
M  V30 5492 N 572.025 -1.5352 0.356285 0
M  V30 5493 C 573.302 -1.93405 -0.292223 0
M  V30 5494 C 573.682 -1.28901 -1.67176 0
M  V30 5495 O 573.03 -0.444632 -2.24132 0
M  V30 5496 C 573.24 -3.47223 -0.35175 0
M  V30 5497 C 574.588 -4.20389 -0.596534 0
M  V30 5498 O 575.612 -3.53554 -0.433344 0
M  V30 5499 O 574.471 -5.3881 -0.913589 0
M  V30 5500 H 571.565 -0.808666 -0.173172 0
M  V30 5501 H 574.111 -1.64713 0.408391 0
M  V30 5502 H 572.883 -3.86423 0.615841 0
M  V30 5503 H 572.506 -3.8212 -1.09864 0
M  V30 5504 N 573.503 -0.0852151 -1.57369 0
M  V30 5505 C 574.751 0.579658 -1.93609 0
M  V30 5506 C 575.072 1.69332 -0.967043 0
M  V30 5507 O 574.342 1.95892 -0.0174215 0
M  V30 5508 H 572.922 0.217113 -0.714752 0
M  V30 5509 H 575.584 -0.146226 -1.94351 0
M  V30 5510 H 574.68 0.996276 -2.95771 0
M  V30 5511 N 574.981 1.5647 0.188427 0
M  V30 5512 C 576.209 1.85131 0.923803 0
M  V30 5513 C 576.624 0.668537 1.76567 0
M  V30 5514 O 575.981 -0.362662 1.7886 0
M  V30 5515 C 576.032 3.12661 1.81453 0
M  V30 5516 O 575.753 4.26378 1.00665 0
M  V30 5517 C 577.254 3.54548 2.66103 0
M  V30 5518 H 574.474 0.614624 0.269218 0
M  V30 5519 H 577.018 2.03581 0.193671 0
M  V30 5520 H 575.173 2.96088 2.49821 0
M  V30 5521 H 575.587 4.99041 1.61425 0
M  V30 5522 H 577.061 4.4673 3.24247 0
M  V30 5523 H 577.538 2.77853 3.40139 0
M  V30 5524 H 578.144 3.73674 2.03096 0
M  V30 5525 N 576.459 -0.456382 1.50847 0
M  V30 5526 C 577.422 -1.53493 1.70213 0
M  V30 5527 C 578.422 -1.50264 0.572481 0
M  V30 5528 O 579.612 -1.52623 0.839751 0
M  V30 5529 C 576.744 -2.93091 1.741 0
M  V30 5530 H 577.937 -1.37633 2.66453 0
M  V30 5531 H 575.49 -0.683776 1.4055 0
M  V30 5532 H 576.225 -3.14378 0.796063 0
M  V30 5533 H 576.01 -2.9684 2.5618 0
M  V30 5534 H 577.5 -3.71368 1.90987 0
M  V30 5535 N 577.937 -1.40673 -0.710563 0
M  V30 5536 C 579.167 -1.4234 -1.49742 0
M  V30 5537 C 579.575 -0.022821 -1.89186 0
M  V30 5538 O 578.918 0.964773 -1.56326 0
M  V30 5539 C 578.98 -2.25509 -2.79975 0
M  V30 5540 C 578.644 -3.73862 -2.62824 0
M  V30 5541 C 579.641 -4.66379 -2.29752 0
M  V30 5542 C 577.326 -4.17735 -2.78932 0
M  V30 5543 C 579.32 -6.00756 -2.13006 0
M  V30 5544 C 577.007 -5.5218 -2.61802 0
M  V30 5545 C 578.005 -6.43505 -2.28888 0
M  V30 5546 O 577.693 -7.75472 -2.11894 0
M  V30 5547 H 577.425 -0.487311 -0.468513 0
M  V30 5548 H 579.979 -1.8542 -0.883668 0
M  V30 5549 H 578.209 -1.77218 -3.43701 0
M  V30 5550 H 579.898 -2.19058 -3.41714 0
M  V30 5551 H 580.664 -4.33778 -2.16936 0
M  V30 5552 H 576.543 -3.46967 -3.03537 0
M  V30 5553 H 580.087 -6.72003 -1.87237 0
M  V30 5554 H 575.984 -5.84365 -2.74204 0
M  V30 5555 H 576.752 -7.86458 -2.26775 0
M  V30 5556 N 579.415 0.9433 -1.26252 0
M  V30 5557 C 580.831 1.21644 -1.03319 0
M  V30 5558 C 581.031 2.0003 0.242983 0
M  V30 5559 O 580.087 2.33838 0.952688 0
M  V30 5560 C 581.4 1.97978 -2.2633 0
M  V30 5561 C 582.948 2.10978 -2.31209 0
M  V30 5562 C 583.423 2.90713 -3.53907 0
M  V30 5563 N 584.914 2.98287 -3.54371 0
M  V30 5564 C 585.649 3.60406 -4.45976 0
M  V30 5565 N 585.145 4.24043 -5.47868 0
M  V30 5566 N 586.938 3.57658 -4.33633 0
M  V30 5567 H 579.089 0.419221 -2.08222 0
M  V30 5568 H 581.352 0.247995 -0.914988 0
M  V30 5569 H 581.058 1.47788 -3.19142 0
M  V30 5570 H 580.932 2.9865 -2.30408 0
M  V30 5571 H 583.319 2.6036 -1.38913 0
M  V30 5572 H 583.4 1.09575 -2.31143 0
M  V30 5573 H 583.044 2.42018 -4.46531 0
M  V30 5574 H 582.974 3.92367 -3.5122 0
M  V30 5575 H 585.465 2.53044 -2.80673 0
M  V30 5576 H 585.778 4.69334 -6.13959 0
M  V30 5577 H 584.123 4.22637 -5.51728 0
M  V30 5578 H 587.314 3.07134 -3.53251 0
M  V30 5579 H 587.487 4.05782 -5.05218 0
M  V30 5580 N 580.893 1.08022 1.14757 0
M  V30 5581 C 581.823 0.728248 2.21853 0
M  V30 5582 C 582.804 -0.287486 1.67653 0
M  V30 5583 O 583.989 -0.158727 1.9355 0
M  V30 5584 C 581.119 0.132549 3.47047 0
M  V30 5585 C 580.073 1.07619 4.14249 0
M  V30 5586 C 579.399 0.342907 5.33599 0
M  V30 5587 C 580.699 2.41268 4.63235 0
M  V30 5588 H 582.393 1.62365 2.51551 0
M  V30 5589 H 579.939 0.782125 1.20908 0
M  V30 5590 H 581.892 -0.125665 4.21213 0
M  V30 5591 H 580.616 -0.797971 3.16702 0
M  V30 5592 H 579.275 1.31944 3.42033 0
M  V30 5593 H 578.923 -0.59129 4.99513 0
M  V30 5594 H 578.623 0.971955 5.79506 0
M  V30 5595 H 580.147 0.0926538 6.1053 0
M  V30 5596 H 581.561 2.21232 5.28894 0
M  V30 5597 H 579.958 2.9983 5.19829 0
M  V30 5598 H 581.028 3.03079 3.78512 0
M  V30 5599 N 582.371 -1.3172 0.865308 0
M  V30 5600 C 583.318 -2.2863 0.315736 0
M  V30 5601 C 584.288 -1.55524 -0.583213 0
M  V30 5602 O 585.473 -1.83694 -0.51585 0
M  V30 5603 C 582.613 -3.41735 -0.480773 0
M  V30 5604 C 581.726 -4.297 0.445167 0
M  V30 5605 C 580.861 -5.29944 -0.365012 0
M  V30 5606 C 579.9 -6.09554 0.557651 0
M  V30 5607 N 579.037 -7.01768 -0.215994 0
M  V30 5608 H 583.877 -2.75026 1.14736 0
M  V30 5609 H 581.414 -1.35302 0.577209 0
M  V30 5610 H 583.372 -4.06045 -0.958306 0
M  V30 5611 H 582.002 -2.96461 -1.27714 0
M  V30 5612 H 581.054 -3.65875 1.04113 0
M  V30 5613 H 582.366 -4.85295 1.15284 0
M  V30 5614 H 581.52 -5.99908 -0.905255 0
M  V30 5615 H 580.259 -4.74994 -1.106 0
M  V30 5616 H 579.264 -5.38485 1.10969 0
M  V30 5617 H 580.489 -6.66591 1.29742 0
M  V30 5618 H 578.435 -6.49232 -0.939878 0
M  V30 5619 H 578.352 -7.54762 0.432431 0
M  V30 5620 H 579.62 -7.76002 -0.737618 0
M  V30 5621 N 583.85 -0.624285 -1.44708 0
M  V30 5622 C 584.798 0.0969952 -2.32398 0
M  V30 5623 C 585.792 0.842762 -1.46949 0
M  V30 5624 O 586.998 0.756436 -1.63334 0
M  V30 5625 H 583.373 0.0501306 -0.750327 0
M  V30 5626 H 585.344 -0.660767 -2.90992 0
M  V30 5627 C 584.093 1.06967 -3.30837 0
M  V30 5628 H 583.416 0.505242 -3.96595 0
M  V30 5629 H 584.856 1.54397 -3.94889 0
M  V30 5630 C 583.315 2.15153 -2.5925 0
M  V30 5631 O 583.845 3.23139 -2.3863 0
M  V30 5632 N 582.051 1.90898 -2.19103 0
M  V30 5633 H 581.598 1.03086 -2.36074 0
M  V30 5634 H 581.556 2.63485 -1.71531 0
M  V30 5635 N 585.328 1.53329 -0.364422 0
M  V30 5636 C 586.553 2.06132 0.229033 0
M  V30 5637 C 586.978 1.23625 1.41769 0
M  V30 5638 O 586.336 0.255038 1.79497 0
M  V30 5639 C 586.384 3.55544 0.60174 0
M  V30 5640 O 585.488 3.75771 1.69912 0
M  V30 5641 H 584.829 0.663148 0.0336213 0
M  V30 5642 H 587.359 1.97758 -0.524689 0
M  V30 5643 H 587.369 3.98549 0.873073 0
M  V30 5644 H 586.044 4.15039 -0.267421 0
M  V30 5645 H 584.621 3.44663 1.42343 0
M  V30 5646 N 586.806 0.0935595 1.57322 0
M  V30 5647 C 588.031 -0.582324 1.99057 0
M  V30 5648 C 588.456 -1.61025 0.972242 0
M  V30 5649 O 587.814 -1.81202 -0.0594622 0
M  V30 5650 C 587.862 -1.20799 3.39765 0
M  V30 5651 O 586.966 -2.32382 3.40694 0
M  V30 5652 H 586.307 -0.147884 0.647323 0
M  V30 5653 H 588.837 0.174516 2.03854 0
M  V30 5654 H 588.847 -1.54966 3.77425 0
M  V30 5655 H 587.522 -0.454914 4.13405 0
M  V30 5656 H 586.099 -1.99845 3.14827 0
M  V30 5657 N 588.284 -1.56567 -0.180126 0
M  V30 5658 C 589.509 -1.85975 -0.918041 0
M  V30 5659 C 589.934 -0.678888 -1.75422 0
M  V30 5660 O 589.292 0.372168 -1.77439 0
M  V30 5661 C 589.34 -3.13731 -1.77779 0
M  V30 5662 O 588.444 -2.95335 -2.87838 0
M  V30 5663 H 587.785 -0.61196 -0.257683 0
M  V30 5664 H 590.315 -2.03798 -0.180923 0
M  V30 5665 H 590.325 -3.4491 -2.17948 0
M  V30 5666 H 589 -3.99293 -1.16352 0
M  V30 5667 H 587.577 -2.7549 -2.51316 0
M  V30 5668 N 589.762 0.448376 -1.51087 0
M  V30 5669 C 591.01 1.19635 -1.62886 0
M  V30 5670 C 591.331 1.91977 -0.342024 0
M  V30 5671 O 590.601 1.85094 0.641636 0
M  V30 5672 H 589.181 0.444598 -0.600285 0
M  V30 5673 H 591.843 0.515138 -1.87969 0
M  V30 5674 H 590.939 1.93194 -2.45117 0
M  V30 5675 N 591.24 1.41047 0.703093 0
M  V30 5676 C 592.517 1.30493 1.45708 0
M  V30 5677 C 592.897 -0.0709892 2.10981 0
M  V30 5678 O 592.245 -1.08471 2.01113 0
M  V30 5679 C 592.455 2.45287 2.48265 0
M  V30 5680 C 593.803 2.86104 3.13735 0
M  V30 5681 O 594.827 2.44971 2.58587 0
M  V30 5682 O 593.686 3.57206 4.13601 0
M  V30 5683 H 590.78 0.513144 0.648546 0
M  V30 5684 H 593.326 1.52995 0.734208 0
M  V30 5685 H 592.098 3.37135 1.98635 0
M  V30 5686 H 591.721 2.24622 3.28071 0
M  V30 5687 N 592.718 -0.936591 1.26751 0
M  V30 5688 C 593.943 -1.72288 1.15462 0
M  V30 5689 C 594.368 -1.85915 -0.285887 0
M  V30 5690 O 593.726 -1.35272 -1.20711 0
M  V30 5691 C 593.774 -3.10503 1.83359 0
M  V30 5692 O 592.878 -3.96745 1.1255 0
M  V30 5693 H 592.219 -0.52843 0.402067 0
M  V30 5694 H 594.749 -1.17271 1.67656 0
M  V30 5695 H 594.759 -3.60867 1.90365 0
M  V30 5696 H 593.434 -2.99901 2.88153 0
M  V30 5697 H 592.011 -3.55191 1.13551 0
M  V30 5698 N 594.196 -1.08629 -1.14182 0
M  V30 5699 C 595.159 -0.722027 -2.1753 0
M  V30 5700 C 596.159 0.244305 -1.58933 0
M  V30 5701 O 597.349 0.0235545 -1.74184 0
M  V30 5702 C 594.481 -0.0663966 -3.40835 0
M  V30 5703 H 595.674 -1.63719 -2.51269 0
M  V30 5704 H 593.227 -0.884442 -1.28869 0
M  V30 5705 H 593.962 0.860389 -3.12678 0
M  V30 5706 H 593.747 -0.761598 -3.84632 0
M  V30 5707 H 595.237 0.173346 -4.1724 0
M  V30 5708 N 595.674 1.31259 -0.872281 0
M  V30 5709 C 596.951 1.91362 -0.404943 0
M  V30 5710 C 597.331 1.79362 1.11321 0
M  V30 5711 O 596.679 1.20277 1.94283 0
M  V30 5712 C 596.889 3.3749 -0.888893 0
M  V30 5713 C 598.237 4.14593 -0.916384 0
M  V30 5714 O 599.261 3.46282 -0.834701 0
M  V30 5715 O 598.12 5.3661 -1.03498 0
M  V30 5716 H 595.214 0.818016 -0.121569 0
M  V30 5717 H 597.76 1.39912 -0.960346 0
M  V30 5718 H 596.532 3.40249 -1.93251 0
M  V30 5719 H 596.155 3.96375 -0.311932 0
M  V30 5720 N 597.152 0.631951 1.44375 0
M  V30 5721 C 598.1 -0.0846693 2.32446 0
M  V30 5722 C 599.094 -0.834957 1.47393 0
M  V30 5723 O 600.3 -0.747764 1.63733 0
M  V30 5724 H 596.675 -0.0461508 0.750583 0
M  V30 5725 H 598.646 0.67619 2.90638 0
M  V30 5726 C 597.395 -1.05211 3.314 0
M  V30 5727 H 596.718 -0.484203 3.96857 0
M  V30 5728 H 598.158 -1.523 3.95703 0
M  V30 5729 C 596.617 -2.13776 2.60387 0
M  V30 5730 O 597.147 -3.21869 2.4034 0
M  V30 5731 N 595.353 -1.89733 2.20113 0
M  V30 5732 H 594.9 -1.01833 2.36618 0
M  V30 5733 H 594.858 -2.62572 1.72926 0
M  V30 5734 N 598.631 -1.53133 0.372548 0
M  V30 5735 C 599.877 -2.01654 -0.215277 0
M  V30 5736 C 600.21 -1.25914 -1.47849 0
M  V30 5737 O 599.485 -0.3548 -1.91237 0
M  V30 5738 C 599.768 -3.56609 -0.500187 0
M  V30 5739 C 599.621 -4.43036 0.777145 0
M  V30 5740 C 600.94 -4.20528 -1.29786 0
M  V30 5741 H 598.059 -0.732991 -0.0767686 0
M  V30 5742 H 600.701 -1.83335 0.498814 0
M  V30 5743 H 598.851 -3.7235 -1.10852 0
M  V30 5744 H 600.523 -4.39079 1.41447 0
M  V30 5745 H 598.766 -4.10723 1.39604 0
M  V30 5746 H 599.437 -5.49424 0.532662 0
M  V30 5747 H 601.913 -4.08663 -0.783198 0
M  V30 5748 H 600.789 -5.28962 -1.46596 0
M  V30 5749 H 601.05 -3.77051 -2.30836 0
M  V30 5750 N 600.109 -0.101901 -1.5727 0
M  V30 5751 C 601.358 0.559922 -1.93772 0
M  V30 5752 C 601.671 1.68913 -0.98629 0
M  V30 5753 O 602.877 2.41256 -1.24529 0
M  V30 5754 C 601.333 1.04739 -3.44322 0
M  V30 5755 C 600.941 -0.05243 -4.47969 0
M  V30 5756 C 602.685 1.68157 -3.89774 0
M  V30 5757 C 600.592 0.450781 -5.8968 0
M  V30 5758 H 599.522 0.212931 -0.723309 0
M  V30 5759 H 602.173 -0.179001 -1.82625 0
M  V30 5760 H 600.555 1.84021 -3.50645 0
M  V30 5761 H 601.729 -0.828157 -4.53297 0
M  V30 5762 H 600.044 -0.592202 -4.12167 0
M  V30 5763 H 602.641 2.0689 -4.93052 0
M  V30 5764 H 602.984 2.55338 -3.28798 0
M  V30 5765 H 603.517 0.954453 -3.8618 0
M  V30 5766 H 600.256 -0.38458 -6.54371 0
M  V30 5767 H 599.776 1.19336 -5.87809 0
M  V30 5768 H 601.455 0.917555 -6.40461 0
M  V30 5769 N 601.587 1.56661 0.17182 0
M  V30 5770 C 602.55 1.9549 1.19651 0
M  V30 5771 C 603.55 0.838501 1.37207 0
M  V30 5772 O 604.74 1.10556 1.34622 0
M  V30 5773 C 601.872 2.24927 2.56166 0
M  V30 5774 H 603.065 2.87184 0.864007 0
M  V30 5775 H 600.618 1.50711 0.41425 0
M  V30 5776 H 601.353 1.35944 2.94431 0
M  V30 5777 H 601.138 3.06301 2.4479 0
M  V30 5778 H 602.628 2.55891 3.30014 0
M  V30 5779 N 603.065 -0.440357 1.51323 0
M  V30 5780 C 604.293 -1.21255 1.67645 0
M  V30 5781 C 604.708 -1.85088 0.37252 0
M  V30 5782 O 604.065 -1.70582 -0.648683 0
M  V30 5783 C 604.116 -2.29881 2.78993 0
M  V30 5784 O 603.837 -1.68659 4.04334 0
M  V30 5785 C 605.338 -3.20214 3.06558 0
M  V30 5786 H 602.558 -0.36558 0.562666 0
M  V30 5787 H 605.102 -0.52214 1.97722 0
M  V30 5788 H 603.257 -2.94643 2.51524 0
M  V30 5789 H 603.671 -2.40426 4.6615 0
M  V30 5790 H 605.145 -3.92575 3.88058 0
M  V30 5791 H 605.622 -3.80794 2.18844 0
M  V30 5792 H 606.228 -2.61156 3.35675 0
M  V30 5793 N 604.543 -1.41418 -0.695603 0
M  V30 5794 C 605.773 -1.43921 -1.48224 0
M  V30 5795 C 606.181 -0.0428855 -1.89151 0
M  V30 5796 O 605.524 0.948138 -1.5734 0
M  V30 5797 C 605.586 -2.28466 -2.77567 0
M  V30 5798 C 605.25 -3.76629 -2.58844 0
M  V30 5799 C 606.247 -4.6879 -2.24793 0
M  V30 5800 C 603.932 -4.2067 -2.74485 0
M  V30 5801 C 605.926 -6.02981 -2.06622 0
M  V30 5802 C 603.613 -5.54926 -2.55931 0
M  V30 5803 C 604.611 -6.45897 -2.2205 0
M  V30 5804 O 604.299 -7.77675 -2.03657 0
M  V30 5805 H 604.031 -0.492252 -0.463318 0
M  V30 5806 H 606.585 -1.86347 -0.863952 0
M  V30 5807 H 604.815 -1.80853 -3.41802 0
M  V30 5808 H 606.504 -2.2267 -3.39371 0
M  V30 5809 H 607.27 -4.36055 -2.12323 0
M  V30 5810 H 603.149 -3.50167 -2.9984 0
M  V30 5811 H 606.693 -6.73951 -1.80099 0
M  V30 5812 H 602.59 -5.8724 -2.67991 0
M  V30 5813 H 603.358 -7.88819 -2.1842 0
M  V30 5814 N 606.021 0.929856 -1.27246 0
M  V30 5815 C 607.249 1.71144 -1.16265 0
M  V30 5816 C 607.664 1.867 0.280786 0
M  V30 5817 O 607.021 1.38249 1.19136 0
M  V30 5818 C 607.072 3.11222 -1.83911 0
M  V30 5819 O 606.793 2.96398 -3.22614 0
M  V30 5820 C 608.294 4.05541 -1.79028 0
M  V30 5821 H 605.514 0.535499 -0.404328 0
M  V30 5822 H 608.058 1.16492 -1.68077 0
M  V30 5823 H 606.213 3.6274 -1.36009 0
M  V30 5824 H 606.627 3.8494 -3.56261 0
M  V30 5825 H 608.101 5.01351 -2.30978 0
M  V30 5826 H 608.578 4.32589 -0.759168 0
M  V30 5827 H 609.184 3.59947 -2.26535 0
M  V30 5828 N 607.499 1.09233 1.13605 0
M  V30 5829 C 608.745 0.828385 1.8511 0
M  V30 5830 C 609.078 -0.64437 1.83198 0
M  V30 5831 O 608.353 -1.47428 1.26867 0
M  V30 5832 C 608.636 1.36167 3.33363 0
M  V30 5833 C 608.489 2.90038 3.438 0
M  V30 5834 C 609.808 0.993819 4.28732 0
M  V30 5835 H 606.927 0.30239 0.672108 0
M  V30 5836 H 609.569 1.35339 1.33355 0
M  V30 5837 H 607.719 0.9151 3.77569 0
M  V30 5838 H 609.391 3.43128 3.08319 0
M  V30 5839 H 607.634 3.27271 2.84739 0
M  V30 5840 H 608.305 3.22428 4.48045 0
M  V30 5841 H 610.781 1.37893 3.92587 0
M  V30 5842 H 609.657 1.39403 5.30903 0
M  V30 5843 H 609.918 -0.0982206 4.41991 0
M  V30 5844 N 608.977 -1.30795 0.87923 0
M  V30 5845 C 609.925 -2.30231 0.331112 0
M  V30 5846 C 610.919 -1.59918 -0.558794 0
M  V30 5847 O 612.125 -1.74441 -0.443866 0
M  V30 5848 H 608.5 -0.746785 0.088409 0
M  V30 5849 H 610.471 -2.73925 1.18353 0
M  V30 5850 C 609.22 -3.44848 -0.444401 0
M  V30 5851 H 608.543 -3.99131 0.231106 0
M  V30 5852 H 609.983 -4.16516 -0.793109 0
M  V30 5853 C 608.442 -2.94329 -1.63926 0
M  V30 5854 O 608.972 -2.93875 -2.73862 0
M  V30 5855 N 607.178 -2.50413 -1.4745 0
M  V30 5856 H 606.725 -2.50982 -0.58015 0
M  V30 5857 H 606.683 -2.16969 -2.27534 0
M  V30 5858 N 610.455 -0.639598 -1.44038 0
M  V30 5859 C 611.418 0.0506628 -2.29144 0
M  V30 5860 C 612.418 0.764001 -1.41491 0
M  V30 5861 O 613.608 0.607309 -1.63271 0
M  V30 5862 C 610.74 1.0824 -3.2326 0
M  V30 5863 H 611.933 -0.697987 -2.91664 0
M  V30 5864 H 609.486 -0.400146 -1.51091 0
M  V30 5865 H 610.221 1.86075 -2.65606 0
M  V30 5866 H 610.006 0.574725 -3.87865 0
M  V30 5867 H 611.496 1.56487 -3.87171 0
M  V30 5868 N 611.933 1.52934 -0.380664 0
M  V30 5869 C 613.158 2.06363 0.207157 0
M  V30 5870 C 613.583 1.25122 1.4045 0
M  V30 5871 O 612.941 0.274062 1.79217 0
M  V30 5872 C 612.989 3.56162 0.563996 0
M  V30 5873 O 612.093 3.77552 1.65917 0
M  V30 5874 H 611.434 0.663468 0.0265859 0
M  V30 5875 H 613.964 1.9719 -0.545635 0
M  V30 5876 H 613.974 3.99453 0.830752 0
M  V30 5877 H 612.649 4.14732 -0.311427 0
M  V30 5878 H 611.226 3.46154 1.3868 0
M  V30 5879 N 613.412 0.11024 1.57214 0
M  V30 5880 C 614.637 -0.561179 1.99664 0
M  V30 5881 C 615.062 -1.59985 0.989266 0
M  V30 5882 O 614.42 -1.81255 -0.0402399 0
M  V30 5883 C 614.468 -1.17189 3.41027 0
M  V30 5884 O 613.572 -2.28755 3.4314 0
M  V30 5885 H 612.913 -0.14101 0.648855 0
M  V30 5886 H 615.443 0.196128 2.03658 0
M  V30 5887 H 615.453 -1.50954 3.79047 0
M  V30 5888 H 614.128 -0.411041 4.13864 0
M  V30 5889 H 612.705 -1.96495 3.16929 0
M  V30 5890 N 614.89 -1.56749 -0.16351 0
M  V30 5891 C 615.8 -2.00255 -1.2221 0
M  V30 5892 C 616.816 -0.915194 -1.47987 0
M  V30 5893 O 617.992 -1.22342 -1.59982 0
M  V30 5894 C 615.057 -2.36035 -2.53946 0
M  V30 5895 C 614.118 -3.58637 -2.35962 0
M  V30 5896 C 613.351 -3.92701 -3.61416 0
M  V30 5897 O 613.574 -3.27632 -4.66919 0
M  V30 5898 O 612.508 -4.86019 -3.55062 0
M  V30 5899 H 616.334 -2.90586 -0.882794 0
M  V30 5900 H 613.919 -1.44721 -0.370978 0
M  V30 5901 H 615.801 -2.59982 -3.31643 0
M  V30 5902 H 614.476 -1.48863 -2.8744 0
M  V30 5903 H 613.383 -3.39898 -1.5627 0
M  V30 5904 H 614.716 -4.46374 -2.0739 0
M  V30 5905 N 616.368 0.432326 -1.51554 0
M  V30 5906 C 617.614 1.18309 -1.64714 0
M  V30 5907 C 617.947 1.90745 -0.364696 0
M  V30 5908 O 617.222 1.8381 0.635936 0
M  V30 5909 C 617.505 2.1961 -2.85383 0
M  V30 5910 C 617.358 1.51223 -4.23617 0
M  V30 5911 C 618.677 3.20538 -3.01569 0
M  V30 5912 H 615.796 0.428751 -0.599451 0
M  V30 5913 H 618.438 0.471689 -1.84052 0
M  V30 5914 H 616.588 2.8028 -2.69027 0
M  V30 5915 H 618.26 0.938516 -4.51652 0
M  V30 5916 H 616.503 0.814501 -4.26085 0
M  V30 5917 H 617.174 2.25024 -5.04052 0
M  V30 5918 H 619.65 2.69926 -3.16669 0
M  V30 5919 H 618.526 3.88706 -3.87555 0
M  V30 5920 H 618.787 3.86933 -2.13859 0
M  V30 5921 N 617.846 1.41785 0.688094 0
M  V30 5922 C 618.809 1.43936 1.78368 0
M  V30 5923 C 619.809 0.328866 1.57401 0
M  V30 5924 O 620.999 0.589093 1.63937 0
M  V30 5925 C 618.131 1.25804 3.16838 0
M  V30 5926 H 619.324 2.41472 1.77852 0
M  V30 5927 H 616.877 1.28037 0.896448 0
M  V30 5928 H 617.612 0.291386 3.22988 0
M  V30 5929 H 617.397 2.06272 3.33458 0
M  V30 5930 H 618.887 1.30162 3.96797 0
M  V30 5931 N 619.324 -0.923095 1.27737 0
M  V30 5932 C 620.272 -2.04567 1.10703 0
M  V30 5933 C 621.266 -1.69375 0.0288445 0
M  V30 5934 O 622.472 -1.79027 0.186913 0
M  V30 5935 H 618.847 -0.670109 0.34126 0
M  V30 5936 H 620.818 -2.1608 2.05796 0
M  V30 5937 C 619.567 -3.38934 0.775837 0
M  V30 5938 H 618.89 -3.66501 1.59741 0
M  V30 5939 H 620.33 -4.18239 0.696548 0
M  V30 5940 C 618.789 -3.32863 -0.520012 0
M  V30 5941 O 619.319 -3.70462 -1.55308 0
M  V30 5942 N 617.525 -2.85958 -0.51732 0
M  V30 5943 H 617.072 -2.55557 0.32379 0
M  V30 5944 H 617.03 -2.82279 -1.38441 0
M  V30 5945 N 620.802 -1.09834 -1.13024 0
M  V30 5946 C 622.05 -0.835297 -1.8403 0
M  V30 5947 C 622.371 0.640944 -1.84165 0
M  V30 5948 O 621.641 1.46517 -1.30037 0
M  V30 5949 H 620.221 -0.306018 -0.681441 0
M  V30 5950 H 622.883 -1.38734 -1.36891 0
M  V30 5951 H 621.979 -1.19258 -2.88416 0
M  V30 5952 N 622.28 1.30327 -0.886154 0
M  V30 5953 C 623.505 2.0079 -0.519425 0
M  V30 5954 C 623.93 1.65979 0.885013 0
M  V30 5955 O 623.288 0.877043 1.58675 0
M  V30 5956 C 623.336 3.53686 -0.702758 0
M  V30 5957 O 622.44 4.11637 0.250828 0
M  V30 5958 H 621.781 0.63171 -0.204544 0
M  V30 5959 H 624.311 1.66145 -1.19402 0
M  V30 5960 H 624.321 4.03531 -0.602207 0
M  V30 5961 H 622.996 3.78361 -1.72673 0
M  V30 5962 H 621.573 3.72755 0.103873 0
M  V30 5963 N 623.758 0.647228 1.43697 0
M  V30 5964 C 625.004 0.167001 2.02713 0
M  V30 5965 C 625.359 -1.20351 1.50111 0
M  V30 5966 O 624.652 -1.79047 0.682113 0
M  V30 5967 C 624.846 0.111481 3.57226 0
M  V30 5968 C 624.675 1.47507 4.2482 0
M  V30 5969 C 623.445 2.06594 4.61137 0
M  V30 5970 C 625.643 2.41224 4.54219 0
M  V30 5971 N 623.625 3.3602 5.13774 0
M  V30 5972 C 624.996 3.55278 5.08112 0
M  V30 5973 C 627.051 2.40102 4.36183 0
M  V30 5974 C 625.754 4.68426 5.45866 0
M  V30 5975 C 627.78 3.52326 4.74995 0
M  V30 5976 C 627.142 4.65104 5.29015 0
M  V30 5977 H 623.241 0.105402 0.774864 0
M  V30 5978 H 625.825 0.854229 1.7496 0
M  V30 5979 H 623.996 -0.545073 3.84556 0
M  V30 5980 H 625.728 -0.379063 4.02921 0
M  V30 5981 H 622.483 1.59366 4.45981 0
M  V30 5982 H 622.907 4.02233 5.44552 0
M  V30 5983 H 627.549 1.54151 3.93697 0
M  V30 5984 H 625.267 5.55074 5.87298 0
M  V30 5985 H 628.853 3.52652 4.6274 0
M  V30 5986 H 627.733 5.50506 5.58492 0
M  V30 5987 N 625.236 -1.5273 0.388769 0
M  V30 5988 C 626.183 -2.26437 -0.446639 0
M  V30 5989 C 627.153 -1.28025 -1.05824 0
M  V30 5990 O 628.338 -1.56852 -1.08637 0
M  V30 5991 C 625.478 -3.07407 -1.56828 0
M  V30 5992 C 624.591 -4.20747 -0.979589 0
M  V30 5993 C 623.726 -4.89113 -2.07224 0
M  V30 5994 C 622.765 -5.94447 -1.45942 0
M  V30 5995 N 621.902 -6.56411 -2.49135 0
M  V30 5996 H 626.742 -2.97404 0.18837 0
M  V30 5997 H 624.279 -1.46727 0.104725 0
M  V30 5998 H 626.237 -3.52642 -2.22934 0
M  V30 5999 H 624.867 -2.3865 -2.17361 0
M  V30 6000 H 623.919 -3.7983 -0.208151 0
M  V30 6001 H 625.231 -4.9637 -0.491747 0
M  V30 6002 H 624.385 -5.3765 -2.81101 0
M  V30 6003 H 623.124 -4.13013 -2.59368 0
M  V30 6004 H 622.129 -5.4525 -0.705894 0
M  V30 6005 H 623.354 -6.7248 -0.945932 0
M  V30 6006 H 621.3 -5.83152 -3.00449 0
M  V30 6007 H 621.217 -7.27645 -2.05105 0
M  V30 6008 H 622.485 -7.09592 -3.22644 0
M  V30 6009 N 626.714 -0.118576 -1.57153 0
M  V30 6010 C 627.644 0.828436 -2.1831 0
M  V30 6011 C 628.625 1.27758 -1.12303 0
M  V30 6012 O 629.81 1.34026 -1.40537 0
M  V30 6013 C 626.94 2.07876 -2.78217 0
M  V30 6014 C 625.894 1.76742 -3.89803 0
M  V30 6015 C 625.22 3.08801 -4.36516 0
M  V30 6016 C 626.52 1.03606 -5.11921 0
M  V30 6017 H 628.214 0.318824 -2.97698 0
M  V30 6018 H 625.76 0.151911 -1.43196 0
M  V30 6019 H 627.713 2.74584 -3.19659 0
M  V30 6020 H 626.437 2.61161 -1.96118 0
M  V30 6021 H 625.096 1.12424 -3.48936 0
M  V30 6022 H 624.744 3.6002 -3.51276 0
M  V30 6023 H 624.444 2.88743 -5.11763 0
M  V30 6024 H 625.968 3.76627 -4.80608 0
M  V30 6025 H 627.382 1.60467 -5.50385 0
M  V30 6026 H 625.779 0.936454 -5.92748 0
M  V30 6027 H 626.849 0.0227421 -4.84895 0
M  V30 6028 N 628.193 1.56834 0.155195 0
M  V30 6029 C 629.609 1.51315 0.50755 0
M  V30 6030 C 629.809 0.825614 1.83809 0
M  V30 6031 O 628.865 0.39271 2.49427 0
M  V30 6032 C 630.178 2.96074 0.52542 0
M  V30 6033 C 631.726 3.06968 0.611505 0
M  V30 6034 C 632.201 4.53218 0.660115 0
M  V30 6035 N 633.692 4.5753 0.722564 0
M  V30 6036 C 634.427 5.68056 0.781023 0
M  V30 6037 N 633.923 6.88173 0.799327 0
M  V30 6038 N 635.716 5.56068 0.821278 0
M  V30 6039 H 627.867 1.9993 -0.717063 0
M  V30 6040 H 630.13 0.911507 -0.260496 0
M  V30 6041 H 629.836 3.49599 -0.383875 0
M  V30 6042 H 629.71 3.51587 1.36624 0
M  V30 6043 H 632.097 2.53468 1.51122 0
M  V30 6044 H 632.178 2.54513 -0.256306 0
M  V30 6045 H 631.822 5.07354 -0.23541 0
M  V30 6046 H 631.752 5.03447 1.5443 0
M  V30 6047 H 634.243 3.71054 0.716049 0
M  V30 6048 H 634.556 7.6816 0.845553 0
M  V30 6049 H 632.901 6.90751 0.767337 0
M  V30 6050 H 636.092 4.61142 0.804091 0
M  V30 6051 H 636.265 6.42223 0.863372 0
M  V30 6052 N 629.671 -0.424282 1.51781 0
M  V30 6053 C 630.917 -1.17434 1.6534 0
M  V30 6054 C 631.25 -1.90549 0.374806 0
M  V30 6055 O 630.525 -1.84145 -0.626179 0
M  V30 6056 C 630.808 -2.18093 2.86544 0
M  V30 6057 C 630.661 -1.48975 4.24413 0
M  V30 6058 C 631.98 -3.18934 3.03264 0
M  V30 6059 H 629.099 -0.425566 0.601716 0
M  V30 6060 H 631.741 -0.461921 1.84299 0
M  V30 6061 H 629.891 -2.78849 2.7051 0
M  V30 6062 H 631.563 -0.914551 4.52143 0
M  V30 6063 H 629.806 -0.791893 4.26511 0
M  V30 6064 H 630.477 -2.22347 5.05238 0
M  V30 6065 H 632.953 -2.68243 3.18096 0
M  V30 6066 H 631.829 -3.86645 3.89611 0
M  V30 6067 H 632.09 -3.85793 2.15908 0
M  V30 6068 N 631.149 -1.42148 -0.680565 0
M  V30 6069 C 632.081 -1.41119 -1.80605 0
M  V30 6070 C 633.094 -0.311099 -1.598 0
M  V30 6071 O 634.283 -0.573813 -1.69026 0
M  V30 6072 C 631.383 -1.18204 -3.17618 0
M  V30 6073 C 630.556 -2.40537 -3.65322 0
M  V30 6074 C 629.615 -2.13254 -4.8105 0
M  V30 6075 O 628.641 -2.8641 -4.91892 0
M  V30 6076 N 629.843 -1.13208 -5.69354 0
M  V30 6077 H 632.608 -2.38128 -1.81975 0
M  V30 6078 H 630.169 -1.36953 -0.863446 0
M  V30 6079 H 632.161 -0.97878 -3.92686 0
M  V30 6080 H 630.731 -0.29738 -3.11182 0
M  V30 6081 H 629.951 -2.76468 -2.80996 0
M  V30 6082 H 631.239 -3.22012 -3.93936 0
M  V30 6083 H 630.637 -0.526893 -5.63241 0
M  V30 6084 H 629.194 -0.988699 -6.44258 0
M  V30 6085 N 632.627 0.916307 -1.28225 0
M  V30 6086 C 633.904 1.64429 -1.05936 0
M  V30 6087 C 634.284 2.07234 0.402139 0
M  V30 6088 O 633.632 1.81535 1.3877 0
M  V30 6089 C 633.842 2.83773 -2.03159 0
M  V30 6090 C 635.19 3.54852 -2.33164 0
M  V30 6091 O 636.214 2.93918 -2.01223 0
M  V30 6092 O 635.073 4.64663 -2.87664 0
M  V30 6093 H 632.167 0.721221 -0.404683 0
M  V30 6094 H 634.713 0.965838 -1.39534 0
M  V30 6095 H 633.485 2.49217 -3.01673 0
M  V30 6096 H 633.108 3.59333 -1.70192 0
M  V30 6097 N 634.105 1.10431 1.1244 0
M  V30 6098 C 635.354 0.841539 1.83306 0
M  V30 6099 C 635.667 -0.634961 1.85007 0
M  V30 6100 O 636.873 -1.01363 2.51869 0
M  V30 6101 C 635.329 1.45565 3.29149 0
M  V30 6102 C 634.937 2.96544 3.35806 0
M  V30 6103 C 636.681 1.27227 4.04986 0
M  V30 6104 C 634.588 3.5099 4.75983 0
M  V30 6105 H 633.518 0.311156 0.686803 0
M  V30 6106 H 636.169 1.32829 1.26604 0
M  V30 6107 H 634.551 0.896574 3.85717 0
M  V30 6108 H 635.725 3.58766 2.89177 0
M  V30 6109 H 634.04 3.14036 2.73442 0
M  V30 6110 H 636.637 1.65348 5.08492 0
M  V30 6111 H 636.98 0.213834 4.1575 0
M  V30 6112 H 637.513 1.79941 3.54776 0
M  V30 6113 H 634.252 4.56499 4.70413 0
M  V30 6114 H 633.772 2.93535 5.23065 0
M  V30 6115 H 635.451 3.48808 5.44924 0
M  V30 6116 N 635.583 -1.29855 0.893053 0
M  V30 6117 C 636.546 -2.26183 0.370687 0
M  V30 6118 C 637.546 -1.53108 -0.491385 0
M  V30 6119 O 638.736 -1.71643 -0.297386 0
M  V30 6120 C 635.868 -3.37633 -0.470827 0
M  V30 6121 H 637.061 -2.73903 1.22135 0
M  V30 6122 H 634.614 -1.41183 0.67061 0
M  V30 6123 H 635.349 -2.95241 -1.34175 0
M  V30 6124 H 635.134 -3.91825 0.146784 0
M  V30 6125 H 636.624 -4.09313 -0.827825 0
M  V30 6126 N 637.061 -0.65484 -1.43351 0
M  V30 6127 C 638.477 -0.32255 -1.56307 0
M  V30 6128 C 638.677 1.17324 -1.63821 0
M  V30 6129 O 637.733 1.95813 -1.59417 0
M  V30 6130 C 639.046 -1.03533 -2.82314 0
M  V30 6131 C 640.594 -1.01574 -2.9606 0
M  V30 6132 C 641.069 -1.70945 -4.24902 0
M  V30 6133 N 642.56 -1.67716 -4.3177 0
M  V30 6134 C 643.295 -2.18265 -5.30234 0
M  V30 6135 N 642.791 -2.7711 -6.34966 0
M  V30 6136 N 644.584 -2.08756 -5.21898 0
M  V30 6137 H 636.735 -1.62549 -1.36717 0
M  V30 6138 H 638.998 -0.683676 -0.656727 0
M  V30 6139 H 638.704 -2.09045 -2.8283 0
M  V30 6140 H 638.578 -0.587913 -3.7259 0
M  V30 6141 H 640.965 0.0309834 -2.95084 0
M  V30 6142 H 641.046 -1.50186 -2.07069 0
M  V30 6143 H 640.69 -2.75574 -4.26639 0
M  V30 6144 H 640.62 -1.19797 -5.12793 0
M  V30 6145 H 643.111 -1.24777 -3.56706 0
M  V30 6146 H 643.424 -3.13353 -7.06421 0
M  V30 6147 H 641.769 -2.81171 -6.35585 0
M  V30 6148 H 644.96 -1.62488 -4.38994 0
M  V30 6149 H 645.133 -2.48459 -5.98475 0
M  V30 6150 N 638.539 1.52521 -0.396863 0
M  V30 6151 C 639.471 2.24333 0.469814 0
M  V30 6152 C 640.484 1.2685 1.02043 0
M  V30 6153 O 641.673 1.52876 0.92147 0
M  V30 6154 C 638.773 2.95202 1.66461 0
M  V30 6155 C 637.946 4.19454 1.24003 0
M  V30 6156 C 637.005 4.73255 2.30036 0
M  V30 6157 O 636.031 5.36151 1.91131 0
M  V30 6158 N 637.233 4.53765 3.62047 0
M  V30 6159 H 639.998 2.99347 -0.145468 0
M  V30 6160 H 637.559 1.60348 -0.223606 0
M  V30 6161 H 639.551 3.28092 2.36934 0
M  V30 6162 H 638.121 2.2345 2.18607 0
M  V30 6163 H 637.341 3.92517 0.363892 0
M  V30 6164 H 638.629 5.0017 0.933135 0
M  V30 6165 H 638.027 4.03576 3.96412 0
M  V30 6166 H 636.584 4.91124 4.28533 0
M  V30 6167 N 640.017 0.126909 1.57088 0
M  V30 6168 C 641.294 -0.573152 1.87014 0
M  V30 6169 C 641.674 -1.84297 1.02945 0
M  V30 6170 O 641.022 -2.28232 0.110573 0
M  V30 6171 C 641.232 -0.857984 3.38289 0
M  V30 6172 C 642.58 -1.20759 4.07066 0
M  V30 6173 O 643.604 -0.947992 3.43353 0
M  V30 6174 O 642.463 -1.69516 5.19545 0
M  V30 6175 H 639.557 -0.290082 0.774456 0
M  V30 6176 H 642.103 0.162008 1.68925 0
M  V30 6177 H 640.875 0.0415286 3.91278 0
M  V30 6178 H 640.498 -1.64803 3.61837 0
M  V30 6179 N 641.495 -1.56914 -0.146875 0
M  V30 6180 C 642.723 -1.87515 -0.874394 0
M  V30 6181 C 643.138 -0.715116 -1.74733 0
M  V30 6182 O 642.495 0.315113 -1.79759 0
M  V30 6183 C 642.546 -3.17362 -1.731 0
M  V30 6184 O 642.267 -4.28897 -0.893245 0
M  V30 6185 C 643.768 -3.61479 -2.56609 0
M  V30 6186 H 640.988 -0.621546 -0.252827 0
M  V30 6187 H 643.532 -2.04023 -0.139627 0
M  V30 6188 H 641.687 -3.02608 -2.41883 0
M  V30 6189 H 642.101 -5.03146 -1.48137 0
M  V30 6190 H 643.575 -4.5517 -3.12289 0
M  V30 6191 H 644.052 -2.86773 -3.32653 0
M  V30 6192 H 644.658 -3.78927 -1.93117 0
M  V30 6193 N 642.974 0.416227 -1.52004 0
M  V30 6194 C 644.222 1.16153 -1.65387 0
M  V30 6195 C 644.543 1.91208 -0.382669 0
M  V30 6196 O 643.813 1.86413 0.602231 0
M  V30 6197 H 642.393 0.431765 -0.60958 0
M  V30 6198 H 645.055 0.475151 -1.89019 0
M  V30 6199 H 644.151 1.87952 -2.4916 0
M  V30 6200 N 644.452 1.42507 0.673017 0
M  V30 6201 C 645.682 1.46261 1.45916 0
M  V30 6202 C 646.09 0.0729724 1.89059 0
M  V30 6203 O 645.433 -0.922987 1.58829 0
M  V30 6204 C 645.495 2.32853 2.73898 0
M  V30 6205 C 645.159 3.80699 2.52819 0
M  V30 6206 C 646.156 4.72307 2.17306 0
M  V30 6207 C 643.841 4.24983 2.67758 0
M  V30 6208 C 645.835 6.06192 1.97003 0
M  V30 6209 C 643.522 5.58927 2.4707 0
M  V30 6210 C 644.52 6.49348 2.11746 0
M  V30 6211 O 644.208 7.80817 1.91259 0
M  V30 6212 H 643.94 0.499561 0.455428 0
M  V30 6213 H 646.494 1.87697 0.834196 0
M  V30 6214 H 644.724 1.86268 3.38882 0
M  V30 6215 H 646.413 2.28041 3.35786 0
M  V30 6216 H 647.179 4.39378 2.05359 0
M  V30 6217 H 643.058 3.54893 2.94231 0
M  V30 6218 H 646.602 6.76731 1.69355 0
M  V30 6219 H 642.499 5.91429 2.58615 0
M  V30 6220 H 643.267 7.92194 2.05843 0
M  V30 6221 N 645.93 -0.909495 1.28709 0
M  V30 6222 C 647.179 -1.65365 1.15487 0
M  V30 6223 C 647.492 -1.93364 -0.294941 0
M  V30 6224 O 648.698 -2.65905 -0.548338 0
M  V30 6225 C 647.154 -2.97923 2.01916 0
M  V30 6226 C 646.762 -2.77556 3.51663 0
M  V30 6227 C 648.506 -3.75814 1.97393 0
M  V30 6228 C 646.413 -4.0578 4.30229 0
M  V30 6229 H 645.343 -0.620323 0.42862 0
M  V30 6230 H 647.994 -1.00894 1.53273 0
M  V30 6231 H 646.376 -3.63552 1.5699 0
M  V30 6232 H 647.55 -2.2058 4.04575 0
M  V30 6233 H 645.865 -2.13072 3.57756 0
M  V30 6234 H 648.462 -4.70866 2.53357 0
M  V30 6235 H 648.805 -4.05277 0.951643 0
M  V30 6236 H 649.338 -3.1701 2.40311 0
M  V30 6237 H 646.077 -3.81488 5.33055 0
M  V30 6238 H 645.597 -4.62351 3.82089 0
M  V30 6239 H 647.276 -4.74004 4.40374 0
M  V30 6240 N 647.408 -1.11026 -1.11852 0
M  V30 6241 C 648.685 -0.768347 -1.79877 0
M  V30 6242 C 649.065 0.744261 -1.97545 0
M  V30 6243 O 648.413 1.67271 -1.55669 0
M  V30 6244 C 648.623 -1.52648 -3.13846 0
M  V30 6245 C 649.971 -1.70297 -3.88953 0
M  V30 6246 O 650.995 -1.49037 -3.23522 0
M  V30 6247 O 649.854 -2.05593 -5.06353 0
M  V30 6248 H 646.948 -0.277891 -0.778913 0
M  V30 6249 H 649.494 -1.21343 -1.18633 0
M  V30 6250 H 648.266 -2.55564 -2.96315 0
M  V30 6251 H 647.889 -1.07466 -3.82801 0
M  V30 6252 N 648.886 1.2938 -0.899927 0
M  V30 6253 C 650.111 2.00228 -0.540692 0
M  V30 6254 C 650.536 1.66909 0.867359 0
M  V30 6255 O 649.894 0.893824 1.57735 0
M  V30 6256 C 649.942 3.52921 -0.740232 0
M  V30 6257 O 649.046 4.11879 0.207154 0
M  V30 6258 H 648.387 0.629505 -0.211233 0
M  V30 6259 H 650.917 1.6487 -1.21158 0
M  V30 6260 H 650.927 4.0287 -0.644973 0
M  V30 6261 H 649.602 3.76508 -1.76677 0
M  V30 6262 H 648.179 3.72845 0.0643315 0
M  V30 6263 N 650.364 0.662433 1.43002 0
M  V30 6264 C 651.61 0.188492 2.02525 0
M  V30 6265 C 651.965 -1.18752 1.51379 0
M  V30 6266 O 651.258 -1.78313 0.701065 0
M  V30 6267 C 651.452 0.149363 3.57088 0
M  V30 6268 C 651.281 1.52004 4.23231 0
M  V30 6269 C 650.051 2.11473 4.5892 0
M  V30 6270 C 652.249 2.46028 4.51635 0
M  V30 6271 N 650.231 3.4145 5.10181 0
M  V30 6272 C 651.602 3.60647 5.04315 0
M  V30 6273 C 653.657 2.44715 4.33612 0
M  V30 6274 C 652.36 4.74189 5.40867 0
M  V30 6275 C 654.386 3.57344 4.71232 0
M  V30 6276 C 653.748 4.70689 5.24053 0
M  V30 6277 H 649.847 0.113615 0.773703 0
M  V30 6278 H 652.431 0.872738 1.74044 0
M  V30 6279 H 650.602 -0.504255 3.85113 0
M  V30 6280 H 652.334 -0.336307 4.033 0
M  V30 6281 H 649.089 1.64087 4.44266 0
M  V30 6282 H 649.513 4.07987 5.40255 0
M  V30 6283 H 654.155 1.58318 3.9204 0
M  V30 6284 H 651.873 5.61271 5.81378 0
M  V30 6285 H 655.459 3.5754 4.58973 0
M  V30 6286 H 654.339 5.56398 5.52621 0
M  V30 6287 N 651.842 -1.52309 0.404946 0
M  V30 6288 C 652.789 -2.26898 -0.422597 0
M  V30 6289 C 653.759 -1.2914 -1.04461 0
M  V30 6290 O 654.944 -1.57996 -1.06967 0
M  V30 6291 C 652.084 -3.09053 -1.53559 0
M  V30 6292 C 651.197 -4.21762 -0.934908 0
M  V30 6293 C 650.332 -4.91283 -2.02025 0
M  V30 6294 C 649.371 -5.95962 -1.39628 0
M  V30 6295 N 648.508 -6.59017 -2.42159 0
M  V30 6296 H 653.348 -2.97188 0.219903 0
M  V30 6297 H 650.885 -1.46607 0.120282 0
M  V30 6298 H 652.843 -3.54987 -2.19181 0
M  V30 6299 H 651.473 -2.40942 -2.14818 0
M  V30 6300 H 650.525 -3.80029 -0.167854 0
M  V30 6301 H 651.837 -4.96864 -0.439073 0
M  V30 6302 H 650.991 -5.40601 -2.75383 0
M  V30 6303 H 649.73 -4.15741 -2.54973 0
M  V30 6304 H 648.735 -5.45968 -0.648023 0
M  V30 6305 H 649.96 -6.73445 -0.874553 0
M  V30 6306 H 647.906 -5.86306 -2.94247 0
M  V30 6307 H 647.823 -7.2978 -1.97376 0
M  V30 6308 H 649.091 -7.12974 -3.15099 0
M  V30 6309 N 653.32 -0.135238 -1.57019 0
M  V30 6310 C 654.25 0.805235 -2.19176 0
M  V30 6311 C 655.231 1.2656 -1.13651 0
M  V30 6312 O 656.416 1.32528 -1.4195 0
M  V30 6313 C 653.546 2.04914 -2.80406 0
M  V30 6314 C 652.5 1.72598 -3.91655 0
M  V30 6315 C 651.826 3.04154 -4.39766 0
M  V30 6316 C 653.126 0.981709 -5.12991 0
M  V30 6317 H 654.82 0.287232 -2.98019 0
M  V30 6318 H 652.366 0.136714 -1.4335 0
M  V30 6319 H 654.319 2.71178 -3.22553 0
M  V30 6320 H 653.043 2.59067 -1.98877 0
M  V30 6321 H 651.702 1.08717 -3.50109 0
M  V30 6322 H 651.35 3.56274 -3.55075 0
M  V30 6323 H 651.05 2.83299 -5.14796 0
M  V30 6324 H 652.574 3.71509 -4.84576 0
M  V30 6325 H 653.988 1.5462 -5.52056 0
M  V30 6326 H 652.385 0.873533 -5.93708 0
M  V30 6327 H 653.455 -0.0286887 -4.84892 0
M  V30 6328 N 654.798 1.5699 0.138552 0
M  V30 6329 C 656.026 1.87976 0.864437 0
M  V30 6330 C 656.441 0.724372 1.74351 0
M  V30 6331 O 655.798 -0.305575 1.79924 0
M  V30 6332 C 655.849 3.18276 1.71414 0
M  V30 6333 O 655.57 4.29365 0.870487 0
M  V30 6334 C 657.071 3.62834 2.54688 0
M  V30 6335 H 654.291 0.622878 0.249528 0
M  V30 6336 H 656.835 2.04094 0.128805 0
M  V30 6337 H 654.99 3.03886 2.40274 0
M  V30 6338 H 655.404 5.03924 1.45466 0
M  V30 6339 H 656.878 4.5682 3.0987 0
M  V30 6340 H 657.355 2.88533 3.31127 0
M  V30 6341 H 657.961 3.79946 1.91105 0
M  V30 6342 N 656.276 -0.40816 1.52223 0
M  V30 6343 C 657.523 -1.15502 1.66329 0
M  V30 6344 C 657.851 -1.90474 0.393701 0
M  V30 6345 O 657.106 -1.85507 -0.623356 0
M  V30 6346 C 657.405 -2.17422 2.83659 0
M  V30 6347 C 657.071 -1.5925 4.21841 0
M  V30 6348 C 655.733 -1.4311 4.59427 0
M  V30 6349 C 658.085 -1.16776 5.0795 0
M  V30 6350 C 655.413 -0.830148 5.80797 0
M  V30 6351 C 657.765 -0.580988 6.29926 0
M  V30 6352 C 656.429 -0.406729 6.6626 0
M  V30 6353 H 655.699 -0.422653 0.608642 0
M  V30 6354 H 658.346 -0.442114 1.86327 0
M  V30 6355 H 656.651 -2.94861 2.58001 0
M  V30 6356 H 658.348 -2.75084 2.9177 0
M  V30 6357 H 654.938 -1.72796 3.92224 0
M  V30 6358 H 659.122 -1.28055 4.79495 0
M  V30 6359 H 654.378 -0.68316 6.07571 0
M  V30 6360 H 658.552 -0.243488 6.95974 0
M  V30 6361 H 656.179 0.0610366 7.60175 0
M  V30 6362 O 657.793 -1.51699 -0.554045 0
M  V30 6363 H 658.484 -1.51323 -1.20918 0
M  V30 END ATOM
M  V30 BEGIN BOND
M  V30 END BOND
M  V30 END CTAB
M  END
$$$$
