drugbank_target|P26137 Hemagglutinin (DB07726)
 OpenBabel12092120463D

  0  0  0     0  0            999 V3000
M  V30 BEGIN CTAB
M  V30 COUNTS 8729 8814 0 0 0
M  V30 BEGIN ATOM
M  V30 1 H -0.908 1.98254 -0.117106 0
M  V30 2 N 0 1.576 0 0
M  V30 3 C 0.93 2.11458 0.990341 0
M  V30 4 C 1.911 1.02372 1.35845 0
M  V30 5 O 3.096 1.30055 1.4422 0
M  V30 6 C 0.226 2.61788 2.2822 0
M  V30 7 C -0.82 3.754 2.0557 0
M  V30 8 C -1.494 4.12045 3.40769 0
M  V30 9 C -0.194 5.02675 1.41829 0
M  V30 10 H 1.5 2.94455 0.541905 0
M  V30 11 H -0.954 1.41648 0.259219 0
M  V30 12 H 0.999 2.98093 2.97856 0
M  V30 13 H -0.277 1.75913 2.75177 0
M  V30 14 H -1.618 3.39488 1.38359 0
M  V30 15 H -1.97 3.23193 3.85429 0
M  V30 16 H -2.27 4.88587 3.26429 0
M  V30 17 H -0.746 4.50909 4.1172 0
M  V30 18 H 0.668 5.36751 2.01422 0
M  V30 19 H -0.935 5.84022 1.37978 0
M  V30 20 H 0.135 4.83349 0.387506 0
M  V30 21 N 1.4781 -0.272755 1.55222 0
M  V30 22 C 2.7241 -1.00581 1.761 0
M  V30 23 C 3.0571 -1.85932 0.560625 0
M  V30 24 O 2.3321 -1.89416 -0.441801 0
M  V30 25 C 2.6151 -1.88816 3.06628 0
M  V30 26 C 2.4681 -1.06457 4.37021 0
M  V30 27 C 3.7871 -2.8752 3.33197 0
M  V30 28 H 0.9061 -0.364244 0.640699 0
M  V30 29 H 3.5481 -0.278189 1.87952 0
M  V30 30 H 1.6981 -2.50856 2.96654 0
M  V30 31 H 3.3701 -0.464863 4.58952 0
M  V30 32 H 1.6131 -0.368043 4.32236 0
M  V30 33 H 2.2841 -1.71514 5.24678 0
M  V30 34 H 4.7601 -2.35615 3.42965 0
M  V30 35 H 3.6361 -3.46399 4.25792 0
M  V30 36 H 3.8971 -3.62657 2.52849 0
M  V30 37 N 2.9562 -1.48159 -0.537278 0
M  V30 38 C 3.9192 -1.61665 -1.62472 0
M  V30 39 C 4.9192 -0.490395 -1.5314 0
M  V30 40 O 6.1092 -0.755998 -1.5694 0
M  V30 41 C 3.2412 -1.57997 -3.02076 0
M  V30 42 H 4.4342 -2.58621 -1.51839 0
M  V30 43 H 1.9872 -1.36647 -0.758771 0
M  V30 44 H 2.7222 -0.624913 -3.18222 0
M  V30 45 H 2.5072 -2.39755 -3.10258 0
M  V30 46 H 3.9972 -1.70627 -3.81151 0
M  V30 47 N 4.4343 0.785586 -1.36625 0
M  V30 48 C 5.3643 1.91259 -1.33949 0
M  V30 49 C 6.3453 1.68795 -0.210325 0
M  V30 50 O 7.5303 1.89854 -0.408561 0
M  V30 51 C 4.6603 3.28339 -1.13186 0
M  V30 52 C 3.6143 3.65335 -2.22967 0
M  V30 53 C 2.9403 5.00806 -1.87342 0
M  V30 54 C 4.2403 3.7352 -3.65075 0
M  V30 55 H 5.9343 1.93755 -2.28253 0
M  V30 56 H 3.4803 0.930788 -1.09874 0
M  V30 57 H 5.4333 4.06804 -1.09948 0
M  V30 58 H 4.1573 3.2624 -0.153332 0
M  V30 59 H 2.8163 2.89169 -2.25337 0
M  V30 60 H 2.4643 4.95233 -0.880545 0
M  V30 61 H 2.1643 5.26529 -2.60846 0
M  V30 62 H 3.6883 5.81687 -1.85667 0
M  V30 63 H 5.1023 4.42168 -3.64911 0
M  V30 64 H 3.4993 4.10731 -4.37516 0
M  V30 65 H 4.5693 2.74527 -3.99703 0
M  V30 66 N 5.9124 1.20967 1.01018 0
M  V30 67 C 6.8754 0.965918 2.07853 0
M  V30 68 C 7.8754 -0.0610545 1.60684 0
M  V30 69 O 9.0654 0.175681 1.73312 0
M  V30 70 C 6.1974 0.455513 3.37843 0
M  V30 71 H 7.3904 1.91365 2.3091 0
M  V30 72 H 4.9434 1.02594 1.17916 0
M  V30 73 H 5.6784 -0.497381 3.20463 0
M  V30 74 H 5.4634 1.19622 3.73407 0
M  V30 75 H 6.9534 0.304667 4.16487 0
M  V30 76 N 7.3905 -1.2043 1.01659 0
M  V30 77 C 8.3205 -2.25466 0.607226 0
M  V30 78 C 9.3015 -1.65853 -0.377716 0
M  V30 79 O 10.4865 -1.92409 -0.263149 0
M  V30 80 C 7.6165 -3.47256 -0.0552949 0
M  V30 81 C 6.5705 -4.19462 0.850632 0
M  V30 82 C 5.8965 -5.34673 0.0538859 0
M  V30 83 C 7.1965 -4.75603 2.15868 0
M  V30 84 H 8.8905 -2.59962 1.48526 0
M  V30 85 H 6.4365 -1.2496 0.715605 0
M  V30 86 H 8.3895 -4.19917 -0.353233 0
M  V30 87 H 7.1135 -3.11924 -0.968045 0
M  V30 88 H 5.7725 -3.48667 1.13257 0
M  V30 89 H 5.4205 -4.95585 -0.860514 0
M  V30 90 H 5.1205 -5.83913 0.657192 0
M  V30 91 H 6.6445 -6.10138 -0.237598 0
M  V30 92 H 8.0585 -5.40083 1.92311 0
M  V30 93 H 6.4555 -5.3528 2.71284 0
M  V30 94 H 7.5255 -3.94346 2.82169 0
M  V30 95 N 8.8686 -0.792821 -1.36206 0
M  V30 96 C 10.0936 -0.377701 -2.03932 0
M  V30 97 C 10.5186 0.998947 -1.59382 0
M  V30 98 O 9.8766 1.64421 -0.763903 0
M  V30 99 C 9.9246 -0.453635 -3.57735 0
M  V30 100 O 9.0286 0.538151 -4.08874 0
M  V30 101 H 8.3696 -0.159855 -0.644471 0
M  V30 102 H 10.8996 -1.07488 -1.7409 0
M  V30 103 H 10.9096 -0.318464 -4.06755 0
M  V30 104 H 9.5846 -1.45784 -3.89512 0
M  V30 105 H 8.1616 0.364359 -3.71116 0
M  V30 106 N 10.3467 1.47872 -0.545128 0
M  V30 107 C 11.2787 2.27869 0.246621 0
M  V30 108 C 12.2917 1.36282 0.890561 0
M  V30 109 O 13.4807 1.61207 0.766449 0
M  V30 110 C 10.5807 3.10159 1.36582 0
M  V30 111 C 9.7537 4.29627 0.820954 0
M  V30 112 C 8.8127 4.93607 1.82314 0
M  V30 113 O 7.8387 5.52366 1.37406 0
M  V30 114 N 9.0407 4.87211 3.15603 0
M  V30 115 H 11.8057 2.96459 -0.439539 0
M  V30 116 H 9.3667 1.57367 -0.380421 0
M  V30 117 H 11.3587 3.49829 2.03474 0
M  V30 118 H 9.9287 2.43891 1.9554 0
M  V30 119 H 9.1487 3.94192 -0.0244032 0
M  V30 120 H 10.4367 5.06928 0.436063 0
M  V30 121 H 9.8347 4.40651 3.54744 0
M  V30 122 H 8.3917 5.30937 3.78087 0
M  V30 123 N 11.8248 0.280983 1.55075 0
M  V30 124 C 13.0528 -0.337293 2.04132 0
M  V30 125 C 13.4678 -1.4903 1.15912 0
M  V30 126 O 12.8248 -1.81606 0.180459 0
M  V30 127 C 12.8758 -0.812706 3.52246 0
M  V30 128 O 12.5968 0.294387 4.3711 0
M  V30 129 C 14.0978 -1.4982 4.17216 0
M  V30 130 H 11.3178 -0.0761638 0.666663 0
M  V30 131 H 13.8618 0.414787 2.00249 0
M  V30 132 H 12.0168 -1.51486 3.56554 0
M  V30 133 H 12.4308 -0.0721325 5.2445 0
M  V30 134 H 13.9048 -1.7822 5.22438 0
M  V30 135 H 14.3818 -2.43168 3.65741 0
M  V30 136 H 14.9878 -0.839742 4.16927 0
M  V30 137 N 13.3029 -1.57598 0.00835791 0
M  V30 138 C 14.2659 -2.07884 -0.965242 0
M  V30 139 C 15.2659 -0.989825 -1.26725 0
M  V30 140 O 16.4559 -1.25218 -1.21104 0
M  V30 141 C 13.5879 -2.52731 -2.28779 0
M  V30 142 H 14.7809 -2.95178 -0.530112 0
M  V30 143 H 12.3339 -1.54458 -0.239283 0
M  V30 144 H 13.0689 -1.68705 -2.76964 0
M  V30 145 H 12.8539 -3.32272 -2.08177 0
M  V30 146 H 14.3439 -2.91933 -2.98605 0
M  V30 147 N 14.781 0.264519 -1.55364 0
M  V30 148 C 16.011 1.01153 -1.80143 0
M  V30 149 C 16.419 1.80115 -0.579253 0
M  V30 150 O 15.762 1.77813 0.46132 0
M  V30 151 C 15.824 2.01098 -2.97993 0
M  V30 152 C 15.488 1.40995 -4.34706 0
M  V30 153 C 16.485 0.821316 -5.13372 0
M  V30 154 C 14.17 1.43461 -4.81378 0
M  V30 155 C 16.164 0.265339 -6.36847 0
M  V30 156 C 13.851 0.874771 -6.04807 0
M  V30 157 C 14.849 0.291146 -6.82379 0
M  V30 158 O 14.537 -0.260093 -8.03479 0
M  V30 159 H 14.269 0.304125 -0.603725 0
M  V30 160 H 16.823 0.298089 -2.03225 0
M  V30 161 H 15.053 2.76224 -2.70623 0
M  V30 162 H 16.742 2.61997 -3.1002 0
M  V30 163 H 17.508 0.794903 -4.78442 0
M  V30 164 H 13.387 1.87826 -4.21002 0
M  V30 165 H 16.931 -0.190837 -6.97339 0
M  V30 166 H 12.828 0.898452 -6.39217 0
M  V30 167 H 13.596 -0.150265 -8.18362 0
M  V30 168 N 16.2591 1.48442 0.529413 0
M  V30 169 C 17.4841 1.60406 1.31471 0
M  V30 170 C 17.9091 0.264738 1.86228 0
M  V30 171 O 17.2671 -0.763668 1.64432 0
M  V30 172 C 17.3151 2.65419 2.44101 0
M  V30 173 O 16.4191 2.22618 3.47153 0
M  V30 174 H 15.7601 0.537863 0.389357 0
M  V30 175 H 18.2901 1.94432 0.636965 0
M  V30 176 H 18.3001 2.86709 2.90279 0
M  V30 177 H 16.9751 3.62652 2.03608 0
M  V30 178 H 15.5521 2.11543 3.0709 0
M  V30 179 N 17.7372 -0.778329 1.37039 0
M  V30 180 C 18.6692 -1.90034 1.2814 0
M  V30 181 C 19.6822 -1.61585 0.198558 0
M  V30 182 O 20.8712 -1.72625 0.454175 0
M  V30 183 C 17.9712 -3.25108 0.956968 0
M  V30 184 C 17.1442 -3.81253 2.14394 0
M  V30 185 C 16.2032 -4.94789 1.79082 0
M  V30 186 O 15.2292 -5.10721 2.51301 0
M  V30 187 N 16.4312 -5.75878 0.731043 0
M  V30 188 H 19.1962 -1.98186 2.24816 0
M  V30 189 H 16.7572 -0.957129 1.30578 0
M  V30 190 H 18.7492 -3.9857 0.701701 0
M  V30 191 H 17.3192 -3.125 0.0789812 0
M  V30 192 H 16.5392 -2.99647 2.56135 0
M  V30 193 H 17.8272 -4.15495 2.93668 0
M  V30 194 H 17.2252 -5.65547 0.131618 0
M  V30 195 H 15.7822 -6.49596 0.535622 0
M  V30 196 N 19.2153 -1.21501 -1.00376 0
M  V30 197 C 20.4643 -1.02718 -1.73586 0
M  V30 198 C 20.7773 0.439589 -1.90596 0
M  V30 199 O 21.9833 0.746848 -2.61026 0
M  V30 200 C 20.4393 -1.78929 -3.1227 0
M  V30 201 C 20.0473 -3.29783 -3.03228 0
M  V30 202 C 21.7913 -1.68557 -3.89601 0
M  V30 203 C 19.6983 -3.98479 -4.36999 0
M  V30 204 H 18.6283 -0.380733 -0.650814 0
M  V30 205 H 21.2793 -1.45248 -1.1214 0
M  V30 206 H 19.6613 -1.29192 -3.74333 0
M  V30 207 H 20.8353 -3.86832 -2.50395 0
M  V30 208 H 19.1503 -3.40711 -2.39385 0
M  V30 209 H 21.7473 -2.17211 -4.88593 0
M  V30 210 H 22.0903 -0.644021 -4.11288 0
M  V30 211 H 22.6233 -2.15778 -3.34193 0
M  V30 212 H 19.3623 -5.02841 -4.20513 0
M  V30 213 H 18.8823 -3.46219 -4.89788 0
M  V30 214 H 20.5613 -4.03462 -5.05794 0
M  V30 215 N 20.6934 1.19889 -1.02296 0
M  V30 216 C 21.9214 1.9339 -0.735399 0
M  V30 217 C 22.3364 1.75148 0.704887 0
M  V30 218 O 21.6934 1.06954 1.47875 0
M  V30 219 C 21.7444 3.45313 -1.06962 0
M  V30 220 O 21.4654 3.62964 -2.45334 0
M  V30 221 C 22.9664 4.35948 -0.804021 0
M  V30 222 H 20.1864 0.61448 -0.269546 0
M  V30 223 H 22.7304 1.522 -1.36585 0
M  V30 224 H 20.8854 3.84359 -0.484455 0
M  V30 225 H 21.2994 4.56886 -2.57595 0
M  V30 226 H 22.7734 5.41174 -1.0879 0
M  V30 227 H 23.2504 4.3842 0.261691 0
M  V30 228 H 23.8564 4.02574 -1.37164 0
M  V30 229 N 22.1715 0.800033 1.35784 0
M  V30 230 C 23.1195 0.193851 2.31791 0
M  V30 231 C 24.1135 -0.652744 1.56319 0
M  V30 232 O 25.3195 -0.546641 1.71499 0
M  V30 233 H 21.6945 0.04392 0.750716 0
M  V30 234 H 23.6655 1.01883 2.80468 0
M  V30 235 C 22.4145 -0.648338 3.41602 0
M  V30 236 H 21.7375 -0.00624665 3.998 0
M  V30 237 H 23.1775 -1.03898 4.11073 0
M  V30 238 C 21.6365 -1.8111 2.84079 0
M  V30 239 O 22.1665 -2.90825 2.77099 0
M  V30 240 N 20.3725 -1.62056 2.41218 0
M  V30 241 H 19.9195 -0.728123 2.47095 0
M  V30 242 H 19.8775 -2.40013 2.03079 0
M  V30 243 N 23.6496 -1.47581 0.552962 0
M  V30 244 C 24.8976 -2.02082 0.0272703 0
M  V30 245 C 25.2186 -1.4301 -1.32563 0
M  V30 246 O 24.4886 -0.603745 -1.86365 0
M  V30 247 H 23.0686 -0.746966 0.00709182 0
M  V30 248 H 25.7306 -1.81033 0.722008 0
M  V30 249 H 24.8266 -3.12034 -0.0639951 0
M  V30 250 N 25.1277 -0.289203 -1.54924 0
M  V30 251 C 26.3557 0.326463 -2.04308 0
M  V30 252 C 26.7707 1.48413 -1.16701 0
M  V30 253 O 26.1277 1.81507 -0.190087 0
M  V30 254 C 26.1787 0.794014 -3.52672 0
M  V30 255 O 25.8997 -0.317564 -4.36948 0
M  V30 256 C 27.4007 1.47605 -4.18004 0
M  V30 257 H 24.6207 0.0726272 -0.667058 0
M  V30 258 H 27.1647 -0.425401 -2.00026 0
M  V30 259 H 25.3197 1.49593 -3.57352 0
M  V30 260 H 25.7337 0.0443186 -5.24481 0
M  V30 261 H 27.2077 1.75447 -5.23376 0
M  V30 262 H 27.6847 2.41224 -3.67025 0
M  V30 263 H 28.2907 0.81762 -4.17367 0
M  V30 264 N 26.6058 1.57591 -0.0167156 0
M  V30 265 C 27.8338 1.95575 0.675128 0
M  V30 266 C 28.2488 0.892542 1.6637 0
M  V30 267 O 27.6058 -0.126912 1.82058 0
M  V30 268 C 27.6568 3.33608 1.39239 0
M  V30 269 O 27.3778 4.3585 0.443444 0
M  V30 270 C 28.8788 3.86151 2.17721 0
M  V30 271 H 26.0988 0.644423 0.186978 0
M  V30 272 H 28.6428 2.0437 -0.0728 0
M  V30 273 H 26.7978 3.2607 2.09182 0
M  V30 274 H 27.2118 5.158 0.951358 0
M  V30 275 H 28.6858 4.85114 2.63379 0
M  V30 276 H 29.1628 3.19738 3.01105 0
M  V30 277 H 29.7688 3.96918 1.52761 0
M  V30 278 N 28.0839 -0.256276 1.55502 0
M  V30 279 C 29.3319 -0.983672 1.76545 0
M  V30 280 C 29.6529 -1.86206 0.578982 0
M  V30 281 O 28.9229 -1.91656 -0.405577 0
M  V30 282 H 27.5029 -0.366191 0.651086 0
M  V30 283 H 30.1649 -0.276479 1.92929 0
M  V30 284 H 29.2609 -1.61087 2.67315 0
M  V30 285 N 29.562 -1.4872 -0.521534 0
M  V30 286 C 30.51 -1.64328 -1.64618 0
M  V30 287 C 31.504 -0.50953 -1.61555 0
M  V30 288 O 32.71 -0.688525 -1.66311 0
M  V30 289 H 29.085 -0.517805 -0.545328 0
M  V30 290 H 31.056 -2.58767 -1.48601 0
M  V30 291 C 29.805 -1.70805 -3.02855 0
M  V30 292 H 29.128 -2.5741 -3.05909 0
M  V30 293 H 30.568 -1.85766 -3.81139 0
M  V30 294 C 29.027 -0.448479 -3.33902 0
M  V30 295 O 29.557 0.434928 -3.99339 0
M  V30 296 N 27.763 -0.317616 -2.88859 0
M  V30 297 H 27.31 -1.03748 -2.35784 0
M  V30 298 H 27.268 0.524113 -3.10001 0
M  V30 299 N 31.0401 0.771051 -1.3745 0
M  V30 300 C 32.4511 1.34737 -1.29239 0
M  V30 301 C 32.8021 1.96109 0.0596908 0
M  V30 302 O 31.9271 1.93865 0.961534 0
M  V30 303 C 32.5221 2.44973 -2.34037 0
M  V30 304 C 31.0811 2.98372 -2.29458 0
M  V30 305 C 30.2281 1.71595 -2.17831 0
M  V30 306 H 33.1791 0.571256 -1.48062 0
M  V30 307 H 33.2001 3.24471 -1.98744 0
M  V30 308 H 32.7121 2.00276 -3.32432 0
M  V30 309 H 30.8131 3.47443 -1.34589 0
M  V30 310 H 30.9261 3.53939 -3.229 0
M  V30 311 H 29.2901 1.94547 -1.64388 0
M  V30 312 H 30.0731 1.29001 -3.18141 0
M  V30 313 N 32.5182 1.22032 0.997298 0
M  V30 314 C 33.7672 1.03637 1.73038 0
M  V30 315 C 34.0802 -0.429475 1.90827 0
M  V30 316 O 35.2862 -0.732995 2.61418 0
M  V30 317 C 33.7422 1.80582 3.11317 0
M  V30 318 C 33.3502 3.31387 3.01474 0
M  V30 319 C 35.0942 1.70621 3.88701 0
M  V30 320 C 33.0012 4.00791 4.3488 0
M  V30 321 H 31.9312 0.384179 0.648785 0
M  V30 322 H 34.5822 1.4584 1.11368 0
M  V30 323 H 32.9642 1.31175 3.73643 0
M  V30 324 H 34.1382 3.88155 2.4834 0
M  V30 325 H 32.4532 3.41976 2.37575 0
M  V30 326 H 35.0502 2.19799 4.87434 0
M  V30 327 H 35.3932 0.665823 4.10941 0
M  V30 328 H 35.9262 2.17547 3.33044 0
M  V30 329 H 32.6652 5.05064 4.1784 0
M  V30 330 H 32.1852 3.48811 4.87945 0
M  V30 331 H 33.8642 4.06139 5.03647 0
M  V30 332 N 33.9963 -1.19345 1.0293 0
M  V30 333 C 35.2453 -1.88363 0.721256 0
M  V30 334 C 35.5583 -1.80514 -0.753254 0
M  V30 335 O 36.7643 -2.44788 -1.17436 0
M  V30 336 C 35.2203 -3.37872 1.23978 0
M  V30 337 C 34.8283 -3.54278 2.74211 0
M  V30 338 C 36.5723 -4.12365 1.00775 0
M  V30 339 C 34.4793 -4.97682 3.19479 0
M  V30 340 H 33.4093 -0.705484 0.266098 0
M  V30 341 H 36.0603 -1.34928 1.24365 0
M  V30 342 H 34.4423 -3.90707 0.6453 0
M  V30 343 H 35.6163 -3.11769 3.39318 0
M  V30 344 H 33.9313 -2.93174 2.95699 0
M  V30 345 H 36.5283 -5.18119 1.32123 0
M  V30 346 H 36.8713 -4.16263 -0.0554308 0
M  V30 347 H 37.4043 -3.65668 1.56625 0
M  V30 348 H 34.1433 -4.98945 4.25128 0
M  V30 349 H 33.6633 -5.4095 2.591 0
M  V30 350 H 35.3423 -5.66337 3.12845 0
M  V30 351 N 35.4744 -0.807222 -1.35358 0
M  V30 352 C 36.7144 -0.393534 -2.00576 0
M  V30 353 C 37.0784 1.0203 -1.62647 0
M  V30 354 O 38.2794 1.53603 -2.20589 0
M  V30 355 C 36.5504 -0.572017 -3.52793 0
M  V30 356 S 38.1094 -0.248845 -4.38094 0
M  V30 357 H 34.9274 -0.149425 -0.695121 0
M  V30 358 H 37.5294 -1.04961 -1.64935 0
M  V30 359 H 36.2334 -1.60097 -3.77885 0
M  V30 360 H 35.7644 0.099359 -3.93275 0
M  V30 361 H 37.7794 0.943253 -4.87152 0
M  V30 362 N 36.9525 1.47285 -0.560781 0
M  V30 363 C 37.8825 2.32857 0.173105 0
M  V30 364 C 38.8635 1.44009 0.905281 0
M  V30 365 O 40.0485 1.7286 0.885046 0
M  V30 366 C 37.1785 3.25861 1.20133 0
M  V30 367 C 36.1325 4.23978 0.585388 0
M  V30 368 C 35.4585 5.06332 1.7185 0
M  V30 369 C 36.7585 5.20242 -0.463178 0
M  V30 370 H 38.4525 2.94466 -0.541307 0
M  V30 371 H 35.9985 1.41601 -0.261764 0
M  V30 372 H 37.9515 3.84569 1.72293 0
M  V30 373 H 36.6755 2.62315 1.94573 0
M  V30 374 H 35.3345 3.66501 0.085054 0
M  V30 375 H 34.9825 4.39186 2.45203 0
M  V30 376 H 34.6825 5.72762 1.31213 0
M  V30 377 H 36.2065 5.67899 2.24329 0
M  V30 378 H 37.6205 5.73293 -0.027502 0
M  V30 379 H 36.0175 5.94896 -0.788627 0
M  V30 380 H 37.0875 4.65504 -1.35773 0
M  V30 381 N 38.4306 0.297415 1.54768 0
M  V30 382 C 39.6786 -0.312295 1.99673 0
M  V30 383 C 39.9996 -1.54686 1.18732 0
M  V30 384 O 39.2696 -1.93854 0.282382 0
M  V30 385 H 37.8496 -0.118381 0.73756 0
M  V30 386 H 40.5116 0.407915 1.90583 0
M  V30 387 H 39.6076 -0.586813 3.06534 0
M  V30 388 N 39.9087 -1.5758 0.0250728 0
M  V30 389 C 40.8587 -2.06468 -0.967201 0
M  V30 390 C 41.8427 -0.964376 -1.28797 0
M  V30 391 O 43.0347 -1.22797 -1.27475 0
M  V30 392 C 40.1637 -2.59203 -2.25097 0
M  V30 393 C 39.2497 -3.76157 -1.95874 0
M  V30 394 N 39.6407 -4.86919 -1.36905 0
M  V30 395 C 37.9387 -3.84566 -2.25887 0
M  V30 396 C 38.6397 -5.68172 -1.24724 0
M  V30 397 N 37.6157 -5.14953 -1.74138 0
M  V30 398 H 41.4177 -2.89508 -0.506176 0
M  V30 399 H 38.9317 -1.61399 -0.18004 0
M  V30 400 H 40.9287 -2.92517 -2.97052 0
M  V30 401 H 39.5887 -1.77592 -2.71829 0
M  V30 402 H 40.5997 -5.07256 -1.04459 0
M  V30 403 H 37.2767 -3.13854 -2.75321 0
M  V30 404 H 38.6667 -6.67221 -0.791605 0
M  V30 405 N 41.3868 0.248026 -1.55636 0
M  V30 406 C 42.3368 1.30994 -1.86614 0
M  V30 407 C 43.3208 1.43543 -0.726918 0
M  V30 408 O 44.5128 1.46804 -0.988818 0
M  V30 409 C 41.6418 2.6656 -2.16335 0
M  V30 410 C 40.7278 2.58019 -3.36581 0
M  V30 411 N 41.1188 2.1911 -4.55878 0
M  V30 412 C 39.4168 2.89035 -3.39669 0
M  V30 413 C 40.1178 2.21174 -5.38012 0
M  V30 414 N 39.0938 2.60632 -4.77045 0
M  V30 415 H 42.8958 0.999583 -2.76379 0
M  V30 416 H 40.4098 0.456652 -1.55848 0
M  V30 417 H 42.4068 3.43194 -2.36692 0
M  V30 418 H 41.0668 2.98463 -1.27867 0
M  V30 419 H 42.0778 1.90672 -4.81523 0
M  V30 420 H 38.7548 3.25485 -2.61469 0
M  V30 421 H 40.1448 1.9344 -6.43452 0
M  V30 422 N 42.8649 1.48995 0.513639 0
M  V30 423 C 43.8279 1.64229 1.59879 0
M  V30 424 C 44.8279 0.514696 1.5234 0
M  V30 425 O 46.0179 0.78087 1.55718 0
M  V30 426 C 43.1499 1.62783 2.99524 0
M  V30 427 H 44.3429 2.61004 1.47705 0
M  V30 428 H 41.8959 1.37837 0.736936 0
M  V30 429 H 42.6309 0.675461 3.17188 0
M  V30 430 H 42.4159 2.4466 3.06404 0
M  V30 431 H 43.9059 1.76669 3.78388 0
M  V30 432 N 44.343 -0.763751 1.37857 0
M  V30 433 C 45.589 -1.52483 1.33704 0
M  V30 434 C 45.922 -1.94051 -0.0759612 0
M  V30 435 O 45.197 -1.64675 -1.03501 0
M  V30 436 C 45.48 -2.78441 2.28348 0
M  V30 437 C 45.333 -2.43075 3.78463 0
M  V30 438 C 46.652 -3.80415 2.21298 0
M  V30 439 H 43.771 -0.553169 0.487005 0
M  V30 440 H 46.413 -0.875562 1.68624 0
M  V30 441 H 44.563 -3.33842 1.987 0
M  V30 442 H 46.235 -1.93527 4.18742 0
M  V30 443 H 44.478 -1.75666 3.96641 0
M  V30 444 H 45.149 -3.33149 4.40132 0
M  V30 445 H 47.625 -3.34527 2.47449 0
M  V30 446 H 46.501 -4.66257 2.89647 0
M  V30 447 H 46.762 -4.25262 1.20849 0
M  V30 448 N 45.8211 -1.22559 -0.990812 0
M  V30 449 C 46.7311 -1.01394 -2.11557 0
M  V30 450 C 47.7471 0.0383962 -1.73958 0
M  V30 451 O 48.9231 -0.154787 -2.00804 0
M  V30 452 C 45.9881 -0.596569 -3.41529 0
M  V30 453 C 45.0491 -1.72276 -3.93217 0
M  V30 454 C 44.2821 -1.32521 -5.16985 0
M  V30 455 O 44.5051 -0.204909 -5.70032 0
M  V30 456 O 43.4391 -2.14247 -5.62478 0
M  V30 457 H 47.2651 -1.95633 -2.32296 0
M  V30 458 H 44.8501 -1.01172 -1.0993 0
M  V30 459 H 46.7321 -0.374263 -4.19735 0
M  V30 460 H 45.4071 0.316939 -3.22145 0
M  V30 461 H 44.3141 -1.99961 -3.16174 0
M  V30 462 H 45.6471 -2.61421 -4.17037 0
M  V30 463 N 47.2992 1.18797 -1.03562 0
M  V30 464 C 48.2472 2.24297 -0.615905 0
M  V30 465 C 49.2412 1.65643 0.354808 0
M  V30 466 O 50.4472 1.78618 0.22265 0
M  V30 467 H 46.8222 0.729909 -0.180934 0
M  V30 468 H 48.7932 2.5701 -1.5162 0
M  V30 469 C 47.5422 3.47698 0.0104735 0
M  V30 470 H 46.8652 3.93125 -0.727509 0
M  V30 471 H 48.3052 4.23159 0.266995 0
M  V30 472 C 46.7642 3.12489 1.25905 0
M  V30 473 O 47.2942 3.25761 2.35038 0
M  V30 474 N 45.5002 2.6686 1.15039 0
M  V30 475 H 45.0472 2.56261 0.262328 0
M  V30 476 H 45.0052 2.43674 1.98672 0
M  V30 477 N 48.7773 0.814389 1.34928 0
M  V30 478 C 50.0253 0.397636 1.9815 0
M  V30 479 C 50.3463 -1.04069 1.64908 0
M  V30 480 O 49.6163 -1.72121 0.93548 0
M  V30 481 H 48.1963 0.144043 0.732981 0
M  V30 482 H 50.8583 1.04195 1.6471 0
M  V30 483 H 49.9543 0.509688 3.0791 0
M  V30 484 N 50.2554 -1.46986 0.568584 0
M  V30 485 C 51.4834 -2.0683 0.0539956 0
M  V30 486 C 51.8984 -1.41953 -1.24478 0
M  V30 487 O 51.2554 -0.519933 -1.74937 0
M  V30 488 C 51.3064 -3.61254 -0.133362 0
M  V30 489 O 51.0274 -4.237 1.11399 0
M  V30 490 C 52.5284 -4.37992 -0.683927 0
M  V30 491 H 49.7484 -0.669058 0.0510141 0
M  V30 492 H 52.2924 -1.88824 0.785234 0
M  V30 493 H 50.4474 -3.78735 -0.81477 0
M  V30 494 H 50.8614 -5.16388 0.91888 0
M  V30 495 H 52.3354 -5.46684 -0.764263 0
M  V30 496 H 52.8124 -4.05058 -1.69778 0
M  V30 497 H 53.4184 -4.25283 -0.0378494 0
M  V30 498 N 51.7335 -0.305618 -1.54608 0
M  V30 499 C 52.9585 0.307562 -2.05107 0
M  V30 500 C 53.3835 1.46385 -1.18123 0
M  V30 501 O 52.7415 1.8034 -0.186324 0
M  V30 502 C 52.7895 0.73704 -3.52987 0
M  V30 503 O 51.8935 1.84134 -3.6901 0
M  V30 504 H 51.2345 0.0589143 -0.661381 0
M  V30 505 H 53.7645 -0.448807 -1.99617 0
M  V30 506 H 53.7745 1.02459 -3.94925 0
M  V30 507 H 52.4495 -0.108773 -4.15758 0
M  V30 508 H 51.0265 1.55398 -3.38978 0
M  V30 509 N 53.2116 1.57565 -0.0334293 0
M  V30 510 C 54.4576 1.92262 0.645226 0
M  V30 511 C 54.7906 0.910543 1.71531 0
M  V30 512 O 54.0656 -0.066099 1.94388 0
M  V30 513 C 54.3486 3.37422 1.2577 0
M  V30 514 C 54.2016 4.49369 0.196891 0
M  V30 515 C 55.5206 3.82628 2.17449 0
M  V30 516 H 52.6396 0.699171 0.233085 0
M  V30 517 H 55.2816 1.89779 -0.0915694 0
M  V30 518 H 53.4316 3.39669 1.88566 0
M  V30 519 H 55.1036 4.59254 -0.433962 0
M  V30 520 H 53.3466 4.31168 -0.477137 0
M  V30 521 H 54.0176 5.47978 0.665124 0
M  V30 522 H 56.4936 3.82145 1.64634 0
M  V30 523 H 55.3696 4.84883 2.57254 0
M  V30 524 H 55.6306 3.18376 3.0674 0
M  V30 525 N 54.6897 -0.239769 1.55765 0
M  V30 526 C 55.6367 -1.29696 1.90913 0
M  V30 527 C 56.6067 -1.47478 0.764164 0
M  V30 528 O 57.7917 -1.61345 1.01845 0
M  V30 529 C 54.9317 -2.64598 2.21544 0
M  V30 530 C 54.0447 -2.54765 3.48882 0
M  V30 531 C 53.1797 -3.82069 3.69049 0
M  V30 532 C 52.2187 -3.66883 4.89963 0
M  V30 533 N 51.3557 -4.86094 5.06614 0
M  V30 534 H 56.1957 -0.990224 2.81067 0
M  V30 535 H 53.7327 -0.477684 1.39128 0
M  V30 536 H 55.6907 -3.43132 2.3731 0
M  V30 537 H 54.3207 -2.93405 1.34585 0
M  V30 538 H 53.3727 -1.67763 3.41409 0
M  V30 539 H 54.6847 -2.39457 4.37563 0
M  V30 540 H 53.8387 -4.69046 3.84812 0
M  V30 541 H 52.5777 -4.00282 2.78614 0
M  V30 542 H 51.5827 -2.78289 4.74168 0
M  V30 543 H 52.8077 -3.50157 5.81865 0
M  V30 544 H 50.7537 -5.04655 4.19117 0
M  V30 545 H 50.6707 -4.73443 5.89396 0
M  V30 546 H 51.9387 -5.74549 5.26795 0
M  V30 547 N 56.1678 -1.49265 -0.50573 0
M  V30 548 C 57.3958 -1.62215 -1.28429 0
M  V30 549 C 57.8108 -0.291697 -1.86533 0
M  V30 550 O 57.1678 0.722233 -1.67601 0
M  V30 551 C 57.2188 -2.68735 -2.41793 0
M  V30 552 O 56.9398 -3.96619 -1.86078 0
M  V30 553 C 58.4408 -2.92346 -3.3324 0
M  V30 554 H 55.6608 -0.546239 -0.389697 0
M  V30 555 H 58.2048 -1.95265 -0.607609 0
M  V30 556 H 56.3598 -2.38476 -3.053 0
M  V30 557 H 56.7738 -4.55256 -2.60465 0
M  V30 558 H 58.2478 -3.70623 -4.09075 0
M  V30 559 H 58.7248 -2.02081 -3.89948 0
M  V30 560 H 59.3308 -3.24003 -2.75503 0
M  V30 561 N 57.6459 0.756429 -1.3826 0
M  V30 562 C 58.5759 1.88374 -1.37976 0
M  V30 563 C 59.5569 1.68311 -0.246082 0
M  V30 564 O 60.7419 1.88944 -0.44874 0
M  V30 565 C 57.8719 3.25864 -1.20125 0
M  V30 566 C 56.8259 3.60523 -2.30666 0
M  V30 567 C 56.1519 4.9672 -1.97923 0
M  V30 568 C 57.4519 3.65692 -3.72916 0
M  V30 569 H 59.1459 1.88869 -2.32312 0
M  V30 570 H 56.6919 0.907272 -1.11824 0
M  V30 571 H 58.6449 4.0438 -1.18552 0
M  V30 572 H 57.3689 3.25841 -0.222498 0
M  V30 573 H 56.0279 2.84324 -2.3142 0
M  V30 574 H 55.6759 4.93253 -0.985393 0
M  V30 575 H 55.3759 5.20878 -2.71955 0
M  V30 576 H 56.8999 5.77618 -1.97964 0
M  V30 577 H 58.3139 4.34328 -3.74208 0
M  V30 578 H 56.7109 4.01358 -4.4613 0
M  V30 579 H 57.7809 2.65987 -4.05436 0
M  V30 580 N 59.124 1.23083 0.984299 0
M  V30 581 C 60.352 1.08714 1.76037 0
M  V30 582 C 60.767 -0.361691 1.85303 0
M  V30 583 O 60.124 -1.25034 1.32939 0
M  V30 584 C 60.175 1.70206 3.18923 0
M  V30 585 O 59.896 3.09423 3.10144 0
M  V30 586 C 61.397 1.61227 4.12941 0
M  V30 587 H 58.617 0.380664 0.552572 0
M  V30 588 H 61.161 1.62853 1.23689 0
M  V30 589 H 59.316 1.20109 3.6831 0
M  V30 590 H 59.73 3.39188 4.00065 0
M  V30 591 H 61.204 2.08962 5.10919 0
M  V30 592 H 61.681 0.570375 4.35481 0
M  V30 593 H 62.287 2.10671 3.69456 0
M  V30 594 N 60.6021 -1.18246 1.0419 0
M  V30 595 C 61.8791 -1.84121 0.660208 0
M  V30 596 C 62.2591 -1.92778 -0.860221 0
M  V30 597 O 61.6071 -1.45464 -1.76217 0
M  V30 598 C 61.8171 -3.22355 1.33747 0
M  V30 599 C 63.1651 -3.98376 1.46906 0
M  V30 600 O 64.1891 -3.31799 1.29568 0
M  V30 601 O 63.0481 -5.17665 1.75171 0
M  V30 602 H 60.1421 -0.794036 0.231161 0
M  V30 603 H 62.6881 -1.25628 1.14087 0
M  V30 604 H 61.4601 -3.10964 2.37522 0
M  V30 605 H 61.0831 -3.88506 0.845515 0
M  V30 606 N 62.0802 -0.821533 -1.34494 0
M  V30 607 C 63.0282 -0.230702 -2.31453 0
M  V30 608 C 64.0222 0.627793 -1.57338 0
M  V30 609 O 65.2282 0.519288 -1.72347 0
M  V30 610 H 61.6032 -0.0558577 -0.749923 0
M  V30 611 H 63.5742 -1.06332 -2.78812 0
M  V30 612 C 62.3232 0.59391 -3.4259 0
M  V30 613 H 61.6462 -0.0573588 -3.99759 0
M  V30 614 H 63.0862 0.973446 -4.12674 0
M  V30 615 C 61.5452 1.76568 -2.86924 0
M  V30 616 O 62.0752 2.8638 -2.81691 0
M  V30 617 N 60.2812 1.58198 -2.43766 0
M  V30 618 H 59.8282 0.68872 -2.48222 0
M  V30 619 H 59.7862 2.36752 -2.06871 0
M  V30 620 N 63.5583 1.46682 -0.576371 0
M  V30 621 C 64.5083 2.27278 0.181288 0
M  V30 622 C 65.4923 1.35497 0.867721 0
M  V30 623 O 66.6843 1.59717 0.762863 0
M  V30 624 C 63.8133 3.21703 1.19841 0
M  V30 625 C 62.8993 4.20969 0.51442 0
M  V30 626 N 63.2903 5.03999 -0.426407 0
M  V30 627 C 61.5883 4.39373 0.765963 0
M  V30 628 C 62.2893 5.75812 -0.825565 0
M  V30 629 N 61.2653 5.43315 -0.176116 0
M  V30 630 H 65.0673 2.88863 -0.541785 0
M  V30 631 H 62.5813 1.57455 -0.397697 0
M  V30 632 H 64.5783 3.78145 1.75533 0
M  V30 633 H 63.2383 2.61677 1.92238 0
M  V30 634 H 64.2493 5.11659 -0.8016 0
M  V30 635 H 60.9263 3.90502 1.47698 0
M  V30 636 H 62.3163 6.52577 -1.59976 0
M  V30 637 N 65.0364 0.313813 1.54444 0
M  V30 638 C 66.2824 -0.292108 2.00685 0
M  V30 639 C 66.6154 -1.52548 1.20177 0
M  V30 640 O 65.8904 -1.92452 0.281531 0
M  V30 641 C 66.1734 -0.635968 3.5444 0
M  V30 642 C 66.0264 0.607437 4.4568 0
M  V30 643 C 67.3454 -1.45747 4.15266 0
M  V30 644 H 64.4644 -0.104697 0.729526 0
M  V30 645 H 67.1064 0.428457 1.85106 0
M  V30 646 H 65.2564 -1.24986 3.67846 0
M  V30 647 H 66.9284 1.24581 4.44159 0
M  V30 648 H 65.1714 1.23822 4.15753 0
M  V30 649 H 65.8424 0.322515 5.51057 0
M  V30 650 H 68.3184 -0.938645 4.05375 0
M  V30 651 H 67.1944 -1.66683 5.2298 0
M  V30 652 H 67.4554 -2.45063 3.67963 0
M  V30 653 N 66.5145 -1.57545 0.0417849 0
M  V30 654 C 67.4245 -2.14451 -0.951213 0
M  V30 655 C 68.4405 -1.09992 -1.34825 0
M  V30 656 O 69.6165 -1.42114 -1.42708 0
M  V30 657 C 66.6815 -2.67063 -2.21084 0
M  V30 658 C 65.7425 -3.86284 -1.87304 0
M  V30 659 C 64.9755 -4.36378 -3.07261 0
M  V30 660 O 65.1985 -3.85587 -4.20332 0
M  V30 661 O 64.1325 -5.28077 -2.88822 0
M  V30 662 H 67.9585 -2.99601 -0.497287 0
M  V30 663 H 65.5435 -1.48317 -0.179567 0
M  V30 664 H 67.4255 -3.00914 -2.95006 0
M  V30 665 H 66.1005 -1.84989 -2.65633 0
M  V30 666 H 65.0075 -3.57338 -1.10727 0
M  V30 667 H 66.3405 -4.6956 -1.47562 0
M  V30 668 N 67.9926 0.231505 -1.5589 0
M  V30 669 C 69.2386 0.95877 -1.78705 0
M  V30 670 C 69.5716 1.8438 -0.609725 0
M  V30 671 O 68.8466 1.90521 0.391426 0
M  V30 672 C 69.1296 1.8062 -3.11526 0
M  V30 673 C 68.9826 0.948328 -4.39689 0
M  V30 674 C 70.3016 2.78585 -3.40703 0
M  V30 675 H 67.4206 0.347129 -0.650131 0
M  V30 676 H 70.0626 0.228259 -1.88624 0
M  V30 677 H 68.2126 2.42902 -3.03201 0
M  V30 678 H 69.8846 0.343016 -4.60023 0
M  V30 679 H 68.1276 0.253314 -4.3306 0
M  V30 680 H 68.7986 1.57543 -5.29041 0
M  V30 681 H 71.2746 2.26439 -3.49091 0
M  V30 682 H 70.1506 3.34988 -4.34826 0
M  V30 683 H 70.4116 3.55825 -2.62375 0
M  V30 684 N 69.4707 1.49531 0.497807 0
M  V30 685 C 70.7167 1.59415 1.25358 0
M  V30 686 C 71.0497 0.281422 1.9215 0
M  V30 687 O 70.3247 -0.715249 1.80871 0
M  V30 688 C 70.6077 2.75566 2.3181 0
M  V30 689 C 70.4607 4.16642 1.69498 0
M  V30 690 C 71.7797 2.87347 3.33346 0
M  V30 691 H 68.8987 0.580244 0.454408 0
M  V30 692 H 71.5407 1.81827 0.551262 0
M  V30 693 H 69.6907 2.56587 2.91711 0
M  V30 694 H 71.3627 4.47145 1.13399 0
M  V30 695 H 69.6057 4.22141 0.998978 0
M  V30 696 H 70.2767 4.93792 2.46725 0
M  V30 697 H 72.7527 3.04634 2.83438 0
M  V30 698 H 71.6287 3.70289 4.05188 0
M  V30 699 H 71.8897 1.96834 3.95865 0
M  V30 700 N 70.9488 -0.749086 1.3866 0
M  V30 701 C 72.1738 -1.54344 1.38538 0
M  V30 702 C 72.5988 -1.88088 -0.0216655 0
M  V30 703 O 71.9568 -1.50899 -1.00494 0
M  V30 704 C 72.0048 -2.8164 2.25192 0
M  V30 705 O 71.1088 -3.7698 1.67212 0
M  V30 706 H 70.4498 -0.466654 0.472367 0
M  V30 707 H 72.9798 -0.925355 1.82478 0
M  V30 708 H 72.9898 -3.30519 2.3921 0
M  V30 709 H 71.6648 -2.56411 3.27454 0
M  V30 710 H 70.2418 -3.35699 1.6236 0
M  V30 711 N 72.4269 -1.23603 -0.977757 0
M  V30 712 C 73.3899 -1.02069 -2.05218 0
M  V30 713 C 74.3899 0.0184305 -1.60789 0
M  V30 714 O 75.5799 -0.221569 -1.72785 0
M  V30 715 C 72.7119 -0.544926 -3.36517 0
M  V30 716 H 73.9049 -1.9742 -2.25755 0
M  V30 717 H 71.4579 -1.05684 -1.15155 0
M  V30 718 H 72.1929 0.412241 -3.21669 0
M  V30 719 H 71.9779 -1.2948 -3.70105 0
M  V30 720 H 73.4679 -0.414985 -4.15533 0
M  V30 721 N 73.905 1.17692 -1.04816 0
M  V30 722 C 74.852 2.21581 -0.645797 0
M  V30 723 C 75.822 1.62367 0.350159 0
M  V30 724 O 77.007 1.89254 0.242433 0
M  V30 725 C 74.147 3.45092 -0.0227568 0
M  V30 726 C 73.26 4.18613 -1.06709 0
M  V30 727 C 72.395 5.29602 -0.411767 0
M  V30 728 C 71.434 5.94904 -1.44067 0
M  V30 729 N 70.571 6.97414 -0.809781 0
M  V30 730 H 75.411 2.55353 -1.5362 0
M  V30 731 H 72.948 1.25438 -0.768364 0
M  V30 732 H 74.906 4.15679 0.35588 0
M  V30 733 H 73.536 3.11917 0.831122 0
M  V30 734 H 72.588 3.46779 -1.5636 0
M  V30 735 H 73.9 4.63293 -1.84827 0
M  V30 736 H 73.054 6.06696 0.0206623 0
M  V30 737 H 71.793 4.86045 0.401438 0
M  V30 738 H 70.798 5.16544 -1.88316 0
M  V30 739 H 72.023 6.40542 -2.25571 0
M  V30 740 H 69.969 6.55998 -0.0170186 0
M  V30 741 H 69.886 7.40386 -1.52856 0
M  V30 742 H 71.154 7.78463 -0.401999 0
M  V30 743 N 75.3831 0.828654 1.34056 0
M  V30 744 C 76.2931 0.256725 2.33191 0
M  V30 745 C 77.3091 -0.611898 1.62886 0
M  V30 746 O 78.4851 -0.51844 1.94613 0
M  V30 747 C 75.5501 -0.567238 3.42028 0
M  V30 748 C 74.6111 0.324458 4.28072 0
M  V30 749 C 73.8441 -0.460274 5.31712 0
M  V30 750 O 74.0671 -1.693 5.44696 0
M  V30 751 O 73.0011 0.160391 6.01686 0
M  V30 752 H 76.8271 1.07739 2.83947 0
M  V30 753 H 74.4121 0.59093 1.37217 0
M  V30 754 H 76.2941 -1.03582 4.08471 0
M  V30 755 H 74.9691 -1.36513 2.93506 0
M  V30 756 H 73.8761 0.840659 3.64532 0
M  V30 757 H 75.2091 1.08685 4.8005 0
M  V30 758 N 76.8612 -1.46375 0.584142 0
M  V30 759 C 77.7912 -2.33103 -0.136037 0
M  V30 760 C 78.7722 -1.45431 -0.882255 0
M  V30 761 O 79.9572 -1.74246 -0.857434 0
M  V30 762 C 77.0872 -3.27731 -1.14933 0
M  V30 763 C 76.0412 -4.24855 -0.517862 0
M  V30 764 C 75.3672 -5.09001 -1.63773 0
M  V30 765 C 76.6672 -5.19439 0.545886 0
M  V30 766 H 78.3612 -2.93568 0.588086 0
M  V30 767 H 75.9072 -1.41166 0.284259 0
M  V30 768 H 77.8602 -3.87261 -1.66153 0
M  V30 769 H 76.5842 -2.65377 -1.90375 0
M  V30 770 H 75.2432 -3.6659 -0.0267361 0
M  V30 771 H 74.8912 -4.43031 -2.38185 0
M  V30 772 H 74.5912 -5.74777 -1.22085 0
M  V30 773 H 76.1152 -5.71396 -2.15266 0
M  V30 774 H 77.5292 -5.73177 0.118704 0
M  V30 775 H 75.9262 -5.93566 0.88317 0
M  V30 776 H 76.9962 -4.63285 1.43162 0
M  V30 777 N 78.3393 -0.321999 -1.54275 0
M  V30 778 C 79.5853 0.281461 -2.00837 0
M  V30 779 C 79.9183 1.51909 -1.20985 0
M  V30 780 O 79.1933 1.923 -0.291733 0
M  V30 781 C 79.4763 0.617162 -3.54772 0
M  V30 782 C 79.3293 -0.631064 -4.45351 0
M  V30 783 C 80.6483 1.43542 -4.16033 0
M  V30 784 H 77.7673 0.100826 -0.730071 0
M  V30 785 H 80.4093 -0.438268 -1.84876 0
M  V30 786 H 78.5593 1.23034 -3.68504 0
M  V30 787 H 80.2313 -1.26934 -4.43492 0
M  V30 788 H 78.4743 -1.26025 -4.15091 0
M  V30 789 H 79.1453 -0.351735 -5.50878 0
M  V30 790 H 81.6213 0.917134 -4.05867 0
M  V30 791 H 80.4973 1.63907 -5.23856 0
M  V30 792 H 80.7583 2.43108 -3.69257 0
M  V30 793 N 79.8174 1.5752 -0.0501392 0
M  V30 794 C 80.7274 2.14952 0.939827 0
M  V30 795 C 81.7434 1.10706 1.34239 0
M  V30 796 O 82.9194 1.42869 1.41952 0
M  V30 797 C 79.9844 2.68232 2.19665 0
M  V30 798 C 79.0454 3.87272 1.85253 0
M  V30 799 C 78.2784 4.38002 3.04943 0
M  V30 800 O 78.5014 3.87811 4.18281 0
M  V30 801 O 77.4354 5.29602 2.86017 0
M  V30 802 H 81.2614 2.9986 0.481392 0
M  V30 803 H 78.8464 1.4841 0.171699 0
M  V30 804 H 80.7284 3.02475 2.93406 0
M  V30 805 H 79.4034 1.86395 2.64648 0
M  V30 806 H 78.3104 3.5792 1.0883 0
M  V30 807 H 79.6434 4.70336 1.4507 0
M  V30 808 N 81.2955 -0.223234 1.56011 0
M  V30 809 C 82.5235 -0.964812 1.83027 0
M  V30 810 C 82.9385 -1.78013 0.62904 0
M  V30 811 O 82.2955 -1.78008 -0.402414 0
M  V30 812 C 82.3465 -1.88373 3.08542 0
M  V30 813 O 82.0675 -1.10137 4.2403 0
M  V30 814 C 83.5685 -2.73934 3.48533 0
M  V30 815 H 80.7885 -0.282842 0.608475 0
M  V30 816 H 83.3325 -0.238971 2.03099 0
M  V30 817 H 81.4875 -2.56354 2.9045 0
M  V30 818 H 81.9015 -1.72501 4.95322 0
M  V30 819 H 83.3755 -3.34117 4.39397 0
M  V30 820 H 83.8525 -3.46244 2.70207 0
M  V30 821 H 84.4585 -2.11369 3.69057 0
M  V30 822 N 82.7736 -1.49793 -0.48987 0
M  V30 823 C 83.7206 -1.67281 -1.59014 0
M  V30 824 C 84.6906 -0.514177 -1.57941 0
M  V30 825 O 85.8756 -0.742533 -1.75759 0
M  V30 826 C 83.0156 -1.75569 -2.97102 0
M  V30 827 C 82.1286 -3.0281 -3.08107 0
M  V30 828 C 81.2636 -3.02008 -4.36995 0
M  V30 829 C 80.3026 -4.23782 -4.41673 0
M  V30 830 N 79.4396 -4.20826 -5.62005 0
M  V30 831 H 84.2796 -2.61224 -1.43409 0
M  V30 832 H 81.8166 -1.29508 -0.697565 0
M  V30 833 H 83.7746 -1.78354 -3.77155 0
M  V30 834 H 82.4046 -0.850827 -3.11385 0
M  V30 835 H 81.4566 -3.09584 -2.21047 0
M  V30 836 H 82.7686 -3.92801 -3.07423 0
M  V30 837 H 81.9226 -3.03418 -5.25378 0
M  V30 838 H 80.6616 -2.09815 -4.4026 0
M  V30 839 H 79.6666 -4.22604 -3.5169 0
M  V30 840 H 80.8916 -5.17181 -4.40115 0
M  V30 841 H 78.8376 -3.31476 -5.66091 0
M  V30 842 H 78.7546 -5.04564 -5.62984 0
M  V30 843 H 80.0226 -4.26355 -6.52565 0
M  V30 844 N 84.2517 0.741722 -1.39055 0
M  V30 845 C 85.2017 1.84661 -1.33732 0
M  V30 846 C 86.1857 1.59397 -0.219401 0
M  V30 847 O 87.3777 1.71015 -0.456375 0
M  V30 848 C 84.5067 3.22512 -1.17647 0
M  V30 849 C 83.5927 3.53628 -2.34112 0
M  V30 850 N 83.9837 3.55723 -3.59576 0
M  V30 851 C 82.2817 3.83956 -2.26923 0
M  V30 852 C 82.9827 3.84443 -4.36553 0
M  V30 853 N 81.9587 4.01877 -3.66055 0
M  V30 854 H 85.7607 1.84576 -2.28711 0
M  V30 855 H 83.2747 0.939647 -1.32455 0
M  V30 856 H 85.2717 4.01597 -1.11917 0
M  V30 857 H 83.9317 3.2384 -0.236124 0
M  V30 858 H 84.9427 3.37196 -3.93089 0
M  V30 859 H 81.6197 3.92929 -1.41113 0
M  V30 860 H 83.0097 3.92588 -5.45274 0
M  V30 861 N 85.7298 1.2412 0.971189 0
M  V30 862 C 86.9578 1.10575 1.74874 0
M  V30 863 C 87.3728 -0.342017 1.85676 0
M  V30 864 O 86.7298 -1.23617 1.34258 0
M  V30 865 C 86.7808 1.73579 3.171 0
M  V30 866 O 86.5018 3.12695 3.06844 0
M  V30 867 C 88.0028 1.65598 4.11208 0
M  V30 868 H 85.2228 0.386504 0.548503 0
M  V30 869 H 87.7668 1.64156 1.21955 0
M  V30 870 H 85.9218 1.24009 3.67016 0
M  V30 871 H 86.3358 3.43412 3.96445 0
M  V30 872 H 87.8098 2.1437 5.08674 0
M  V30 873 H 88.2868 0.616532 4.34851 0
M  V30 874 H 88.8928 2.14578 3.67201 0
M  V30 875 N 87.2079 -1.17134 1.05439 0
M  V30 876 C 88.4849 -1.83411 0.679699 0
M  V30 877 C 88.8649 -1.9368 -0.839726 0
M  V30 878 O 88.2129 -1.47325 -1.74664 0
M  V30 879 C 88.4229 -3.20918 1.37159 0
M  V30 880 C 89.7709 -3.96796 1.51123 0
M  V30 881 O 90.7949 -3.30406 1.3308 0
M  V30 882 O 89.6539 -5.15778 1.80651 0
M  V30 883 H 86.7479 -0.79154 0.239569 0
M  V30 884 H 89.2939 -1.24411 1.15413 0
M  V30 885 H 88.0659 -3.08428 2.40807 0
M  V30 886 H 87.6889 -3.87587 0.886674 0
M  V30 887 N 88.686 -0.835752 -1.33615 0
M  V30 888 C 89.596 -0.269088 -2.33052 0
M  V30 889 C 90.612 0.603251 -1.63208 0
M  V30 890 O 91.788 0.508112 -1.94885 0
M  V30 891 C 88.853 0.549091 -3.42324 0
M  V30 892 C 87.914 -0.347156 -4.27894 0
M  V30 893 C 87.147 0.43207 -5.31948 0
M  V30 894 O 87.37 1.66409 -5.45586 0
M  V30 895 O 86.304 -0.192298 -6.01593 0
M  V30 896 H 90.13 -1.09243 -2.83372 0
M  V30 897 H 87.715 -0.598198 -1.36901 0
M  V30 898 H 89.597 1.01414 -4.09015 0
M  V30 899 H 88.272 1.34955 -2.94226 0
M  V30 900 H 87.179 -0.859979 -3.64081 0
M  V30 901 H 88.512 -1.1123 -4.79467 0
M  V30 902 N 90.1641 1.46063 -0.591896 0
M  V30 903 C 91.0941 2.33172 0.123673 0
M  V30 904 C 92.0751 1.45897 0.87453 0
M  V30 905 O 93.2601 1.74698 0.848181 0
M  V30 906 C 90.3901 3.28336 1.13194 0
M  V30 907 C 89.3441 4.25124 0.495324 0
M  V30 908 C 88.6701 5.09863 1.61071 0
M  V30 909 C 89.9701 5.19143 -0.573425 0
M  V30 910 H 91.6641 2.93252 -0.603646 0
M  V30 911 H 89.2101 1.41014 -0.291741 0
M  V30 912 H 91.1631 3.88137 1.64097 0
M  V30 913 H 89.8871 2.66383 1.88965 0
M  V30 914 H 88.5461 3.66599 0.00729452 0
M  V30 915 H 88.1941 4.44288 2.35832 0
M  V30 916 H 87.8941 5.75417 1.19035 0
M  V30 917 H 89.4181 5.72529 2.12233 0
M  V30 918 H 90.8321 5.73106 -0.1491 0
M  V30 919 H 89.2291 5.93089 -0.914636 0
M  V30 920 H 90.2991 4.62519 -1.45617 0
M  V30 921 N 91.6422 0.330177 1.54103 0
M  V30 922 C 92.8822 -0.270916 2.02597 0
M  V30 923 C 93.2462 -1.48826 1.21304 0
M  V30 924 O 94.4472 -2.16266 1.59633 0
M  V30 925 C 92.7182 -0.590328 3.52491 0
M  V30 926 S 94.2772 -1.17014 4.2291 0
M  V30 927 H 91.0952 -0.0815379 0.706309 0
M  V30 928 H 93.6972 0.464835 1.89893 0
M  V30 929 H 92.4012 0.303691 4.09275 0
M  V30 930 H 91.9322 -1.3561 3.69288 0
M  V30 931 H 93.9472 -2.45662 4.3112 0
M  V30 932 N 93.1203 -1.57491 0.0584922 0
M  V30 933 C 94.5313 -1.80526 -0.476138 0
M  V30 934 C 94.8823 -0.971334 -1.70469 0
M  V30 935 O 94.0073 -0.190012 -2.15564 0
M  V30 936 C 94.6023 -3.27424 -0.870587 0
M  V30 937 C 93.1613 -3.51351 -1.35015 0
M  V30 938 C 92.3083 -2.75343 -0.32887 0
M  V30 939 H 95.2593 -1.56133 0.284312 0
M  V30 940 H 95.2803 -3.38745 -1.73299 0
M  V30 941 H 94.7923 -3.88093 0.0237627 0
M  V30 942 H 92.8933 -2.95971 -2.26345 0
M  V30 943 H 93.0063 -4.60059 -1.33726 0
M  V30 944 H 91.3703 -2.417 -0.803321 0
M  V30 945 H 92.1533 -3.38743 0.557521 0
M  V30 946 N 94.5984 0.214957 -1.56127 0
M  V30 947 C 95.8234 0.95924 -1.83884 0
M  V30 948 C 96.2484 1.7689 -0.639644 0
M  V30 949 O 95.6064 1.76566 0.411601 0
M  V30 950 C 95.6544 1.84723 -3.09693 0
M  V30 951 O 94.7584 2.94346 -2.8885 0
M  V30 952 H 94.0994 0.27125 -0.606069 0
M  V30 953 H 96.6294 0.226276 -2.03345 0
M  V30 954 H 96.6394 2.25576 -3.39969 0
M  V30 955 H 95.3144 1.25218 -3.96602 0
M  V30 956 H 93.8914 2.57391 -2.69823 0
M  V30 957 N 96.0765 1.50051 0.48192 0
M  V30 958 C 97.4875 1.5348 1.06305 0
M  V30 959 C 97.8385 0.331997 1.93371 0
M  V30 960 O 96.9635 -0.556256 2.09129 0
M  V30 961 C 97.5585 2.7813 1.93466 0
M  V30 962 C 96.1175 2.84275 2.46707 0
M  V30 963 C 95.2645 2.47637 1.24785 0
M  V30 964 H 98.2155 1.56472 0.264995 0
M  V30 965 H 98.2365 2.59372 2.78399 0
M  V30 966 H 97.7485 3.65654 1.30072 0
M  V30 967 H 95.8495 2.01077 3.13686 0
M  V30 968 H 95.9625 3.8691 2.82555 0
M  V30 969 H 94.3265 1.99835 1.57918 0
M  V30 970 H 95.1095 3.37457 0.630694 0
M  V30 971 N 97.5546 -0.734337 1.39446 0
M  V30 972 C 98.4846 -1.86155 1.40955 0
M  V30 973 C 99.4656 -1.67898 0.272827 0
M  V30 974 O 100.651 -1.88207 0.478743 0
M  V30 975 C 97.7806 -3.23912 1.25294 0
M  V30 976 C 96.7346 -3.56808 2.36373 0
M  V30 977 C 96.0606 -4.93508 2.058 0
M  V30 978 C 97.3606 -3.59713 3.78687 0
M  V30 979 H 99.0546 -1.8515 2.35287 0
M  V30 980 H 96.6006 -0.889367 1.13253 0
M  V30 981 H 98.5536 -4.02443 1.2497 0
M  V30 982 H 97.2776 -3.25446 0.274308 0
M  V30 983 H 95.9366 -2.80606 2.35914 0
M  V30 984 H 95.5846 -4.91623 1.06374 0
M  V30 985 H 95.2846 -5.16486 2.80208 0
M  V30 986 H 96.8086 -5.74396 2.07128 0
M  V30 987 H 98.2226 -4.2832 3.81071 0
M  V30 988 H 96.6196 -3.94209 4.52459 0
M  V30 989 H 97.6896 -2.59504 4.09617 0
M  V30 990 N 99.0327 -1.24633 -0.964593 0
M  V30 991 C 99.9797 -1.04144 -2.05968 0
M  V30 992 C 100.95 0.046262 -1.66036 0
M  V30 993 O 102.135 -0.108972 -1.90489 0
M  V30 994 C 99.2747 -0.65563 -3.38815 0
M  V30 995 C 98.3877 -1.81714 -3.91923 0
M  V30 996 C 97.5227 -1.37662 -5.13052 0
M  V30 997 C 96.5617 -2.50788 -5.58365 0
M  V30 998 N 95.6987 -2.07582 -6.70712 0
M  V30 999 H 100.539 -1.9787 -2.22827 0
M  V30 1000 H 98.0757 -0.9855 -1.09208 0
M  V30 1001 H 100.034 -0.412954 -4.15151 0
M  V30 1002 H 98.6637 0.244627 -3.21872 0
M  V30 1003 H 97.7157 -2.1734 -3.12198 0
M  V30 1004 H 99.0277 -2.66705 -4.21509 0
M  V30 1005 H 98.1817 -1.093 -5.96773 0
M  V30 1006 H 96.9207 -0.497293 -4.85158 0
M  V30 1007 H 95.9257 -2.79906 -4.73215 0
M  V30 1008 H 97.1507 -3.39283 -5.88272 0
M  V30 1009 H 95.0967 -1.22051 -6.44546 0
M  V30 1010 H 95.0137 -2.86125 -6.99763 0
M  V30 1011 H 96.2817 -1.82369 -7.57867 0
M  V30 1012 N 100.511 1.16574 -1.06058 0
M  V30 1013 C 101.441 2.23057 -0.690488 0
M  V30 1014 C 102.422 1.67141 0.315901 0
M  V30 1015 O 103.607 1.93253 0.191556 0
M  V30 1016 C 100.737 3.47222 -0.073625 0
M  V30 1017 C 99.6908 4.16016 -1.00573 0
M  V30 1018 C 99.0168 5.34104 -0.252289 0
M  V30 1019 C 100.317 4.67264 -2.33371 0
M  V30 1020 H 102.011 2.54271 -1.58072 0
M  V30 1021 H 99.5568 1.22218 -0.76149 0
M  V30 1022 H 101.51 4.20939 0.19714 0
M  V30 1023 H 100.234 3.15302 0.85161 0
M  V30 1024 H 98.8928 3.44223 -1.2612 0
M  V30 1025 H 98.5408 4.98437 0.675988 0
M  V30 1026 H 98.2408 5.81072 -0.873455 0
M  V30 1027 H 99.7648 6.10599 0.0109857 0
M  V30 1028 H 101.179 5.32573 -2.12223 0
M  V30 1029 H 99.5758 5.24843 -2.90963 0
M  V30 1030 H 100.646 3.83602 -2.96611 0
M  V30 1031 N 101.989 0.842826 1.3317 0
M  V30 1032 C 103.235 0.441099 1.97945 0
M  V30 1033 C 103.568 -0.998024 1.66593 0
M  V30 1034 O 102.843 -1.69839 0.947898 0
M  V30 1035 C 103.126 0.666841 3.53872 0
M  V30 1036 C 102.979 2.15352 3.94897 0
M  V30 1037 C 104.298 0.115544 4.39948 0
M  V30 1038 H 101.417 0.161739 0.719034 0
M  V30 1039 H 104.059 1.05907 1.57746 0
M  V30 1040 H 102.209 0.140828 3.88245 0
M  V30 1041 H 103.881 2.7447 3.70761 0
M  V30 1042 H 102.124 2.63653 3.44484 0
M  V30 1043 H 102.795 2.26221 5.03516 0
M  V30 1044 H 105.271 0.565213 4.12243 0
M  V30 1045 H 104.147 0.303152 5.48062 0
M  V30 1046 H 104.408 -0.980935 4.3108 0
M  V30 1047 N 103.467 -1.45747 0.599634 0
M  V30 1048 C 104.744 -1.95585 0.0240846 0
M  V30 1049 C 105.124 -1.54217 -1.44154 0
M  V30 1050 O 104.472 -0.800903 -2.14004 0
M  V30 1051 C 104.682 -3.48344 0.21385 0
M  V30 1052 C 106.03 -4.24504 0.0904902 0
M  V30 1053 O 107.054 -3.55911 0.143558 0
M  V30 1054 O 105.913 -5.46491 -0.0310766 0
M  V30 1055 H 103.007 -0.82602 -0.0402478 0
M  V30 1056 H 105.553 -1.55951 0.669139 0
M  V30 1057 H 104.325 -3.71397 1.23206 0
M  V30 1058 H 103.948 -3.9485 -0.466842 0
M  V30 1059 N 104.945 -0.338344 -1.53925 0
M  V30 1060 C 106.193 0.259245 -2.0043 0
M  V30 1061 C 106.514 1.51484 -1.22791 0
M  V30 1062 O 105.784 1.93037 -0.33368 0
M  V30 1063 H 104.364 0.0987845 -0.740439 0
M  V30 1064 H 107.026 -0.458302 -1.89435 0
M  V30 1065 H 106.122 0.505334 -3.07982 0
M  V30 1066 N 106.423 1.57458 -0.0668435 0
M  V30 1067 C 107.355 2.09413 0.931601 0
M  V30 1068 C 108.368 1.02522 1.26464 0
M  V30 1069 O 109.557 1.30049 1.22269 0
M  V30 1070 C 106.657 2.53537 2.24882 0
M  V30 1071 C 105.83 3.83944 2.09537 0
M  V30 1072 C 104.889 4.14214 3.2452 0
M  V30 1073 O 103.915 4.83891 2.9973 0
M  V30 1074 N 105.117 3.67367 4.49469 0
M  V30 1075 H 107.882 2.95699 0.488048 0
M  V30 1076 H 105.443 1.61462 0.119009 0
M  V30 1077 H 107.435 2.70853 3.00701 0
M  V30 1078 H 106.005 1.72415 2.60753 0
M  V30 1079 H 105.225 3.76057 1.18215 0
M  V30 1080 H 106.513 4.69312 1.96529 0
M  V30 1081 H 105.911 3.11068 4.72497 0
M  V30 1082 H 104.468 3.89891 5.2233 0
M  V30 1083 N 107.901 -0.206675 1.56239 0
M  V30 1084 C 109.178 -0.954051 1.70755 0
M  V30 1085 C 109.558 -2.01841 0.618353 0
M  V30 1086 O 108.906 -2.25444 -0.372434 0
M  V30 1087 C 109.116 -1.551 3.12642 0
M  V30 1088 C 110.464 -2.03757 3.72516 0
M  V30 1089 O 111.488 -1.64965 3.15698 0
M  V30 1090 O 110.347 -2.75103 4.72208 0
M  V30 1091 H 107.441 -0.446636 0.696021 0
M  V30 1092 H 109.987 -0.197283 1.68549 0
M  V30 1093 H 108.759 -0.783212 3.83382 0
M  V30 1094 H 108.382 -2.37291 3.19028 0
M  V30 1095 N 109.379 -1.50304 -0.473955 0
M  V30 1096 C 110.619 -1.62786 -1.23612 0
M  V30 1097 C 110.983 -0.319786 -1.89318 0
M  V30 1098 O 112.184 -0.320012 -2.66888 0
M  V30 1099 C 110.455 -2.77351 -2.25414 0
M  V30 1100 S 112.014 -3.09948 -3.10608 0
M  V30 1101 H 108.832 -0.573895 -0.419721 0
M  V30 1102 H 111.434 -1.88076 -0.533623 0
M  V30 1103 H 110.138 -3.70879 -1.75719 0
M  V30 1104 H 109.669 -2.54137 -3.00296 0
M  V30 1105 H 111.684 -2.53553 -4.26527 0
M  V30 1106 N 110.857 0.726932 -1.39834 0
M  V30 1107 C 112.134 1.47902 -1.28001 0
M  V30 1108 C 112.514 2.1083 0.106789 0
M  V30 1109 O 111.862 1.99242 1.11869 0
M  V30 1110 C 112.072 2.52392 -2.41038 0
M  V30 1111 C 113.42 3.18546 -2.80737 0
M  V30 1112 O 114.444 2.62708 -2.40547 0
M  V30 1113 O 113.303 4.19604 -3.50135 0
M  V30 1114 H 110.397 0.657163 -0.502062 0
M  V30 1115 H 112.943 0.760071 -1.51727 0
M  V30 1116 H 111.715 2.04329 -3.33715 0
M  V30 1117 H 111.338 3.31837 -2.19021 0
M  V30 1118 N 112.336 1.25143 0.95797 0
M  V30 1119 C 113.266 1.07711 2.07173 0
M  V30 1120 C 114.247 -0.0128462 1.70095 0
M  V30 1121 O 115.432 0.156061 1.93572 0
M  V30 1122 C 112.562 0.691503 3.40346 0
M  V30 1123 C 111.516 1.73132 3.9142 0
M  V30 1124 C 110.842 1.20049 5.21049 0
M  V30 1125 C 112.142 3.1294 4.1817 0
M  V30 1126 H 113.836 2.00873 2.22014 0
M  V30 1127 H 111.382 0.967191 1.06684 0
M  V30 1128 H 113.335 0.556505 4.17709 0
M  V30 1129 H 112.059 -0.275819 3.25433 0
M  V30 1130 H 110.718 1.8547 3.16222 0
M  V30 1131 H 110.366 0.223499 5.02503 0
M  V30 1132 H 110.066 1.89545 5.56189 0
M  V30 1133 H 111.59 1.07782 6.01012 0
M  V30 1134 H 113.004 3.03775 4.86203 0
M  V30 1135 H 111.401 3.79875 4.64559 0
M  V30 1136 H 112.471 3.6025 3.24573 0
M  V30 1137 N 113.814 -1.1601 1.06675 0
M  V30 1138 C 115.063 -1.85973 0.780818 0
M  V30 1139 C 115.376 -1.82819 -0.695444 0
M  V30 1140 O 116.582 -2.484 -1.09589 0
M  V30 1141 C 115.038 -3.33757 1.34665 0
M  V30 1142 C 114.646 -3.45374 2.85343 0
M  V30 1143 C 116.39 -4.0895 1.13843 0
M  V30 1144 C 114.297 -4.87266 3.35151 0
M  V30 1145 H 113.227 -0.696661 0.288407 0
M  V30 1146 H 115.878 -1.30903 1.28595 0
M  V30 1147 H 114.26 -3.88456 0.769274 0
M  V30 1148 H 115.434 -3.00816 3.49065 0
M  V30 1149 H 113.749 -2.83619 3.04876 0
M  V30 1150 H 116.346 -5.13654 1.4854 0
M  V30 1151 H 116.689 -4.16229 0.0770282 0
M  V30 1152 H 117.222 -3.605 1.68179 0
M  V30 1153 H 113.961 -4.85168 4.40786 0
M  V30 1154 H 113.481 -5.32433 2.76179 0
M  V30 1155 H 115.16 -5.56097 3.30704 0
M  V30 1156 N 115.292 -0.849877 -1.32721 0
M  V30 1157 C 116.24 -0.279745 -2.30912 0
M  V30 1158 C 117.234 0.594278 -1.58634 0
M  V30 1159 O 118.44 0.482613 -1.73409 0
M  V30 1160 H 114.815 -0.0717521 -0.748569 0
M  V30 1161 H 116.786 -1.12222 -2.76494 0
M  V30 1162 C 115.535 0.521108 -3.43773 0
M  V30 1163 H 114.858 -0.142141 -3.99547 0
M  V30 1164 H 116.298 0.885693 -4.14646 0
M  V30 1165 C 114.757 1.70442 -2.90605 0
M  V30 1166 O 115.287 2.8034 -2.87702 0
M  V30 1167 N 113.493 1.52991 -2.47067 0
M  V30 1168 H 113.04 0.635914 -2.49628 0
M  V30 1169 H 112.998 2.32311 -2.11847 0
M  V30 1170 N 116.77 1.45427 -0.607355 0
M  V30 1171 C 118.018 2.01841 -0.102253 0
M  V30 1172 C 118.339 1.47832 1.27164 0
M  V30 1173 O 117.609 0.672497 1.83995 0
M  V30 1174 H 116.189 0.746188 -0.0348101 0
M  V30 1175 H 118.851 1.78229 -0.7887 0
M  V30 1176 H 117.947 3.12057 -0.0518585 0
M  V30 1177 N 118.248 0.346503 1.53744 0
M  V30 1178 C 119.211 -0.496439 2.23759 0
M  V30 1179 C 120.211 -1.0252 1.2388 0
M  V30 1180 O 121.401 -0.913974 1.48297 0
M  V30 1181 C 118.533 -1.69187 2.95954 0
M  V30 1182 H 119.726 0.115952 2.99676 0
M  V30 1183 H 117.279 0.0978939 1.55993 0
M  V30 1184 H 118.014 -2.34288 2.24231 0
M  V30 1185 H 117.799 -1.31989 3.69217 0
M  V30 1186 H 119.289 -2.28969 3.49232 0
M  V30 1187 N 119.726 -1.57421 0.075193 0
M  V30 1188 C 120.656 -2.15942 -0.888324 0
M  V30 1189 C 121.637 -1.08737 -1.30806 0
M  V30 1190 O 122.822 -1.36787 -1.37851 0
M  V30 1191 C 119.952 -2.72379 -2.1547 0
M  V30 1192 C 118.906 -3.8478 -1.87425 0
M  V30 1193 C 118.232 -4.27834 -3.20721 0
M  V30 1194 C 119.532 -5.08869 -1.17684 0
M  V30 1195 H 121.226 -2.96705 -0.400799 0
M  V30 1196 H 118.772 -1.42723 -0.191342 0
M  V30 1197 H 120.725 -3.11965 -2.83295 0
M  V30 1198 H 119.449 -1.88841 -2.6647 0
M  V30 1199 H 118.108 -3.45703 -1.22004 0
M  V30 1200 H 117.756 -3.41214 -3.6957 0
M  V30 1201 H 117.456 -5.03605 -3.02746 0
M  V30 1202 H 118.98 -4.70039 -3.89738 0
M  V30 1203 H 120.394 -5.4575 -1.75584 0
M  V30 1204 H 118.791 -5.8994 -1.09956 0
M  V30 1205 H 119.861 -4.84648 -0.156453 0
M  V30 1206 N 121.204 0.198386 -1.56346 0
M  V30 1207 C 122.452 0.91747 -1.80075 0
M  V30 1208 C 122.773 1.83929 -0.647692 0
M  V30 1209 O 122.043 1.93029 0.334166 0
M  V30 1210 H 120.623 0.341774 -0.664228 0
M  V30 1211 H 123.285 0.204684 -1.93822 0
M  V30 1212 H 122.381 1.51055 -2.7311 0
M  V30 1213 N 122.682 1.50554 0.465978 0
M  V30 1214 C 123.907 1.65838 1.24549 0
M  V30 1215 C 124.332 0.343486 1.84937 0
M  V30 1216 O 123.69 -0.69324 1.67523 0
M  V30 1217 C 123.738 2.75533 2.32624 0
M  V30 1218 O 122.842 2.37142 3.37398 0
M  V30 1219 H 122.183 0.553893 0.366194 0
M  V30 1220 H 124.713 1.96959 0.553927 0
M  V30 1221 H 124.723 2.98763 2.77857 0
M  V30 1222 H 123.398 3.70962 1.88043 0
M  V30 1223 H 121.975 2.24377 2.97841 0
M  V30 1224 N 124.16 -0.719506 1.40217 0
M  V30 1225 C 125.571 -1.29848 1.34151 0
M  V30 1226 C 125.922 -1.96196 0.0131349 0
M  V30 1227 O 125.047 -1.973 -0.88892 0
M  V30 1228 C 125.642 -2.36118 2.42968 0
M  V30 1229 C 124.201 -2.8965 2.40374 0
M  V30 1230 C 123.348 -1.63393 2.24049 0
M  V30 1231 H 126.299 -0.51591 1.5008 0
M  V30 1232 H 126.32 -3.16871 2.10649 0
M  V30 1233 H 125.832 -1.878 3.39636 0
M  V30 1234 H 123.933 -3.42208 1.47392 0
M  V30 1235 H 124.046 -3.4171 3.35814 0
M  V30 1236 H 122.41 -1.88312 1.71495 0
M  V30 1237 H 123.193 -1.17104 3.2271 0
M  V30 1238 N 125.638 -1.25649 -0.95132 0
M  V30 1239 C 126.886 -1.10375 -1.69298 0
M  V30 1240 C 127.207 0.355339 -1.91735 0
M  V30 1241 O 126.477 1.25188 -1.50681 0
M  V30 1242 H 125.057 -0.405461 -0.627384 0
M  V30 1243 H 127.719 -1.57823 -1.14358 0
M  V30 1244 H 126.815 -1.61465 -2.67087 0
M  V30 1245 N 127.117 1.15442 -1.07289 0
M  V30 1246 C 128.357 1.8788 -0.805012 0
M  V30 1247 C 128.721 1.80413 0.656907 0
M  V30 1248 O 129.922 2.47874 1.0398 0
M  V30 1249 C 128.193 3.3298 -1.29843 0
M  V30 1250 S 129.752 4.23158 -1.16114 0
M  V30 1251 H 126.57 0.64839 -0.291739 0
M  V30 1252 H 129.172 1.39285 -1.37186 0
M  V30 1253 H 127.876 3.35958 -2.35712 0
M  V30 1254 H 127.407 3.86629 -0.726767 0
M  V30 1255 H 129.422 4.96103 -0.0982778 0
M  V30 1256 N 128.595 0.856903 1.32268 0
M  V30 1257 C 129.872 0.382583 1.91822 0
M  V30 1258 C 130.252 -1.13407 1.78051 0
M  V30 1259 O 129.6 -1.95673 1.18001 0
M  V30 1260 C 129.81 0.849446 3.38505 0
M  V30 1261 C 131.158 0.867936 4.15634 0
M  V30 1262 O 132.182 0.794232 3.47232 0
M  V30 1263 O 131.041 0.972286 5.37781 0
M  V30 1264 H 128.135 0.112014 0.819379 0
M  V30 1265 H 130.681 0.943952 1.41024 0
M  V30 1266 H 129.453 1.89267 3.42482 0
M  V30 1267 H 129.076 0.265652 3.96712 0
M  V30 1268 N 130.073 -1.45103 0.615059 0
M  V30 1269 C 131.489 -1.57137 0.279322 0
M  V30 1270 C 131.689 -1.60523 -1.21797 0
M  V30 1271 O 130.745 -1.53956 -2.00134 0
M  V30 1272 C 132.058 -2.85062 0.957083 0
M  V30 1273 C 133.606 -2.98749 0.933706 0
M  V30 1274 C 134.081 -4.29455 1.59162 0
M  V30 1275 N 135.572 -4.36231 1.55746 0
M  V30 1276 C 136.307 -5.36051 2.0356 0
M  V30 1277 N 135.803 -6.42367 2.59494 0
M  V30 1278 N 137.596 -5.27456 1.94284 0
M  V30 1279 H 129.747 -1.41148 1.58717 0
M  V30 1280 H 132.01 -0.675331 0.665306 0
M  V30 1281 H 131.716 -2.88488 2.01166 0
M  V30 1282 H 131.59 -3.7407 0.48494 0
M  V30 1283 H 133.977 -2.94886 -0.112347 0
M  V30 1284 H 134.058 -2.11132 1.44419 0
M  V30 1285 H 133.702 -4.34077 2.63704 0
M  V30 1286 H 133.632 -5.15901 1.0561 0
M  V30 1287 H 136.123 -3.60011 1.14893 0
M  V30 1288 H 136.436 -7.14793 2.93752 0
M  V30 1289 H 134.781 -6.43097 2.63537 0
M  V30 1290 H 137.972 -4.43308 1.5032 0
M  V30 1291 H 138.145 -6.05099 2.3186 0
M  V30 1292 N 131.551 -0.354651 -1.53558 0
M  V30 1293 C 132.481 0.489091 -2.2832 0
M  V30 1294 C 133.462 1.09324 -1.30316 0
M  V30 1295 O 134.647 1.11255 -1.59173 0
M  V30 1296 C 131.777 1.63456 -3.0643 0
M  V30 1297 C 130.731 1.1582 -4.12031 0
M  V30 1298 C 130.057 2.39305 -4.7816 0
M  V30 1299 C 131.357 0.250731 -5.21698 0
M  V30 1300 H 133.051 -0.134614 -2.99097 0
M  V30 1301 H 130.597 -0.0661826 -1.43848 0
M  V30 1302 H 132.55 2.23136 -3.57475 0
M  V30 1303 H 131.274 2.28533 -2.33325 0
M  V30 1304 H 129.933 0.584146 -3.61916 0
M  V30 1305 H 129.581 3.02814 -4.01637 0
M  V30 1306 H 129.281 2.08109 -5.49513 0
M  V30 1307 H 130.805 2.99691 -5.31994 0
M  V30 1308 H 132.219 0.754695 -5.68311 0
M  V30 1309 H 130.616 0.0301468 -6.00092 0
M  V30 1310 H 131.686 -0.710125 -4.79672 0
M  V30 1311 N 133.029 1.57378 -0.0835403 0
M  V30 1312 C 133.961 2.10389 0.909338 0
M  V30 1313 C 134.974 1.03858 1.25369 0
M  V30 1314 O 136.163 1.31338 1.20882 0
M  V30 1315 C 133.263 2.55908 2.2218 0
M  V30 1316 C 132.436 3.86145 2.05453 0
M  V30 1317 C 131.495 4.17633 3.20108 0
M  V30 1318 O 130.521 4.87043 2.94581 0
M  V30 1319 N 131.723 3.72113 4.45547 0
M  V30 1320 H 134.488 2.962 0.456657 0
M  V30 1321 H 132.049 1.61579 0.101877 0
M  V30 1322 H 134.041 2.74027 2.97811 0
M  V30 1323 H 132.611 1.75171 2.58909 0
M  V30 1324 H 131.831 3.7729 1.1422 0
M  V30 1325 H 133.119 4.7137 1.91541 0
M  V30 1326 H 132.517 3.16062 4.69171 0
M  V30 1327 H 131.074 3.95409 5.18165 0
M  V30 1328 N 134.507 -0.190092 1.56449 0
M  V30 1329 C 135.784 -0.935886 1.71757 0
M  V30 1330 C 136.164 -2.01173 0.639726 0
M  V30 1331 O 135.512 -2.25827 -0.348502 0
M  V30 1332 C 135.722 -1.51775 3.1427 0
M  V30 1333 C 137.07 -1.99794 3.74656 0
M  V30 1334 O 138.094 -1.61607 3.1743 0
M  V30 1335 O 136.953 -2.70079 4.751 0
M  V30 1336 H 134.047 -0.439229 0.700719 0
M  V30 1337 H 136.593 -0.179395 1.68749 0
M  V30 1338 H 135.365 -0.742505 3.84191 0
M  V30 1339 H 134.988 -2.33894 3.21527 0
M  V30 1340 N 135.985 -1.50799 -0.457987 0
M  V30 1341 C 137.213 -1.66218 -1.23203 0
M  V30 1342 C 137.628 -0.350894 -1.85511 0
M  V30 1343 O 136.985 0.668546 -1.69814 0
M  V30 1344 C 137.036 -2.76291 -2.33121 0
M  V30 1345 O 136.757 -4.02338 -1.73366 0
M  V30 1346 C 138.258 -3.028 -3.2377 0
M  V30 1347 H 135.478 -0.558361 -0.372121 0
M  V30 1348 H 138.022 -1.97099 -0.545179 0
M  V30 1349 H 136.177 -2.48068 -2.97558 0
M  V30 1350 H 136.591 -4.63312 -2.4585 0
M  V30 1351 H 138.065 -3.8345 -3.97077 0
M  V30 1352 H 138.542 -2.14385 -3.83322 0
M  V30 1353 H 139.148 -3.32604 -2.65056 0
M  V30 1354 N 137.463 0.71206 -1.40597 0
M  V30 1355 C 138.691 1.50111 -1.42388 0
M  V30 1356 C 139.106 1.88784 -0.0245395 0
M  V30 1357 O 138.463 1.55681 0.952351 0
M  V30 1358 C 138.514 2.7742 -2.31776 0
M  V30 1359 O 138.235 2.40382 -3.66262 0
M  V30 1360 C 139.736 3.7129 -2.42196 0
M  V30 1361 H 136.956 0.46314 -0.485533 0
M  V30 1362 H 139.5 0.878068 -1.8469 0
M  V30 1363 H 137.655 3.36001 -1.92827 0
M  V30 1364 H 138.069 3.22324 -4.13772 0
M  V30 1365 H 139.543 4.57448 -3.08943 0
M  V30 1366 H 140.02 4.14641 -1.44809 0
M  V30 1367 H 140.626 3.18619 -2.81712 0
M  V30 1368 N 138.941 1.26152 0.944643 0
M  V30 1369 C 140.187 1.12665 1.69346 0
M  V30 1370 C 140.542 -0.3273 1.89596 0
M  V30 1371 O 139.835 -1.23717 1.46303 0
M  V30 1372 C 140.029 1.82541 3.07268 0
M  V30 1373 C 139.858 3.34582 3.00475 0
M  V30 1374 C 138.628 4.03863 3.03681 0
M  V30 1375 C 140.826 4.30828 2.80877 0
M  V30 1376 N 138.808 5.42603 2.87151 0
M  V30 1377 C 140.179 5.5672 2.7288 0
M  V30 1378 C 142.234 4.21122 2.65633 0
M  V30 1379 C 140.937 6.74013 2.51196 0
M  V30 1380 C 142.963 5.38118 2.45323 0
M  V30 1381 C 142.325 6.62955 2.38055 0
M  V30 1382 H 138.424 0.467041 0.627214 0
M  V30 1383 H 141.008 1.59391 1.11815 0
M  V30 1384 H 139.179 1.38296 3.62945 0
M  V30 1385 H 140.911 1.61708 3.70989 0
M  V30 1386 H 137.666 3.55198 3.1326 0
M  V30 1387 H 138.09 6.15443 2.82063 0
M  V30 1388 H 142.732 3.25344 2.70021 0
M  V30 1389 H 140.45 7.6989 2.4555 0
M  V30 1390 H 144.036 5.32475 2.34439 0
M  V30 1391 H 142.916 7.51959 2.22546 0
M  V30 1392 N 140.419 -1.14872 1.07899 0
M  V30 1393 C 141.696 -1.81928 0.71845 0
M  V30 1394 C 142.076 -1.95417 -0.798455 0
M  V30 1395 O 141.424 -1.50997 -1.715 0
M  V30 1396 C 141.634 -3.17937 1.43935 0
M  V30 1397 C 142.982 -3.93501 1.59506 0
M  V30 1398 O 144.006 -3.27509 1.40058 0
M  V30 1399 O 142.865 -5.1183 1.91551 0
M  V30 1400 H 139.959 -0.78628 0.256305 0
M  V30 1401 H 142.505 -1.21934 1.18026 0
M  V30 1402 H 141.277 -3.0325 2.47295 0
M  V30 1403 H 140.9 -3.85619 0.968687 0
M  V30 1404 N 141.898 -0.863906 -1.31812 0
M  V30 1405 C 143.144 -0.472535 -1.97218 0
M  V30 1406 C 143.477 0.971394 -1.68159 0
M  V30 1407 O 142.752 1.68309 -0.974798 0
M  V30 1408 C 143.035 -0.723054 -3.52766 0
M  V30 1409 C 142.888 -2.21608 -3.91421 0
M  V30 1410 C 144.207 -0.185522 -4.39709 0
M  V30 1411 H 141.326 -0.173158 -0.71637 0
M  V30 1412 H 143.968 -1.08403 -1.56041 0
M  V30 1413 H 142.118 -0.202577 -3.87971 0
M  V30 1414 H 143.79 -2.80334 -3.66347 0
M  V30 1415 H 142.033 -2.691 -3.40246 0
M  V30 1416 H 142.704 -2.34203 -4.99853 0
M  V30 1417 H 145.18 -0.630726 -4.11292 0
M  V30 1418 H 144.056 -0.390306 -5.47511 0
M  V30 1419 H 144.317 0.912229 -4.32586 0
M  V30 1420 N 143.376 1.44774 -0.622745 0
M  V30 1421 C 144.623 2.02121 -0.1239 0
M  V30 1422 C 144.951 1.48915 1.25118 0
M  V30 1423 O 144.206 0.660045 1.84233 0
M  V30 1424 C 144.505 3.57364 -0.0508323 0
M  V30 1425 C 144.171 4.29787 -1.36358 0
M  V30 1426 C 142.833 4.4929 -1.72314 0
M  V30 1427 C 145.185 4.71062 -2.23048 0
M  V30 1428 C 142.513 5.07325 -2.94682 0
M  V30 1429 C 144.865 5.30452 -3.44679 0
M  V30 1430 C 143.529 5.48175 -3.80868 0
M  V30 1431 H 142.799 0.739612 -0.0453381 0
M  V30 1432 H 145.446 1.73648 -0.807389 0
M  V30 1433 H 143.751 3.85202 0.715991 0
M  V30 1434 H 145.448 3.99456 0.351533 0
M  V30 1435 H 142.038 4.14932 -1.07375 0
M  V30 1436 H 146.222 4.55715 -1.96565 0
M  V30 1437 H 141.478 5.19235 -3.22809 0
M  V30 1438 H 145.652 5.61385 -4.12092 0
M  V30 1439 H 143.279 5.92912 -4.75773 0
M  V30 1440 N 144.854 0.36279 1.53368 0
M  V30 1441 C 146.103 -0.22888 2.00397 0
M  V30 1442 C 146.416 -1.50096 1.25421 0
M  V30 1443 O 147.622 -2.17106 1.63025 0
M  V30 1444 C 146.078 -0.458417 3.56969 0
M  V30 1445 C 145.686 0.798877 4.4082 0
M  V30 1446 C 147.43 -1.00789 4.12361 0
M  V30 1447 C 145.337 0.539078 5.88938 0
M  V30 1448 H 144.267 -0.089305 0.748693 0
M  V30 1449 H 146.918 0.481099 1.77081 0
M  V30 1450 H 145.3 -1.22959 3.76427 0
M  V30 1451 H 146.474 1.57262 4.33134 0
M  V30 1452 H 144.789 1.27137 3.96516 0
M  V30 1453 H 147.386 -1.21754 5.20653 0
M  V30 1454 H 147.729 -1.9692 3.66781 0
M  V30 1455 H 148.262 -0.296961 3.9669 0
M  V30 1456 H 145.001 1.47064 6.3879 0
M  V30 1457 H 144.521 -0.196222 5.99479 0
M  V30 1458 H 146.2 0.163542 6.46793 0
M  V30 1459 N 146.332 -1.57332 0.0918853 0
M  V30 1460 C 147.242 -2.17368 -0.882505 0
M  V30 1461 C 148.258 -1.14226 -1.31257 0
M  V30 1462 O 149.434 -1.46582 -1.38115 0
M  V30 1463 C 146.499 -2.73962 -2.12476 0
M  V30 1464 C 145.56 -3.92048 -1.7492 0
M  V30 1465 C 144.793 -4.45933 -2.93223 0
M  V30 1466 O 145.016 -3.98764 -4.07852 0
M  V30 1467 O 143.95 -5.36999 -2.71875 0
M  V30 1468 H 147.776 -3.01031 -0.40172 0
M  V30 1469 H 145.361 -1.48813 -0.132291 0
M  V30 1470 H 147.243 -3.10147 -2.85283 0
M  V30 1471 H 145.918 -1.93347 -2.59613 0
M  V30 1472 H 144.825 -3.6068 -0.993025 0
M  V30 1473 H 146.158 -4.74017 -1.32548 0
M  V30 1474 N 147.81 0.181792 -1.56548 0
M  V30 1475 C 149.226 0.53316 -1.50431 0
M  V30 1476 C 149.426 1.85184 -0.794297 0
M  V30 1477 O 148.482 2.50058 -0.350318 0
M  V30 1478 C 149.795 0.575597 -2.9514 0
M  V30 1479 C 151.343 0.663519 -3.05886 0
M  V30 1480 C 151.818 0.736946 -4.52032 0
M  V30 1481 N 153.309 0.800118 -4.56237 0
M  V30 1482 C 154.044 0.877327 -5.66649 0
M  V30 1483 N 153.54 0.916016 -6.86718 0
M  V30 1484 N 155.333 0.915542 -5.54594 0
M  V30 1485 H 147.484 -0.683025 -2.01118 0
M  V30 1486 H 149.747 -0.244988 -0.915797 0
M  V30 1487 H 149.453 -0.324482 -3.502 0
M  V30 1488 H 149.327 1.42572 -3.49218 0
M  V30 1489 H 151.714 1.55403 -2.50867 0
M  V30 1490 H 151.795 -0.21307 -2.54911 0
M  V30 1491 H 151.439 -0.149262 -5.07681 0
M  V30 1492 H 151.369 1.62953 -5.00753 0
M  V30 1493 H 153.86 0.778926 -3.69785 0
M  V30 1494 H 154.173 0.975813 -7.66614 0
M  V30 1495 H 152.518 0.884469 -6.89349 0
M  V30 1496 H 155.709 0.882245 -4.59711 0
M  V30 1497 H 155.882 0.972253 -6.40665 0
M  V30 1498 N 149.288 1.51039 0.449983 0
M  V30 1499 C 150.699 1.557 1.03026 0
M  V30 1500 C 151.05 0.372939 1.92623 0
M  V30 1501 O 150.175 -0.511771 2.10261 0
M  V30 1502 C 150.77 2.82171 1.87523 0
M  V30 1503 C 149.329 2.89444 2.40622 0
M  V30 1504 C 148.476 2.50228 1.19504 0
M  V30 1505 H 151.427 1.56999 0.231745 0
M  V30 1506 H 151.448 2.65219 2.72835 0
M  V30 1507 H 150.96 3.68331 1.22286 0
M  V30 1508 H 149.061 2.07685 3.0935 0
M  V30 1509 H 149.174 3.92816 2.74285 0
M  V30 1510 H 147.538 2.03139 1.53644 0
M  V30 1511 H 148.321 3.38719 0.558972 0
M  V30 1512 N 150.766 -0.704594 1.40972 0
M  V30 1513 C 151.994 -1.49354 1.43182 0
M  V30 1514 C 152.409 -1.88768 0.0345508 0
M  V30 1515 O 151.766 -1.56184 -0.944081 0
M  V30 1516 C 151.817 -2.76187 2.33244 0
M  V30 1517 O 151.538 -2.38436 3.67532 0
M  V30 1518 C 153.039 -3.7 2.44162 0
M  V30 1519 H 150.259 -0.460559 0.487982 0
M  V30 1520 H 152.803 -0.868261 1.85153 0
M  V30 1521 H 150.958 -3.34974 1.94606 0
M  V30 1522 H 151.372 -3.20126 4.15475 0
M  V30 1523 H 152.846 -4.55803 3.11364 0
M  V30 1524 H 153.323 -4.13867 1.47006 0
M  V30 1525 H 153.929 -3.17121 2.83398 0
M  V30 1526 N 152.244 -1.26651 -0.937939 0
M  V30 1527 C 153.207 -1.08546 -2.01867 0
M  V30 1528 C 154.207 -0.0327327 -1.60767 0
M  V30 1529 O 155.397 -0.276427 -1.71993 0
M  V30 1530 C 152.529 -0.651711 -3.34613 0
M  V30 1531 H 153.722 -2.04502 -2.1936 0
M  V30 1532 H 151.275 -1.09294 -1.11734 0
M  V30 1533 H 152.01 0.309696 -3.22818 0
M  V30 1534 H 151.795 -1.41189 -3.65798 0
M  V30 1535 H 153.285 -0.546973 -4.14002 0
M  V30 1536 N 153.722 1.14298 -1.08507 0
M  V30 1537 C 154.968 1.85633 -0.816581 0
M  V30 1538 C 155.301 1.82784 0.656021 0
M  V30 1539 O 154.576 1.25926 1.48233 0
M  V30 1540 C 154.859 3.34223 -1.34041 0
M  V30 1541 C 154.712 3.45639 -2.87843 0
M  V30 1542 C 156.031 4.29356 -0.9665 0
M  V30 1543 H 153.15 0.67402 -0.298104 0
M  V30 1544 H 155.792 1.34214 -1.34487 0
M  V30 1545 H 153.942 3.78144 -0.89104 0
M  V30 1546 H 155.614 3.10498 -3.41158 0
M  V30 1547 H 153.857 2.86817 -3.25451 0
M  V30 1548 H 154.528 4.50089 -3.19569 0
M  V30 1549 H 157.004 3.93457 -1.35391 0
M  V30 1550 H 155.88 5.3178 -1.3602 0
M  V30 1551 H 156.141 4.41919 0.126362 0
M  V30 1552 N 155.201 0.870884 1.31352 0
M  V30 1553 C 156.478 0.402907 1.91405 0
M  V30 1554 C 156.858 -1.11512 1.79244 0
M  V30 1555 O 156.206 -1.94411 1.2007 0
M  V30 1556 C 156.416 0.885301 3.37585 0
M  V30 1557 C 157.764 0.911971 4.14691 0
M  V30 1558 O 158.788 0.831016 3.46371 0
M  V30 1559 O 157.647 1.02927 5.3672 0
M  V30 1560 H 154.741 0.120698 0.818145 0
M  V30 1561 H 157.287 0.958857 1.40014 0
M  V30 1562 H 156.059 1.92889 3.40455 0
M  V30 1563 H 155.682 0.307714 3.96407 0
M  V30 1564 N 156.679 -1.44442 0.630414 0
M  V30 1565 C 157.907 -2.06414 0.141671 0
M  V30 1566 C 158.322 -1.47105 -1.18345 0
M  V30 1567 O 157.679 -0.593662 -1.72574 0
M  V30 1568 C 157.73 -3.61494 0.0199784 0
M  V30 1569 O 157.451 -4.18594 1.29269 0
M  V30 1570 C 158.952 -4.40499 -0.497544 0
M  V30 1571 H 156.172 -0.666292 0.0793452 0
M  V30 1572 H 158.716 -1.85323 0.864614 0
M  V30 1573 H 156.871 -3.8185 -0.653402 0
M  V30 1574 H 157.285 -5.12026 1.13707 0
M  V30 1575 H 158.759 -5.49433 -0.531708 0
M  V30 1576 H 159.236 -4.11895 -1.52445 0
M  V30 1577 H 159.842 -4.25061 0.142562 0
M  V30 1578 N 158.157 -0.370918 -1.53173 0
M  V30 1579 C 159.397 0.217106 -2.03244 0
M  V30 1580 C 159.761 1.45558 -1.25207 0
M  V30 1581 O 160.962 2.11957 -1.65311 0
M  V30 1582 C 159.233 0.496664 -3.53932 0
M  V30 1583 S 160.792 1.0576 -4.25864 0
M  V30 1584 H 157.61 0.0627827 -0.708223 0
M  V30 1585 H 160.212 -0.515019 -1.88594 0
M  V30 1586 H 158.916 -0.412096 -4.08326 0
M  V30 1587 H 158.447 1.25772 -3.72753 0
M  V30 1588 H 160.462 2.34145 -4.37482 0
M  V30 1589 N 159.635 1.57281 -0.100228 0
M  V30 1590 C 160.865 1.98591 0.569681 0
M  V30 1591 C 161.273 0.978315 1.61943 0
M  V30 1592 O 160.616 -0.0396108 1.83657 0
M  V30 1593 C 160.678 3.36282 1.271 0
M  V30 1594 C 160.342 4.55488 0.371409 0
M  V30 1595 C 161.339 5.18491 -0.382504 0
M  V30 1596 C 159.024 5.01474 0.287965 0
M  V30 1597 C 161.018 6.25852 -1.20779 0
M  V30 1598 C 158.705 6.08701 -0.540965 0
M  V30 1599 C 159.703 6.70755 -1.28749 0
M  V30 1600 O 159.391 7.75914 -2.10269 0
M  V30 1601 H 159.123 0.65752 0.156982 0
M  V30 1602 H 161.677 2.0463 -0.177734 0
M  V30 1603 H 159.907 3.26941 2.0651 0
M  V30 1604 H 161.596 3.62005 1.83595 0
M  V30 1605 H 162.362 4.83891 -0.3278 0
M  V30 1606 H 158.241 4.52932 0.858689 0
M  V30 1607 H 161.785 6.74218 -1.79096 0
M  V30 1608 H 157.682 6.42732 -0.597131 0
M  V30 1609 H 158.45 7.92925 -2.03007 0
M  V30 1610 N 161.113 -0.173488 1.56642 0
M  V30 1611 C 162.524 -0.736155 1.71574 0
M  V30 1612 C 162.875 -1.82888 0.710389 0
M  V30 1613 O 162 -2.16017 -0.1287 0
M  V30 1614 C 162.595 -1.34211 3.11083 0
M  V30 1615 C 161.154 -1.85162 3.27707 0
M  V30 1616 C 160.301 -0.729765 2.67525 0
M  V30 1617 H 163.252 0.0518786 1.58615 0
M  V30 1618 H 163.273 -2.21178 3.09613 0
M  V30 1619 H 162.785 -0.546579 3.84232 0
M  V30 1620 H 160.886 -2.67366 2.59512 0
M  V30 1621 H 160.999 -1.99855 4.35425 0
M  V30 1622 H 159.363 -1.14965 2.27278 0
M  V30 1623 H 160.146 0.0538806 3.43258 0
M  V30 1624 N 162.591 -1.51276 -0.441967 0
M  V30 1625 C 163.838 -1.63715 -1.19179 0
M  V30 1626 C 164.166 -0.351175 -1.91303 0
M  V30 1627 O 163.421 0.664524 -1.84072 0
M  V30 1628 C 163.72 -2.78746 -2.23686 0
M  V30 1629 C 163.386 -4.18189 -1.68607 0
M  V30 1630 C 162.048 -4.56125 -1.53308 0
M  V30 1631 C 164.4 -5.05222 -1.28062 0
M  V30 1632 C 161.728 -5.78804 -0.959317 0
M  V30 1633 C 164.08 -6.28476 -0.721162 0
M  V30 1634 C 162.744 -6.65188 -0.55504 0
M  V30 1635 H 162.014 -0.599076 -0.436106 0
M  V30 1636 H 164.661 -1.85296 -0.48351 0
M  V30 1637 H 162.966 -2.51369 -3.00535 0
M  V30 1638 H 164.663 -2.8557 -2.81515 0
M  V30 1639 H 161.253 -3.88277 -1.8149 0
M  V30 1640 H 165.437 -4.76524 -1.38704 0
M  V30 1641 H 160.693 -6.05899 -0.81833 0
M  V30 1642 H 164.867 -6.95259 -0.398458 0
M  V30 1643 H 162.494 -7.60123 -0.108311 0
M  V30 1644 N 164.069 0.697108 -1.41344 0
M  V30 1645 C 165.346 1.45154 -1.31109 0
M  V30 1646 C 165.726 2.11009 0.0620449 0
M  V30 1647 O 165.074 2.01571 1.07618 0
M  V30 1648 C 165.284 2.47223 -2.46337 0
M  V30 1649 C 166.632 3.1252 -2.87431 0
M  V30 1650 O 167.656 2.57547 -2.46065 0
M  V30 1651 O 166.515 4.12083 -3.58957 0
M  V30 1652 H 163.609 0.646365 -0.515889 0
M  V30 1653 H 166.155 0.727716 -1.53305 0
M  V30 1654 H 164.927 1.97204 -3.37974 0
M  V30 1655 H 164.55 3.27116 -2.2601 0
M  V30 1656 N 165.547 1.27147 0.931209 0
M  V30 1657 C 166.793 1.13446 1.68101 0
M  V30 1658 C 167.126 -0.319628 1.91552 0
M  V30 1659 O 166.401 -1.23407 1.50336 0
M  V30 1660 C 166.684 1.91482 3.0497 0
M  V30 1661 C 166.537 3.44855 2.88782 0
M  V30 1662 C 167.856 1.71651 4.05246 0
M  V30 1663 H 164.975 0.413498 0.610072 0
M  V30 1664 H 167.617 1.56261 1.08086 0
M  V30 1665 H 165.767 1.55095 3.56199 0
M  V30 1666 H 167.439 3.9105 2.44698 0
M  V30 1667 H 165.682 3.71373 2.24198 0
M  V30 1668 H 166.353 3.94694 3.85902 0
M  V30 1669 H 168.829 2.0337 3.63015 0
M  V30 1670 H 167.705 2.28651 4.99009 0
M  V30 1671 H 167.966 0.663555 4.37092 0
M  V30 1672 N 167.025 -1.13721 1.09112 0
M  V30 1673 C 168.436 -1.6648 0.845068 0
M  V30 1674 C 168.787 -1.85911 -0.62701 0
M  V30 1675 O 167.912 -1.57556 -1.48341 0
M  V30 1676 C 168.507 -3.02413 1.52748 0
M  V30 1677 C 167.066 -3.52176 1.32849 0
M  V30 1678 C 166.213 -2.27492 1.58564 0
M  V30 1679 H 169.164 -0.976872 1.25072 0
M  V30 1680 H 169.185 -3.68223 0.958752 0
M  V30 1681 H 168.697 -2.88238 2.59885 0
M  V30 1682 H 166.798 -3.7156 0.278137 0
M  V30 1683 H 166.911 -4.32499 2.0611 0
M  V30 1684 H 165.275 -2.33923 1.00758 0
M  V30 1685 H 166.058 -2.15886 2.66924 0
M  V30 1686 N 168.503 -0.877838 -1.30888 0
M  V30 1687 C 169.78 -0.413052 -1.91189 0
M  V30 1688 C 170.16 1.1056 -1.79832 0
M  V30 1689 O 169.508 1.93771 -1.21099 0
M  V30 1690 C 169.718 -0.903191 -3.3711 0
M  V30 1691 C 171.066 -0.93395 -4.14201 0
M  V30 1692 O 172.09 -0.849373 -3.45925 0
M  V30 1693 O 170.949 -1.05772 -5.36167 0
M  V30 1694 H 168.043 -0.125035 -0.817493 0
M  V30 1695 H 170.589 -0.966269 -1.39504 0
M  V30 1696 H 169.361 -1.94692 -3.39427 0
M  V30 1697 H 168.984 -0.328732 -3.96239 0
M  V30 1698 N 169.982 1.44106 -0.638065 0
M  V30 1699 C 171.212 2.06037 -0.152394 0
M  V30 1700 C 171.62 1.47808 1.18108 0
M  V30 1701 O 170.963 0.598092 1.73691 0
M  V30 1702 C 171.025 3.59488 0.0293714 0
M  V30 1703 C 170.689 4.4022 -1.22702 0
M  V30 1704 C 171.686 4.73256 -2.15232 0
M  V30 1705 C 169.371 4.8048 -1.46437 0
M  V30 1706 C 171.365 5.45444 -3.29802 0
M  V30 1707 C 169.052 5.52417 -2.61303 0
M  V30 1708 C 170.05 5.84819 -3.52811 0
M  V30 1709 O 169.738 6.55289 -4.65673 0
M  V30 1710 H 169.47 0.671233 -0.0801401 0
M  V30 1711 H 172.024 1.85851 -0.874563 0
M  V30 1712 H 170.254 3.78191 0.806758 0
M  V30 1713 H 171.943 4.03164 0.470475 0
M  V30 1714 H 172.709 4.42684 -1.98131 0
M  V30 1715 H 168.588 4.54676 -0.760977 0
M  V30 1716 H 172.132 5.70653 -4.01249 0
M  V30 1717 H 168.029 5.82404 -2.78344 0
M  V30 1718 H 168.797 6.73762 -4.64744 0
M  V30 1719 N 171.46 0.379036 1.52974 0
M  V30 1720 C 172.392 -0.495963 2.2377 0
M  V30 1721 C 173.405 -1.03517 1.25651 0
M  V30 1722 O 174.594 -0.939249 1.51791 0
M  V30 1723 C 171.694 -1.69894 2.93239 0
M  V30 1724 C 170.867 -1.2889 4.17979 0
M  V30 1725 C 169.926 -2.35543 4.70538 0
M  V30 1726 O 168.952 -1.97375 5.33883 0
M  V30 1727 N 170.154 -3.67318 4.49508 0
M  V30 1728 H 172.919 0.110523 2.99496 0
M  V30 1729 H 170.48 0.204878 1.60598 0
M  V30 1730 H 172.472 -2.40747 3.25304 0
M  V30 1731 H 171.042 -2.212 2.20883 0
M  V30 1732 H 170.262 -0.409676 3.92065 0
M  V30 1733 H 171.55 -0.991443 4.99047 0
M  V30 1734 H 170.948 -4.01095 3.98923 0
M  V30 1735 H 169.505 -4.34235 4.8609 0
M  V30 1736 N 172.938 -1.57226 0.108567 0
M  V30 1737 C 174.163 -1.99604 -0.563303 0
M  V30 1738 C 174.588 -0.987563 -1.6009 0
M  V30 1739 O 173.946 0.0421687 -1.81251 0
M  V30 1740 C 173.994 -3.40902 -1.17552 0
M  V30 1741 O 173.098 -3.42896 -2.2912 0
M  V30 1742 H 172.439 -0.648704 -0.1417 0
M  V30 1743 H 174.969 -2.03679 0.193961 0
M  V30 1744 H 174.979 -3.78886 -1.51357 0
M  V30 1745 H 173.654 -4.1382 -0.415445 0
M  V30 1746 H 172.231 -3.1672 -1.96832 0
M  V30 1747 N 174.416 0.165178 -1.56732 0
M  V30 1748 C 175.346 1.20651 -1.99914 0
M  V30 1749 C 176.327 1.45827 -0.875705 0
M  V30 1750 O 177.512 1.57057 -1.14223 0
M  V30 1751 C 174.642 2.54401 -2.36427 0
M  V30 1752 C 173.596 2.43782 -3.51787 0
M  V30 1753 C 172.922 3.82078 -3.7406 0
M  V30 1754 C 174.222 1.93732 -4.85041 0
M  V30 1755 H 175.916 0.847534 -2.87154 0
M  V30 1756 H 173.462 0.40625 -1.38151 0
M  V30 1757 H 175.415 3.27458 -2.65234 0
M  V30 1758 H 174.139 2.92098 -1.46103 0
M  V30 1759 H 172.798 1.73178 -3.23117 0
M  V30 1760 H 172.446 4.17179 -2.81017 0
M  V30 1761 H 172.146 3.7584 -4.51684 0
M  V30 1762 H 173.67 4.56712 -4.05274 0
M  V30 1763 H 175.084 2.56569 -5.12684 0
M  V30 1764 H 173.481 1.98428 -5.66345 0
M  V30 1765 H 174.551 0.891962 -4.76626 0
M  V30 1766 N 175.894 1.51508 0.433938 0
M  V30 1767 C 177.31 1.39759 0.770682 0
M  V30 1768 C 177.51 0.482594 1.95636 0
M  V30 1769 O 176.566 -0.0609691 2.52426 0
M  V30 1770 C 177.879 2.81851 1.04787 0
M  V30 1771 C 179.427 2.91025 1.1521 0
M  V30 1772 C 179.902 4.34032 1.46219 0
M  V30 1773 N 181.393 4.37154 1.53136 0
M  V30 1774 C 182.128 5.4484 1.78709 0
M  V30 1775 N 181.624 6.62682 2.02051 0
M  V30 1776 N 183.417 5.32324 1.80519 0
M  V30 1777 H 175.568 2.09548 -0.346892 0
M  V30 1778 H 177.831 0.943446 -0.0928074 0
M  V30 1779 H 177.537 3.50815 0.249304 0
M  V30 1780 H 177.411 3.21386 1.97461 0
M  V30 1781 H 179.798 2.22257 1.94128 0
M  V30 1782 H 179.879 2.54983 0.204281 0
M  V30 1783 H 179.523 5.03351 0.678274 0
M  V30 1784 H 179.453 4.6759 2.42212 0
M  V30 1785 H 181.944 3.52197 1.36987 0
M  V30 1786 H 182.257 7.40543 2.20943 0
M  V30 1787 H 180.602 6.65791 1.99366 0
M  V30 1788 H 183.793 4.39246 1.61805 0
M  V30 1789 H 183.966 6.16328 2.00111 0
M  V30 1790 N 177.372 -0.689602 1.41712 0
M  V30 1791 C 178.597 -1.48329 1.44959 0
M  V30 1792 C 179.022 -1.8801 0.0581283 0
M  V30 1793 O 178.38 -1.55026 -0.940035 0
M  V30 1794 C 178.428 -2.71835 2.36935 0
M  V30 1795 O 177.532 -3.69549 1.8305 0
M  V30 1796 H 176.873 -0.446199 0.491734 0
M  V30 1797 H 179.403 -0.847127 1.86239 0
M  V30 1798 H 179.413 -3.20076 2.53013 0
M  V30 1799 H 178.088 -2.42291 3.38035 0
M  V30 1800 H 176.665 -3.2851 1.76452 0
M  V30 1801 N 178.85 -1.27639 -0.924453 0
M  V30 1802 C 180.099 -1.13549 -1.66702 0
M  V30 1803 C 180.412 0.317487 -1.93006 0
M  V30 1804 O 181.618 0.579333 -2.65247 0
M  V30 1805 C 180.074 -1.98426 -3.00259 0
M  V30 1806 C 179.682 -3.484 -2.81641 0
M  V30 1807 C 181.426 -1.92993 -3.78092 0
M  V30 1808 C 179.333 -4.25464 -4.10773 0
M  V30 1809 H 178.263 -0.421351 -0.625283 0
M  V30 1810 H 180.914 -1.52085 -1.02676 0
M  V30 1811 H 179.296 -1.52736 -3.6536 0
M  V30 1812 H 180.47 -4.01973 -2.25287 0
M  V30 1813 H 178.785 -3.55245 -2.17232 0
M  V30 1814 H 181.382 -2.47844 -4.7379 0
M  V30 1815 H 181.725 -0.904281 -4.0636 0
M  V30 1816 H 182.258 -2.36595 -3.19793 0
M  V30 1817 H 178.997 -5.28566 -3.87683 0
M  V30 1818 H 178.517 -3.76667 -4.66779 0
M  V30 1819 H 180.196 -4.34812 -4.79111 0
M  V30 1820 N 180.328 1.1314 -1.09713 0
M  V30 1821 C 181.258 2.20748 -0.761102 0
M  V30 1822 C 182.239 1.68061 0.262566 0
M  V30 1823 O 183.424 1.93765 0.129977 0
M  V30 1824 C 180.554 3.46812 -0.184054 0
M  V30 1825 C 179.508 4.12606 -1.13757 0
M  V30 1826 C 178.834 5.33031 -0.422083 0
M  V30 1827 C 180.134 4.59603 -2.48118 0
M  V30 1828 H 181.828 2.49113 -1.66082 0
M  V30 1829 H 179.374 1.19734 -0.799987 0
M  V30 1830 H 181.327 4.21353 0.0631215 0
M  V30 1831 H 180.051 3.17851 0.750868 0
M  V30 1832 H 178.71 3.40036 -1.37007 0
M  V30 1833 H 178.358 5.00335 0.517072 0
M  V30 1834 H 178.058 5.77999 -1.05788 0
M  V30 1835 H 179.582 6.10325 -0.183277 0
M  V30 1836 H 180.996 5.25552 -2.29059 0
M  V30 1837 H 179.393 5.15321 -3.07514 0
M  V30 1838 H 180.463 3.73971 -3.08665 0
M  V30 1839 N 181.806 0.884767 1.30421 0
M  V30 1840 C 182.769 0.356277 2.26414 0
M  V30 1841 C 183.769 -0.501124 1.52792 0
M  V30 1842 O 184.959 -0.30831 1.7145 0
M  V30 1843 C 182.091 -0.492316 3.37326 0
M  V30 1844 H 183.284 1.20389 2.74675 0
M  V30 1845 H 180.837 0.661607 1.41607 0
M  V30 1846 H 181.572 -1.36052 2.94381 0
M  V30 1847 H 181.357 0.121832 3.91911 0
M  V30 1848 H 182.847 -0.853871 4.08777 0
M  V30 1849 N 183.284 -1.43765 0.645699 0
M  V30 1850 C 184.509 -2.06767 0.161883 0
M  V30 1851 C 184.934 -1.48034 -1.16049 0
M  V30 1852 O 184.292 -0.587369 -1.71522 0
M  V30 1853 C 184.34 -3.60519 0.0762003 0
M  V30 1854 O 183.444 -4.00982 -0.963721 0
M  V30 1855 H 182.785 -0.657675 0.091429 0
M  V30 1856 H 185.315 -1.84397 0.886499 0
M  V30 1857 H 185.325 -4.07853 -0.109604 0
M  V30 1858 H 184 -4.02646 1.04157 0
M  V30 1859 H 182.577 -3.65253 -0.751312 0
M  V30 1860 N 184.763 -0.387143 -1.52771 0
M  V30 1861 C 185.988 0.198407 -2.06449 0
M  V30 1862 C 186.413 1.39918 -1.25716 0
M  V30 1863 O 185.771 1.79099 -0.281657 0
M  V30 1864 C 185.819 0.548893 -3.56398 0
M  V30 1865 O 184.923 1.64315 -3.78252 0
M  V30 1866 H 184.264 0.0237731 -0.663574 0
M  V30 1867 H 186.794 -0.553989 -1.96957 0
M  V30 1868 H 186.804 0.813812 -3.99801 0
M  V30 1869 H 185.479 -0.329005 -4.14597 0
M  V30 1870 H 184.056 1.37211 -3.46738 0
M  V30 1871 N 186.241 1.57166 -0.116904 0
M  V30 1872 C 187.489 1.94737 0.540533 0
M  V30 1873 C 187.81 1.00096 1.67349 0
M  V30 1874 O 187.08 0.0568854 1.95817 0
M  V30 1875 H 185.66 0.718981 0.202669 0
M  V30 1876 H 188.322 1.94017 -0.185353 0
M  V30 1877 H 187.418 2.97719 0.936483 0
M  V30 1878 N 187.719 -0.156864 1.56817 0
M  V30 1879 C 188.944 -0.890331 1.87318 0
M  V30 1880 C 189.369 -1.74394 0.704855 0
M  V30 1881 O 188.727 -1.77972 -0.345786 0
M  V30 1882 C 188.775 -1.73102 3.16336 0
M  V30 1883 O 187.879 -2.83422 2.99576 0
M  V30 1884 H 187.22 -0.24857 0.615718 0
M  V30 1885 H 189.75 -0.150649 2.04045 0
M  V30 1886 H 189.76 -2.12803 3.48107 0
M  V30 1887 H 188.435 -1.10412 4.00976 0
M  V30 1888 H 187.012 -2.47199 2.7919 0
M  V30 1889 N 189.197 -1.51736 -0.425897 0
M  V30 1890 C 190.127 -1.76827 -1.52494 0
M  V30 1891 C 191.108 -0.618524 -1.58456 0
M  V30 1892 O 192.293 -0.862416 -1.74 0
M  V30 1893 C 189.423 -1.90374 -2.90474 0
M  V30 1894 C 188.377 -3.0588 -2.99369 0
M  V30 1895 C 187.703 -3.04625 -4.3944 0
M  V30 1896 C 189.003 -4.45644 -2.72394 0
M  V30 1897 H 190.697 -2.68855 -1.31748 0
M  V30 1898 H 188.243 -1.29372 -0.632362 0
M  V30 1899 H 190.196 -2.0651 -3.6733 0
M  V30 1900 H 188.92 -0.95004 -3.12477 0
M  V30 1901 H 187.579 -2.89467 -2.24954 0
M  V30 1902 H 187.227 -2.0701 -4.58428 0
M  V30 1903 H 186.927 -3.82195 -4.46319 0
M  V30 1904 H 188.451 -3.22869 -5.18255 0
M  V30 1905 H 189.865 -4.62348 -3.38979 0
M  V30 1906 H 188.262 -5.25006 -2.9067 0
M  V30 1907 H 189.332 -4.54893 -1.67929 0
M  V30 1908 N 190.675 0.682077 -1.42076 0
M  V30 1909 C 191.585 1.82535 -1.47371 0
M  V30 1910 C 192.601 1.7017 -0.363079 0
M  V30 1911 O 193.777 1.91848 -0.612875 0
M  V30 1912 C 190.842 3.18624 -1.36674 0
M  V30 1913 C 189.903 3.42999 -2.58167 0
M  V30 1914 C 189.136 4.72595 -2.4797 0
M  V30 1915 O 189.359 5.50006 -1.5116 0
M  V30 1916 O 188.293 4.98054 -3.37974 0
M  V30 1917 H 192.119 1.81023 -2.43853 0
M  V30 1918 H 189.704 0.836887 -1.2376 0
M  V30 1919 H 191.586 3.99847 -1.33043 0
M  V30 1920 H 190.261 3.20789 -0.433138 0
M  V30 1921 H 189.168 2.61653 -2.67373 0
M  V30 1922 H 190.501 3.45659 -3.50401 0
M  V30 1923 N 192.153 1.28127 0.917671 0
M  V30 1924 C 193.4 1.15052 1.66641 0
M  V30 1925 C 193.728 -0.301677 1.92146 0
M  V30 1926 O 192.983 -1.23622 1.51711 0
M  V30 1927 C 193.282 1.89018 3.03327 0
M  V30 1928 C 192.948 3.38832 2.97496 0
M  V30 1929 C 191.61 3.79693 2.95613 0
M  V30 1930 C 193.962 4.34378 2.88036 0
M  V30 1931 C 191.29 5.14447 2.82066 0
M  V30 1932 C 193.642 5.69201 2.7603 0
M  V30 1933 C 192.306 6.09343 2.72502 0
M  V30 1934 H 191.576 0.421006 0.609783 0
M  V30 1935 H 194.223 1.58855 1.06945 0
M  V30 1936 H 192.528 1.37752 3.66785 0
M  V30 1937 H 194.225 1.76321 3.60156 0
M  V30 1938 H 190.815 3.06342 2.99754 0
M  V30 1939 H 194.999 4.03775 2.88581 0
M  V30 1940 H 190.255 5.44681 2.77728 0
M  V30 1941 H 194.429 6.42901 2.67678 0
M  V30 1942 H 192.056 7.13712 2.61762 0
M  V30 1943 N 193.631 -1.12557 1.10312 0
M  V30 1944 C 194.88 -1.83395 0.839588 0
M  V30 1945 C 195.193 -1.84939 -0.636929 0
M  V30 1946 O 196.399 -2.51761 -1.01631 0
M  V30 1947 C 194.855 -3.29303 1.45215 0
M  V30 1948 C 194.463 -3.36122 2.96186 0
M  V30 1949 C 196.207 -4.05121 1.26796 0
M  V30 1950 C 194.114 -4.76357 3.50483 0
M  V30 1951 H 193.044 -0.687133 0.310425 0
M  V30 1952 H 195.695 -1.26746 1.32694 0
M  V30 1953 H 194.077 -3.85812 0.892469 0
M  V30 1954 H 195.251 -2.89559 3.58458 0
M  V30 1955 H 193.566 -2.73776 3.13745 0
M  V30 1956 H 196.163 -5.08668 1.64806 0
M  V30 1957 H 196.506 -4.15773 0.209409 0
M  V30 1958 H 197.039 -3.54967 1.79563 0
M  V30 1959 H 193.778 -4.70899 4.55998 0
M  V30 1960 H 193.298 -5.23377 2.92978 0
M  V30 1961 H 194.977 -5.45294 3.48228 0
M  V30 1962 N 195.109 -0.891671 -1.2995 0
M  V30 1963 C 196.072 -0.36828 -2.26222 0
M  V30 1964 C 197.072 0.493014 -1.53056 0
M  V30 1965 O 198.262 0.299213 -1.71611 0
M  V30 1966 C 195.394 0.47442 -3.37583 0
M  V30 1967 H 196.587 -1.21844 -2.74033 0
M  V30 1968 H 194.14 -0.669107 -1.41254 0
M  V30 1969 H 194.875 1.34489 -2.95099 0
M  V30 1970 H 194.66 -0.142615 -3.91841 0
M  V30 1971 H 196.15 0.83218 -4.09224 0
M  V30 1972 N 196.587 1.43421 -0.653314 0
M  V30 1973 C 197.497 2.34568 0.0388565 0
M  V30 1974 C 198.513 1.53888 0.81207 0
M  V30 1975 O 199.689 1.86539 0.759294 0
M  V30 1976 C 196.754 3.32167 0.993269 0
M  V30 1977 C 195.815 4.28751 0.216977 0
M  V30 1978 C 195.048 5.21688 1.12593 0
M  V30 1979 O 195.271 5.19052 2.36519 0
M  V30 1980 O 194.205 5.98919 0.598284 0
M  V30 1981 H 198.031 2.95251 -0.711386 0
M  V30 1982 H 195.616 1.43564 -0.413502 0
M  V30 1983 H 197.498 3.92183 1.54176 0
M  V30 1984 H 196.173 2.73987 1.72374 0
M  V30 1985 H 195.08 3.72215 -0.375101 0
M  V30 1986 H 196.413 4.89913 -0.473924 0
M  V30 1987 N 198.065 0.39524 1.52563 0
M  V30 1988 C 198.997 -0.472201 2.24283 0
M  V30 1989 C 200.01 -1.02178 1.26742 0
M  V30 1990 O 201.199 -0.923097 1.52778 0
M  V30 1991 C 198.299 -1.66775 2.95024 0
M  V30 1992 C 197.472 -1.2445 4.19322 0
M  V30 1993 C 196.531 -2.30539 4.7301 0
M  V30 1994 O 195.557 -1.91702 5.35947 0
M  V30 1995 N 196.759 -3.6253 4.53379 0
M  V30 1996 H 199.524 0.142282 2.99362 0
M  V30 1997 H 197.085 0.2219 1.60372 0
M  V30 1998 H 199.077 -2.37283 3.27839 0
M  V30 1999 H 197.647 -2.18845 2.23217 0
M  V30 2000 H 196.867 -0.368069 3.92478 0
M  V30 2001 H 198.155 -0.938457 5.0007 0
M  V30 2002 H 197.553 -3.96841 4.03154 0
M  V30 2003 H 196.11 -4.29055 4.90668 0
M  V30 2004 N 199.544 -1.57102 0.125237 0
M  V30 2005 C 200.791 -1.95407 -0.531248 0
M  V30 2006 C 201.119 -1.0089 -1.66287 0
M  V30 2007 O 200.374 -0.0339431 -1.95671 0
M  V30 2008 C 200.673 -3.40096 -1.09862 0
M  V30 2009 C 200.339 -4.50815 -0.0876989 0
M  V30 2010 C 199.001 -4.80824 0.19026 0
M  V30 2011 C 201.353 -5.17724 0.600902 0
M  V30 2012 C 198.681 -5.75058 1.163 0
M  V30 2013 C 201.033 -6.13005 1.56231 0
M  V30 2014 C 199.697 -6.41403 1.8482 0
M  V30 2015 H 198.967 -0.715046 -0.194397 0
M  V30 2016 H 201.614 -1.90373 0.207463 0
M  V30 2017 H 199.919 -3.41855 -1.91422 0
M  V30 2018 H 201.616 -3.6705 -1.61478 0
M  V30 2019 H 198.206 -4.27444 -0.314528 0
M  V30 2020 H 202.39 -4.94691 0.399333 0
M  V30 2021 H 197.646 -5.95362 1.39117 0
M  V30 2022 H 201.82 -6.63934 2.10153 0
M  V30 2023 H 199.447 -7.14229 2.60349 0
M  V30 2024 N 201.022 0.148545 -1.56898 0
M  V30 2025 C 202.25 0.876389 -1.87422 0
M  V30 2026 C 202.665 1.74809 -0.713256 0
M  V30 2027 O 202.022 1.79725 0.317025 0
M  V30 2028 C 202.073 1.73438 -3.17178 0
M  V30 2029 O 201.794 0.897809 -4.28802 0
M  V30 2030 C 203.295 2.56993 -3.61205 0
M  V30 2031 H 200.515 0.253489 -0.621277 0
M  V30 2032 H 203.059 0.141798 -2.04008 0
M  V30 2033 H 201.214 2.42205 -3.0235 0
M  V30 2034 H 201.628 1.48672 -5.02988 0
M  V30 2035 H 203.102 3.12773 -4.54838 0
M  V30 2036 H 203.579 3.32958 -2.86419 0
M  V30 2037 H 204.185 1.9352 -3.78722 0
M  V30 2038 N 202.5 1.5196 0.417844 0
M  V30 2039 C 203.746 1.66793 1.16411 0
M  V30 2040 C 204.101 0.388758 1.88432 0
M  V30 2041 O 203.394 -0.616409 1.81414 0
M  V30 2042 C 203.588 2.82269 2.19223 0
M  V30 2043 C 203.417 4.21293 1.57297 0
M  V30 2044 C 202.187 4.86948 1.34944 0
M  V30 2045 C 204.385 5.03704 1.03858 0
M  V30 2046 N 202.367 6.1003 0.688195 0
M  V30 2047 C 203.738 6.1795 0.503742 0
M  V30 2048 C 205.793 4.89095 0.932203 0
M  V30 2049 C 204.496 7.19188 -0.127034 0
M  V30 2050 C 206.522 5.90559 0.315293 0
M  V30 2051 C 205.884 7.0409 -0.208906 0
M  V30 2052 H 201.983 0.66407 0.412959 0
M  V30 2053 H 204.567 1.89242 0.457772 0
M  V30 2054 H 202.738 2.61451 2.87225 0
M  V30 2055 H 204.47 2.86183 2.86149 0
M  V30 2056 H 201.225 4.45156 1.61657 0
M  V30 2057 H 201.649 6.75964 0.374449 0
M  V30 2058 H 206.291 4.01557 1.32332 0
M  V30 2059 H 204.009 8.06359 -0.530231 0
M  V30 2060 H 207.595 5.81327 0.234625 0
M  V30 2061 H 206.475 7.81257 -0.67875 0
M  V30 2062 N 203.978 -0.674533 1.42435 0
M  V30 2063 C 204.926 -1.80934 1.46169 0
M  V30 2064 C 205.92 -1.66006 0.3374 0
M  V30 2065 O 207.126 -1.72611 0.510425 0
M  V30 2066 H 203.501 -0.596594 0.457798 0
M  V30 2067 H 205.472 -1.74903 2.41767 0
M  V30 2068 C 204.221 -3.19088 1.38123 0
M  V30 2069 H 203.544 -3.31203 2.23931 0
M  V30 2070 H 204.984 -3.9851 1.44797 0
M  V30 2071 C 203.443 -3.36763 0.0960517 0
M  V30 2072 O 203.973 -3.92581 -0.851073 0
M  V30 2073 N 202.179 -2.90597 0.0131186 0
M  V30 2074 H 201.726 -2.45359 0.784639 0
M  V30 2075 H 201.684 -3.028 -0.846133 0
M  V30 2076 N 205.456 -1.28612 -0.910864 0
M  V30 2077 C 206.704 -1.15705 -1.65701 0
M  V30 2078 C 207.025 0.29416 -1.92769 0
M  V30 2079 O 206.295 1.20331 -1.54588 0
M  V30 2080 H 204.875 -0.425216 -0.614167 0
M  V30 2081 H 207.537 -1.61381 -1.0928 0
M  V30 2082 H 206.633 -1.6988 -2.61815 0
M  V30 2083 N 206.934 1.1197 -1.10907 0
M  V30 2084 C 208.18 1.8386 -0.855773 0
M  V30 2085 C 208.513 1.84134 0.617103 0
M  V30 2086 O 207.788 1.29041 1.45529 0
M  V30 2087 C 208.071 3.31305 -1.411 0
M  V30 2088 C 207.924 3.39456 -2.9511 0
M  V30 2089 C 209.243 4.2721 -1.05736 0
M  V30 2090 H 206.362 0.667545 -0.312334 0
M  V30 2091 H 209.004 1.31331 -1.37303 0
M  V30 2092 H 207.154 3.76169 -0.97105 0
M  V30 2093 H 208.826 3.03191 -3.47668 0
M  V30 2094 H 207.069 2.79849 -3.31462 0
M  V30 2095 H 207.74 4.43209 -3.29044 0
M  V30 2096 H 210.216 3.90497 -1.43706 0
M  V30 2097 H 209.092 5.28775 -1.47269 0
M  V30 2098 H 209.353 4.42088 0.0325958 0
M  V30 2099 N 208.412 0.89855 1.29475 0
M  V30 2100 C 209.359 0.373819 2.27753 0
M  V30 2101 C 210.329 -0.543444 1.56958 0
M  V30 2102 O 211.514 -0.468934 1.84948 0
M  V30 2103 C 208.654 -0.393648 3.42848 0
M  V30 2104 C 207.767 0.554379 4.28428 0
M  V30 2105 C 206.902 -0.230026 5.30702 0
M  V30 2106 C 205.941 0.712599 6.07938 0
M  V30 2107 N 205.078 -0.0373283 7.0209 0
M  V30 2108 H 209.918 1.21699 2.72017 0
M  V30 2109 H 207.455 0.611456 1.33789 0
M  V30 2110 H 209.413 -0.85466 4.08352 0
M  V30 2111 H 208.043 -1.20128 2.99615 0
M  V30 2112 H 207.095 1.13391 3.63107 0
M  V30 2113 H 208.407 1.27597 4.82204 0
M  V30 2114 H 207.561 -0.752288 6.02018 0
M  V30 2115 H 206.3 -0.984758 4.77654 0
M  V30 2116 H 205.305 1.24637 5.35486 0
M  V30 2117 H 206.53 1.46664 6.63074 0
M  V30 2118 H 204.476 -0.774348 6.51414 0
M  V30 2119 H 204.393 0.624374 7.53417 0
M  V30 2120 H 205.661 -0.539891 7.77628 0
M  V30 2121 N 209.89 -1.43072 0.660911 0
M  V30 2122 C 211.136 -2.0202 0.177708 0
M  V30 2123 C 211.469 -1.52066 -1.20787 0
M  V30 2124 O 210.744 -0.716987 -1.80802 0
M  V30 2125 C 211.027 -3.59561 0.197019 0
M  V30 2126 C 210.88 -4.19727 1.61706 0
M  V30 2127 C 212.199 -4.37664 -0.462396 0
M  V30 2128 H 209.318 -0.734034 0.0660494 0
M  V30 2129 H 211.96 -1.70272 0.843058 0
M  V30 2130 H 210.11 -3.86739 -0.369527 0
M  V30 2131 H 211.782 -4.03553 2.23479 0
M  V30 2132 H 210.025 -3.76084 2.16201 0
M  V30 2133 H 210.696 -5.28834 1.58237 0
M  V30 2134 H 213.172 -4.16095 0.0197215 0
M  V30 2135 H 212.048 -5.47305 -0.418188 0
M  V30 2136 H 212.309 -4.14493 -1.53778 0
M  V30 2137 N 211.368 -0.403325 -1.52352 0
M  V30 2138 C 212.645 0.232611 -1.94212 0
M  V30 2139 C 213.025 1.63133 -1.33981 0
M  V30 2140 O 212.373 2.22659 -0.513344 0
M  V30 2141 C 212.583 0.244811 -3.4814 0
M  V30 2142 C 213.931 0.46698 -4.22024 0
M  V30 2143 O 214.955 0.324419 -3.5472 0
M  V30 2144 O 213.814 0.74747 -5.41364 0
M  V30 2145 H 210.908 0.148223 -0.813609 0
M  V30 2146 H 213.454 -0.458848 -1.63379 0
M  V30 2147 H 212.226 -0.734378 -3.84347 0
M  V30 2148 H 211.849 0.980611 -3.85318 0
M  V30 2149 N 212.846 1.57033 -0.133567 0
M  V30 2150 C 214.094 1.953 0.519848 0
M  V30 2151 C 214.415 1.01866 1.66278 0
M  V30 2152 O 213.685 0.0776513 1.95746 0
M  V30 2153 H 212.265 0.721091 0.195032 0
M  V30 2154 H 214.927 1.93809 -0.205921 0
M  V30 2155 H 214.023 2.98695 0.904854 0
M  V30 2156 N 214.325 -0.140222 1.56975 0
M  V30 2157 C 215.55 -0.870414 1.88251 0
M  V30 2158 C 215.975 -1.73637 0.723312 0
M  V30 2159 O 215.333 -1.78329 -0.32689 0
M  V30 2160 C 215.381 -1.69737 3.18154 0
M  V30 2161 O 214.485 -2.80229 3.02565 0
M  V30 2162 H 213.826 -0.242025 0.61832 0
M  V30 2163 H 216.356 -0.128999 2.04193 0
M  V30 2164 H 216.366 -2.09099 3.50345 0
M  V30 2165 H 215.041 -1.06152 4.02125 0
M  V30 2166 H 213.618 -2.44224 2.81796 0
M  V30 2167 N 215.803 -1.52179 -0.40978 0
M  V30 2168 C 217.028 -1.70347 -1.18308 0
M  V30 2169 C 217.453 -0.411887 -1.83535 0
M  V30 2170 O 216.811 0.630587 -1.6998 0
M  V30 2171 C 216.859 -2.83977 -2.22238 0
M  V30 2172 O 215.963 -2.495 -3.28365 0
M  V30 2173 H 215.304 -0.567103 -0.345384 0
M  V30 2174 H 217.834 -1.98879 -0.480445 0
M  V30 2175 H 217.844 -3.0887 -2.66577 0
M  V30 2176 H 216.519 -3.77685 -1.74146 0
M  V30 2177 H 215.096 -2.35277 -2.89308 0
M  V30 2178 N 217.281 0.66697 -1.42791 0
M  V30 2179 C 218.506 1.46004 -1.47301 0
M  V30 2180 C 218.931 1.87894 -0.0880317 0
M  V30 2181 O 218.289 1.56502 0.915253 0
M  V30 2182 C 218.337 2.68031 -2.41229 0
M  V30 2183 O 217.441 3.6659 -1.88906 0
M  V30 2184 H 216.782 0.43832 -0.49877 0
M  V30 2185 H 219.312 0.817391 -1.87563 0
M  V30 2186 H 219.322 3.1601 -2.58073 0
M  V30 2187 H 217.997 2.36883 -3.41847 0
M  V30 2188 H 216.574 3.25661 -1.81656 0
M  V30 2189 N 218.759 1.29093 0.90403 0
M  V30 2190 C 219.722 1.1386 1.98919 0
M  V30 2191 C 220.722 0.0753457 1.60623 0
M  V30 2192 O 221.912 0.321931 1.71199 0
M  V30 2193 C 219.044 0.740198 3.32767 0
M  V30 2194 H 220.237 2.10246 2.13861 0
M  V30 2195 H 217.79 1.12218 1.08797 0
M  V30 2196 H 218.525 -0.223997 3.23525 0
M  V30 2197 H 218.31 1.50838 3.61926 0
M  V30 2198 H 219.8 0.656546 4.12407 0
M  V30 2199 N 220.237 -1.11381 1.11499 0
M  V30 2200 C 221.477 -1.84763 0.874188 0
M  V30 2201 C 221.841 -1.82726 -0.589496 0
M  V30 2202 O 223.042 -2.51562 -0.947089 0
M  V30 2203 C 221.313 -3.27931 1.42112 0
M  V30 2204 S 222.872 -4.18557 1.31739 0
M  V30 2205 H 219.69 -0.637115 0.315603 0
M  V30 2206 H 222.292 -1.34097 1.42261 0
M  V30 2207 H 220.996 -3.26978 2.48019 0
M  V30 2208 H 220.527 -3.83665 0.869761 0
M  V30 2209 H 222.542 -4.95396 0.282335 0
M  V30 2210 N 221.715 -0.905404 -1.28997 0
M  V30 2211 C 222.645 -0.404212 -2.29975 0
M  V30 2212 C 223.626 0.523784 -1.61835 0
M  V30 2213 O 224.811 0.433298 -1.89304 0
M  V30 2214 C 221.941 0.364042 -3.45387 0
M  V30 2215 C 220.895 -0.474048 -4.25367 0
M  V30 2216 C 220.221 0.422045 -5.33032 0
M  V30 2217 C 221.521 -1.72696 -4.92923 0
M  V30 2218 H 223.215 -1.24807 -2.72146 0
M  V30 2219 H 220.761 -0.601585 -1.30832 0
M  V30 2220 H 222.714 0.725447 -4.15109 0
M  V30 2221 H 221.438 1.24174 -3.02074 0
M  V30 2222 H 220.097 -0.81786 -3.57361 0
M  V30 2223 H 219.745 1.29804 -4.85963 0
M  V30 2224 H 219.445 -0.135057 -5.87445 0
M  V30 2225 H 220.969 0.779517 -6.05604 0
M  V30 2226 H 222.383 -1.43495 -5.55051 0
M  V30 2227 H 220.78 -2.22582 -5.57295 0
M  V30 2228 H 221.85 -2.45964 -4.17887 0
M  V30 2229 N 223.193 1.4272 -0.668489 0
M  V30 2230 C 224.609 1.55992 -0.33745 0
M  V30 2231 C 224.809 1.64933 1.15756 0
M  V30 2232 O 223.865 1.61278 1.94282 0
M  V30 2233 C 225.178 2.81314 -1.06222 0
M  V30 2234 C 226.726 2.95078 -1.04394 0
M  V30 2235 C 227.201 4.23252 -1.74991 0
M  V30 2236 N 228.692 4.3015 -1.71829 0
M  V30 2237 C 229.427 5.28127 -2.23315 0
M  V30 2238 N 228.923 6.32293 -2.83156 0
M  V30 2239 N 230.716 5.19882 -2.13726 0
M  V30 2240 H 222.867 1.3516 -1.63846 0
M  V30 2241 H 225.13 0.650174 -0.689912 0
M  V30 2242 H 224.836 2.80823 -2.11734 0
M  V30 2243 H 224.71 3.72012 -0.62344 0
M  V30 2244 H 227.097 2.951 0.0028244 0
M  V30 2245 H 227.178 2.05627 -1.52155 0
M  V30 2246 H 226.822 4.2399 -2.79633 0
M  V30 2247 H 226.752 5.11626 -1.24685 0
M  V30 2248 H 229.243 3.55499 -1.28175 0
M  V30 2249 H 229.556 7.03398 -3.20079 0
M  V30 2250 H 227.901 6.32873 -2.87223 0
M  V30 2251 H 231.092 4.37423 -1.66669 0
M  V30 2252 H 231.265 5.96077 -2.54158 0
M  V30 2253 N 224.671 0.411399 1.52136 0
M  V30 2254 C 225.919 -0.163322 2.01439 0
M  V30 2255 C 226.24 -1.45453 1.29879 0
M  V30 2256 O 225.51 -1.91225 0.4254 0
M  V30 2257 H 224.09 -0.0633447 0.744309 0
M  V30 2258 H 226.752 0.548161 1.87033 0
M  V30 2259 H 225.848 -0.357817 3.10042 0
M  V30 2260 N 226.149 -1.5696 0.141893 0
M  V30 2261 C 227.397 -1.95573 -0.509484 0
M  V30 2262 C 227.718 -1.02746 -1.65736 0
M  V30 2263 O 226.988 -0.0880311 -1.95702 0
M  V30 2264 H 225.568 -0.722115 -0.191205 0
M  V30 2265 H 228.23 -1.93697 0.216196 0
M  V30 2266 H 227.326 -2.99171 -0.889 0
M  V30 2267 N 227.627 0.131896 -1.57047 0
M  V30 2268 C 229.043 0.485031 -1.52051 0
M  V30 2269 C 229.243 1.82563 -0.85281 0
M  V30 2270 O 228.299 2.48817 -0.429694 0
M  V30 2271 C 229.612 0.481409 -2.96821 0
M  V30 2272 C 231.16 0.565868 -3.07842 0
M  V30 2273 C 231.635 0.592762 -4.54148 0
M  V30 2274 N 233.126 0.654564 -4.58552 0
M  V30 2275 C 233.861 0.696608 -5.69153 0
M  V30 2276 N 233.357 0.697078 -6.89284 0
M  V30 2277 N 235.15 0.738639 -5.57226 0
M  V30 2278 H 227.301 -0.746664 -1.98843 0
M  V30 2279 H 229.564 -0.273999 -0.90754 0
M  V30 2280 H 229.27 -0.435731 -3.4899 0
M  V30 2281 H 229.144 1.3139 -3.53577 0
M  V30 2282 H 231.531 1.47343 -2.55684 0
M  V30 2283 H 231.612 -0.29406 -2.54104 0
M  V30 2284 H 231.256 -0.310701 -5.06949 0
M  V30 2285 H 231.186 1.46939 -5.05684 0
M  V30 2286 H 233.677 0.660887 -3.72076 0
M  V30 2287 H 233.99 0.731426 -7.69331 0
M  V30 2288 H 232.335 0.66471 -6.91814 0
M  V30 2289 H 235.526 0.735545 -4.62285 0
M  V30 2290 H 235.699 0.767938 -6.43434 0
M  V30 2291 N 229.106 1.52395 0.401703 0
M  V30 2292 C 230.054 1.7689 1.51039 0
M  V30 2293 C 231.048 0.636298 1.56996 0
M  V30 2294 O 232.254 0.818507 1.60314 0
M  V30 2295 H 228.629 0.559502 0.502456 0
M  V30 2296 H 230.6 2.69757 1.27568 0
M  V30 2297 C 229.349 1.94331 2.88324 0
M  V30 2298 H 228.672 2.80905 2.84486 0
M  V30 2299 H 230.112 2.15466 3.65172 0
M  V30 2300 C 228.571 0.712396 3.29282 0
M  V30 2301 O 229.101 -0.116218 4.01532 0
M  V30 2302 N 227.307 0.546154 2.85422 0
M  V30 2303 H 226.854 1.22156 2.26794 0
M  V30 2304 H 226.812 -0.276113 3.13185 0
M  V30 2305 N 230.584 -0.659388 1.43143 0
M  V30 2306 C 231.809 -1.45221 1.48073 0
M  V30 2307 C 232.234 -1.87845 0.097995 0
M  V30 2308 O 231.592 -1.56985 -0.90694 0
M  V30 2309 C 231.64 -2.66748 2.42647 0
M  V30 2310 O 230.744 -3.65583 1.90848 0
M  V30 2311 H 230.085 -0.435669 0.501088 0
M  V30 2312 H 232.615 -0.807432 1.87994 0
M  V30 2313 H 232.625 -3.14637 2.59745 0
M  V30 2314 H 231.3 -2.35067 3.43098 0
M  V30 2315 H 229.877 -3.24693 1.83381 0
M  V30 2316 N 232.062 -1.29571 -0.897171 0
M  V30 2317 C 233.309 -1.17689 -1.6479 0
M  V30 2318 C 233.637 0.27107 -1.92602 0
M  V30 2319 O 232.892 1.21193 -1.53658 0
M  V30 2320 C 233.191 -1.9382 -3.00281 0
M  V30 2321 C 232.857 -3.43522 -2.92068 0
M  V30 2322 C 231.519 -3.84348 -2.89535 0
M  V30 2323 C 233.871 -4.38906 -2.81089 0
M  V30 2324 C 231.199 -5.18869 -2.73846 0
M  V30 2325 C 233.551 -5.73521 -2.66939 0
M  V30 2326 C 232.215 -6.13601 -2.62774 0
M  V30 2327 H 231.485 -0.430654 -0.603008 0
M  V30 2328 H 234.132 -1.60536 -1.04404 0
M  V30 2329 H 232.437 -1.4357 -3.64547 0
M  V30 2330 H 234.134 -1.82028 -3.57305 0
M  V30 2331 H 230.724 -3.11072 -2.94842 0
M  V30 2332 H 234.908 -4.08315 -2.82121 0
M  V30 2333 H 230.164 -5.4903 -2.69027 0
M  V30 2334 H 234.338 -6.47078 -2.57416 0
M  V30 2335 H 231.965 -7.17786 -2.50375 0
M  V30 2336 N 233.54 1.10788 -1.12088 0
M  V30 2337 C 234.787 1.82671 -0.873931 0
M  V30 2338 C 235.115 1.85004 0.600311 0
M  V30 2339 O 234.37 1.30365 1.45957 0
M  V30 2340 C 234.669 3.29294 -1.38926 0
M  V30 2341 C 234.335 3.47113 -2.87791 0
M  V30 2342 C 232.997 3.51684 -3.28439 0
M  V30 2343 C 235.349 3.52808 -3.83635 0
M  V30 2344 C 232.677 3.59513 -4.63646 0
M  V30 2345 C 235.029 3.62169 -5.18668 0
M  V30 2346 C 233.693 3.65003 -5.58864 0
M  V30 2347 H 232.963 0.668441 -0.319794 0
M  V30 2348 H 235.61 1.30613 -1.40045 0
M  V30 2349 H 233.915 3.83894 -0.783122 0
M  V30 2350 H 235.612 3.83416 -1.17443 0
M  V30 2351 H 232.202 3.4423 -2.5535 0
M  V30 2352 H 236.386 3.4853 -3.53328 0
M  V30 2353 H 231.642 3.59987 -4.94185 0
M  V30 2354 H 235.816 3.6552 -5.92763 0
M  V30 2355 H 233.443 3.70822 -6.63623 0
M  V30 2356 N 235.018 0.912232 1.28515 0
M  V30 2357 C 236.243 0.559774 1.99703 0
M  V30 2358 C 236.668 -0.851393 1.67729 0
M  V30 2359 O 236.026 -1.56875 0.908834 0
M  V30 2360 C 236.074 0.773874 3.52198 0
M  V30 2361 O 235.178 -0.167842 4.12058 0
M  V30 2362 H 234.519 0.21723 0.627461 0
M  V30 2363 H 237.049 1.22725 1.63706 0
M  V30 2364 H 237.059 0.683386 4.02236 0
M  V30 2365 H 235.734 1.80261 3.74805 0
M  V30 2366 H 234.311 -0.0287509 3.72889 0
M  V30 2367 N 236.496 -1.42363 0.676048 0
M  V30 2368 C 237.912 -1.55811 0.345718 0
M  V30 2369 C 238.112 -1.65544 -1.14879 0
M  V30 2370 O 237.168 -1.62306 -1.93424 0
M  V30 2371 C 238.481 -2.80746 1.07713 0
M  V30 2372 C 240.029 -2.9452 1.05958 0
M  V30 2373 C 240.504 -4.22318 1.77233 0
M  V30 2374 N 241.995 -4.29233 1.74108 0
M  V30 2375 C 242.73 -5.26935 2.26113 0
M  V30 2376 N 242.226 -6.30783 2.86505 0
M  V30 2377 N 244.019 -5.18741 2.1648 0
M  V30 2378 H 236.17 -1.34289 1.6456 0
M  V30 2379 H 238.433 -0.646506 0.69335 0
M  V30 2380 H 238.139 -2.79696 2.13221 0
M  V30 2381 H 238.013 -3.71676 0.64316 0
M  V30 2382 H 240.4 -2.95097 0.0128255 0
M  V30 2383 H 240.481 -2.04817 1.53244 0
M  V30 2384 H 240.125 -4.22502 2.81877 0
M  V30 2385 H 240.055 -5.10958 1.27396 0
M  V30 2386 H 242.546 -3.54814 1.30059 0
M  V30 2387 H 242.859 -7.01691 3.23805 0
M  V30 2388 H 241.204 -6.31341 2.90575 0
M  V30 2389 H 244.395 -4.36533 1.68987 0
M  V30 2390 H 244.568 -5.94721 2.57316 0
M  V30 2391 N 237.974 -0.419461 -1.51915 0
M  V30 2392 C 238.904 0.391813 -2.30189 0
M  V30 2393 C 239.885 1.03699 -1.34836 0
M  V30 2394 O 241.07 1.04403 -1.63748 0
M  V30 2395 C 238.2 1.50312 -3.13087 0
M  V30 2396 C 237.154 0.9824 -4.16573 0
M  V30 2397 C 236.48 2.18809 -4.8788 0
M  V30 2398 C 237.78 0.0292356 -5.22292 0
M  V30 2399 H 239.474 -0.26135 -2.98257 0
M  V30 2400 H 237.02 -0.127134 -1.43438 0
M  V30 2401 H 238.973 2.07773 -3.66617 0
M  V30 2402 H 237.697 2.18431 -2.42807 0
M  V30 2403 H 236.356 0.430119 -3.64068 0
M  V30 2404 H 236.004 2.85507 -4.14119 0
M  V30 2405 H 235.704 1.84615 -5.57845 0
M  V30 2406 H 237.228 2.76858 -5.44226 0
M  V30 2407 H 238.642 0.512976 -5.71 0
M  V30 2408 H 237.039 -0.2244 -5.9968 0
M  V30 2409 H 238.109 -0.912931 -4.76228 0
M  V30 2410 N 239.452 1.56882 -0.150215 0
M  V30 2411 C 240.4 2.18214 0.805313 0
M  V30 2412 C 241.394 1.14006 1.25296 0
M  V30 2413 O 242.6 1.3225 1.22107 0
M  V30 2414 H 238.975 0.698762 0.277913 0
M  V30 2415 H 240.946 2.97231 0.263862 0
M  V30 2416 C 239.695 2.82065 2.03309 0
M  V30 2417 H 239.018 3.61968 1.69763 0
M  V30 2418 H 240.458 3.28477 2.68103 0
M  V30 2419 C 238.917 1.80739 2.84315 0
M  V30 2420 O 239.447 1.27983 3.80767 0
M  V30 2421 N 237.653 1.4997 2.48913 0
M  V30 2422 H 237.2 1.93062 1.70542 0
M  V30 2423 H 237.158 0.824217 3.03404 0
M  V30 2424 N 240.93 -0.123565 1.57115 0
M  V30 2425 C 242.176 -0.828428 1.85765 0
M  V30 2426 C 242.531 -1.77709 0.737371 0
M  V30 2427 O 241.824 -1.89787 -0.262978 0
M  V30 2428 C 242.018 -1.62016 3.18568 0
M  V30 2429 C 241.847 -0.749663 4.43407 0
M  V30 2430 C 240.617 -0.406251 5.03664 0
M  V30 2431 C 242.815 -0.0693505 5.14253 0
M  V30 2432 N 240.797 0.475389 6.12057 0
M  V30 2433 C 242.168 0.671474 6.16353 0
M  V30 2434 C 244.223 0.00754393 4.97899 0
M  V30 2435 C 242.926 1.48197 7.03868 0
M  V30 2436 C 244.952 0.804845 5.85898 0
M  V30 2437 C 244.314 1.53388 6.87497 0
M  V30 2438 H 240.413 -0.280219 0.73007 0
M  V30 2439 H 242.997 -0.0924183 1.94481 0
M  V30 2440 H 241.168 -2.32724 3.10957 0
M  V30 2441 H 242.9 -2.27 3.35042 0
M  V30 2442 H 239.655 -0.747446 4.67665 0
M  V30 2443 H 240.079 0.907924 6.70884 0
M  V30 2444 H 244.721 -0.541741 4.19315 0
M  V30 2445 H 242.439 2.04242 7.81864 0
M  V30 2446 H 246.025 0.866642 5.75309 0
M  V30 2447 H 244.905 2.1409 7.5441 0
M  V30 2448 N 242.408 -1.52605 -0.393616 0
M  V30 2449 C 243.338 -1.80022 -1.48709 0
M  V30 2450 C 244.319 -0.651995 -1.57108 0
M  V30 2451 O 245.504 -0.89913 -1.72132 0
M  V30 2452 C 242.634 -1.96492 -2.86371 0
M  V30 2453 C 241.588 -3.12161 -2.92813 0
M  V30 2454 C 240.914 -3.13877 -4.3288 0
M  V30 2455 C 242.214 -4.51322 -2.6288 0
M  V30 2456 H 243.908 -2.71589 -1.26015 0
M  V30 2457 H 241.454 -1.30684 -0.604778 0
M  V30 2458 H 243.407 -2.14255 -3.62867 0
M  V30 2459 H 242.131 -1.01611 -3.10391 0
M  V30 2460 H 240.79 -2.94173 -2.18764 0
M  V30 2461 H 240.438 -2.16687 -4.53933 0
M  V30 2462 H 240.138 -3.91576 -4.38112 0
M  V30 2463 H 241.662 -3.33789 -5.1129 0
M  V30 2464 H 243.076 -4.69435 -3.29096 0
M  V30 2465 H 241.473 -5.31053 -2.79468 0
M  V30 2466 H 242.543 -4.58353 -1.58242 0
M  V30 2467 N 243.887 0.651787 -1.4349 0
M  V30 2468 C 245.115 1.43937 -1.48626 0
M  V30 2469 C 245.53 1.8851 -0.104587 0
M  V30 2470 O 244.887 1.5958 0.885464 0
M  V30 2471 C 244.938 2.6734 -2.43334 0
M  V30 2472 O 244.659 2.24631 -3.76128 0
M  V30 2473 C 246.16 3.60683 -2.57726 0
M  V30 2474 H 243.38 0.44213 -0.504739 0
M  V30 2475 H 245.924 0.798944 -1.88248 0
M  V30 2476 H 244.079 3.2752 -2.06904 0
M  V30 2477 H 244.493 3.04485 -4.2707 0
M  V30 2478 H 245.967 4.43933 -3.28067 0
M  V30 2479 H 246.444 4.08126 -1.62265 0
M  V30 2480 H 247.05 3.06384 -2.94973 0
M  V30 2481 N 245.365 1.30045 0.890287 0
M  V30 2482 C 246.312 1.15976 1.99545 0
M  V30 2483 C 247.282 0.0506202 1.66023 0
M  V30 2484 O 248.467 0.219847 1.89529 0
M  V30 2485 C 245.607 0.852054 3.34416 0
M  V30 2486 C 244.72 2.04255 3.80662 0
M  V30 2487 C 243.855 1.6734 5.04154 0
M  V30 2488 C 242.894 2.82916 5.42794 0
M  V30 2489 N 242.031 2.46333 6.57468 0
M  V30 2490 H 246.871 2.10524 2.10911 0
M  V30 2491 H 244.408 1.04749 1.03276 0
M  V30 2492 H 246.366 0.654296 4.12037 0
M  V30 2493 H 244.996 -0.0565502 3.2275 0
M  V30 2494 H 244.048 2.35172 2.98995 0
M  V30 2495 H 245.36 2.90826 4.05242 0
M  V30 2496 H 244.514 1.43908 5.89386 0
M  V30 2497 H 243.253 0.779308 4.81433 0
M  V30 2498 H 242.258 3.0702 4.56091 0
M  V30 2499 H 243.483 3.73004 5.6749 0
M  V30 2500 H 241.429 1.59423 6.36334 0
M  V30 2501 H 241.346 3.26436 6.81891 0
M  V30 2502 H 242.614 2.26244 7.45945 0
M  V30 2503 N 246.843 -1.10192 1.12674 0
M  V30 2504 C 247.806 -2.14786 0.799979 0
M  V30 2505 C 248.806 -1.59711 -0.18685 0
M  V30 2506 O 249.996 -1.74156 0.0392558 0
M  V30 2507 C 247.128 -3.40374 0.189228 0
M  V30 2508 H 248.321 -2.45203 1.72671 0
M  V30 2509 H 245.874 -1.25597 0.930326 0
M  V30 2510 H 246.609 -3.15577 -0.747107 0
M  V30 2511 H 246.394 -3.81637 0.899766 0
M  V30 2512 H 247.884 -4.17594 -0.0228143 0
M  V30 2513 N 248.321 -0.919034 -1.28029 0
M  V30 2514 C 249.549 -0.570971 -1.98866 0
M  V30 2515 C 249.964 0.848996 -1.68634 0
M  V30 2516 O 249.321 1.56307 -0.942036 0
M  V30 2517 C 249.372 -0.776876 -3.53054 0
M  V30 2518 O 249.093 -2.14097 -3.82222 0
M  V30 2519 C 250.594 -0.436356 -4.41147 0
M  V30 2520 H 247.814 -0.217175 -0.634883 0
M  V30 2521 H 250.358 -1.23368 -1.63097 0
M  V30 2522 H 248.513 -0.161085 -3.87065 0
M  V30 2523 H 248.927 -2.18455 -4.76841 0
M  V30 2524 H 250.401 -0.63117 -5.4838 0
M  V30 2525 H 250.878 0.627686 -4.34692 0
M  V30 2526 H 251.484 -1.02991 -4.12641 0
M  V30 2527 N 249.799 1.42003 -0.683588 0
M  V30 2528 C 250.747 2.326 0.000815408 0
M  V30 2529 C 251.741 1.50308 0.781278 0
M  V30 2530 O 252.947 1.66322 0.688251 0
M  V30 2531 H 249.322 0.751758 0.0190616 0
M  V30 2532 H 251.293 2.88011 -0.780528 0
M  V30 2533 C 250.042 3.34978 0.93195 0
M  V30 2534 H 249.365 3.98345 0.340817 0
M  V30 2535 H 250.805 4.00936 1.37936 0
M  V30 2536 C 249.264 2.67925 2.04249 0
M  V30 2537 O 249.794 2.51788 3.12995 0
M  V30 2538 N 248 2.2681 1.81675 0
M  V30 2539 H 247.547 2.40135 0.932363 0
M  V30 2540 H 247.505 1.8228 2.56167 0
M  V30 2541 N 251.277 0.427512 1.51691 0
M  V30 2542 C 252.525 -0.141948 2.01601 0
M  V30 2543 C 252.846 -1.44067 1.31414 0
M  V30 2544 O 252.116 -1.90763 0.445658 0
M  V30 2545 H 250.696 -0.0554468 0.744939 0
M  V30 2546 H 253.358 0.567968 1.86441 0
M  V30 2547 H 252.454 -0.324913 3.10404 0
M  V30 2548 N 252.755 -1.56801 0.158532 0
M  V30 2549 C 253.703 -2.18638 -0.793729 0
M  V30 2550 C 254.697 -1.14669 -1.24689 0
M  V30 2551 O 255.903 -1.32895 -1.21403 0
M  V30 2552 H 252.278 -0.700226 -0.274204 0
M  V30 2553 H 254.249 -2.97367 -0.248095 0
M  V30 2554 C 252.998 -2.83139 -2.0181 0
M  V30 2555 H 252.321 -3.62863 -1.67841 0
M  V30 2556 H 253.761 -3.29894 -2.66357 0
M  V30 2557 C 252.22 -1.82244 -2.83353 0
M  V30 2558 O 252.75 -1.3 -3.80083 0
M  V30 2559 N 250.956 -1.51288 -2.48114 0
M  V30 2560 H 250.503 -1.93964 -1.69516 0
M  V30 2561 H 250.461 -0.840296 -3.02963 0
M  V30 2562 N 254.233 0.115231 -1.57178 0
M  V30 2563 C 255.463 0.835224 -1.88964 0
M  V30 2564 C 255.871 1.73774 -0.74829 0
M  V30 2565 O 255.214 1.81401 0.289739 0
M  V30 2566 C 255.276 1.7178 -3.15804 0
M  V30 2567 C 254.94 0.989198 -4.46166 0
M  V30 2568 C 255.937 0.328263 -5.18863 0
M  V30 2569 C 253.622 0.969256 -4.9286 0
M  V30 2570 C 255.616 -0.342873 -6.36477 0
M  V30 2571 C 253.303 0.294324 -6.10391 0
M  V30 2572 C 254.301 -0.360582 -6.82048 0
M  V30 2573 O 253.989 -1.02474 -7.97342 0
M  V30 2574 H 253.721 0.245197 -0.629964 0
M  V30 2575 H 256.275 0.10303 -2.05141 0
M  V30 2576 H 254.505 2.49173 -2.95719 0
M  V30 2577 H 256.194 2.31255 -3.33581 0
M  V30 2578 H 256.96 0.335263 -4.8384 0
M  V30 2579 H 252.839 1.46844 -4.36987 0
M  V30 2580 H 256.383 -0.854629 -6.92345 0
M  V30 2581 H 252.28 0.285099 -6.4487 0
M  V30 2582 H 253.048 -0.929594 -8.13204 0
M  V30 2583 N 255.711 1.52812 0.385517 0
M  V30 2584 C 256.959 1.67694 1.12797 0
M  V30 2585 C 257.28 0.421115 1.90399 0
M  V30 2586 O 256.55 -0.564551 1.87589 0
M  V30 2587 H 255.13 0.618155 0.419396 0
M  V30 2588 H 257.792 1.89938 0.436972 0
M  V30 2589 H 256.888 2.52896 1.82894 0
M  V30 2590 N 257.189 -0.644168 1.43834 0
M  V30 2591 C 258.6 -1.22554 1.40845 0
M  V30 2592 C 258.951 -1.9585 0.117115 0
M  V30 2593 O 258.076 -2.01734 -0.783086 0
M  V30 2594 C 258.671 -2.22907 2.55143 0
M  V30 2595 C 257.23 -2.76501 2.5539 0
M  V30 2596 C 256.377 -1.51287 2.32396 0
M  V30 2597 H 259.328 -0.43563 1.52604 0
M  V30 2598 H 259.349 -3.05259 2.2715 0
M  V30 2599 H 258.861 -1.69533 3.49114 0
M  V30 2600 H 256.962 -3.33914 1.65324 0
M  V30 2601 H 257.075 -3.23429 3.53455 0
M  V30 2602 H 255.439 -1.78957 1.81236 0
M  V30 2603 H 256.222 -0.998336 3.28463 0
M  V30 2604 N 258.668 -1.30515 -0.883378 0
M  V30 2605 C 259.917 -1.18795 -1.63005 0
M  V30 2606 C 260.23 0.255923 -1.93919 0
M  V30 2607 O 261.436 0.494654 -2.66956 0
M  V30 2608 C 259.892 -2.07878 -2.93794 0
M  V30 2609 C 259.5 -3.57184 -2.70414 0
M  V30 2610 C 261.244 -2.04924 -3.71761 0
M  V30 2611 C 259.151 -4.38317 -3.97029 0
M  V30 2612 H 258.081 -0.441031 -0.611562 0
M  V30 2613 H 260.732 -1.55275 -0.977854 0
M  V30 2614 H 259.114 -1.64283 -3.60315 0
M  V30 2615 H 260.288 -4.08937 -2.12384 0
M  V30 2616 H 258.603 -3.61976 -2.0582 0
M  V30 2617 H 261.2 -2.62792 -4.65665 0
M  V30 2618 H 261.543 -1.0331 -4.03277 0
M  V30 2619 H 262.076 -2.46649 -3.12104 0
M  V30 2620 H 258.815 -5.40632 -3.70671 0
M  V30 2621 H 258.335 -3.91326 -4.54559 0
M  V30 2622 H 260.014 -4.49834 -4.65036 0
M  V30 2623 N 260.146 1.09593 -1.13257 0
M  V30 2624 C 261.094 2.18271 -0.803783 0
M  V30 2625 C 262.088 1.68054 0.213148 0
M  V30 2626 O 263.294 1.79862 0.0704699 0
M  V30 2627 H 259.669 0.711949 -0.242143 0
M  V30 2628 H 261.64 2.43235 -1.72856 0
M  V30 2629 C 260.389 3.46536 -0.28424 0
M  V30 2630 H 259.712 3.85545 -1.05807 0
M  V30 2631 H 261.152 4.23899 -0.0925945 0
M  V30 2632 C 259.611 3.22036 0.989684 0
M  V30 2633 O 260.141 3.44509 2.06584 0
M  V30 2634 N 258.347 2.7565 0.920086 0
M  V30 2635 H 257.894 2.57562 0.0442019 0
M  V30 2636 H 257.852 2.59635 1.77306 0
M  V30 2637 N 261.624 0.925811 1.2754 0
M  V30 2638 C 262.87 0.566092 1.94739 0
M  V30 2639 C 263.203 -0.890057 1.72603 0
M  V30 2640 O 262.478 -1.63467 1.05399 0
M  V30 2641 C 262.761 0.89054 3.48915 0
M  V30 2642 C 262.614 2.4003 3.80402 0
M  V30 2643 C 263.933 0.395101 4.38323 0
M  V30 2644 H 261.052 0.20714 0.707292 0
M  V30 2645 H 263.694 1.15725 1.50691 0
M  V30 2646 H 261.844 0.387452 3.86563 0
M  V30 2647 H 263.516 2.97494 3.52555 0
M  V30 2648 H 261.759 2.85028 3.2702 0
M  V30 2649 H 262.43 2.57785 4.8811 0
M  V30 2650 H 264.906 0.826241 4.07814 0
M  V30 2651 H 263.782 0.651086 5.45025 0
M  V30 2652 H 264.043 -0.704798 4.36446 0
M  V30 2653 N 263.102 -1.41638 0.69111 0
M  V30 2654 C 264.33 -2.05628 0.22909 0
M  V30 2655 C 264.745 -1.51992 -1.11999 0
M  V30 2656 O 264.102 -0.666322 -1.69901 0
M  V30 2657 C 264.153 -3.61084 0.173283 0
M  V30 2658 O 263.874 -4.12735 1.46907 0
M  V30 2659 C 265.375 -4.42213 -0.310266 0
M  V30 2660 H 262.595 -0.662327 0.107534 0
M  V30 2661 H 265.139 -1.81489 0.942438 0
M  V30 2662 H 263.294 -3.84278 -0.490858 0
M  V30 2663 H 263.708 -5.06743 1.35322 0
M  V30 2664 H 265.182 -5.51194 -0.298196 0
M  V30 2665 H 265.659 -4.1799 -1.34838 0
M  V30 2666 H 266.265 -4.24074 0.322716 0
M  V30 2667 N 264.58 -0.43555 -1.51462 0
M  V30 2668 C 265.527 0.376797 -2.27703 0
M  V30 2669 C 266.497 1.01838 -1.31219 0
M  V30 2670 O 267.682 1.03762 -1.60119 0
M  V30 2671 C 264.822 1.47301 -3.12084 0
M  V30 2672 C 263.935 0.849744 -4.2356 0
M  V30 2673 C 263.07 1.92086 -4.95254 0
M  V30 2674 C 262.109 1.27593 -5.98654 0
M  V30 2675 N 261.246 2.28833 -6.63762 0
M  V30 2676 H 266.086 -0.279734 -2.96684 0
M  V30 2677 H 263.623 -0.149795 -1.46335 0
M  V30 2678 H 265.581 2.11984 -3.59331 0
M  V30 2679 H 264.211 2.0992 -2.45221 0
M  V30 2680 H 263.263 0.0912529 -3.80291 0
M  V30 2681 H 264.575 0.338878 -4.97648 0
M  V30 2682 H 263.729 2.64435 -5.46039 0
M  V30 2683 H 262.468 2.46545 -4.20793 0
M  V30 2684 H 261.473 0.537893 -5.47162 0
M  V30 2685 H 262.698 0.738693 -6.7507 0
M  V30 2686 H 260.644 2.82375 -5.92115 0
M  V30 2687 H 260.561 1.82632 -7.33608 0
M  V30 2688 H 261.829 3.00671 -7.19178 0
M  V30 2689 N 266.058 1.56714 -0.166846 0
M  V30 2690 C 266.968 2.21331 0.777791 0
M  V30 2691 C 267.984 1.20358 1.25658 0
M  V30 2692 O 269.16 1.53005 1.30964 0
M  V30 2693 C 266.225 2.83787 1.99163 0
M  V30 2694 C 265.286 3.99947 1.56016 0
M  V30 2695 C 264.519 4.59415 2.71613 0
M  V30 2696 O 264.742 4.17769 3.88362 0
M  V30 2697 O 263.676 5.49359 2.45945 0
M  V30 2698 H 267.502 3.02605 0.257636 0
M  V30 2699 H 265.087 1.49275 0.0611393 0
M  V30 2700 H 266.969 3.23405 2.70161 0
M  V30 2701 H 265.644 2.05513 2.50092 0
M  V30 2702 H 264.551 3.65007 0.819809 0
M  V30 2703 H 265.884 4.79801 1.09782 0
M  V30 2704 N 267.536 -0.106894 1.57237 0
M  V30 2705 C 268.484 -1.14944 2.02215 0
M  V30 2706 C 269.478 -1.42167 0.92114 0
M  V30 2707 O 270.684 -1.41987 1.10634 0
M  V30 2708 H 267.059 -0.387841 0.64427 0
M  V30 2709 H 269.03 -0.743683 2.88984 0
M  V30 2710 C 267.779 -2.4647 2.4525 0
M  V30 2711 H 267.102 -2.26363 3.29545 0
M  V30 2712 H 268.542 -3.17948 2.80508 0
M  V30 2713 C 267.001 -3.09921 1.321 0
M  V30 2714 O 267.531 -3.9651 0.643622 0
M  V30 2715 N 265.737 -2.69986 1.07497 0
M  V30 2716 H 265.284 -1.99667 1.62761 0
M  V30 2717 H 265.242 -3.12769 0.319876 0
M  V30 2718 N 269.014 -1.53014 -0.377408 0
M  V30 2719 C 270.242 -1.72515 -1.14219 0
M  V30 2720 C 270.657 -0.448735 -1.8339 0
M  V30 2721 O 270.014 0.577592 -1.73119 0
M  V30 2722 C 270.065 -2.8826 -2.18148 0
M  V30 2723 O 269.786 -4.10962 -1.51795 0
M  V30 2724 C 271.287 -3.19536 -3.07264 0
M  V30 2725 H 268.507 -0.577301 -0.342001 0
M  V30 2726 H 271.051 -1.99712 -0.439935 0
M  V30 2727 H 269.206 -2.63492 -2.83991 0
M  V30 2728 H 269.62 -4.75693 -2.20945 0
M  V30 2729 H 271.094 -4.03959 -3.76193 0
M  V30 2730 H 271.571 -2.34403 -3.71419 0
M  V30 2731 H 272.177 -3.46186 -2.47053 0
M  V30 2732 N 270.492 0.636531 -1.44174 0
M  V30 2733 C 271.74 1.39343 -1.46383 0
M  V30 2734 C 272.061 1.94766 -0.0955715 0
M  V30 2735 O 271.331 1.75452 0.871395 0
M  V30 2736 H 269.911 0.517199 -0.538994 0
M  V30 2737 H 272.573 0.74957 -1.7991 0
M  V30 2738 H 271.669 2.22746 -2.18611 0
M  V30 2739 N 271.97 1.30982 0.876444 0
M  V30 2740 C 273.195 1.23373 1.66715 0
M  V30 2741 C 273.62 -0.19885 1.87046 0
M  V30 2742 O 272.978 -1.1427 1.40756 0
M  V30 2743 C 273.026 1.97644 3.01611 0
M  V30 2744 O 272.13 1.30935 3.91062 0
M  V30 2745 H 271.471 0.426279 0.509099 0
M  V30 2746 H 274.001 1.72944 1.09323 0
M  V30 2747 H 274.011 2.06992 3.51594 0
M  V30 2748 H 272.686 3.01829 2.86133 0
M  V30 2749 H 271.263 1.29996 3.49507 0
M  V30 2750 N 273.449 -1.08991 1.13837 0
M  V30 2751 C 274.679 -1.84743 0.924859 0
M  V30 2752 C 275.087 -1.81629 -0.529874 0
M  V30 2753 O 274.43 -1.21397 -1.37872 0
M  V30 2754 C 274.492 -3.33568 1.34061 0
M  V30 2755 C 274.156 -3.60425 2.80968 0
M  V30 2756 C 275.153 -3.55771 3.79108 0
M  V30 2757 C 272.838 -3.88627 3.18236 0
M  V30 2758 C 274.832 -3.78939 5.12527 0
M  V30 2759 C 272.519 -4.11449 4.51833 0
M  V30 2760 C 273.517 -4.06598 5.48787 0
M  V30 2761 O 273.205 -4.28826 6.79973 0
M  V30 2762 H 272.937 -0.590258 0.329502 0
M  V30 2763 H 275.491 -1.38598 1.51591 0
M  V30 2764 H 273.721 -3.80442 0.692853 0
M  V30 2765 H 275.41 -3.90743 1.09886 0
M  V30 2766 H 276.176 -3.34005 3.51661 0
M  V30 2767 H 272.055 -3.91526 2.43369 0
M  V30 2768 H 275.599 -3.75068 5.88192 0
M  V30 2769 H 271.496 -4.32698 4.79002 0
M  V30 2770 H 272.264 -4.46264 6.86142 0
M  V30 2771 N 274.927 -0.932562 -1.27047 0
M  V30 2772 C 276.173 -0.576412 -1.94436 0
M  V30 2773 C 276.506 0.880891 -1.73072 0
M  V30 2774 O 275.781 1.62905 -1.06264 0
M  V30 2775 C 276.064 -0.909031 -3.48437 0
M  V30 2776 C 275.917 -2.42044 -3.79123 0
M  V30 2777 C 277.236 -0.418341 -4.38107 0
M  V30 2778 H 274.355 -0.210888 -0.706184 0
M  V30 2779 H 276.997 -1.16522 -1.50075 0
M  V30 2780 H 275.147 -0.407947 -3.86352 0
M  V30 2781 H 276.819 -2.99359 -3.50973 0
M  V30 2782 H 275.062 -2.86758 -3.25503 0
M  V30 2783 H 275.733 -2.6037 -4.86736 0
M  V30 2784 H 278.209 -0.847856 -4.0737 0
M  V30 2785 H 277.085 -0.679981 -5.44672 0
M  V30 2786 H 277.346 0.681642 -4.36814 0
M  V30 2787 N 276.405 1.4127 -0.698611 0
M  V30 2788 C 277.821 1.55241 -0.370462 0
M  V30 2789 C 278.021 1.67351 1.12231 0
M  V30 2790 O 277.077 1.65363 1.90818 0
M  V30 2791 C 278.39 2.78997 -1.12165 0
M  V30 2792 C 279.938 2.92797 -1.1063 0
M  V30 2793 C 280.413 4.19445 -1.8393 0
M  V30 2794 N 281.904 4.26409 -1.80914 0
M  V30 2795 C 282.639 5.23271 -2.34467 0
M  V30 2796 N 282.135 6.26145 -2.96504 0
M  V30 2797 N 283.928 5.15232 -2.24706 0
M  V30 2798 H 276.079 1.31654 -1.66676 0
M  V30 2799 H 278.342 0.635393 -0.703548 0
M  V30 2800 H 278.048 2.76268 -2.17644 0
M  V30 2801 H 277.922 3.70606 -0.702209 0
M  V30 2802 H 280.309 2.95039 -0.0597713 0
M  V30 2803 H 280.39 2.02353 -1.56483 0
M  V30 2804 H 280.034 4.17964 -2.88563 0
M  V30 2805 H 279.964 5.08866 -1.35509 0
M  V30 2806 H 282.455 3.527 -1.35687 0
M  V30 2807 H 282.768 6.96451 -3.34927 0
M  V30 2808 H 281.113 6.26638 -3.00583 0
M  V30 2809 H 284.304 4.33789 -1.7591 0
M  V30 2810 H 284.477 5.90552 -2.66745 0
M  V30 2811 N 277.883 0.443576 1.51229 0
M  V30 2812 C 278.813 -0.355142 2.30783 0
M  V30 2813 C 279.794 -1.0154 1.36468 0
M  V30 2814 O 280.979 -1.01785 1.65389 0
M  V30 2815 C 278.109 -1.45312 3.15439 0
M  V30 2816 C 277.063 -0.916002 4.18083 0
M  V30 2817 C 276.389 -2.1102 4.91299 0
M  V30 2818 C 277.689 0.0538602 5.22272 0
M  V30 2819 H 279.383 0.308767 2.97804 0
M  V30 2820 H 276.929 0.149937 1.43217 0
M  V30 2821 H 278.882 -2.01914 3.69876 0
M  V30 2822 H 277.606 -2.14541 2.46252 0
M  V30 2823 H 276.265 -0.372145 3.64706 0
M  V30 2824 H 275.913 -2.78882 4.18609 0
M  V30 2825 H 275.613 -1.75717 5.60712 0
M  V30 2826 H 277.137 -2.68164 5.48562 0
M  V30 2827 H 278.551 -0.422069 5.71744 0
M  V30 2828 H 276.948 0.319776 5.99247 0
M  V30 2829 H 278.018 0.98858 4.74716 0
M  V30 2830 N 279.361 -1.56624 0.175154 0
M  V30 2831 C 280.591 -2.01082 -0.474283 0
M  V30 2832 C 280.999 -1.05447 -1.57091 0
M  V30 2833 O 280.342 -0.0480595 -1.83637 0
M  V30 2834 C 280.404 -3.41963 -1.10911 0
M  V30 2835 C 280.068 -4.56742 -0.153666 0
M  V30 2836 C 281.065 -5.16076 0.629448 0
M  V30 2837 C 278.75 -5.02277 -0.0483776 0
M  V30 2838 C 280.744 -6.19377 1.50501 0
M  V30 2839 C 278.431 -6.05427 0.830768 0
M  V30 2840 C 279.429 -6.63849 1.60605 0
M  V30 2841 O 279.117 -7.64998 2.47049 0
M  V30 2842 H 278.849 -0.664261 -0.125432 0
M  V30 2843 H 281.403 -2.03549 0.275163 0
M  V30 2844 H 279.633 -3.36422 -1.90676 0
M  V30 2845 H 281.322 -3.70352 -1.66114 0
M  V30 2846 H 282.088 -4.81776 0.558297 0
M  V30 2847 H 277.967 -4.56513 -0.641611 0
M  V30 2848 H 281.511 -6.64906 2.1106 0
M  V30 2849 H 277.408 -6.39151 0.903107 0
M  V30 2850 H 278.176 -7.82336 2.40607 0
M  V30 2851 N 280.839 0.0985539 -1.57292 0
M  V30 2852 C 281.769 1.12064 -2.04851 0
M  V30 2853 C 282.75 1.41981 -0.936767 0
M  V30 2854 O 283.935 1.52071 -1.20781 0
M  V30 2855 C 281.065 2.44144 -2.47004 0
M  V30 2856 C 280.019 2.28643 -3.6181 0
M  V30 2857 C 279.345 3.65869 -3.89929 0
M  V30 2858 C 280.645 1.72986 -4.92822 0
M  V30 2859 H 282.339 0.724979 -2.9049 0
M  V30 2860 H 279.885 0.34729 -1.39749 0
M  V30 2861 H 281.838 3.15914 -2.78884 0
M  V30 2862 H 280.562 2.85639 -1.5836 0
M  V30 2863 H 279.221 1.59318 -3.30172 0
M  V30 2864 H 278.869 4.04885 -2.98458 0
M  V30 2865 H 278.569 3.56344 -4.67218 0
M  V30 2866 H 280.093 4.39112 -4.2428 0
M  V30 2867 H 281.507 2.34593 -5.23105 0
M  V30 2868 H 279.904 1.74229 -5.74251 0
M  V30 2869 H 280.974 0.689007 -4.7998 0
M  V30 2870 N 282.317 1.53212 0.369288 0
M  V30 2871 C 283.563 1.70413 1.11046 0
M  V30 2872 C 283.918 0.448509 1.87099 0
M  V30 2873 O 283.211 -0.558382 1.83283 0
M  V30 2874 C 283.405 2.89101 2.10132 0
M  V30 2875 C 283.234 4.26084 1.43814 0
M  V30 2876 C 282.004 4.90994 1.19384 0
M  V30 2877 C 284.202 5.06754 0.877802 0
M  V30 2878 N 282.184 6.11911 0.49377 0
M  V30 2879 C 283.555 6.1924 0.306891 0
M  V30 2880 C 285.61 4.91814 0.776129 0
M  V30 2881 C 284.313 7.1842 -0.355774 0
M  V30 2882 C 286.339 5.91263 0.127252 0
M  V30 2883 C 285.701 7.03069 -0.432801 0
M  V30 2884 H 281.8 0.676872 0.391623 0
M  V30 2885 H 284.384 1.90603 0.397334 0
M  V30 2886 H 282.555 2.70456 2.78761 0
M  V30 2887 H 284.287 2.95142 2.76899 0
M  V30 2888 H 281.042 4.50074 1.47413 0
M  V30 2889 H 281.466 6.76813 0.159207 0
M  V30 2890 H 286.108 4.05564 1.19489 0
M  V30 2891 H 283.826 8.04264 -0.786499 0
M  V30 2892 H 287.412 5.81779 0.0495613 0
M  V30 2893 H 286.292 7.78702 -0.926958 0
M  V30 2894 N 283.795 -0.628877 1.44509 0
M  V30 2895 C 285.043 -1.38565 1.4712 0
M  V30 2896 C 285.364 -1.94712 0.105899 0
M  V30 2897 O 284.634 -1.75912 -0.862079 0
M  V30 2898 H 283.214 -0.514333 0.541729 0
M  V30 2899 H 285.876 -0.740018 1.80305 0
M  V30 2900 H 284.972 -2.21583 2.19789 0
M  V30 2901 N 285.273 -1.31445 -0.869486 0
M  V30 2902 C 286.519 -1.21337 -1.62496 0
M  V30 2903 C 286.852 0.227872 -1.92858 0
M  V30 2904 O 286.127 1.16094 -1.56053 0
M  V30 2905 C 286.41 -2.05814 -2.95487 0
M  V30 2906 C 286.263 -3.5824 -2.72 0
M  V30 2907 C 287.582 -1.9079 -3.96594 0
M  V30 2908 H 284.701 -0.442135 -0.589649 0
M  V30 2909 H 287.343 -1.6124 -1.00507 0
M  V30 2910 H 285.493 -1.71913 -3.48394 0
M  V30 2911 H 287.165 -4.0228 -2.25762 0
M  V30 2912 H 285.408 -3.81647 -2.06224 0
M  V30 2913 H 286.079 -4.12657 -3.66631 0
M  V30 2914 H 288.555 -2.20459 -3.52898 0
M  V30 2915 H 287.431 -2.52199 -4.87531 0
M  V30 2916 H 287.692 -0.871341 -4.33428 0
M  V30 2917 N 286.751 1.08385 -1.14413 0
M  V30 2918 C 287.701 2.13509 -0.79987 0
M  V30 2919 C 288.685 1.5951 0.211059 0
M  V30 2920 O 289.877 1.76995 0.0133694 0
M  V30 2921 C 287.006 3.42162 -0.279297 0
M  V30 2922 C 286.092 4.03042 -1.31976 0
M  V30 2923 N 286.483 4.38327 -2.52395 0
M  V30 2924 C 284.781 4.30379 -1.17004 0
M  V30 2925 C 285.482 4.86428 -3.19003 0
M  V30 2926 N 284.458 4.84547 -2.46405 0
M  V30 2927 H 288.26 2.38609 -1.7159 0
M  V30 2928 H 285.774 1.2572 -1.02802 0
M  V30 2929 H 287.771 4.16898 -0.0143688 0
M  V30 2930 H 286.431 3.18511 0.630923 0
M  V30 2931 H 287.442 4.29349 -2.89621 0
M  V30 2932 H 284.119 4.16281 -0.318854 0
M  V30 2933 H 285.509 5.23107 -4.21674 0
M  V30 2934 N 288.23 0.939286 1.26551 0
M  V30 2935 C 289.18 0.418284 2.2413 0
M  V30 2936 C 290.164 -0.483935 1.5345 0
M  V30 2937 O 291.356 -0.319489 1.74093 0
M  V30 2938 C 288.485 -0.31709 3.41832 0
M  V30 2939 C 287.571 0.602311 4.19801 0
M  V30 2940 N 287.962 1.72726 4.75394 0
M  V30 2941 C 286.26 0.407534 4.44134 0
M  V30 2942 C 286.961 2.30004 5.34297 0
M  V30 2943 N 285.937 1.58828 5.1988 0
M  V30 2944 H 289.739 1.27705 2.64705 0
M  V30 2945 H 287.253 0.794929 1.41614 0
M  V30 2946 H 289.25 -0.707364 4.10855 0
M  V30 2947 H 287.91 -1.17264 3.02786 0
M  V30 2948 H 288.921 2.10944 4.72994 0
M  V30 2949 H 285.598 -0.406406 4.15517 0
M  V30 2950 H 286.988 3.24778 5.88191 0
M  V30 2951 N 289.708 -1.40897 0.706093 0
M  V30 2952 C 291.119 -1.84023 0.315052 0
M  V30 2953 C 291.47 -1.5906 -1.14866 0
M  V30 2954 O 290.595 -1.06651 -1.88293 0
M  V30 2955 C 291.19 -3.34055 0.565038 0
M  V30 2956 C 289.749 -3.7571 0.227806 0
M  V30 2957 C 288.896 -2.64204 0.842122 0
M  V30 2958 H 291.847 -1.303 0.905963 0
M  V30 2959 H 291.868 -3.80107 -0.172843 0
M  V30 2960 H 291.38 -3.52192 1.63042 0
M  V30 2961 H 289.481 -3.63172 -0.832895 0
M  V30 2962 H 289.594 -4.74103 0.690174 0
M  V30 2963 H 287.958 -2.53255 0.270893 0
M  V30 2964 H 288.741 -2.85155 1.91158 0
M  V30 2965 N 291.186 -0.45159 -1.50991 0
M  V30 2966 C 292.411 0.110667 -2.07105 0
M  V30 2967 C 292.836 1.3446 -1.31538 0
M  V30 2968 O 292.194 1.77743 -0.357365 0
M  V30 2969 C 292.242 0.397238 -3.58405 0
M  V30 2970 O 291.346 1.48124 -3.84881 0
M  V30 2971 H 290.687 -0.00439271 -0.663985 0
M  V30 2972 H 293.217 -0.637026 -1.9443 0
M  V30 2973 H 293.227 0.64351 -4.02893 0
M  V30 2974 H 291.902 -0.504553 -4.12828 0
M  V30 2975 H 290.479 1.22381 -3.52246 0
M  V30 2976 N 292.664 1.56529 -0.183458 0
M  V30 2977 C 293.889 2.02064 0.467428 0
M  V30 2978 C 294.314 1.06282 1.55196 0
M  V30 2979 O 293.672 0.0443565 1.81246 0
M  V30 2980 C 293.72 3.46122 1.01153 0
M  V30 2981 O 292.824 3.53437 2.12499 0
M  V30 2982 H 292.165 0.654726 0.110588 0
M  V30 2983 H 294.695 2.02521 -0.290917 0
M  V30 2984 H 294.705 3.85676 1.33108 0
M  V30 2985 H 293.38 4.15331 0.217533 0
M  V30 2986 H 291.957 3.2575 1.81497 0
M  V30 2987 N 294.142 -0.090211 1.57342 0
M  V30 2988 C 295.419 -0.824761 1.77361 0
M  V30 2989 C 295.799 -1.96698 0.76637 0
M  V30 2990 O 295.147 -2.27586 -0.204179 0
M  V30 2991 C 295.357 -1.31481 3.23286 0
M  V30 2992 C 296.705 -1.75563 3.86604 0
M  V30 2993 O 297.729 -1.41093 3.27065 0
M  V30 2994 O 296.588 -2.39317 4.91314 0
M  V30 2995 H 293.682 -0.393776 0.727234 0
M  V30 2996 H 296.228 -0.0717138 1.69548 0
M  V30 2997 H 295 -0.496671 3.88135 0
M  V30 2998 H 294.623 -2.12973 3.35751 0
M  V30 2999 N 295.62 -1.53406 -0.361157 0
M  V30 3000 C 296.568 -1.80832 -1.46296 0
M  V30 3001 C 297.562 -0.677699 -1.55253 0
M  V30 3002 O 298.768 -0.860723 -1.58087 0
M  V30 3003 H 295.143 -0.572627 -0.487445 0
M  V30 3004 H 297.114 -2.73045 -1.20371 0
M  V30 3005 C 295.863 -2.01907 -2.8307 0
M  V30 3006 H 295.186 -2.88349 -2.76938 0
M  V30 3007 H 296.626 -2.25072 -3.59331 0
M  V30 3008 C 295.085 -0.799449 -3.27277 0
M  V30 3009 O 295.615 0.00971761 -4.01699 0
M  V30 3010 N 293.821 -0.621637 -2.83873 0
M  V30 3011 H 293.368 -1.28126 -2.23476 0
M  V30 3012 H 293.326 0.19298 -3.13807 0
M  V30 3013 N 297.098 0.621204 -1.44841 0
M  V30 3014 C 298.008 1.7612 -1.5498 0
M  V30 3015 C 299.024 1.68477 -0.434927 0
M  V30 3016 O 300.2 1.89076 -0.693693 0
M  V30 3017 C 297.265 3.1254 -1.50065 0
M  V30 3018 C 296.326 3.31741 -2.72482 0
M  V30 3019 C 295.559 4.61653 -2.67792 0
M  V30 3020 O 295.782 5.431 -1.74352 0
M  V30 3021 O 294.716 4.83271 -3.58794 0
M  V30 3022 H 298.542 1.70518 -2.51311 0
M  V30 3023 H 296.127 0.783643 -1.27198 0
M  V30 3024 H 298.009 3.93844 -1.49882 0
M  V30 3025 H 296.684 3.18663 -0.568806 0
M  V30 3026 H 295.591 2.50077 -2.7823 0
M  V30 3027 H 296.924 3.30486 -3.64746 0
M  V30 3028 N 298.576 1.31904 0.862503 0
M  V30 3029 C 299.508 1.16005 1.97675 0
M  V30 3030 C 300.521 0.0971234 1.6251 0
M  V30 3031 O 301.71 0.345337 1.75128 0
M  V30 3032 C 298.81 0.751791 3.30456 0
M  V30 3033 C 297.983 1.90133 3.93914 0
M  V30 3034 C 297.042 1.4779 5.05019 0
M  V30 3035 O 296.068 2.18872 5.25437 0
M  V30 3036 N 297.27 0.369491 5.79323 0
M  V30 3037 H 300.035 2.11982 2.11857 0
M  V30 3038 H 297.596 1.24337 1.03691 0
M  V30 3039 H 299.588 0.451084 4.02178 0
M  V30 3040 H 298.158 -0.116593 3.12382 0
M  V30 3041 H 297.378 2.36896 3.15078 0
M  V30 3042 H 298.666 2.67111 4.33047 0
M  V30 3043 H 298.064 -0.222299 5.65263 0
M  V30 3044 H 296.621 0.128354 6.51674 0
M  V30 3045 N 300.054 -1.07777 1.14986 0
M  V30 3046 C 301.282 -1.84018 0.945773 0
M  V30 3047 C 301.697 -1.81897 -0.505863 0
M  V30 3048 O 301.054 -1.22726 -1.35072 0
M  V30 3049 C 301.105 -3.31287 1.44677 0
M  V30 3050 O 300.826 -3.33449 2.84154 0
M  V30 3051 C 302.327 -4.24311 1.28355 0
M  V30 3052 H 299.547 -0.580716 0.336169 0
M  V30 3053 H 302.091 -1.36077 1.52654 0
M  V30 3054 H 300.246 -3.76594 0.908625 0
M  V30 3055 H 300.66 -4.25427 3.06777 0
M  V30 3056 H 302.134 -5.2573 1.68261 0
M  V30 3057 H 302.611 -4.38612 0.227184 0
M  V30 3058 H 303.217 -3.84836 1.81056 0
M  V30 3059 N 301.532 -0.945985 -1.26051 0
M  V30 3060 C 302.809 -0.513816 -1.88731 0
M  V30 3061 C 303.189 1.00872 -1.8544 0
M  V30 3062 O 302.537 1.8708 -1.312 0
M  V30 3063 C 302.747 -1.08062 -3.31849 0
M  V30 3064 C 304.095 -1.1522 -4.08668 0
M  V30 3065 O 305.119 -1.03155 -3.40936 0
M  V30 3066 O 303.978 -1.34044 -5.29806 0
M  V30 3067 H 301.072 -0.168193 -0.809716 0
M  V30 3068 H 303.618 -1.03886 -1.34186 0
M  V30 3069 H 302.39 -2.1241 -3.2863 0
M  V30 3070 H 302.013 -0.538307 -3.93939 0
M  V30 3071 N 303.011 1.40521 -0.713556 0
M  V30 3072 C 303.941 2.33381 -0.0743864 0
M  V30 3073 C 304.922 1.52784 0.747735 0
M  V30 3074 O 306.107 1.81258 0.697071 0
M  V30 3075 C 303.237 3.36748 0.849598 0
M  V30 3076 C 302.191 4.27793 0.133247 0
M  V30 3077 C 301.517 5.21679 1.17281 0
M  V30 3078 C 302.817 5.12415 -1.01134 0
M  V30 3079 H 304.511 2.87081 -0.850007 0
M  V30 3080 H 302.057 1.38034 -0.410201 0
M  V30 3081 H 304.01 4.00648 1.30612 0
M  V30 3082 H 302.734 2.81439 1.65709 0
M  V30 3083 H 301.393 3.65342 -0.303426 0
M  V30 3084 H 301.041 4.62677 1.9733 0
M  V30 3085 H 300.741 5.83435 0.698397 0
M  V30 3086 H 302.265 5.88456 1.62947 0
M  V30 3087 H 303.679 5.69781 -0.634274 0
M  V30 3088 H 302.076 5.83203 -1.41399 0
M  V30 3089 H 303.146 4.48514 -1.84292 0
M  V30 3090 N 304.489 0.459591 1.5075 0
M  V30 3091 C 305.719 -0.0972338 2.06371 0
M  V30 3092 C 306.127 -1.35074 1.32483 0
M  V30 3093 O 305.47 -1.79637 0.384226 0
M  V30 3094 C 305.532 -0.462759 3.56509 0
M  V30 3095 C 305.196 0.687084 4.51805 0
M  V30 3096 C 306.193 1.56578 4.95761 0
M  V30 3097 C 303.878 0.874144 4.94635 0
M  V30 3098 C 305.872 2.61604 5.81242 0
M  V30 3099 C 303.559 1.92765 5.79901 0
M  V30 3100 C 304.557 2.79697 6.23104 0
M  V30 3101 O 304.245 3.83235 7.06673 0
M  V30 3102 H 303.977 -0.00140687 0.675999 0
M  V30 3103 H 306.531 0.644011 1.95043 0
M  V30 3104 H 304.761 -1.25703 3.65699 0
M  V30 3105 H 306.45 -0.953323 3.94546 0
M  V30 3106 H 307.216 1.4329 4.6335 0
M  V30 3107 H 303.095 0.207006 4.60535 0
M  V30 3108 H 306.639 3.29489 6.14884 0
M  V30 3109 H 302.536 2.06064 6.11725 0
M  V30 3110 H 303.304 3.80084 7.24899 0
M  V30 3111 N 305.967 -1.56429 0.191757 0
M  V30 3112 C 306.914 -2.18936 -0.730454 0
M  V30 3113 C 307.884 -1.13557 -1.21219 0
M  V30 3114 O 309.069 -1.41794 -1.27668 0
M  V30 3115 C 306.209 -2.85013 -1.9458 0
M  V30 3116 C 305.322 -4.04909 -1.50574 0
M  V30 3117 C 304.457 -4.58853 -2.67634 0
M  V30 3118 C 303.496 -5.71114 -2.20217 0
M  V30 3119 N 302.633 -6.19478 -3.30442 0
M  V30 3120 H 307.473 -2.97389 -0.190664 0
M  V30 3121 H 305.01 -1.46869 -0.0823694 0
M  V30 3122 H 306.968 -3.21492 -2.65893 0
M  V30 3123 H 305.598 -2.09129 -2.45896 0
M  V30 3124 H 304.65 -3.74115 -0.688605 0
M  V30 3125 H 305.962 -4.86113 -1.11784 0
M  V30 3126 H 305.116 -4.97619 -3.47074 0
M  V30 3127 H 303.855 -3.76749 -3.09696 0
M  V30 3128 H 302.86 -5.31879 -1.3923 0
M  V30 3129 H 304.085 -6.55033 -1.79189 0
M  V30 3130 H 302.031 -5.40297 -3.72041 0
M  V30 3131 H 301.948 -6.95725 -2.9581 0
M  V30 3132 H 303.216 -6.62898 -4.10106 0
M  V30 3133 N 307.445 0.0818655 -1.57387 0
M  V30 3134 C 308.691 0.784074 -1.8703 0
M  V30 3135 C 309.024 1.77729 -0.782689 0
M  V30 3136 O 308.299 1.93384 0.208051 0
M  V30 3137 C 308.582 1.50105 -3.27323 0
M  V30 3138 C 308.435 0.524925 -4.46727 0
M  V30 3139 C 309.754 2.44843 -3.65705 0
M  V30 3140 H 306.873 0.283582 -0.680257 0
M  V30 3141 H 309.515 0.0474352 -1.89941 0
M  V30 3142 H 307.665 2.12897 -3.24972 0
M  V30 3143 H 309.337 -0.0970111 -4.61198 0
M  V30 3144 H 307.58 -0.160606 -4.33503 0
M  V30 3145 H 308.251 1.064 -5.41648 0
M  V30 3146 H 310.727 1.92135 -3.69085 0
M  V30 3147 H 309.603 2.92018 -4.64776 0
M  V30 3148 H 309.864 3.29197 -2.95096 0
M  V30 3149 N 308.923 1.53595 0.353017 0
M  V30 3150 C 309.886 1.80232 1.41594 0
M  V30 3151 C 310.886 0.673081 1.46035 0
M  V30 3152 O 312.076 0.941335 1.46576 0
M  V30 3153 C 309.208 1.93578 2.80607 0
M  V30 3154 H 310.401 2.75174 1.19244 0
M  V30 3155 H 307.954 1.44864 0.586872 0
M  V30 3156 H 308.689 1.00746 3.08254 0
M  V30 3157 H 308.474 2.75724 2.78781 0
M  V30 3158 H 309.964 2.15735 3.57558 0
M  V30 3159 N 310.401 -0.613514 1.45168 0
M  V30 3160 C 311.629 -1.39946 1.5239 0
M  V30 3161 C 312.044 -1.88167 0.154531 0
M  V30 3162 O 311.401 -1.61872 -0.842843 0
M  V30 3163 C 311.452 -2.60795 2.50337 0
M  V30 3164 O 311.173 -2.1458 3.81952 0
M  V30 3165 C 312.674 -3.53723 2.67198 0
M  V30 3166 H 309.894 -0.428593 0.516284 0
M  V30 3167 H 312.438 -0.748753 1.903 0
M  V30 3168 H 310.593 -3.21919 2.15515 0
M  V30 3169 H 311.007 -2.93055 4.34993 0
M  V30 3170 H 312.481 -4.35079 3.39721 0
M  V30 3171 H 312.958 -4.0368 1.73029 0
M  V30 3172 H 313.564 -2.98456 3.02992 0
M  V30 3173 N 311.879 -1.3236 -0.855495 0
M  V30 3174 C 313.127 -1.22629 -1.60644 0
M  V30 3175 C 313.448 0.212136 -1.93843 0
M  V30 3176 O 312.718 1.13666 -1.59552 0
M  V30 3177 H 311.298 -0.450882 -0.595579 0
M  V30 3178 H 313.96 -1.65871 -1.02337 0
M  V30 3179 H 313.056 -1.80832 -2.54374 0
M  V30 3180 N 313.357 1.07166 -1.15556 0
M  V30 3181 C 314.773 1.31899 -0.898603 0
M  V30 3182 C 314.973 1.96333 0.453383 0
M  V30 3183 O 314.029 2.22438 1.19489 0
M  V30 3184 C 315.342 2.20826 -2.04099 0
M  V30 3185 C 316.89 2.34269 -2.07574 0
M  V30 3186 C 317.365 3.26546 -3.21141 0
M  V30 3187 N 318.856 3.34127 -3.20801 0
M  V30 3188 C 319.591 4.05595 -4.05315 0
M  V30 3189 N 319.087 4.79661 -4.99897 0
M  V30 3190 N 320.88 4.01555 -3.93332 0
M  V30 3191 H 313.031 0.637302 -2.02613 0
M  V30 3192 H 315.294 0.343468 -0.883591 0
M  V30 3193 H 315 1.80744 -3.01703 0
M  V30 3194 H 314.874 3.21364 -1.97496 0
M  V30 3195 H 317.261 2.73603 -1.10568 0
M  V30 3196 H 317.342 1.33429 -2.18244 0
M  V30 3197 H 316.986 2.87931 -4.184 0
M  V30 3198 H 316.916 4.27345 -3.07708 0
M  V30 3199 H 319.407 2.81336 -2.52306 0
M  V30 3200 H 319.72 5.31694 -5.60822 0
M  V30 3201 H 318.065 4.78671 -5.03884 0
M  V30 3202 H 321.256 3.42806 -3.18751 0
M  V30 3203 H 321.429 4.56987 -4.5942 0
M  V30 3204 N 314.835 0.952656 1.25548 0
M  V30 3205 C 316.081 0.607272 1.93494 0
M  V30 3206 C 316.414 -0.853245 1.74452 0
M  V30 3207 O 315.689 -1.61194 1.08843 0
M  V30 3208 C 315.972 0.96435 3.46947 0
M  V30 3209 C 315.825 2.48045 3.75225 0
M  V30 3210 C 317.144 0.487987 4.37386 0
M  V30 3211 H 314.263 0.222096 0.702739 0
M  V30 3212 H 316.905 1.18895 1.48203 0
M  V30 3213 H 315.055 0.469361 3.85654 0
M  V30 3214 H 316.727 3.04905 3.46166 0
M  V30 3215 H 314.97 2.919 3.209 0
M  V30 3216 H 315.641 2.6808 4.82532 0
M  V30 3217 H 318.117 0.912558 4.0597 0
M  V30 3218 H 316.993 0.766547 5.43521 0
M  V30 3219 H 317.254 -0.612063 4.37843 0
M  V30 3220 N 316.313 -1.40141 0.720998 0
M  V30 3221 C 317.541 -2.05096 0.272656 0
M  V30 3222 C 317.956 -1.54334 -1.0875 0
M  V30 3223 O 317.313 -0.702211 -1.6845 0
M  V30 3224 C 317.364 -3.60636 0.249835 0
M  V30 3225 O 317.085 -4.09526 1.55629 0
M  V30 3226 C 318.586 -4.42772 -0.216396 0
M  V30 3227 H 315.806 -0.659897 0.121558 0
M  V30 3228 H 318.35 -1.79449 0.980723 0
M  V30 3229 H 316.505 -3.85232 -0.409237 0
M  V30 3230 H 316.919 -5.03758 1.4604 0
M  V30 3231 H 318.393 -5.51702 -0.181212 0
M  V30 3232 H 318.87 -4.20756 -1.25941 0
M  V30 3233 H 319.476 -4.23294 0.412596 0
M  V30 3234 N 317.792 -0.46758 -1.50504 0
M  V30 3235 C 319.038 0.0887532 -2.02606 0
M  V30 3236 C 319.371 1.39686 -1.34913 0
M  V30 3237 O 318.646 1.88644 -0.473694 0
M  V30 3238 C 318.929 0.276206 -3.59039 0
M  V30 3239 C 318.782 -1.05267 -4.37309 0
M  V30 3240 C 320.101 1.03235 -4.27821 0
M  V30 3241 H 317.22 0.0307814 -0.736357 0
M  V30 3242 H 319.862 -0.612485 -1.79857 0
M  V30 3243 H 318.012 0.8735 -3.78553 0
M  V30 3244 H 319.684 -1.68628 -4.29374 0
M  V30 3245 H 317.927 -1.65015 -4.01189 0
M  V30 3246 H 318.598 -0.875197 -5.45018 0
M  V30 3247 H 321.074 0.526111 -4.12761 0
M  V30 3248 H 319.95 1.1323 -5.37094 0
M  V30 3249 H 320.211 2.06806 -3.90748 0
M  V30 3250 N 319.27 1.56325 -0.20005 0
M  V30 3251 C 320.495 2.02548 0.44597 0
M  V30 3252 C 320.92 1.07922 1.5406 0
M  V30 3253 O 320.278 0.0635775 1.81188 0
M  V30 3254 C 320.326 3.47175 0.974761 0
M  V30 3255 O 319.43 3.55671 2.08739 0
M  V30 3256 H 318.771 0.655862 0.103638 0
M  V30 3257 H 321.301 2.02201 -0.312381 0
M  V30 3258 H 321.311 3.87067 1.2901 0
M  V30 3259 H 319.986 4.15538 0.17347 0
M  V30 3260 H 318.563 3.27657 1.78032 0
M  V30 3261 N 320.748 -0.0735177 1.57428 0
M  V30 3262 C 321.976 -0.785969 1.9139 0
M  V30 3263 C 322.391 -1.71207 0.795847 0
M  V30 3264 O 321.748 -1.81033 -0.230915 0
M  V30 3265 C 321.799 -1.58107 3.25091 0
M  V30 3266 O 321.52 -0.6922 4.32597 0
M  V30 3267 C 323.021 -2.39467 3.73055 0
M  V30 3268 H 320.241 -0.223558 0.632663 0
M  V30 3269 H 322.785 -0.044302 2.04452 0
M  V30 3270 H 320.94 -2.27503 3.13562 0
M  V30 3271 H 321.354 -1.24504 5.09508 0
M  V30 3272 H 322.828 -2.90716 4.69242 0
M  V30 3273 H 323.305 -3.18913 3.01979 0
M  V30 3274 H 323.911 -1.7523 3.87523 0
M  V30 3275 N 322.226 -1.5378 -0.344866 0
M  V30 3276 C 323.642 -1.44015 -0.687888 0
M  V30 3277 C 323.842 -0.595834 -1.92489 0
M  V30 3278 O 322.898 -0.0863064 -2.52352 0
M  V30 3279 C 324.211 -2.87481 -0.881758 0
M  V30 3280 C 325.759 -2.97247 -0.980459 0
M  V30 3281 C 326.234 -4.41819 -1.20665 0
M  V30 3282 N 327.725 -4.45339 -1.27389 0
M  V30 3283 C 328.46 -5.54333 -1.46639 0
M  V30 3284 N 327.956 -6.73335 -1.63071 0
M  V30 3285 N 329.749 -5.41944 -1.49176 0
M  V30 3286 H 321.9 -2.07169 0.468475 0
M  V30 3287 H 324.163 -0.93643 0.147655 0
M  V30 3288 H 323.869 -3.51672 -0.0443444 0
M  V30 3289 H 323.743 -3.32352 -1.78388 0
M  V30 3290 H 326.13 -2.33197 -1.8084 0
M  V30 3291 H 326.211 -2.5574 -0.0552713 0
M  V30 3292 H 325.855 -5.06449 -0.383652 0
M  V30 3293 H 325.785 -4.80917 -2.14539 0
M  V30 3294 H 328.276 -3.59585 -1.1622 0
M  V30 3295 H 328.589 -7.52165 -1.77391 0
M  V30 3296 H 326.934 -6.76282 -1.60209 0
M  V30 3297 H 330.125 -4.47932 -1.3592 0
M  V30 3298 H 330.298 -6.26946 -1.63837 0
M  V30 3299 N 323.704 0.605807 -1.45491 0
M  V30 3300 C 324.929 1.39625 -1.53361 0
M  V30 3301 C 325.354 1.87351 -0.167645 0
M  V30 3302 O 324.712 1.60243 0.848051 0
M  V30 3303 C 324.76 2.57559 -2.5238 0
M  V30 3304 O 323.864 3.58248 -2.04285 0
M  V30 3305 H 323.205 0.416771 -0.516912 0
M  V30 3306 H 325.735 0.737103 -1.90861 0
M  V30 3307 H 325.745 3.0478 -2.71244 0
M  V30 3308 H 324.42 2.22171 -3.51586 0
M  V30 3309 H 322.997 3.17664 -1.95305 0
M  V30 3310 N 325.182 1.32811 0.848464 0
M  V30 3311 C 326.459 1.14334 1.58704 0
M  V30 3312 C 326.839 -0.293948 2.09043 0
M  V30 3313 O 326.187 -1.29153 1.88499 0
M  V30 3314 C 326.397 2.17626 2.72837 0
M  V30 3315 C 327.745 2.51282 3.42261 0
M  V30 3316 O 328.769 2.16219 2.83068 0
M  V30 3317 O 327.628 3.11413 4.49093 0
M  V30 3318 H 324.722 0.441601 0.699226 0
M  V30 3319 H 327.268 1.44362 0.892053 0
M  V30 3320 H 326.04 3.14211 2.3321 0
M  V30 3321 H 325.663 1.88628 3.50008 0
M  V30 3322 N 326.66 -1.06551 1.16123 0
M  V30 3323 C 327.592 -2.13908 0.823171 0
M  V30 3324 C 328.605 -1.61926 -0.16843 0
M  V30 3325 O 329.794 -1.78412 0.055962 0
M  V30 3326 C 326.894 -3.38283 0.204424 0
M  V30 3327 C 326.067 -4.19589 1.23548 0
M  V30 3328 C 325.126 -5.2233 0.637011 0
M  V30 3329 O 324.152 -5.54034 1.30516 0
M  V30 3330 N 325.354 -5.77621 -0.577474 0
M  V30 3331 H 328.119 -2.43508 1.74711 0
M  V30 3332 H 325.68 -1.2253 1.05821 0
M  V30 3333 H 327.672 -4.0416 -0.208909 0
M  V30 3334 H 326.242 -3.06329 -0.623012 0
M  V30 3335 H 325.462 -3.49406 1.82507 0
M  V30 3336 H 326.75 -4.70718 1.93137 0
M  V30 3337 H 326.148 -5.54125 -1.13853 0
M  V30 3338 H 324.705 -6.45087 -0.933053 0
M  V30 3339 N 328.138 -0.959301 -1.25041 0
M  V30 3340 C 329.387 -0.612254 -1.92183 0
M  V30 3341 C 329.7 0.855347 -1.75907 0
M  V30 3342 O 330.906 1.31256 -2.37664 0
M  V30 3343 C 329.362 -1.04435 -3.44414 0
M  V30 3344 C 328.97 -2.53482 -3.69393 0
M  V30 3345 C 330.714 -0.770055 -4.17457 0
M  V30 3346 C 328.621 -2.90468 -5.15153 0
M  V30 3347 H 327.551 -0.225279 -0.719559 0
M  V30 3348 H 330.202 -1.16438 -1.41825 0
M  V30 3349 H 328.584 -0.4206 -3.9376 0
M  V30 3350 H 329.758 -3.20916 -3.30681 0
M  V30 3351 H 328.073 -2.78432 -3.0962 0
M  V30 3352 H 330.67 -1.02249 -5.24832 0
M  V30 3353 H 331.013 0.293611 -4.15263 0
M  V30 3354 H 331.546 -1.35437 -3.74034 0
M  V30 3355 H 328.285 -3.95871 -5.22462 0
M  V30 3356 H 327.805 -2.27711 -5.54894 0
M  V30 3357 H 329.484 -2.79914 -5.83315 0
M  V30 3358 N 329.616 1.39756 -0.72842 0
M  V30 3359 C 330.841 2.05472 -0.282159 0
M  V30 3360 C 331.266 1.54549 1.07221 0
M  V30 3361 O 330.624 0.686372 1.67805 0
M  V30 3362 C 330.672 3.59462 -0.286264 0
M  V30 3363 O 329.776 4.05918 0.728298 0
M  V30 3364 H 329.117 0.651226 -0.129618 0
M  V30 3365 H 331.647 1.78915 -0.992499 0
M  V30 3366 H 331.657 4.07798 -0.128373 0
M  V30 3367 H 330.332 3.95889 -1.27456 0
M  V30 3368 H 328.909 3.69012 0.537081 0
M  V30 3369 N 331.094 0.475555 1.50254 0
M  V30 3370 C 332.343 -0.0795996 2.01543 0
M  V30 3371 C 332.656 -1.4038 1.36209 0
M  V30 3372 O 333.862 -2.04415 1.7868 0
M  V30 3373 C 332.318 -0.192363 3.59386 0
M  V30 3374 C 331.926 1.12367 4.33679 0
M  V30 3375 C 333.67 -0.699238 4.18701 0
M  V30 3376 C 331.577 0.974453 5.83317 0
M  V30 3377 H 330.507 -0.0335228 0.753254 0
M  V30 3378 H 333.158 0.611128 1.73025 0
M  V30 3379 H 331.54 -0.946974 3.84511 0
M  V30 3380 H 332.714 1.88958 4.20276 0
M  V30 3381 H 331.029 1.562 3.85993 0
M  V30 3382 H 333.626 -0.827978 5.28251 0
M  V30 3383 H 333.969 -1.69171 3.80377 0
M  V30 3384 H 334.502 -0.00188807 3.978 0
M  V30 3385 H 331.241 1.94042 6.26121 0
M  V30 3386 H 330.761 0.248998 5.99283 0
M  V30 3387 H 332.44 0.642867 6.43798 0
M  V30 3388 N 332.573 -1.56217 0.208337 0
M  V30 3389 C 333.819 -1.98242 -0.427552 0
M  V30 3390 C 334.152 -1.09554 -1.60348 0
M  V30 3391 O 333.427 -0.15035 -1.93918 0
M  V30 3392 C 333.71 -3.4931 -0.874907 0
M  V30 3393 C 333.563 -4.48773 0.303751 0
M  V30 3394 C 334.882 -4.04424 -1.73577 0
M  V30 3395 H 332.001 -0.720744 -0.153936 0
M  V30 3396 H 334.643 -1.87586 0.30192 0
M  V30 3397 H 332.793 -3.58522 -1.49648 0
M  V30 3398 H 334.465 -4.51586 0.941682 0
M  V30 3399 H 332.708 -4.23194 0.953375 0
M  V30 3400 H 333.379 -5.51976 -0.0519883 0
M  V30 3401 H 335.855 -3.98075 -1.21143 0
M  V30 3402 H 334.731 -5.1047 -2.01771 0
M  V30 3403 H 334.992 -3.50494 -2.69456 0
M  V30 3404 N 334.051 0.0651679 -1.57465 0
M  V30 3405 C 335.462 0.616213 -1.76238 0
M  V30 3406 C 335.813 1.7756 -0.834689 0
M  V30 3407 O 334.938 2.1639 -0.0204156 0
M  V30 3408 C 335.533 1.12462 -3.1959 0
M  V30 3409 C 334.092 1.62147 -3.39684 0
M  V30 3410 C 333.239 0.543739 -2.71917 0
M  V30 3411 H 336.19 -0.161022 -1.57881 0
M  V30 3412 H 336.211 1.99324 -3.24114 0
M  V30 3413 H 335.723 0.280592 -3.87084 0
M  V30 3414 H 333.824 2.48854 -2.77313 0
M  V30 3415 H 333.937 1.69385 -4.48158 0
M  V30 3416 H 332.301 0.990352 -2.34657 0
M  V30 3417 H 333.084 -0.290216 -3.42071 0
M  V30 3418 N 335.529 1.53961 0.336706 0
M  V30 3419 C 336.477 1.83136 1.43401 0
M  V30 3420 C 337.471 0.702313 1.54156 0
M  V30 3421 O 338.677 0.885765 1.56698 0
M  V30 3422 H 335.052 0.580309 0.478273 0
M  V30 3423 H 337.023 2.74925 1.16012 0
M  V30 3424 C 335.772 2.06385 2.79822 0
M  V30 3425 H 335.095 2.92718 2.72316 0
M  V30 3426 H 336.535 2.30761 3.55704 0
M  V30 3427 C 334.994 0.851414 3.25964 0
M  V30 3428 O 335.524 0.0541904 4.01663 0
M  V30 3429 N 333.73 0.66672 2.82848 0
M  V30 3430 H 333.277 1.31665 2.21409 0
M  V30 3431 H 333.235 -0.143032 3.14074 0
M  V30 3432 N 337.007 -0.598083 1.45811 0
M  V30 3433 C 338.256 -1.35295 1.49594 0
M  V30 3434 C 338.569 -1.95057 0.145679 0
M  V30 3435 O 339.775 -2.71431 0.0612099 0
M  V30 3436 C 338.231 -2.45124 2.63519 0
M  V30 3437 C 337.839 -1.91732 4.04899 0
M  V30 3438 C 339.583 -3.2205 2.76558 0
M  V30 3439 C 337.49 -2.991 5.1019 0
M  V30 3440 H 336.42 -0.508552 0.556679 0
M  V30 3441 H 339.071 -0.639977 1.71978 0
M  V30 3442 H 337.453 -3.19149 2.34435 0
M  V30 3443 H 338.627 -1.24352 4.43704 0
M  V30 3444 H 336.942 -1.27522 3.96393 0
M  V30 3445 H 339.539 -4.0215 3.52391 0
M  V30 3446 H 339.882 -3.73663 1.83526 0
M  V30 3447 H 340.415 -2.55127 3.05213 0
M  V30 3448 H 337.154 -2.52393 6.04961 0
M  V30 3449 H 336.674 -3.65017 4.75944 0
M  V30 3450 H 338.353 -3.63318 5.35359 0
M  V30 3451 N 338.485 -1.33259 -0.841409 0
M  V30 3452 C 339.733 -1.24326 -1.59334 0
M  V30 3453 C 340.054 0.191564 -1.94057 0
M  V30 3454 O 339.324 1.11967 -1.60749 0
M  V30 3455 H 337.904 -0.457174 -0.590763 0
M  V30 3456 H 340.566 -1.66947 -1.00571 0
M  V30 3457 H 339.662 -1.8352 -2.52442 0
M  V30 3458 N 339.963 1.05934 -1.16686 0
M  V30 3459 C 341.188 1.83029 -0.975455 0
M  V30 3460 C 341.613 1.82096 0.471452 0
M  V30 3461 O 340.971 1.22443 1.33706 0
M  V30 3462 C 341.019 3.27372 -1.51195 0
M  V30 3463 O 340.123 4.06054 -0.720701 0
M  V30 3464 H 339.464 0.566194 -0.346872 0
M  V30 3465 H 341.994 1.33541 -1.55009 0
M  V30 3466 H 342.004 3.78186 -1.53099 0
M  V30 3467 H 340.679 3.27366 -2.56523 0
M  V30 3468 H 339.256 3.64812 -0.772458 0
M  V30 3469 N 341.441 0.965919 1.2453 0
M  V30 3470 C 342.857 0.67216 1.44756 0
M  V30 3471 C 343.057 -0.766609 1.86347 0
M  V30 3472 O 342.113 -1.5407 2.00047 0
M  V30 3473 C 343.426 1.65473 2.51076 0
M  V30 3474 C 344.974 1.66716 2.64905 0
M  V30 3475 C 345.449 2.63766 3.74421 0
M  V30 3476 N 346.94 2.62198 3.81846 0
M  V30 3477 C 347.675 3.33966 4.66106 0
M  V30 3478 N 347.171 4.15245 5.54566 0
M  V30 3479 N 348.964 3.22799 4.60171 0
M  V30 3480 H 341.115 1.89553 0.958293 0
M  V30 3481 H 343.378 0.815979 0.482579 0
M  V30 3482 H 343.084 2.68296 2.27399 0
M  V30 3483 H 342.958 1.4261 3.49202 0
M  V30 3484 H 345.345 0.646057 2.87941 0
M  V30 3485 H 345.426 1.93642 1.67142 0
M  V30 3486 H 345.07 3.6601 3.52135 0
M  V30 3487 H 345 2.34121 4.71694 0
M  V30 3488 H 347.491 2.032 3.18619 0
M  V30 3489 H 347.804 4.66898 6.15814 0
M  V30 3490 H 346.149 4.1934 5.54237 0
M  V30 3491 H 349.34 2.58764 3.90075 0
M  V30 3492 H 349.513 3.78994 5.25612 0
M  V30 3493 N 342.919 -1.39368 0.735821 0
M  V30 3494 C 344.33 -1.83313 0.354015 0
M  V30 3495 C 344.681 -1.61461 -1.11466 0
M  V30 3496 O 343.806 -1.10621 -1.85989 0
M  V30 3497 C 344.401 -3.32781 0.635769 0
M  V30 3498 C 342.96 -3.75142 0.307448 0
M  V30 3499 C 342.107 -2.62358 0.897974 0
M  V30 3500 H 345.058 -1.28349 0.933398 0
M  V30 3501 H 345.079 -3.80388 -0.0921773 0
M  V30 3502 H 344.591 -3.48654 1.70476 0
M  V30 3503 H 342.692 -3.64857 -0.755674 0
M  V30 3504 H 342.805 -4.72532 0.790583 0
M  V30 3505 H 341.169 -2.52624 0.324551 0
M  V30 3506 H 341.952 -2.81036 1.97164 0
M  V30 3507 N 344.397 -0.483516 -1.5 0
M  V30 3508 C 345.813 -0.138404 -1.58999 0
M  V30 3509 C 346.013 1.35597 -1.4905 0
M  V30 3510 O 345.069 2.13039 -1.35539 0
M  V30 3511 C 346.382 -0.699658 -2.92447 0
M  V30 3512 C 347.93 -0.664195 -3.05872 0
M  V30 3513 C 348.405 -1.20321 -4.41913 0
M  V30 3514 N 349.896 -1.16315 -4.48358 0
M  V30 3515 C 350.631 -1.55058 -5.52037 0
M  V30 3516 N 350.127 -2.01311 -6.62907 0
M  V30 3517 N 351.92 -1.46584 -5.42651 0
M  V30 3518 H 344.071 -1.45529 -1.5471 0
M  V30 3519 H 346.334 -0.60258 -0.731848 0
M  V30 3520 H 346.04 -1.747 -3.05242 0
M  V30 3521 H 345.914 -0.150194 -3.76901 0
M  V30 3522 H 348.301 0.374272 -2.92717 0
M  V30 3523 H 348.382 -1.25061 -2.23144 0
M  V30 3524 H 348.026 -2.24037 -4.55818 0
M  V30 3525 H 347.956 -0.592896 -5.23252 0
M  V30 3526 H 350.447 -0.824058 -3.68806 0
M  V30 3527 H 350.76 -2.2899 -7.38095 0
M  V30 3528 H 349.105 -2.05273 -6.63994 0
M  V30 3529 H 352.296 -1.10281 -4.54924 0
M  V30 3530 H 352.469 -1.77103 -6.23329 0
M  V30 3531 N 345.875 1.56104 -0.216619 0
M  V30 3532 C 347.121 1.98466 0.417033 0
M  V30 3533 C 347.454 1.10403 1.59765 0
M  V30 3534 O 346.729 0.160632 1.93836 0
M  V30 3535 C 347.012 3.49769 0.85637 0
M  V30 3536 C 346.865 4.48606 -0.327546 0
M  V30 3537 C 348.184 4.05339 1.7143 0
M  V30 3538 H 345.303 0.721551 0.150112 0
M  V30 3539 H 347.945 1.87423 -0.311864 0
M  V30 3540 H 346.095 3.5931 1.47745 0
M  V30 3541 H 347.767 4.5108 -0.965618 0
M  V30 3542 H 346.01 4.22682 -0.975805 0
M  V30 3543 H 346.681 5.51995 0.0227149 0
M  V30 3544 H 349.157 3.98712 1.19031 0
M  V30 3545 H 348.033 5.11533 1.99061 0
M  V30 3546 H 348.294 3.51918 2.67593 0
M  V30 3547 N 347.353 -0.0568162 1.57498 0
M  V30 3548 C 348.769 -0.411933 1.54192 0
M  V30 3549 C 348.969 -1.78287 0.938942 0
M  V30 3550 O 348.025 -2.46483 0.547919 0
M  V30 3551 C 349.338 -0.339244 2.9878 0
M  V30 3552 C 350.886 -0.418348 3.10192 0
M  V30 3553 C 351.361 -0.375407 4.56459 0
M  V30 3554 N 352.852 -0.435038 4.61153 0
M  V30 3555 C 353.587 -0.424265 5.71828 0
M  V30 3556 N 353.083 -0.367418 6.91825 0
M  V30 3557 N 354.876 -0.471938 5.60115 0
M  V30 3558 H 347.027 0.840684 1.95055 0
M  V30 3559 H 349.29 0.316987 0.893433 0
M  V30 3560 H 348.996 0.601742 3.46514 0
M  V30 3561 H 348.87 -1.14371 3.59443 0
M  V30 3562 H 351.257 -1.34976 2.62422 0
M  V30 3563 H 351.338 0.414962 2.52412 0
M  V30 3564 H 350.982 0.552219 5.04889 0
M  V30 3565 H 350.912 -1.22645 5.12119 0
M  V30 3566 H 353.403 -0.482612 3.74806 0
M  V30 3567 H 353.716 -0.363535 7.71944 0
M  V30 3568 H 352.061 -0.333879 6.94198 0
M  V30 3569 H 355.252 -0.514145 4.65268 0
M  V30 3570 H 355.425 -0.460073 6.46365 0
M  V30 3571 N 348.832 -1.54138 -0.328536 0
M  V30 3572 C 349.78 -1.83894 -1.42428 0
M  V30 3573 C 350.774 -0.710478 -1.53781 0
M  V30 3574 O 351.98 -0.894062 -1.56226 0
M  V30 3575 H 348.355 -0.582837 -0.475189 0
M  V30 3576 H 350.326 -2.75537 -1.14552 0
M  V30 3577 C 349.075 -2.07866 -2.78724 0
M  V30 3578 H 348.398 -2.94158 -2.7076 0
M  V30 3579 H 349.838 -2.32644 -3.54476 0
M  V30 3580 C 348.297 -0.868689 -3.25508 0
M  V30 3581 O 348.827 -0.0754908 -4.01629 0
M  V30 3582 N 347.033 -0.681711 -2.82491 0
M  V30 3583 H 346.58 -1.32838 -2.20708 0
M  V30 3584 H 346.538 0.126374 -3.14146 0
M  V30 3585 N 350.31 0.590341 -1.46126 0
M  V30 3586 C 351.242 1.71427 -1.52136 0
M  V30 3587 C 352.255 1.57542 -0.41042 0
M  V30 3588 O 353.444 1.65106 -0.678389 0
M  V30 3589 C 350.544 3.09605 -1.37834 0
M  V30 3590 C 349.717 3.49566 -2.62912 0
M  V30 3591 C 348.776 4.66773 -2.42918 0
M  V30 3592 O 347.802 4.73019 -3.1661 0
M  V30 3593 N 349.004 5.61161 -1.4859 0
M  V30 3594 H 351.769 1.66728 -2.49042 0
M  V30 3595 H 349.33 0.776113 -1.42085 0
M  V30 3596 H 351.322 3.85796 -1.22243 0
M  V30 3597 H 349.892 3.08714 -0.491393 0
M  V30 3598 H 349.112 2.63158 -2.93499 0
M  V30 3599 H 350.4 3.73028 -3.46017 0
M  V30 3600 H 349.798 5.58844 -0.87808 0
M  V30 3601 H 348.355 6.36814 -1.38965 0
M  V30 3602 N 351.788 1.33704 0.83433 0
M  V30 3603 C 353.013 1.28615 1.62705 0
M  V30 3604 C 353.438 -0.139242 1.87584 0
M  V30 3605 O 352.796 -1.09734 1.4432 0
M  V30 3606 C 352.844 2.07139 2.95171 0
M  V30 3607 O 351.948 1.4331 3.86699 0
M  V30 3608 H 351.289 0.44226 0.49528 0
M  V30 3609 H 353.819 1.76335 1.03766 0
M  V30 3610 H 353.829 2.18073 3.44831 0
M  V30 3611 H 352.504 3.10779 2.76386 0
M  V30 3612 H 351.081 1.4105 3.45195 0
M  V30 3613 N 353.266 -1.05314 1.17247 0
M  V30 3614 C 354.514 -1.77941 0.958194 0
M  V30 3615 C 354.835 -1.88089 -0.514556 0
M  V30 3616 O 354.105 -1.39676 -1.37359 0
M  V30 3617 H 352.685 -0.659116 0.351533 0
M  V30 3618 H 355.347 -1.27166 1.47699 0
M  V30 3619 H 354.443 -2.79663 1.38546 0
M  V30 3620 N 354.744 -0.972509 -1.24016 0
M  V30 3621 C 356.16 -0.679827 -1.44397 0
M  V30 3622 C 356.36 0.756716 -1.86751 0
M  V30 3623 O 355.416 1.53007 -2.00861 0
M  V30 3624 C 356.729 -1.66803 -2.50195 0
M  V30 3625 C 358.277 -1.68119 -2.64017 0
M  V30 3626 C 358.752 -2.65748 -3.73017 0
M  V30 3627 N 360.243 -2.64219 -3.8045 0
M  V30 3628 C 360.978 -3.36433 -4.64328 0
M  V30 3629 N 360.474 -4.1818 -5.52356 0
M  V30 3630 N 362.267 -3.25235 -4.58453 0
M  V30 3631 H 354.418 -1.90059 -0.948228 0
M  V30 3632 H 356.681 -0.818527 -0.478245 0
M  V30 3633 H 356.387 -2.69498 -2.25973 0
M  V30 3634 H 356.261 -1.4446 -3.48441 0
M  V30 3635 H 358.648 -0.661319 -2.87594 0
M  V30 3636 H 358.729 -1.94525 -1.66113 0
M  V30 3637 H 358.373 -3.67872 -3.50189 0
M  V30 3638 H 358.303 -2.36619 -4.70446 0
M  V30 3639 H 360.794 -2.04887 -3.17537 0
M  V30 3640 H 361.107 -4.70157 -6.13329 0
M  V30 3641 H 359.452 -4.22273 -5.52006 0
M  V30 3642 H 362.643 -2.60829 -3.88698 0
M  V30 3643 H 362.816 -3.81776 -5.23594 0
M  V30 3644 N 356.222 1.38976 -0.743202 0
M  V30 3645 C 357.471 1.99581 -0.291592 0
M  V30 3646 C 357.784 1.59656 1.13001 0
M  V30 3647 O 358.99 2.13157 1.68156 0
M  V30 3648 C 357.446 3.56813 -0.470391 0
M  V30 3649 C 357.054 4.05695 -1.90041 0
M  V30 3650 C 358.798 4.24423 -0.0809709 0
M  V30 3651 C 356.705 5.5553 -2.02832 0
M  V30 3652 H 355.635 0.746615 -0.105272 0
M  V30 3653 H 358.286 1.58872 -0.918258 0
M  V30 3654 H 356.668 3.95359 0.225299 0
M  V30 3655 H 357.842 3.78464 -2.62872 0
M  V30 3656 H 356.157 3.50775 -2.24379 0
M  V30 3657 H 358.754 5.34474 -0.155445 0
M  V30 3658 H 359.097 4.04962 0.96497 0
M  V30 3659 H 359.63 3.9108 -0.728124 0
M  V30 3660 H 356.369 5.79881 -3.05643 0
M  V30 3661 H 355.889 5.84537 -1.34448 0
M  V30 3662 H 357.568 6.21069 -1.81335 0
M  V30 3663 N 357.7 0.491464 1.49741 0
M  V30 3664 C 358.925 -0.0557177 2.07325 0
M  V30 3665 C 359.35 -1.30925 1.35056 0
M  V30 3666 O 358.708 -1.76733 0.404365 0
M  V30 3667 C 358.756 -0.302074 3.59333 0
M  V30 3668 O 357.86 -1.37868 3.88672 0
M  V30 3669 H 357.201 0.0219956 0.663636 0
M  V30 3670 H 359.731 0.688352 1.92673 0
M  V30 3671 H 359.741 -0.536464 4.04458 0
M  V30 3672 H 358.416 0.61383 4.11345 0
M  V30 3673 H 356.993 -1.12999 3.55367 0
M  V30 3674 N 359.178 -1.55987 0.224894 0
M  V30 3675 C 360.427 -1.97566 -0.406273 0
M  V30 3676 C 360.74 -1.11569 -1.6066 0
M  V30 3677 O 361.946 -1.43062 -2.3075 0
M  V30 3678 C 360.402 -3.51474 -0.774207 0
M  V30 3679 C 360.01 -4.46179 0.403496 0
M  V30 3680 C 361.754 -4.01758 -1.37079 0
M  V30 3681 C 359.661 -5.91399 0.0129412 0
M  V30 3682 H 358.591 -0.737777 -0.155565 0
M  V30 3683 H 361.242 -1.80659 0.321635 0
M  V30 3684 H 359.624 -3.63994 -1.55963 0
M  V30 3685 H 360.798 -4.45409 1.18101 0
M  V30 3686 H 359.113 -4.06255 0.913536 0
M  V30 3687 H 361.71 -5.07756 -1.67596 0
M  V30 3688 H 362.053 -3.47805 -2.28773 0
M  V30 3689 H 362.586 -3.92475 -0.648733 0
M  V30 3690 H 359.325 -6.49341 0.896451 0
M  V30 3691 H 358.845 -5.95356 -0.728821 0
M  V30 3692 H 360.524 -6.45683 -0.412582 0
M  V30 3693 N 360.656 0.0484629 -1.57525 0
M  V30 3694 C 361.886 0.754326 -1.92337 0
M  V30 3695 C 362.294 1.70443 -0.82132 0
M  V30 3696 O 361.637 1.82466 0.21254 0
M  V30 3697 C 361.699 1.58231 -3.22805 0
M  V30 3698 C 361.363 0.799074 -4.4996 0
M  V30 3699 C 362.36 0.1079 -5.19788 0
M  V30 3700 C 360.045 0.759345 -4.96527 0
M  V30 3701 C 362.039 -0.612516 -6.3445 0
M  V30 3702 C 359.726 0.0351713 -6.1109 0
M  V30 3703 C 360.724 -0.649537 -6.79904 0
M  V30 3704 O 360.412 -1.36199 -7.92278 0
M  V30 3705 H 360.144 0.218257 -0.639797 0
M  V30 3706 H 362.698 0.0159295 -2.05394 0
M  V30 3707 H 360.928 2.36406 -3.06021 0
M  V30 3708 H 362.617 2.16898 -3.43089 0
M  V30 3709 H 363.383 0.129748 -4.84826 0
M  V30 3710 H 359.262 1.28177 -4.42822 0
M  V30 3711 H 362.806 -1.14751 -6.88097 0
M  V30 3712 H 358.703 0.0113314 -6.45499 0
M  V30 3713 H 359.471 -1.27366 -8.0853 0
M  V30 3714 N 362.134 1.5431 0.320358 0
M  V30 3715 C 363.38 1.73859 1.05568 0
M  V30 3716 C 363.735 0.507807 1.85578 0
M  V30 3717 O 363.028 -0.499789 1.84967 0
M  V30 3718 C 363.222 2.95639 2.00828 0
M  V30 3719 C 363.051 4.30444 1.30186 0
M  V30 3720 C 361.821 4.94544 1.03703 0
M  V30 3721 C 364.019 5.0929 0.716138 0
M  V30 3722 N 362.001 6.13172 0.298846 0
M  V30 3723 C 363.372 6.19903 0.109729 0
M  V30 3724 C 365.427 4.94034 0.619269 0
M  V30 3725 C 364.13 7.16924 -0.584153 0
M  V30 3726 C 366.156 5.91369 -0.0609184 0
M  V30 3727 C 365.518 7.01336 -0.656258 0
M  V30 3728 H 361.617 0.688988 0.36989 0
M  V30 3729 H 364.201 1.9177 0.336494 0
M  V30 3730 H 362.372 2.79188 2.70016 0
M  V30 3731 H 364.104 3.03802 2.6737 0
M  V30 3732 H 360.859 4.54536 1.33019 0
M  V30 3733 H 361.283 6.76977 -0.0561964 0
M  V30 3734 H 365.925 4.0916 1.06526 0
M  V30 3735 H 363.643 8.01354 -1.04197 0
M  V30 3736 H 367.229 5.81642 -0.135552 0
M  V30 3737 H 366.109 7.75359 -1.17423 0
M  V30 3738 N 363.613 -0.582584 1.46437 0
M  V30 3739 C 364.841 -1.36682 1.55324 0
M  V30 3740 C 365.256 -1.87796 0.194409 0
M  V30 3741 O 364.613 -1.63623 -0.808318 0
M  V30 3742 C 364.664 -2.55426 2.55812 0
M  V30 3743 O 364.385 -2.0643 3.86417 0
M  V30 3744 C 365.886 -3.47976 2.74641 0
M  V30 3745 H 363.106 -0.417545 0.525259 0
M  V30 3746 H 365.65 -0.708219 1.91845 0
M  V30 3747 H 363.805 -3.17275 2.22295 0
M  V30 3748 H 364.219 -2.83762 4.41111 0
M  V30 3749 H 365.693 -4.27775 3.48874 0
M  V30 3750 H 366.17 -3.99919 1.81553 0
M  V30 3751 H 366.776 -2.91962 3.09255 0
M  V30 3752 N 365.091 -1.34144 -0.827227 0
M  V30 3753 C 366.021 -1.28005 -1.95287 0
M  V30 3754 C 367.002 -0.158321 -1.69362 0
M  V30 3755 O 368.187 -0.349987 -1.9102 0
M  V30 3756 C 365.317 -1.03036 -3.31664 0
M  V30 3757 C 364.271 -2.11628 -3.72019 0
M  V30 3758 C 363.597 -1.71854 -5.0633 0
M  V30 3759 C 364.897 -3.53417 -3.8457 0
M  V30 3760 H 366.591 -2.22187 -2.00682 0
M  V30 3761 H 364.137 -1.0696 -0.964135 0
M  V30 3762 H 366.09 -0.973863 -4.09993 0
M  V30 3763 H 364.814 -0.0529391 -3.26557 0
M  V30 3764 H 363.473 -2.16339 -2.95961 0
M  V30 3765 H 363.121 -0.727841 -4.97706 0
M  V30 3766 H 362.821 -2.44531 -5.34302 0
M  V30 3767 H 364.345 -1.67692 -5.87122 0
M  V30 3768 H 365.759 -3.51142 -4.5318 0
M  V30 3769 H 364.156 -4.24679 -4.2399 0
M  V30 3770 H 365.226 -3.91072 -2.86689 0
M  V30 3771 N 366.569 1.04691 -1.17803 0
M  V30 3772 C 367.815 1.78045 -0.970969 0
M  V30 3773 C 368.148 1.87686 0.498751 0
M  V30 3774 O 367.423 1.38035 1.37027 0
M  V30 3775 C 367.706 3.2166 -1.61884 0
M  V30 3776 C 367.559 3.20001 -3.161 0
M  V30 3777 C 368.878 4.1962 -1.3269 0
M  V30 3778 H 365.997 0.64633 -0.354155 0
M  V30 3779 H 368.639 1.22333 -1.45378 0
M  V30 3780 H 366.789 3.69232 -1.20831 0
M  V30 3781 H 368.461 2.80467 -3.66246 0
M  V30 3782 H 366.704 2.58203 -3.48588 0
M  V30 3783 H 367.375 4.21386 -3.56564 0
M  V30 3784 H 369.851 3.80567 -1.68249 0
M  V30 3785 H 368.727 5.18339 -1.80599 0
M  V30 3786 H 368.988 4.414 -0.248622 0
M  V30 3787 N 368.047 0.979072 1.23499 0
M  V30 3788 C 368.995 0.510604 2.26926 0
M  V30 3789 C 369.989 -0.431691 1.63807 0
M  V30 3790 O 371.195 -0.30573 1.77385 0
M  V30 3791 H 367.57 0.146688 0.737554 0
M  V30 3792 H 369.541 1.39466 2.63803 0
M  V30 3793 C 368.29 -0.172658 3.47271 0
M  V30 3794 H 367.613 0.543331 3.96091 0
M  V30 3795 H 369.053 -0.464101 4.21452 0
M  V30 3796 C 367.512 -1.40345 3.06276 0
M  V30 3797 O 368.042 -2.49978 3.14442 0
M  V30 3798 N 366.248 -1.27362 2.61203 0
M  V30 3799 H 365.795 -0.381584 2.54758 0
M  V30 3800 H 365.753 -2.09822 2.34141 0
M  V30 3801 N 369.525 -1.3858 0.750561 0
M  V30 3802 C 370.936 -1.82927 0.373438 0
M  V30 3803 C 371.287 -1.62634 -1.09748 0
M  V30 3804 O 370.412 -1.12588 -1.84805 0
M  V30 3805 C 371.007 -3.32088 0.671029 0
M  V30 3806 C 369.566 -3.74795 0.34722 0
M  V30 3807 C 368.713 -2.61391 0.92575 0
M  V30 3808 H 371.664 -1.27351 0.946958 0
M  V30 3809 H 371.685 -3.80465 -0.0518269 0
M  V30 3810 H 371.197 -3.46826 1.74164 0
M  V30 3811 H 369.298 -3.65638 -0.716933 0
M  V30 3812 H 369.411 -4.71667 0.840656 0
M  V30 3813 H 367.775 -2.52265 0.351327 0
M  V30 3814 H 368.558 -2.78929 2.00133 0
M  V30 3815 N 371.003 -0.499398 -1.49478 0
M  V30 3816 C 372.251 0.0455996 -2.02049 0
M  V30 3817 C 372.572 1.37633 -1.38138 0
M  V30 3818 O 371.842 1.8842 -0.536166 0
M  V30 3819 H 370.422 0.0198416 -0.746736 0
M  V30 3820 H 373.084 -0.656274 -1.83519 0
M  V30 3821 H 372.18 0.176445 -3.11601 0
M  V30 3822 N 372.481 1.55866 -0.233164 0
M  V30 3823 C 373.758 1.90471 0.444988 0
M  V30 3824 C 374.138 1.15209 1.7689 0
M  V30 3825 O 373.486 0.265119 2.26957 0
M  V30 3826 C 373.696 3.4333 0.626559 0
M  V30 3827 C 375.044 4.14319 0.92871 0
M  V30 3828 O 376.068 3.48993 0.712926 0
M  V30 3829 O 374.927 5.29846 1.33887 0
M  V30 3830 H 372.021 0.792347 0.236885 0
M  V30 3831 H 374.567 1.67437 -0.276211 0
M  V30 3832 H 373.339 3.90095 -0.306822 0
M  V30 3833 H 372.962 3.72181 1.39881 0
M  V30 3834 N 373.959 -0.0401083 1.57549 0
M  V30 3835 C 375.184 -0.748931 1.93406 0
M  V30 3836 C 375.609 -1.68686 0.832274 0
M  V30 3837 O 374.967 -1.80047 -0.212818 0
M  V30 3838 C 375.015 -1.4916 3.28304 0
M  V30 3839 O 374.119 -2.6042 3.19774 0
M  V30 3840 H 373.46 -0.202212 0.63246 0
M  V30 3841 H 375.99 0.00112086 2.046 0
M  V30 3842 H 376 -1.86395 3.62934 0
M  V30 3843 H 374.675 -0.80364 4.08062 0
M  V30 3844 H 373.252 -2.25808 2.96758 0
M  V30 3845 N 375.437 -1.54477 -0.31217 0
M  V30 3846 C 376.686 -1.72438 -1.04633 0
M  V30 3847 C 376.999 -0.511163 -1.88803 0
M  V30 3848 O 378.205 -0.572341 -2.65399 0
M  V30 3849 C 376.661 -3.05043 -1.9099 0
M  V30 3850 C 376.269 -4.33806 -1.11877 0
M  V30 3851 C 378.013 -3.32364 -2.64073 0
M  V30 3852 C 375.92 -5.57467 -1.97445 0
M  V30 3853 H 374.85 -0.642647 -0.394361 0
M  V30 3854 H 377.501 -1.80966 -0.303929 0
M  V30 3855 H 375.883 -2.90451 -2.69173 0
M  V30 3856 H 377.057 -4.59199 -0.383843 0
M  V30 3857 H 375.372 -4.13336 -0.504252 0
M  V30 3858 H 377.969 -4.21951 -3.28423 0
M  V30 3859 H 378.312 -2.50745 -3.32314 0
M  V30 3860 H 378.845 -3.47875 -1.92944 0
M  V30 3861 H 375.584 -6.41722 -1.33692 0
M  V30 3862 H 375.104 -5.36277 -2.6864 0
M  V30 3863 H 376.783 -5.94303 -2.5576 0
M  V30 3864 N 376.915 0.57481 -1.46744 0
M  V30 3865 C 378.164 1.32898 -1.51727 0
M  V30 3866 C 378.477 1.948 -0.176692 0
M  V30 3867 O 379.683 2.71299 -0.104385 0
M  V30 3868 C 378.139 2.40901 -2.67385 0
M  V30 3869 C 377.747 1.85266 -4.07898 0
M  V30 3870 C 379.491 3.17609 -2.81646 0
M  V30 3871 C 377.398 2.90945 -5.14883 0
M  V30 3872 H 376.328 0.499631 -0.564699 0
M  V30 3873 H 378.979 0.612536 -1.72975 0
M  V30 3874 H 377.361 3.15379 -2.39483 0
M  V30 3875 H 378.535 1.17278 -4.45626 0
M  V30 3876 H 376.85 1.21199 -3.98371 0
M  V30 3877 H 379.447 3.96493 -3.58744 0
M  V30 3878 H 379.79 3.70696 -1.89448 0
M  V30 3879 H 380.323 2.50239 -3.09233 0
M  V30 3880 H 377.062 2.42736 -6.089 0
M  V30 3881 H 376.582 3.57398 -4.81691 0
M  V30 3882 H 378.261 3.54755 -5.41071 0
M  V30 3883 N 378.394 1.34581 0.820102 0
M  V30 3884 C 379.641 1.27096 1.57648 0
M  V30 3885 C 379.969 -0.158317 1.93855 0
M  V30 3886 O 379.224 -1.12028 1.60463 0
M  V30 3887 C 379.523 2.10997 2.8847 0
M  V30 3888 C 379.189 3.59966 2.71543 0
M  V30 3889 C 377.851 4.00575 2.66634 0
M  V30 3890 C 380.203 4.54548 2.55021 0
M  V30 3891 C 377.531 5.33953 2.43128 0
M  V30 3892 C 379.883 5.88109 2.33047 0
M  V30 3893 C 378.547 6.27878 2.26552 0
M  V30 3894 H 377.817 0.465078 0.576874 0
M  V30 3895 H 380.464 1.6635 0.948671 0
M  V30 3896 H 378.769 1.6458 3.55557 0
M  V30 3897 H 380.466 2.0255 3.46084 0
M  V30 3898 H 377.056 3.27733 2.76205 0
M  V30 3899 H 381.24 4.24069 2.57835 0
M  V30 3900 H 376.496 5.63781 2.3656 0
M  V30 3901 H 380.67 6.60985 2.19251 0
M  V30 3902 H 378.297 7.31162 2.081 0
M  V30 3903 N 379.872 -1.04064 1.18357 0
M  V30 3904 C 380.82 -2.14187 0.907007 0
M  V30 3905 C 381.814 -1.68879 -0.132725 0
M  V30 3906 O 383.02 -1.79993 0.0154248 0
M  V30 3907 H 379.395 -0.699585 0.275835 0
M  V30 3908 H 381.366 -2.34711 1.84264 0
M  V30 3909 C 380.115 -3.44785 0.449254 0
M  V30 3910 H 379.438 -3.80058 1.24081 0
M  V30 3911 H 380.878 -4.22974 0.294737 0
M  V30 3912 C 379.337 -3.26391 -0.834909 0
M  V30 3913 O 379.867 -3.53973 -1.89911 0
M  V30 3914 N 378.073 -2.79726 -0.787523 0
M  V30 3915 H 377.62 -2.5748 0.0787347 0
M  V30 3916 H 377.578 -2.67798 -1.64716 0
M  V30 3917 N 381.35 -0.985608 -1.22978 0
M  V30 3918 C 382.575 -0.675254 -1.961 0
M  V30 3919 C 383 0.752154 -1.72407 0
M  V30 3920 O 382.358 1.5131 -0.998751 0
M  V30 3921 C 382.406 -0.977899 -3.47087 0
M  V30 3922 O 381.51 -0.072685 -4.12336 0
M  V30 3923 H 380.851 -0.253443 -0.613728 0
M  V30 3924 H 383.381 -1.32061 -1.56272 0
M  V30 3925 H 383.391 -0.916739 -3.97567 0
M  V30 3926 H 382.066 -2.01807 -3.63657 0
M  V30 3927 H 380.643 -0.188703 -3.72422 0
M  V30 3928 N 382.828 1.3818 -0.7579 0
M  V30 3929 C 384.077 1.99261 -0.312744 0
M  V30 3930 C 384.39 1.60846 1.11301 0
M  V30 3931 O 385.596 2.14929 1.65885 0
M  V30 3932 C 384.052 3.56294 -0.50821 0
M  V30 3933 C 383.66 4.03657 -1.94333 0
M  V30 3934 C 385.404 4.24313 -0.125982 0
M  V30 3935 C 383.311 5.53347 -2.08712 0
M  V30 3936 H 382.241 0.745456 -0.113185 0
M  V30 3937 H 384.892 1.57889 -0.935056 0
M  V30 3938 H 383.274 3.95575 0.183353 0
M  V30 3939 H 384.448 3.75655 -2.66871 0
M  V30 3940 H 382.763 3.48376 -2.28086 0
M  V30 3941 H 385.36 5.34279 -0.212125 0
M  V30 3942 H 385.703 4.05962 0.921964 0
M  V30 3943 H 386.236 3.90285 -0.769563 0
M  V30 3944 H 382.975 5.76607 -3.11777 0
M  V30 3945 H 382.495 5.83078 -1.4064 0
M  V30 3946 H 384.174 6.19111 -1.87912 0
M  V30 3947 N 384.306 0.507319 1.49211 0
M  V30 3948 C 385.554 -0.0348839 2.0207 0
M  V30 3949 C 385.875 -1.36898 1.38866 0
M  V30 3950 O 385.145 -1.88133 0.546151 0
M  V30 3951 H 383.725 -0.0158812 0.746831 0
M  V30 3952 H 386.387 0.665998 1.83168 0
M  V30 3953 H 385.483 -0.159917 3.1169 0
M  V30 3954 N 385.784 -1.5574 0.241426 0
M  V30 3955 C 386.732 -2.22538 -0.676718 0
M  V30 3956 C 387.726 -1.21117 -1.18436 0
M  V30 3957 O 388.932 -1.39144 -1.14188 0
M  V30 3958 H 385.307 -0.713776 -0.236701 0
M  V30 3959 H 387.278 -2.98264 -0.0901187 0
M  V30 3960 C 386.027 -2.93439 -1.86518 0
M  V30 3961 H 385.35 -3.7125 -1.4837 0
M  V30 3962 H 386.79 -3.43549 -2.48495 0
M  V30 3963 C 385.249 -1.97008 -2.73294 0
M  V30 3964 O 385.779 -1.49965 -3.72657 0
M  V30 3965 N 383.985 -1.64227 -2.39745 0
M  V30 3966 H 383.532 -2.02677 -1.58996 0
M  V30 3967 H 383.49 -0.999708 -2.98083 0
M  V30 3968 N 387.262 0.0317525 -1.57568 0
M  V30 3969 C 388.192 1.03274 -2.0942 0
M  V30 3970 C 389.173 1.3788 -0.996143 0
M  V30 3971 O 390.358 1.46811 -1.27122 0
M  V30 3972 C 387.488 2.33448 -2.57137 0
M  V30 3973 C 386.442 2.13091 -3.71182 0
M  V30 3974 C 385.768 3.49001 -4.05095 0
M  V30 3975 C 387.068 1.51928 -4.99715 0
M  V30 3976 H 388.762 0.60112 -2.93303 0
M  V30 3977 H 386.308 0.287705 -1.41097 0
M  V30 3978 H 388.261 3.03802 -2.92032 0
M  V30 3979 H 386.985 2.78665 -1.70333 0
M  V30 3980 H 385.644 1.45171 -3.36632 0
M  V30 3981 H 385.292 3.91862 -3.15362 0
M  V30 3982 H 384.992 3.36207 -4.81911 0
M  V30 3983 H 386.516 4.20721 -4.42522 0
M  V30 3984 H 387.93 2.12196 -5.32584 0
M  V30 3985 H 386.327 1.49716 -5.81124 0
M  V30 3986 H 387.397 0.484811 -4.8247 0
M  V30 3987 N 388.74 1.54641 0.303973 0
M  V30 3988 C 389.989 1.7299 1.03717 0
M  V30 3989 C 390.302 0.521168 1.88529 0
M  V30 3990 O 391.508 0.586408 2.65092 0
M  V30 3991 C 389.964 3.06051 1.89369 0
M  V30 3992 C 389.572 4.34393 1.09574 0
M  V30 3993 C 391.316 3.3376 2.62306 0
M  V30 3994 C 389.223 5.58506 1.94486 0
M  V30 3995 H 388.153 0.64473 0.390947 0
M  V30 3996 H 390.804 1.81124 0.294328 0
M  V30 3997 H 389.186 2.91874 2.67629 0
M  V30 3998 H 390.36 4.59396 0.359485 0
M  V30 3999 H 388.675 4.13597 0.482324 0
M  V30 4000 H 391.272 4.23687 3.26181 0
M  V30 4001 H 391.615 2.52503 3.3098 0
M  V30 4002 H 392.148 3.48894 1.91097 0
M  V30 4003 H 388.887 6.42422 1.30287 0
M  V30 4004 H 388.407 5.37694 2.65792 0
M  V30 4005 H 390.086 5.95651 2.52605 0
M  V30 4006 N 390.218 -0.567019 1.47046 0
M  V30 4007 C 391.181 -1.65696 1.58359 0
M  V30 4008 C 392.181 -1.54097 0.459441 0
M  V30 4009 O 393.371 -1.58432 0.724225 0
M  V30 4010 C 390.503 -3.05197 1.51879 0
M  V30 4011 H 391.696 -1.57019 2.5551 0
M  V30 4012 H 389.249 -0.786148 1.3509 0
M  V30 4013 H 389.984 -3.19417 0.560673 0
M  V30 4014 H 389.769 -3.15025 2.33455 0
M  V30 4015 H 391.259 -3.84511 1.62913 0
M  V30 4016 N 391.696 -1.35014 -0.812953 0
M  V30 4017 C 393.107 -1.25035 -1.38648 0
M  V30 4018 C 393.458 0.119967 -1.95833 0
M  V30 4019 O 392.583 1.02069 -1.90816 0
M  V30 4020 C 393.178 -2.26394 -2.52054 0
M  V30 4021 C 391.737 -2.20175 -3.05287 0
M  V30 4022 C 390.884 -2.12451 -1.78213 0
M  V30 4023 H 393.835 -1.46235 -0.616516 0
M  V30 4024 H 393.856 -1.88672 -3.30429 0
M  V30 4025 H 393.368 -3.26116 -2.10404 0
M  V30 4026 H 391.469 -1.23841 -3.51417 0
M  V30 4027 H 391.582 -3.11863 -3.63701 0
M  V30 4028 H 389.946 -1.58328 -1.9951 0
M  V30 4029 H 390.729 -3.14024 -1.38723 0
M  V30 4030 N 393.175 1.03435 -1.18907 0
M  V30 4031 C 394.591 1.28973 -0.940111 0
M  V30 4032 C 394.791 1.97676 0.390691 0
M  V30 4033 O 393.847 2.26127 1.12352 0
M  V30 4034 C 395.16 2.14221 -2.11021 0
M  V30 4035 C 396.708 2.27547 -2.14922 0
M  V30 4036 C 397.183 3.16164 -3.31367 0
M  V30 4037 N 398.674 3.23752 -3.31269 0
M  V30 4038 C 399.409 3.92495 -4.18014 0
M  V30 4039 N 398.905 4.63515 -5.14904 0
M  V30 4040 N 400.698 3.88838 -4.05908 0
M  V30 4041 H 392.849 0.57252 -2.04538 0
M  V30 4042 H 395.112 0.315184 -0.894071 0
M  V30 4043 H 394.818 1.71054 -3.073 0
M  V30 4044 H 394.692 3.14919 -2.0762 0
M  V30 4045 H 397.079 2.69947 -1.19217 0
M  V30 4046 H 397.16 1.26418 -2.22378 0
M  V30 4047 H 396.804 2.74474 -4.27348 0
M  V30 4048 H 396.734 4.17339 -3.21148 0
M  V30 4049 H 399.225 2.73167 -2.61129 0
M  V30 4050 H 399.538 5.13583 -5.77453 0
M  V30 4051 H 397.883 4.62398 -5.18857 0
M  V30 4052 H 401.074 3.32491 -3.29495 0
M  V30 4053 H 401.247 4.4214 -4.73726 0
M  V30 4054 N 394.653 0.992116 1.22453 0
M  V30 4055 C 395.901 0.666215 1.90804 0
M  V30 4056 C 396.222 -0.804152 1.77647 0
M  V30 4057 O 395.492 -1.57629 1.16318 0
M  V30 4058 H 394.072 0.243423 0.706225 0
M  V30 4059 H 396.734 1.25845 1.48825 0
M  V30 4060 H 395.83 0.928069 2.97982 0
M  V30 4061 N 396.131 -1.37776 0.765217 0
M  V30 4062 C 397.081 -2.2768 0.12075 0
M  V30 4063 C 398.065 -1.45778 -0.680988 0
M  V30 4064 O 399.257 -1.684 -0.545033 0
M  V30 4065 C 396.386 -3.34722 -0.762626 0
M  V30 4066 C 395.472 -4.24074 0.0465881 0
M  V30 4067 N 395.863 -4.93939 1.08892 0
M  V30 4068 C 394.161 -4.45643 -0.178418 0
M  V30 4069 C 394.862 -5.59845 1.57951 0
M  V30 4070 N 393.838 -5.36218 0.892797 0
M  V30 4071 H 397.64 -2.79166 0.918889 0
M  V30 4072 H 395.154 -1.50816 0.602353 0
M  V30 4073 H 397.151 -3.98031 -1.24005 0
M  V30 4074 H 395.811 -2.84793 -1.55959 0
M  V30 4075 H 396.822 -4.96572 1.47095 0
M  V30 4076 H 393.499 -4.06599 -0.9478 0
M  V30 4077 H 394.889 -6.25703 2.44838 0
M  V30 4078 N 397.609 -0.515225 -1.4894 0
M  V30 4079 C 398.839 0.0205735 -2.0659 0
M  V30 4080 C 399.247 1.30064 -1.37405 0
M  V30 4081 O 398.59 1.78087 -0.450632 0
M  V30 4082 C 398.652 0.330124 -3.57981 0
M  V30 4083 C 398.316 -0.854295 -4.48944 0
M  V30 4084 C 399.313 -1.7487 -4.89609 0
M  V30 4085 C 396.998 -1.05712 -4.9105 0
M  V30 4086 C 398.992 -2.82996 -5.71132 0
M  V30 4087 C 396.679 -2.14154 -5.72347 0
M  V30 4088 C 397.677 -3.0263 -6.12294 0
M  V30 4089 O 397.365 -4.09198 -6.91962 0
M  V30 4090 H 397.097 -0.0236833 -0.675585 0
M  V30 4091 H 399.651 -0.715956 -1.92518 0
M  V30 4092 H 397.881 1.12044 -3.70112 0
M  V30 4093 H 399.57 0.806233 -3.97812 0
M  V30 4094 H 400.336 -1.60388 -4.57712 0
M  V30 4095 H 396.215 -0.377788 -4.59449 0
M  V30 4096 H 399.759 -3.52083 -6.02232 0
M  V30 4097 H 395.656 -2.28626 -6.03656 0
M  V30 4098 H 396.424 -4.06726 -7.10293 0
M  V30 4099 N 399.087 1.5561 -0.249682 0
M  V30 4100 C 400.034 2.21496 0.648694 0
M  V30 4101 C 401.004 1.17977 1.16921 0
M  V30 4102 O 402.189 1.46434 1.22318 0
M  V30 4103 C 399.329 2.92039 1.83868 0
M  V30 4104 C 398.442 4.10219 1.35442 0
M  V30 4105 C 397.577 4.6847 2.50419 0
M  V30 4106 C 396.616 5.78893 1.98869 0
M  V30 4107 N 395.753 6.31315 3.07223 0
M  V30 4108 H 400.593 2.97892 0.0801582 0
M  V30 4109 H 398.13 1.47074 0.0278031 0
M  V30 4110 H 400.088 3.31138 2.53778 0
M  V30 4111 H 398.718 2.18111 2.37965 0
M  V30 4112 H 397.77 3.76413 0.54928 0
M  V30 4113 H 399.082 4.89927 0.936649 0
M  V30 4114 H 398.236 5.10158 3.28366 0
M  V30 4115 H 396.975 3.87984 2.95499 0
M  V30 4116 H 395.98 5.3668 1.19393 0
M  V30 4117 H 397.205 6.61232 1.54755 0
M  V30 4118 H 395.151 5.53733 3.51732 0
M  V30 4119 H 395.068 7.06224 2.69784 0
M  V30 4120 H 396.336 6.77662 3.8522 0
M  V30 4121 N 400.565 -0.0233959 1.57583 0
M  V30 4122 C 401.814 -0.712133 1.8871 0
M  V30 4123 C 402.127 -1.76217 0.848944 0
M  V30 4124 O 403.333 -2.50389 1.04964 0
M  V30 4125 C 401.789 -1.3177 3.3491 0
M  V30 4126 C 401.397 -0.303715 4.46969 0
M  V30 4127 C 403.141 -1.98598 3.75179 0
M  V30 4128 C 401.048 -0.917945 5.84233 0
M  V30 4129 H 399.978 -0.269735 0.704101 0
M  V30 4130 H 402.629 0.0333114 1.8347 0
M  V30 4131 H 401.011 -2.11304 3.34913 0
M  V30 4132 H 402.185 0.465325 4.58445 0
M  V30 4133 H 400.5 0.2628 4.1557 0
M  V30 4134 H 403.097 -2.45416 4.75053 0
M  V30 4135 H 403.44 -2.80659 3.07468 0
M  V30 4136 H 403.973 -1.25831 3.77374 0
M  V30 4137 H 400.712 -0.136633 6.55358 0
M  V30 4138 H 400.232 -1.65669 5.76467 0
M  V30 4139 H 401.911 -1.4236 6.31144 0
M  V30 4140 N 402.043 -1.548 -0.295768 0
M  V30 4141 C 403.268 -1.78653 -1.05346 0
M  V30 4142 C 403.693 -0.546894 -1.79974 0
M  V30 4143 O 403.051 0.502763 -1.7419 0
M  V30 4144 C 403.099 -2.99679 -2.00561 0
M  V30 4145 O 402.203 -2.7317 -3.08953 0
M  V30 4146 H 401.544 -0.59116 -0.302367 0
M  V30 4147 H 404.074 -2.01895 -0.331598 0
M  V30 4148 H 404.084 -3.27793 -2.42932 0
M  V30 4149 H 402.759 -3.89562 -1.4565 0
M  V30 4150 H 401.336 -2.56089 -2.71059 0
M  V30 4151 N 403.521 0.559213 -1.47345 0
M  V30 4152 C 404.468 1.66645 -1.59682 0
M  V30 4153 C 405.438 1.60168 -0.43994 0
M  V30 4154 O 406.623 1.79031 -0.659736 0
M  V30 4155 C 403.763 3.04969 -1.61518 0
M  V30 4156 C 402.876 3.21897 -2.88108 0
M  V30 4157 C 402.011 4.50608 -2.81294 0
M  V30 4158 C 401.05 4.60961 -4.02717 0
M  V30 4159 N 400.187 5.81024 -3.94151 0
M  V30 4160 H 405.027 1.55439 -2.54249 0
M  V30 4161 H 402.564 0.757219 -1.26113 0
M  V30 4162 H 404.522 3.85064 -1.60566 0
M  V30 4163 H 403.152 3.15015 -0.704645 0
M  V30 4164 H 402.204 2.35248 -2.98936 0
M  V30 4165 H 403.516 3.25412 -3.78032 0
M  V30 4166 H 402.67 5.3896 -2.7858 0
M  V30 4167 H 401.409 4.49568 -1.89049 0
M  V30 4168 H 400.414 3.71021 -4.05738 0
M  V30 4169 H 401.639 4.63761 -4.96087 0
M  V30 4170 H 399.585 5.80938 -3.04708 0
M  V30 4171 H 399.502 5.85909 -4.77752 0
M  V30 4172 H 400.77 6.71744 -3.9545 0
M  V30 4173 N 404.999 1.35443 0.805782 0
M  V30 4174 C 406.224 1.32037 1.59941 0
M  V30 4175 C 406.649 -0.0994215 1.87837 0
M  V30 4176 O 406.007 -1.06648 1.46615 0
M  V30 4177 C 406.055 2.13354 2.90711 0
M  V30 4178 O 405.159 1.5148 3.83572 0
M  V30 4179 H 404.5 0.452666 0.485787 0
M  V30 4180 H 407.03 1.78496 1.00002 0
M  V30 4181 H 407.04 2.25338 3.40128 0
M  V30 4182 H 405.715 3.16572 2.69732 0
M  V30 4183 H 404.292 1.4834 3.42125 0
M  V30 4184 N 406.477 -1.02803 1.19454 0
M  V30 4185 C 407.705 -1.79841 1.02297 0
M  V30 4186 C 408.12 -1.83879 -0.428259 0
M  V30 4187 O 407.477 -1.28345 -1.29745 0
M  V30 4188 C 407.528 -3.24852 1.58598 0
M  V30 4189 O 407.249 -3.21097 2.98041 0
M  V30 4190 C 408.75 -4.18485 1.46236 0
M  V30 4191 H 405.97 -0.565936 0.360496 0
M  V30 4192 H 408.514 -1.2948 1.58288 0
M  V30 4193 H 406.669 -3.72401 1.06753 0
M  V30 4194 H 407.083 -4.12033 3.24545 0
M  V30 4195 H 408.557 -5.18121 1.90407 0
M  V30 4196 H 409.034 -4.37254 0.41301 0
M  V30 4197 H 409.64 -3.76811 1.97215 0
M  V30 4198 N 407.956 -0.998596 -1.21925 0
M  V30 4199 C 408.903 -0.553621 -2.24062 0
M  V30 4200 C 409.873 0.416999 -1.6078 0
M  V30 4201 O 411.058 0.320482 -1.88089 0
M  V30 4202 C 408.198 0.119959 -3.44891 0
M  V30 4203 C 407.311 -0.893077 -4.22668 0
M  V30 4204 C 406.446 -0.192424 -5.30851 0
M  V30 4205 C 405.485 -1.19344 -6.00353 0
M  V30 4206 N 404.622 -0.520707 -7.00166 0
M  V30 4207 H 409.462 -1.4293 -2.61486 0
M  V30 4208 H 406.999 -0.715838 -1.28507 0
M  V30 4209 H 408.957 0.527459 -4.13852 0
M  V30 4210 H 407.587 0.959389 -3.08214 0
M  V30 4211 H 406.639 -1.41886 -3.52948 0
M  V30 4212 H 407.951 -1.65512 -4.70539 0
M  V30 4213 H 407.105 0.271515 -6.06092 0
M  V30 4214 H 405.844 0.602075 -4.83969 0
M  V30 4215 H 404.849 -1.66795 -5.23889 0
M  V30 4216 H 406.074 -1.98891 -6.49322 0
M  V30 4217 H 404.02 0.254252 -6.55507 0
M  V30 4218 H 403.937 -1.2211 -7.46073 0
M  V30 4219 H 405.205 -0.0797596 -7.79459 0
M  V30 4220 N 409.434 1.37368 -0.772513 0
M  V30 4221 C 410.659 2.0447 -0.347386 0
M  V30 4222 C 411.084 1.57882 1.0225 0
M  V30 4223 O 410.442 0.73941 1.65537 0
M  V30 4224 C 410.49 3.58369 -0.400479 0
M  V30 4225 O 409.594 4.0803 0.598789 0
M  V30 4226 H 408.935 0.646773 -0.15027 0
M  V30 4227 H 411.465 1.75667 -1.04892 0
M  V30 4228 H 411.475 4.07183 -0.258045 0
M  V30 4229 H 410.15 3.91633 -1.39986 0
M  V30 4230 H 408.727 3.70534 0.419411 0
M  V30 4231 N 410.912 0.523116 1.48665 0
M  V30 4232 C 412.14 -0.0096312 2.06898 0
M  V30 4233 C 412.555 -1.28784 1.38059 0
M  V30 4234 O 411.912 -1.76453 0.465893 0
M  V30 4235 C 411.963 -0.244386 3.60673 0
M  V30 4236 O 411.684 0.983172 4.26925 0
M  V30 4237 C 413.185 -0.818289 4.35682 0
M  V30 4238 H 410.405 0.0304161 0.67031 0
M  V30 4239 H 412.949 0.726799 1.91149 0
M  V30 4240 H 411.104 -0.930847 3.76051 0
M  V30 4241 H 411.518 0.759653 5.1897 0
M  V30 4242 H 412.992 -0.93201 5.44075 0
M  V30 4243 H 413.469 -1.82153 3.99646 0
M  V30 4244 H 414.075 -0.168609 4.24966 0
M  V30 4245 N 412.39 -1.55475 0.257931 0
M  V30 4246 C 413.636 -1.99502 -0.364266 0
M  V30 4247 C 413.969 -1.146 -1.56782 0
M  V30 4248 O 413.244 -0.211968 -1.93342 0
M  V30 4249 C 413.527 -3.51917 -0.763333 0
M  V30 4250 C 413.38 -4.4758 0.446371 0
M  V30 4251 C 414.699 -4.09742 -1.60623 0
M  V30 4252 H 411.818 -0.725277 -0.130929 0
M  V30 4253 H 414.46 -1.8653 0.361446 0
M  V30 4254 H 412.61 -3.63101 -1.38166 0
M  V30 4255 H 414.282 -4.48362 1.08487 0
M  V30 4256 H 412.525 -4.19947 1.08753 0
M  V30 4257 H 413.196 -5.51862 0.123645 0
M  V30 4258 H 415.672 -4.01727 -1.08418 0
M  V30 4259 H 414.548 -5.16631 -1.85429 0
M  V30 4260 H 414.809 -3.58889 -2.58169 0
M  V30 4261 N 413.868 0.0150385 -1.57593 0
M  V30 4262 C 414.798 1.01047 -2.10503 0
M  V30 4263 C 415.779 1.36816 -1.01071 0
M  V30 4264 O 416.964 1.45455 -1.28672 0
M  V30 4265 C 414.094 2.30708 -2.59598 0
M  V30 4266 C 413.048 2.09142 -3.73421 0
M  V30 4267 C 412.374 3.44685 -4.08774 0
M  V30 4268 C 413.674 1.46619 -5.01298 0
M  V30 4269 H 415.368 0.569978 -2.93925 0
M  V30 4270 H 412.914 0.272724 -1.41394 0
M  V30 4271 H 414.867 3.00687 -2.95238 0
M  V30 4272 H 413.591 2.76843 -1.73279 0
M  V30 4273 H 412.25 1.41592 -3.38153 0
M  V30 4274 H 411.898 3.88495 -3.195 0
M  V30 4275 H 411.598 3.31077 -4.8545 0
M  V30 4276 H 413.122 4.16004 -4.4696 0
M  V30 4277 H 414.536 2.06535 -5.34805 0
M  V30 4278 H 412.933 1.43544 -5.82679 0
M  V30 4279 H 414.003 0.433611 -4.82957 0
M  V30 4280 N 415.346 1.54954 0.287554 0
M  V30 4281 C 416.293 1.86834 1.35505 0
M  V30 4282 C 417.263 0.718452 1.49758 0
M  V30 4283 O 418.448 0.968358 1.644 0
M  V30 4284 C 415.588 2.13303 2.71286 0
M  V30 4285 C 414.701 3.40883 2.65373 0
M  V30 4286 C 413.836 3.57125 3.93236 0
M  V30 4287 C 412.875 4.78449 3.81776 0
M  V30 4288 N 412.012 4.91426 5.01443 0
M  V30 4289 H 416.852 2.77889 1.07619 0
M  V30 4290 H 414.389 1.37593 0.520241 0
M  V30 4291 H 416.347 2.26646 3.50267 0
M  V30 4292 H 414.977 1.25499 2.97405 0
M  V30 4293 H 414.029 3.36088 1.78182 0
M  V30 4294 H 415.341 4.29993 2.52799 0
M  V30 4295 H 414.495 3.70207 4.80658 0
M  V30 4296 H 413.234 2.66173 4.0866 0
M  V30 4297 H 412.239 4.65386 2.92738 0
M  V30 4298 H 413.464 5.70822 3.67884 0
M  V30 4299 H 411.41 4.03401 5.17304 0
M  V30 4300 H 411.327 5.74559 4.91343 0
M  V30 4301 H 412.595 5.08879 5.90477 0
M  V30 4302 N 416.824 -0.551391 1.4764 0
M  V30 4303 C 418.049 -1.33837 1.58437 0
M  V30 4304 C 418.474 -1.866 0.237063 0
M  V30 4305 O 417.832 -1.6328 -0.787994 0
M  V30 4306 C 417.88 -2.48014 2.61766 0
M  V30 4307 O 416.984 -3.50419 2.1744 0
M  V30 4308 H 416.325 -0.397299 0.532024 0
M  V30 4309 H 418.855 -0.665759 1.93465 0
M  V30 4310 H 418.865 -2.94503 2.82369 0
M  V30 4311 H 417.54 -2.08969 3.5959 0
M  V30 4312 H 416.117 -3.10196 2.06961 0
M  V30 4313 N 418.302 -1.35869 -0.798587 0
M  V30 4314 C 419.579 -1.20145 -1.54352 0
M  V30 4315 C 419.959 0.216161 -2.0999 0
M  V30 4316 O 419.307 1.22068 -1.93162 0
M  V30 4317 C 419.517 -2.27602 -2.64572 0
M  V30 4318 C 420.865 -2.63811 -3.32699 0
M  V30 4319 O 421.889 -2.26576 -2.74849 0
M  V30 4320 O 420.748 -3.27866 -4.37226 0
M  V30 4321 H 417.842 -0.467248 -0.682355 0
M  V30 4322 H 420.388 -1.47574 -0.837859 0
M  V30 4323 H 419.16 -3.2265 -2.21388 0
M  V30 4324 H 418.783 -2.01488 -3.42766 0
M  V30 4325 N 419.78 1.02168 -1.19998 0
M  V30 4326 C 420.727 2.10601 -0.944228 0
M  V30 4327 C 421.697 1.65639 0.123664 0
M  V30 4328 O 422.882 1.9079 -0.0199941 0
M  V30 4329 C 420.022 3.41504 -0.496865 0
M  V30 4330 C 419.135 3.99973 -1.63234 0
M  V30 4331 C 418.27 5.18915 -1.13579 0
M  V30 4332 C 417.309 5.69456 -2.24468 0
M  V30 4333 N 416.446 6.79665 -1.76068 0
M  V30 4334 H 421.286 2.31814 -1.8726 0
M  V30 4335 H 418.823 1.13686 -0.933483 0
M  V30 4336 H 420.781 4.16626 -0.218843 0
M  V30 4337 H 419.411 3.2038 0.394508 0
M  V30 4338 H 418.463 3.21997 -2.0254 0
M  V30 4339 H 419.775 4.33492 -2.46752 0
M  V30 4340 H 418.929 6.01222 -0.813429 0
M  V30 4341 H 417.668 4.8695 -0.270434 0
M  V30 4342 H 416.673 4.85757 -2.57526 0
M  V30 4343 H 417.898 6.03459 -3.11472 0
M  V30 4344 H 415.844 6.49538 -0.918516 0
M  V30 4345 H 415.761 7.12349 -2.5317 0
M  V30 4346 H 417.029 7.65549 -1.46817 0
M  V30 4347 N 421.258 1.00505 1.21394 0
M  V30 4348 C 422.674 0.717873 1.42544 0
M  V30 4349 C 422.874 -0.706936 1.88692 0
M  V30 4350 O 421.93 -1.47627 2.04847 0
M  V30 4351 C 423.243 1.73377 2.45684 0
M  V30 4352 C 424.791 1.75059 2.59467 0
M  V30 4353 C 425.266 2.75545 3.6584 0
M  V30 4354 N 426.757 2.74213 3.73311 0
M  V30 4355 C 427.492 3.48626 4.55245 0
M  V30 4356 N 426.988 4.32678 5.41075 0
M  V30 4357 N 428.781 3.37276 4.49668 0
M  V30 4358 H 420.932 1.92506 0.897503 0
M  V30 4359 H 423.195 0.830919 0.456375 0
M  V30 4360 H 422.901 2.75395 2.18748 0
M  V30 4361 H 422.775 1.53647 3.44489 0
M  V30 4362 H 425.162 0.737337 2.8574 0
M  V30 4363 H 425.243 1.98861 1.60897 0
M  V30 4364 H 424.887 3.77028 3.40313 0
M  V30 4365 H 424.817 2.49009 4.64007 0
M  V30 4366 H 427.308 2.13234 3.11993 0
M  V30 4367 H 427.621 4.86253 6.00648 0
M  V30 4368 H 425.966 4.3676 5.40616 0
M  V30 4369 H 429.157 2.71043 3.81646 0
M  V30 4370 H 429.33 3.95524 5.13288 0
M  V30 4371 N 422.737 -1.36956 0.779787 0
M  V30 4372 C 423.986 -1.98738 0.344405 0
M  V30 4373 C 424.299 -1.62596 -1.08728 0
M  V30 4374 O 425.505 -2.1754 -1.62445 0
M  V30 4375 C 423.961 -3.5544 0.564829 0
M  V30 4376 C 423.569 -4.00514 2.0073 0
M  V30 4377 C 425.313 -4.24059 0.193471 0
M  V30 4378 C 423.22 -5.49957 2.17489 0
M  V30 4379 H 422.15 -0.743561 0.12503 0
M  V30 4380 H 424.801 -1.56381 0.960057 0
M  V30 4381 H 423.183 -3.95817 -0.120397 0
M  V30 4382 H 424.357 -3.71362 2.72814 0
M  V30 4383 H 422.672 -3.44703 2.336 0
M  V30 4384 H 425.269 -5.33874 0.297097 0
M  V30 4385 H 425.612 -4.07378 -0.857263 0
M  V30 4386 H 426.145 -3.89012 0.831556 0
M  V30 4387 H 422.884 -5.71574 3.2091 0
M  V30 4388 H 422.404 -5.80767 1.49899 0
M  V30 4389 H 424.083 -6.16043 1.97738 0
M  V30 4390 N 424.215 -0.530993 -1.48385 0
M  V30 4391 C 425.463 0.00273189 -2.021 0
M  V30 4392 C 425.784 1.34672 -1.41027 0
M  V30 4393 O 425.054 1.8724 -0.576012 0
M  V30 4394 H 423.634 0.00399774 -0.746989 0
M  V30 4395 H 426.296 -0.695054 -1.82085 0
M  V30 4396 H 425.392 0.11031 -3.11905 0
M  V30 4397 N 425.693 1.55336 -0.266172 0
M  V30 4398 C 426.918 2.04258 0.359661 0
M  V30 4399 C 427.343 1.14359 1.49344 0
M  V30 4400 O 426.701 0.140369 1.80756 0
M  V30 4401 C 426.749 3.50997 0.826635 0
M  V30 4402 O 425.853 3.64204 1.93466 0
M  V30 4403 H 425.194 0.659668 0.075727 0
M  V30 4404 H 427.724 2.00694 -0.39786 0
M  V30 4405 H 427.734 3.9219 1.12477 0
M  V30 4406 H 426.409 4.159 -0.00293032 0
M  V30 4407 H 424.986 3.34913 1.63974 0
M  V30 4408 N 427.171 -0.0066808 1.57599 0
M  V30 4409 C 428.411 -0.697501 1.92131 0
M  V30 4410 C 428.775 -1.71306 0.867071 0
M  V30 4411 O 429.976 -2.45377 1.09743 0
M  V30 4412 C 428.247 -1.32978 3.3174 0
M  V30 4413 S 429.806 -2.04665 3.88146 0
M  V30 4414 H 426.624 -0.230555 0.672581 0
M  V30 4415 H 429.226 0.0484026 1.9544 0
M  V30 4416 H 427.93 -0.57772 4.06313 0
M  V30 4417 H 427.461 -2.11376 3.31789 0
M  V30 4418 H 429.476 -3.32097 3.68682 0
M  V30 4419 N 428.649 -1.55105 -0.279332 0
M  V30 4420 C 429.877 -1.7943 -1.03017 0
M  V30 4421 C 430.292 -0.564456 -1.80165 0
M  V30 4422 O 429.649 0.466326 -1.76442 0
M  V30 4423 C 429.7 -3.0155 -1.99374 0
M  V30 4424 O 429.421 -4.19784 -1.25352 0
M  V30 4425 C 430.922 -3.3843 -2.86321 0
M  V30 4426 H 428.142 -0.597882 -0.304594 0
M  V30 4427 H 430.686 -2.02105 -0.312035 0
M  V30 4428 H 428.841 -2.81019 -2.66659 0
M  V30 4429 H 429.255 -4.88781 -1.90246 0
M  V30 4430 H 430.729 -4.27066 -3.49741 0
M  V30 4431 H 431.206 -2.57549 -3.5576 0
M  V30 4432 H 431.812 -3.61197 -2.24536 0
M  V30 4433 N 430.127 0.543554 -1.4793 0
M  V30 4434 C 431.352 1.32995 -1.59145 0
M  V30 4435 C 431.777 1.86472 -0.246956 0
M  V30 4436 O 431.135 1.63696 0.779324 0
M  V30 4437 C 431.183 2.46623 -2.63077 0
M  V30 4438 O 430.287 3.49261 -2.19295 0
M  V30 4439 H 429.628 0.394472 -0.534124 0
M  V30 4440 H 432.158 0.655489 -1.93816 0
M  V30 4441 H 432.168 2.93001 -2.83926 0
M  V30 4442 H 430.843 2.07059 -3.60693 0
M  V30 4443 H 429.42 3.09094 -2.08603 0
M  V30 4444 N 431.605 1.3629 0.791371 0
M  V30 4445 C 433.016 1.27225 1.36641 0
M  V30 4446 C 433.367 -0.0887968 1.95999 0
M  V30 4447 O 432.492 -0.990207 1.92416 0
M  V30 4448 C 433.087 2.30375 2.48421 0
M  V30 4449 C 431.646 2.25004 3.01746 0
M  V30 4450 C 430.793 2.15259 1.7481 0
M  V30 4451 H 433.744 1.47198 0.593173 0
M  V30 4452 H 433.765 1.93905 3.27385 0
M  V30 4453 H 433.277 3.29422 2.05189 0
M  V30 4454 H 431.378 1.29417 3.49403 0
M  V30 4455 H 431.491 3.1761 3.58693 0
M  V30 4456 H 429.855 1.61482 1.96966 0
M  V30 4457 H 430.638 3.16191 1.33709 0
M  V30 4458 N 433.083 -1.0153 1.20538 0
M  V30 4459 C 434.323 -1.76689 1.02763 0
M  V30 4460 C 434.687 -1.87065 -0.432513 0
M  V30 4461 O 435.888 -2.58684 -0.730481 0
M  V30 4462 C 434.159 -3.14707 1.69393 0
M  V30 4463 S 435.718 -4.05886 1.66738 0
M  V30 4464 H 432.536 -0.608076 0.368463 0
M  V30 4465 H 435.138 -1.21558 1.53114 0
M  V30 4466 H 433.842 -3.04782 2.74838 0
M  V30 4467 H 433.373 -3.74913 1.19179 0
M  V30 4468 H 435.388 -4.91221 0.70117 0
M  V30 4469 N 434.561 -1.01147 -1.20859 0
M  V30 4470 C 435.491 -0.597663 -2.25722 0
M  V30 4471 C 436.472 0.384744 -1.65692 0
M  V30 4472 O 437.657 0.271303 -1.92296 0
M  V30 4473 C 434.787 0.0700149 -3.47229 0
M  V30 4474 C 433.741 -0.832843 -4.19819 0
M  V30 4475 C 433.067 -0.0312202 -5.34691 0
M  V30 4476 C 434.367 -2.1385 -4.76514 0
M  V30 4477 H 436.061 -1.47423 -2.60589 0
M  V30 4478 H 433.607 -0.710301 -1.25263 0
M  V30 4479 H 435.56 0.37103 -4.19763 0
M  V30 4480 H 434.284 0.981259 -3.11511 0
M  V30 4481 H 432.943 -1.11778 -3.49144 0
M  V30 4482 H 432.591 0.881515 -4.95215 0
M  V30 4483 H 432.291 -0.632434 -5.84187 0
M  V30 4484 H 433.815 0.26346 -6.10031 0
M  V30 4485 H 435.229 -1.9002 -5.40893 0
M  V30 4486 H 433.626 -2.69012 -5.36426 0
M  V30 4487 H 434.696 -2.80495 -3.95538 0
M  V30 4488 N 436.039 1.36541 -0.78704 0
M  V30 4489 C 437.267 2.03561 -0.370199 0
M  V30 4490 C 437.682 1.59347 1.01263 0
M  V30 4491 O 437.039 0.781781 1.64907 0
M  V30 4492 C 437.09 3.59033 -0.421614 0
M  V30 4493 O 436.811 4.01634 -1.7499 0
M  V30 4494 C 438.312 4.433 0.00489763 0
M  V30 4495 H 435.532 0.653346 -0.152904 0
M  V30 4496 H 438.076 1.74566 -1.06522 0
M  V30 4497 H 436.231 3.86746 0.224971 0
M  V30 4498 H 436.645 4.96217 -1.69909 0
M  V30 4499 H 438.119 5.51939 -0.0822184 0
M  V30 4500 H 438.596 4.26285 1.05723 0
M  V30 4501 H 439.202 4.20843 -0.614085 0
M  V30 4502 N 437.518 0.538854 1.48102 0
M  V30 4503 C 438.795 -0.0568108 1.95517 0
M  V30 4504 C 439.175 -1.50408 1.48124 0
M  V30 4505 O 438.523 -2.17133 0.711727 0
M  V30 4506 C 438.733 0.0696262 3.48931 0
M  V30 4507 C 440.081 -0.0851202 4.24515 0
M  V30 4508 O 441.105 -0.0037347 3.562 0
M  V30 4509 O 439.964 -0.257025 5.45895 0
M  V30 4510 H 437.058 -0.0743695 0.823649 0
M  V30 4511 H 439.604 0.604081 1.58584 0
M  V30 4512 H 438.376 1.07744 3.76174 0
M  V30 4513 H 437.999 -0.629714 3.92582 0
M  V30 4514 N 438.996 -1.55193 0.274407 0
M  V30 4515 C 439.943 -2.225 -0.613374 0
M  V30 4516 C 440.913 -1.19823 -1.15029 0
M  V30 4517 O 442.098 -1.48362 -1.19973 0
M  V30 4518 C 439.238 -2.94927 -1.79199 0
M  V30 4519 C 438.351 -4.12322 -1.28899 0
M  V30 4520 C 437.486 -4.72394 -2.42934 0
M  V30 4521 C 436.525 -5.81984 -1.89634 0
M  V30 4522 N 435.662 -6.36123 -2.9714 0
M  V30 4523 H 440.502 -2.97982 -0.032756 0
M  V30 4524 H 438.039 -1.47099 -0.00440146 0
M  V30 4525 H 439.997 -3.35134 -2.48478 0
M  V30 4526 H 438.627 -2.2187 -2.34465 0
M  V30 4527 H 437.679 -3.7724 -0.489327 0
M  V30 4528 H 438.991 -4.91355 -0.858587 0
M  V30 4529 H 438.145 -5.15317 -3.20208 0
M  V30 4530 H 436.884 -3.92636 -2.8929 0
M  V30 4531 H 435.889 -5.38511 -1.1084 0
M  V30 4532 H 437.114 -6.6361 -1.44215 0
M  V30 4533 H 435.06 -5.59259 -3.42878 0
M  V30 4534 H 434.977 -7.10427 -2.58515 0
M  V30 4535 H 436.245 -6.83704 -3.74391 0
M  V30 4536 N 440.474 -0.00167713 -1.576 0
M  V30 4537 C 441.722 0.681471 -1.90264 0
M  V30 4538 C 442.043 1.7422 -0.875924 0
M  V30 4539 O 441.313 1.95709 0.0864412 0
M  V30 4540 H 439.893 0.254696 -0.702239 0
M  V30 4541 H 442.555 -0.0429996 -1.94853 0
M  V30 4542 H 441.651 1.15166 -2.90075 0
M  V30 4543 N 441.952 1.55251 0.271103 0
M  V30 4544 C 443.177 1.80306 1.02491 0
M  V30 4545 C 443.602 0.575457 1.79081 0
M  V30 4546 O 442.96 -0.474987 1.74967 0
M  V30 4547 C 443.008 3.02832 1.95768 0
M  V30 4548 O 442.112 2.78051 3.04568 0
M  V30 4549 H 441.453 0.595896 0.292923 0
M  V30 4550 H 443.983 2.02397 0.299436 0
M  V30 4551 H 443.993 3.31616 2.37686 0
M  V30 4552 H 442.668 3.9183 1.39434 0
M  V30 4553 H 441.245 2.60369 2.66951 0
M  V30 4554 N 443.43 -0.535701 1.48216 0
M  V30 4555 C 444.679 -1.28828 1.55197 0
M  V30 4556 C 444.992 -1.94263 0.228278 0
M  V30 4557 O 446.198 -2.70927 0.176278 0
M  V30 4558 C 444.654 -2.33727 2.73678 0
M  V30 4559 C 444.262 -1.74386 4.12666 0
M  V30 4560 C 446.006 -3.1003 2.89968 0
M  V30 4561 C 443.913 -2.77192 5.22416 0
M  V30 4562 H 442.843 -0.484484 0.577747 0
M  V30 4563 H 445.494 -0.56646 1.74538 0
M  V30 4564 H 443.876 -3.08919 2.4776 0
M  V30 4565 H 445.05 -1.05421 4.48579 0
M  V30 4566 H 443.365 -1.10595 4.01445 0
M  V30 4567 H 445.962 -3.86842 3.6913 0
M  V30 4568 H 446.305 -3.65542 1.9921 0
M  V30 4569 H 446.838 -2.41952 3.15759 0
M  V30 4570 H 443.577 -2.26507 6.15122 0
M  V30 4571 H 443.097 -3.44502 4.90998 0
M  V30 4572 H 444.776 -3.40285 5.50286 0
M  V30 4573 N 444.908 -1.36708 -0.784132 0
M  V30 4574 C 445.84 -1.27333 -1.90575 0
M  V30 4575 C 446.853 -0.191706 -1.61667 0
M  V30 4576 O 448.042 -0.446854 -1.72816 0
M  V30 4577 C 445.142 -0.943177 -3.25511 0
M  V30 4578 C 444.315 -2.12776 -3.82158 0
M  V30 4579 C 443.374 -1.76983 -4.95544 0
M  V30 4580 O 442.4 -2.49134 -5.11782 0
M  V30 4581 N 443.602 -0.706624 -5.76183 0
M  V30 4582 H 446.367 -2.23974 -1.99138 0
M  V30 4583 H 443.928 -1.30171 -0.962656 0
M  V30 4584 H 445.92 -0.684799 -3.98864 0
M  V30 4585 H 444.49 -0.0657333 -3.12531 0
M  V30 4586 H 443.71 -2.54863 -3.0073 0
M  V30 4587 H 444.998 -2.91904 -4.16737 0
M  V30 4588 H 444.396 -0.107643 -5.65598 0
M  V30 4589 H 442.953 -0.50808 -6.49817 0
M  V30 4590 N 446.386 1.0089 -1.21074 0
M  V30 4591 C 447.611 1.78727 -1.05221 0
M  V30 4592 C 448.036 1.83932 0.393795 0
M  V30 4593 O 447.394 1.28004 1.28393 0
M  V30 4594 C 447.442 3.20665 -1.64944 0
M  V30 4595 O 446.546 4.02632 -0.892273 0
M  V30 4596 H 445.887 0.550973 -0.370574 0
M  V30 4597 H 448.417 1.26847 -1.60534 0
M  V30 4598 H 448.427 3.71352 -1.69002 0
M  V30 4599 H 447.102 3.16191 -2.70177 0
M  V30 4600 H 445.679 3.61207 -0.926492 0
M  V30 4601 N 447.864 1.01787 1.20321 0
M  V30 4602 C 449.141 0.622978 1.85414 0
M  V30 4603 C 449.521 -0.898887 1.91006 0
M  V30 4604 O 448.869 -1.79112 1.41884 0
M  V30 4605 C 449.079 1.27226 3.24984 0
M  V30 4606 C 450.427 1.3885 4.01255 0
M  V30 4607 O 451.451 1.22857 3.34342 0
M  V30 4608 O 450.31 1.64705 5.2109 0
M  V30 4609 H 447.404 0.215116 0.798533 0
M  V30 4610 H 449.95 1.11533 1.27901 0
M  V30 4611 H 448.722 2.31209 3.15687 0
M  V30 4612 H 448.345 0.767069 3.90131 0
M  V30 4613 N 449.342 -1.36122 0.79427 0
M  V30 4614 C 450.289 -2.29982 0.194101 0
M  V30 4615 C 451.259 -1.52214 -0.664833 0
M  V30 4616 O 452.444 -1.80702 -0.612498 0
M  V30 4617 C 449.584 -3.38706 -0.661244 0
M  V30 4618 C 448.697 -4.31456 0.216766 0
M  V30 4619 C 447.832 -5.27265 -0.645411 0
M  V30 4620 C 446.871 -6.11653 0.233756 0
M  V30 4621 N 446.008 -6.99636 -0.587682 0
M  V30 4622 H 450.848 -2.80722 0.999965 0
M  V30 4623 H 448.385 -1.38172 0.504677 0
M  V30 4624 H 450.343 -4.00394 -1.17219 0
M  V30 4625 H 448.973 -2.89274 -1.43249 0
M  V30 4626 H 448.025 -3.7088 0.845724 0
M  V30 4627 H 449.337 -4.90724 0.893973 0
M  V30 4628 H 448.491 -5.94266 -1.22198 0
M  V30 4629 H 447.23 -4.68463 -1.35623 0
M  V30 4630 H 446.235 -5.4361 0.82269 0
M  V30 4631 H 447.46 -6.72531 0.942247 0
M  V30 4632 H 445.406 -6.43337 -1.2827 0
M  V30 4633 H 445.323 -7.55993 0.0317402 0
M  V30 4634 H 446.591 -7.71001 -1.14792 0
M  V30 4635 N 450.82 -0.546701 -1.47814 0
M  V30 4636 C 452.231 -0.110564 -1.86372 0
M  V30 4637 C 452.582 1.31678 -1.45449 0
M  V30 4638 O 451.707 1.98889 -0.852758 0
M  V30 4639 C 452.302 -0.193873 -3.38245 0
M  V30 4640 C 450.861 0.187164 -3.75934 0
M  V30 4641 C 450.008 -0.546166 -2.71868 0
M  V30 4642 H 452.959 -0.757022 -1.39481 0
M  V30 4643 H 452.98 0.590218 -3.75895 0
M  V30 4644 H 452.492 -1.23282 -3.67999 0
M  V30 4645 H 450.593 1.22762 -3.51796 0
M  V30 4646 H 450.706 -0.164083 -4.78819 0
M  V30 4647 H 449.07 0.00953904 -2.54698 0
M  V30 4648 H 449.853 -1.58606 -3.04465 0
M  V30 4649 N 452.299 1.55045 -0.282633 0
M  V30 4650 C 453.546 1.9976 0.33199 0
M  V30 4651 C 453.874 1.17105 1.55295 0
M  V30 4652 O 453.129 0.230599 1.94337 0
M  V30 4653 C 453.428 3.49422 0.750938 0
M  V30 4654 C 453.094 4.4941 -0.366228 0
M  V30 4655 C 451.756 4.76471 -0.672964 0
M  V30 4656 C 454.108 5.09054 -1.11864 0
M  V30 4657 C 451.436 5.60442 -1.73556 0
M  V30 4658 C 453.788 5.9418 -2.17102 0
M  V30 4659 C 452.452 6.19558 -2.48402 0
M  V30 4660 H 451.722 0.730974 0.121484 0
M  V30 4661 H 454.369 1.8732 -0.39791 0
M  V30 4662 H 452.674 3.59377 1.56063 0
M  V30 4663 H 454.371 3.81432 1.23736 0
M  V30 4664 H 450.961 4.2844 -0.117041 0
M  V30 4665 H 455.145 4.88165 -0.894925 0
M  V30 4666 H 450.401 5.78349 -1.983 0
M  V30 4667 H 454.575 6.39427 -2.75873 0
M  V30 4668 H 452.202 6.84417 -3.30874 0
M  V30 4669 N 453.777 0.010035 1.57597 0
M  V30 4670 C 454.709 -1.00649 2.05918 0
M  V30 4671 C 455.722 -1.30077 0.978964 0
M  V30 4672 O 456.911 -1.26878 1.25556 0
M  V30 4673 C 454.011 -2.33876 2.45265 0
M  V30 4674 C 453.184 -2.23242 3.7614 0
M  V30 4675 C 452.243 -3.39242 4.02245 0
M  V30 4676 O 451.269 -3.1698 4.72771 0
M  V30 4677 N 452.471 -4.6242 3.50924 0
M  V30 4678 H 455.236 -0.594333 2.93748 0
M  V30 4679 H 452.797 -0.17714 1.60928 0
M  V30 4680 H 454.789 -3.1027 2.59836 0
M  V30 4681 H 453.359 -2.66799 1.62902 0
M  V30 4682 H 452.579 -1.31696 3.71551 0
M  V30 4683 H 453.867 -2.13321 4.61922 0
M  V30 4684 H 453.265 -4.83404 2.93832 0
M  V30 4685 H 451.822 -5.36046 3.70807 0
M  V30 4686 N 455.255 -1.55392 -0.262866 0
M  V30 4687 C 456.203 -1.8977 -1.345 0
M  V30 4688 C 457.197 -0.775063 -1.50629 0
M  V30 4689 O 458.403 -0.959519 -1.52293 0
M  V30 4690 H 454.778 -0.602467 -0.450041 0
M  V30 4691 H 456.749 -2.80147 -1.02762 0
M  V30 4692 C 455.498 -2.19501 -2.69657 0
M  V30 4693 H 454.821 -3.05378 -2.5804 0
M  V30 4694 H 456.261 -2.47469 -3.44289 0
M  V30 4695 C 454.72 -1.00597 -3.21531 0
M  V30 4696 O 455.25 -0.245768 -4.00947 0
M  V30 4697 N 453.456 -0.800911 -2.79345 0
M  V30 4698 H 453.003 -1.42079 -2.14875 0
M  V30 4699 H 452.961 -0.00697996 -3.14399 0
M  V30 4700 N 456.733 0.527833 -1.48498 0
M  V30 4701 C 457.979 1.28545 -1.56857 0
M  V30 4702 C 458.312 1.92678 -0.242651 0
M  V30 4703 O 457.587 1.79394 0.751545 0
M  V30 4704 C 457.87 2.37314 -2.70839 0
M  V30 4705 C 457.723 1.77858 -4.13142 0
M  V30 4706 C 459.042 3.39068 -2.80573 0
M  V30 4707 H 456.161 0.466006 -0.570971 0
M  V30 4708 H 458.803 0.587784 -1.8068 0
M  V30 4709 H 456.953 2.96821 -2.50658 0
M  V30 4710 H 458.625 1.22385 -4.44769 0
M  V30 4711 H 456.868 1.08383 -4.20042 0
M  V30 4712 H 457.539 2.56624 -4.88721 0
M  V30 4713 H 460.015 2.89518 -2.98862 0
M  V30 4714 H 458.891 4.12566 -3.6205 0
M  V30 4715 H 459.152 3.9975 -1.88818 0
M  V30 4716 N 458.211 1.37122 0.776871 0
M  V30 4717 C 459.436 1.354 1.57104 0
M  V30 4718 C 459.861 -0.0595562 1.88006 0
M  V30 4719 O 459.219 -1.03514 1.48844 0
M  V30 4720 C 459.267 2.19472 2.8612 0
M  V30 4721 O 458.371 1.59582 3.80273 0
M  V30 4722 H 457.712 0.462869 0.476076 0
M  V30 4723 H 460.242 1.80577 0.961932 0
M  V30 4724 H 460.252 2.32502 3.35271 0
M  V30 4725 H 458.927 3.22222 2.62956 0
M  V30 4726 H 457.504 1.55564 3.38902 0
M  V30 4727 N 459.689 -1.00246 1.21608 0
M  V30 4728 C 461.105 -1.26435 0.973975 0
M  V30 4729 C 461.305 -1.98642 -0.338143 0
M  V30 4730 O 460.361 -2.29026 -1.06317 0
M  V30 4731 C 461.674 -2.08551 2.16626 0
M  V30 4732 C 463.222 -2.21769 2.20879 0
M  V30 4733 C 463.697 -3.07267 3.39633 0
M  V30 4734 N 465.188 -3.14855 3.39736 0
M  V30 4735 C 465.923 -3.81274 4.28273 0
M  V30 4736 N 465.419 -4.497 5.27012 0
M  V30 4737 N 467.212 -3.7794 4.16074 0
M  V30 4738 H 459.363 -0.518089 2.05984 0
M  V30 4739 H 461.626 -0.291368 0.902113 0
M  V30 4740 H 461.332 -1.62847 3.11727 0
M  V30 4741 H 461.206 -3.09303 2.15897 0
M  V30 4742 H 463.593 -2.66691 1.26332 0
M  V30 4743 H 463.674 -1.20478 2.25652 0
M  V30 4744 H 463.318 -2.63047 4.34475 0
M  V30 4745 H 463.248 -4.08678 3.321 0
M  V30 4746 H 465.739 -2.66147 2.6828 0
M  V30 4747 H 466.052 -4.98092 5.90867 0
M  V30 4748 H 464.397 -4.48479 5.30935 0
M  V30 4749 H 467.588 -3.23638 3.38195 0
M  V30 4750 H 467.761 -4.29424 4.85282 0
M  V30 4751 N 461.167 -1.02423 -1.1978 0
M  V30 4752 C 462.416 -0.713265 -1.88667 0
M  V30 4753 C 462.729 0.7609 -1.80193 0
M  V30 4754 O 463.935 1.18473 -2.44288 0
M  V30 4755 C 462.391 -1.22545 -3.38394 0
M  V30 4756 C 461.999 -2.72706 -3.55437 0
M  V30 4757 C 463.743 -0.990257 -4.12788 0
M  V30 4758 C 461.65 -3.17367 -4.99031 0
M  V30 4759 H 460.58 -0.263105 -0.706606 0
M  V30 4760 H 463.231 -1.23792 -1.35454 0
M  V30 4761 H 461.613 -0.628732 -3.90977 0
M  V30 4762 H 462.787 -3.37993 -3.13205 0
M  V30 4763 H 461.102 -2.94453 -2.94425 0
M  V30 4764 H 463.699 -1.29926 -5.18675 0
M  V30 4765 H 464.042 0.0730761 -4.16236 0
M  V30 4766 H 464.575 -1.55074 -3.66329 0
M  V30 4767 H 461.314 -4.23009 -5.00743 0
M  V30 4768 H 460.834 -2.56805 -5.42044 0
M  V30 4769 H 462.513 -3.10441 -5.67658 0
M  V30 4770 N 462.645 1.35699 -0.801477 0
M  V30 4771 C 463.608 2.28199 -0.213994 0
M  V30 4772 C 464.608 1.49359 0.595691 0
M  V30 4773 O 465.798 1.69186 0.414921 0
M  V30 4774 C 462.93 3.33587 0.702297 0
M  V30 4775 H 464.123 2.81666 -1.02976 0
M  V30 4776 H 461.676 1.45467 -0.571759 0
M  V30 4777 H 462.411 2.85297 1.54195 0
M  V30 4778 H 462.196 3.91906 0.123484 0
M  V30 4779 H 463.686 4.02638 1.10783 0
M  V30 4780 N 464.123 0.554532 1.47522 0
M  V30 4781 C 465.372 0.0273458 2.01681 0
M  V30 4782 C 465.685 -1.32962 1.43459 0
M  V30 4783 O 466.891 -1.94657 1.89265 0
M  V30 4784 C 465.347 -0.00159057 3.599 0
M  V30 4785 C 464.955 1.35197 4.27113 0
M  V30 4786 C 466.699 -0.476311 4.21819 0
M  V30 4787 C 464.606 1.28229 5.77331 0
M  V30 4788 H 463.536 0.00645269 0.753972 0
M  V30 4789 H 466.187 0.701985 1.69542 0
M  V30 4790 H 464.569 -0.741821 3.8899 0
M  V30 4791 H 465.743 2.1097 4.09668 0
M  V30 4792 H 464.058 1.76441 3.77171 0
M  V30 4793 H 466.655 -0.5468 5.31897 0
M  V30 4794 H 466.998 -1.4877 3.8881 0
M  V30 4795 H 467.531 0.20898 3.97251 0
M  V30 4796 H 464.27 2.26959 6.14955 0
M  V30 4797 H 463.79 0.566314 5.97121 0
M  V30 4798 H 465.469 0.983226 6.39485 0
M  V30 4799 N 465.601 -1.54893 0.290851 0
M  V30 4800 C 466.849 -1.99538 -0.320756 0
M  V30 4801 C 467.17 -1.18075 -1.55188 0
M  V30 4802 O 466.44 -0.274162 -1.93972 0
M  V30 4803 H 465.02 -0.737052 -0.121507 0
M  V30 4804 H 467.682 -1.90755 0.399832 0
M  V30 4805 H 466.778 -3.06282 -0.599802 0
M  V30 4806 N 467.08 -0.0183926 -1.57589 0
M  V30 4807 C 468.028 0.985111 -2.10709 0
M  V30 4808 C 469.022 1.34397 -1.0312 0
M  V30 4809 O 470.228 1.32746 -1.21567 0
M  V30 4810 H 466.603 0.335418 -0.673052 0
M  V30 4811 H 468.574 0.511689 -2.9398 0
M  V30 4812 C 467.323 2.26202 -2.64061 0
M  V30 4813 H 466.646 1.9946 -3.4649 0
M  V30 4814 H 468.086 2.94652 -3.04887 0
M  V30 4815 C 466.545 2.98444 -1.5631 0
M  V30 4816 O 467.075 3.90142 -0.956674 0
M  V30 4817 N 465.281 2.6059 -1.28612 0
M  V30 4818 H 464.828 1.86101 -1.78112 0
M  V30 4819 H 464.786 3.09238 -0.567406 0
M  V30 4820 N 468.558 1.5553 0.254621 0
M  V30 4821 C 469.798 1.7876 0.991179 0
M  V30 4822 C 470.162 0.586669 1.82817 0
M  V30 4823 O 471.363 0.697585 2.5959 0
M  V30 4824 C 469.634 3.06679 1.83529 0
M  V30 4825 S 471.193 3.511 2.632 0
M  V30 4826 H 468.011 0.627916 0.333531 0
M  V30 4827 H 470.613 1.93766 0.259778 0
M  V30 4828 H 469.317 3.92158 1.20996 0
M  V30 4829 H 468.848 2.94388 2.60958 0
M  V30 4830 H 470.863 3.11823 3.8598 0
M  V30 4831 N 470.036 -0.519951 1.48776 0
M  V30 4832 C 471.447 -1.10177 1.50725 0
M  V30 4833 C 471.798 -1.94153 0.282678 0
M  V30 4834 O 470.923 -2.07645 -0.609298 0
M  V30 4835 C 471.518 -2.00482 2.73116 0
M  V30 4836 C 470.077 -2.53862 2.77905 0
M  V30 4837 C 469.224 -1.31047 2.44381 0
M  V30 4838 H 472.175 -0.30473 1.55747 0
M  V30 4839 H 472.196 -2.8491 2.52203 0
M  V30 4840 H 471.708 -1.39335 3.62225 0
M  V30 4841 H 469.809 -3.18702 1.93029 0
M  V30 4842 H 469.922 -2.9231 3.79594 0
M  V30 4843 H 468.286 -1.62953 1.95751 0
M  V30 4844 H 469.069 -0.71637 3.35743 0
M  V30 4845 N 471.514 -1.37532 -0.769588 0
M  V30 4846 C 472.461 -1.3347 -1.88293 0
M  V30 4847 C 473.431 -0.199891 -1.64893 0
M  V30 4848 O 474.616 -0.389594 -1.8678 0
M  V30 4849 C 471.756 -1.14968 -3.25387 0
M  V30 4850 C 470.869 -2.37698 -3.60727 0
M  V30 4851 C 470.004 -2.12051 -4.8704 0
M  V30 4852 C 469.043 -3.30636 -5.15117 0
M  V30 4853 N 468.18 -3.04527 -6.3262 0
M  V30 4854 H 473.02 -2.28658 -1.911 0
M  V30 4855 H 470.557 -1.13622 -0.934257 0
M  V30 4856 H 472.515 -1.02261 -4.04473 0
M  V30 4857 H 471.145 -0.234263 -3.21949 0
M  V30 4858 H 470.197 -2.61137 -2.76608 0
M  V30 4859 H 471.509 -3.26131 -3.77413 0
M  V30 4860 H 470.663 -1.96388 -5.74035 0
M  V30 4861 H 469.402 -1.20959 -4.72462 0
M  V30 4862 H 468.407 -3.46836 -4.26597 0
M  V30 4863 H 469.632 -4.22582 -5.31603 0
M  V30 4864 H 467.578 -2.16067 -6.19396 0
M  V30 4865 H 467.495 -3.86503 -6.49732 0
M  V30 4866 H 468.763 -2.92485 -7.22546 0
M  V30 4867 N 472.992 0.995999 -1.22138 0
M  V30 4868 C 474.222 1.76809 -1.06874 0
M  V30 4869 C 474.63 1.85265 0.383866 0
M  V30 4870 O 473.973 1.31969 1.27789 0
M  V30 4871 C 474.035 3.2186 -1.60144 0
M  V30 4872 C 473.699 3.36958 -3.0872 0
M  V30 4873 C 474.696 3.2452 -4.0618 0
M  V30 4874 C 472.381 3.62109 -3.48112 0
M  V30 4875 C 474.375 3.37013 -5.41019 0
M  V30 4876 C 472.062 3.74243 -4.831 0
M  V30 4877 C 473.06 3.61702 -5.79362 0
M  V30 4878 O 472.748 3.73436 -7.119 0
M  V30 4879 H 472.48 0.562207 -0.375365 0
M  V30 4880 H 475.034 1.26113 -1.62125 0
M  V30 4881 H 473.264 3.73734 -0.992981 0
M  V30 4882 H 474.953 3.80775 -1.40589 0
M  V30 4883 H 475.719 3.05004 -3.77091 0
M  V30 4884 H 471.598 3.70949 -2.73712 0
M  V30 4885 H 475.142 3.27141 -6.16137 0
M  V30 4886 H 471.039 3.93266 -5.11872 0
M  V30 4887 H 471.807 3.90328 -7.19435 0
M  V30 4888 N 474.47 1.03057 1.19235 0
M  V30 4889 C 475.716 0.729098 1.89241 0
M  V30 4890 C 476.049 -0.740573 1.79525 0
M  V30 4891 O 475.324 -1.53946 1.18874 0
M  V30 4892 C 475.607 1.18304 3.40112 0
M  V30 4893 C 475.46 2.71406 3.5869 0
M  V30 4894 C 476.779 0.765161 4.33397 0
M  V30 4895 H 473.898 0.266338 0.687192 0
M  V30 4896 H 476.54 1.28079 1.40341 0
M  V30 4897 H 474.69 0.713672 3.81889 0
M  V30 4898 H 476.362 3.26303 3.26074 0
M  V30 4899 H 474.605 3.11717 3.01687 0
M  V30 4900 H 475.276 2.98225 4.64506 0
M  V30 4901 H 477.752 1.16889 3.99345 0
M  V30 4902 H 476.628 1.11065 5.37546 0
M  V30 4903 H 476.889 -0.332372 4.40849 0
M  V30 4904 N 475.948 -1.35272 0.808662 0
M  V30 4905 C 476.895 -2.29764 0.218482 0
M  V30 4906 C 477.865 -1.52911 -0.648652 0
M  V30 4907 O 479.05 -1.81341 -0.593297 0
M  V30 4908 C 476.19 -3.39388 -0.625282 0
M  V30 4909 C 475.303 -4.31202 0.262516 0
M  V30 4910 C 474.438 -5.27919 -0.589451 0
M  V30 4911 C 473.477 -6.11371 0.298617 0
M  V30 4912 N 472.614 -7.0022 -0.513443 0
M  V30 4913 H 477.454 -2.79645 1.02968 0
M  V30 4914 H 474.991 -1.37629 0.519303 0
M  V30 4915 H 476.949 -4.01615 -1.12966 0
M  V30 4916 H 475.579 -2.90777 -1.40173 0
M  V30 4917 H 474.631 -3.69962 0.885013 0
M  V30 4918 H 475.943 -4.89748 0.945971 0
M  V30 4919 H 475.097 -5.95529 -1.15888 0
M  V30 4920 H 473.836 -4.69875 -1.30647 0
M  V30 4921 H 472.841 -5.42707 0.880301 0
M  V30 4922 H 474.066 -6.71494 1.01352 0
M  V30 4923 H 472.012 -6.44662 -1.21439 0
M  V30 4924 H 471.929 -7.55917 0.111922 0
M  V30 4925 H 473.197 -7.72175 -1.06608 0
M  V30 4926 N 477.426 -0.562348 -1.47226 0
M  V30 4927 C 478.358 0.220011 -2.28142 0
M  V30 4928 C 479.371 0.874596 -1.37312 0
M  V30 4929 O 480.56 0.747583 -1.62091 0
M  V30 4930 C 477.66 1.32953 -3.11732 0
M  V30 4931 C 476.833 0.770759 -4.30556 0
M  V30 4932 C 475.892 1.76541 -4.95701 0
M  V30 4933 O 474.918 1.3095 -5.53932 0
M  V30 4934 N 476.12 3.09896 -4.90861 0
M  V30 4935 H 478.885 -0.474107 -2.95926 0
M  V30 4936 H 476.446 -0.398761 -1.56912 0
M  V30 4937 H 478.438 1.99378 -3.5218 0
M  V30 4938 H 477.008 1.92681 -2.46156 0
M  V30 4939 H 476.228 -0.0704056 -3.94137 0
M  V30 4940 H 477.516 0.376872 -5.07402 0
M  V30 4941 H 476.914 3.49577 -4.44761 0
M  V30 4942 H 475.471 3.71865 -5.35313 0
M  V30 4943 N 478.904 1.54736 -0.299062 0
M  V30 4944 C 480.152 1.99706 0.31017 0
M  V30 4945 C 480.473 1.18896 1.54559 0
M  V30 4946 O 479.743 0.284445 1.93824 0
M  V30 4947 H 478.323 0.737686 0.117596 0
M  V30 4948 H 480.985 1.9054 -0.409943 0
M  V30 4949 H 480.081 3.06596 0.58355 0
M  V30 4950 N 480.382 0.0267497 1.57577 0
M  V30 4951 C 481.607 -0.666227 1.96408 0
M  V30 4952 C 482.032 -1.65004 0.903071 0
M  V30 4953 O 481.39 -1.80787 -0.136263 0
M  V30 4954 C 481.438 -1.35101 3.34335 0
M  V30 4955 O 480.542 -2.46623 3.30531 0
M  V30 4956 H 479.883 -0.175206 0.640468 0
M  V30 4957 H 482.413 0.0878977 2.04411 0
M  V30 4958 H 482.423 -1.70834 3.70513 0
M  V30 4959 H 481.098 -0.629844 4.11103 0
M  V30 4960 H 479.675 -2.13019 3.06068 0
M  V30 4961 N 481.861 -1.55662 -0.24637 0
M  V30 4962 C 482.791 -1.93377 -1.30873 0
M  V30 4963 C 483.772 -0.798773 -1.50179 0
M  V30 4964 O 484.957 -1.0591 -1.62778 0
M  V30 4965 C 482.087 -2.22893 -2.66338 0
M  V30 4966 C 481.041 -3.38649 -2.61727 0
M  V30 4967 C 480.367 -3.53708 -4.00992 0
M  V30 4968 C 481.667 -4.74323 -2.18666 0
M  V30 4969 H 483.361 -2.82363 -0.995552 0
M  V30 4970 H 480.907 -1.35854 -0.477464 0
M  V30 4971 H 482.86 -2.47866 -3.40794 0
M  V30 4972 H 481.584 -1.30733 -2.99293 0
M  V30 4973 H 480.243 -3.13685 -1.89729 0
M  V30 4974 H 479.891 -2.58967 -4.31214 0
M  V30 4975 H 479.591 -4.31551 -3.98795 0
M  V30 4976 H 481.115 -3.81003 -4.77147 0
M  V30 4977 H 482.529 -4.98665 -2.82854 0
M  V30 4978 H 480.926 -5.55273 -2.27579 0
M  V30 4979 H 481.996 -4.71349 -1.13834 0
M  V30 4980 N 483.339 0.512053 -1.4905 0
M  V30 4981 C 484.272 1.63209 -1.59493 0
M  V30 4982 C 485.25 1.56407 -0.444481 0
M  V30 4983 O 486.434 1.76623 -0.658535 0
M  V30 4984 C 483.561 3.01685 -1.53961 0
M  V30 4985 C 482.607 3.26786 -2.74068 0
M  V30 4986 S 483.44 3.11107 -4.35859 0
M  V30 4987 C 484.596 4.51997 -4.32954 0
M  V30 4988 H 484.829 1.54104 -2.54243 0
M  V30 4989 H 482.362 0.696382 -1.37804 0
M  V30 4990 H 484.32 3.81538 -1.51455 0
M  V30 4991 H 482.981 3.08215 -0.605178 0
M  V30 4992 H 482.174 4.27849 -2.66386 0
M  V30 4993 H 481.776 2.54635 -2.73928 0
M  V30 4994 H 484.068 5.43871 -4.03993 0
M  V30 4995 H 485.011 4.64731 -5.34257 0
M  V30 4996 H 485.419 4.32159 -3.63178 0
M  V30 4997 N 484.817 1.37938 0.762283 0
M  V30 4998 C 485.747 1.37176 1.88958 0
M  V30 4999 C 486.728 0.238945 1.68413 0
M  V30 5000 O 487.913 0.440726 1.89133 0
M  V30 5001 C 485.043 1.18742 3.2637 0
M  V30 5002 C 483.997 2.29136 3.61498 0
M  V30 5003 C 483.323 1.95816 4.97554 0
M  V30 5004 C 484.623 3.71363 3.6727 0
M  V30 5005 H 486.317 2.31509 1.89853 0
M  V30 5006 H 483.863 1.11438 0.912005 0
M  V30 5007 H 485.816 1.16837 4.04879 0
M  V30 5008 H 484.54 0.208683 3.25933 0
M  V30 5009 H 483.199 2.30213 2.85303 0
M  V30 5010 H 482.847 0.964475 4.93667 0
M  V30 5011 H 482.547 2.69745 5.22026 0
M  V30 5012 H 484.071 1.95513 5.78452 0
M  V30 5013 H 485.485 3.72364 4.35911 0
M  V30 5014 H 483.882 4.44425 4.03245 0
M  V30 5015 H 484.952 4.04305 2.67704 0
M  V30 5016 N 486.295 -0.989507 1.22664 0
M  V30 5017 C 487.258 -2.06183 1.00106 0
M  V30 5018 C 488.258 -1.60765 -0.0337726 0
M  V30 5019 O 489.448 -1.72989 0.205072 0
M  V30 5020 C 486.58 -3.37021 0.51279 0
M  V30 5021 H 487.773 -2.27629 1.95256 0
M  V30 5022 H 485.326 -1.16158 1.0458 0
M  V30 5023 H 486.061 -3.21261 -0.442917 0
M  V30 5024 H 485.846 -3.71323 1.25942 0
M  V30 5025 H 487.336 -4.1591 0.375315 0
M  V30 5026 N 487.773 -1.03688 -1.18687 0
M  V30 5027 C 489.001 -0.757918 -1.92518 0
M  V30 5028 C 489.416 0.684398 -1.75959 0
M  V30 5029 O 488.773 1.46617 -1.08673 0
M  V30 5030 C 488.824 -1.10985 -3.44042 0
M  V30 5031 O 488.545 -2.49554 -3.60076 0
M  V30 5032 C 490.046 -0.854844 -4.3498 0
M  V30 5033 H 487.266 -0.276699 -0.611293 0
M  V30 5034 H 489.81 -1.38352 -1.50595 0
M  V30 5035 H 487.965 -0.529279 -3.83767 0
M  V30 5036 H 488.379 -2.6291 -4.53849 0
M  V30 5037 H 489.853 -1.15098 -5.39867 0
M  V30 5038 H 490.33 0.210507 -4.38695 0
M  V30 5039 H 490.936 -1.41853 -4.00946 0
M  V30 5040 N 489.251 1.34841 -0.815825 0
M  V30 5041 C 490.499 1.98107 -0.399744 0
M  V30 5042 C 490.82 1.65019 1.03894 0
M  V30 5043 O 490.09 0.937311 1.72021 0
M  V30 5044 H 488.67 0.732827 -0.144823 0
M  V30 5045 H 491.332 1.64599 -1.0437 0
M  V30 5046 H 490.428 3.07856 -0.512965 0
M  V30 5047 N 490.729 0.570148 1.46925 0
M  V30 5048 C 491.662 -0.218362 2.27153 0
M  V30 5049 C 492.64 -0.90847 1.34854 0
M  V30 5050 O 493.824 -0.924875 1.64251 0
M  V30 5051 C 490.951 -1.3122 3.12248 0
M  V30 5052 C 489.997 -0.729277 4.20219 0
M  V30 5053 S 490.83 0.434159 5.33737 0
M  V30 5054 C 491.986 -0.661188 6.22398 0
M  V30 5055 H 492.219 0.462393 2.93682 0
M  V30 5056 H 489.752 0.356753 1.50222 0
M  V30 5057 H 491.71 -1.93856 3.61842 0
M  V30 5058 H 490.371 -1.96485 2.45056 0
M  V30 5059 H 489.564 -1.5511 4.79538 0
M  V30 5060 H 489.166 -0.178836 3.73572 0
M  V30 5061 H 491.458 -1.55006 6.5953 0
M  V30 5062 H 492.401 -0.105046 7.08022 0
M  V30 5063 H 492.809 -0.959682 5.56283 0
M  V30 5064 N 492.207 -1.54576 0.307264 0
M  V30 5065 C 493.623 -1.59534 -0.0459251 0
M  V30 5066 C 493.823 -1.32414 -1.51884 0
M  V30 5067 O 492.879 -1.1006 -2.27251 0
M  V30 5068 C 494.192 -2.98566 0.357649 0
M  V30 5069 C 495.74 -3.11491 0.306937 0
M  V30 5070 C 496.215 -4.52842 0.685427 0
M  V30 5071 N 497.706 -4.58782 0.638203 0
M  V30 5072 C 498.441 -5.66238 0.903458 0
M  V30 5073 N 497.937 -6.81703 1.23501 0
M  V30 5074 N 499.73 -5.55937 0.830102 0
M  V30 5075 H 491.881 -1.70464 1.26712 0
M  V30 5076 H 494.144 -0.79647 0.514139 0
M  V30 5077 H 493.85 -3.23356 1.38325 0
M  V30 5078 H 493.724 -3.76117 -0.285565 0
M  V30 5079 H 496.111 -2.86446 -0.709424 0
M  V30 5080 H 496.192 -2.36081 0.984861 0
M  V30 5081 H 495.836 -4.78618 1.69963 0
M  V30 5082 H 495.766 -5.26598 -0.0146346 0
M  V30 5083 H 498.257 -3.75849 0.393138 0
M  V30 5084 H 498.57 -7.59582 1.42322 0
M  V30 5085 H 496.915 -6.8324 1.27311 0
M  V30 5086 H 500.106 -4.64608 0.570693 0
M  V30 5087 H 500.279 -6.39597 1.04019 0
M  V30 5088 N 493.685 -0.035106 -1.57561 0
M  V30 5089 C 494.633 0.962707 -2.11742 0
M  V30 5090 C 495.627 1.33296 -1.0454 0
M  V30 5091 O 496.833 1.31449 -1.22968 0
M  V30 5092 H 493.208 0.32826 -0.676572 0
M  V30 5093 H 495.179 0.48048 -2.94506 0
M  V30 5094 C 493.928 2.23388 -2.66445 0
M  V30 5095 H 493.251 1.95774 -3.48587 0
M  V30 5096 H 494.691 2.91402 -3.07995 0
M  V30 5097 C 493.15 2.96769 -1.59467 0
M  V30 5098 O 493.68 3.89105 -0.998 0
M  V30 5099 N 491.886 2.59212 -1.31369 0
M  V30 5100 H 491.433 1.84202 -1.80076 0
M  V30 5101 H 491.391 3.08618 -0.600173 0
M  V30 5102 N 495.163 1.55791 0.238111 0
M  V30 5103 C 496.412 1.77234 0.962868 0
M  V30 5104 C 496.725 0.600661 1.86149 0
M  V30 5105 O 497.931 0.698315 2.62366 0
M  V30 5106 C 496.387 3.13808 1.76218 0
M  V30 5107 C 495.995 4.3865 0.910518 0
M  V30 5108 C 497.739 3.44585 2.47914 0
M  V30 5109 C 495.646 5.66252 1.70623 0
M  V30 5110 H 494.576 0.660731 0.36325 0
M  V30 5111 H 497.227 1.8221 0.217242 0
M  V30 5112 H 495.609 3.02963 2.55009 0
M  V30 5113 H 496.783 4.60507 0.164316 0
M  V30 5114 H 495.098 4.15271 0.30647 0
M  V30 5115 H 497.695 4.3714 3.07917 0
M  V30 5116 H 498.038 2.66314 3.19973 0
M  V30 5117 H 498.571 3.56685 1.76127 0
M  V30 5118 H 495.31 6.47369 1.02923 0
M  V30 5119 H 494.83 5.48483 2.42748 0
M  V30 5120 H 496.509 6.05829 2.27114 0
M  V30 5121 N 496.642 -0.504142 1.49319 0
M  V30 5122 C 498.053 -1.08572 1.51885 0
M  V30 5123 C 498.404 -1.93842 0.303255 0
M  V30 5124 O 497.529 -2.0828 -0.58724 0
M  V30 5125 C 498.124 -1.97574 2.75227 0
M  V30 5126 C 496.683 -2.509 2.80581 0
M  V30 5127 C 495.83 -1.28447 2.45757 0
M  V30 5128 H 498.781 -0.288194 1.56061 0
M  V30 5129 H 498.802 -2.82219 2.55211 0
M  V30 5130 H 498.314 -1.35486 3.63683 0
M  V30 5131 H 496.415 -3.16636 1.96398 0
M  V30 5132 H 496.528 -2.88268 3.82673 0
M  V30 5133 H 494.892 -1.60868 1.97468 0
M  V30 5134 H 495.675 -0.68072 3.36483 0
M  V30 5135 N 498.12 -1.38341 -0.754957 0
M  V30 5136 C 499.368 -1.34208 -1.51105 0
M  V30 5137 C 499.689 0.0677634 -1.94882 0
M  V30 5138 O 498.959 1.01517 -1.67544 0
M  V30 5139 H 497.539 -0.493819 -0.560493 0
M  V30 5140 H 500.201 -1.73005 -0.897507 0
M  V30 5141 H 499.297 -1.99203 -2.4026 0
M  V30 5142 N 499.598 0.982988 -1.23187 0
M  V30 5143 C 500.545 2.07491 -1.01075 0
M  V30 5144 C 501.515 1.65949 0.070905 0
M  V30 5145 O 502.7 1.90629 -0.0806822 0
M  V30 5146 C 499.84 3.39751 -0.605261 0
M  V30 5147 C 498.953 3.94578 -1.75876 0
M  V30 5148 C 498.088 5.15039 -1.3003 0
M  V30 5149 C 497.127 5.62027 -2.42472 0
M  V30 5150 N 496.264 6.73719 -1.97602 0
M  V30 5151 H 501.104 2.25739 -1.9454 0
M  V30 5152 H 498.641 1.10659 -0.969179 0
M  V30 5153 H 500.599 4.15719 -0.351279 0
M  V30 5154 H 499.229 3.21473 0.292382 0
M  V30 5155 H 498.281 3.1539 -2.12681 0
M  V30 5156 H 499.593 4.25422 -2.60418 0
M  V30 5157 H 498.747 5.9833 -1.00429 0
M  V30 5158 H 497.486 4.85843 -0.425216 0
M  V30 5159 H 496.491 4.77318 -2.7285 0
M  V30 5160 H 497.716 5.93244 -3.30512 0
M  V30 5161 H 495.662 6.46287 -1.1247 0
M  V30 5162 H 495.579 7.03934 -2.75705 0
M  V30 5163 H 496.847 7.6049 -1.71098 0
M  V30 5164 N 501.076 1.04316 1.18135 0
M  V30 5165 C 502.008 0.594444 2.21357 0
M  V30 5166 C 503.021 -0.337215 1.59269 0
M  V30 5167 O 504.21 -0.131337 1.78016 0
M  V30 5168 C 501.31 -0.151251 3.38562 0
M  V30 5169 C 500.483 0.788907 4.30227 0
M  V30 5170 C 499.542 0.0860572 5.2613 0
M  V30 5171 O 498.568 0.717302 5.64662 0
M  V30 5172 N 499.77 -1.17969 5.68387 0
M  V30 5173 H 502.535 1.48227 2.60478 0
M  V30 5174 H 500.096 0.92396 1.32946 0
M  V30 5175 H 502.088 -0.631352 3.99745 0
M  V30 5176 H 500.658 -0.940639 2.98112 0
M  V30 5177 H 499.878 1.44882 3.6661 0
M  V30 5178 H 501.166 1.42738 4.88368 0
M  V30 5179 H 500.564 -1.71302 5.3914 0
M  V30 5180 H 499.121 -1.60402 6.31755 0
M  V30 5181 N 502.554 -1.34406 0.822964 0
M  V30 5182 C 503.517 -2.2783 0.250271 0
M  V30 5183 C 504.517 -1.50288 -0.571854 0
M  V30 5184 O 505.707 -1.69825 -0.387952 0
M  V30 5185 C 502.839 -3.34663 -0.649137 0
M  V30 5186 H 504.032 -2.79992 1.07444 0
M  V30 5187 H 501.585 -1.44539 0.594829 0
M  V30 5188 H 502.32 -2.87714 -1.49637 0
M  V30 5189 H 502.105 -3.92052 -0.0611199 0
M  V30 5190 H 503.595 -4.04349 -1.04363 0
M  V30 5191 N 504.032 -0.577932 -1.46621 0
M  V30 5192 C 504.979 0.158048 -2.30258 0
M  V30 5193 C 505.949 0.888669 -1.40328 0
M  V30 5194 O 507.134 0.880283 -1.6928 0
M  V30 5195 C 504.274 1.16884 -3.24703 0
M  V30 5196 C 503.387 0.442163 -4.29731 0
M  V30 5197 C 502.522 1.44007 -5.11308 0
M  V30 5198 C 501.561 0.69952 -6.0809 0
M  V30 5199 N 500.698 1.64525 -6.82551 0
M  V30 5200 H 505.538 -0.561242 -2.92667 0
M  V30 5201 H 503.075 -0.288591 -1.44241 0
M  V30 5202 H 505.033 1.7677 -3.779 0
M  V30 5203 H 503.663 1.85591 -2.64113 0
M  V30 5204 H 502.715 -0.271632 -3.79429 0
M  V30 5205 H 504.027 -0.136992 -4.98612 0
M  V30 5206 H 503.181 2.11186 -5.68758 0
M  V30 5207 H 501.92 2.05315 -4.42377 0
M  V30 5208 H 500.925 0.0139217 -5.49798 0
M  V30 5209 H 502.15 0.091894 -6.79038 0
M  V30 5210 H 500.096 2.24653 -6.16334 0
M  V30 5211 H 500.013 1.11878 -7.47676 0
M  V30 5212 H 501.281 2.30754 -7.44562 0
M  V30 5213 N 505.51 1.54411 -0.315457 0
M  V30 5214 C 506.758 2.00023 0.288971 0
M  V30 5215 C 507.079 1.20529 1.5329 0
M  V30 5216 O 506.349 0.304986 1.93511 0
M  V30 5217 H 504.929 0.738891 0.109766 0
M  V30 5218 H 507.591 1.90094 -0.430129 0
M  V30 5219 H 506.687 3.07198 0.550999 0
M  V30 5220 N 506.988 0.0434614 1.5754 0
M  V30 5221 C 507.918 -0.931651 2.14109 0
M  V30 5222 C 508.899 -1.32971 1.06079 0
M  V30 5223 O 510.084 -1.40579 1.33982 0
M  V30 5224 C 507.214 -2.20914 2.67982 0
M  V30 5225 C 506.168 -1.95139 3.80926 0
M  V30 5226 C 505.494 -3.29276 4.21285 0
M  V30 5227 C 506.794 -1.27913 5.06395 0
M  V30 5228 H 508.488 -0.460497 2.95837 0
M  V30 5229 H 506.034 -0.220058 1.42309 0
M  V30 5230 H 507.987 -2.89522 3.06194 0
M  V30 5231 H 506.711 -2.70221 1.83434 0
M  V30 5232 H 505.37 -1.28945 3.43175 0
M  V30 5233 H 505.018 -3.76369 3.33699 0
M  V30 5234 H 504.718 -3.12831 4.97404 0
M  V30 5235 H 506.242 -3.99129 4.62091 0
M  V30 5236 H 507.656 -1.86544 5.42102 0
M  V30 5237 H 506.053 -1.2182 5.87605 0
M  V30 5238 H 507.123 -0.254066 4.84234 0
M  V30 5239 N 508.466 -1.55915 -0.229846 0
M  V30 5240 C 509.713 -1.78542 -0.955452 0
M  V30 5241 C 510.041 -0.610785 -1.84661 0
M  V30 5242 O 509.296 0.405213 -1.91459 0
M  V30 5243 C 509.595 -3.06845 -1.8325 0
M  V30 5244 C 509.261 -4.37395 -1.09528 0
M  V30 5245 C 507.923 -4.72868 -0.891598 0
M  V30 5246 C 510.275 -5.18029 -0.574046 0
M  V30 5247 C 507.603 -5.86496 -0.154655 0
M  V30 5248 C 509.955 -6.32423 0.149513 0
M  V30 5249 C 508.619 -6.66504 0.364519 0
M  V30 5250 H 507.889 -0.653333 -0.349625 0
M  V30 5251 H 510.536 -1.90183 -0.224235 0
M  V30 5252 H 508.841 -2.90291 -2.63132 0
M  V30 5253 H 510.538 -3.21553 -2.39592 0
M  V30 5254 H 507.128 -4.09538 -1.26399 0
M  V30 5255 H 511.312 -4.91066 -0.718899 0
M  V30 5256 H 506.568 -6.11396 0.0222356 0
M  V30 5257 H 510.742 -6.94137 0.560947 0
M  V30 5258 H 508.369 -7.54397 0.937495 0
M  V30 5259 N 509.944 0.496216 -1.49584 0
M  V30 5260 C 511.192 1.24756 -1.58998 0
M  V30 5261 C 511.513 1.92968 -0.280775 0
M  V30 5262 O 510.783 1.82959 0.700198 0
M  V30 5263 H 509.363 0.463471 -0.585836 0
M  V30 5264 H 512.025 0.574678 -1.86235 0
M  V30 5265 H 511.121 2.00895 -2.38847 0
M  V30 5266 N 511.423 1.38739 0.74761 0
M  V30 5267 C 512.386 1.36241 1.84312 0
M  V30 5268 C 513.386 0.261811 1.58654 0
M  V30 5269 O 514.576 0.519031 1.66288 0
M  V30 5270 C 511.708 1.12253 3.21888 0
M  V30 5271 H 512.901 2.33712 1.87933 0
M  V30 5272 H 510.454 1.2412 0.949946 0
M  V30 5273 H 511.189 0.154133 3.23934 0
M  V30 5274 H 510.974 1.91943 3.41907 0
M  V30 5275 H 512.464 1.13215 4.0196 0
M  V30 5276 N 512.901 -0.976442 1.23707 0
M  V30 5277 C 514.15 -1.71254 1.06559 0
M  V30 5278 C 514.463 -1.91528 -0.397024 0
M  V30 5279 O 515.669 -2.62625 -0.688518 0
M  V30 5280 C 514.125 -3.08207 1.8584 0
M  V30 5281 C 513.733 -2.95806 3.36456 0
M  V30 5282 C 515.477 -3.85749 1.77194 0
M  V30 5283 C 513.384 -4.28015 4.08114 0
M  V30 5284 H 512.314 -0.642171 0.395136 0
M  V30 5285 H 514.965 -1.08877 1.4771 0
M  V30 5286 H 513.347 -3.71363 1.37498 0
M  V30 5287 H 514.521 -2.41716 3.92314 0
M  V30 5288 H 512.836 -2.31736 3.45959 0
M  V30 5289 H 515.433 -4.83633 2.28041 0
M  V30 5290 H 515.776 -4.09752 0.735477 0
M  V30 5291 H 516.309 -3.29303 2.23169 0
M  V30 5292 H 513.048 -4.09208 5.12083 0
M  V30 5293 H 512.568 -4.81955 3.57043 0
M  V30 5294 H 514.247 -4.96681 4.14629 0
M  V30 5295 N 514.379 -1.04941 -1.1758 0
M  V30 5296 C 515.342 -0.652456 -2.19717 0
M  V30 5297 C 516.342 0.294745 -1.58076 0
M  V30 5298 O 517.532 0.0789579 -1.74021 0
M  V30 5299 C 514.664 0.0420712 -3.40874 0
M  V30 5300 H 515.857 -1.55642 -2.5635 0
M  V30 5301 H 513.41 -0.842995 -1.31618 0
M  V30 5302 H 514.145 0.95943 -3.09783 0
M  V30 5303 H 513.93 -0.638844 -3.86861 0
M  V30 5304 H 515.42 0.306 -4.16477 0
M  V30 5305 N 515.857 1.33968 -0.830081 0
M  V30 5306 C 517.105 1.97672 -0.420734 0
M  V30 5307 C 517.426 1.66111 1.02138 0
M  V30 5308 O 516.696 0.955503 1.71017 0
M  V30 5309 H 515.276 0.73125 -0.152587 0
M  V30 5310 H 517.938 1.63483 -1.0611 0
M  V30 5311 H 517.034 3.07294 -0.545588 0
M  V30 5312 N 517.335 0.585699 1.46312 0
M  V30 5313 C 518.582 0.0724211 2.0237 0
M  V30 5314 C 518.91 -1.28868 1.45683 0
M  V30 5315 O 518.165 -1.85853 0.612945 0
M  V30 5316 C 518.464 -0.0401312 3.57377 0
M  V30 5317 C 518.13 1.25376 4.33119 0
M  V30 5318 C 516.792 1.60824 4.5353 0
M  V30 5319 C 519.144 2.10987 4.76586 0
M  V30 5320 C 516.472 2.81676 5.14661 0
M  V30 5321 C 518.824 3.31068 5.39052 0
M  V30 5322 C 517.488 3.66794 5.5769 0
M  V30 5323 H 516.758 0.0265007 0.740526 0
M  V30 5324 H 519.405 0.762935 1.75646 0
M  V30 5325 H 517.71 -0.813791 3.83255 0
M  V30 5326 H 519.407 -0.453078 3.98432 0
M  V30 5327 H 515.997 0.967808 4.1753 0
M  V30 5328 H 520.181 1.84904 4.60569 0
M  V30 5329 H 515.437 3.0949 5.27282 0
M  V30 5330 H 519.611 3.97672 5.71691 0
M  V30 5331 H 517.238 4.60529 6.04828 0
M  V30 5332 N 518.813 -1.54241 0.323641 0
M  V30 5333 C 520.062 -1.9975 -0.279806 0
M  V30 5334 C 520.375 -1.2156 -1.5324 0
M  V30 5335 O 521.581 -1.57447 -2.21185 0
M  V30 5336 C 520.037 -3.55686 -0.549115 0
M  V30 5337 C 519.645 -4.4271 0.686432 0
M  V30 5338 C 521.389 -4.09663 -1.11251 0
M  V30 5339 C 519.296 -5.90119 0.389022 0
M  V30 5340 H 518.226 -0.746177 -0.10833 0
M  V30 5341 H 520.877 -1.78248 0.435877 0
M  V30 5342 H 519.259 -3.73176 -1.32499 0
M  V30 5343 H 520.433 -4.36996 1.46188 0
M  V30 5344 H 518.748 -3.99623 1.17005 0
M  V30 5345 H 521.345 -5.17386 -1.34965 0
M  V30 5346 H 521.688 -3.61651 -2.06191 0
M  V30 5347 H 522.221 -3.95806 -0.39782 0
M  V30 5348 H 518.96 -6.42326 1.30759 0
M  V30 5349 H 518.48 -5.98785 -0.348722 0
M  V30 5350 H 520.159 -6.47 -0.0011164 0
M  V30 5351 N 520.291 -0.0518155 -1.57515 0
M  V30 5352 C 521.201 0.937539 -2.15052 0
M  V30 5353 C 522.217 1.34121 -1.10849 0
M  V30 5354 O 523.393 1.418 -1.4302 0
M  V30 5355 C 520.458 2.19379 -2.68466 0
M  V30 5356 C 519.519 1.84841 -3.87469 0
M  V30 5357 C 518.752 3.04477 -4.38326 0
M  V30 5358 O 518.975 4.17868 -3.88256 0
M  V30 5359 O 517.909 2.85453 -5.29906 0
M  V30 5360 H 521.735 0.478201 -2.99912 0
M  V30 5361 H 519.32 0.17012 -1.48428 0
M  V30 5362 H 521.202 2.93084 -3.02787 0
M  V30 5363 H 519.877 2.64449 -1.86677 0
M  V30 5364 H 518.784 1.08449 -3.58036 0
M  V30 5365 H 520.117 1.44569 -4.7049 0
M  V30 5366 N 521.769 1.56035 0.221574 0
M  V30 5367 C 522.717 1.93269 1.29421 0
M  V30 5368 C 523.711 0.814727 1.48521 0
M  V30 5369 O 524.917 0.999559 1.49696 0
M  V30 5370 H 521.292 0.614188 0.43391 0
M  V30 5371 H 523.263 2.82773 0.952987 0
M  V30 5372 C 522.012 2.26573 2.63742 0
M  V30 5373 H 521.335 3.12112 2.49853 0
M  V30 5374 H 522.775 2.5651 3.37607 0
M  V30 5375 C 521.234 1.09086 3.1875 0
M  V30 5376 O 521.764 0.351985 4.00155 0
M  V30 5377 N 519.97 0.874693 2.77124 0
M  V30 5378 H 519.517 1.47726 2.11033 0
M  V30 5379 H 519.475 0.0903349 3.1427 0
M  V30 5380 N 523.247 -0.488276 1.49845 0
M  V30 5381 C 524.495 -1.23911 1.59657 0
M  V30 5382 C 524.816 -1.92816 0.291005 0
M  V30 5383 O 524.086 -1.83328 -0.690485 0
M  V30 5384 H 522.666 -0.460357 0.588286 0
M  V30 5385 H 525.328 -0.564794 1.86537 0
M  V30 5386 H 524.424 -1.99625 2.39909 0
M  V30 5387 N 524.725 -1.39134 -0.740242 0
M  V30 5388 C 525.971 -1.37278 -1.50088 0
M  V30 5389 C 526.326 0.0329967 -1.92372 0
M  V30 5390 O 525.619 0.998447 -1.63529 0
M  V30 5391 C 525.813 -2.27457 -2.75678 0
M  V30 5392 C 525.642 -3.76662 -2.45674 0
M  V30 5393 C 524.412 -4.45617 -2.38229 0
M  V30 5394 C 526.61 -4.6877 -2.11563 0
M  V30 5395 N 524.592 -5.80187 -2.00641 0
M  V30 5396 C 525.963 -5.91951 -1.84376 0
M  V30 5397 C 528.018 -4.56843 -1.97987 0
M  V30 5398 C 526.721 -7.04538 -1.4498 0
M  V30 5399 C 528.747 -5.69347 -1.59994 0
M  V30 5400 C 528.109 -6.91597 -1.33687 0
M  V30 5401 H 524.208 -0.557611 -0.548265 0
M  V30 5402 H 526.792 -1.74638 -0.860784 0
M  V30 5403 H 524.963 -1.92263 -3.37475 0
M  V30 5404 H 526.695 -2.16631 -3.41838 0
M  V30 5405 H 523.45 -3.98993 -2.5515 0
M  V30 5406 H 523.874 -6.51387 -1.84454 0
M  V30 5407 H 528.516 -3.62868 -2.16995 0
M  V30 5408 H 526.234 -7.98419 -1.24712 0
M  V30 5409 H 529.82 -5.62104 -1.50102 0
M  V30 5410 H 528.7 -7.77176 -1.04728 0
M  V30 5411 N 526.204 0.969867 -1.24223 0
M  V30 5412 C 527.136 2.0669 -0.99055 0
M  V30 5413 C 528.149 1.62753 0.0392222 0
M  V30 5414 O 529.338 1.77403 -0.197561 0
M  V30 5415 C 526.438 3.35589 -0.472594 0
M  V30 5416 C 525.611 4.08444 -1.56499 0
M  V30 5417 C 524.67 5.15616 -1.05007 0
M  V30 5418 O 523.696 5.41911 -1.7413 0
M  V30 5419 N 524.898 5.80383 0.116641 0
M  V30 5420 H 527.663 2.28855 -1.93508 0
M  V30 5421 H 525.224 1.13733 -1.15223 0
M  V30 5422 H 527.216 4.04542 -0.112919 0
M  V30 5423 H 525.786 3.10311 0.377617 0
M  V30 5424 H 525.006 3.33798 -2.09696 0
M  V30 5425 H 526.294 4.53882 -2.29932 0
M  V30 5426 H 525.692 5.6142 0.694589 0
M  V30 5427 H 524.249 6.50462 0.417483 0
M  V30 5428 N 527.682 1.05563 1.17022 0
M  V30 5429 C 528.93 0.76642 1.87004 0
M  V30 5430 C 529.251 -0.708854 1.8166 0
M  V30 5431 O 528.521 -1.51242 1.2451 0
M  V30 5432 H 527.101 0.280516 0.692329 0
M  V30 5433 H 529.763 1.33557 1.41945 0
M  V30 5434 H 528.859 1.08472 2.92644 0
M  V30 5435 N 529.16 -1.33526 0.837174 0
M  V30 5436 C 530.09 -2.31764 0.284206 0
M  V30 5437 C 531.071 -1.58896 -0.607142 0
M  V30 5438 O 532.256 -1.86798 -0.531047 0
M  V30 5439 C 529.386 -3.43029 -0.542962 0
M  V30 5440 C 528.34 -4.27255 0.252451 0
M  V30 5441 C 527.666 -5.3012 -0.69836 0
M  V30 5442 C 528.966 -5.01229 1.46858 0
M  V30 5443 H 530.66 -2.78262 1.10502 0
M  V30 5444 H 528.206 -1.3378 0.532812 0
M  V30 5445 H 530.159 -4.1078 -0.940096 0
M  V30 5446 H 528.883 -2.95216 -1.39697 0
M  V30 5447 H 527.542 -3.61127 0.631124 0
M  V30 5448 H 527.19 -4.78564 -1.54872 0
M  V30 5449 H 526.89 -5.87353 -0.170274 0
M  V30 5450 H 528.414 -6.00737 -1.09305 0
M  V30 5451 H 529.828 -5.61756 1.14469 0
M  V30 5452 H 528.225 -5.68104 1.93333 0
M  V30 5453 H 529.295 -4.301 2.23924 0
M  V30 5454 N 530.638 -0.59345 -1.46 0
M  V30 5455 C 531.887 -0.0808084 -2.01538 0
M  V30 5456 C 532.2 1.29112 -1.46934 0
M  V30 5457 O 533.406 1.8957 -1.94359 0
M  V30 5458 C 531.862 -0.0938311 -3.59778 0
M  V30 5459 C 531.47 -1.46474 -4.23379 0
M  V30 5460 C 533.214 0.364306 -4.22934 0
M  V30 5461 C 531.121 -1.4349 -5.73729 0
M  V30 5462 H 530.051 -0.0264407 -0.753536 0
M  V30 5463 H 532.702 -0.746689 -1.67621 0
M  V30 5464 H 531.084 0.638427 -3.9082 0
M  V30 5465 H 532.258 -2.21758 -4.03931 0
M  V30 5466 H 530.573 -1.86379 -3.7236 0
M  V30 5467 H 533.17 0.405584 -5.3316 0
M  V30 5468 H 533.513 1.38409 -3.92618 0
M  V30 5469 H 534.046 -0.31423 -3.96557 0
M  V30 5470 H 530.785 -2.43184 -6.08722 0
M  V30 5471 H 530.305 -0.724431 -5.95409 0
M  V30 5472 H 531.984 -1.15243 -6.36654 0
M  V30 5473 N 532.116 1.54067 -0.331816 0
M  V30 5474 C 533.393 1.92915 0.322955 0
M  V30 5475 C 533.773 1.26225 1.69205 0
M  V30 5476 O 533.121 0.408919 2.24811 0
M  V30 5477 C 533.331 3.46619 0.406946 0
M  V30 5478 C 534.679 4.19386 0.663339 0
M  V30 5479 O 535.703 3.5282 0.489536 0
M  V30 5480 O 534.562 5.37288 0.999193 0
M  V30 5481 H 531.656 0.805808 0.186016 0
M  V30 5482 H 534.202 1.65342 -0.382135 0
M  V30 5483 H 532.974 3.87354 -0.554287 0
M  V30 5484 H 532.597 3.80324 1.15929 0
M  V30 5485 N 533.594 0.0601682 1.57485 0
M  V30 5486 C 534.842 -0.610386 1.92662 0
M  V30 5487 C 535.163 -1.70849 0.939981 0
M  V30 5488 O 534.433 -1.95895 -0.0137455 0
M  V30 5489 H 533.013 -0.228457 0.711208 0
M  V30 5490 H 535.675 0.115288 1.94559 0
M  V30 5491 H 534.771 -1.0432 2.94149 0
M  V30 5492 N 535.072 -1.5615 -0.213296 0
M  V30 5493 C 536.318 -1.80718 -0.933402 0
M  V30 5494 C 536.673 -0.634441 -1.81639 0
M  V30 5495 O 535.966 0.371182 -1.8797 0
M  V30 5496 C 536.16 -3.08772 -1.79985 0
M  V30 5497 C 535.989 -4.38389 -1.00224 0
M  V30 5498 C 534.759 -5.00513 -0.693885 0
M  V30 5499 C 536.957 -5.13013 -0.363598 0
M  V30 5500 N 534.939 -6.13774 0.124266 0
M  V30 5501 C 536.31 -6.19186 0.31757 0
M  V30 5502 C 538.365 -4.97126 -0.277468 0
M  V30 5503 C 537.068 -7.11197 1.07664 0
M  V30 5504 C 539.094 -5.89544 0.468155 0
M  V30 5505 C 538.456 -6.95149 1.13784 0
M  V30 5506 H 534.555 -0.712833 -0.321549 0
M  V30 5507 H 537.139 -1.93633 -0.203588 0
M  V30 5508 H 535.31 -2.97126 -2.50142 0
M  V30 5509 H 537.042 -3.21499 -2.45806 0
M  V30 5510 H 533.797 -4.62619 -1.01391 0
M  V30 5511 H 534.221 -6.74981 0.522418 0
M  V30 5512 H 538.863 -4.15526 -0.78087 0
M  V30 5513 H 536.581 -7.92273 1.59153 0
M  V30 5514 H 540.167 -5.79327 0.535911 0
M  V30 5515 H 539.047 -7.65428 1.70557 0
M  V30 5516 N 536.55 0.480323 -1.50102 0
M  V30 5517 C 537.78 1.25475 -1.64133 0
M  V30 5518 C 538.188 1.8647 -0.320272 0
M  V30 5519 O 537.531 1.69561 0.70673 0
M  V30 5520 C 537.593 2.40996 -2.6676 0
M  V30 5521 C 537.257 2.00711 -4.10565 0
M  V30 5522 C 538.254 1.53492 -4.96725 0
M  V30 5523 C 535.939 2.09714 -4.56427 0
M  V30 5524 C 537.933 1.15806 -6.26792 0
M  V30 5525 C 535.62 1.7164 -5.86501 0
M  V30 5526 C 536.618 1.24763 -6.71508 0
M  V30 5527 O 536.306 0.872122 -7.99155 0
M  V30 5528 H 536.038 0.385983 -0.554971 0
M  V30 5529 H 538.592 0.580848 -1.97016 0
M  V30 5530 H 536.822 3.11528 -2.291 0
M  V30 5531 H 538.511 3.02981 -2.70106 0
M  V30 5532 H 539.277 1.45966 -4.62514 0
M  V30 5533 H 535.156 2.4515 -3.90413 0
M  V30 5534 H 538.7 0.791465 -6.93096 0
M  V30 5535 H 534.597 1.78822 -6.20236 0
M  V30 5536 H 535.365 1.00178 -8.12346 0
M  V30 5537 N 538.028 1.39524 0.732853 0
M  V30 5538 C 539.276 1.36594 1.48951 0
M  V30 5539 C 539.597 -0.0367507 1.94965 0
M  V30 5540 O 538.867 -0.988391 1.69138 0
M  V30 5541 H 537.447 0.502673 0.552566 0
M  V30 5542 H 540.109 1.74411 0.869869 0
M  V30 5543 H 539.205 2.03 2.3706 0
M  V30 5544 N 539.506 -0.963266 1.24736 0
M  V30 5545 C 540.753 -1.7068 1.0897 0
M  V30 5546 C 541.081 -1.90934 -0.370751 0
M  V30 5547 O 540.336 -1.47155 -1.29011 0
M  V30 5548 C 540.635 -3.09944 1.7796 0
M  V30 5549 C 540.301 -3.09518 3.27887 0
M  V30 5550 C 538.963 -3.09109 3.68789 0
M  V30 5551 C 541.315 -3.03509 4.23712 0
M  V30 5552 C 538.643 -3.00429 5.03944 0
M  V30 5553 C 540.995 -2.96371 5.5888 0
M  V30 5554 C 539.659 -2.94293 5.99123 0
M  V30 5555 H 538.929 -0.624564 0.398749 0
M  V30 5556 H 541.576 -1.12603 1.54896 0
M  V30 5557 H 539.881 -3.71513 1.2444 0
M  V30 5558 H 541.578 -3.66278 1.63222 0
M  V30 5559 H 538.168 -3.10603 2.95337 0
M  V30 5560 H 542.352 -3.0295 3.93109 0
M  V30 5561 H 537.608 -2.97183 5.34314 0
M  V30 5562 H 541.782 -2.90681 6.32833 0
M  V30 5563 H 539.409 -2.87322 7.03811 0
M  V30 5564 N 540.985 -1.06182 -1.16461 0
M  V30 5565 C 542.401 -0.785065 -1.38956 0
M  V30 5566 C 542.601 0.616103 -1.9185 0
M  V30 5567 O 541.657 1.37686 -2.11657 0
M  V30 5568 C 542.97 -1.84902 -2.37132 0
M  V30 5569 C 544.518 -1.8724 -2.50819 0
M  V30 5570 C 544.993 -2.92686 -3.52277 0
M  V30 5571 N 546.484 -2.91712 -3.59803 0
M  V30 5572 C 547.219 -3.69949 -4.38093 0
M  V30 5573 N 546.715 -4.58 -5.19815 0
M  V30 5574 N 548.508 -3.58346 -4.33064 0
M  V30 5575 H 540.659 -1.96569 -0.804634 0
M  V30 5576 H 542.922 -0.851747 -0.416211 0
M  V30 5577 H 542.628 -2.85518 -2.0536 0
M  V30 5578 H 542.502 -1.69908 -3.36766 0
M  V30 5579 H 544.889 -0.872827 -2.81897 0
M  V30 5580 H 544.97 -2.06311 -1.51226 0
M  V30 5581 H 544.614 -3.92835 -3.21937 0
M  V30 5582 H 544.544 -2.70864 -4.51598 0
M  V30 5583 H 547.035 -2.27876 -3.01464 0
M  V30 5584 H 547.348 -5.14357 -5.76764 0
M  V30 5585 H 545.693 -4.62056 -5.19162 0
M  V30 5586 H 548.884 -2.88943 -3.68279 0
M  V30 5587 H 549.057 -4.19563 -4.93833 0
M  V30 5588 N 542.463 1.3308 -0.844243 0
M  V30 5589 C 543.413 2.26589 -0.253289 0
M  V30 5590 C 544.397 1.49501 0.594836 0
M  V30 5591 O 545.589 1.71291 0.445924 0
M  V30 5592 C 542.718 3.38599 0.566176 0
M  V30 5593 C 541.804 4.23081 -0.293756 0
M  V30 5594 N 542.195 4.86751 -1.37505 0
M  V30 5595 C 540.493 4.45925 -0.0817086 0
M  V30 5596 C 541.194 5.49684 -1.90323 0
M  V30 5597 N 540.17 5.30101 -1.20391 0
M  V30 5598 H 543.972 2.73334 -1.08009 0
M  V30 5599 H 541.486 1.47048 -0.689258 0
M  V30 5600 H 543.483 4.04584 1.00587 0
M  V30 5601 H 542.143 2.93401 1.39089 0
M  V30 5602 H 543.154 4.87151 -1.75796 0
M  V30 5603 H 539.831 4.11434 0.709129 0
M  V30 5604 H 541.221 6.10363 -2.80902 0
M  V30 5605 N 543.941 0.601185 1.45683 0
M  V30 5606 C 544.873 -0.159446 2.28645 0
M  V30 5607 C 545.886 -0.837882 1.39583 0
M  V30 5608 O 547.075 -0.704344 1.64016 0
M  V30 5609 C 544.175 -1.24641 3.15147 0
M  V30 5610 C 543.348 -0.656334 4.32448 0
M  V30 5611 C 542.407 -1.63337 5.00208 0
M  V30 5612 O 541.433 -1.16217 5.57209 0
M  V30 5613 N 542.635 -2.96773 4.98905 0
M  V30 5614 H 545.4 0.5524 2.94565 0
M  V30 5615 H 542.961 0.440223 1.558 0
M  V30 5616 H 544.953 -1.8997 3.57342 0
M  V30 5617 H 543.523 -1.86087 2.51178 0
M  V30 5618 H 542.743 0.174879 3.93812 0
M  V30 5619 H 544.031 -0.242211 5.08223 0
M  V30 5620 H 543.429 -3.37662 4.53873 0
M  V30 5621 H 541.986 -3.57541 5.44984 0
M  V30 5622 N 545.419 -1.53889 0.339982 0
M  V30 5623 C 546.367 -2.26391 -0.533822 0
M  V30 5624 C 547.361 -1.28404 -1.10493 0
M  V30 5625 O 548.567 -1.46124 -1.05108 0
M  V30 5626 H 544.942 -0.727385 -0.190828 0
M  V30 5627 H 546.913 -2.98233 0.0997484 0
M  V30 5628 C 545.662 -3.04707 -1.67479 0
M  V30 5629 H 544.985 -3.79934 -1.2446 0
M  V30 5630 H 546.425 -3.58657 -2.26144 0
M  V30 5631 C 544.884 -2.13989 -2.60212 0
M  V30 5632 O 545.414 -1.73361 -3.62366 0
M  V30 5633 N 543.62 -1.79141 -2.28816 0
M  V30 5634 H 543.167 -2.12378 -1.45785 0
M  V30 5635 H 543.125 -1.18725 -2.91121 0
M  V30 5636 N 546.897 -0.0685191 -1.57451 0
M  V30 5637 C 547.86 0.885173 -2.11417 0
M  V30 5638 C 548.86 1.22853 -1.03748 0
M  V30 5639 O 550.05 1.16235 -1.2975 0
M  V30 5640 C 547.182 2.18964 -2.61281 0
M  V30 5641 H 548.375 0.417034 -2.96986 0
M  V30 5642 H 545.928 0.18014 -1.55258 0
M  V30 5643 H 546.663 2.70321 -1.79156 0
M  V30 5644 H 546.448 1.9534 -3.39977 0
M  V30 5645 H 547.938 2.87242 -3.0312 0
M  V30 5646 N 548.375 1.56261 0.205012 0
M  V30 5647 C 549.285 1.96944 1.27476 0
M  V30 5648 C 550.301 0.875636 1.50362 0
M  V30 5649 O 551.477 1.18058 1.6317 0
M  V30 5650 C 548.542 2.29219 2.60115 0
M  V30 5651 C 547.603 3.52255 2.45387 0
M  V30 5652 C 546.836 3.8298 3.71701 0
M  V30 5653 O 547.059 3.15138 4.75441 0
M  V30 5654 O 545.993 4.76435 3.67823 0
M  V30 5655 H 549.819 2.88144 0.959527 0
M  V30 5656 H 547.404 1.43686 0.409217 0
M  V30 5657 H 549.286 2.51098 3.3842 0
M  V30 5658 H 547.961 1.4119 2.91285 0
M  V30 5659 H 546.868 3.35635 1.65227 0
M  V30 5660 H 548.201 4.40719 2.19152 0
M  V30 5661 N 549.853 -0.472356 1.50355 0
M  V30 5662 C 551.101 -1.22211 1.60962 0
M  V30 5663 C 551.422 -1.92497 0.311439 0
M  V30 5664 O 550.692 -1.8405 -0.671002 0
M  V30 5665 H 549.272 -0.454092 0.593135 0
M  V30 5666 H 551.934 -0.544977 1.87126 0
M  V30 5667 H 551.03 -1.9707 2.42012 0
M  V30 5668 N 551.331 -1.39911 -0.725443 0
M  V30 5669 C 552.559 -1.40949 -1.51463 0
M  V30 5670 C 552.974 -0.0065242 -1.88799 0
M  V30 5671 O 552.331 0.967163 -1.54765 0
M  V30 5672 C 552.382 -2.29119 -2.79619 0
M  V30 5673 O 552.103 -3.63952 -2.43866 0
M  V30 5674 C 553.604 -2.38642 -3.73584 0
M  V30 5675 H 550.824 -0.481091 -0.467752 0
M  V30 5676 H 553.368 -1.83843 -0.895651 0
M  V30 5677 H 551.523 -1.89612 -3.37826 0
M  V30 5678 H 551.937 -4.10677 -3.26258 0
M  V30 5679 H 553.411 -3.04563 -4.60375 0
M  V30 5680 H 553.888 -1.40846 -4.16004 0
M  V30 5681 H 554.494 -2.78659 -3.21293 0
M  V30 5682 N 552.809 0.956637 -1.25245 0
M  V30 5683 C 554.057 1.69764 -1.09657 0
M  V30 5684 C 554.378 1.91583 0.363464 0
M  V30 5685 O 553.648 1.50149 1.25825 0
M  V30 5686 H 552.228 0.629097 -0.402798 0
M  V30 5687 H 554.89 1.15026 -1.57337 0
M  V30 5688 H 553.986 2.67769 -1.60331 0
M  V30 5689 N 554.287 1.06798 1.15896 0
M  V30 5690 C 555.515 0.808694 1.90441 0
M  V30 5691 C 555.93 -0.637506 1.77711 0
M  V30 5692 O 555.287 -1.43684 1.12522 0
M  V30 5693 C 555.338 1.20068 3.40978 0
M  V30 5694 O 555.059 2.59013 3.53333 0
M  V30 5695 C 556.56 0.96987 4.3256 0
M  V30 5696 H 553.78 0.292809 0.603742 0
M  V30 5697 H 556.324 1.42296 1.46874 0
M  V30 5698 H 554.479 0.630842 3.82229 0
M  V30 5699 H 554.893 2.7485 4.46719 0
M  V30 5700 H 556.367 1.29371 5.36626 0
M  V30 5701 H 556.844 -0.0941209 4.39099 0
M  V30 5702 H 557.45 1.52433 3.97044 0
M  V30 5703 N 555.766 -1.3263 0.851289 0
M  V30 5704 C 556.729 -2.27247 0.298541 0
M  V30 5705 C 557.729 -1.51467 -0.539847 0
M  V30 5706 O 558.919 -1.7061 -0.351843 0
M  V30 5707 C 556.051 -3.35964 -0.578004 0
M  V30 5708 H 557.244 -2.7765 1.13359 0
M  V30 5709 H 554.797 -1.43245 0.625354 0
M  V30 5710 H 555.532 -2.90823 -1.435 0
M  V30 5711 H 555.317 -3.92094 0.0220539 0
M  V30 5712 H 556.807 -4.06472 -0.957626 0
M  V30 5713 N 557.244 -0.608902 -1.45362 0
M  V30 5714 C 558.207 0.0992563 -2.28985 0
M  V30 5715 C 559.207 0.793841 -1.39838 0
M  V30 5716 O 560.397 0.641804 -1.61946 0
M  V30 5717 C 557.529 1.15073 -3.20891 0
M  V30 5718 H 558.722 -0.635964 -2.93079 0
M  V30 5719 H 556.275 -0.368007 -1.51906 0
M  V30 5720 H 557.01 1.91667 -2.616 0
M  V30 5721 H 556.795 0.656867 -3.86559 0
M  V30 5722 H 558.285 1.64665 -3.83765 0
M  V30 5723 N 558.722 1.53707 -0.348139 0
M  V30 5724 C 559.999 1.93247 0.302475 0
M  V30 5725 C 560.379 1.28012 1.67857 0
M  V30 5726 O 559.727 0.43274 2.24365 0
M  V30 5727 C 559.937 3.47031 0.370159 0
M  V30 5728 C 561.285 4.20066 0.61882 0
M  V30 5729 O 562.309 3.53319 0.452087 0
M  V30 5730 O 561.168 5.38318 0.94215 0
M  V30 5731 H 558.262 0.807736 0.177458 0
M  V30 5732 H 560.808 1.64927 -0.399651 0
M  V30 5733 H 559.58 3.86745 -0.59534 0
M  V30 5734 H 559.203 3.81532 1.11888 0
M  V30 5735 N 560.2 0.0768682 1.57412 0
M  V30 5736 C 561.13 -0.886026 2.16037 0
M  V30 5737 C 562.111 -1.30691 1.08876 0
M  V30 5738 O 563.296 -1.37705 1.36934 0
M  V30 5739 C 560.426 -2.1518 2.72608 0
M  V30 5740 C 559.38 -1.87015 3.8498 0
M  V30 5741 C 558.706 -3.20266 4.28175 0
M  V30 5742 C 560.006 -1.17143 5.08994 0
M  V30 5743 H 561.7 -0.397642 2.96748 0
M  V30 5744 H 559.246 -0.189823 1.42743 0
M  V30 5745 H 561.199 -2.82962 3.12266 0
M  V30 5746 H 559.923 -2.66269 1.89125 0
M  V30 5747 H 558.582 -1.21636 3.45833 0
M  V30 5748 H 558.23 -3.69207 3.41607 0
M  V30 5749 H 557.93 -3.0221 5.03927 0
M  V30 5750 H 559.454 -3.89237 4.70454 0
M  V30 5751 H 560.868 -1.75003 5.45937 0
M  V30 5752 H 559.265 -1.09328 5.90057 0
M  V30 5753 H 560.335 -0.151295 4.84664 0
M  V30 5754 N 561.678 -1.56367 -0.196722 0
M  V30 5755 C 562.625 -1.94417 -1.24382 0
M  V30 5756 C 563.595 -0.804543 -1.45315 0
M  V30 5757 O 564.78 -1.06256 -1.58475 0
M  V30 5758 C 561.92 -2.28757 -2.58388 0
M  V30 5759 C 561.033 -3.55775 -2.45047 0
M  V30 5760 C 560.168 -3.79445 -3.71746 0
M  V30 5761 C 559.207 -4.99894 -3.53231 0
M  V30 5762 N 558.344 -5.19826 -4.71938 0
M  V30 5763 H 563.184 -2.83691 -0.912338 0
M  V30 5764 H 560.721 -1.40392 -0.439135 0
M  V30 5765 H 562.679 -2.46682 -3.36457 0
M  V30 5766 H 561.309 -1.42625 -2.89582 0
M  V30 5767 H 560.361 -3.45905 -1.58284 0
M  V30 5768 H 561.673 -4.44 -2.27299 0
M  V30 5769 H 560.827 -3.97601 -4.58256 0
M  V30 5770 H 559.566 -2.89546 -3.92446 0
M  V30 5771 H 558.571 -4.81662 -2.65107 0
M  V30 5772 H 559.796 -5.913 -3.33978 0
M  V30 5773 H 557.742 -4.32875 -4.92905 0
M  V30 5774 H 557.659 -6.02228 -4.57009 0
M  V30 5775 H 558.927 -5.42439 -5.59803 0
M  V30 5776 N 563.156 0.464375 -1.50603 0
M  V30 5777 C 564.381 1.24372 -1.65971 0
M  V30 5778 C 564.806 1.84901 -0.345453 0
M  V30 5779 O 564.164 1.67596 0.691457 0
M  V30 5780 C 564.212 2.32331 -2.7578 0
M  V30 5781 O 563.316 3.37146 -2.375 0
M  V30 5782 H 562.657 0.365604 -0.554283 0
M  V30 5783 H 565.187 0.55183 -1.97018 0
M  V30 5784 H 565.197 2.77539 -2.99059 0
M  V30 5785 H 563.872 1.87648 -3.71162 0
M  V30 5786 H 562.449 2.97602 -2.24694 0
M  V30 5787 N 564.634 1.40294 0.718013 0
M  V30 5788 C 565.862 1.4175 1.50714 0
M  V30 5789 C 566.277 0.0165366 1.88793 0
M  V30 5790 O 565.634 -0.958942 1.55276 0
M  V30 5791 C 565.685 2.30598 2.784 0
M  V30 5792 O 565.406 3.6524 2.41932 0
M  V30 5793 C 566.907 2.4062 3.72313 0
M  V30 5794 H 564.127 0.483565 0.465194 0
M  V30 5795 H 566.671 1.84316 0.885889 0
M  V30 5796 H 564.826 1.91401 3.36815 0
M  V30 5797 H 565.24 4.12402 3.24076 0
M  V30 5798 H 566.714 3.07001 4.58753 0
M  V30 5799 H 567.191 1.4305 4.15251 0
M  V30 5800 H 567.797 2.80359 3.19811 0
M  V30 5801 N 566.112 -0.949982 1.2575 0
M  V30 5802 C 567.044 -2.05088 1.02331 0
M  V30 5803 C 568.057 -1.62795 -0.0133247 0
M  V30 5804 O 569.246 -1.77067 0.225759 0
M  V30 5805 C 566.346 -3.34794 0.525924 0
M  V30 5806 C 565.519 -4.05903 1.62978 0
M  V30 5807 C 564.578 -5.1388 1.13196 0
M  V30 5808 O 563.604 -5.39072 1.82729 0
M  V30 5809 N 564.806 -5.80495 -0.0242926 0
M  V30 5810 H 567.571 -2.25747 1.97125 0
M  V30 5811 H 565.132 -1.11886 1.17018 0
M  V30 5812 H 567.124 -4.04312 0.177263 0
M  V30 5813 H 565.694 -3.10872 -0.328202 0
M  V30 5814 H 564.914 -3.3042 2.1498 0
M  V30 5815 H 566.202 -4.50166 2.37124 0
M  V30 5816 H 565.6 -5.62454 -0.605184 0
M  V30 5817 H 564.157 -6.51043 -0.313947 0
M  V30 5818 N 567.59 -1.07411 -1.15328 0
M  V30 5819 C 568.553 -0.698914 -2.18284 0
M  V30 5820 C 569.553 0.261149 -1.58665 0
M  V30 5821 O 570.743 0.0420277 -1.74149 0
M  V30 5822 C 567.875 -0.0302427 -3.40887 0
M  V30 5823 H 569.068 -1.61045 -2.52991 0
M  V30 5824 H 566.621 -0.870724 -1.298 0
M  V30 5825 H 567.356 0.893505 -3.11748 0
M  V30 5826 H 567.141 -0.720759 -3.85419 0
M  V30 5827 H 568.631 0.21759 -4.17033 0
M  V30 5828 N 569.068 1.32177 -0.85831 0
M  V30 5829 C 570.031 2.27086 -0.310588 0
M  V30 5830 C 571.031 1.51751 0.531806 0
M  V30 5831 O 572.221 1.70794 0.34279 0
M  V30 5832 C 569.353 3.36266 0.560179 0
M  V30 5833 H 570.546 2.77045 -1.1483 0
M  V30 5834 H 568.099 1.42911 -0.632942 0
M  V30 5835 H 568.834 2.9158 1.41956 0
M  V30 5836 H 568.619 3.92077 -0.0428473 0
M  V30 5837 H 570.109 4.06974 0.936056 0
M  V30 5838 N 570.547 0.616602 1.45037 0
M  V30 5839 C 571.796 0.112861 2.01384 0
M  V30 5840 C 572.109 -1.26758 1.48969 0
M  V30 5841 O 573.315 -1.86454 1.9735 0
M  V30 5842 C 571.771 0.151057 3.59583 0
M  V30 5843 C 571.379 1.53191 4.20995 0
M  V30 5844 C 573.123 -0.296974 4.2346 0
M  V30 5845 C 571.03 1.526 5.71373 0
M  V30 5846 H 569.96 0.0384254 0.75302 0
M  V30 5847 H 572.611 0.773262 1.66412 0
M  V30 5848 H 570.993 -0.57617 3.91786 0
M  V30 5849 H 572.167 2.28156 4.00352 0
M  V30 5850 H 570.482 1.92279 3.69348 0
M  V30 5851 H 573.079 -0.320712 5.33737 0
M  V30 5852 H 573.422 -1.32145 3.9477 0
M  V30 5853 H 573.955 0.377279 3.96007 0
M  V30 5854 H 570.694 2.52837 6.04776 0
M  V30 5855 H 570.214 0.819064 5.94181 0
M  V30 5856 H 571.893 1.25357 6.3474 0
M  V30 5857 N 572.025 -1.5352 0.356285 0
M  V30 5858 C 573.302 -1.93405 -0.292223 0
M  V30 5859 C 573.682 -1.28901 -1.67176 0
M  V30 5860 O 573.03 -0.444632 -2.24132 0
M  V30 5861 C 573.24 -3.47223 -0.35175 0
M  V30 5862 C 574.588 -4.20389 -0.596534 0
M  V30 5863 O 575.612 -3.53554 -0.433344 0
M  V30 5864 O 574.471 -5.3881 -0.913589 0
M  V30 5865 H 571.565 -0.808666 -0.173172 0
M  V30 5866 H 574.111 -1.64713 0.408391 0
M  V30 5867 H 572.883 -3.86423 0.615841 0
M  V30 5868 H 572.506 -3.8212 -1.09864 0
M  V30 5869 N 573.503 -0.0852151 -1.57369 0
M  V30 5870 C 574.435 0.907099 -2.10486 0
M  V30 5871 C 575.448 1.25259 -1.03991 0
M  V30 5872 O 576.637 1.20743 -1.31467 0
M  V30 5873 C 573.737 2.21908 -2.56145 0
M  V30 5874 C 572.91 2.05042 -3.86363 0
M  V30 5875 C 571.969 3.19664 -4.17973 0
M  V30 5876 O 570.995 2.94062 -4.87356 0
M  V30 5877 N 572.197 4.45151 -3.72587 0
M  V30 5878 H 574.962 0.453505 -2.96249 0
M  V30 5879 H 572.523 0.100157 -1.6159 0
M  V30 5880 H 574.515 2.97519 -2.74343 0
M  V30 5881 H 573.085 2.58723 -1.75446 0
M  V30 5882 H 572.305 1.13819 -3.77411 0
M  V30 5883 H 573.593 1.91039 -4.71574 0
M  V30 5884 H 572.991 4.68834 -3.16561 0
M  V30 5885 H 571.548 5.17744 -3.9596 0
M  V30 5886 N 574.981 1.5647 0.188427 0
M  V30 5887 C 576.23 1.80207 0.905995 0
M  V30 5888 C 576.543 0.659579 1.84144 0
M  V30 5889 O 577.749 0.781431 2.60011 0
M  V30 5890 C 576.205 3.19255 1.66145 0
M  V30 5891 C 575.813 4.41324 0.770504 0
M  V30 5892 C 577.557 3.52298 2.36826 0
M  V30 5893 C 575.464 5.71394 1.52521 0
M  V30 5894 H 574.394 0.671953 0.342045 0
M  V30 5895 H 577.045 1.82808 0.159164 0
M  V30 5896 H 575.427 3.10922 2.45242 0
M  V30 5897 H 576.601 4.60797 0.0177261 0
M  V30 5898 H 574.916 4.16035 0.174199 0
M  V30 5899 H 577.513 4.46715 2.93854 0
M  V30 5900 H 577.856 2.76359 3.11338 0
M  V30 5901 H 578.389 3.62108 1.6469 0
M  V30 5902 H 575.128 6.50316 0.82275 0
M  V30 5903 H 574.648 5.55928 2.25175 0
M  V30 5904 H 576.327 6.12747 2.07725 0
M  V30 5905 N 576.459 -0.456382 1.50847 0
M  V30 5906 C 577.407 -1.57318 1.71329 0
M  V30 5907 C 578.401 -1.59187 0.579287 0
M  V30 5908 O 579.607 -1.6316 0.76018 0
M  V30 5909 H 575.982 -0.5223 0.541024 0
M  V30 5910 H 577.953 -1.3721 2.64983 0
M  V30 5911 C 576.702 -2.95142 1.83811 0
M  V30 5912 H 576.025 -2.94428 2.70467 0
M  V30 5913 H 577.465 -3.72702 2.02161 0
M  V30 5914 C 575.924 -3.31636 0.593224 0
M  V30 5915 O 576.454 -4.00852 -0.260898 0
M  V30 5916 N 574.66 -2.87205 0.442902 0
M  V30 5917 H 574.207 -2.31051 1.13901 0
M  V30 5918 H 574.165 -3.11986 -0.38884 0
M  V30 5919 N 577.937 -1.40673 -0.710563 0
M  V30 5920 C 579.185 -1.38947 -1.46759 0
M  V30 5921 C 579.506 0.00572879 -1.94999 0
M  V30 5922 O 578.776 0.961358 -1.70689 0
M  V30 5923 H 577.356 -0.5114 -0.544499 0
M  V30 5924 H 580.018 -1.75773 -0.842012 0
M  V30 5925 H 579.114 -2.06745 -2.33801 0
M  V30 5926 N 579.415 0.9433 -1.26252 0
M  V30 5927 C 580.362 2.0417 -1.07625 0
M  V30 5928 C 581.332 1.6609 0.0180738 0
M  V30 5929 O 582.517 1.90276 -0.141289 0
M  V30 5930 C 579.657 3.37653 -0.713043 0
M  V30 5931 C 578.77 3.88783 -1.8834 0
M  V30 5932 C 577.905 5.10642 -1.4635 0
M  V30 5933 C 576.944 5.54028 -2.60229 0
M  V30 5934 N 576.081 6.67092 -2.18936 0
M  V30 5935 H 580.921 2.19436 -2.01623 0
M  V30 5936 H 578.458 1.07519 -1.00389 0
M  V30 5937 H 580.416 4.14391 -0.483358 0
M  V30 5938 H 579.046 3.22241 0.18996 0
M  V30 5939 H 578.098 3.08464 -2.22608 0
M  V30 5940 H 579.41 4.16922 -2.73821 0
M  V30 5941 H 578.564 5.94832 -1.19414 0
M  V30 5942 H 577.303 4.84244 -0.579568 0
M  V30 5943 H 576.308 4.68396 -2.87898 0
M  V30 5944 H 577.533 5.82429 -3.49219 0
M  V30 5945 H 575.479 6.42381 -1.32974 0
M  V30 5946 H 575.396 6.94806 -2.97961 0
M  V30 5947 H 576.664 7.54662 -1.95206 0
M  V30 5948 N 580.893 1.08022 1.14757 0
M  V30 5949 C 581.823 0.728248 2.21853 0
M  V30 5950 C 582.804 -0.287486 1.67653 0
M  V30 5951 O 583.989 -0.158727 1.9355 0
M  V30 5952 C 581.119 0.132549 3.47047 0
M  V30 5953 C 580.073 1.07619 4.14249 0
M  V30 5954 C 579.399 0.342907 5.33599 0
M  V30 5955 C 580.699 2.41268 4.63235 0
M  V30 5956 H 582.393 1.62365 2.51551 0
M  V30 5957 H 579.939 0.782125 1.20908 0
M  V30 5958 H 581.892 -0.125665 4.21213 0
M  V30 5959 H 580.616 -0.797971 3.16702 0
M  V30 5960 H 579.275 1.31944 3.42033 0
M  V30 5961 H 578.923 -0.59129 4.99513 0
M  V30 5962 H 578.623 0.971955 5.79506 0
M  V30 5963 H 580.147 0.0926538 6.1053 0
M  V30 5964 H 581.561 2.21232 5.28894 0
M  V30 5965 H 579.958 2.9983 5.19829 0
M  V30 5966 H 581.028 3.03079 3.78512 0
M  V30 5967 N 582.371 -1.3172 0.865308 0
M  V30 5968 C 583.319 -2.30569 0.306674 0
M  V30 5969 C 584.313 -1.59317 -0.575724 0
M  V30 5970 O 585.519 -1.73961 -0.462343 0
M  V30 5971 H 581.894 -0.747681 0.0804834 0
M  V30 5972 H 583.865 -2.75165 1.15441 0
M  V30 5973 C 582.614 -3.44358 -0.480952 0
M  V30 5974 H 581.937 -3.99354 0.18876 0
M  V30 5975 H 583.377 -4.15652 -0.837241 0
M  V30 5976 C 581.836 -2.92574 -1.67039 0
M  V30 5977 O 582.366 -2.90954 -2.76964 0
M  V30 5978 N 580.572 -2.48835 -1.50097 0
M  V30 5979 H 580.119 -2.50353 -0.606738 0
M  V30 5980 H 580.077 -2.14543 -2.29823 0
M  V30 5981 N 583.85 -0.624285 -1.44708 0
M  V30 5982 C 585.266 -0.289322 -1.56956 0
M  V30 5983 C 585.466 1.20773 -1.61295 0
M  V30 5984 O 584.522 1.9915 -1.55227 0
M  V30 5985 C 585.835 -0.975215 -2.84447 0
M  V30 5986 C 587.383 -0.952709 -2.98148 0
M  V30 5987 C 587.858 -1.61893 -4.28433 0
M  V30 5988 N 589.349 -1.5852 -4.35231 0
M  V30 5989 C 590.084 -2.06969 -5.34744 0
M  V30 5990 N 589.58 -2.63579 -6.40701 0
M  V30 5991 N 591.373 -1.97638 -5.26209 0
M  V30 5992 H 583.524 -1.59612 -1.40135 0
M  V30 5993 H 585.787 -0.669592 -0.671081 0
M  V30 5994 H 585.493 -2.02999 -2.87201 0
M  V30 5995 H 585.367 -0.508749 -3.73753 0
M  V30 5996 H 587.754 0.093568 -2.94952 0
M  V30 5997 H 587.835 -1.4576 -2.10209 0
M  V30 5998 H 587.479 -2.66463 -4.32389 0
M  V30 5999 H 587.409 -1.08893 -5.15218 0
M  V30 6000 H 589.899 -1.17183 -3.59272 0
M  V30 6001 H 590.213 -2.98298 -7.12908 0
M  V30 6002 H 588.558 -2.67626 -6.41406 0
M  V30 6003 H 591.749 -1.5314 -4.42341 0
M  V30 6004 H 591.922 -2.35708 -6.03611 0
M  V30 6005 N 585.328 1.53329 -0.364422 0
M  V30 6006 C 586.258 2.28627 0.474543 0
M  V30 6007 C 587.239 1.31009 1.08492 0
M  V30 6008 O 588.424 1.59878 1.10239 0
M  V30 6009 C 585.554 3.07465 1.61501 0
M  V30 6010 C 584.508 4.1276 1.13194 0
M  V30 6011 C 583.834 4.79674 2.36255 0
M  V30 6012 C 585.134 5.21847 0.217507 0
M  V30 6013 H 586.828 2.99005 -0.153656 0
M  V30 6014 H 584.374 1.43803 -0.0753406 0
M  V30 6015 H 586.327 3.58889 2.20855 0
M  V30 6016 H 585.051 2.34775 2.27042 0
M  V30 6017 H 583.71 3.62281 0.56109 0
M  V30 6018 H 583.358 4.03557 3.00251 0
M  V30 6019 H 583.058 5.50827 2.04606 0
M  V30 6020 H 584.582 5.33892 2.96297 0
M  V30 6021 H 585.996 5.6878 0.718493 0
M  V30 6022 H 584.393 6.00099 -0.00806408 0
M  V30 6023 H 585.463 4.7921 -0.740653 0
M  V30 6024 N 586.806 0.0935595 1.57322 0
M  V30 6025 C 588.055 -0.570191 1.93473 0
M  V30 6026 C 588.368 -1.69434 0.977318 0
M  V30 6027 O 589.574 -2.41914 1.23248 0
M  V30 6028 C 588.03 -1.06564 3.43762 0
M  V30 6029 C 587.638 0.0286723 4.47991 0
M  V30 6030 C 589.382 -1.70221 3.88877 0
M  V30 6031 C 587.289 -0.482046 5.89432 0
M  V30 6032 H 586.219 -0.216764 0.72217 0
M  V30 6033 H 588.87 0.169313 1.82717 0
M  V30 6034 H 587.252 -1.85878 3.49664 0
M  V30 6035 H 588.426 0.804106 4.5373 0
M  V30 6036 H 586.741 0.570336 4.12476 0
M  V30 6037 H 589.338 -2.09502 4.91948 0
M  V30 6038 H 589.681 -2.57078 3.27439 0
M  V30 6039 H 590.214 -0.974919 3.85668 0
M  V30 6040 H 586.953 0.349871 6.54566 0
M  V30 6041 H 586.473 -1.22452 5.87167 0
M  V30 6042 H 588.152 -0.951508 6.39965 0
M  V30 6043 N 588.284 -1.56567 -0.180126 0
M  V30 6044 C 589.194 -1.98947 -1.24327 0
M  V30 6045 C 590.21 -0.899446 -1.4895 0
M  V30 6046 O 591.386 -1.20639 -1.61271 0
M  V30 6047 C 588.451 -2.33328 -2.56435 0
M  V30 6048 C 587.512 -3.56114 -2.39752 0
M  V30 6049 C 586.745 -3.88845 -3.65561 0
M  V30 6050 O 586.968 -3.22662 -4.70368 0
M  V30 6051 O 585.902 -4.82226 -3.60197 0
M  V30 6052 H 589.728 -2.89634 -0.913565 0
M  V30 6053 H 587.313 -1.44319 -0.386306 0
M  V30 6054 H 589.195 -2.5645 -3.34382 0
M  V30 6055 H 587.87 -1.45806 -2.89002 0
M  V30 6056 H 586.777 -3.38221 -1.59866 0
M  V30 6057 H 588.11 -4.4415 -2.12113 0
M  V30 6058 N 589.762 0.448376 -1.51087 0
M  V30 6059 C 590.709 1.54341 -1.71603 0
M  V30 6060 C 591.679 1.56463 -0.557536 0
M  V30 6061 O 592.864 1.73644 -0.79072 0
M  V30 6062 C 590.004 2.92148 -1.83695 0
M  V30 6063 C 589.117 2.99639 -3.11192 0
M  V30 6064 C 588.252 4.285 -3.13944 0
M  V30 6065 C 587.291 4.29819 -4.35801 0
M  V30 6066 N 586.428 5.50186 -4.36164 0
M  V30 6067 H 591.268 1.36151 -2.65079 0
M  V30 6068 H 588.805 0.661585 -1.31383 0
M  V30 6069 H 590.763 3.72093 -1.88687 0
M  V30 6070 H 589.393 3.0892 -0.936374 0
M  V30 6071 H 588.445 2.12425 -3.15562 0
M  V30 6072 H 589.757 2.96474 -4.01129 0
M  V30 6073 H 588.911 5.16811 -3.17791 0
M  V30 6074 H 587.65 4.34307 -2.21876 0
M  V30 6075 H 586.655 3.39902 -4.32142 0
M  V30 6076 H 587.88 4.25685 -5.29121 0
M  V30 6077 H 585.826 5.56735 -3.46961 0
M  V30 6078 H 585.743 5.48856 -5.19897 0
M  V30 6079 H 587.011 6.40559 -4.44189 0
M  V30 6080 N 591.24 1.41047 0.703093 0
M  V30 6081 C 592.468 1.4334 1.49202 0
M  V30 6082 C 592.883 0.0365596 1.88765 0
M  V30 6083 O 592.24 -0.942419 1.56284 0
M  V30 6084 C 592.291 2.33538 2.75939 0
M  V30 6085 O 592.012 3.67786 2.38045 0
M  V30 6086 C 593.513 2.44555 3.6974 0
M  V30 6087 H 590.733 0.488472 0.460039 0
M  V30 6088 H 593.277 1.85245 0.86629 0
M  V30 6089 H 591.432 1.94962 3.34766 0
M  V30 6090 H 591.846 4.15816 3.19683 0
M  V30 6091 H 593.32 3.11849 4.55471 0
M  V30 6092 H 593.797 1.47447 4.1371 0
M  V30 6093 H 594.403 2.83735 3.16819 0
M  V30 6094 N 592.718 -0.936591 1.26751 0
M  V30 6095 C 593.666 -2.0573 1.08527 0
M  V30 6096 C 594.66 -1.69397 0.0108784 0
M  V30 6097 O 595.866 -1.79215 0.167915 0
M  V30 6098 H 592.241 -0.673691 0.334133 0
M  V30 6099 H 594.212 -2.1825 2.03493 0
M  V30 6100 C 592.961 -3.39738 0.739845 0
M  V30 6101 H 592.284 -3.68174 1.55845 0
M  V30 6102 H 593.724 -4.18955 0.652149 0
M  V30 6103 C 592.183 -3.32292 -0.555288 0
M  V30 6104 O 592.713 -3.68794 -1.59229 0
M  V30 6105 N 590.919 -2.85394 -0.54762 0
M  V30 6106 H 590.466 -2.55886 0.296667 0
M  V30 6107 H 590.424 -2.80795 -1.41427 0
M  V30 6108 N 594.196 -1.08629 -1.14182 0
M  V30 6109 C 595.106 -0.730126 -2.22949 0
M  V30 6110 C 596.122 0.26436 -1.7198 0
M  V30 6111 O 597.298 0.107742 -2.01112 0
M  V30 6112 C 594.363 -0.147227 -3.46387 0
M  V30 6113 C 593.424 -1.19662 -4.12286 0
M  V30 6114 C 592.657 -0.641437 -5.29831 0
M  V30 6115 O 592.88 0.538351 -5.67854 0
M  V30 6116 O 591.814 -1.39257 -5.85569 0
M  V30 6117 H 595.64 -1.63753 -2.55771 0
M  V30 6118 H 593.225 -0.860118 -1.22157 0
M  V30 6119 H 595.107 0.174923 -4.21037 0
M  V30 6120 H 593.782 0.733304 -3.15285 0
M  V30 6121 H 592.689 -1.57133 -3.395 0
M  V30 6122 H 594.022 -2.0495 -4.475 0
M  V30 6123 N 595.674 1.31259 -0.872281 0
M  V30 6124 C 596.621 2.28459 -0.327857 0
M  V30 6125 C 597.591 1.55831 0.574957 0
M  V30 6126 O 598.776 1.83965 0.506101 0
M  V30 6127 C 595.916 3.41985 0.462644 0
M  V30 6128 C 595.029 4.29458 -0.467949 0
M  V30 6129 C 594.164 5.30131 0.336903 0
M  V30 6130 C 593.203 6.0925 -0.58997 0
M  V30 6131 N 592.34 7.01872 0.178775 0
M  V30 6132 H 597.18 2.74414 -1.16193 0
M  V30 6133 H 594.717 1.34994 -0.584376 0
M  V30 6134 H 596.675 4.06547 0.936759 0
M  V30 6135 H 595.305 2.97134 1.2614 0
M  V30 6136 H 594.357 3.65318 -1.06052 0
M  V30 6137 H 595.669 4.84677 -1.17856 0
M  V30 6138 H 594.823 6.0038 0.873427 0
M  V30 6139 H 593.562 4.75573 1.08079 0
M  V30 6140 H 592.567 5.37889 -1.13823 0
M  V30 6141 H 593.792 6.65894 -1.33275 0
M  V30 6142 H 591.738 6.49721 0.905435 0
M  V30 6143 H 591.655 7.54522 -0.472452 0
M  V30 6144 H 592.923 7.76382 0.696454 0
M  V30 6145 N 597.152 0.631951 1.44375 0
M  V30 6146 C 598.382 0.143658 2.061 0
M  V30 6147 C 598.79 -1.18733 1.47306 0
M  V30 6148 O 598.133 -1.73943 0.590724 0
M  V30 6149 C 598.195 -0.0446102 3.59472 0
M  V30 6150 C 597.859 1.20835 4.40736 0
M  V30 6151 C 598.856 2.13224 4.74164 0
M  V30 6152 C 596.541 1.44399 4.81097 0
M  V30 6153 C 598.535 3.27487 5.46838 0
M  V30 6154 C 596.222 2.58959 5.53519 0
M  V30 6155 C 597.22 3.50329 5.86309 0
M  V30 6156 O 596.908 4.62891 6.57257 0
M  V30 6157 H 596.64 0.0772939 0.671567 0
M  V30 6158 H 599.194 0.866677 1.8622 0
M  V30 6159 H 597.424 -0.822783 3.77845 0
M  V30 6160 H 599.113 -0.487561 4.02961 0
M  V30 6161 H 599.879 1.96253 4.4352 0
M  V30 6162 H 595.758 0.741696 4.54994 0
M  V30 6163 H 599.302 3.98826 5.72349 0
M  V30 6164 H 595.199 2.75873 5.83579 0
M  V30 6165 H 595.967 4.61883 6.75726 0
M  V30 6166 N 598.631 -1.53133 0.372548 0
M  V30 6167 C 599.581 -2.22733 -0.487218 0
M  V30 6168 C 600.565 -1.22506 -1.04312 0
M  V30 6169 O 601.757 -1.47923 -0.972005 0
M  V30 6170 C 598.886 -3.02524 -1.62278 0
M  V30 6171 C 597.972 -4.10133 -1.07943 0
M  V30 6172 N 598.363 -5.05133 -0.259629 0
M  V30 6173 C 596.661 -4.24964 -1.35356 0
M  V30 6174 C 597.362 -5.81687 0.0386656 0
M  V30 6175 N 596.338 -5.40699 -0.560827 0
M  V30 6176 H 600.14 -2.93538 0.145853 0
M  V30 6177 H 597.654 -1.61389 0.180938 0
M  V30 6178 H 599.651 -3.50909 -2.25096 0
M  V30 6179 H 598.311 -2.33252 -2.25884 0
M  V30 6180 H 599.322 -5.178 0.101746 0
M  V30 6181 H 595.999 -3.66919 -1.9919 0
M  V30 6182 H 597.389 -6.68224 0.701841 0
M  V30 6183 N 600.109 -0.101901 -1.5727 0
M  V30 6184 C 601.041 0.884723 -2.11436 0
M  V30 6185 C 602.054 1.24149 -1.05314 0
M  V30 6186 O 603.243 1.19341 -1.3274 0
M  V30 6187 C 600.343 2.19179 -2.58484 0
M  V30 6188 C 599.516 2.00933 -3.88516 0
M  V30 6189 C 598.575 3.15213 -4.2134 0
M  V30 6190 O 597.601 2.88877 -4.90448 0
M  V30 6191 N 598.803 4.41174 -3.77288 0
M  V30 6192 H 601.568 0.422058 -2.96713 0
M  V30 6193 H 599.129 0.0830128 -1.61687 0
M  V30 6194 H 601.121 2.94593 -2.77484 0
M  V30 6195 H 599.691 2.56847 -1.7818 0
M  V30 6196 H 598.911 1.09809 -3.78597 0
M  V30 6197 H 600.199 1.86026 -4.73573 0
M  V30 6198 H 599.597 4.6545 -3.21516 0
M  V30 6199 H 598.154 5.13515 -4.01429 0
M  V30 6200 N 601.587 1.56661 0.17182 0
M  V30 6201 C 602.836 1.81158 0.886831 0
M  V30 6202 C 603.149 0.679072 1.83434 0
M  V30 6203 O 604.355 0.808964 2.59168 0
M  V30 6204 C 602.811 3.20999 1.6275 0
M  V30 6205 C 602.419 4.42117 0.723652 0
M  V30 6206 C 604.163 3.5479 2.33076 0
M  V30 6207 C 602.07 5.7298 1.46452 0
M  V30 6208 H 601 0.675543 0.334899 0
M  V30 6209 H 603.651 1.82967 0.139765 0
M  V30 6210 H 602.033 3.13506 2.4193 0
M  V30 6211 H 603.207 4.60789 -0.0311485 0
M  V30 6212 H 601.522 4.16197 0.130063 0
M  V30 6213 H 604.119 4.49806 2.89099 0
M  V30 6214 H 604.462 2.79646 3.08389 0
M  V30 6215 H 604.995 3.63834 1.6084 0
M  V30 6216 H 601.734 6.51152 0.753729 0
M  V30 6217 H 601.254 5.58285 2.19266 0
M  V30 6218 H 602.933 6.14916 2.01214 0
M  V30 6219 N 603.065 -0.440357 1.51323 0
M  V30 6220 C 603.975 -1.55955 1.75258 0
M  V30 6221 C 604.991 -1.61933 0.636687 0
M  V30 6222 O 606.167 -1.79231 0.918593 0
M  V30 6223 C 603.232 -2.9196 1.86977 0
M  V30 6224 C 602.293 -2.96122 3.10822 0
M  V30 6225 C 601.526 -4.2564 3.21973 0
M  V30 6226 O 601.749 -5.17851 2.39137 0
M  V30 6227 O 600.683 -4.36025 4.14929 0
M  V30 6228 H 604.509 -1.38673 2.70191 0
M  V30 6229 H 602.094 -0.623055 1.35788 0
M  V30 6230 H 603.976 -3.72682 1.96688 0
M  V30 6231 H 602.651 -3.09375 0.952307 0
M  V30 6232 H 601.558 -2.14366 3.06591 0
M  V30 6233 H 602.891 -2.83651 4.02247 0
M  V30 6234 N 604.543 -1.41418 -0.695603 0
M  V30 6235 C 605.49 -1.43264 -1.80954 0
M  V30 6236 C 606.46 -0.287016 -1.63601 0
M  V30 6237 O 607.645 -0.488054 -1.84452 0
M  V30 6238 C 604.785 -1.32054 -3.18835 0
M  V30 6239 C 603.898 -2.56485 -3.4762 0
M  V30 6240 C 603.033 -2.3757 -4.75115 0
M  V30 6241 C 602.072 -3.57477 -4.96867 0
M  V30 6242 N 601.209 -3.37632 -6.15588 0
M  V30 6243 H 606.049 -2.38467 -1.78711 0
M  V30 6244 H 603.586 -1.18415 -0.872715 0
M  V30 6245 H 605.544 -1.23558 -3.98484 0
M  V30 6246 H 604.174 -0.404592 -3.20254 0
M  V30 6247 H 603.226 -2.75432 -2.62376 0
M  V30 6248 H 604.538 -3.45678 -3.59594 0
M  V30 6249 H 603.692 -2.2654 -5.62818 0
M  V30 6250 H 602.431 -1.45834 -4.65386 0
M  V30 6251 H 601.436 -3.68961 -4.07612 0
M  V30 6252 H 602.661 -4.50167 -5.08455 0
M  V30 6253 H 600.607 -2.48596 -6.07072 0
M  V30 6254 H 600.524 -4.20401 -6.2833 0
M  V30 6255 H 601.792 -3.30375 -7.06026 0
M  V30 6256 N 606.021 0.929856 -1.27246 0
M  V30 6257 C 606.931 2.0636 -1.11592 0
M  V30 6258 C 607.947 1.73938 -0.046496 0
M  V30 6259 O 609.123 1.9981 -0.252544 0
M  V30 6260 C 606.188 3.38213 -0.762437 0
M  V30 6261 C 605.249 3.84346 -1.9125 0
M  V30 6262 C 604.482 5.09906 -1.57579 0
M  V30 6263 O 604.705 5.68354 -0.482694 0
M  V30 6264 O 603.639 5.51359 -2.41426 0
M  V30 6265 H 607.465 2.22478 -2.0673 0
M  V30 6266 H 605.05 1.04865 -1.06413 0
M  V30 6267 H 606.932 4.1741 -0.57854 0
M  V30 6268 H 605.607 3.23307 0.159439 0
M  V30 6269 H 604.514 3.06045 -2.15144 0
M  V30 6270 H 605.847 4.0379 -2.81451 0
M  V30 6271 N 607.499 1.09233 1.13605 0
M  V30 6272 C 608.746 0.827159 1.84836 0
M  V30 6273 C 609.074 -0.647199 1.83416 0
M  V30 6274 O 608.329 -1.49228 1.26608 0
M  V30 6275 C 608.628 1.305 3.32723 0
M  V30 6276 C 608.294 2.78864 3.54325 0
M  V30 6277 C 606.956 3.19382 3.59928 0
M  V30 6278 C 609.308 3.74532 3.62457 0
M  V30 6279 C 606.636 4.54346 3.71196 0
M  V30 6280 C 608.988 5.09283 3.75252 0
M  V30 6281 C 607.652 5.49394 3.79108 0
M  V30 6282 H 606.922 0.302679 0.676363 0
M  V30 6283 H 609.569 1.36676 1.34134 0
M  V30 6284 H 607.874 0.68517 3.85762 0
M  V30 6285 H 609.571 1.07648 3.86281 0
M  V30 6286 H 606.161 2.46507 3.50617 0
M  V30 6287 H 610.345 3.44343 3.57409 0
M  V30 6288 H 605.601 4.84864 3.72447 0
M  V30 6289 H 609.775 5.83269 3.80487 0
M  V30 6290 H 607.402 6.5397 3.87591 0
M  V30 6291 N 608.977 -1.30795 0.87923 0
M  V30 6292 C 609.887 -2.32041 0.345565 0
M  V30 6293 C 610.903 -1.65103 -0.549265 0
M  V30 6294 O 612.079 -1.9645 -0.443763 0
M  V30 6295 C 609.144 -3.43944 -0.436245 0
M  V30 6296 C 608.205 -4.26521 0.48765 0
M  V30 6297 C 607.438 -5.33081 -0.256943 0
M  V30 6298 O 607.661 -5.50762 -1.48381 0
M  V30 6299 O 606.595 -6.00635 0.389985 0
M  V30 6300 H 610.421 -2.79627 1.18501 0
M  V30 6301 H 608.006 -1.3486 0.642885 0
M  V30 6302 H 609.888 -4.12128 -0.879119 0
M  V30 6303 H 608.563 -2.98504 -1.25208 0
M  V30 6304 H 607.47 -3.61057 0.979216 0
M  V30 6305 H 608.803 -4.75551 1.26933 0
M  V30 6306 N 610.455 -0.639598 -1.44038 0
M  V30 6307 C 611.387 0.0987684 -2.28987 0
M  V30 6308 C 612.4 0.80058 -1.41755 0
M  V30 6309 O 613.589 0.660611 -1.65826 0
M  V30 6310 C 610.689 1.16242 -3.18341 0
M  V30 6311 C 609.862 0.541447 -4.34036 0
M  V30 6312 C 608.921 1.50017 -5.04362 0
M  V30 6313 O 607.947 1.01403 -5.60095 0
M  V30 6314 N 609.149 2.83441 -5.06598 0
M  V30 6315 H 611.914 -0.630305 -2.92997 0
M  V30 6316 H 609.475 -0.481376 -1.54578 0
M  V30 6317 H 611.467 1.80429 -3.62253 0
M  V30 6318 H 610.037 1.79362 -2.56024 0
M  V30 6319 H 609.257 -0.27923 -3.9321 0
M  V30 6320 H 610.545 0.107379 -5.08687 0
M  V30 6321 H 609.943 3.2551 -4.62666 0
M  V30 6322 H 608.5 3.42966 -5.54272 0
M  V30 6323 N 611.933 1.52934 -0.380664 0
M  V30 6324 C 613.179 2.01765 0.20458 0
M  V30 6325 C 613.512 1.26696 1.47179 0
M  V30 6326 O 612.787 0.364936 1.91046 0
M  V30 6327 C 613.07 3.56869 0.481269 0
M  V30 6328 C 612.923 4.42617 -0.800629 0
M  V30 6329 C 614.242 4.2121 1.27554 0
M  V30 6330 H 611.361 0.733388 0.0728803 0
M  V30 6331 H 614.003 1.83068 -0.50853 0
M  V30 6332 H 612.153 3.72932 1.08875 0
M  V30 6333 H 613.825 4.38323 -1.43773 0
M  V30 6334 H 612.068 4.09977 -1.4178 0
M  V30 6335 H 612.739 5.49134 -0.561791 0
M  V30 6336 H 615.215 4.09072 0.761514 0
M  V30 6337 H 614.091 5.29732 1.43788 0
M  V30 6338 H 614.352 3.78269 2.28833 0
M  V30 6339 N 613.412 0.11024 1.57214 0
M  V30 6340 C 614.322 -0.857077 2.18383 0
M  V30 6341 C 615.338 -1.29915 1.1575 0
M  V30 6342 O 616.514 -1.36394 1.48184 0
M  V30 6343 C 613.579 -2.09264 2.76423 0
M  V30 6344 C 612.64 -1.70333 3.94063 0
M  V30 6345 C 611.873 -2.87999 4.49324 0
M  V30 6346 O 612.096 -4.0317 4.03497 0
M  V30 6347 O 611.03 -2.6559 5.40135 0
M  V30 6348 H 614.856 -0.366561 3.0148 0
M  V30 6349 H 612.441 -0.114914 1.48957 0
M  V30 6350 H 614.323 -2.81644 3.13456 0
M  V30 6351 H 612.998 -2.57339 1.96363 0
M  V30 6352 H 611.905 -0.950864 3.61814 0
M  V30 6353 H 613.238 -1.27007 4.75531 0
M  V30 6354 N 614.89 -1.56749 -0.16351 0
M  V30 6355 C 616.138 -1.82074 -0.87713 0
M  V30 6356 C 616.459 -0.688503 -1.82441 0
M  V30 6357 O 615.729 0.291085 -1.93725 0
M  V30 6358 H 614.309 -0.671677 -0.326893 0
M  V30 6359 H 616.971 -1.9423 -0.161459 0
M  V30 6360 H 616.067 -2.76407 -1.44934 0
M  V30 6361 N 616.368 0.432326 -1.51554 0
M  V30 6362 C 617.784 0.769195 -1.39841 0
M  V30 6363 C 617.984 1.95584 -0.484675 0
M  V30 6364 O 617.04 2.52433 0.0582829 0
M  V30 6365 C 618.353 1.04487 -2.81963 0
M  V30 6366 C 619.901 1.149 -2.91148 0
M  V30 6367 C 620.376 1.45758 -4.34187 0
M  V30 6368 N 621.867 1.52671 -4.37317 0
M  V30 6369 C 622.602 1.78129 -5.4503 0
M  V30 6370 N 622.098 2.01345 -6.62897 0
M  V30 6371 N 623.891 1.79953 -5.32516 0
M  V30 6372 H 616.042 -0.349122 -2.09511 0
M  V30 6373 H 618.305 -0.0938113 -0.943347 0
M  V30 6374 H 618.011 0.24557 -3.50842 0
M  V30 6375 H 617.885 1.97119 -3.21596 0
M  V30 6376 H 620.272 1.93891 -2.22464 0
M  V30 6377 H 620.353 0.201568 -2.55005 0
M  V30 6378 H 619.997 0.672917 -5.03423 0
M  V30 6379 H 619.927 2.41715 -4.67848 0
M  V30 6380 H 622.418 1.36612 -3.52343 0
M  V30 6381 H 622.731 2.20155 -7.40778 0
M  V30 6382 H 621.076 1.98657 -6.66003 0
M  V30 6383 H 624.267 1.61337 -4.39418 0
M  V30 6384 H 624.44 1.99455 -6.1654 0
M  V30 6385 N 617.846 1.41785 0.688094 0
M  V30 6386 C 619.095 1.4084 1.44385 0
M  V30 6387 C 619.408 0.0234166 1.95586 0
M  V30 6388 O 620.614 -0.108647 2.71283 0
M  V30 6389 C 619.07 2.47675 2.61123 0
M  V30 6390 C 618.678 3.92116 2.16677 0
M  V30 6391 C 620.422 2.55877 3.38714 0
M  V30 6392 C 618.329 4.90487 3.30419 0
M  V30 6393 H 617.259 0.523787 0.542368 0
M  V30 6394 H 619.91 1.6764 0.74627 0
M  V30 6395 H 618.292 2.14018 3.33185 0
M  V30 6396 H 619.466 4.35059 1.51856 0
M  V30 6397 H 617.781 3.87642 1.5206 0
M  V30 6398 H 620.378 3.26553 4.234 0
M  V30 6399 H 620.721 1.59801 3.84408 0
M  V30 6400 H 621.254 2.88662 2.73714 0
M  V30 6401 H 617.993 5.87994 2.89729 0
M  V30 6402 H 617.513 4.52187 3.94065 0
M  V30 6403 H 619.192 5.11591 3.96085 0
M  V30 6404 N 619.324 -0.923095 1.27737 0
M  V30 6405 C 620.256 -2.02871 1.06658 0
M  V30 6406 C 621.269 -1.62786 0.0212095 0
M  V30 6407 O 622.458 -1.76548 0.263267 0
M  V30 6408 C 619.558 -3.33603 0.59682 0
M  V30 6409 C 618.731 -4.02354 1.71551 0
M  V30 6410 C 617.79 -5.11364 1.24071 0
M  V30 6411 O 616.816 -5.35075 1.94123 0
M  V30 6412 N 618.018 -5.80416 0.0988444 0
M  V30 6413 H 620.783 -2.21515 2.01869 0
M  V30 6414 H 618.344 -1.09378 1.19365 0
M  V30 6415 H 620.336 -4.03845 0.262984 0
M  V30 6416 H 618.906 -3.11499 -0.262187 0
M  V30 6417 H 618.126 -3.25786 2.2194 0
M  V30 6418 H 619.414 -4.45035 2.46619 0
M  V30 6419 H 618.812 -5.63611 -0.485743 0
M  V30 6420 H 617.369 -6.51563 -0.17578 0
M  V30 6421 N 620.802 -1.09834 -1.13024 0
M  V30 6422 C 622.079 -0.749225 -1.80682 0
M  V30 6423 C 622.459 0.765171 -1.96744 0
M  V30 6424 O 621.807 1.68912 -1.53886 0
M  V30 6425 C 622.017 -1.49311 -3.15448 0
M  V30 6426 C 623.365 -1.66162 -3.90737 0
M  V30 6427 O 624.389 -1.45597 -3.25085 0
M  V30 6428 O 623.248 -2.00211 -5.08505 0
M  V30 6429 H 620.342 -0.269614 -0.781817 0
M  V30 6430 H 622.888 -1.20078 -1.19914 0
M  V30 6431 H 621.66 -2.52407 -2.99009 0
M  V30 6432 H 621.283 -1.034 -3.8392 0
M  V30 6433 N 622.28 1.30327 -0.886154 0
M  V30 6434 C 623.21 2.30549 -0.370028 0
M  V30 6435 C 624.191 1.61039 0.547751 0
M  V30 6436 O 625.376 1.8864 0.461353 0
M  V30 6437 C 622.506 3.44808 0.415275 0
M  V30 6438 C 621.46 4.26024 -0.41085 0
M  V30 6439 C 620.786 5.32347 0.501128 0
M  V30 6440 C 622.086 4.95433 -1.65359 0
M  V30 6441 H 623.78 2.73969 -1.20754 0
M  V30 6442 H 621.326 1.3171 -0.582097 0
M  V30 6443 H 623.279 4.13986 0.78699 0
M  V30 6444 H 622.003 3.00197 1.28644 0
M  V30 6445 H 620.662 3.58535 -0.764719 0
M  V30 6446 H 620.31 4.83982 1.37004 0
M  V30 6447 H 620.01 5.87581 -0.0478356 0
M  V30 6448 H 621.534 6.0438 0.869333 0
M  V30 6449 H 622.948 5.5712 -1.35239 0
M  V30 6450 H 621.345 5.60537 -2.14284 0
M  V30 6451 H 622.415 4.21493 -2.39733 0
M  V30 6452 N 623.758 0.647228 1.43697 0
M  V30 6453 C 624.668 -0.0487997 2.34549 0
M  V30 6454 C 625.684 -0.818586 1.53542 0
M  V30 6455 O 626.86 -0.767195 1.86215 0
M  V30 6456 C 623.925 -1.00734 3.31743 0
M  V30 6457 C 622.986 -0.23515 4.28655 0
M  V30 6458 C 622.219 -1.14803 5.21206 0
M  V30 6459 O 622.442 -2.38717 5.18045 0
M  V30 6460 O 621.376 -0.623667 5.9866 0
M  V30 6461 H 625.202 0.698863 2.9555 0
M  V30 6462 H 622.787 0.407412 1.43738 0
M  V30 6463 H 624.669 -1.55837 3.91526 0
M  V30 6464 H 623.344 -1.73534 2.73254 0
M  V30 6465 H 622.251 0.359319 3.7237 0
M  V30 6466 H 623.584 0.453152 4.9011 0
M  V30 6467 N 625.236 -1.5273 0.388769 0
M  V30 6468 C 626.183 -2.26437 -0.446639 0
M  V30 6469 C 627.153 -1.28025 -1.05824 0
M  V30 6470 O 628.338 -1.56852 -1.08637 0
M  V30 6471 C 625.478 -3.07407 -1.56828 0
M  V30 6472 C 624.591 -4.20747 -0.979589 0
M  V30 6473 C 623.726 -4.89113 -2.07224 0
M  V30 6474 C 622.765 -5.94447 -1.45942 0
M  V30 6475 N 621.902 -6.56411 -2.49135 0
M  V30 6476 H 626.742 -2.97404 0.18837 0
M  V30 6477 H 624.279 -1.46727 0.104725 0
M  V30 6478 H 626.237 -3.52642 -2.22934 0
M  V30 6479 H 624.867 -2.3865 -2.17361 0
M  V30 6480 H 623.919 -3.7983 -0.208151 0
M  V30 6481 H 625.231 -4.9637 -0.491747 0
M  V30 6482 H 624.385 -5.3765 -2.81101 0
M  V30 6483 H 623.124 -4.13013 -2.59368 0
M  V30 6484 H 622.129 -5.4525 -0.705894 0
M  V30 6485 H 623.354 -6.7248 -0.945932 0
M  V30 6486 H 621.3 -5.83152 -3.00449 0
M  V30 6487 H 621.217 -7.27645 -2.05105 0
M  V30 6488 H 622.485 -7.09592 -3.22644 0
M  V30 6489 N 626.714 -0.118576 -1.57153 0
M  V30 6490 C 627.944 0.546466 -1.99242 0
M  V30 6491 C 628.352 1.60791 -0.997148 0
M  V30 6492 O 627.695 1.83691 0.0181745 0
M  V30 6493 C 627.757 1.23167 -3.37743 0
M  V30 6494 C 627.421 0.318226 -4.55891 0
M  V30 6495 C 628.418 -0.442988 -5.18009 0
M  V30 6496 C 626.103 0.229421 -5.01776 0
M  V30 6497 C 628.097 -1.28074 -6.244 0
M  V30 6498 C 625.784 -0.611966 -6.08028 0
M  V30 6499 C 626.782 -1.36568 -6.69207 0
M  V30 6500 O 626.47 -2.1931 -7.73407 0
M  V30 6501 H 626.202 0.149297 -0.659307 0
M  V30 6502 H 628.756 -0.201603 -2.04408 0
M  V30 6503 H 626.986 2.0268 -3.29329 0
M  V30 6504 H 628.675 1.79358 -3.64123 0
M  V30 6505 H 629.441 -0.38425 -4.83475 0
M  V30 6506 H 625.32 0.805771 -4.53903 0
M  V30 6507 H 628.864 -1.86952 -6.72082 0
M  V30 6508 H 624.761 -0.6721 -6.41991 0
M  V30 6509 H 625.529 -2.12247 -7.90502 0
M  V30 6510 N 628.193 1.56834 0.155195 0
M  V30 6511 C 629.439 1.83169 0.870467 0
M  V30 6512 C 629.772 0.698929 1.81187 0
M  V30 6513 O 629.047 -0.298035 1.92203 0
M  V30 6514 C 629.33 3.19965 1.65211 0
M  V30 6515 C 629.183 4.43792 0.732744 0
M  V30 6516 C 630.502 3.53885 2.61636 0
M  V30 6517 H 627.621 0.666288 0.315006 0
M  V30 6518 H 630.263 1.89513 0.135988 0
M  V30 6519 H 628.413 3.14687 2.27825 0
M  V30 6520 H 630.085 4.61148 0.118236 0
M  V30 6521 H 628.328 4.3378 0.0417906 0
M  V30 6522 H 628.999 5.36095 1.31552 0
M  V30 6523 H 631.475 3.5972 2.09143 0
M  V30 6524 H 630.351 4.50648 3.13381 0
M  V30 6525 H 630.612 2.79418 3.42605 0
M  V30 6526 N 629.671 -0.424282 1.51781 0
M  V30 6527 C 630.581 -1.54087 1.76902 0
M  V30 6528 C 631.597 -1.61249 0.653826 0
M  V30 6529 O 632.773 -1.78247 0.937552 0
M  V30 6530 C 629.838 -2.8996 1.90063 0
M  V30 6531 C 628.899 -2.92809 3.13945 0
M  V30 6532 C 628.132 -4.22201 3.26469 0
M  V30 6533 O 628.355 -5.15286 2.44616 0
M  V30 6534 O 627.289 -4.31599 4.1953 0
M  V30 6535 H 631.115 -1.358 2.71647 0
M  V30 6536 H 628.7 -0.608618 1.36441 0
M  V30 6537 H 630.582 -3.70575 2.0063 0
M  V30 6538 H 629.257 -3.08347 0.985067 0
M  V30 6539 H 628.164 -2.11102 3.08847 0
M  V30 6540 H 629.497 -2.79369 4.05233 0
M  V30 6541 N 631.149 -1.42148 -0.680565 0
M  V30 6542 C 632.426 -1.32795 -1.43614 0
M  V30 6543 C 632.806 0.037415 -2.11067 0
M  V30 6544 O 632.154 1.05258 -2.02813 0
M  V30 6545 C 632.364 -2.49206 -2.44331 0
M  V30 6546 C 633.712 -2.91059 -3.09144 0
M  V30 6547 O 634.736 -2.49054 -2.54657 0
M  V30 6548 O 633.595 -3.63741 -4.07866 0
M  V30 6549 H 630.689 -0.523397 -0.640301 0
M  V30 6550 H 633.235 -1.54144 -0.709775 0
M  V30 6551 H 632.007 -3.40252 -1.93247 0
M  V30 6552 H 631.63 -2.29813 -3.24456 0
M  V30 6553 N 632.627 0.916307 -1.28225 0
M  V30 6554 C 633.855 1.69901 -1.18073 0
M  V30 6555 C 634.27 1.86988 0.260968 0
M  V30 6556 O 633.627 1.39505 1.17663 0
M  V30 6557 C 633.678 3.09254 -1.87201 0
M  V30 6558 O 633.399 2.92959 -3.2574 0
M  V30 6559 C 634.9 4.0362 -1.83319 0
M  V30 6560 H 632.12 0.531181 -0.409985 0
M  V30 6561 H 634.664 1.14703 -1.69303 0
M  V30 6562 H 632.819 3.61277 -1.39848 0
M  V30 6563 H 633.233 3.81139 -3.60324 0
M  V30 6564 H 634.707 4.98873 -2.36282 0
M  V30 6565 H 635.184 4.3176 -0.805007 0
M  V30 6566 H 635.79 3.57524 -2.3034 0
M  V30 6567 N 634.105 1.10431 1.1244 0
M  V30 6568 C 635.052 0.753103 2.18167 0
M  V30 6569 C 636.022 -0.270549 1.63882 0
M  V30 6570 O 637.207 -0.149837 1.90211 0
M  V30 6571 C 634.347 0.191046 3.44571 0
M  V30 6572 C 633.46 1.26999 4.12911 0
M  V30 6573 C 632.595 0.669586 5.26963 0
M  V30 6574 C 631.634 1.72912 5.87169 0
M  V30 6575 N 630.771 1.14898 6.92635 0
M  V30 6576 H 635.611 1.65892 2.47556 0
M  V30 6577 H 633.148 0.828631 1.21541 0
M  V30 6578 H 635.106 -0.152712 4.1692 0
M  V30 6579 H 633.736 -0.677997 3.15599 0
M  V30 6580 H 632.788 1.73087 3.3874 0
M  V30 6581 H 634.1 2.07204 4.53727 0
M  V30 6582 H 633.254 0.275274 6.06075 0
M  V30 6583 H 631.993 -0.163895 4.87425 0
M  V30 6584 H 630.998 2.13286 5.06744 0
M  V30 6585 H 632.223 2.56544 6.28778 0
M  V30 6586 H 630.169 0.336956 6.55134 0
M  V30 6587 H 630.086 1.88786 7.32049 0
M  V30 6588 H 631.354 0.78121 7.75576 0
M  V30 6589 N 635.583 -1.29855 0.893053 0
M  V30 6590 C 636.832 -1.95104 0.511597 0
M  V30 6591 C 637.145 -1.71226 -0.945567 0
M  V30 6592 O 638.351 -2.30525 -1.43424 0
M  V30 6593 C 636.807 -3.49374 0.864034 0
M  V30 6594 C 636.415 -3.82061 2.33952 0
M  V30 6595 C 638.159 -4.20894 0.552167 0
M  V30 6596 C 636.066 -5.29546 2.63316 0
M  V30 6597 H 634.996 -0.73029 0.187597 0
M  V30 6598 H 637.647 -1.47682 1.08914 0
M  V30 6599 H 636.029 -3.95413 0.215493 0
M  V30 6600 H 637.203 -3.46904 3.03305 0
M  V30 6601 H 635.518 -3.23665 2.61973 0
M  V30 6602 H 638.115 -5.29435 0.748489 0
M  V30 6603 H 638.458 -4.13178 -0.508924 0
M  V30 6604 H 638.991 -3.80564 1.15825 0
M  V30 6605 H 635.73 -5.4232 3.68197 0
M  V30 6606 H 635.25 -5.65974 1.9858 0
M  V30 6607 H 636.929 -5.97068 2.49236 0
M  V30 6608 N 637.061 -0.65484 -1.43351 0
M  V30 6609 C 638.338 -0.0987371 -1.95351 0
M  V30 6610 C 638.718 1.38161 -1.59608 0
M  V30 6611 O 638.066 2.10791 -0.882021 0
M  V30 6612 C 638.276 -0.346684 -3.47274 0
M  V30 6613 C 639.624 -0.25249 -4.23849 0
M  V30 6614 O 640.648 -0.279332 -3.55103 0
M  V30 6615 O 639.507 -0.177584 -5.46211 0
M  V30 6616 H 636.601 0.0086829 -0.826954 0
M  V30 6617 H 639.147 -0.728189 -1.53282 0
M  V30 6618 H 637.919 -1.37296 -3.66423 0
M  V30 6619 H 637.542 0.315757 -3.96344 0
M  V30 6620 N 638.539 1.52521 -0.396863 0
M  V30 6621 C 639.469 2.29582 0.425941 0
M  V30 6622 C 640.45 1.33281 1.05689 0
M  V30 6623 O 641.635 1.62181 1.06823 0
M  V30 6624 C 638.765 3.10821 1.54943 0
M  V30 6625 C 637.719 4.15069 1.04413 0
M  V30 6626 C 637.045 4.84578 2.26028 0
M  V30 6627 C 638.345 5.22191 0.106767 0
M  V30 6628 H 640.039 2.98612 -0.217045 0
M  V30 6629 H 637.585 1.43611 -0.105826 0
M  V30 6630 H 639.538 3.63492 2.13193 0
M  V30 6631 H 638.262 2.39538 2.22011 0
M  V30 6632 H 636.921 3.63389 0.484118 0
M  V30 6633 H 636.569 4.09835 2.91623 0
M  V30 6634 H 636.269 5.55043 1.92876 0
M  V30 6635 H 637.793 5.40056 2.84906 0
M  V30 6636 H 639.207 5.70176 0.597685 0
M  V30 6637 H 637.604 5.99947 -0.135352 0
M  V30 6638 H 638.674 4.77531 -0.842134 0
M  V30 6639 N 640.017 0.126909 1.57088 0
M  V30 6640 C 641.263 -0.523662 1.96543 0
M  V30 6641 C 641.618 -1.63783 1.0096 0
M  V30 6642 O 640.911 -1.91556 0.0410175 0
M  V30 6643 C 641.105 -1.095 3.40212 0
M  V30 6644 C 640.934 -0.037715 4.49684 0
M  V30 6645 C 639.704 0.396823 5.03739 0
M  V30 6646 C 641.902 0.746245 5.08857 0
M  V30 6647 N 639.884 1.43905 5.96795 0
M  V30 6648 C 641.255 1.63947 5.97931 0
M  V30 6649 C 643.31 0.796259 4.91492 0
M  V30 6650 C 642.013 2.57837 6.715 0
M  V30 6651 C 644.039 1.7229 5.65747 0
M  V30 6652 C 643.401 2.60369 6.54513 0
M  V30 6653 H 639.5 -0.161016 0.765244 0
M  V30 6654 H 642.084 0.21686 1.93489 0
M  V30 6655 H 640.255 -1.80521 3.43899 0
M  V30 6656 H 641.987 -1.71054 3.66773 0
M  V30 6657 H 638.742 0.00290406 4.736 0
M  V30 6658 H 639.166 1.95932 6.48027 0
M  V30 6659 H 643.808 0.129412 4.22602 0
M  V30 6660 H 641.526 3.25532 7.39631 0
M  V30 6661 H 645.112 1.76715 5.54313 0
M  V30 6662 H 643.992 3.30906 7.10965 0
M  V30 6663 N 641.495 -1.56914 -0.146875 0
M  V30 6664 C 642.72 -1.87881 -0.878386 0
M  V30 6665 C 643.145 -0.715945 -1.73942 0
M  V30 6666 O 642.503 0.334447 -1.78189 0
M  V30 6667 C 642.551 -3.17431 -1.71084 0
M  V30 6668 O 641.655 -3.01374 -2.81509 0
M  V30 6669 H 640.996 -0.617289 -0.244644 0
M  V30 6670 H 643.526 -2.04136 -0.137654 0
M  V30 6671 H 643.536 -3.49455 -2.10582 0
M  V30 6672 H 642.211 -4.01671 -1.07856 0
M  V30 6673 H 640.788 -2.80758 -2.45416 0
M  V30 6674 N 642.974 0.416227 -1.52004 0
M  V30 6675 C 644.204 1.18401 -1.69307 0
M  V30 6676 C 644.612 1.84943 -0.399072 0
M  V30 6677 O 643.955 1.72406 0.634177 0
M  V30 6678 C 644.017 2.29465 -2.76742 0
M  V30 6679 C 643.681 1.83117 -4.18709 0
M  V30 6680 C 644.678 1.32286 -5.02789 0
M  V30 6681 C 642.363 1.90167 -4.64911 0
M  V30 6682 C 644.357 0.891178 -6.31139 0
M  V30 6683 C 642.044 1.4661 -5.93253 0
M  V30 6684 C 643.042 0.961696 -6.76196 0
M  V30 6685 O 642.73 0.532388 -8.02135 0
M  V30 6686 H 642.462 0.362098 -0.570843 0
M  V30 6687 H 645.016 0.496764 -1.99302 0
M  V30 6688 H 643.246 3.01531 -2.42107 0
M  V30 6689 H 644.935 2.91252 -2.82713 0
M  V30 6690 H 645.701 1.26218 -4.68288 0
M  V30 6691 H 641.58 2.28371 -4.00459 0
M  V30 6692 H 645.124 0.496788 -6.95829 0
M  V30 6693 H 641.021 1.52355 -6.27263 0
M  V30 6694 H 641.789 0.656339 -8.15864 0
M  V30 6695 N 644.452 1.42507 0.673017 0
M  V30 6696 C 645.4 1.46362 1.80779 0
M  V30 6697 C 646.394 0.339166 1.6597 0
M  V30 6698 O 647.6 0.512262 1.72557 0
M  V30 6699 H 643.975 0.458433 0.596107 0
M  V30 6700 H 645.946 2.41953 1.74646 0
M  V30 6701 C 644.695 1.38462 3.18941 0
M  V30 6702 H 644.018 2.24283 3.30964 0
M  V30 6703 H 645.458 1.45221 3.98355 0
M  V30 6704 C 643.917 0.0996354 3.36753 0
M  V30 6705 O 644.447 -0.846894 3.92671 0
M  V30 6706 N 642.653 0.016211 2.90595 0
M  V30 6707 H 642.2 0.78725 2.45276 0
M  V30 6708 H 642.158 -0.84291 3.0289 0
M  V30 6709 N 645.93 -0.909495 1.28709 0
M  V30 6710 C 646.893 -1.99399 1.13016 0
M  V30 6711 C 647.893 -1.60654 0.068536 0
M  V30 6712 O 649.083 -1.71334 0.314671 0
M  V30 6713 C 646.215 -3.33078 0.726085 0
M  V30 6714 H 647.408 -2.14751 2.09338 0
M  V30 6715 H 644.961 -1.09272 1.11756 0
M  V30 6716 H 645.696 -3.23428 -0.23771 0
M  V30 6717 H 645.481 -3.62562 1.49302 0
M  V30 6718 H 646.971 -4.12681 0.639058 0
M  V30 6719 N 647.408 -1.11026 -1.11852 0
M  V30 6720 C 648.318 -0.777252 -2.2135 0
M  V30 6721 C 649.334 0.227821 -1.72502 0
M  V30 6722 O 650.51 0.0650587 -2.01295 0
M  V30 6723 C 647.575 -0.220668 -3.45997 0
M  V30 6724 C 646.636 -1.2838 -4.09655 0
M  V30 6725 C 645.869 -0.753678 -5.28352 0
M  V30 6726 O 646.092 0.417779 -5.68868 0
M  V30 6727 O 645.026 -1.51647 -5.82483 0
M  V30 6728 H 648.852 -1.69141 -2.5224 0
M  V30 6729 H 646.437 -0.885836 -1.20305 0
M  V30 6730 H 648.319 0.0855756 -4.21313 0
M  V30 6731 H 646.994 0.666262 -3.16769 0
M  V30 6732 H 645.901 -1.64299 -3.3609 0
M  V30 6733 H 647.234 -2.14396 -4.43052 0
M  V30 6734 N 648.886 1.2938 -0.899927 0
M  V30 6735 C 649.816 2.30144 -0.39446 0
M  V30 6736 C 650.797 1.61611 0.530639 0
M  V30 6737 O 651.982 1.89119 0.441319 0
M  V30 6738 C 649.112 3.45229 0.37868 0
M  V30 6739 C 648.066 4.25564 -0.456012 0
M  V30 6740 C 647.392 5.32848 0.444637 0
M  V30 6741 C 648.692 4.93651 -1.70605 0
M  V30 6742 H 650.386 2.72673 -1.23653 0
M  V30 6743 H 647.932 1.31086 -0.596034 0
M  V30 6744 H 649.885 4.14797 0.743037 0
M  V30 6745 H 648.609 3.01545 1.25453 0
M  V30 6746 H 647.268 3.57704 -0.802704 0
M  V30 6747 H 646.916 4.85408 1.31863 0
M  V30 6748 H 646.616 5.87497 -0.110154 0
M  V30 6749 H 648.14 6.05268 0.805182 0
M  V30 6750 H 649.554 5.55655 -1.41141 0
M  V30 6751 H 647.951 5.58233 -2.20217 0
M  V30 6752 H 649.021 4.18926 -2.4419 0
M  V30 6753 N 650.364 0.662433 1.43002 0
M  V30 6754 C 651.294 -0.00979809 2.33498 0
M  V30 6755 C 652.275 -0.802329 1.49989 0
M  V30 6756 O 653.46 -0.761964 1.78627 0
M  V30 6757 C 650.59 -0.970446 3.33466 0
M  V30 6758 C 649.544 -0.287383 4.27034 0
M  V30 6759 C 648.87 -1.36012 5.17112 0
M  V30 6760 C 650.17 0.82595 5.15728 0
M  V30 6761 H 651.864 0.745959 2.89958 0
M  V30 6762 H 649.41 0.360172 1.39423 0
M  V30 6763 H 651.363 -1.44971 3.95679 0
M  V30 6764 H 650.087 -1.75748 2.75282 0
M  V30 6765 H 648.746 0.17152 3.66199 0
M  V30 6766 H 648.394 -2.13882 4.55262 0
M  V30 6767 H 648.094 -0.908276 5.80538 0
M  V30 6768 H 649.618 -1.84056 5.82199 0
M  V30 6769 H 651.032 0.42845 5.71697 0
M  V30 6770 H 649.429 1.20282 5.87922 0
M  V30 6771 H 650.499 1.68003 4.54866 0
M  V30 6772 N 651.842 -1.52309 0.404946 0
M  V30 6773 C 653.088 -2.02065 -0.172455 0
M  V30 6774 C 653.421 -1.29022 -1.45145 0
M  V30 6775 O 652.696 -0.395284 -1.90441 0
M  V30 6776 C 652.979 -3.5759 -0.424433 0
M  V30 6777 C 652.832 -4.41287 0.870945 0
M  V30 6778 C 654.151 -4.23186 -1.20837 0
M  V30 6779 H 651.27 -0.734454 -0.0612035 0
M  V30 6780 H 653.912 -1.82236 0.53759 0
M  V30 6781 H 652.062 -3.74617 -1.02929 0
M  V30 6782 H 653.734 -4.3598 1.50729 0
M  V30 6783 H 651.977 -4.07669 1.48284 0
M  V30 6784 H 652.648 -5.48171 0.649083 0
M  V30 6785 H 655.124 -4.10232 -0.696338 0
M  V30 6786 H 654 -5.31953 -1.35343 0
M  V30 6787 H 654.261 -3.81862 -2.22786 0
M  V30 6788 N 653.32 -0.135238 -1.57019 0
M  V30 6789 C 654.283 0.794707 -2.14981 0
M  V30 6790 C 655.283 1.18342 -1.08866 0
M  V30 6791 O 656.473 1.10627 -1.34563 0
M  V30 6792 C 653.605 2.07685 -2.70333 0
M  V30 6793 H 654.798 0.290696 -2.98488 0
M  V30 6794 H 652.351 0.114128 -1.55883 0
M  V30 6795 H 653.086 2.6248 -1.9046 0
M  V30 6796 H 652.871 1.80745 -3.47957 0
M  V30 6797 H 654.361 2.74127 -3.1503 0
M  V30 6798 N 654.798 1.5699 0.138552 0
M  V30 6799 C 655.728 2.01933 1.17241 0
M  V30 6800 C 656.709 0.90033 1.44319 0
M  V30 6801 O 657.894 1.16872 1.55095 0
M  V30 6802 C 655.024 2.40711 2.50351 0
M  V30 6803 C 653.978 3.55874 2.37776 0
M  V30 6804 C 653.304 3.80491 3.75674 0
M  V30 6805 C 654.604 4.8826 1.85472 0
M  V30 6806 H 656.298 2.88551 0.798672 0
M  V30 6807 H 653.844 1.3882 0.382743 0
M  V30 6808 H 655.797 2.70754 3.22909 0
M  V30 6809 H 654.521 1.5104 2.89576 0
M  V30 6810 H 653.18 3.2601 1.67669 0
M  V30 6811 H 652.828 2.88057 4.12349 0
M  V30 6812 H 652.528 4.57998 3.68119 0
M  V30 6813 H 654.052 4.12967 4.49767 0
M  V30 6814 H 655.466 5.16965 2.4783 0
M  V30 6815 H 653.863 5.69631 1.88787 0
M  V30 6816 H 654.933 4.78071 0.810935 0
M  V30 6817 N 656.276 -0.40816 1.52223 0
M  V30 6818 C 657.186 -1.52202 1.78526 0
M  V30 6819 C 658.202 -1.60546 0.670892 0
M  V30 6820 O 659.378 -1.77242 0.956404 0
M  V30 6821 C 656.443 -2.87928 1.93128 0
M  V30 6822 C 655.504 -2.89463 3.17033 0
M  V30 6823 C 654.737 -4.18715 3.30929 0
M  V30 6824 O 654.96 -5.12662 2.50067 0
M  V30 6825 O 653.894 -4.27125 4.24084 0
M  V30 6826 H 657.72 -1.32911 2.73072 0
M  V30 6827 H 655.305 -0.594112 1.37079 0
M  V30 6828 H 657.187 -3.68426 2.04549 0
M  V30 6829 H 655.862 -3.07285 1.01772 0
M  V30 6830 H 654.769 -2.07815 3.11069 0
M  V30 6831 H 656.102 -2.75055 4.08174 0
M  V30 6832 N 657.755 -1.42862 -0.66545 0
M  V30 6833 C 658.703 -1.47319 -1.8 0
M  V30 6834 C 659.697 -0.347963 -1.65788 0
M  V30 6835 O 660.903 -0.521406 -1.72283 0
M  V30 6836 H 657.278 -0.461588 -0.593667 0
M  V30 6837 H 659.249 -2.42876 -1.7336 0
M  V30 6838 C 657.998 -1.40152 -3.18203 0
M  V30 6839 H 657.321 -2.26035 -3.2977 0
M  V30 6840 H 658.761 -1.47331 -3.9758 0
M  V30 6841 C 657.22 -0.117493 -3.36695 0
M  V30 6842 O 657.75 0.826058 -3.93115 0
M  V30 6843 N 655.956 -0.0316218 -2.90583 0
M  V30 6844 H 655.503 -0.800247 -2.44855 0
M  V30 6845 H 655.461 0.826835 -3.03333 0
M  V30 6846 N 659.233 0.902656 -1.29189 0
M  V30 6847 C 660.165 2.01149 -1.09872 0
M  V30 6848 C 661.178 1.62732 -0.0471046 0
M  V30 6849 O 662.367 1.76107 -0.29132 0
M  V30 6850 C 659.467 3.32612 -0.649818 0
M  V30 6851 C 658.64 3.99574 -1.7793 0
M  V30 6852 C 657.699 5.09325 -1.32191 0
M  V30 6853 O 656.725 5.31919 -2.02611 0
M  V30 6854 N 657.927 5.80185 -0.191171 0
M  V30 6855 H 660.692 2.18276 -2.05368 0
M  V30 6856 H 658.253 1.07466 -1.2109 0
M  V30 6857 H 660.245 4.03375 -0.327199 0
M  V30 6858 H 658.815 3.11876 0.212597 0
M  V30 6859 H 658.035 3.22213 -2.27095 0
M  V30 6860 H 659.323 4.41056 -2.53668 0
M  V30 6861 H 658.721 5.64312 0.396016 0
M  V30 6862 H 657.278 6.5176 0.0721001 0
M  V30 6863 N 660.711 1.11618 1.11262 0
M  V30 6864 C 661.661 0.745274 2.15475 0
M  V30 6865 C 662.645 -0.251585 1.58921 0
M  V30 6866 O 663.837 -0.0584093 1.76904 0
M  V30 6867 C 660.966 0.192128 3.42762 0
M  V30 6868 C 660.052 1.21676 4.0627 0
M  V30 6869 N 660.443 2.41158 4.44608 0
M  V30 6870 C 658.741 1.06013 4.33217 0
M  V30 6871 C 659.442 3.0652 4.94389 0
M  V30 6872 N 658.418 2.33994 4.9066 0
M  V30 6873 H 662.22 1.65462 2.42898 0
M  V30 6874 H 659.734 0.995695 1.28295 0
M  V30 6875 H 661.731 -0.0917339 4.16799 0
M  V30 6876 H 660.391 -0.711778 3.16802 0
M  V30 6877 H 661.402 2.786 4.3658 0
M  V30 6878 H 658.079 0.212809 4.16957 0
M  V30 6879 H 659.469 4.08225 5.33669 0
M  V30 6880 N 662.189 -1.289 0.906776 0
M  V30 6881 C 663.417 -1.99401 0.551969 0
M  V30 6882 C 663.832 -1.67816 -0.865048 0
M  V30 6883 O 663.189 -0.927078 -1.57199 0
M  V30 6884 C 663.24 -3.53779 0.743152 0
M  V30 6885 O 662.961 -3.84248 2.1044 0
M  V30 6886 C 664.462 -4.41543 0.39424 0
M  V30 6887 H 661.682 -0.636926 0.211106 0
M  V30 6888 H 664.226 -1.64266 1.21807 0
M  V30 6889 H 662.381 -3.87201 0.124143 0
M  V30 6890 H 662.795 -4.78904 2.13895 0
M  V30 6891 H 664.269 -5.48957 0.578814 0
M  V30 6892 H 664.746 -4.34073 -0.669137 0
M  V30 6893 H 665.352 -4.13605 0.990491 0
M  V30 6894 N 663.667 -0.670007 -1.42649 0
M  V30 6895 C 664.916 -0.187526 -2.00826 0
M  V30 6896 C 665.229 1.21142 -1.53571 0
M  V30 6897 O 666.435 1.79001 -2.04134 0
M  V30 6898 C 664.891 -0.284409 -3.58774 0
M  V30 6899 C 664.499 -1.6871 -4.15019 0
M  V30 6900 C 666.243 0.139605 -4.2427 0
M  V30 6901 C 664.15 -1.73701 -5.65316 0
M  V30 6902 H 663.08 -0.0663468 -0.751075 0
M  V30 6903 H 665.731 -0.834492 -1.63427 0
M  V30 6904 H 664.113 0.430364 -3.93655 0
M  V30 6905 H 665.287 -2.42857 -3.91608 0
M  V30 6906 H 663.602 -2.05855 -3.61957 0
M  V30 6907 H 666.199 0.122398 -5.3456 0
M  V30 6908 H 666.542 1.17403 -3.99402 0
M  V30 6909 H 667.075 -0.523995 -3.94334 0
M  V30 6910 H 663.814 -2.75109 -5.94975 0
M  V30 6911 H 663.334 -1.03903 -5.90732 0
M  V30 6912 H 665.013 -1.48829 -6.2965 0
M  V30 6913 N 665.145 1.52092 -0.413018 0
M  V30 6914 C 666.422 1.94356 0.22024 0
M  V30 6915 C 666.802 1.35017 1.62277 0
M  V30 6916 O 666.15 0.527511 2.22328 0
M  V30 6917 C 666.36 3.48289 0.222638 0
M  V30 6918 C 667.708 4.22313 0.440098 0
M  V30 6919 O 668.732 3.54919 0.301826 0
M  V30 6920 O 667.591 5.41829 0.712984 0
M  V30 6921 H 664.685 0.814536 0.14304 0
M  V30 6922 H 667.231 1.63083 -0.469242 0
M  V30 6923 H 666.003 3.83872 -0.758836 0
M  V30 6924 H 665.626 3.85934 0.956057 0
M  V30 6925 N 666.623 0.143563 1.56945 0
M  V30 6926 C 667.869 -0.50916 1.96304 0
M  V30 6927 C 668.202 -1.64741 1.0283 0
M  V30 6928 O 667.477 -1.94374 0.0700361 0
M  V30 6929 C 667.76 -1.0186 3.45393 0
M  V30 6930 C 667.613 0.117923 4.49645 0
M  V30 6931 C 668.932 -1.90151 3.96901 0
M  V30 6932 H 666.051 -0.183608 0.713763 0
M  V30 6933 H 668.693 0.224095 1.88674 0
M  V30 6934 H 666.843 -1.64345 3.52027 0
M  V30 6935 H 668.515 0.754145 4.55094 0
M  V30 6936 H 666.758 0.777568 4.26774 0
M  V30 6937 H 667.429 -0.280187 5.51288 0
M  V30 6938 H 669.905 -1.375 3.92725 0
M  V30 6939 H 668.781 -2.22707 5.0169 0
M  V30 6940 H 669.042 -2.83718 3.39052 0
M  V30 6941 N 668.101 -1.57061 -0.130224 0
M  V30 6942 C 669.329 -1.88432 -0.854456 0
M  V30 6943 C 669.744 -0.733608 -1.73964 0
M  V30 6944 O 669.101 0.296029 -1.80083 0
M  V30 6945 C 669.152 -3.1918 -1.69724 0
M  V30 6946 O 668.873 -4.2982 -0.847705 0
M  V30 6947 C 670.374 -3.6418 -2.5276 0
M  V30 6948 H 667.594 -0.624193 -0.246221 0
M  V30 6949 H 670.138 -2.04159 -0.11798 0
M  V30 6950 H 668.293 -3.05156 -2.3866 0
M  V30 6951 H 668.707 -5.04689 -1.42792 0
M  V30 6952 H 670.181 -4.58457 -3.07443 0
M  V30 6953 H 670.658 -2.90285 -3.29592 0
M  V30 6954 H 671.264 -3.80954 -1.89087 0
M  V30 6955 N 669.579 0.400081 -1.52437 0
M  V30 6956 C 670.856 1.15973 -1.57511 0
M  V30 6957 C 671.236 2.0798 -0.361572 0
M  V30 6958 O 670.584 2.19032 0.650929 0
M  V30 6959 C 670.794 1.92912 -2.90837 0
M  V30 6960 C 672.142 2.48662 -3.44169 0
M  V30 6961 O 673.166 2.03081 -2.92637 0
M  V30 6962 O 672.025 3.31894 -4.34176 0
M  V30 6963 H 669.119 0.530023 -0.634827 0
M  V30 6964 H 671.665 0.40613 -1.64769 0
M  V30 6965 H 670.437 1.25564 -3.70607 0
M  V30 6966 H 670.06 2.75257 -2.86913 0
M  V30 6967 N 671.057 1.43213 0.657864 0
M  V30 6968 C 672.282 1.48227 1.45064 0
M  V30 6969 C 672.707 0.0999939 1.87834 0
M  V30 6970 O 672.065 -0.905269 1.57081 0
M  V30 6971 C 672.113 2.42931 2.6649 0
M  V30 6972 O 671.217 1.91237 3.6538 0
M  V30 6973 H 670.558 0.501551 0.435135 0
M  V30 6974 H 673.088 1.8808 0.805431 0
M  V30 6975 H 673.098 2.6008 3.1436 0
M  V30 6976 H 671.773 3.43348 2.34701 0
M  V30 6977 H 670.35 1.83726 3.24498 0
M  V30 6978 N 672.536 -0.895792 1.29666 0
M  V30 6979 C 673.446 -2.03329 1.17024 0
M  V30 6980 C 674.462 -1.73753 0.0925962 0
M  V30 6981 O 675.638 -1.99071 0.305431 0
M  V30 6982 C 672.703 -3.36072 0.851841 0
M  V30 6983 C 671.764 -3.7914 2.01373 0
M  V30 6984 C 670.997 -5.05549 1.71043 0
M  V30 6985 O 671.22 -5.66874 0.633213 0
M  V30 6986 O 670.154 -5.44764 2.5596 0
M  V30 6987 H 673.98 -2.16918 2.12556 0
M  V30 6988 H 671.565 -1.02007 1.09156 0
M  V30 6989 H 673.447 -4.15729 0.689006 0
M  V30 6990 H 672.122 -3.23616 -0.0736634 0
M  V30 6991 H 671.029 -3.00233 2.23183 0
M  V30 6992 H 672.362 -3.96186 2.92058 0
M  V30 6993 N 674.014 -1.12206 -1.10668 0
M  V30 6994 C 674.947 -0.731468 -2.16159 0
M  V30 6995 C 675.925 0.276216 -1.60237 0
M  V30 6996 O 677.109 0.17074 -1.87725 0
M  V30 6997 C 674.236 -0.0822882 -3.386 0
M  V30 6998 C 673.282 -1.05641 -4.1321 0
M  V30 6999 S 674.115 -2.58281 -4.69096 0
M  V30 7000 C 675.271 -1.94686 -5.94851 0
M  V30 7001 H 675.504 -1.62504 -2.48957 0
M  V30 7002 H 673.037 -0.940906 -1.22419 0
M  V30 7003 H 674.995 0.285896 -4.09503 0
M  V30 7004 H 673.656 0.788358 -3.04046 0
M  V30 7005 H 672.849 -0.549764 -5.00993 0
M  V30 7006 H 672.451 -1.36741 -3.48106 0
M  V30 7007 H 674.743 -1.28815 -6.65141 0
M  V30 7008 H 675.686 -2.80499 -6.50174 0
M  V30 7009 H 676.094 -1.40369 -5.46769 0
M  V30 7010 N 675.492 1.28418 -0.913599 0
M  V30 7011 C 676.44 2.29272 -0.392037 0
M  V30 7012 C 677.434 1.61344 0.516198 0
M  V30 7013 O 678.64 1.75557 0.39746 0
M  V30 7014 H 675.015 0.744178 -0.108178 0
M  V30 7015 H 676.986 2.70691 -1.25574 0
M  V30 7016 C 675.735 3.45905 0.352815 0
M  V30 7017 H 675.058 3.98378 -0.336848 0
M  V30 7018 H 676.498 4.18473 0.682398 0
M  V30 7019 C 674.957 2.98572 1.56065 0
M  V30 7020 O 675.487 3.01033 2.65974 0
M  V30 7021 N 673.693 2.54235 1.40759 0
M  V30 7022 H 673.24 2.52432 0.513403 0
M  V30 7023 H 673.198 2.22925 2.21702 0
M  V30 7024 N 676.97 0.677563 1.42291 0
M  V30 7025 C 677.917 0.000947061 2.308 0
M  V30 7026 C 678.887 -0.789889 1.46116 0
M  V30 7027 O 680.072 -0.761578 1.74942 0
M  V30 7028 C 677.212 -0.942387 3.31984 0
M  V30 7029 C 676.325 -0.14508 4.31756 0
M  V30 7030 C 675.46 -1.08442 5.20013 0
M  V30 7031 C 674.499 -0.278958 6.11464 0
M  V30 7032 N 673.636 -1.17115 6.92263 0
M  V30 7033 H 678.476 0.761521 2.88106 0
M  V30 7034 H 676.013 0.38727 1.41911 0
M  V30 7035 H 677.971 -1.50317 3.89179 0
M  V30 7036 H 676.601 -1.66956 2.76271 0
M  V30 7037 H 675.653 0.532368 3.76656 0
M  V30 7038 H 676.965 0.48015 4.96484 0
M  V30 7039 H 676.119 -1.71504 5.81955 0
M  V30 7040 H 674.858 -1.74353 4.55469 0
M  V30 7041 H 673.863 0.364856 5.48588 0
M  V30 7042 H 675.088 0.376099 6.78058 0
M  V30 7043 H 673.034 -1.81661 6.30345 0
M  V30 7044 H 672.951 -0.601063 7.53607 0
M  V30 7045 H 674.219 -1.78915 7.58689 0
M  V30 7046 N 678.448 -1.51871 0.421078 0
M  V30 7047 C 679.378 -2.30231 -0.389363 0
M  V30 7048 C 680.359 -1.34946 -1.03555 0
M  V30 7049 O 681.544 -1.63859 -1.04229 0
M  V30 7050 C 678.674 -3.13247 -1.49979 0
M  V30 7051 C 677.628 -4.16677 -0.977966 0
M  V30 7052 C 676.954 -4.88112 -2.1829 0
M  V30 7053 C 678.254 -5.22295 -0.0236775 0
M  V30 7054 H 679.948 -2.98229 0.264524 0
M  V30 7055 H 677.494 -1.43424 0.12866 0
M  V30 7056 H 679.447 -3.66838 -2.07383 0
M  V30 7057 H 678.171 -2.4304 -2.18173 0
M  V30 7058 H 676.83 -3.64114 -0.426245 0
M  V30 7059 H 676.478 -4.14423 -2.85066 0
M  V30 7060 H 676.178 -5.58041 -1.84021 0
M  V30 7061 H 677.702 -5.44521 -2.76278 0
M  V30 7062 H 679.116 -5.71055 -0.506899 0
M  V30 7063 H 677.513 -5.99656 0.230782 0
M  V30 7064 H 678.583 -4.76131 0.917999 0
M  V30 7065 N 679.926 -0.151884 -1.56866 0
M  V30 7066 C 681.173 0.498004 -1.96281 0
M  V30 7067 C 681.501 1.64551 -1.03698 0
M  V30 7068 O 680.756 1.95585 -0.0671497 0
M  V30 7069 C 681.055 1.04074 -3.41911 0
M  V30 7070 C 680.721 0.0111688 -4.50899 0
M  V30 7071 C 679.383 -0.271844 -4.80432 0
M  V30 7072 C 681.735 -0.68869 -5.1663 0
M  V30 7073 C 679.063 -1.26044 -5.73001 0
M  V30 7074 C 681.415 -1.66613 -6.10264 0
M  V30 7075 C 680.079 -1.9568 -6.38174 0
M  V30 7076 H 679.349 0.182233 -0.718242 0
M  V30 7077 H 681.996 -0.239746 -1.89993 0
M  V30 7078 H 680.301 1.85592 -3.45055 0
M  V30 7079 H 681.998 1.55224 -3.69738 0
M  V30 7080 H 678.588 0.241932 -4.27917 0
M  V30 7081 H 682.772 -0.48324 -4.93942 0
M  V30 7082 H 678.028 -1.49202 -5.92915 0
M  V30 7083 H 682.202 -2.21392 -6.60272 0
M  V30 7084 H 679.829 -2.72434 -7.09707 0
M  V30 7085 N 681.404 1.57128 0.121893 0
M  V30 7086 C 682.314 2.03425 1.16857 0
M  V30 7087 C 683.33 0.954108 1.45509 0
M  V30 7088 O 684.506 1.26541 1.56682 0
M  V30 7089 C 681.571 2.42685 2.47599 0
M  V30 7090 C 680.632 3.64767 2.2637 0
M  V30 7091 C 679.865 4.02145 3.50878 0
M  V30 7092 O 680.088 3.39897 4.58068 0
M  V30 7093 O 679.022 4.95262 3.42051 0
M  V30 7094 H 682.848 2.92825 0.80544 0
M  V30 7095 H 680.433 1.45654 0.332477 0
M  V30 7096 H 682.315 2.68684 3.24634 0
M  V30 7097 H 680.99 1.56432 2.83392 0
M  V30 7098 H 679.897 3.43922 1.47203 0
M  V30 7099 H 681.23 4.51716 1.95482 0
M  V30 7100 N 682.882 -0.391992 1.52647 0
M  V30 7101 C 684.298 -0.731848 1.41831 0
M  V30 7102 C 684.498 -1.9423 0.536361 0
M  V30 7103 O 683.554 -2.52499 0.00866571 0
M  V30 7104 C 684.867 -0.969743 2.84634 0
M  V30 7105 C 686.415 -1.0714 2.94092 0
M  V30 7106 C 686.89 -1.34195 4.37899 0
M  V30 7107 N 688.381 -1.41023 4.41211 0
M  V30 7108 C 689.116 -1.63616 5.49561 0
M  V30 7109 N 688.612 -1.83699 6.68002 0
M  V30 7110 N 690.405 -1.65771 5.371 0
M  V30 7111 H 682.556 0.404547 2.08512 0
M  V30 7112 H 684.819 0.11879 0.940528 0
M  V30 7113 H 684.525 -0.152465 3.51369 0
M  V30 7114 H 684.399 -1.88523 3.26709 0
M  V30 7115 H 686.786 -1.87925 2.27526 0
M  V30 7116 H 686.867 -0.133887 2.55449 0
M  V30 7117 H 686.511 -0.539207 5.0503 0
M  V30 7118 H 686.441 -2.29226 4.74092 0
M  V30 7119 H 688.932 -1.27223 3.55841 0
M  V30 7120 H 689.245 -2.00437 7.46354 0
M  V30 7121 H 687.59 -1.8093 6.71036 0
M  V30 7122 H 690.781 -1.4963 4.43541 0
M  V30 7123 H 690.954 -1.83038 6.21612 0
M  V30 7124 N 684.36 -1.4356 -0.65026 0
M  V30 7125 C 685.606 -1.45549 -1.41221 0
M  V30 7126 C 685.939 -0.0805472 -1.94033 0
M  V30 7127 O 685.214 0.899043 -1.72475 0
M  V30 7128 C 685.497 -2.50028 -2.59148 0
M  V30 7129 C 685.35 -3.96808 -2.1181 0
M  V30 7130 C 686.669 -2.51212 -3.61359 0
M  V30 7131 H 683.788 -0.529967 -0.512156 0
M  V30 7132 H 686.43 -1.75127 -0.736933 0
M  V30 7133 H 684.58 -2.24937 -3.16758 0
M  V30 7134 H 686.252 -4.32966 -1.59178 0
M  V30 7135 H 684.495 -4.09498 -1.43156 0
M  V30 7136 H 685.166 -4.6553 -2.96625 0
M  V30 7137 H 687.642 -2.73583 -3.13515 0
M  V30 7138 H 686.518 -3.26252 -4.41419 0
M  V30 7139 H 686.779 -1.54701 -4.1415 0
M  V30 7140 N 685.838 0.888903 -1.30139 0
M  V30 7141 C 687.254 1.17153 -1.08385 0
M  V30 7142 C 687.454 2.0088 0.157925 0
M  V30 7143 O 686.51 2.37668 0.852652 0
M  V30 7144 C 687.823 1.882 -2.34523 0
M  V30 7145 C 689.371 2.00981 -2.39949 0
M  V30 7146 C 689.846 2.75441 -3.65918 0
M  V30 7147 N 691.337 2.82989 -3.66704 0
M  V30 7148 C 692.072 3.41167 -4.60861 0
M  V30 7149 N 691.568 4.00425 -5.6536 0
M  V30 7150 N 693.361 3.38944 -4.48412 0
M  V30 7151 H 685.512 0.33053 -2.09812 0
M  V30 7152 H 687.775 0.208964 -0.924683 0
M  V30 7153 H 687.481 1.34119 -3.25123 0
M  V30 7154 H 687.355 2.88609 -2.42868 0
M  V30 7155 H 689.742 2.54234 -1.4983 0
M  V30 7156 H 689.823 0.996725 -2.35582 0
M  V30 7157 H 689.467 2.22861 -4.56394 0
M  V30 7158 H 689.397 3.77118 -3.67546 0
M  V30 7159 H 691.888 2.40912 -2.91153 0
M  V30 7160 H 692.201 4.42871 -6.33313 0
M  V30 7161 H 690.546 3.98856 -5.69157 0
M  V30 7162 H 693.737 2.91875 -3.6596 0
M  V30 7163 H 693.91 3.83989 -5.21974 0
M  V30 7164 N 687.317 1.12792 1.10072 0
M  V30 7165 C 688.733 0.864745 1.34143 0
M  V30 7166 C 688.933 -0.503201 1.95116 0
M  V30 7167 O 687.989 -1.25111 2.19325 0
M  V30 7168 C 689.302 1.98413 2.25949 0
M  V30 7169 C 690.85 2.01545 2.39476 0
M  V30 7170 C 691.325 3.12727 3.34613 0
M  V30 7171 N 692.816 3.12194 3.42183 0
M  V30 7172 C 693.551 3.94862 4.15779 0
M  V30 7173 N 693.047 4.87528 4.92228 0
M  V30 7174 N 694.84 3.82985 4.11435 0
M  V30 7175 H 686.991 2.00926 0.68866 0
M  V30 7176 H 689.254 0.874564 0.365844 0
M  V30 7177 H 688.96 2.97005 1.88364 0
M  V30 7178 H 688.834 1.89254 3.26287 0
M  V30 7179 H 691.221 1.0357 2.76328 0
M  V30 7180 H 691.302 2.14777 1.3894 0
M  V30 7181 H 690.946 4.10936 2.98486 0
M  V30 7182 H 690.876 2.96732 4.35037 0
M  V30 7183 H 693.367 2.45065 2.87666 0
M  V30 7184 H 693.68 5.47109 5.45794 0
M  V30 7185 H 692.025 4.91539 4.9134 0
M  V30 7186 H 695.216 3.09923 3.50807 0
M  V30 7187 H 695.389 4.47641 4.68531 0
M  V30 7188 N 688.795 -1.27931 0.920396 0
M  V30 7189 C 689.727 -2.26175 0.371169 0
M  V30 7190 C 690.74 -1.55122 -0.494065 0
M  V30 7191 O 691.929 -1.75825 -0.30787 0
M  V30 7192 C 689.029 -3.35376 -0.487481 0
M  V30 7193 C 688.202 -4.35943 0.356772 0
M  V30 7194 C 687.261 -5.24374 -0.438042 0
M  V30 7195 O 686.287 -5.68998 0.151715 0
M  V30 7196 N 687.489 -5.53823 -1.73956 0
M  V30 7197 H 690.254 -2.73938 1.21564 0
M  V30 7198 H 687.815 -1.41482 0.787047 0
M  V30 7199 H 689.807 -3.91476 -1.02609 0
M  V30 7200 H 688.377 -2.87269 -1.23269 0
M  V30 7201 H 687.597 -3.7921 1.07672 0
M  V30 7202 H 688.885 -5.0015 0.934206 0
M  V30 7203 H 688.283 -5.19413 -2.24114 0
M  V30 7204 H 686.84 -6.12653 -2.22486 0
M  V30 7205 N 690.273 -0.685099 -1.4193 0
M  V30 7206 C 691.203 -0.0273506 -2.33484 0
M  V30 7207 C 692.184 0.778366 -1.51246 0
M  V30 7208 O 693.369 0.733449 -1.79817 0
M  V30 7209 C 690.499 0.917272 -3.34968 0
M  V30 7210 C 689.453 0.21941 -4.27437 0
M  V30 7211 C 688.779 1.27768 -5.1921 0
M  V30 7212 C 690.079 -0.907894 -5.14349 0
M  V30 7213 H 691.773 -0.791994 -2.88735 0
M  V30 7214 H 689.319 -0.382308 -1.38832 0
M  V30 7215 H 691.272 1.38657 -3.97935 0
M  V30 7216 H 689.996 1.71346 -2.78043 0
M  V30 7217 H 688.655 -0.229757 -3.65879 0
M  V30 7218 H 688.303 2.06612 -4.58607 0
M  V30 7219 H 688.003 0.815803 -5.81909 0
M  V30 7220 H 689.527 1.7477 -5.85054 0
M  V30 7221 H 690.941 -0.519348 -5.70943 0
M  V30 7222 H 689.338 -1.2962 -5.85934 0
M  V30 7223 H 690.408 -1.75218 -4.52136 0
M  V30 7224 N 691.751 1.51645 -0.429126 0
M  V30 7225 C 693.167 1.59394 -0.080994 0
M  V30 7226 C 693.367 1.44064 1.40882 0
M  V30 7227 O 692.423 1.27771 2.17786 0
M  V30 7228 C 693.736 2.94779 -0.593773 0
M  V30 7229 C 695.284 3.08067 -0.553494 0
M  V30 7230 C 695.759 4.45963 -1.04311 0
M  V30 7231 N 697.25 4.5226 -1.00076 0
M  V30 7232 C 697.985 5.57268 -1.35056 0
M  V30 7233 N 697.481 6.69734 -1.77282 0
M  V30 7234 N 699.274 5.47582 -1.26925 0
M  V30 7235 H 691.425 1.59856 -1.39857 0
M  V30 7236 H 693.688 0.753095 -0.575805 0
M  V30 7237 H 693.394 3.11342 -1.63583 0
M  V30 7238 H 693.268 3.77197 -0.0142202 0
M  V30 7239 H 695.655 2.91177 0.479556 0
M  V30 7240 H 695.736 2.27508 -1.16935 0
M  V30 7241 H 695.38 4.63598 -2.07459 0
M  V30 7242 H 695.31 5.25049 -0.403873 0
M  V30 7243 H 697.801 3.71537 -0.690564 0
M  V30 7244 H 698.114 7.4587 -2.02232 0
M  V30 7245 H 696.459 6.70963 -1.81202 0
M  V30 7246 H 699.65 4.58604 -0.93809 0
M  V30 7247 H 699.823 6.29308 -1.54516 0
M  V30 7248 N 693.229 0.160201 1.56784 0
M  V30 7249 C 694.139 -0.787167 2.21 0
M  V30 7250 C 695.155 -1.26167 1.19825 0
M  V30 7251 O 696.331 -1.31611 1.52448 0
M  V30 7252 C 693.396 -2.00364 2.8294 0
M  V30 7253 C 692.457 -1.5771 3.99282 0
M  V30 7254 C 691.69 -2.73558 4.58259 0
M  V30 7255 O 691.913 -3.90129 4.16119 0
M  V30 7256 O 690.847 -2.48271 5.48311 0
M  V30 7257 H 694.673 -0.270462 3.02493 0
M  V30 7258 H 692.258 -0.0674666 1.49248 0
M  V30 7259 H 694.14 -2.71529 3.22257 0
M  V30 7260 H 692.815 -2.50961 2.04451 0
M  V30 7261 H 691.722 -0.835274 3.64656 0
M  V30 7262 H 693.055 -1.11815 4.79331 0
M  V30 7263 N 694.707 -1.5719 -0.113559 0
M  V30 7264 C 695.655 -2.01725 -1.158 0
M  V30 7265 C 696.649 -0.915105 -1.42556 0
M  V30 7266 O 697.855 -1.10031 -1.42454 0
M  V30 7267 H 694.23 -0.64262 -0.390569 0
M  V30 7268 H 696.201 -2.88666 -0.755926 0
M  V30 7269 C 694.95 -2.44203 -2.47507 0
M  V30 7270 H 694.273 -3.28582 -2.27758 0
M  V30 7271 H 695.713 -2.79158 -3.19135 0
M  V30 7272 C 694.172 -1.30785 -3.10478 0
M  V30 7273 O 694.702 -0.626807 -3.9678 0
M  V30 7274 N 692.908 -1.06352 -2.7044 0
M  V30 7275 H 692.455 -1.61913 -2.00355 0
M  V30 7276 H 692.413 -0.306614 -3.12901 0
M  V30 7277 N 696.185 0.383891 -1.52853 0
M  V30 7278 C 697.148 1.45197 -1.77343 0
M  V30 7279 C 698.148 1.47362 -0.643522 0
M  V30 7280 O 699.338 1.48443 -0.911613 0
M  V30 7281 C 696.47 2.8445 -1.87885 0
M  V30 7282 H 697.663 1.24764 -2.72716 0
M  V30 7283 H 695.216 0.615939 -1.43652 0
M  V30 7284 H 695.951 3.10222 -0.94515 0
M  V30 7285 H 695.736 2.8428 -2.70051 0
M  V30 7286 H 697.226 3.61832 -2.08488 0
M  V30 7287 N 697.663 1.43903 0.642637 0
M  V30 7288 C 698.573 1.52349 1.78401 0
M  V30 7289 C 699.589 0.409869 1.69104 0
M  V30 7290 O 700.765 0.665548 1.90085 0
M  V30 7291 C 697.83 1.45408 3.14734 0
M  V30 7292 C 696.891 2.67528 3.35749 0
M  V30 7293 C 696.124 2.60909 4.65577 0
M  V30 7294 O 696.347 1.6627 5.45628 0
M  V30 7295 O 695.281 3.5158 4.88544 0
M  V30 7296 H 699.107 2.48752 1.7423 0
M  V30 7297 H 696.692 1.26021 0.802439 0
M  V30 7298 H 698.574 1.44019 3.96026 0
M  V30 7299 H 697.249 0.521437 3.19473 0
M  V30 7300 H 696.156 2.74487 2.5418 0
M  V30 7301 H 697.489 3.598 3.35864 0
M  V30 7302 N 699.141 -0.881989 1.30609 0
M  V30 7303 C 700.418 -1.61563 1.10258 0
M  V30 7304 C 700.798 -2.08228 -0.347053 0
M  V30 7305 O 700.146 -1.85151 -1.33908 0
M  V30 7306 C 700.356 -2.78287 2.10612 0
M  V30 7307 C 701.704 -3.48545 2.4249 0
M  V30 7308 O 702.728 -2.88479 2.08945 0
M  V30 7309 O 701.587 -4.56873 2.99883 0
M  V30 7310 H 698.681 -0.710238 0.423663 0
M  V30 7311 H 701.227 -0.928503 1.42045 0
M  V30 7312 H 699.999 -2.41131 3.08174 0
M  V30 7313 H 699.622 -3.54695 1.79659 0
M  V30 7314 N 700.619 -1.13374 -1.09472 0
M  V30 7315 C 701.551 -0.768466 -2.15933 0
M  V30 7316 C 702.564 0.209585 -1.61445 0
M  V30 7317 O 703.753 -0.010539 -1.78497 0
M  V30 7318 C 700.853 -0.118266 -3.38694 0
M  V30 7319 C 700.026 -1.12829 -4.22597 0
M  V30 7320 C 699.085 -0.503875 -5.23782 0
M  V30 7321 O 698.111 -1.16374 -5.57177 0
M  V30 7322 N 699.313 0.724288 -5.75964 0
M  V30 7323 H 702.078 -1.68457 -2.47876 0
M  V30 7324 H 699.639 -1.02668 -1.25183 0
M  V30 7325 H 701.631 0.311698 -4.03498 0
M  V30 7326 H 700.201 0.700769 -3.04644 0
M  V30 7327 H 699.421 -1.73556 -3.53938 0
M  V30 7328 H 700.709 -1.81095 -4.75481 0
M  V30 7329 H 700.107 1.27918 -5.51048 0
M  V30 7330 H 698.664 1.09692 -6.42504 0
M  V30 7331 N 702.098 1.27442 -0.927168 0
M  V30 7332 C 703.346 1.94007 -0.566203 0
M  V30 7333 C 703.667 1.7323 0.895345 0
M  V30 7334 O 702.937 1.07973 1.63459 0
M  V30 7335 H 701.517 0.717917 -0.206409 0
M  V30 7336 H 704.179 1.55161 -1.17945 0
M  V30 7337 H 703.275 3.02401 -0.772028 0
M  V30 7338 N 703.576 0.692616 1.41565 0
M  V30 7339 C 704.524 0.0139952 2.32596 0
M  V30 7340 C 705.518 -0.771691 1.50802 0
M  V30 7341 O 706.724 -0.677646 1.66757 0
M  V30 7342 H 703.099 -0.0142745 0.751865 0
M  V30 7343 H 705.07 0.798851 2.87508 0
M  V30 7344 C 703.819 -0.910602 3.35564 0
M  V30 7345 H 703.142 -0.315446 3.98554 0
M  V30 7346 H 704.582 -1.3538 4.01806 0
M  V30 7347 C 703.041 -2.02539 2.6922 0
M  V30 7348 O 703.571 -3.11386 2.53775 0
M  V30 7349 N 701.777 -1.80227 2.27962 0
M  V30 7350 H 701.324 -0.917054 2.40724 0
M  V30 7351 H 701.282 -2.55001 1.83907 0
M  V30 7352 N 705.054 -1.51416 0.437162 0
M  V30 7353 C 706.302 -2.01687 -0.129108 0
M  V30 7354 C 706.623 -1.32329 -1.43227 0
M  V30 7355 O 705.893 -0.457796 -1.90476 0
M  V30 7356 H 704.473 -0.745277 -0.0507023 0
M  V30 7357 H 707.135 -1.86075 0.579828 0
M  V30 7358 H 706.231 -3.10605 -0.305141 0
M  V30 7359 N 706.532 -0.168513 -1.56696 0
M  V30 7360 C 707.772 0.479648 -1.98693 0
M  V30 7361 C 708.136 1.60609 -1.05209 0
M  V30 7362 O 709.337 2.3166 -1.36334 0
M  V30 7363 C 707.608 0.952852 -3.44464 0
M  V30 7364 S 709.167 1.60259 -4.08488 0
M  V30 7365 H 705.985 0.154377 -0.694038 0
M  V30 7366 H 708.587 -0.265312 -1.93691 0
M  V30 7367 H 707.291 0.12257 -4.10217 0
M  V30 7368 H 706.822 1.73192 -3.53225 0
M  V30 7369 H 708.837 2.89065 -4.03307 0
M  V30 7370 N 708.01 1.57248 0.105221 0
M  V30 7371 C 709.257 1.8557 0.810552 0
M  V30 7372 C 709.585 0.755595 1.79223 0
M  V30 7373 O 708.84 -0.251788 1.94073 0
M  V30 7374 C 709.139 3.20437 1.58287 0
M  V30 7375 C 708.805 4.44716 0.744235 0
M  V30 7376 C 707.467 4.78458 0.513013 0
M  V30 7377 C 709.819 5.20953 0.160578 0
M  V30 7378 C 707.147 5.8587 -0.311894 0
M  V30 7379 C 709.499 6.29235 -0.651596 0
M  V30 7380 C 708.163 6.615 -0.893005 0
M  V30 7381 H 707.433 0.67905 0.296602 0
M  V30 7382 H 710.08 1.91363 0.0723968 0
M  V30 7383 H 708.385 3.10283 2.39232 0
M  V30 7384 H 710.082 3.39576 2.13282 0
M  V30 7385 H 706.672 4.18287 0.934555 0
M  V30 7386 H 710.856 4.95226 0.3264 0
M  V30 7387 H 706.112 6.09286 -0.508012 0
M  V30 7388 H 710.286 6.87484 -1.11077 0
M  V30 7389 H 707.913 7.44562 -1.53401 0
M  V30 7390 N 709.488 -0.375779 1.53054 0
M  V30 7391 C 710.398 -1.48381 1.81715 0
M  V30 7392 C 711.414 -1.59087 0.704795 0
M  V30 7393 O 712.59 -1.75174 0.993785 0
M  V30 7394 C 709.655 -2.83767 1.99192 0
M  V30 7395 C 708.716 -2.82673 3.23102 0
M  V30 7396 C 707.949 -4.11601 3.39736 0
M  V30 7397 O 708.172 -5.07243 2.60885 0
M  V30 7398 O 707.106 -4.18034 4.33049 0
M  V30 7399 H 710.932 -1.27089 2.7583 0
M  V30 7400 H 708.517 -0.564902 1.38308 0
M  V30 7401 H 710.399 -3.64004 2.12318 0
M  V30 7402 H 709.074 -3.05057 1.08267 0
M  V30 7403 H 707.981 -2.0117 3.15407 0
M  V30 7404 H 709.314 -2.66335 4.13916 0
M  V30 7405 N 710.966 -1.44241 -0.634997 0
M  V30 7406 C 712.215 -1.46102 -1.39058 0
M  V30 7407 C 712.528 -0.0959909 -1.95364 0
M  V30 7408 O 713.734 0.00788751 -2.71499 0
M  V30 7409 C 712.19 -2.57195 -2.51751 0
M  V30 7410 C 711.798 -3.99888 -2.01974 0
M  V30 7411 C 713.542 -2.68272 -3.28984 0
M  V30 7412 C 711.449 -5.02412 -3.11987 0
M  V30 7413 H 710.379 -0.543556 -0.522554 0
M  V30 7414 H 713.03 -1.70294 -0.683538 0
M  V30 7415 H 711.412 -2.26237 -3.25012 0
M  V30 7416 H 712.586 -4.40396 -1.35604 0
M  V30 7417 H 710.901 -3.93019 -1.37568 0
M  V30 7418 H 713.498 -3.42042 -4.10988 0
M  V30 7419 H 713.841 -1.73957 -3.78212 0
M  V30 7420 H 714.374 -2.98622 -2.62812 0
M  V30 7421 H 711.113 -5.98342 -2.67707 0
M  V30 7422 H 710.633 -4.66501 -3.77011 0
M  V30 7423 H 712.312 -5.25939 -3.76825 0
M  V30 7424 N 712.444 0.87505 -1.31075 0
M  V30 7425 C 713.691 1.62768 -1.20469 0
M  V30 7426 C 714.019 1.93034 0.23834 0
M  V30 7427 O 713.274 1.55693 1.18567 0
M  V30 7428 C 713.573 2.96948 -1.98888 0
M  V30 7429 C 713.239 2.86195 -3.4843 0
M  V30 7430 C 711.901 2.82969 -3.89207 0
M  V30 7431 C 714.253 2.73599 -4.43614 0
M  V30 7432 C 711.581 2.64999 -5.23443 0
M  V30 7433 C 713.933 2.57166 -5.77969 0
M  V30 7434 C 712.597 2.52321 -6.17973 0
M  V30 7435 H 711.867 0.595611 -0.440827 0
M  V30 7436 H 714.514 1.01665 -1.62285 0
M  V30 7437 H 712.819 3.62058 -1.49737 0
M  V30 7438 H 714.516 3.54164 -1.88067 0
M  V30 7439 H 711.106 2.8952 -3.16032 0
M  V30 7440 H 715.29 2.7515 -4.13045 0
M  V30 7441 H 710.546 2.5967 -5.53517 0
M  V30 7442 H 714.72 2.46396 -6.51354 0
M  V30 7443 H 712.347 2.38156 -7.21932 0
M  V30 7444 N 713.922 1.13953 1.08869 0
M  V30 7445 C 714.872 0.790812 2.13846 0
M  V30 7446 C 715.856 -0.217819 1.59419 0
M  V30 7447 O 717.048 -0.0208723 1.76988 0
M  V30 7448 C 714.177 0.26479 3.42277 0
M  V30 7449 C 713.263 1.30267 4.03598 0
M  V30 7450 N 713.654 2.50535 4.39393 0
M  V30 7451 C 711.952 1.15178 4.30871 0
M  V30 7452 C 712.653 3.16938 4.87776 0
M  V30 7453 N 711.629 2.44349 4.85587 0
M  V30 7454 H 715.431 1.70577 2.39334 0
M  V30 7455 H 712.945 1.02268 1.26154 0
M  V30 7456 H 714.942 -0.00330398 4.169 0
M  V30 7457 H 713.602 -0.644419 3.18241 0
M  V30 7458 H 714.613 2.87798 4.30572 0
M  V30 7459 H 711.29 0.301204 4.16412 0
M  V30 7460 H 712.68 4.19453 5.2489 0
M  V30 7461 N 715.4 -1.26948 0.933913 0
M  V30 7462 C 716.332 -2.25768 0.395137 0
M  V30 7463 C 717.345 -1.55637 -0.477585 0
M  V30 7464 O 718.534 -1.76142 -0.289204 0
M  V30 7465 C 715.634 -3.35874 -0.451882 0
M  V30 7466 C 714.807 -4.3554 0.40299 0
M  V30 7467 C 713.866 -5.24809 -0.3824 0
M  V30 7468 O 712.892 -5.68805 0.212057 0
M  V30 7469 N 714.094 -5.55636 -1.68072 0
M  V30 7470 H 716.859 -2.72634 1.24463 0
M  V30 7471 H 714.42 -1.40639 0.802008 0
M  V30 7472 H 716.412 -3.92542 -0.984516 0
M  V30 7473 H 714.982 -2.8856 -1.20215 0
M  V30 7474 H 714.202 -3.78047 1.11688 0
M  V30 7475 H 715.49 -4.99131 0.987201 0
M  V30 7476 H 714.888 -5.2176 -2.18592 0
M  V30 7477 H 713.445 -6.14978 -2.15975 0
M  V30 7478 N 716.879 -0.700114 -1.41195 0
M  V30 7479 C 718.119 -0.237223 -2.03019 0
M  V30 7480 C 718.483 1.14304 -1.54268 0
M  V30 7481 O 719.684 1.70204 -2.08048 0
M  V30 7482 C 717.955 -0.297442 -3.5616 0
M  V30 7483 S 719.514 0.0907367 -4.38706 0
M  V30 7484 H 716.332 -0.0952147 -0.704596 0
M  V30 7485 H 718.934 -0.918901 -1.72559 0
M  V30 7486 H 717.638 -1.30391 -3.89135 0
M  V30 7487 H 717.169 0.403233 -3.91328 0
M  V30 7488 H 719.184 1.31721 -4.78397 0
M  V30 7489 N 718.357 1.51182 -0.445186 0
M  V30 7490 C 719.634 1.9478 0.178965 0
M  V30 7491 C 720.014 1.38428 1.59376 0
M  V30 7492 O 719.362 0.574552 2.21159 0
M  V30 7493 C 719.572 3.48683 0.148711 0
M  V30 7494 C 720.92 4.23152 0.35042 0
M  V30 7495 O 721.944 3.55479 0.226474 0
M  V30 7496 O 720.803 5.4322 0.597893 0
M  V30 7497 H 717.897 0.817387 0.12573 0
M  V30 7498 H 720.443 1.62051 -0.503729 0
M  V30 7499 H 719.215 3.82176 -0.84009 0
M  V30 7500 H 718.838 3.87875 0.873979 0
M  V30 7501 N 719.835 0.176821 1.56605 0
M  V30 7502 C 720.783 -0.768159 2.1955 0
M  V30 7503 C 721.777 -1.23343 1.16116 0
M  V30 7504 O 722.983 -1.19844 1.34303 0
M  V30 7505 H 719.358 -0.266013 0.703378 0
M  V30 7506 H 721.329 -0.213374 2.97636 0
M  V30 7507 C 720.078 -1.98492 2.85475 0
M  V30 7508 H 719.401 -1.63595 3.64797 0
M  V30 7509 H 720.841 -2.62489 3.3298 0
M  V30 7510 C 719.3 -2.81207 1.85538 0
M  V30 7511 O 719.83 -3.7854 1.34427 0
M  V30 7512 N 718.036 -2.46331 1.54173 0
M  V30 7513 H 717.583 -1.67241 1.95929 0
M  V30 7514 H 717.541 -3.01961 0.875595 0
M  V30 7515 N 721.313 -1.57302 -0.09688 0
M  V30 7516 C 722.261 -2.02942 -1.13654 0
M  V30 7517 C 723.255 -0.930173 -1.41577 0
M  V30 7518 O 724.461 -1.11535 -1.41279 0
M  V30 7519 H 720.836 -0.646726 -0.383731 0
M  V30 7520 H 722.807 -2.89452 -0.725267 0
M  V30 7521 C 721.556 -2.46815 -2.44903 0
M  V30 7522 H 720.879 -3.30979 -2.24261 0
M  V30 7523 H 722.319 -2.82527 -3.16156 0
M  V30 7524 C 720.778 -1.34071 -3.09074 0
M  V30 7525 O 721.308 -0.668856 -3.96092 0
M  V30 7526 N 719.514 -1.09214 -2.69296 0
M  V30 7527 H 719.061 -1.64029 -1.98626 0
M  V30 7528 H 719.019 -0.339785 -3.12559 0
M  V30 7529 N 722.791 0.367657 -1.53252 0
M  V30 7530 C 724.031 1.11923 -1.71034 0
M  V30 7531 C 724.395 1.86618 -0.45143 0
M  V30 7532 O 725.596 2.63996 -0.505915 0
M  V30 7533 C 723.867 2.05461 -2.92439 0
M  V30 7534 S 725.426 2.88167 -3.30916 0
M  V30 7535 H 722.244 0.378549 -0.601848 0
M  V30 7536 H 724.846 0.400757 -1.91348 0
M  V30 7537 H 723.55 1.49346 -3.82262 0
M  V30 7538 H 723.081 2.81784 -2.7452 0
M  V30 7539 H 725.096 4.07746 -2.82767 0
M  V30 7540 N 724.269 1.44576 0.627338 0
M  V30 7541 C 725.518 1.46837 1.38281 0
M  V30 7542 C 725.831 0.10635 1.95311 0
M  V30 7543 O 727.037 0.00651084 2.71499 0
M  V30 7544 C 725.493 2.58527 2.50384 0
M  V30 7545 C 725.101 4.00953 1.99851 0
M  V30 7546 C 726.845 2.70013 3.27557 0
M  V30 7547 C 724.752 5.0406 3.09318 0
M  V30 7548 H 723.682 0.546319 0.519664 0
M  V30 7549 H 726.333 1.70654 0.674497 0
M  V30 7550 H 724.715 2.27957 3.23808 0
M  V30 7551 H 725.889 4.41108 1.33267 0
M  V30 7552 H 724.204 3.93743 1.35482 0
M  V30 7553 H 726.801 3.44217 4.09168 0
M  V30 7554 H 727.144 1.75961 3.77284 0
M  V30 7555 H 727.677 3.00011 2.61224 0
M  V30 7556 H 724.416 5.99753 2.6453 0
M  V30 7557 H 723.936 4.68493 3.74532 0
M  V30 7558 H 725.615 5.2793 3.74031 0
M  V30 7559 N 725.747 -0.868086 1.31537 0
M  V30 7560 C 726.657 -2.00801 1.21311 0
M  V30 7561 C 727.673 -1.73518 0.129431 0
M  V30 7562 O 728.849 -1.98378 0.347588 0
M  V30 7563 C 725.914 -3.3419 0.922935 0
M  V30 7564 C 724.975 -3.74783 2.0937 0
M  V30 7565 C 724.208 -5.01807 1.81728 0
M  V30 7566 O 724.431 -5.65404 0.753313 0
M  V30 7567 O 723.365 -5.39213 2.67457 0
M  V30 7568 H 727.191 -2.12361 2.17109 0
M  V30 7569 H 724.776 -0.996684 1.11295 0
M  V30 7570 H 726.658 -4.14174 0.777033 0
M  V30 7571 H 725.333 -3.237 -0.00500301 0
M  V30 7572 H 724.24 -2.95432 2.29501 0
M  V30 7573 H 725.573 -3.89902 3.00396 0
M  V30 7574 N 727.225 -1.14528 -1.08264 0
M  V30 7575 C 728.45 -0.938381 -1.84957 0
M  V30 7576 C 728.875 0.508044 -1.81109 0
M  V30 7577 O 728.233 1.36146 -1.19724 0
M  V30 7578 C 728.281 -1.44568 -3.30352 0
M  V30 7579 O 727.385 -0.638745 -4.07423 0
M  V30 7580 H 726.726 -0.335394 -0.573068 0
M  V30 7581 H 729.256 -1.52287 -1.36637 0
M  V30 7582 H 729.266 -1.45449 -3.81194 0
M  V30 7583 H 727.941 -2.49876 -3.32468 0
M  V30 7584 H 726.518 -0.698801 -3.66294 0
M  V30 7585 N 728.703 1.26451 -0.940633 0
M  V30 7586 C 729.952 1.93071 -0.583656 0
M  V30 7587 C 730.265 1.74618 0.881366 0
M  V30 7588 O 731.471 2.35689 1.34769 0
M  V30 7589 C 729.927 3.45927 -0.993106 0
M  V30 7590 C 729.535 3.73115 -2.4797 0
M  V30 7591 C 731.279 4.18554 -0.707998 0
M  V30 7592 C 729.186 5.19408 -2.82788 0
M  V30 7593 H 728.116 0.722824 -0.214572 0
M  V30 7594 H 730.767 1.43538 -1.1432 0
M  V30 7595 H 729.149 3.94341 -0.362099 0
M  V30 7596 H 730.323 3.35408 -3.15971 0
M  V30 7597 H 728.638 3.13719 -2.73805 0
M  V30 7598 H 731.235 5.26293 -0.94447 0
M  V30 7599 H 731.578 4.14782 0.355225 0
M  V30 7600 H 732.111 3.76003 -1.2987 0
M  V30 7601 H 728.85 5.28281 -3.88071 0
M  V30 7602 H 728.37 5.58214 -2.19449 0
M  V30 7603 H 730.049 5.87407 -2.71224 0
M  V30 7604 N 730.181 0.707592 1.40822 0
M  V30 7605 C 731.597 0.38034 1.55002 0
M  V30 7606 C 731.797 -1.11163 1.68062 0
M  V30 7607 O 730.853 -1.89761 1.66574 0
M  V30 7608 C 732.166 1.1394 2.78277 0
M  V30 7609 C 733.714 1.12492 2.92087 0
M  V30 7610 C 734.189 1.86597 4.18265 0
M  V30 7611 N 735.68 1.83626 4.25248 0
M  V30 7612 C 736.415 2.37794 5.21768 0
M  V30 7613 N 735.911 3.00485 6.24244 0
M  V30 7614 N 737.704 2.27982 5.13791 0
M  V30 7615 H 729.855 1.67511 1.3059 0
M  V30 7616 H 732.118 0.707579 0.630901 0
M  V30 7617 H 731.824 2.19398 2.74877 0
M  V30 7618 H 731.698 0.725793 3.70151 0
M  V30 7619 H 734.085 0.0785564 2.94995 0
M  V30 7620 H 734.166 1.57768 2.01353 0
M  V30 7621 H 733.81 2.91219 4.16118 0
M  V30 7622 H 733.74 1.38746 5.07993 0
M  V30 7623 H 736.231 1.3793 3.51829 0
M  V30 7624 H 736.544 3.39355 6.94304 0
M  V30 7625 H 734.889 3.04567 6.24711 0
M  V30 7626 H 738.08 1.78669 4.3266 0
M  V30 7627 H 738.253 2.70499 5.88841 0
M  V30 7628 N 731.66 -1.50943 0.453197 0
M  V30 7629 C 732.608 -2.29728 -0.364419 0
M  V30 7630 C 733.602 -1.36246 -1.00664 0
M  V30 7631 O 734.808 -1.53518 -0.939794 0
M  V30 7632 H 731.183 -0.739536 -0.136347 0
M  V30 7633 H 733.154 -2.96672 0.320696 0
M  V30 7634 C 731.903 -3.1629 -1.44415 0
M  V30 7635 H 731.226 -3.88119 -0.959343 0
M  V30 7636 H 732.666 -3.74444 -1.98917 0
M  V30 7637 C 731.125 -2.32702 -2.43622 0
M  V30 7638 O 731.655 -1.99763 -3.48508 0
M  V30 7639 N 729.861 -1.95621 -2.14897 0
M  V30 7640 H 729.408 -2.22607 -1.29629 0
M  V30 7641 H 729.366 -1.39993 -2.81513 0
M  V30 7642 N 733.138 -0.185124 -1.56509 0
M  V30 7643 C 734.386 0.455357 -1.96903 0
M  V30 7644 C 734.707 1.62839 -1.07277 0
M  V30 7645 O 733.977 1.95385 -0.141966 0
M  V30 7646 H 732.557 0.171218 -0.727113 0
M  V30 7647 H 735.219 -0.26953 -1.93027 0
M  V30 7648 H 734.315 0.80616 -3.01509 0
M  V30 7649 N 734.616 1.57351 0.0885366 0
M  V30 7650 C 735.844 1.90631 0.804196 0
M  V30 7651 C 736.259 0.779474 1.71958 0
M  V30 7652 O 735.616 -0.248179 1.80805 0
M  V30 7653 C 735.667 3.23568 1.61202 0
M  V30 7654 O 735.388 4.31917 0.733447 0
M  V30 7655 C 736.889 3.70753 2.43016 0
M  V30 7656 H 734.109 0.630501 0.229585 0
M  V30 7657 H 736.653 2.044 0.0638092 0
M  V30 7658 H 734.808 3.11377 2.30485 0
M  V30 7659 H 735.222 5.08297 1.29361 0
M  V30 7660 H 736.696 4.66447 2.9518 0
M  V30 7661 H 737.173 2.98922 3.2178 0
M  V30 7662 H 737.779 3.85834 1.7892 0
M  V30 7663 N 736.094 -0.359525 1.53444 0
M  V30 7664 C 737.324 -1.12036 1.73585 0
M  V30 7665 C 737.732 -1.83335 0.467438 0
M  V30 7666 O 737.075 -1.74641 -0.569753 0
M  V30 7667 C 737.137 -2.19036 2.85068 0
M  V30 7668 C 736.801 -1.67451 4.25217 0
M  V30 7669 C 737.798 -1.13534 5.07352 0
M  V30 7670 C 735.483 -1.72781 4.71648 0
M  V30 7671 C 737.477 -0.656321 6.34012 0
M  V30 7672 C 735.164 -1.2449 5.98285 0
M  V30 7673 C 736.162 -0.710068 6.79299 0
M  V30 7674 O 735.85 -0.234314 8.03558 0
M  V30 7675 H 735.582 -0.340662 0.583888 0
M  V30 7676 H 738.136 -0.422452 2.01009 0
M  V30 7677 H 736.366 -2.92338 2.53131 0
M  V30 7678 H 738.055 -2.80559 2.93328 0
M  V30 7679 H 738.821 -1.08751 4.7265 0
M  V30 7680 H 734.7 -2.13351 4.08659 0
M  V30 7681 H 738.244 -0.238193 6.97193 0
M  V30 7682 H 734.141 -1.28969 6.32485 0
M  V30 7683 H 734.909 -0.353084 8.17738 0
M  V30 7684 N 737.572 -1.44907 -0.619662 0
M  V30 7685 C 738.849 -1.38766 -1.37852 0
M  V30 7686 C 739.229 -0.0521393 -2.11036 0
M  V30 7687 O 738.577 0.965613 -2.07095 0
M  V30 7688 C 738.787 -2.59344 -2.33541 0
M  V30 7689 C 740.135 -3.03909 -2.96521 0
M  V30 7690 O 741.159 -2.59631 -2.43865 0
M  V30 7691 O 740.018 -3.80713 -3.92071 0
M  V30 7692 H 737.112 -0.550083 -0.617525 0
M  V30 7693 H 739.658 -1.57015 -0.643759 0
M  V30 7694 H 738.43 -3.48142 -1.78642 0
M  V30 7695 H 738.053 -2.43367 -3.14417 0
M  V30 7696 N 739.05 0.861098 -1.31996 0
M  V30 7697 C 740 1.95703 -1.1698 0
M  V30 7698 C 740.984 1.60709 -0.0784201 0
M  V30 7699 O 742.176 1.74365 -0.304262 0
M  V30 7700 C 739.305 3.31606 -0.888388 0
M  V30 7701 C 738.391 3.7284 -2.02117 0
M  V30 7702 N 738.782 3.85957 -3.26911 0
M  V30 7703 C 737.08 4.02419 -1.92289 0
M  V30 7704 C 737.781 4.21333 -4.01065 0
M  V30 7705 N 736.757 4.32502 -3.29307 0
M  V30 7706 H 740.559 2.03968 -2.11599 0
M  V30 7707 H 738.073 1.05245 -1.23682 0
M  V30 7708 H 740.07 4.09881 -0.761782 0
M  V30 7709 H 738.73 3.24662 0.0494898 0
M  V30 7710 H 739.741 3.70449 -3.61923 0
M  V30 7711 H 736.418 4.03814 -1.06022 0
M  V30 7712 H 737.808 4.39005 -5.08649 0
M  V30 7713 N 740.528 1.15101 1.07655 0
M  V30 7714 C 741.476 0.840714 2.16875 0
M  V30 7715 C 742.47 -0.184594 1.68391 0
M  V30 7716 O 743.676 -0.0399315 1.79956 0
M  V30 7717 H 740.051 0.254192 0.707736 0
M  V30 7718 H 742.022 1.76959 2.40266 0
M  V30 7719 C 740.771 0.343018 3.46004 0
M  V30 7720 H 740.094 1.12335 3.83694 0
M  V30 7721 H 741.534 0.16453 4.23681 0
M  V30 7722 C 739.993 -0.934881 3.23669 0
M  V30 7723 O 740.523 -2.00706 3.47965 0
M  V30 7724 N 738.729 -0.873167 2.77172 0
M  V30 7725 H 738.276 -0.000479072 2.576 0
M  V30 7726 H 738.234 -1.72873 2.62607 0
M  V30 7727 N 742.006 -1.2595 0.947325 0
M  V30 7728 C 743.255 -1.92759 0.593887 0
M  V30 7729 C 743.568 -1.75083 -0.872093 0
M  V30 7730 O 744.774 -2.36401 -1.33518 0
M  V30 7731 C 743.23 -3.45395 1.01144 0
M  V30 7732 C 742.838 -3.71795 2.49946 0
M  V30 7733 C 744.582 -4.18173 0.730185 0
M  V30 7734 C 742.489 -5.17901 2.85539 0
M  V30 7735 H 741.419 -0.721676 0.218403 0
M  V30 7736 H 744.07 -1.4293 1.15079 0
M  V30 7737 H 742.452 -3.94143 0.383007 0
M  V30 7738 H 743.626 -3.33728 3.17746 0
M  V30 7739 H 741.941 -3.12263 2.75465 0
M  V30 7740 H 744.538 -5.25784 0.972367 0
M  V30 7741 H 744.881 -4.14964 -0.333223 0
M  V30 7742 H 745.414 -3.75309 1.31862 0
M  V30 7743 H 742.153 -5.26216 3.90867 0
M  V30 7744 H 741.673 -5.57042 2.22406 0
M  V30 7745 H 743.352 -5.8596 2.74336 0
M  V30 7746 N 743.484 -0.715051 -1.40445 0
M  V30 7747 C 744.714 -0.263576 -2.04912 0
M  V30 7748 C 745.122 1.09943 -1.53978 0
M  V30 7749 O 744.465 1.70203 -0.691133 0
M  V30 7750 C 744.527 -0.165048 -3.59121 0
M  V30 7751 C 744.191 -1.46325 -4.32941 0
M  V30 7752 C 745.188 -2.40506 -4.60926 0
M  V30 7753 C 742.873 -1.72203 -4.7186 0
M  V30 7754 C 744.867 -3.58812 -5.26814 0
M  V30 7755 C 742.554 -2.9079 -5.3748 0
M  V30 7756 C 743.552 -3.83917 -5.64887 0
M  V30 7757 O 743.24 -5.00424 -6.29151 0
M  V30 7758 H 742.972 -0.116317 -0.665918 0
M  V30 7759 H 745.526 -0.973774 -1.8085 0
M  V30 7760 H 743.756 0.601088 -3.82 0
M  V30 7761 H 745.445 0.251794 -4.05118 0
M  V30 7762 H 746.211 -2.21778 -4.31323 0
M  V30 7763 H 742.09 -1.00571 -4.49896 0
M  V30 7764 H 745.634 -4.31517 -5.48123 0
M  V30 7765 H 741.531 -3.09428 -5.66502 0
M  V30 7766 H 742.299 -5.00494 -6.47648 0
M  V30 7767 N 744.962 1.50701 -0.461195 0
M  V30 7768 C 746.378 1.59187 -0.114786 0
M  V30 7769 C 746.578 1.4702 1.37794 0
M  V30 7770 O 745.634 1.32361 2.15027 0
M  V30 7771 C 746.947 2.93453 -0.656167 0
M  V30 7772 C 748.495 3.06824 -0.618715 0
M  V30 7773 C 748.97 4.4365 -1.13747 0
M  V30 7774 N 750.461 4.50035 -1.09646 0
M  V30 7775 C 751.196 5.54278 -1.46846 0
M  V30 7776 N 750.692 6.65822 -1.91448 0
M  V30 7777 N 752.485 5.44767 -1.38512 0
M  V30 7778 H 744.636 1.56853 -1.43216 0
M  V30 7779 H 746.899 0.740712 -0.59165 0
M  V30 7780 H 746.605 3.07802 -1.7015 0
M  V30 7781 H 746.479 3.77082 -0.0942261 0
M  V30 7782 H 748.866 2.92129 0.417685 0
M  V30 7783 H 748.947 2.24976 -1.21734 0
M  V30 7784 H 748.591 4.59093 -2.17245 0
M  V30 7785 H 748.521 5.24074 -0.515153 0
M  V30 7786 H 751.012 3.69988 -0.769217 0
M  V30 7787 H 751.325 7.41413 -2.18007 0
M  V30 7788 H 749.67 6.66968 -1.95393 0
M  V30 7789 H 752.861 4.56511 -1.03516 0
M  V30 7790 H 753.034 6.25889 -1.6783 0
M  V30 7791 N 746.441 0.193421 1.56409 0
M  V30 7792 C 747.718 -0.493318 1.89277 0
M  V30 7793 C 748.098 -1.79765 1.10669 0
M  V30 7794 O 747.446 -2.27558 0.207274 0
M  V30 7795 C 747.656 -0.713732 3.41624 0
M  V30 7796 C 749.004 -1.03385 4.11821 0
M  V30 7797 O 750.028 -0.801511 3.47065 0
M  V30 7798 O 748.887 -1.47327 5.26267 0
M  V30 7799 H 745.981 -0.256973 0.786062 0
M  V30 7800 H 748.527 0.23351 1.68086 0
M  V30 7801 H 747.299 0.207446 3.9075 0
M  V30 7802 H 746.922 -1.49308 3.68501 0
M  V30 7803 N 747.919 -1.57396 -0.0801906 0
M  V30 7804 C 748.829 -2.06451 -1.11423 0
M  V30 7805 C 749.845 -0.992352 -1.42928 0
M  V30 7806 O 751.021 -1.30651 -1.53272 0
M  V30 7807 C 748.086 -2.49164 -2.41077 0
M  V30 7808 C 747.147 -3.70641 -2.16619 0
M  V30 7809 C 746.38 -4.11307 -3.40092 0
M  V30 7810 O 746.603 -3.51922 -4.48895 0
M  V30 7811 O 745.537 -5.04157 -3.288 0
M  V30 7812 H 749.363 -2.94857 -0.727519 0
M  V30 7813 H 746.948 -1.46484 -0.293743 0
M  V30 7814 H 748.83 -2.77196 -3.17396 0
M  V30 7815 H 747.505 -1.6389 -2.79145 0
M  V30 7816 H 746.412 -3.47703 -1.38033 0
M  V30 7817 H 747.745 -4.5674 -1.83437 0
M  V30 7818 N 749.397 0.351382 -1.53633 0
M  V30 7819 C 750.36 1.41403 -1.80383 0
M  V30 7820 C 751.36 1.45963 -0.674635 0
M  V30 7821 O 752.55 1.46476 -0.942895 0
M  V30 7822 C 749.682 2.80401 -1.93876 0
M  V30 7823 H 750.875 1.18951 -2.75301 0
M  V30 7824 H 748.428 0.58533 -1.44926 0
M  V30 7825 H 749.163 3.08147 -1.01074 0
M  V30 7826 H 748.948 2.78488 -2.7602 0
M  V30 7827 H 750.438 3.57329 -2.16116 0
M  V30 7828 N 750.875 1.45233 0.611969 0
M  V30 7829 C 752.124 1.48296 1.36716 0
M  V30 7830 C 752.437 0.12706 1.95187 0
M  V30 7831 O 753.643 0.0353066 2.71477 0
M  V30 7832 C 752.099 2.61168 2.47627 0
M  V30 7833 C 751.707 4.03051 1.95587 0
M  V30 7834 C 753.451 2.73472 3.24674 0
M  V30 7835 C 751.358 5.07312 3.03954 0
M  V30 7836 H 750.288 0.5518 0.513841 0
M  V30 7837 H 752.939 1.7136 0.656359 0
M  V30 7838 H 751.321 2.31379 3.21372 0
M  V30 7839 H 752.495 4.42497 1.2858 0
M  V30 7840 H 750.81 3.95158 1.31298 0
M  V30 7841 H 753.407 3.48537 4.05494 0
M  V30 7842 H 753.75 1.79953 3.75397 0
M  V30 7843 H 754.283 3.02765 2.58028 0
M  V30 7844 H 751.022 6.02525 2.58154 0
M  V30 7845 H 750.542 4.7244 3.69541 0
M  V30 7846 H 752.221 5.31867 3.6841 0
M  V30 7847 N 752.353 -0.854086 1.3245 0
M  V30 7848 C 753.301 -1.98411 1.21391 0
M  V30 7849 C 754.295 -1.68984 0.118586 0
M  V30 7850 O 755.501 -1.77784 0.281549 0
M  V30 7851 H 751.876 -0.651077 0.376301 0
M  V30 7852 H 753.847 -2.04867 2.16961 0
M  V30 7853 C 752.596 -3.34345 0.954407 0
M  V30 7854 H 751.919 -3.57518 1.78944 0
M  V30 7855 H 753.359 -4.13959 0.917269 0
M  V30 7856 C 751.818 -3.35151 -0.342838 0
M  V30 7857 O 752.348 -3.78174 -1.35452 0
M  V30 7858 N 750.554 -2.88298 -0.365012 0
M  V30 7859 H 750.101 -2.53481 0.4588 0
M  V30 7860 H 750.059 -2.8922 -1.23284 0
M  V30 7861 N 753.831 -1.1567 -1.07043 0
M  V30 7862 C 754.779 -0.852204 -2.16426 0
M  V30 7863 C 755.773 0.175661 -1.68487 0
M  V30 7864 O 756.979 0.0303874 -1.79974 0
M  V30 7865 H 753.354 -0.257942 -0.706378 0
M  V30 7866 H 755.325 -1.78231 -2.39324 0
M  V30 7867 C 754.074 -0.361362 -3.45817 0
M  V30 7868 H 753.397 -1.14369 -3.83092 0
M  V30 7869 H 754.837 -0.186997 -4.23587 0
M  V30 7870 C 753.296 0.917703 -3.2416 0
M  V30 7871 O 753.826 1.98858 -3.49025 0
M  V30 7872 N 752.032 0.858456 -2.77631 0
M  V30 7873 H 751.579 -0.0131821 -2.57597 0
M  V30 7874 H 751.537 1.71478 -2.6352 0
M  V30 7875 N 755.309 1.25446 -0.953992 0
M  V30 7876 C 756.725 1.4539 -0.658316 0
M  V30 7877 C 756.925 1.85607 0.784356 0
M  V30 7878 O 755.981 1.98568 1.55972 0
M  V30 7879 C 757.294 2.52643 -1.6307 0
M  V30 7880 C 758.842 2.66484 -1.64181 0
M  V30 7881 C 759.317 3.76921 -2.60182 0
M  V30 7882 N 760.808 3.84331 -2.58542 0
M  V30 7883 C 761.543 4.69271 -3.29503 0
M  V30 7884 N 761.039 5.58503 -4.09934 0
M  V30 7885 N 762.832 4.6323 -3.18393 0
M  V30 7886 H 754.983 0.976337 -1.8863 0
M  V30 7887 H 757.246 0.490343 -0.811337 0
M  V30 7888 H 756.952 2.29949 -2.66114 0
M  V30 7889 H 756.826 3.50547 -1.39271 0
M  V30 7890 H 759.213 2.88545 -0.618552 0
M  V30 7891 H 759.294 1.68982 -1.92038 0
M  V30 7892 H 758.938 3.55612 -3.62633 0
M  V30 7893 H 758.868 4.73906 -2.29609 0
M  V30 7894 H 761.359 3.20544 -2.0015 0
M  V30 7895 H 761.672 6.20241 -4.61 0
M  V30 7896 H 760.017 5.58214 -4.14032 0
M  V30 7897 H 763.208 3.92527 -2.5503 0
M  V30 7898 H 763.381 5.29204 -3.73961 0
M  V30 7899 N 756.787 0.722489 1.40064 0
M  V30 7900 C 758.036 0.261932 1.99992 0
M  V30 7901 C 758.349 -1.15358 1.57961 0
M  V30 7902 O 759.555 -1.71301 2.10637 0
M  V30 7903 C 758.011 0.41737 3.57472 0
M  V30 7904 C 757.619 1.83997 4.08472 0
M  V30 7905 C 759.363 0.0179561 4.24496 0
M  V30 7906 C 757.27 1.94563 5.5848 0
M  V30 7907 H 756.2 0.0941768 0.748095 0
M  V30 7908 H 758.851 0.894572 1.60218 0
M  V30 7909 H 757.233 -0.283965 3.94981 0
M  V30 7910 H 758.407 2.57224 3.82325 0
M  V30 7911 H 756.722 2.19147 3.54067 0
M  V30 7912 H 759.319 0.076085 5.34646 0
M  V30 7913 H 759.662 -1.02498 4.03485 0
M  V30 7914 H 760.195 0.669988 3.92117 0
M  V30 7915 H 756.934 2.97001 5.84355 0
M  V30 7916 H 756.454 1.25756 5.86469 0
M  V30 7917 H 758.133 1.72095 6.23692 0
M  V30 7918 N 758.265 -1.50454 0.469181 0
M  V30 7919 C 759.212 -2.28486 -0.325982 0
M  V30 7920 C 760.182 -1.33455 -0.988893 0
M  V30 7921 O 761.367 -1.6239 -1.0017 0
M  V30 7922 C 758.507 -3.15288 -1.40313 0
M  V30 7923 C 757.62 -4.25348 -0.755183 0
M  V30 7924 C 756.755 -4.9941 -1.81006 0
M  V30 7925 C 755.794 -6.01348 -1.14226 0
M  V30 7926 N 754.931 -6.68695 -2.1399 0
M  V30 7927 H 759.771 -2.95987 0.345753 0
M  V30 7928 H 757.308 -1.45965 0.182355 0
M  V30 7929 H 759.266 -3.63964 -2.03927 0
M  V30 7930 H 757.896 -2.49837 -2.04405 0
M  V30 7931 H 756.948 -3.80399 -0.00651901 0
M  V30 7932 H 758.26 -4.98279 -0.227941 0
M  V30 7933 H 757.414 -5.51794 -2.52206 0
M  V30 7934 H 756.153 -4.26181 -2.3711 0
M  V30 7935 H 755.158 -5.48225 -0.415876 0
M  V30 7936 H 756.383 -6.76548 -0.588135 0
M  V30 7937 H 754.329 -5.98258 -2.69115 0
M  V30 7938 H 754.246 -7.37495 -1.66246 0
M  V30 7939 H 755.514 -7.25697 -2.84576 0
M  V30 7940 N 759.743 -0.201713 -1.56304 0
M  V30 7941 C 760.992 0.435557 -1.96941 0
M  V30 7942 C 761.305 1.62299 -1.09172 0
M  V30 7943 O 762.511 2.32849 -1.3962 0
M  V30 7944 C 760.967 0.826298 -3.50286 0
M  V30 7945 C 760.575 -0.337216 -4.46729 0
M  V30 7946 C 762.319 1.43028 -3.99679 0
M  V30 7947 C 760.226 0.0748539 -5.91353 0
M  V30 7948 H 759.156 0.1665 -0.735387 0
M  V30 7949 H 761.807 -0.294781 -1.81117 0
M  V30 7950 H 760.189 1.61349 -3.61639 0
M  V30 7951 H 761.363 -1.11476 -4.47113 0
M  V30 7952 H 759.678 -0.853126 -4.07567 0
M  V30 7953 H 762.275 1.75115 -5.05212 0
M  V30 7954 H 762.618 2.33911 -3.44371 0
M  V30 7955 H 763.151 0.706924 -3.91468 0
M  V30 7956 H 759.89 -0.799957 -6.506 0
M  V30 7957 H 759.41 0.817122 -5.94208 0
M  V30 7958 H 761.089 0.508389 -6.45 0
M  V30 7959 N 761.222 1.57436 0.0718424 0
M  V30 7960 C 762.17 2.04725 1.10411 0
M  V30 7961 C 763.164 0.952579 1.4008 0
M  V30 7962 O 764.37 1.13769 1.39487 0
M  V30 7963 H 760.745 0.652749 0.373393 0
M  V30 7964 H 762.716 2.90569 0.679126 0
M  V30 7965 C 761.465 2.5068 2.40946 0
M  V30 7966 H 760.788 3.34505 2.18967 0
M  V30 7967 H 762.228 2.87521 3.11621 0
M  V30 7968 C 760.687 1.38971 3.06902 0
M  V30 7969 O 761.217 0.731786 3.94978 0
M  V30 7970 N 759.423 1.13485 2.67525 0
M  V30 7971 H 758.97 1.67168 1.95991 0
M  V30 7972 H 758.928 0.389467 3.11978 0
M  V30 7973 N 762.7 -0.34323 1.53817 0
M  V30 7974 C 764.111 -0.918823 1.62525 0
M  V30 7975 C 764.462 -1.89542 0.506765 0
M  V30 7976 O 763.587 -2.13326 -0.363441 0
M  V30 7977 C 764.182 -1.67326 2.94597 0
M  V30 7978 C 762.741 -2.19786 3.05567 0
M  V30 7979 C 761.888 -1.01708 2.57974 0
M  V30 7980 H 764.839 -0.121358 1.58235 0
M  V30 7981 H 764.86 -2.53615 2.83654 0
M  V30 7982 H 764.372 -0.962223 3.75983 0
M  V30 7983 H 762.473 -2.94065 2.28816 0
M  V30 7984 H 762.586 -2.46135 4.1104 0
M  V30 7985 H 760.95 -1.39058 2.13389 0
M  V30 7986 H 761.733 -0.320671 3.41799 0
M  V30 7987 N 764.178 -1.45556 -0.604258 0
M  V30 7988 C 765.424 -1.49968 -1.36519 0
M  V30 7989 C 765.757 -0.142236 -1.93678 0
M  V30 7990 O 765.032 0.843717 -1.75247 0
M  V30 7991 C 765.315 -2.58146 -2.51063 0
M  V30 7992 C 765.168 -4.03346 -1.99078 0
M  V30 7993 C 766.487 -2.62581 -3.53184 0
M  V30 7994 H 763.606 -0.545993 -0.495036 0
M  V30 7995 H 766.248 -1.77382 -0.680845 0
M  V30 7996 H 764.398 -2.34901 -3.09441 0
M  V30 7997 H 766.07 -4.37811 -1.45323 0
M  V30 7998 H 764.313 -4.13845 -1.30055 0
M  V30 7999 H 764.984 -4.74731 -2.81664 0
M  V30 8000 H 767.46 -2.83419 -3.04652 0
M  V30 8001 H 766.336 -3.40131 -4.30816 0
M  V30 8002 H 766.597 -1.67798 -4.09019 0
M  V30 8003 N 765.656 0.84705 -1.32902 0
M  V30 8004 C 766.884 1.63403 -1.26913 0
M  V30 8005 C 767.299 1.88108 0.161483 0
M  V30 8006 O 766.656 1.45546 1.10103 0
M  V30 8007 C 766.707 2.98896 -2.03331 0
M  V30 8008 O 766.428 2.75281 -3.40811 0
M  V30 8009 C 767.929 3.93335 -2.04457 0
M  V30 8010 H 765.149 0.508701 -0.437566 0
M  V30 8011 H 767.693 1.05567 -1.75145 0
M  V30 8012 H 765.848 3.53356 -1.58802 0
M  V30 8013 H 766.262 3.61504 -3.8002 0
M  V30 8014 H 767.736 4.85647 -2.62394 0
M  V30 8015 H 768.213 4.26885 -1.03274 0
M  V30 8016 H 768.819 3.44812 -2.48967 0
M  V30 8017 N 767.134 1.16236 1.06428 0
M  V30 8018 C 768.064 0.890807 2.1584 0
M  V30 8019 C 769.045 -0.162333 1.69324 0
M  V30 8020 O 770.23 -0.0147191 1.94194 0
M  V30 8021 C 767.36 0.389615 3.45108 0
M  V30 8022 C 766.314 1.38051 4.05125 0
M  V30 8023 C 765.64 0.737773 5.29586 0
M  V30 8024 C 766.94 2.74965 4.44062 0
M  V30 8025 H 768.634 1.80577 2.38814 0
M  V30 8026 H 766.18 0.869657 1.14774 0
M  V30 8027 H 768.133 0.187127 4.20984 0
M  V30 8028 H 766.857 -0.560851 3.21748 0
M  V30 8029 H 765.516 1.56952 3.31303 0
M  V30 8030 H 765.164 -0.219135 5.02522 0
M  V30 8031 H 764.864 1.39914 5.70699 0
M  V30 8032 H 766.388 0.545275 6.0816 0
M  V30 8033 H 767.802 2.59855 5.11027 0
M  V30 8034 H 766.199 3.37563 4.96156 0
M  V30 8035 H 767.269 3.30321 3.54987 0
M  V30 8036 N 768.612 -1.24939 0.960631 0
M  V30 8037 C 769.84 -1.96881 0.636045 0
M  V30 8038 C 770.255 -1.71334 -0.793093 0
M  V30 8039 O 769.612 -0.992917 -1.53125 0
M  V30 8040 C 769.663 -3.50309 0.892533 0
M  V30 8041 O 769.384 -3.74977 2.26548 0
M  V30 8042 C 770.885 -4.39474 0.581159 0
M  V30 8043 H 768.105 -0.627399 0.237931 0
M  V30 8044 H 770.649 -1.58952 1.28664 0
M  V30 8045 H 768.804 -3.86326 0.288257 0
M  V30 8046 H 769.218 -4.69401 2.34014 0
M  V30 8047 H 770.692 -5.46008 0.811125 0
M  V30 8048 H 771.169 -4.3652 -0.48443 0
M  V30 8049 H 771.775 -4.09032 1.16502 0
M  V30 8050 N 770.09 -0.729906 -1.39679 0
M  V30 8051 C 771.023 -0.0354454 -2.28172 0
M  V30 8052 C 772.001 0.752968 -1.44115 0
M  V30 8053 O 773.185 0.736599 -1.73512 0
M  V30 8054 C 770.312 0.957047 -3.24897 0
M  V30 8055 C 769.358 0.257734 -4.25721 0
M  V30 8056 S 770.191 -1.02466 -5.25605 0
M  V30 8057 C 771.347 -0.0346322 -6.2589 0
M  V30 8058 H 771.58 -0.785922 -2.86724 0
M  V30 8059 H 769.113 -0.521497 -1.45326 0
M  V30 8060 H 771.071 1.52441 -3.81146 0
M  V30 8061 H 769.732 1.68033 -2.65375 0
M  V30 8062 H 768.925 1.00854 -4.93806 0
M  V30 8063 H 768.527 -0.237454 -3.73245 0
M  V30 8064 H 770.819 0.807464 -6.72671 0
M  V30 8065 H 771.762 -0.682491 -7.04803 0
M  V30 8066 H 772.17 0.335492 -5.63502 0
M  V30 8067 N 771.568 1.50203 -0.477153 0
M  V30 8068 C 772.816 2.01959 0.0755889 0
M  V30 8069 C 773.137 1.3608 1.39668 0
M  V30 8070 O 772.407 0.508136 1.89195 0
M  V30 8071 H 770.987 0.74636 0.0309248 0
M  V30 8072 H 773.649 1.84473 -0.628959 0
M  V30 8073 H 772.745 3.11305 0.222683 0
M  V30 8074 N 773.046 0.209999 1.56195 0
M  V30 8075 C 774.276 -0.429373 2.02089 0
M  V30 8076 C 774.684 -1.54703 1.0892 0
M  V30 8077 O 774.027 -1.83485 0.0889535 0
M  V30 8078 C 774.089 -1.03266 3.44349 0
M  V30 8079 C 773.753 -0.0518873 4.56971 0
M  V30 8080 C 774.75 0.744249 5.14545 0
M  V30 8081 C 772.435 0.0635185 5.0226 0
M  V30 8082 C 774.429 1.64261 6.15871 0
M  V30 8083 C 772.116 0.965423 6.03426 0
M  V30 8084 C 773.114 1.75352 6.60106 0
M  V30 8085 O 772.802 2.64029 7.59305 0
M  V30 8086 H 772.534 -0.110604 0.66689 0
M  V30 8087 H 775.088 0.320436 2.02885 0
M  V30 8088 H 773.318 -1.83134 3.40586 0
M  V30 8089 H 775.007 -1.57823 3.73961 0
M  V30 8090 H 775.773 0.665476 4.80413 0
M  V30 8091 H 771.652 -0.539762 4.57829 0
M  V30 8092 H 775.196 2.25819 6.60039 0
M  V30 8093 H 771.093 1.04526 6.36981 0
M  V30 8094 H 771.861 2.57974 7.76783 0
M  V30 8095 N 774.524 -1.57472 -0.0634922 0
M  V30 8096 C 775.471 -2.04258 -1.07457 0
M  V30 8097 C 776.441 -0.924804 -1.37973 0
M  V30 8098 O 777.626 -1.19305 -1.48899 0
M  V30 8099 C 774.766 -2.49832 -2.38071 0
M  V30 8100 C 773.879 -3.75263 -2.14014 0
M  V30 8101 C 773.014 -4.09585 -3.38251 0
M  V30 8102 C 772.053 -5.28032 -3.09594 0
M  V30 8103 N 771.19 -5.57953 -4.26185 0
M  V30 8104 H 776.03 -2.90402 -0.668626 0
M  V30 8105 H 773.567 -1.43609 -0.318572 0
M  V30 8106 H 775.525 -2.7431 -3.14341 0
M  V30 8107 H 774.155 -1.66654 -2.76453 0
M  V30 8108 H 773.207 -3.58075 -1.28399 0
M  V30 8109 H 774.519 -4.61667 -1.88852 0
M  V30 8110 H 773.673 -4.35008 -4.2291 0
M  V30 8111 H 772.412 -3.21765 -3.66495 0
M  V30 8112 H 771.417 -5.02397 -2.23332 0
M  V30 8113 H 772.642 -6.17477 -2.82663 0
M  V30 8114 H 770.588 -4.73092 -4.54445 0
M  V30 8115 H 770.505 -6.38793 -4.04326 0
M  V30 8116 H 771.773 -5.87931 -5.11817 0
M  V30 8117 N 776.003 0.335068 -1.53997 0
M  V30 8118 C 777.28 1.09188 -1.62288 0
M  V30 8119 C 777.66 2.0626 -0.449458 0
M  V30 8120 O 777.008 2.21596 0.557444 0
M  V30 8121 C 777.218 1.80403 -2.98757 0
M  V30 8122 C 778.566 2.33841 -3.54406 0
M  V30 8123 O 779.59 1.90487 -3.00987 0
M  V30 8124 O 778.449 3.1318 -4.47862 0
M  V30 8125 H 775.543 0.502621 -0.656736 0
M  V30 8126 H 778.089 0.33588 -1.66343 0
M  V30 8127 H 776.861 1.09732 -3.75599 0
M  V30 8128 H 776.484 2.62841 -2.9833 0
M  V30 8129 N 777.481 1.45874 0.596531 0
M  V30 8130 C 778.73 1.49737 1.35135 0
M  V30 8131 C 779.043 0.147755 1.95041 0
M  V30 8132 O 780.249 0.0640984 2.71424 0
M  V30 8133 C 778.705 2.6378 2.44843 0
M  V30 8134 C 778.313 4.05102 1.91301 0
M  V30 8135 C 780.057 2.769 3.21755 0
M  V30 8136 C 777.964 5.10508 2.98557 0
M  V30 8137 H 776.894 0.557219 0.507959 0
M  V30 8138 H 779.545 1.72046 0.638147 0
M  V30 8139 H 777.927 2.34774 3.189 0
M  V30 8140 H 779.101 4.43836 1.2388 0
M  V30 8141 H 777.416 3.96528 1.271 0
M  V30 8142 H 780.013 3.52819 4.01775 0
M  V30 8143 H 780.356 1.83924 3.73467 0
M  V30 8144 H 780.889 3.05485 2.54802 0
M  V30 8145 H 777.628 6.0523 2.51749 0
M  V30 8146 H 777.148 4.76332 3.6451 0
M  V30 8147 H 778.827 5.35745 3.62748 0
M  V30 8148 N 778.959 -0.83999 1.33349 0
M  V30 8149 C 780.208 -1.59011 1.2409 0
M  V30 8150 C 780.521 -1.94655 -0.192029 0
M  V30 8151 O 781.727 -2.68438 -0.406617 0
M  V30 8152 C 780.183 -2.86801 2.17425 0
M  V30 8153 C 779.791 -2.58525 3.65881 0
M  V30 8154 C 781.535 -3.64823 2.17036 0
M  V30 8155 C 779.442 -3.82404 4.51133 0
M  V30 8156 H 778.372 -0.596731 0.460899 0
M  V30 8157 H 781.023 -0.926274 1.58406 0
M  V30 8158 H 779.405 -3.54719 1.7604 0
M  V30 8159 H 780.579 -1.98824 4.15699 0
M  V30 8160 H 778.894 -1.93808 3.68548 0
M  V30 8161 H 781.491 -4.56774 2.7796 0
M  V30 8162 H 781.834 -3.99663 1.16513 0
M  V30 8163 H 782.367 -3.03826 2.56777 0
M  V30 8164 H 779.106 -3.52696 5.52527 0
M  V30 8165 H 778.626 -4.41447 4.0606 0
M  V30 8166 H 780.305 -4.49995 4.6488 0
M  V30 8167 N 780.437 -1.16799 -1.0581 0
M  V30 8168 C 781.367 -0.902241 -2.15364 0
M  V30 8169 C 782.348 0.153351 -1.69407 0
M  V30 8170 O 783.533 0.00442032 -1.94199 0
M  V30 8171 C 780.663 -0.407911 -3.44896 0
M  V30 8172 C 779.617 -1.40197 -4.04387 0
M  V30 8173 C 778.943 -0.765848 -5.29187 0
M  V30 8174 C 780.243 -2.77316 -4.42598 0
M  V30 8175 H 781.937 -1.81841 -2.37853 0
M  V30 8176 H 779.483 -0.875731 -1.14311 0
M  V30 8177 H 781.436 -0.20945 -4.20879 0
M  V30 8178 H 780.16 0.54378 -3.22041 0
M  V30 8179 H 778.819 -1.58707 -3.30466 0
M  V30 8180 H 778.467 0.192482 -5.02632 0
M  V30 8181 H 778.167 -1.42939 -5.69949 0
M  V30 8182 H 779.691 -0.577519 -6.07863 0
M  V30 8183 H 781.105 -2.62561 -5.09642 0
M  V30 8184 H 779.502 -3.4019 -4.94359 0
M  V30 8185 H 780.572 -3.32199 -3.53231 0
M  V30 8186 N 781.915 1.24427 -0.967243 0
M  V30 8187 C 783.161 1.93089 -0.639404 0
M  V30 8188 C 783.516 1.7422 0.816407 0
M  V30 8189 O 782.809 1.08435 1.57964 0
M  V30 8190 C 783.003 3.44568 -0.949096 0
M  V30 8191 C 782.832 3.7817 -2.43346 0
M  V30 8192 C 781.602 3.99561 -3.09321 0
M  V30 8193 C 783.8 3.84687 -3.41351 0
M  V30 8194 N 781.782 4.20259 -4.475 0
M  V30 8195 C 783.153 4.10223 -4.64884 0
M  V30 8196 C 785.208 3.67421 -3.36015 0
M  V30 8197 C 783.911 4.20286 -5.8374 0
M  V30 8198 C 785.937 3.78731 -4.54221 0
M  V30 8199 C 785.299 4.04691 -5.76545 0
M  V30 8200 H 781.398 0.728291 -0.284809 0
M  V30 8201 H 783.982 1.49941 -1.24201 0
M  V30 8202 H 782.153 3.86582 -0.375308 0
M  V30 8203 H 783.885 4.00524 -0.579876 0
M  V30 8204 H 780.64 3.95946 -2.59853 0
M  V30 8205 H 781.064 4.34588 -5.19097 0
M  V30 8206 H 785.706 3.46358 -2.42479 0
M  V30 8207 H 783.424 4.40162 -6.77704 0
M  V30 8208 H 787.01 3.66743 -4.51653 0
M  V30 8209 H 785.89 4.1324 -6.66485 0
M  V30 8210 N 783.393 0.737304 1.3929 0
M  V30 8211 C 784.642 0.283129 1.99703 0
M  V30 8212 C 784.955 -1.13677 1.59176 0
M  V30 8213 O 786.161 -1.69058 2.12442 0
M  V30 8214 C 784.617 0.455262 3.57009 0
M  V30 8215 C 784.225 1.88319 4.06497 0
M  V30 8216 C 785.969 0.0629786 4.24453 0
M  V30 8217 C 783.876 2.00475 5.56385 0
M  V30 8218 H 782.806 0.102106 0.747054 0
M  V30 8219 H 785.457 0.911515 1.5926 0
M  V30 8220 H 783.839 -0.242057 3.9526 0
M  V30 8221 H 785.013 2.61265 3.79575 0
M  V30 8222 H 783.328 2.2289 3.51723 0
M  V30 8223 H 785.925 0.132787 5.34535 0
M  V30 8224 H 786.268 -0.982128 4.04549 0
M  V30 8225 H 786.801 0.71154 3.91385 0
M  V30 8226 H 783.54 3.03182 5.81172 0
M  V30 8227 H 783.06 1.31969 5.85102 0
M  V30 8228 H 784.739 1.787 6.21832 0
M  V30 8229 N 784.871 -1.49948 0.485112 0
M  V30 8230 C 786.096 -2.073 -0.0645059 0
M  V30 8231 C 786.521 -1.345 -1.31497 0
M  V30 8232 O 785.879 -0.39687 -1.76903 0
M  V30 8233 C 785.927 -3.59201 -0.317304 0
M  V30 8234 O 785.031 -3.88085 -1.39514 0
M  V30 8235 H 784.372 -0.663723 0.0191822 0
M  V30 8236 H 786.902 -1.92963 0.680179 0
M  V30 8237 H 786.912 -4.04227 -0.553604 0
M  V30 8238 H 785.587 -4.11602 0.596387 0
M  V30 8239 H 784.164 -3.54885 -1.14504 0
M  V30 8240 N 786.349 -0.21828 -1.56081 0
M  V30 8241 C 787.596 0.414307 -1.98216 0
M  V30 8242 C 787.924 1.60005 -1.10584 0
M  V30 8243 O 787.179 1.95124 -0.150043 0
M  V30 8244 C 787.478 0.894782 -3.46018 0
M  V30 8245 C 787.144 -0.180083 -4.5054 0
M  V30 8246 C 785.806 -0.475367 -4.78846 0
M  V30 8247 C 788.158 -0.907191 -5.13244 0
M  V30 8248 C 785.486 -1.50233 -5.67139 0
M  V30 8249 C 787.838 -1.92347 -6.02649 0
M  V30 8250 C 786.502 -2.22571 -6.293 0
M  V30 8251 H 785.772 0.151606 -0.725325 0
M  V30 8252 H 788.419 -0.320113 -1.88806 0
M  V30 8253 H 786.724 1.7079 -3.52616 0
M  V30 8254 H 788.421 1.39403 -3.75989 0
M  V30 8255 H 785.011 0.06022 -4.28558 0
M  V30 8256 H 789.195 -0.692303 -4.91448 0
M  V30 8257 H 784.451 -1.74215 -5.86054 0
M  V30 8258 H 788.625 -2.49197 -6.50288 0
M  V30 8259 H 786.252 -3.0229 -6.97513 0
M  V30 8260 N 787.827 1.57504 0.0551401 0
M  V30 8261 C 789.052 1.92682 0.767352 0
M  V30 8262 C 789.477 0.81614 1.69472 0
M  V30 8263 O 788.835 -0.229989 1.79835 0
M  V30 8264 C 788.883 3.26866 1.52286 0
M  V30 8265 O 787.987 3.17274 2.63459 0
M  V30 8266 H 787.328 0.630502 0.208238 0
M  V30 8267 H 789.858 2.04592 0.0184026 0
M  V30 8268 H 789.868 3.61138 1.8985 0
M  V30 8269 H 788.543 4.07276 0.842541 0
M  V30 8270 H 787.12 2.94589 2.2863 0
M  V30 8271 N 789.305 -0.326896 1.54172 0
M  V30 8272 C 790.238 -1.42591 1.78166 0
M  V30 8273 C 791.216 -1.49837 0.631484 0
M  V30 8274 O 792.4 -1.67298 0.868544 0
M  V30 8275 C 789.527 -2.8071 1.89524 0
M  V30 8276 C 788.573 -2.91012 3.11792 0
M  V30 8277 S 789.406 -2.55763 4.70474 0
M  V30 8278 C 790.562 -3.9596 4.84733 0
M  V30 8279 H 790.795 -1.22024 2.71104 0
M  V30 8280 H 788.328 -0.523539 1.45253 0
M  V30 8281 H 790.286 -3.60276 1.96753 0
M  V30 8282 H 788.947 -2.98562 0.975696 0
M  V30 8283 H 788.14 -3.92258 3.16464 0
M  V30 8284 H 787.742 -2.19414 3.02876 0
M  V30 8285 H 790.034 -4.90676 4.67166 0
M  V30 8286 H 790.977 -3.96273 5.86833 0
M  V30 8287 H 791.385 -3.8476 4.13062 0
M  V30 8288 N 790.784 -1.46188 -0.588786 0
M  V30 8289 C 792.009 -1.5498 -1.37826 0
M  V30 8290 C 792.434 -0.189498 -1.87143 0
M  V30 8291 O 791.792 0.829293 -1.61222 0
M  V30 8292 C 791.84 -2.55369 -2.54596 0
M  V30 8293 O 790.944 -2.08452 -3.55839 0
M  V30 8294 H 790.285 -0.521741 -0.41071 0
M  V30 8295 H 792.815 -1.91708 -0.714779 0
M  V30 8296 H 792.825 -2.74782 -3.01594 0
M  V30 8297 H 791.5 -3.54155 -2.18052 0
M  V30 8298 H 790.077 -1.98999 -3.15363 0
M  V30 8299 N 792.262 0.832906 -1.33792 0
M  V30 8300 C 793.502 1.60217 -1.26925 0
M  V30 8301 C 793.866 1.91323 0.161146 0
M  V30 8302 O 795.067 2.66461 0.353864 0
M  V30 8303 C 793.338 2.87314 -2.12568 0
M  V30 8304 S 794.897 3.77939 -2.22952 0
M  V30 8305 H 791.715 0.549273 -0.451464 0
M  V30 8306 H 794.317 0.984648 -1.68893 0
M  V30 8307 H 793.021 2.62444 -3.15518 0
M  V30 8308 H 792.552 3.5407 -1.71459 0
M  V30 8309 H 794.567 4.76188 -1.39496 0
M  V30 8310 N 793.74 1.17359 1.05189 0
M  V30 8311 C 794.987 0.961987 1.78191 0
M  V30 8312 C 795.315 -0.509363 1.87712 0
M  V30 8313 O 794.57 -1.39425 1.37329 0
M  V30 8314 C 794.869 1.54821 3.22126 0
M  V30 8315 C 794.535 3.04378 3.32663 0
M  V30 8316 C 793.197 3.45201 3.35246 0
M  V30 8317 C 795.549 4.00387 3.33677 0
M  V30 8318 C 792.877 4.80629 3.36471 0
M  V30 8319 C 795.229 5.35715 3.36441 0
M  V30 8320 C 793.893 5.76002 3.37311 0
M  V30 8321 H 793.163 0.352016 0.652047 0
M  V30 8322 H 795.81 1.46249 1.23627 0
M  V30 8323 H 794.115 0.969432 3.79617 0
M  V30 8324 H 795.812 1.36004 3.77232 0
M  V30 8325 H 792.402 2.71836 3.31366 0
M  V30 8326 H 796.586 3.69906 3.30882 0
M  V30 8327 H 791.842 5.11155 3.35455 0
M  V30 8328 H 796.016 6.09886 3.36173 0
M  V30 8329 H 793.643 6.80919 3.38013 0
M  V30 8330 N 795.218 -1.23913 0.973828 0
M  V30 8331 C 796.464 -1.92436 0.640026 0
M  V30 8332 C 796.797 -1.75875 -0.823512 0
M  V30 8333 O 796.072 -1.11563 -1.59323 0
M  V30 8334 C 796.355 -3.4526 1.0231 0
M  V30 8335 C 796.208 -3.70961 2.54378 0
M  V30 8336 C 797.527 -4.36495 0.562155 0
M  V30 8337 H 794.646 -0.698868 0.233992 0
M  V30 8338 H 797.288 -1.46163 1.21393 0
M  V30 8339 H 795.438 -3.84802 0.534751 0
M  V30 8340 H 797.11 -3.40941 3.10737 0
M  V30 8341 H 795.353 -3.15899 2.97305 0
M  V30 8342 H 796.024 -4.77912 2.76232 0
M  V30 8343 H 798.5 -4.04363 0.981333 0
M  V30 8344 H 797.376 -5.42142 0.858689 0
M  V30 8345 H 797.637 -4.38818 -0.537659 0
M  V30 8346 N 796.696 -0.74468 -1.38897 0
M  V30 8347 C 797.943 -0.296884 -2.00312 0
M  V30 8348 C 798.271 1.11878 -1.59102 0
M  V30 8349 O 797.526 1.7789 -0.815702 0
M  V30 8350 C 797.825 -0.357302 -3.55609 0
M  V30 8351 C 797.491 -1.72736 -4.16501 0
M  V30 8352 C 796.153 -2.10232 -4.32846 0
M  V30 8353 C 798.505 -2.62647 -4.50184 0
M  V30 8354 C 795.833 -3.3713 -4.80167 0
M  V30 8355 C 798.185 -3.88926 -4.98918 0
M  V30 8356 C 796.849 -4.26503 -5.1347 0
M  V30 8357 H 796.119 -0.108638 -0.732993 0
M  V30 8358 H 798.766 -0.953419 -1.66079 0
M  V30 8359 H 797.071 0.382805 -3.89925 0
M  V30 8360 H 798.768 0.0074596 -4.00999 0
M  V30 8361 H 795.358 -1.42585 -4.04187 0
M  V30 8362 H 799.542 -2.34945 -4.37166 0
M  V30 8363 H 794.798 -3.66174 -4.89619 0
M  V30 8364 H 798.972 -4.58745 -5.23952 0
M  V30 8365 H 796.599 -5.24896 -5.49898 0
M  V30 8366 N 798.174 1.49689 -0.493057 0
M  V30 8367 C 799.42 2.02727 0.0543518 0
M  V30 8368 C 799.753 1.37264 1.37376 0
M  V30 8369 O 799.028 0.505644 1.87812 0
M  V30 8370 C 799.311 3.59456 0.215226 0
M  V30 8371 C 799.164 4.35459 -1.12675 0
M  V30 8372 C 800.483 4.29511 0.959586 0
M  V30 8373 H 797.602 0.736773 0.0182786 0
M  V30 8374 H 800.244 1.78792 -0.642924 0
M  V30 8375 H 798.394 3.79981 0.809122 0
M  V30 8376 H 800.066 4.2645 -1.75891 0
M  V30 8377 H 798.309 3.9833 -1.71801 0
M  V30 8378 H 798.98 5.43454 -0.967578 0
M  V30 8379 H 801.456 4.13594 0.455977 0
M  V30 8380 H 800.332 5.38939 1.04098 0
M  V30 8381 H 800.593 3.94202 2.00144 0
M  V30 8382 N 799.652 0.226554 1.55963 0
M  V30 8383 C 800.615 -0.668015 2.19249 0
M  V30 8384 C 801.615 -1.11794 1.1558 0
M  V30 8385 O 802.805 -1.02593 1.40784 0
M  V30 8386 C 799.937 -1.91571 2.81981 0
M  V30 8387 H 801.13 -0.116175 2.99675 0
M  V30 8388 H 798.683 -0.0230497 1.56283 0
M  V30 8389 H 799.418 -2.50929 2.05439 0
M  V30 8390 H 799.203 -1.6015 3.57903 0
M  V30 8391 H 800.693 -2.55294 3.30477 0
M  V30 8392 N 801.13 -1.57531 -0.0467866 0
M  V30 8393 C 802.06 -2.08425 -1.05268 0
M  V30 8394 C 803.041 -0.982941 -1.38825 0
M  V30 8395 O 804.226 -1.25716 -1.48018 0
M  V30 8396 C 801.356 -2.54897 -2.35891 0
M  V30 8397 C 800.31 -3.69132 -2.16623 0
M  V30 8398 C 799.636 -4.01747 -3.52851 0
M  V30 8399 C 800.936 -4.98243 -1.56689 0
M  V30 8400 H 802.63 -2.92716 -0.62908 0
M  V30 8401 H 800.176 -1.40816 -0.301156 0
M  V30 8402 H 802.129 -2.8912 -3.06574 0
M  V30 8403 H 800.853 -1.67666 -2.80278 0
M  V30 8404 H 799.512 -3.35231 -1.48377 0
M  V30 8405 H 799.16 -3.11608 -3.94853 0
M  V30 8406 H 798.86 -4.78681 -3.4079 0
M  V30 8407 H 800.384 -4.38487 -4.24925 0
M  V30 8408 H 801.798 -5.30535 -2.17268 0
M  V30 8409 H 800.195 -5.79669 -1.55255 0
M  V30 8410 H 801.265 -4.81986 -0.530827 0
M  V30 8411 N 802.608 0.318715 -1.54344 0
M  V30 8412 C 803.857 1.05363 -1.71993 0
M  V30 8413 C 804.17 1.89018 -0.503155 0
M  V30 8414 O 805.376 2.65639 -0.561085 0
M  V30 8415 C 803.832 1.92281 -3.0423 0
M  V30 8416 C 803.44 1.13715 -4.33328 0
M  V30 8417 C 805.184 2.65479 -3.31242 0
M  V30 8418 C 803.091 1.99806 -5.56625 0
M  V30 8419 H 802.021 0.397081 -0.64097 0
M  V30 8420 H 804.672 0.311598 -1.80835 0
M  V30 8421 H 803.054 2.70402 -2.89307 0
M  V30 8422 H 804.228 0.403305 -4.59032 0
M  V30 8423 H 802.543 0.521769 -4.13118 0
M  V30 8424 H 805.14 3.30209 -4.20555 0
M  V30 8425 H 805.483 3.33374 -2.49334 0
M  V30 8426 H 806.016 1.94417 -3.47054 0
M  V30 8427 H 802.755 1.36411 -6.41149 0
M  V30 8428 H 802.275 2.70911 -5.35133 0
M  V30 8429 H 803.954 2.58277 -5.93213 0
M  V30 8430 N 804.086 1.46499 0.581025 0
M  V30 8431 C 805.016 1.60052 1.70017 0
M  V30 8432 C 805.997 0.450788 1.64018 0
M  V30 8433 O 807.182 0.677237 1.82009 0
M  V30 8434 C 804.312 1.5921 3.08658 0
M  V30 8435 C 803.266 2.73169 3.29488 0
M  V30 8436 C 802.592 2.57389 4.68674 0
M  V30 8437 C 803.892 4.14978 3.1716 0
M  V30 8438 H 805.586 2.53735 1.5893 0
M  V30 8439 H 803.132 1.22113 0.763173 0
M  V30 8440 H 805.085 1.67285 3.86773 0
M  V30 8441 H 803.809 0.620718 3.20647 0
M  V30 8442 H 802.468 2.64566 2.53773 0
M  V30 8443 H 802.116 1.58331 4.77431 0
M  V30 8444 H 801.816 3.33826 4.83564 0
M  V30 8445 H 803.34 2.67358 5.48956 0
M  V30 8446 H 804.754 4.24684 3.85119 0
M  V30 8447 H 803.151 4.92016 3.4357 0
M  V30 8448 H 804.221 4.35016 2.14218 0
M  V30 8449 N 805.565 -0.825799 1.34232 0
M  V30 8450 C 806.813 -1.57873 1.26177 0
M  V30 8451 C 807.134 -1.94267 -0.168904 0
M  V30 8452 O 806.404 -1.62045 -1.10084 0
M  V30 8453 H 804.984 -0.585388 0.464037 0
M  V30 8454 H 807.646 -0.986163 1.6811 0
M  V30 8455 H 806.742 -2.50283 1.86453 0
M  V30 8456 N 807.043 -1.17915 -1.04565 0
M  V30 8457 C 808.29 -0.971424 -1.77678 0
M  V30 8458 C 808.618 0.499401 -1.87979 0
M  V30 8459 O 807.873 1.38695 -1.38066 0
M  V30 8460 C 808.172 -1.56528 -3.213 0
M  V30 8461 C 807.838 -3.06138 -3.31044 0
M  V30 8462 C 806.5 -3.46974 -3.33411 0
M  V30 8463 C 808.852 -4.02151 -3.31548 0
M  V30 8464 C 806.18 -4.82406 -3.33918 0
M  V30 8465 C 808.532 -5.37492 -3.33595 0
M  V30 8466 C 807.196 -5.77782 -3.34251 0
M  V30 8467 H 806.466 -0.355469 -0.650171 0
M  V30 8468 H 809.113 -1.46902 -1.22849 0
M  V30 8469 H 807.418 -0.98955 -3.79098 0
M  V30 8470 H 809.115 -1.38003 -3.76505 0
M  V30 8471 H 805.705 -2.73589 -3.29919 0
M  V30 8472 H 809.889 -3.71656 -3.28916 0
M  V30 8473 H 805.145 -5.12927 -3.3274 0
M  V30 8474 H 809.319 -6.1166 -3.32934 0
M  V30 8475 H 806.946 -6.82702 -3.34397 0
M  V30 8476 N 808.521 1.23394 -0.980386 0
M  V30 8477 C 809.767 1.92094 -0.650223 0
M  V30 8478 C 810.1 1.76309 0.814173 0
M  V30 8479 O 809.375 1.12406 1.5873 0
M  V30 8480 C 809.658 3.44713 -1.04139 0
M  V30 8481 C 809.511 3.69606 -2.56342 0
M  V30 8482 C 810.83 4.36191 -0.585296 0
M  V30 8483 H 807.949 0.697618 -0.237695 0
M  V30 8484 H 810.591 1.45517 -1.22167 0
M  V30 8485 H 808.741 3.84513 -0.55515 0
M  V30 8486 H 810.413 3.39288 -3.1254 0
M  V30 8487 H 808.656 3.14318 -2.98976 0
M  V30 8488 H 809.327 4.76441 -2.78762 0
M  V30 8489 H 811.803 4.03836 -1.00276 0
M  V30 8490 H 810.679 5.41679 -0.887428 0
M  V30 8491 H 810.94 4.39097 0.51438 0
M  V30 8492 N 809.999 0.752036 1.385 0
M  V30 8493 C 810.929 0.138718 2.33088 0
M  V30 8494 C 811.91 -0.705318 1.54788 0
M  V30 8495 O 813.095 -0.646821 1.83112 0
M  V30 8496 C 810.225 -0.75641 3.38963 0
M  V30 8497 C 809.179 -0.0152239 4.27997 0
M  V30 8498 C 808.505 -1.0285 5.24715 0
M  V30 8499 C 809.805 1.15226 5.09431 0
M  V30 8500 H 811.499 0.928852 2.84627 0
M  V30 8501 H 809.045 0.448111 1.3685 0
M  V30 8502 H 810.998 -1.19513 4.04097 0
M  V30 8503 H 809.722 -1.57885 2.85902 0
M  V30 8504 H 808.381 0.404061 3.64366 0
M  V30 8505 H 808.029 -1.84496 4.67943 0
M  V30 8506 H 807.729 -0.537238 5.85139 0
M  V30 8507 H 809.253 -1.46657 5.92726 0
M  V30 8508 H 810.667 0.791161 5.67815 0
M  V30 8509 H 809.064 1.57428 5.79082 0
M  V30 8510 H 810.134 1.9659 4.43261 0
M  V30 8511 N 811.477 -1.49425 0.500989 0
M  V30 8512 C 812.723 -2.03369 -0.0355945 0
M  V30 8513 C 813.078 -1.37387 -1.34694 0
M  V30 8514 O 812.371 -0.500516 -1.84947 0
M  V30 8515 C 812.565 -3.56562 -0.24463 0
M  V30 8516 C 812.394 -4.37392 1.04491 0
M  V30 8517 C 811.164 -4.7941 1.59669 0
M  V30 8518 C 813.362 -4.75974 1.94817 0
M  V30 8519 N 811.344 -5.44668 2.83214 0
M  V30 8520 C 812.715 -5.4095 3.0294 0
M  V30 8521 C 814.77 -4.57915 1.95495 0
M  V30 8522 C 813.473 -5.89779 4.11768 0
M  V30 8523 C 815.499 -5.07705 3.03298 0
M  V30 8524 C 814.861 -5.72682 4.1014 0
M  V30 8525 H 810.96 -0.781507 0.0277547 0
M  V30 8526 H 813.544 -1.82594 0.675844 0
M  V30 8527 H 811.715 -3.77221 -0.925126 0
M  V30 8528 H 813.447 -3.97147 -0.778219 0
M  V30 8529 H 810.202 -4.59629 1.14185 0
M  V30 8530 H 810.626 -5.81884 3.46035 0
M  V30 8531 H 815.268 -4.07085 1.14199 0
M  V30 8532 H 812.986 -6.3963 4.93862 0
M  V30 8533 H 816.572 -4.95542 3.04843 0
M  V30 8534 H 815.452 -6.10512 4.92184 0
M  V30 8535 N 812.955 -0.234822 -1.55841 0
M  V30 8536 C 813.918 0.656378 -2.196 0
M  V30 8537 C 814.918 1.11179 -1.16171 0
M  V30 8538 O 816.108 1.01845 -1.41326 0
M  V30 8539 C 813.24 1.90072 -2.82993 0
M  V30 8540 H 814.433 0.100281 -2.99732 0
M  V30 8541 H 811.986 0.0147613 -1.56293 0
M  V30 8542 H 812.721 2.49836 -2.06767 0
M  V30 8543 H 812.506 1.5825 -3.58747 0
M  V30 8544 H 813.996 2.53538 -3.31826 0
M  V30 8545 N 814.433 1.57553 0.0384317 0
M  V30 8546 C 815.673 1.90687 0.736069 0
M  V30 8547 C 816.037 0.832381 1.73019 0
M  V30 8548 O 817.238 1.04777 2.47538 0
M  V30 8549 C 815.509 3.28994 1.39635 0
M  V30 8550 S 817.068 3.83944 2.12444 0
M  V30 8551 H 813.886 0.667799 0.244059 0
M  V30 8552 H 816.488 1.95498 -0.00901643 0
M  V30 8553 H 815.192 4.05067 0.659465 0
M  V30 8554 H 814.723 3.27463 2.18018 0
M  V30 8555 H 816.738 3.61916 3.39457 0
M  V30 8556 N 815.911 -0.310526 1.54511 0
M  V30 8557 C 816.843 -1.40405 1.8116 0
M  V30 8558 C 817.856 -1.47261 0.694114 0
M  V30 8559 O 819.045 -1.49751 0.971441 0
M  V30 8560 C 816.145 -2.78849 1.92604 0
M  V30 8561 C 815.318 -2.95041 3.22908 0
M  V30 8562 C 814.377 -4.13925 3.24889 0
M  V30 8563 O 813.403 -4.06463 3.98467 0
M  V30 8564 N 814.605 -5.24099 2.496 0
M  V30 8565 H 817.37 -1.17903 2.75534 0
M  V30 8566 H 814.931 -0.500564 1.53967 0
M  V30 8567 H 816.923 -3.5661 1.91342 0
M  V30 8568 H 815.493 -2.94342 1.05268 0
M  V30 8569 H 814.713 -2.04472 3.37023 0
M  V30 8570 H 816.001 -3.02763 4.08916 0
M  V30 8571 H 815.399 -5.33039 1.89435 0
M  V30 8572 H 813.956 -6.0023 2.54102 0
M  V30 8573 N 817.389 -1.46805 -0.573248 0
M  V30 8574 C 818.337 -1.58468 -1.70267 0
M  V30 8575 C 819.331 -0.452694 -1.63239 0
M  V30 8576 O 820.537 -0.629915 -1.68618 0
M  V30 8577 H 816.912 -0.498408 -0.56311 0
M  V30 8578 H 818.883 -2.5341 -1.57563 0
M  V30 8579 C 817.632 -1.60104 -3.08645 0
M  V30 8580 H 816.955 -2.4655 -3.14727 0
M  V30 8581 H 818.395 -1.72318 -3.87405 0
M  V30 8582 C 816.854 -0.33138 -3.35266 0
M  V30 8583 O 817.384 0.57438 -3.97572 0
M  V30 8584 N 815.59 -0.216358 -2.89793 0
M  V30 8585 H 815.137 -0.954345 -2.3927 0
M  V30 8586 H 815.095 0.632253 -3.07977 0
M  V30 8587 N 818.867 0.818669 -1.34668 0
M  V30 8588 C 820.115 1.57201 -1.27013 0
M  V30 8589 C 820.436 1.94354 0.158599 0
M  V30 8590 O 819.706 1.62626 1.09223 0
M  V30 8591 H 818.286 0.582919 -0.467135 0
M  V30 8592 H 820.948 0.977234 -1.6863 0
M  V30 8593 H 820.044 2.49291 -1.87778 0
M  V30 8594 N 820.346 1.18468 1.03938 0
M  V30 8595 C 821.294 0.909286 2.14091 0
M  V30 8596 C 822.288 -0.130928 1.68893 0
M  V30 8597 O 823.494 0.0173403 1.79992 0
M  V30 8598 H 819.869 0.27658 0.699291 0
M  V30 8599 H 821.84 1.84514 2.34515 0
M  V30 8600 C 820.589 0.452922 3.44737 0
M  V30 8601 H 819.912 1.24485 3.79926 0
M  V30 8602 H 821.352 0.299238 4.22943 0
M  V30 8603 C 819.811 -0.831435 3.26479 0
M  V30 8604 O 820.341 -1.89535 3.54174 0
M  V30 8605 N 818.547 -0.784545 2.79809 0
M  V30 8606 H 818.094 0.0814746 2.57471 0
M  V30 8607 H 818.052 -1.64431 2.67973 0
M  V30 8608 N 821.824 -1.22873 0.986916 0
M  V30 8609 C 823.073 -1.90772 0.654911 0
M  V30 8610 C 823.386 -1.77768 -0.81595 0
M  V30 8611 O 824.592 -2.40529 -1.25929 0
M  V30 8612 C 823.048 -3.42003 1.12081 0
M  V30 8613 C 822.656 -3.63655 2.61647 0
M  V30 8614 C 824.4 -4.15638 0.862854 0
M  V30 8615 C 822.307 -5.08555 3.01871 0
M  V30 8616 H 821.237 -0.714362 0.241252 0
M  V30 8617 H 823.888 -1.39196 1.19568 0
M  V30 8618 H 822.27 -3.92725 0.508207 0
M  V30 8619 H 823.444 -3.2345 3.28202 0
M  V30 8620 H 821.759 -3.03341 2.8526 0
M  V30 8621 H 824.356 -5.22425 1.13915 0
M  V30 8622 H 824.699 -4.15814 -0.201036 0
M  V30 8623 H 825.232 -3.70924 1.43736 0
M  V30 8624 H 821.971 -5.13514 4.07411 0
M  V30 8625 H 821.491 -5.49684 2.40015 0
M  V30 8626 H 823.17 -5.76936 2.92839 0
M  V30 8627 N 823.302 -0.75937 -1.38099 0
M  V30 8628 C 824.718 -0.437606 -1.53483 0
M  V30 8629 C 824.918 1.04849 -1.72072 0
M  V30 8630 O 823.974 1.83448 -1.73502 0
M  V30 8631 C 825.287 -1.24189 -2.73857 0
M  V30 8632 C 826.835 -1.23255 -2.8771 0
M  V30 8633 C 827.31 -2.01992 -4.11051 0
M  V30 8634 N 828.801 -1.99282 -4.1814 0
M  V30 8635 C 829.536 -2.56996 -5.12583 0
M  V30 8636 N 829.032 -3.23446 -6.12662 0
M  V30 8637 N 830.825 -2.46894 -5.04975 0
M  V30 8638 H 822.976 -1.72242 -1.24283 0
M  V30 8639 H 825.239 -0.730507 -0.604205 0
M  V30 8640 H 824.945 -2.29449 -2.66545 0
M  V30 8641 H 824.819 -0.862672 -3.67203 0
M  V30 8642 H 827.206 -0.187988 -2.94501 0
M  V30 8643 H 827.287 -1.65132 -1.95359 0
M  V30 8644 H 826.931 -3.06462 -4.05023 0
M  V30 8645 H 826.861 -1.57505 -5.02494 0
M  V30 8646 H 829.352 -1.50893 -3.46467 0
M  V30 8647 H 829.665 -3.6489 -6.81231 0
M  V30 8648 H 828.01 -3.27543 -6.12977 0
M  V30 8649 H 831.201 -1.94604 -4.25731 0
M  V30 8650 H 831.374 -2.92168 -5.78396 0
M  V30 8651 N 824.78 1.49157 -0.508906 0
M  V30 8652 C 826.02 2.04376 0.0310623 0
M  V30 8653 C 826.384 1.37946 1.33547 0
M  V30 8654 O 827.585 1.83931 1.96017 0
M  V30 8655 C 825.856 3.56985 0.172191 0
M  V30 8656 S 827.415 4.33728 0.665267 0
M  V30 8657 H 824.233 0.710997 -0.00199266 0
M  V30 8658 H 826.835 1.83119 -0.684674 0
M  V30 8659 H 825.539 4.02874 -0.78234 0
M  V30 8660 H 825.07 3.82661 0.912933 0
M  V30 8661 H 827.085 4.56992 1.9332 0
M  V30 8662 N 826.258 0.243083 1.55714 0
M  V30 8663 C 827.19 -0.690766 2.18543 0
M  V30 8664 C 828.203 -1.14163 1.16064 0
M  V30 8665 O 829.392 -1.06906 1.42946 0
M  V30 8666 C 826.492 -1.95016 2.77168 0
M  V30 8667 C 825.665 -1.65137 4.05029 0
M  V30 8668 C 824.724 -2.75998 4.48009 0
M  V30 8669 O 823.75 -2.43547 5.14464 0
M  V30 8670 N 824.952 -4.05414 4.15476 0
M  V30 8671 H 827.717 -0.153203 2.99308 0
M  V30 8672 H 825.278 0.0628968 1.61778 0
M  V30 8673 H 827.27 -2.68414 3.0288 0
M  V30 8674 H 825.84 -2.39762 2.00582 0
M  V30 8675 H 825.06 -0.752768 3.86946 0
M  V30 8676 H 826.348 -1.42633 4.88399 0
M  V30 8677 H 825.746 -4.34613 3.62116 0
M  V30 8678 H 824.303 -4.75288 4.46032 0
M  V30 8679 N 827.736 -1.57571 -0.0300757 0
M  V30 8680 C 828.985 -1.88407 -0.720126 0
M  V30 8681 C 829.298 -0.841466 -1.76575 0
M  V30 8682 O 830.504 -1.03902 -2.50832 0
M  V30 8683 C 828.96 -3.34348 -1.33188 0
M  V30 8684 C 828.568 -4.46837 -0.32266 0
M  V30 8685 C 830.312 -3.74333 -2.00187 0
M  V30 8686 C 828.219 -5.83838 -0.942703 0
M  V30 8687 H 827.149 -0.702952 -0.272718 0
M  V30 8688 H 829.8 -1.83482 0.0255337 0
M  V30 8689 H 828.182 -3.34014 -2.12721 0
M  V30 8690 H 829.356 -4.58638 0.445887 0
M  V30 8691 H 827.671 -4.15678 0.245181 0
M  V30 8692 H 830.268 -4.74008 -2.47428 0
M  V30 8693 H 830.611 -3.06275 -2.81959 0
M  V30 8694 H 831.144 -3.76837 -1.2743 0
M  V30 8695 H 827.883 -6.55294 -0.164413 0
M  V30 8696 H 827.403 -5.75759 -1.68111 0
M  V30 8697 H 829.082 -6.30535 -1.45034 0
M  V30 8698 N 829.214 0.302327 -1.54673 0
M  V30 8699 C 830.454 1.04568 -1.75627 0
M  V30 8700 C 830.818 1.84535 -0.530175 0
M  V30 8701 O 832.019 2.61613 -0.61743 0
M  V30 8702 C 830.29 1.92873 -3.0089 0
M  V30 8703 S 831.849 2.73872 -3.4284 0
M  V30 8704 H 828.667 0.352682 -0.617362 0
M  V30 8705 H 831.269 0.319239 -1.92876 0
M  V30 8706 H 829.973 1.32998 -3.88252 0
M  V30 8707 H 829.504 2.69887 -2.86225 0
M  V30 8708 H 831.519 3.95386 -2.99807 0
M  V30 8709 N 830.692 1.47107 0.565454 0
M  V30 8710 C 831.941 1.5257 1.31929 0
M  V30 8711 C 832.254 0.189092 1.94684 0
M  V30 8712 O 833.46 0.121657 2.71227 0
M  V30 8713 C 831.916 2.68914 2.39193 0
M  V30 8714 C 831.524 4.09069 1.82665 0
M  V30 8715 C 833.268 2.83663 3.1581 0
M  V30 8716 C 831.175 5.16726 2.87661 0
M  V30 8717 H 830.105 0.567869 0.496025 0
M  V30 8718 H 832.756 1.73361 0.60151 0
M  V30 8719 H 831.138 2.41486 3.13848 0
M  V30 8720 H 832.312 4.46364 1.14438 0
M  V30 8721 H 830.627 3.99135 1.1866 0
M  V30 8722 H 833.224 3.61261 3.94201 0
M  V30 8723 H 833.567 1.91804 3.69482 0
M  V30 8724 H 834.1 3.10821 2.48265 0
M  V30 8725 H 830.839 6.10433 2.38854 0
M  V30 8726 H 830.359 4.83957 3.54324 0
M  V30 8727 H 832.038 5.43319 3.51303 0
M  V30 8728 O 832.209 -0.709987 1.45057 0
M  V30 8729 H 832.9 -1.36112 1.37816 0
M  V30 END ATOM
M  V30 BEGIN BOND
M  V30 END BOND
M  V30 END CTAB
M  END
$$$$
