216416
  -OEChem-10051720493D

 62 66  0     1  0  0  0  0  0999 V2000
   -2.6713   -1.9678    0.0504 O   0  0  0  0  0  0  0  0  0  0  0  0
    6.5952   -3.3942    0.0778 O   0  0  0  0  0  0  0  0  0  0  0  0
   -6.1492   -0.8088    0.4149 N   0  0  0  0  0  0  0  0  0  0  0  0
    2.6329    1.7298    0.1776 C   0  0  2  0  0  0  0  0  0  0  0  0
    2.4237    0.4164   -0.6407 C   0  0  1  0  0  0  0  0  0  0  0  0
    3.0402    1.4232    1.6280 C   0  0  0  0  0  0  0  0  0  0  0  0
    3.5615   -0.5775   -0.4268 C   0  0  0  0  0  0  0  0  0  0  0  0
    4.3567    0.6494    1.6648 C   0  0  0  0  0  0  0  0  0  0  0  0
    4.4334   -0.4841    0.6744 C   0  0  0  0  0  0  0  0  0  0  0  0
    1.0488   -0.2266   -0.4545 C   0  0  0  0  0  0  0  0  0  0  0  0
    1.4860    2.7196    0.0329 C   0  0  0  0  0  0  0  0  0  0  0  0
    3.7289   -1.6304   -1.3452 C   0  0  0  0  0  0  0  0  0  0  0  0
   -7.2740   -1.2025    1.2628 C   0  0  0  0  0  0  0  0  0  0  0  0
   -6.6477   -0.9253   -0.9553 C   0  0  0  0  0  0  0  0  0  0  0  0
   -8.4579   -0.5158    0.5981 C   0  0  0  0  0  0  0  0  0  0  0  0
   -8.0477   -0.3369   -0.8604 C   0  0  0  0  0  0  0  0  0  0  0  0
    5.4539   -1.4369    0.8271 C   0  0  0  0  0  0  0  0  0  0  0  0
    0.8842   -1.2269    0.4943 C   0  0  0  0  0  0  0  0  0  0  0  0
   -0.0177    0.1970   -1.2364 C   0  0  0  0  0  0  0  0  0  0  0  0
   -4.9663   -1.6242    0.6471 C   0  0  0  0  0  0  0  0  0  0  0  0
    1.4184    3.5423   -1.0885 C   0  0  0  0  0  0  0  0  0  0  0  0
    0.5099    2.7984    1.0230 C   0  0  0  0  0  0  0  0  0  0  0  0
    4.7411   -2.5739   -1.1754 C   0  0  0  0  0  0  0  0  0  0  0  0
    5.6031   -2.4776   -0.0886 C   0  0  0  0  0  0  0  0  0  0  0  0
   -3.8109   -1.1536   -0.2219 C   0  0  0  0  0  0  0  0  0  0  0  0
   -0.3695   -1.8142    0.6644 C   0  0  0  0  0  0  0  0  0  0  0  0
   -1.2715   -0.3900   -1.0663 C   0  0  0  0  0  0  0  0  0  0  0  0
   -1.4475   -1.3956   -0.1158 C   0  0  0  0  0  0  0  0  0  0  0  0
    0.3673    4.4497   -1.2209 C   0  0  0  0  0  0  0  0  0  0  0  0
   -0.5413    3.7057    0.8904 C   0  0  0  0  0  0  0  0  0  0  0  0
   -0.6126    4.5313   -0.2315 C   0  0  0  0  0  0  0  0  0  0  0  0
    3.5104    2.2359   -0.2579 H   0  0  0  0  0  0  0  0  0  0  0  0
    2.4905    0.7054   -1.7020 H   0  0  0  0  0  0  0  0  0  0  0  0
    3.1547    2.3471    2.2084 H   0  0  0  0  0  0  0  0  0  0  0  0
    2.2697    0.8267    2.1311 H   0  0  0  0  0  0  0  0  0  0  0  0
    4.5077    0.2657    2.6812 H   0  0  0  0  0  0  0  0  0  0  0  0
    5.1824    1.3397    1.4494 H   0  0  0  0  0  0  0  0  0  0  0  0
    3.0651   -1.7206   -2.2020 H   0  0  0  0  0  0  0  0  0  0  0  0
   -7.1463   -0.8725    2.2986 H   0  0  0  0  0  0  0  0  0  0  0  0
   -7.4260   -2.2896    1.2581 H   0  0  0  0  0  0  0  0  0  0  0  0
   -6.7068   -1.9714   -1.2824 H   0  0  0  0  0  0  0  0  0  0  0  0
   -6.0496   -0.3621   -1.6782 H   0  0  0  0  0  0  0  0  0  0  0  0
   -8.6455    0.4638    1.0532 H   0  0  0  0  0  0  0  0  0  0  0  0
   -9.3721   -1.1106    0.6924 H   0  0  0  0  0  0  0  0  0  0  0  0
   -8.7415   -0.8407   -1.5410 H   0  0  0  0  0  0  0  0  0  0  0  0
   -8.0415    0.7295   -1.1151 H   0  0  0  0  0  0  0  0  0  0  0  0
    6.1417   -1.3627    1.6671 H   0  0  0  0  0  0  0  0  0  0  0  0
    1.6936   -1.5644    1.1337 H   0  0  0  0  0  0  0  0  0  0  0  0
    0.1076    0.9621   -1.9967 H   0  0  0  0  0  0  0  0  0  0  0  0
   -4.6627   -1.5508    1.6994 H   0  0  0  0  0  0  0  0  0  0  0  0
   -5.1580   -2.6899    0.4632 H   0  0  0  0  0  0  0  0  0  0  0  0
    2.1743    3.4860   -1.8670 H   0  0  0  0  0  0  0  0  0  0  0  0
    0.5245    2.1630    1.9022 H   0  0  0  0  0  0  0  0  0  0  0  0
    4.8459   -3.3772   -1.8995 H   0  0  0  0  0  0  0  0  0  0  0  0
   -4.0421   -1.2579   -1.2872 H   0  0  0  0  0  0  0  0  0  0  0  0
   -3.6153   -0.0980    0.0104 H   0  0  0  0  0  0  0  0  0  0  0  0
   -0.5021   -2.5939    1.4096 H   0  0  0  0  0  0  0  0  0  0  0  0
   -2.0755   -0.0562   -1.7154 H   0  0  0  0  0  0  0  0  0  0  0  0
    0.3111    5.0919   -2.0949 H   0  0  0  0  0  0  0  0  0  0  0  0
   -1.3066    3.7667    1.6587 H   0  0  0  0  0  0  0  0  0  0  0  0
   -1.4319    5.2367   -0.3355 H   0  0  0  0  0  0  0  0  0  0  0  0
    6.5521   -4.0408   -0.6475 H   0  0  0  0  0  0  0  0  0  0  0  0
  1 25  1  0  0  0  0
  1 28  1  0  0  0  0
  2 24  1  0  0  0  0
  2 62  1  0  0  0  0
  3 13  1  0  0  0  0
  3 14  1  0  0  0  0
  3 20  1  0  0  0  0
  4  5  1  0  0  0  0
  4  6  1  0  0  0  0
  4 11  1  0  0  0  0
  4 32  1  0  0  0  0
  5  7  1  0  0  0  0
  5 10  1  0  0  0  0
  5 33  1  0  0  0  0
  6  8  1  0  0  0  0
  6 34  1  0  0  0  0
  6 35  1  0  0  0  0
  7  9  2  0  0  0  0
  7 12  1  0  0  0  0
  8  9  1  0  0  0  0
  8 36  1  0  0  0  0
  8 37  1  0  0  0  0
  9 17  1  0  0  0  0
 10 18  2  0  0  0  0
 10 19  1  0  0  0  0
 11 21  2  0  0  0  0
 11 22  1  0  0  0  0
 12 23  2  0  0  0  0
 12 38  1  0  0  0  0
 13 15  1  0  0  0  0
 13 39  1  0  0  0  0
 13 40  1  0  0  0  0
 14 16  1  0  0  0  0
 14 41  1  0  0  0  0
 14 42  1  0  0  0  0
 15 16  1  0  0  0  0
 15 43  1  0  0  0  0
 15 44  1  0  0  0  0
 16 45  1  0  0  0  0
 16 46  1  0  0  0  0
 17 24  2  0  0  0  0
 17 47  1  0  0  0  0
 18 26  1  0  0  0  0
 18 48  1  0  0  0  0
 19 27  2  0  0  0  0
 19 49  1  0  0  0  0
 20 25  1  0  0  0  0
 20 50  1  0  0  0  0
 20 51  1  0  0  0  0
 21 29  1  0  0  0  0
 21 52  1  0  0  0  0
 22 30  2  0  0  0  0
 22 53  1  0  0  0  0
 23 24  1  0  0  0  0
 23 54  1  0  0  0  0
 25 55  1  0  0  0  0
 25 56  1  0  0  0  0
 26 28  2  0  0  0  0
 26 57  1  0  0  0  0
 27 28  1  0  0  0  0
 27 58  1  0  0  0  0
 29 31  2  0  0  0  0
 29 59  1  0  0  0  0
 30 31  1  0  0  0  0
 30 60  1  0  0  0  0
 31 61  1  0  0  0  0
M  END
> <DATABASE_ID>
DB06202

> <DATABASE_NAME>
drugbank

> <ORIGINAL_SOURCE>
PUBCHEM

> <ORIGINAL_SOURCE_URL>
https://pubchem.ncbi.nlm.nih.gov/rest/pug/compound/inchikey/GXESHMAMLJKROZ-IAPPQJPRSA-N/SDF?record_type=3d

> <SMILES>
[H][C@@]1(CCC2=CC(O)=CC=C2[C@@]1([H])C1=CC=C(OCCN2CCCC2)C=C1)C1=CC=CC=C1

> <INCHI_IDENTIFIER>
InChI=1S/C28H31NO2/c30-24-11-15-27-23(20-24)10-14-26(21-6-2-1-3-7-21)28(27)22-8-12-25(13-9-22)31-19-18-29-16-4-5-17-29/h1-3,6-9,11-13,15,20,26,28,30H,4-5,10,14,16-19H2/t26-,28+/m1/s1

> <INCHI_KEY>
GXESHMAMLJKROZ-IAPPQJPRSA-N

> <FORMULA>
C28H31NO2

> <MOLECULAR_WEIGHT>
413.5512

> <EXACT_MASS>
413.235479241

> <JCHEM_ACCEPTOR_COUNT>
3

> <JCHEM_AVERAGE_POLARIZABILITY>
47.58383551484508

> <JCHEM_BIOAVAILABILITY>
1

> <JCHEM_DONOR_COUNT>
1

> <JCHEM_FORMAL_CHARGE>
0

> <JCHEM_GHOSE_FILTER>
0

> <JCHEM_IUPAC>
(5R,6S)-6-phenyl-5-{4-[2-(pyrrolidin-1-yl)ethoxy]phenyl}-5,6,7,8-tetrahydronaphthalen-2-ol

> <ALOGPS_LOGP>
6.36

> <JCHEM_LOGP>
5.9722240382087834

> <ALOGPS_LOGS>
-6.02

> <JCHEM_MDDR_LIKE_RULE>
1

> <JCHEM_NUMBER_OF_RINGS>
5

> <JCHEM_PHYSIOLOGICAL_CHARGE>
1

> <JCHEM_PKA_STRONGEST_ACIDIC>
10.211830591499814

> <JCHEM_PKA_STRONGEST_BASIC>
8.978610620958673

> <JCHEM_POLAR_SURFACE_AREA>
32.7

> <JCHEM_REFRACTIVITY>
126.83159999999995

> <JCHEM_ROTATABLE_BOND_COUNT>
6

> <JCHEM_RULE_OF_FIVE>
0

> <ALOGPS_SOLUBILITY>
3.98e-04 g/l

> <JCHEM_TRADITIONAL_IUPAC>
lasofoxifene

> <JCHEM_VEBER_RULE>
1

> <DRUGBANK_ID>
DB06202

> <DRUG_GROUPS>
approved; investigational

> <GENERIC_NAME>
Lasofoxifene

> <SYNONYMS>
(-)-cis-5,6,7,8-Tetrahydro-6-phenyl-5-(p-(2-(1-pyrrolidinyl)ethoxy)phenyl)-2-naphthol

> <PRODUCTS>
Fablyn

> <INTERNATIONAL_BRANDS>
Oporia

> <SALTS>
Lasofoxifene hydrochloride; Lasofoxifene tartrate

$$$$