drugbank_target|P28593 Trypanothione reductase (DB02240; DB03147; DB03470; DB04299)
 OpenBabel12092119563D

  0  0  0     0  0            999 V3000
M  V30 BEGIN CTAB
M  V30 COUNTS 7581 7657 0 0 0
M  V30 BEGIN ATOM
M  V30 1 H -0.908 1.98254 -0.117106 0
M  V30 2 N 0 1.576 0 0
M  V30 3 C 0.933 2.03868 1.02534 0
M  V30 4 C 1.911 0.928543 1.3348 0
M  V30 5 O 3.095 1.19667 1.45644 0
M  V30 6 C 0.222 2.43627 2.35294 0
M  V30 7 C -0.732 3.65373 2.2001 0
M  V30 8 S 0.101 5.13292 1.52614 0
M  V30 9 C 1.257 5.56322 2.86805 0
M  V30 10 H 1.49 2.90518 0.631377 0
M  V30 11 H -0.977 1.52953 0.210867 0
M  V30 12 H 0.981 2.67203 3.11629 0
M  V30 13 H -0.358 1.57376 2.7183 0
M  V30 14 H -1.165 3.90944 3.18086 0
M  V30 15 H -1.563 3.418 1.51819 0
M  V30 16 H 0.729 5.58782 3.83104 0
M  V30 17 H 1.672 6.56266 2.65933 0
M  V30 18 H 2.08 4.83886 2.90714 0
M  V30 19 N 1.4781 -0.272755 1.55222 0
M  V30 20 C 2.4111 -1.3627 1.83046 0
M  V30 21 C 3.3891 -1.47536 0.683521 0
M  V30 22 O 4.5731 -1.64157 0.926545 0
M  V30 23 C 1.7001 -2.73908 1.99229 0
M  V30 24 C 0.7461 -2.79925 3.21783 0
M  V30 25 S 1.5791 -2.39146 4.79134 0
M  V30 26 C 2.7351 -3.78758 4.9829 0
M  V30 27 H 2.9681 -1.12464 2.75207 0
M  V30 28 H 0.5011 -0.472398 1.46996 0
M  V30 29 H 2.4591 -3.53171 2.09238 0
M  V30 30 H 1.1201 -2.94965 1.07956 0
M  V30 31 H 0.3131 -3.80946 3.29994 0
M  V30 32 H -0.0849 -2.08683 3.10367 0
M  V30 33 H 2.2071 -4.7403 4.84047 0
M  V30 34 H 3.1501 -3.75499 6.00338 0
M  V30 35 H 3.5581 -3.70072 4.26271 0
M  V30 36 N 2.9562 -1.48159 -0.537278 0
M  V30 37 C 4.1812 -1.59707 -1.32319 0
M  V30 38 C 4.6062 -0.254859 -1.86365 0
M  V30 39 O 3.9642 0.772378 -1.64024 0
M  V30 40 C 4.0122 -2.6412 -2.45505 0
M  V30 41 O 3.1162 -2.20774 -3.48328 0
M  V30 42 H 2.4572 -0.535791 -0.392204 0
M  V30 43 H 4.9872 -1.94092 -0.647268 0
M  V30 44 H 4.9972 -2.85166 -2.91795 0
M  V30 45 H 3.6722 -3.61567 -2.05528 0
M  V30 46 H 2.2492 -2.09911 -3.08207 0
M  V30 47 N 4.4343 0.785586 -1.36625 0
M  V30 48 C 5.3813 1.89838 -1.31264 0
M  V30 49 C 6.3513 1.65115 -0.180633 0
M  V30 50 O 7.5363 1.87222 -0.36777 0
M  V30 51 C 4.6763 3.26706 -1.11163 0
M  V30 52 C 3.7893 3.63476 -2.33472 0
M  V30 53 C 2.9243 4.89481 -2.06353 0
M  V30 54 C 1.9633 5.18941 -3.24602 0
M  V30 55 N 1.1003 6.36131 -2.97123 0
M  V30 56 H 5.9403 1.93756 -2.26413 0
M  V30 57 H 3.4773 0.947454 -1.12524 0
M  V30 58 H 5.4353 4.05639 -0.975337 0
M  V30 59 H 4.0653 3.222 -0.196674 0
M  V30 60 H 3.1173 2.79636 -2.57891 0
M  V30 61 H 4.4293 3.81193 -3.21704 0
M  V30 62 H 3.5833 5.76288 -1.89675 0
M  V30 63 H 2.3223 4.73841 -1.15437 0
M  V30 64 H 1.3273 4.30615 -3.41834 0
M  V30 65 H 2.5523 5.36498 -4.16349 0
M  V30 66 H 0.4983 6.21875 -2.08823 0
M  V30 67 H 0.4153 6.54198 -3.78894 0
M  V30 68 H 1.6833 7.2591 -2.84033 0
M  V30 69 N 5.9124 1.20967 1.01018 0
M  V30 70 C 7.1614 1.01796 1.74128 0
M  V30 71 C 7.4744 -0.449691 1.90361 0
M  V30 72 O 8.6804 -0.76068 2.60626 0
M  V30 73 C 7.1364 1.7727 3.13215 0
M  V30 74 C 6.7444 3.28171 3.04972 0
M  V30 75 C 8.4884 1.66489 3.90489 0
M  V30 76 C 6.3954 3.96156 4.39107 0
M  V30 77 H 5.3254 0.377276 0.652824 0
M  V30 78 H 7.9764 1.44651 1.12909 0
M  V30 79 H 6.3584 1.27205 3.75013 0
M  V30 80 H 7.5324 3.85499 2.52443 0
M  V30 81 H 5.8474 3.39437 2.41188 0
M  V30 82 H 8.4444 2.14617 4.89738 0
M  V30 83 H 8.7874 0.6222 4.11624 0
M  V30 84 H 9.3204 2.14003 3.35332 0
M  V30 85 H 6.0594 5.00604 4.23174 0
M  V30 86 H 5.5794 3.43617 4.91617 0
M  V30 87 H 7.2584 4.00774 5.07926 0
M  V30 88 N 7.3905 -1.2043 1.01659 0
M  V30 89 C 8.6375 -1.89797 0.705917 0
M  V30 90 C 8.9655 -1.78848 -0.764439 0
M  V30 91 O 8.2205 -1.16694 -1.57102 0
M  V30 92 C 8.5195 -3.40464 1.08714 0
M  V30 93 C 8.1855 -3.71614 2.5537 0
M  V30 94 C 6.8475 -3.79826 2.95441 0
M  V30 95 C 9.1995 -3.85915 3.50313 0
M  V30 96 C 6.5275 -3.99797 4.29394 0
M  V30 97 C 8.8795 -4.07396 4.83954 0
M  V30 98 C 7.5435 -4.13837 5.23732 0
M  V30 99 H 6.8135 -0.694518 0.258313 0
M  V30 100 H 9.4605 -1.42691 1.27717 0
M  V30 101 H 7.7655 -3.89385 0.434309 0
M  V30 102 H 9.4625 -3.92433 0.824461 0
M  V30 103 H 6.0525 -3.65822 2.23321 0
M  V30 104 H 10.2365 -3.78926 3.20513 0
M  V30 105 H 5.4925 -4.03018 4.59768 0
M  V30 106 H 9.6665 -4.17404 5.57447 0
M  V30 107 H 7.2935 -4.29064 6.27541 0
M  V30 108 N 8.8686 -0.792821 -1.36206 0
M  V30 109 C 10.1456 -0.290627 -1.93429 0
M  V30 110 C 10.5256 1.21773 -1.72437 0
M  V30 111 O 9.8736 2.0108 -1.08531 0
M  V30 112 C 10.0836 -0.686973 -3.42172 0
M  V30 113 C 11.4316 -0.668643 -4.19302 0
M  V30 114 O 12.4556 -0.627658 -3.50626 0
M  V30 115 O 11.3146 -0.714597 -5.41808 0
M  V30 116 H 8.4086 -0.0727927 -0.82379 0
M  V30 117 H 10.9546 -0.875593 -1.45367 0
M  V30 118 H 9.7266 -1.72711 -3.51122 0
M  V30 119 H 9.3496 -0.0760733 -3.97527 0
M  V30 120 N 10.3467 1.47872 -0.545128 0
M  V30 121 C 11.2767 2.32661 0.197793 0
M  V30 122 C 12.2577 1.43041 0.920504 0
M  V30 123 O 13.4427 1.71912 0.90333 0
M  V30 124 C 10.5727 3.24569 1.23582 0
M  V30 125 C 9.5267 4.23333 0.630323 0
M  V30 126 C 8.8527 5.0448 1.77211 0
M  V30 127 C 10.1527 5.20704 -0.407974 0
M  V30 128 H 11.8467 2.95024 -0.510045 0
M  V30 129 H 9.3927 1.4187 -0.246731 0
M  V30 130 H 11.3457 3.8272 1.76362 0
M  V30 131 H 10.0697 2.60236 1.97344 0
M  V30 132 H 8.7287 3.6639 0.123922 0
M  V30 133 H 8.3767 4.36561 2.49847 0
M  V30 134 H 8.0767 5.71339 1.37281 0
M  V30 135 H 9.6007 5.65487 2.3034 0
M  V30 136 H 11.0147 5.7329 0.033305 0
M  V30 137 H 9.4117 5.95699 -0.725486 0
M  V30 138 H 10.4817 4.66917 -1.30828 0
M  V30 139 N 11.8248 0.280983 1.55075 0
M  V30 140 C 13.0708 -0.33461 2.00021 0
M  V30 141 C 13.4038 -1.55063 1.16915 0
M  V30 142 O 12.6788 -1.93006 0.240646 0
M  V30 143 C 12.9618 -0.711007 3.53011 0
M  V30 144 C 12.8148 0.512766 4.46868 0
M  V30 145 C 14.1338 -1.54522 4.12081 0
M  V30 146 H 11.2528 -0.120147 0.727141 0
M  V30 147 H 13.8948 0.389097 1.85973 0
M  V30 148 H 12.0448 -1.32761 3.65112 0
M  V30 149 H 13.7168 1.15131 4.46702 0
M  V30 150 H 11.9598 1.14975 4.18286 0
M  V30 151 H 12.6308 0.205556 5.51617 0
M  V30 152 H 15.1068 -1.02442 4.03293 0
M  V30 153 H 13.9828 -1.77739 5.19327 0
M  V30 154 H 14.2438 -2.52813 3.62682 0
M  V30 155 N 13.3029 -1.57598 0.00835791 0
M  V30 156 C 14.5489 -1.91211 -0.675732 0
M  V30 157 C 14.8819 -0.883139 -1.72958 0
M  V30 158 O 14.1569 0.097016 -1.94258 0
M  V30 159 C 14.4399 -3.35379 -1.31123 0
M  V30 160 C 14.2929 -4.48999 -0.268356 0
M  V30 161 C 15.6119 -3.7912 -2.23508 0
M  V30 162 H 12.7309 -0.695374 -0.244179 0
M  V30 163 H 15.3729 -1.89901 0.0613655 0
M  V30 164 H 13.5229 -3.36626 -1.93946 0
M  V30 165 H 15.1949 -4.59887 0.360844 0
M  V30 166 H 13.4379 -4.31873 0.408482 0
M  V30 167 H 14.1089 -5.46851 -0.752218 0
M  V30 168 H 16.5849 -3.79477 -1.70693 0
M  V30 169 H 15.4609 -4.80729 -2.64936 0
M  V30 170 H 15.7219 -3.13455 -3.11766 0
M  V30 171 N 14.781 0.264519 -1.55364 0
M  V30 172 C 16.03 0.992812 -1.75574 0
M  V30 173 C 16.343 1.87142 -0.568979 0
M  V30 174 O 17.549 2.63513 -0.653682 0
M  V30 175 C 16.005 1.81519 -3.10771 0
M  V30 176 C 15.613 0.984839 -4.37041 0
M  V30 177 C 17.357 2.53727 -3.40327 0
M  V30 178 C 15.264 1.80209 -5.63275 0
M  V30 179 H 14.194 0.374412 -0.65447 0
M  V30 180 H 16.845 0.248138 -1.81815 0
M  V30 181 H 15.227 2.60115 -2.98591 0
M  V30 182 H 16.401 0.242455 -4.60162 0
M  V30 183 H 14.716 0.37691 -4.14691 0
M  V30 184 H 17.313 3.15292 -4.3185 0
M  V30 185 H 17.656 3.24447 -2.60845 0
M  V30 186 H 18.189 1.82156 -3.53644 0
M  V30 187 H 14.928 1.13896 -6.45529 0
M  V30 188 H 14.448 2.52022 -5.44284 0
M  V30 189 H 16.127 2.37364 -6.01887 0
M  V30 190 N 16.2591 1.48442 0.529413 0
M  V30 191 C 17.5071 1.56179 1.28267 0
M  V30 192 C 17.8281 0.237721 1.93546 0
M  V30 193 O 17.0981 -0.740779 1.81354 0
M  V30 194 H 15.6781 0.575367 0.476405 0
M  V30 195 H 18.3401 1.84909 0.61602 0
M  V30 196 H 17.4361 2.34312 2.06165 0
M  V30 197 N 17.7372 -0.778329 1.37039 0
M  V30 198 C 18.7002 -1.87301 1.32102 0
M  V30 199 C 19.7002 -1.59198 0.226405 0
M  V30 200 O 20.8902 -1.67403 0.481861 0
M  V30 201 C 18.0222 -3.24309 1.05055 0
M  V30 202 H 19.2152 -1.93093 2.29467 0
M  V30 203 H 16.7682 -0.977358 1.21973 0
M  V30 204 H 17.5032 -3.24196 0.0819373 0
M  V30 205 H 17.2882 -3.46098 1.84279 0
M  V30 206 H 18.7782 -4.04382 1.04234 0
M  V30 207 N 19.2153 -1.21501 -1.00376 0
M  V30 208 C 20.4633 -1.03095 -1.73827 0
M  V30 209 C 20.7843 0.436341 -1.90055 0
M  V30 210 O 20.0543 1.31466 -1.45236 0
M  V30 211 H 18.6343 -0.378487 -0.644016 0
M  V30 212 H 21.2963 -1.52831 -1.20949 0
M  V30 213 H 20.3923 -1.49991 -2.73695 0
M  V30 214 N 20.6934 1.19889 -1.02296 0
M  V30 215 C 21.9184 1.9393 -0.735237 0
M  V30 216 C 22.3434 1.74639 0.698782 0
M  V30 217 O 21.7014 1.04481 1.48167 0
M  V30 218 C 21.7494 3.43916 -1.08417 0
M  V30 219 O 20.8534 4.11917 -0.199446 0
M  V30 220 H 20.1944 0.605645 -0.272196 0
M  V30 221 H 22.7244 1.52137 -1.36804 0
M  V30 222 H 22.7344 3.9456 -1.03856 0
M  V30 223 H 21.4094 3.5728 -2.12894 0
M  V30 224 H 19.9864 3.71666 -0.303136 0
M  V30 225 N 22.1715 0.800033 1.35784 0
M  V30 226 C 23.4195 0.376597 1.9856 0
M  V30 227 C 23.7405 -1.05812 1.63795 0
M  V30 228 O 23.0105 -1.73103 0.917171 0
M  V30 229 H 21.5905 0.136261 0.734467 0
M  V30 230 H 24.2525 1.02442 1.65806 0
M  V30 231 H 23.3485 0.477002 3.08433 0
M  V30 232 N 23.6496 -1.47581 0.552962 0
M  V30 233 C 24.8976 -2.02082 0.0272703 0
M  V30 234 C 25.2186 -1.4301 -1.32563 0
M  V30 235 O 24.4886 -0.603745 -1.86365 0
M  V30 236 H 23.0686 -0.746966 0.00709182 0
M  V30 237 H 25.7306 -1.81033 0.722008 0
M  V30 238 H 24.8266 -3.12034 -0.0639951 0
M  V30 239 N 25.1277 -0.289203 -1.54924 0
M  V30 240 C 26.0577 0.58549 -2.2604 0
M  V30 241 C 27.0387 1.14753 -1.25562 0
M  V30 242 O 28.2237 1.17906 -1.54311 0
M  V30 243 C 25.3537 1.76305 -2.99222 0
M  V30 244 C 24.3077 1.33191 -4.06748 0
M  V30 245 C 23.6337 2.5937 -4.6758 0
M  V30 246 C 24.9337 0.471775 -5.20165 0
M  V30 247 H 26.6277 -0.00763532 -2.99399 0
M  V30 248 H 24.1737 -0.00511229 -1.43999 0
M  V30 249 H 26.1267 2.38097 -3.47689 0
M  V30 250 H 24.8507 2.38223 -2.23422 0
M  V30 251 H 23.5097 0.737121 -3.59113 0
M  V30 252 H 23.1577 3.19576 -3.88433 0
M  V30 253 H 22.8577 2.31228 -5.40192 0
M  V30 254 H 24.3817 3.21985 -5.18804 0
M  V30 255 H 25.7957 0.995056 -5.64599 0
M  V30 256 H 24.1927 0.284639 -5.99425 0
M  V30 257 H 25.2627 -0.506041 -4.82252 0
M  V30 258 N 26.6058 1.57591 -0.0167156 0
M  V30 259 C 27.5158 2.1291 0.98521 0
M  V30 260 C 28.5318 1.07834 1.36557 0
M  V30 261 O 29.7078 1.39826 1.44951 0
M  V30 262 C 26.7728 2.63512 2.25305 0
M  V30 263 C 25.8338 3.83256 1.93426 0
M  V30 264 C 25.0668 4.31435 3.14165 0
M  V30 265 O 25.2898 3.78851 4.26413 0
M  V30 266 O 24.2238 5.23416 2.97186 0
M  V30 267 H 28.0498 2.98772 0.544888 0
M  V30 268 H 25.6348 1.48012 0.203141 0
M  V30 269 H 27.5168 2.96183 2.99756 0
M  V30 270 H 26.1918 1.8074 2.68542 0
M  V30 271 H 25.0988 3.55531 1.16398 0
M  V30 272 H 26.4318 4.67153 1.55013 0
M  V30 273 N 28.0839 -0.256276 1.55502 0
M  V30 274 C 29.0469 -1.30047 1.88734 0
M  V30 275 C 30.0469 -1.4154 0.763086 0
M  V30 276 O 31.2369 -1.40403 1.03115 0
M  V30 277 C 28.3689 -2.67953 2.10747 0
M  V30 278 H 29.5619 -1.01802 2.82093 0
M  V30 279 H 27.1149 -0.495134 1.4825 0
M  V30 280 H 27.8499 -3.01351 1.19825 0
M  V30 281 H 27.6349 -2.60993 2.92617 0
M  V30 282 H 29.1249 -3.43368 2.37673 0
M  V30 283 N 29.562 -1.4872 -0.521534 0
M  V30 284 C 30.525 -1.63379 -1.60748 0
M  V30 285 C 31.525 -0.50661 -1.52611 0
M  V30 286 O 32.715 -0.772601 -1.5613 0
M  V30 287 C 29.847 -1.61192 -3.00383 0
M  V30 288 H 31.04 -2.60217 -1.49087 0
M  V30 289 H 28.593 -1.37444 -0.744235 0
M  V30 290 H 29.328 -0.65863 -3.17541 0
M  V30 291 H 29.113 -2.43032 -3.07698 0
M  V30 292 H 30.603 -1.7466 -3.7932 0
M  V30 293 N 31.0401 0.771051 -1.3745 0
M  V30 294 C 32.2861 1.53109 -1.339 0
M  V30 295 C 32.6411 1.9225 0.0758401 0
M  V30 296 O 31.9341 1.61264 1.03463 0
M  V30 297 C 32.1281 2.80676 -2.2126 0
M  V30 298 C 31.9571 2.54003 -3.71096 0
M  V30 299 C 30.7271 2.48097 -4.402 0
M  V30 300 C 32.9251 2.21953 -4.63941 0
M  V30 301 N 30.9071 2.13515 -5.75573 0
M  V30 302 C 32.2781 1.97516 -5.87697 0
M  V30 303 C 34.3331 2.08114 -4.5232 0
M  V30 304 C 33.0361 1.60638 -7.01133 0
M  V30 305 C 35.0621 1.72636 -5.65642 0
M  V30 306 C 34.4241 1.4906 -6.88448 0
M  V30 307 H 30.5231 0.56055 -0.54526 0
M  V30 308 H 33.1071 0.899472 -1.72678 0
M  V30 309 H 31.2781 3.41674 -1.84698 0
M  V30 310 H 33.0101 3.46578 -2.08963 0
M  V30 311 H 29.7651 2.63974 -3.93211 0
M  V30 312 H 30.1891 1.98919 -6.47117 0
M  V30 313 H 34.8311 2.25024 -3.57944 0
M  V30 314 H 32.5491 1.42467 -7.95443 0
M  V30 315 H 36.1351 1.62586 -5.58621 0
M  V30 316 H 35.0151 1.22014 -7.7465 0
M  V30 317 N 32.5182 1.22032 0.997298 0
M  V30 318 C 33.4662 0.983634 2.10778 0
M  V30 319 C 34.4602 -0.0717564 1.69248 0
M  V30 320 O 35.6662 0.080304 1.79821 0
M  V30 321 H 32.0412 0.300877 0.689186 0
M  V30 322 H 34.0122 1.92606 2.27916 0
M  V30 323 C 32.7612 0.57326 3.42942 0
M  V30 324 H 32.0842 1.37702 3.75338 0
M  V30 325 H 33.5242 0.447031 4.21637 0
M  V30 326 C 31.9832 -0.7167 3.29188 0
M  V30 327 O 32.5132 -1.77027 3.60589 0
M  V30 328 N 30.7192 -0.686167 2.82383 0
M  V30 329 H 30.2662 0.171507 2.57028 0
M  V30 330 H 30.2242 -1.54955 2.73562 0
M  V30 331 N 33.9963 -1.19345 1.0293 0
M  V30 332 C 34.9593 -2.20793 0.615069 0
M  V30 333 C 35.9593 -1.57553 -0.321533 0
M  V30 334 O 37.1493 -1.73862 -0.108483 0
M  V30 335 C 34.2813 -3.40754 -0.0999222 0
M  V30 336 H 35.4743 -2.58955 1.51269 0
M  V30 337 H 33.0273 -1.3303 0.820534 0
M  V30 338 H 33.7623 -3.0811 -1.01187 0
M  V30 339 H 33.5473 -3.87889 0.57309 0
M  V30 340 H 35.0373 -4.15898 -0.376645 0
M  V30 341 N 35.4744 -0.807222 -1.35358 0
M  V30 342 C 36.4374 -0.223665 -2.28106 0
M  V30 343 C 37.4374 0.589354 -1.4961 0
M  V30 344 O 38.6274 0.407745 -1.69361 0
M  V30 345 C 35.7594 0.688149 -3.33882 0
M  V30 346 H 36.9524 -1.04169 -2.81227 0
M  V30 347 H 34.5054 -0.577921 -1.45223 0
M  V30 348 H 35.2404 1.52984 -2.85948 0
M  V30 349 H 35.0254 0.10687 -3.91954 0
M  V30 350 H 36.5154 1.09075 -4.03104 0
M  V30 351 N 36.9525 1.47285 -0.560781 0
M  V30 352 C 38.1805 2.06855 -0.0430262 0
M  V30 353 C 38.5955 1.41291 1.25229 0
M  V30 354 O 37.9525 0.510648 1.7521 0
M  V30 355 C 38.0035 3.61178 0.152518 0
M  V30 356 O 37.7245 4.24285 -1.0915 0
M  V30 357 C 39.2255 4.37624 0.707145 0
M  V30 358 H 36.4455 0.669319 -0.0474652 0
M  V30 359 H 38.9895 1.89237 -0.77521 0
M  V30 360 H 37.1445 3.78298 0.834843 0
M  V30 361 H 37.5585 5.16868 -0.891482 0
M  V30 362 H 39.0325 5.46271 0.793244 0
M  V30 363 H 39.5095 4.04152 1.71923 0
M  V30 364 H 40.1155 4.25257 0.0604027 0
M  V30 365 N 38.4306 0.297415 1.54768 0
M  V30 366 C 39.3606 -0.573494 2.26348 0
M  V30 367 C 40.3416 -1.14085 1.26169 0
M  V30 368 O 41.5266 -1.17086 1.54934 0
M  V30 369 C 38.6566 -1.74716 3.00153 0
M  V30 370 C 37.6106 -1.31032 4.07449 0
M  V30 371 C 36.9366 -2.56887 4.68949 0
M  V30 372 C 38.2366 -0.444183 5.20408 0
M  V30 373 H 39.9306 0.0235131 2.99391 0
M  V30 374 H 37.4766 0.0127488 1.43994 0
M  V30 375 H 39.4296 -2.3625 3.48947 0
M  V30 376 H 38.1536 -2.37035 2.24682 0
M  V30 377 H 36.8126 -0.718066 3.59499 0
M  V30 378 H 36.4606 -3.17512 3.90122 0
M  V30 379 H 36.1606 -2.2836 5.41411 0
M  V30 380 H 37.6846 -3.19229 5.20505 0
M  V30 381 H 39.0986 -0.9651 5.65118 0
M  V30 382 H 37.4956 -0.252846 5.99567 0
M  V30 383 H 38.5656 0.531609 4.81977 0
M  V30 384 N 39.9087 -1.5758 0.0250728 0
M  V30 385 C 41.1387 -1.95646 -0.663783 0
M  V30 386 C 41.5467 -0.899935 -1.66427 0
M  V30 387 O 40.8897 0.127191 -1.83259 0
M  V30 388 C 40.9517 -3.29835 -1.43 0
M  V30 389 C 40.6157 -4.53197 -0.588305 0
M  V30 390 C 41.6127 -5.19726 0.13469 0
M  V30 391 C 39.2977 -4.99529 -0.526897 0
M  V30 392 C 41.2917 -6.30902 0.90781 0
M  V30 393 C 38.9787 -6.10589 0.24993 0
M  V30 394 C 39.9767 -6.76134 0.965994 0
M  V30 395 O 39.6647 -7.85062 1.7301 0
M  V30 396 H 39.3967 -0.649282 -0.188174 0
M  V30 397 H 41.9507 -2.05245 0.0799006 0
M  V30 398 H 40.1807 -3.16716 -2.21873 0
M  V30 399 H 41.8697 -3.52833 -2.00658 0
M  V30 400 H 42.6357 -4.84904 0.0965562 0
M  V30 401 H 38.5147 -4.48319 -1.07381 0
M  V30 402 H 42.0587 -6.81995 1.46724 0
M  V30 403 H 37.9557 -6.44849 0.289795 0
M  V30 404 H 38.7237 -8.01708 1.64944 0
M  V30 405 N 41.3868 0.248026 -1.55636 0
M  V30 406 C 42.3338 1.30707 -1.90222 0
M  V30 407 C 43.3038 1.47881 -0.756332 0
M  V30 408 O 44.4888 1.61883 -1.00988 0
M  V30 409 C 41.6288 2.65769 -2.20138 0
M  V30 410 C 40.7418 2.56612 -3.47526 0
M  V30 411 C 39.8768 3.8402 -3.67017 0
M  V30 412 C 38.9158 3.69476 -4.8801 0
M  V30 413 N 38.0528 4.88774 -5.04029 0
M  V30 414 H 42.8928 1.00512 -2.80538 0
M  V30 415 H 40.4298 0.485055 -1.38873 0
M  V30 416 H 42.3878 3.44386 -2.35487 0
M  V30 417 H 41.0178 2.94115 -1.33027 0
M  V30 418 H 40.0698 1.69571 -3.40514 0
M  V30 419 H 41.3818 2.41774 -4.36287 0
M  V30 420 H 40.5358 4.7108 -3.8232 0
M  V30 421 H 39.2748 4.01754 -2.76487 0
M  V30 422 H 38.2798 2.80799 -4.72686 0
M  V30 423 H 39.5048 3.53238 -5.8 0
M  V30 424 H 37.4508 5.0687 -4.16435 0
M  V30 425 H 37.3678 4.76562 -5.86877 0
M  V30 426 H 38.6358 5.77335 -5.23741 0
M  V30 427 N 42.8649 1.48995 0.513639 0
M  V30 428 C 43.8119 1.6473 1.61656 0
M  V30 429 C 44.7819 0.488984 1.58739 0
M  V30 430 O 45.9669 0.714478 1.76918 0
M  V30 431 C 43.1069 1.7082 2.99858 0
M  V30 432 C 42.2199 2.9787 3.12885 0
M  V30 433 C 41.3549 2.95017 4.41744 0
M  V30 434 C 40.3939 4.16702 4.48359 0
M  V30 435 N 39.5309 4.11832 5.68629 0
M  V30 436 H 44.3709 2.58909 1.47547 0
M  V30 437 H 41.9079 1.28382 0.71808 0
M  V30 438 H 43.8659 1.72331 3.79944 0
M  V30 439 H 42.4959 0.801181 3.12699 0
M  V30 440 H 41.5479 3.06029 2.25944 0
M  V30 441 H 42.8599 3.8786 3.13633 0
M  V30 442 H 42.0139 2.95021 5.30139 0
M  V30 443 H 40.7529 2.02784 4.43542 0
M  V30 444 H 39.7579 4.16955 3.58369 0
M  V30 445 H 40.9829 5.10113 4.48287 0
M  V30 446 H 38.9289 3.22428 5.71293 0
M  V30 447 H 38.8459 4.95543 5.7094 0
M  V30 448 H 40.1139 4.1592 6.59266 0
M  V30 449 N 44.343 -0.763751 1.37857 0
M  V30 450 C 45.759 -1.06542 1.18832 0
M  V30 451 C 45.959 -2.01478 0.0299722 0
M  V30 452 O 45.015 -2.4458 -0.627447 0
M  V30 453 C 46.328 -1.65525 2.51042 0
M  V30 454 C 47.876 -1.77745 2.57635 0
M  V30 455 C 48.351 -2.4014 3.89996 0
M  V30 456 N 49.842 -2.47582 3.91481 0
M  V30 457 C 50.577 -2.96732 4.9065 0
M  V30 458 N 50.073 -3.45993 6.00217 0
M  V30 459 N 51.866 -2.95679 4.78048 0
M  V30 460 H 44.017 -0.133556 2.1198 0
M  V30 461 H 46.28 -0.121879 0.940133 0
M  V30 462 H 45.986 -1.03236 3.36207 0
M  V30 463 H 45.86 -2.64719 2.68707 0
M  V30 464 H 48.247 -2.39164 1.72872 0
M  V30 465 H 48.328 -0.772836 2.43846 0
M  V30 466 H 47.972 -1.79358 4.75177 0
M  V30 467 H 47.902 -3.41223 4.01092 0
M  V30 468 H 50.393 -2.1273 3.12337 0
M  V30 469 H 50.706 -3.81922 6.7183 0
M  V30 470 H 49.051 -3.44077 6.03851 0
M  V30 471 H 52.242 -2.56499 3.91568 0
M  V30 472 H 52.415 -3.33672 5.55488 0
M  V30 473 N 45.8211 -1.22559 -0.990812 0
M  V30 474 C 47.0671 -1.05297 -1.73322 0
M  V30 475 C 47.4001 0.410655 -1.89808 0
M  V30 476 O 46.6751 1.30439 -1.44277 0
M  V30 477 C 46.9581 -1.76713 -3.13759 0
M  V30 478 C 46.8111 -3.30684 -3.04907 0
M  V30 479 C 48.1301 -1.52121 -4.12974 0
M  V30 480 H 45.2491 -0.38392 -0.629106 0
M  V30 481 H 47.8911 -1.50926 -1.15418 0
M  V30 482 H 46.0411 -1.37924 -3.63193 0
M  V30 483 H 47.7131 -3.7893 -2.63077 0
M  V30 484 H 45.9561 -3.60253 -2.41661 0
M  V30 485 H 46.6271 -3.75833 -4.04294 0
M  V30 486 H 49.1031 -1.85819 -3.72304 0
M  V30 487 H 47.9791 -2.04582 -5.0935 0
M  V30 488 H 48.2401 -0.454257 -4.3976 0
M  V30 489 N 47.2992 1.18797 -1.03562 0
M  V30 490 C 48.2622 2.20464 -0.626769 0
M  V30 491 C 49.2622 1.57721 0.313173 0
M  V30 492 O 50.4522 1.73917 0.0992615 0
M  V30 493 C 47.5842 3.40802 0.0818498 0
M  V30 494 H 48.7772 2.58149 -1.5264 0
M  V30 495 H 46.3302 1.32593 -0.827578 0
M  V30 496 H 47.0652 3.08642 0.995518 0
M  V30 497 H 46.8502 3.8758 -0.593652 0
M  V30 498 H 48.3402 4.16092 0.354584 0
M  V30 499 N 48.7773 0.814389 1.34928 0
M  V30 500 C 50.0233 0.399013 1.98836 0
M  V30 501 C 50.3563 -1.03314 1.64438 0
M  V30 502 O 49.6313 -1.71811 0.911659 0
M  V30 503 C 49.9143 0.591629 3.55207 0
M  V30 504 C 49.7673 2.06928 3.99376 0
M  V30 505 C 51.0863 0.022199 4.40094 0
M  V30 506 H 48.2053 0.146451 0.722303 0
M  V30 507 H 50.8473 1.02537 1.59957 0
M  V30 508 H 48.9973 0.0584441 3.88456 0
M  V30 509 H 50.6693 2.66544 3.76499 0
M  V30 510 H 48.9123 2.56287 3.49999 0
M  V30 511 H 49.5833 2.1549 5.08201 0
M  V30 512 H 52.0593 0.477643 4.13349 0
M  V30 513 H 50.9353 0.186832 5.48582 0
M  V30 514 H 51.1963 -1.07215 4.28902 0
M  V30 515 N 50.2554 -1.46986 0.568584 0
M  V30 516 C 51.5044 -2.01646 0.0465894 0
M  V30 517 C 51.8174 -1.44721 -1.31587 0
M  V30 518 O 53.0234 -1.91113 -1.92842 0
M  V30 519 C 51.4794 -3.59885 0.032752 0
M  V30 520 C 51.0874 -4.25804 1.39266 0
M  V30 521 C 52.8314 -4.22255 -0.436038 0
M  V30 522 C 50.7384 -5.76081 1.33732 0
M  V30 523 H 49.6684 -0.753876 0.013647 0
M  V30 524 H 52.3194 -1.68864 0.718131 0
M  V30 525 H 50.7014 -3.8968 -0.704669 0
M  V30 526 H 51.8754 -4.07637 2.1487 0
M  V30 527 H 50.1904 -3.7547 1.80032 0
M  V30 528 H 52.7874 -5.32394 -0.49602 0
M  V30 529 H 53.1304 -3.90212 -1.45053 0
M  V30 530 H 53.6634 -3.97033 0.246877 0
M  V30 531 H 50.4024 -6.12761 2.32817 0
M  V30 532 H 49.9224 -5.96553 0.623267 0
M  V30 533 H 51.6014 -6.38518 1.0442 0
M  V30 534 N 51.7335 -0.305618 -1.54608 0
M  V30 535 C 53.0105 0.355652 -1.92339 0
M  V30 536 C 53.3905 1.71324 -1.23335 0
M  V30 537 O 52.7385 2.25473 -0.370702 0
M  V30 538 C 52.9485 0.46572 -3.45879 0
M  V30 539 C 54.2965 0.734426 -4.182 0
M  V30 540 O 55.3205 0.54935 -3.51938 0
M  V30 541 O 54.1795 1.09024 -5.35515 0
M  V30 542 H 51.2735 0.199666 -0.802535 0
M  V30 543 H 53.8195 -0.354017 -1.65966 0
M  V30 544 H 52.5915 -0.488461 -3.88239 0
M  V30 545 H 52.2145 1.22367 -3.78301 0
M  V30 546 N 53.2116 1.57565 -0.0334293 0
M  V30 547 C 54.4576 1.92262 0.645226 0
M  V30 548 C 54.7906 0.910543 1.71531 0
M  V30 549 O 54.0656 -0.066099 1.94388 0
M  V30 550 C 54.3486 3.37422 1.2577 0
M  V30 551 C 54.2016 4.49369 0.196891 0
M  V30 552 C 55.5206 3.82628 2.17449 0
M  V30 553 H 52.6396 0.699171 0.233085 0
M  V30 554 H 55.2816 1.89779 -0.0915694 0
M  V30 555 H 53.4316 3.39669 1.88566 0
M  V30 556 H 55.1036 4.59254 -0.433962 0
M  V30 557 H 53.3466 4.31168 -0.477137 0
M  V30 558 H 54.0176 5.47978 0.665124 0
M  V30 559 H 56.4936 3.82145 1.64634 0
M  V30 560 H 55.3696 4.84883 2.57254 0
M  V30 561 H 55.6306 3.18376 3.0674 0
M  V30 562 N 54.6897 -0.239769 1.55765 0
M  V30 563 C 55.6217 -1.32001 1.87372 0
M  V30 564 C 56.6347 -1.43944 0.760522 0
M  V30 565 O 57.8237 -1.45167 1.0387 0
M  V30 566 C 54.9237 -2.69779 2.05115 0
M  V30 567 C 54.0967 -2.80014 3.36022 0
M  V30 568 C 53.1557 -3.98684 3.4342 0
M  V30 569 O 52.1817 -3.87877 4.16582 0
M  V30 570 N 53.3837 -5.12176 2.73232 0
M  V30 571 H 56.1487 -1.0522 2.80622 0
M  V30 572 H 53.7097 -0.429857 1.56089 0
M  V30 573 H 55.7017 -3.47517 2.07399 0
M  V30 574 H 54.2717 -2.89237 1.18577 0
M  V30 575 H 53.4917 -1.88896 3.45994 0
M  V30 576 H 54.7797 -2.83808 4.22292 0
M  V30 577 H 54.1777 -5.2385 2.13536 0
M  V30 578 H 52.7347 -5.88022 2.81199 0
M  V30 579 N 56.1678 -1.49265 -0.50573 0
M  V30 580 C 57.1008 -1.60183 -1.62532 0
M  V30 581 C 58.0788 -0.451107 -1.56217 0
M  V30 582 O 59.2628 -0.666016 -1.76342 0
M  V30 583 C 56.3898 -1.55238 -3.01029 0
M  V30 584 C 55.4358 -2.7545 -3.25621 0
M  V30 585 S 56.2688 -4.37174 -3.09256 0
M  V30 586 C 57.4248 -4.34866 -4.50158 0
M  V30 587 H 57.6578 -2.54894 -1.53025 0
M  V30 588 H 55.1908 -1.38098 -0.690535 0
M  V30 589 H 57.1488 -1.53071 -3.80893 0
M  V30 590 H 55.8098 -0.618238 -3.07956 0
M  V30 591 H 55.0028 -2.68197 -4.26716 0
M  V30 592 H 54.6048 -2.75005 -2.53472 0
M  V30 593 H 56.8968 -4.06295 -5.42154 0
M  V30 594 H 57.8398 -5.36223 -4.62462 0
M  V30 595 H 58.2478 -3.65007 -4.30616 0
M  V30 596 N 57.6459 0.756429 -1.3826 0
M  V30 597 C 58.8919 1.51772 -1.34511 0
M  V30 598 C 59.2249 1.94089 0.0656691 0
M  V30 599 O 58.4999 1.65221 1.02626 0
M  V30 600 C 58.7829 2.77226 -2.29821 0
M  V30 601 C 58.6359 2.41065 -3.79747 0
M  V30 602 C 59.9549 3.79236 -2.23312 0
M  V30 603 H 57.0739 0.550578 -0.489931 0
M  V30 604 H 59.7159 0.866607 -1.69086 0
M  V30 605 H 57.8659 3.32784 -2.00467 0
M  V30 606 H 59.5379 1.91303 -4.19763 0
M  V30 607 H 57.7809 1.7356 -3.97567 0
M  V30 608 H 58.4519 3.3081 -4.41892 0
M  V30 609 H 60.9279 3.3321 -2.49219 0
M  V30 610 H 59.8039 4.64714 -2.92116 0
M  V30 611 H 60.0649 4.24615 -1.23102 0
M  V30 612 N 59.124 1.23083 0.984299 0
M  V30 613 C 60.074 0.975749 2.06066 0
M  V30 614 C 61.058 -0.0768251 1.60716 0
M  V30 615 O 62.25 0.134805 1.76486 0
M  V30 616 C 59.379 0.564673 3.38624 0
M  V30 617 C 58.465 1.65244 3.90583 0
M  V30 618 N 58.856 2.88193 4.15666 0
M  V30 619 C 57.154 1.52612 4.19077 0
M  V30 620 C 57.855 3.58593 4.58024 0
M  V30 621 N 56.831 2.86093 4.62225 0
M  V30 622 H 60.633 1.90957 2.23411 0
M  V30 623 H 58.147 1.12963 1.16675 0
M  V30 624 H 60.144 0.36322 4.15315 0
M  V30 625 H 58.804 -0.362147 3.22674 0
M  V30 626 H 59.815 3.24537 4.03604 0
M  V30 627 H 56.492 0.666121 4.12152 0
M  V30 628 H 57.882 4.63974 4.85982 0
M  V30 629 N 60.6021 -1.18246 1.0419 0
M  V30 630 C 61.8501 -1.87886 0.744543 0
M  V30 631 C 62.1711 -1.8082 -0.730006 0
M  V30 632 O 61.4411 -1.22736 -1.52685 0
M  V30 633 H 60.0211 -0.695556 0.272417 0
M  V30 634 H 62.6831 -1.43494 1.31892 0
M  V30 635 H 61.7791 -2.9389 1.05049 0
M  V30 636 N 62.0802 -0.821533 -1.34494 0
M  V30 637 C 63.4912 -0.467956 -1.8074 0
M  V30 638 C 63.8422 1.01151 -1.68116 0
M  V30 639 O 62.9672 1.78707 -1.22036 0
M  V30 640 C 63.5622 -0.842627 -3.28154 0
M  V30 641 C 62.1212 -0.541439 -3.72485 0
M  V30 642 C 61.2682 -1.06028 -2.56229 0
M  V30 643 H 64.2192 -1.01183 -1.22261 0
M  V30 644 H 64.2402 -0.145876 -3.8022 0
M  V30 645 H 63.7522 -1.91945 -3.37311 0
M  V30 646 H 61.8532 0.526034 -3.68868 0
M  V30 647 H 61.9662 -1.08453 -4.66663 0
M  V30 648 H 60.3302 -0.481892 -2.501 0
M  V30 649 H 61.1132 -2.14352 -2.68157 0
M  V30 650 N 63.5583 1.46682 -0.576371 0
M  V30 651 C 64.9693 1.86112 -0.148091 0
M  V30 652 C 65.3203 1.48073 1.2872 0
M  V30 653 O 64.4453 0.892656 1.97131 0
M  V30 654 C 65.0403 3.37786 -0.261982 0
M  V30 655 C 63.5993 3.76235 0.111384 0
M  V30 656 C 62.7463 2.70713 -0.60083 0
M  V30 657 H 65.6973 1.37927 -0.78497 0
M  V30 658 H 65.7183 3.77007 0.514364 0
M  V30 659 H 65.2303 3.6544 -1.30671 0
M  V30 660 H 63.3313 3.54198 1.15649 0
M  V30 661 H 63.4443 4.78391 -0.26052 0
M  V30 662 H 61.8083 2.54666 -0.0417783 0
M  V30 663 H 62.5913 3.01208 -1.64708 0
M  V30 664 N 65.0364 0.313813 1.54444 0
M  V30 665 C 66.2834 -0.291675 2.00388 0
M  V30 666 C 66.6114 -1.52904 1.2021 0
M  V30 667 O 65.8664 -1.93833 0.269707 0
M  V30 668 C 66.1654 -0.680386 3.50864 0
M  V30 669 C 65.8314 0.456699 4.48581 0
M  V30 670 C 64.4934 0.768824 4.75018 0
M  V30 671 C 66.8454 1.22098 5.06697 0
M  V30 672 C 64.1734 1.84812 5.56831 0
M  V30 673 C 66.5254 2.29029 5.89685 0
M  V30 674 C 65.1894 2.60834 6.14428 0
M  V30 675 H 64.4594 -0.106732 0.733273 0
M  V30 676 H 67.1064 0.43557 1.86481 0
M  V30 677 H 65.4114 -1.48791 3.62448 0
M  V30 678 H 67.1084 -1.16026 3.83847 0
M  V30 679 H 63.6984 0.203337 4.28117 0
M  V30 680 H 67.8824 0.993096 4.86263 0
M  V30 681 H 63.1384 2.09912 5.74236 0
M  V30 682 H 67.3124 2.887 6.33739 0
M  V30 683 H 64.9394 3.44596 6.77612 0
M  V30 684 N 66.5145 -1.57545 0.0417849 0
M  V30 685 C 67.7615 -1.92317 -0.634082 0
M  V30 686 C 68.0895 -0.919334 -1.71402 0
M  V30 687 O 67.3445 0.0698253 -1.95575 0
M  V30 688 C 67.6435 -3.33794 -1.27735 0
M  V30 689 C 67.3095 -4.49716 -0.326543 0
M  V30 690 C 65.9715 -4.81156 -0.0648814 0
M  V30 691 C 68.3235 -5.20182 0.325623 0
M  V30 692 C 65.6515 -5.80414 0.856539 0
M  V30 693 C 68.0035 -6.20424 1.23518 0
M  V30 694 C 66.6675 -6.50298 1.5056 0
M  V30 695 H 65.9375 -0.703736 -0.232027 0
M  V30 696 H 68.5845 -1.91205 0.106259 0
M  V30 697 H 66.8895 -3.31228 -2.09274 0
M  V30 698 H 68.5865 -3.57975 -1.80707 0
M  V30 699 H 65.1765 -4.25176 -0.540665 0
M  V30 700 H 69.3605 -4.96112 0.136546 0
M  V30 701 H 64.6165 -6.019 1.07363 0
M  V30 702 H 68.7905 -6.74141 1.74664 0
M  V30 703 H 66.4175 -7.27025 2.22123 0
M  V30 704 N 67.9926 0.231505 -1.5589 0
M  V30 705 C 69.2176 0.978689 -1.82856 0
M  V30 706 C 69.6426 1.77559 -0.620846 0
M  V30 707 O 69.0006 1.76119 0.430305 0
M  V30 708 C 69.0486 1.87997 -3.07716 0
M  V30 709 O 68.1526 2.97393 -2.85712 0
M  V30 710 H 67.4936 0.277663 -0.603158 0
M  V30 711 H 70.0236 0.24783 -2.03093 0
M  V30 712 H 70.0336 2.2917 -3.37558 0
M  V30 713 H 68.7086 1.29417 -3.95252 0
M  V30 714 H 67.2856 2.60238 -2.67078 0
M  V30 715 N 69.4707 1.49531 0.497807 0
M  V30 716 C 70.4337 1.65916 1.58128 0
M  V30 717 C 71.4337 0.530825 1.51786 0
M  V30 718 O 72.6237 0.797342 1.54881 0
M  V30 719 C 69.7557 1.65951 2.9778 0
M  V30 720 H 70.9487 2.62556 1.44929 0
M  V30 721 H 68.5017 1.38611 0.722275 0
M  V30 722 H 69.2367 0.709065 3.16453 0
M  V30 723 H 69.0217 2.47897 3.03792 0
M  V30 724 H 70.5117 1.80673 3.76493 0
M  V30 725 N 70.9488 -0.749086 1.3866 0
M  V30 726 C 71.8788 -1.8764 1.38973 0
M  V30 727 C 72.8598 -1.68178 0.255004 0
M  V30 728 O 74.0448 -1.88704 0.458754 0
M  V30 729 C 71.1748 -3.25222 1.21851 0
M  V30 730 C 70.1288 -3.59295 2.32575 0
M  V30 731 C 69.4548 -4.95663 2.00555 0
M  V30 732 C 70.7548 -3.63709 3.7485 0
M  V30 733 H 72.4488 -1.87635 2.3331 0
M  V30 734 H 69.9948 -0.901329 1.12303 0
M  V30 735 H 71.9478 -4.03746 1.20695 0
M  V30 736 H 70.6718 -3.25719 0.239775 0
M  V30 737 H 69.3308 -2.83093 2.32925 0
M  V30 738 H 68.9788 -4.92724 1.01154 0
M  V30 739 H 68.6788 -5.19429 2.74714 0
M  V30 740 H 70.2028 -5.7656 2.01024 0
M  V30 741 H 71.6168 -4.32338 3.76506 0
M  V30 742 H 70.0138 -3.98986 4.48252 0
M  V30 743 H 71.0838 -2.63834 4.06841 0
M  V30 744 N 72.4269 -1.23603 -0.977757 0
M  V30 745 C 73.6749 -1.06759 -1.71601 0
M  V30 746 C 73.9959 0.395929 -1.90938 0
M  V30 747 O 73.2659 1.28356 -1.47992 0
M  V30 748 H 71.8459 -0.392062 -0.635843 0
M  V30 749 H 74.5079 -1.55362 -1.1768 0
M  V30 750 H 73.6039 -1.55763 -2.70452 0
M  V30 751 N 73.905 1.17692 -1.04816 0
M  V30 752 C 75.153 1.87488 -0.754497 0
M  V30 753 C 75.474 1.81205 0.720407 0
M  V30 754 O 74.744 1.23544 1.52032 0
M  V30 755 H 73.324 0.694101 -0.276102 0
M  V30 756 H 75.986 1.42793 -1.32651 0
M  V30 757 H 75.082 2.93328 -1.06606 0
M  V30 758 N 75.3831 0.828654 1.34056 0
M  V30 759 C 76.6111 0.43262 2.02326 0
M  V30 760 C 77.0261 -0.963147 1.62385 0
M  V30 761 O 76.3831 -1.62425 0.832121 0
M  V30 762 C 76.4341 0.53182 3.57567 0
M  V30 763 O 76.1551 1.87258 3.96063 0
M  V30 764 C 77.6561 0.131422 4.43105 0
M  V30 765 H 74.8761 0.172923 0.648335 0
M  V30 766 H 77.4201 1.1184 1.71208 0
M  V30 767 H 75.5751 -0.105938 3.87255 0
M  V30 768 H 75.9891 1.85087 4.90758 0
M  V30 769 H 77.4631 0.251904 5.51425 0
M  V30 770 H 77.9401 -0.925645 4.29335 0
M  V30 771 H 78.5461 0.743207 4.18756 0
M  V30 772 N 76.8612 -1.46375 0.584142 0
M  V30 773 C 78.1012 -2.0427 0.0729695 0
M  V30 774 C 78.4652 -1.44563 -1.26355 0
M  V30 775 O 79.6662 -1.93667 -1.86405 0
M  V30 776 C 77.9372 -3.57399 0.00967464 0
M  V30 777 S 79.4962 -4.36551 -0.443714 0
M  V30 778 H 76.3142 -0.709975 0.0381673 0
M  V30 779 H 78.9162 -1.79398 0.776962 0
M  V30 780 H 77.6202 -3.98372 0.986319 0
M  V30 781 H 77.1512 -3.8681 -0.717044 0
M  V30 782 H 79.1662 -4.66237 -1.69816 0
M  V30 783 N 78.3393 -0.321999 -1.54275 0
M  V30 784 C 79.5853 0.281461 -2.00837 0
M  V30 785 C 79.9183 1.51909 -1.20985 0
M  V30 786 O 79.1933 1.923 -0.291733 0
M  V30 787 C 79.4763 0.617162 -3.54772 0
M  V30 788 C 79.3293 -0.631064 -4.45351 0
M  V30 789 C 80.6483 1.43542 -4.16033 0
M  V30 790 H 77.7673 0.100826 -0.730071 0
M  V30 791 H 80.4093 -0.438268 -1.84876 0
M  V30 792 H 78.5593 1.23034 -3.68504 0
M  V30 793 H 80.2313 -1.26934 -4.43492 0
M  V30 794 H 78.4743 -1.26025 -4.15091 0
M  V30 795 H 79.1453 -0.351735 -5.50878 0
M  V30 796 H 81.6213 0.917134 -4.05867 0
M  V30 797 H 80.4973 1.63907 -5.23856 0
M  V30 798 H 80.7583 2.43108 -3.69257 0
M  V30 799 N 79.8174 1.5752 -0.0501392 0
M  V30 800 C 80.7654 2.12651 0.942459 0
M  V30 801 C 81.7594 1.05807 1.32292 0
M  V30 802 O 82.9654 1.24217 1.3027 0
M  V30 803 H 79.3404 0.679673 0.321789 0
M  V30 804 H 81.3114 2.94951 0.452356 0
M  V30 805 C 80.0604 2.68565 2.20836 0
M  V30 806 H 79.3834 3.50439 1.92439 0
M  V30 807 H 80.8234 3.10761 2.8845 0
M  V30 808 C 79.2824 1.62291 2.95234 0
M  V30 809 O 79.8124 1.03508 3.88135 0
M  V30 810 N 78.0184 1.33836 2.57946 0
M  V30 811 H 77.5654 1.81826 1.82475 0
M  V30 812 H 77.5234 0.629595 3.08032 0
M  V30 813 N 81.2955 -0.223234 1.56011 0
M  V30 814 C 82.5415 -0.949279 1.79211 0
M  V30 815 C 82.8745 -1.84054 0.619494 0
M  V30 816 O 82.1495 -1.90726 -0.381317 0
M  V30 817 C 82.4325 -1.78965 3.12479 0
M  V30 818 C 82.2855 -0.924997 4.40186 0
M  V30 819 C 83.6045 -2.76774 3.42175 0
M  V30 820 H 80.7235 -0.343676 0.651963 0
M  V30 821 H 83.3655 -0.218253 1.88742 0
M  V30 822 H 81.5155 -2.41291 3.04485 0
M  V30 823 H 83.1875 -0.318615 4.60198 0
M  V30 824 H 81.4305 -0.230344 4.33188 0
M  V30 825 H 82.1015 -1.54735 5.29869 0
M  V30 826 H 84.5775 -2.24584 3.50287 0
M  V30 827 H 83.4535 -3.32678 4.36597 0
M  V30 828 H 83.7145 -3.54429 2.64258 0
M  V30 829 N 82.7736 -1.49793 -0.48987 0
M  V30 830 C 84.0216 -1.59525 -1.24081 0
M  V30 831 C 84.3426 -0.288953 -1.92847 0
M  V30 832 O 83.6126 0.692436 -1.83254 0
M  V30 833 H 82.1926 -0.587796 -0.460983 0
M  V30 834 H 84.8546 -1.86477 -0.566778 0
M  V30 835 H 83.9506 -2.39696 -1.99881 0
M  V30 836 N 84.2517 0.741722 -1.39055 0
M  V30 837 C 85.4917 1.51385 -1.37338 0
M  V30 838 C 85.8557 1.91972 0.0330513 0
M  V30 839 O 87.0567 2.68229 0.175174 0
M  V30 840 C 85.3277 2.72481 -2.31276 0
M  V30 841 S 86.8867 3.62211 -2.47687 0
M  V30 842 H 83.7047 0.517906 -0.487129 0
M  V30 843 H 86.3067 0.86969 -1.7509 0
M  V30 844 H 85.0107 2.40793 -3.32336 0
M  V30 845 H 84.5417 3.41832 -1.94716 0
M  V30 846 H 86.5567 4.65812 -1.70978 0
M  V30 847 N 85.7298 1.2412 0.971189 0
M  V30 848 C 86.9758 1.08041 1.71625 0
M  V30 849 C 87.3088 -0.380407 1.90438 0
M  V30 850 O 86.5838 -1.28127 1.46334 0
M  V30 851 C 86.8668 1.81682 3.10908 0
M  V30 852 C 86.7198 3.35493 2.99608 0
M  V30 853 C 88.0388 1.58671 4.10501 0
M  V30 854 H 85.1578 0.39388 0.622919 0
M  V30 855 H 87.7998 1.52743 1.13003 0
M  V30 856 H 85.9498 1.43684 3.60953 0
M  V30 857 H 87.6218 3.83068 2.57015 0
M  V30 858 H 85.8648 3.64052 2.35899 0
M  V30 859 H 86.5358 3.82217 3.98264 0
M  V30 860 H 89.0118 1.91719 3.69301 0
M  V30 861 H 87.8878 2.1266 5.06031 0
M  V30 862 H 88.1488 0.524161 4.38982 0
M  V30 863 N 87.2079 -1.17134 1.05439 0
M  V30 864 C 88.6189 -1.69084 0.791676 0
M  V30 865 C 88.9699 -1.83822 -0.685839 0
M  V30 866 O 88.0949 -1.52757 -1.53278 0
M  V30 867 C 88.6899 -3.07119 1.4305 0
M  V30 868 C 87.2489 -3.56225 1.21577 0
M  V30 869 C 86.3959 -2.32421 1.51247 0
M  V30 870 H 89.3469 -1.01617 1.219 0
M  V30 871 H 89.3679 -3.71087 0.84112 0
M  V30 872 H 88.8799 -2.9636 2.50584 0
M  V30 873 H 86.9809 -3.72257 0.159787 0
M  V30 874 H 87.0939 -4.38837 1.92246 0
M  V30 875 H 85.4579 -2.3701 0.932653 0
M  V30 876 H 86.2409 -2.24268 2.5992 0
M  V30 877 N 88.686 -0.835752 -1.33615 0
M  V30 878 C 89.633 -0.26473 -2.29277 0
M  V30 879 C 90.603 0.617712 -1.54187 0
M  V30 880 O 91.788 0.556641 -1.825 0
M  V30 881 C 88.928 0.556777 -3.40579 0
M  V30 882 C 88.041 -0.349339 -4.30585 0
M  V30 883 C 87.176 0.482969 -5.29 0
M  V30 884 C 86.215 -0.421732 -6.10645 0
M  V30 885 N 85.352 0.372262 -7.01112 0
M  V30 886 H 90.192 -1.08582 -2.77514 0
M  V30 887 H 87.729 -0.546927 -1.36554 0
M  V30 888 H 89.687 1.04852 -4.03809 0
M  V30 889 H 88.317 1.34286 -2.93542 0
M  V30 890 H 87.369 -0.959372 -3.68104 0
M  V30 891 H 88.681 -1.04445 -4.87742 0
M  V30 892 H 87.835 1.03866 -5.97743 0
M  V30 893 H 86.574 1.21153 -4.72412 0
M  V30 894 H 85.579 -0.989464 -5.40823 0
M  V30 895 H 86.804 -1.14861 -6.69316 0
M  V30 896 H 84.75 1.08426 -6.46977 0
M  V30 897 H 84.667 -0.264198 -7.55538 0
M  V30 898 H 85.935 0.910293 -7.74167 0
M  V30 899 N 90.1641 1.46063 -0.591896 0
M  V30 900 C 91.1111 2.30399 0.136069 0
M  V30 901 C 92.0811 1.41169 0.875238 0
M  V30 902 O 93.2661 1.70112 0.86409 0
M  V30 903 C 90.4061 3.25804 1.13781 0
M  V30 904 C 89.5191 4.30134 0.401137 0
M  V30 905 C 88.6541 5.12659 1.39121 0
M  V30 906 C 87.6931 6.0873 0.641462 0
M  V30 907 N 86.8301 6.8409 1.58004 0
M  V30 908 H 91.6701 2.92118 -0.589144 0
M  V30 909 H 89.2071 1.43959 -0.302342 0
M  V30 910 H 91.1651 3.79569 1.73156 0
M  V30 911 H 89.7951 2.65872 1.83062 0
M  V30 912 H 88.8471 3.79152 -0.307826 0
M  V30 913 H 90.1591 4.98458 -0.184565 0
M  V30 914 H 89.3131 5.70747 2.05749 0
M  V30 915 H 88.0521 4.44316 2.01084 0
M  V30 916 H 87.0571 5.49786 -0.0385419 0
M  V30 917 H 88.2821 6.79095 0.0270945 0
M  V30 918 H 86.2281 6.18449 2.18761 0
M  V30 919 H 86.1451 7.48709 1.04738 0
M  V30 920 H 87.4131 7.4673 2.23639 0
M  V30 921 N 91.6422 0.330177 1.54103 0
M  V30 922 C 92.5722 -0.525353 2.27513 0
M  V30 923 C 93.5532 -1.11383 1.2856 0
M  V30 924 O 94.7382 -1.13773 1.57383 0
M  V30 925 C 91.8682 -1.6831 3.03791 0
M  V30 926 C 90.8222 -1.2236 4.10137 0
M  V30 927 C 90.1482 -2.46882 4.74293 0
M  V30 928 C 91.4482 -0.333697 5.21233 0
M  V30 929 H 93.1422 0.087013 2.99274 0
M  V30 930 H 90.6882 0.0432893 1.43935 0
M  V30 931 H 92.6412 -2.28795 3.5388 0
M  V30 932 H 91.3652 -2.32216 2.29659 0
M  V30 933 H 90.0242 -0.64165 3.60941 0
M  V30 934 H 89.6722 -3.09165 3.96769 0
M  V30 935 H 89.3722 -2.16825 5.46133 0
M  V30 936 H 90.8962 -3.08117 5.27159 0
M  V30 937 H 92.3102 -0.845013 5.67038 0
M  V30 938 H 90.7072 -0.125612 5.99969 0
M  V30 939 H 91.7772 0.633724 4.80741 0
M  V30 940 N 93.1203 -1.57491 0.0584922 0
M  V30 941 C 94.0533 -2.07533 -0.948969 0
M  V30 942 C 95.0313 -0.977444 -1.29942 0
M  V30 943 O 96.2153 -1.2499 -1.41102 0
M  V30 944 C 93.3423 -2.52192 -2.2609 0
M  V30 945 C 92.3883 -3.73287 -2.06298 0
M  V30 946 S 93.2213 -5.18603 -1.33459 0
M  V30 947 C 94.3773 -5.66583 -2.65959 0
M  V30 948 H 94.6103 -2.92662 -0.523118 0
M  V30 949 H 92.1433 -1.53631 -0.153954 0
M  V30 950 H 94.1013 -2.78585 -3.01498 0
M  V30 951 H 92.7623 -1.67356 -2.65802 0
M  V30 952 H 91.9553 -4.0248 -3.03357 0
M  V30 953 H 91.5573 -3.47199 -1.39029 0
M  V30 954 H 93.8493 -5.72616 -3.62101 0
M  V30 955 H 94.7923 -6.65684 -2.41393 0
M  V30 956 H 95.2003 -4.94342 -2.72554 0
M  V30 957 N 94.5984 0.214957 -1.56127 0
M  V30 958 C 95.8444 0.939762 -1.79712 0
M  V30 959 C 96.1774 1.83723 -0.629247 0
M  V30 960 O 95.4524 1.90925 0.371197 0
M  V30 961 C 95.7354 1.77306 -3.13424 0
M  V30 962 C 95.5884 0.90164 -4.40671 0
M  V30 963 C 96.9074 2.74956 -3.43638 0
M  V30 964 H 94.0264 0.340214 -0.653776 0
M  V30 965 H 96.6684 0.20824 -1.88855 0
M  V30 966 H 94.8184 2.39673 -3.0576 0
M  V30 967 H 96.4904 0.294206 -4.60361 0
M  V30 968 H 94.7334 0.207368 -4.33304 0
M  V30 969 H 95.4044 1.51923 -5.30682 0
M  V30 970 H 97.8804 2.22724 -3.51473 0
M  V30 971 H 96.7564 3.30358 -4.38355 0
M  V30 972 H 97.0174 3.53023 -2.66134 0
M  V30 973 N 96.0765 1.50051 0.48192 0
M  V30 974 C 97.3045 1.64237 1.25832 0
M  V30 975 C 97.7195 0.321336 1.86045 0
M  V30 976 O 97.0765 -0.695478 1.68729 0
M  V30 977 C 97.1275 2.72548 2.37487 0
M  V30 978 O 96.8485 3.99529 1.79745 0
M  V30 979 C 98.3495 2.9761 3.28547 0
M  V30 980 H 95.5695 0.55237 0.380957 0
M  V30 981 H 98.1135 1.96207 0.576467 0
M  V30 982 H 96.2685 2.43303 3.01467 0
M  V30 983 H 96.6825 4.59342 2.5319 0
M  V30 984 H 98.1565 3.77084 4.03127 0
M  V30 985 H 98.6335 2.0826 3.86684 0
M  V30 986 H 99.2395 3.28345 2.70314 0
M  V30 987 N 97.5546 -0.734337 1.39446 0
M  V30 988 C 98.8026 -1.49096 1.36436 0
M  V30 989 C 99.1236 -1.94961 -0.0388255 0
M  V30 990 O 98.3936 -1.69033 -0.990191 0
M  V30 991 H 96.9736 -0.5531 0.502085 0
M  V30 992 H 99.6356 -0.871725 1.74319 0
M  V30 993 H 98.7316 -2.37276 2.02747 0
M  V30 994 N 99.0327 -1.24633 -0.964593 0
M  V30 995 C 99.9957 -1.0424 -2.04124 0
M  V30 996 C 100.996 0.00137563 -1.608 0
M  V30 997 O 102.186 -0.239883 -1.7254 0
M  V30 998 C 99.3177 -0.580588 -3.3592 0
M  V30 999 H 100.511 -1.99803 -2.23649 0
M  V30 1000 H 98.0637 -1.06899 -1.14027 0
M  V30 1001 H 98.7987 0.3781 -3.22088 0
M  V30 1002 H 98.5837 -1.33398 -3.6871 0
M  V30 1003 H 100.074 -0.459034 -4.15069 0
M  V30 1004 N 100.511 1.16574 -1.06058 0
M  V30 1005 C 101.443 2.2045 -0.627239 0
M  V30 1006 C 102.456 1.59752 0.313534 0
M  V30 1007 O 103.645 1.78192 0.104896 0
M  V30 1008 C 100.745 3.3875 0.100974 0
M  V30 1009 C 99.9178 4.29008 -0.852687 0
M  V30 1010 C 98.9768 5.25944 -0.164152 0
M  V30 1011 O 98.0028 5.63535 -0.801047 0
M  V30 1012 N 99.2048 5.70075 1.09518 0
M  V30 1013 H 101.97 2.58249 -1.52077 0
M  V30 1014 H 99.5308 1.3156 -0.943594 0
M  V30 1015 H 101.523 4.00638 0.57194 0
M  V30 1016 H 100.093 2.99476 0.89628 0
M  V30 1017 H 99.3128 3.64419 -1.50308 0
M  V30 1018 H 100.601 4.86195 -1.49972 0
M  V30 1019 H 99.9988 5.41624 1.6328 0
M  V30 1020 H 98.5558 6.34067 1.51006 0
M  V30 1021 N 101.989 0.842826 1.3317 0
M  V30 1022 C 103.219 0.453397 2.01564 0
M  V30 1023 C 103.627 -0.951147 1.63554 0
M  V30 1024 O 102.97 -1.63021 0.846746 0
M  V30 1025 C 103.032 0.499013 3.5602 0
M  V30 1026 C 102.696 1.86037 4.1742 0
M  V30 1027 C 103.693 2.82416 4.36506 0
M  V30 1028 C 101.378 2.15428 4.53757 0
M  V30 1029 C 103.372 4.06346 4.91082 0
M  V30 1030 C 101.059 3.39615 5.0804 0
M  V30 1031 C 102.057 4.3489 5.26649 0
M  V30 1032 O 101.745 5.5688 5.79776 0
M  V30 1033 H 101.477 0.177871 0.652179 0
M  V30 1034 H 104.031 1.13808 1.70988 0
M  V30 1035 H 102.261 -0.242467 3.85939 0
M  V30 1036 H 103.95 0.126852 4.05702 0
M  V30 1037 H 104.716 2.6101 4.08777 0
M  V30 1038 H 100.595 1.42061 4.38565 0
M  V30 1039 H 104.139 4.80722 5.05522 0
M  V30 1040 H 100.036 3.60876 5.352 0
M  V30 1041 H 100.804 5.58674 5.98185 0
M  V30 1042 N 103.467 -1.45747 0.599634 0
M  V30 1043 C 104.4 -2.27547 -0.172552 0
M  V30 1044 C 105.378 -1.36657 -0.881116 0
M  V30 1045 O 106.562 -1.66081 -0.891595 0
M  V30 1046 C 103.689 -3.14829 -1.24903 0
M  V30 1047 C 102.735 -4.21603 -0.644465 0
M  V30 1048 S 103.568 -5.32754 0.541606 0
M  V30 1049 C 104.724 -6.23604 -0.535656 0
M  V30 1050 H 104.957 -2.92691 0.521468 0
M  V30 1051 H 102.49 -1.49473 0.386947 0
M  V30 1052 H 104.448 -3.65675 -1.86527 0
M  V30 1053 H 103.109 -2.48965 -1.91508 0
M  V30 1054 H 102.302 -4.82566 -1.45417 0
M  V30 1055 H 101.904 -3.73857 -0.103534 0
M  V30 1056 H 104.196 -6.62519 -1.41686 0
M  V30 1057 H 105.139 -7.0809 0.0376246 0
M  V30 1058 H 105.547 -5.58103 -0.84741 0
M  V30 1059 N 104.945 -0.338344 -1.53925 0
M  V30 1060 C 105.855 0.529421 -2.28548 0
M  V30 1061 C 106.871 1.11645 -1.3346 0
M  V30 1062 O 108.047 1.13325 -1.66492 0
M  V30 1063 C 105.112 1.66713 -3.03987 0
M  V30 1064 C 104.173 1.11041 -4.14691 0
M  V30 1065 C 103.406 2.19389 -4.86522 0
M  V30 1066 O 103.629 3.40013 -4.57982 0
M  V30 1067 O 102.563 1.83976 -5.73094 0
M  V30 1068 H 106.389 -0.0770399 -3.03602 0
M  V30 1069 H 103.974 -0.103555 -1.49041 0
M  V30 1070 H 105.856 2.32918 -3.5118 0
M  V30 1071 H 104.531 2.25949 -2.31794 0
M  V30 1072 H 103.438 0.413024 -3.71813 0
M  V30 1073 H 104.771 0.562975 -4.8897 0
M  V30 1074 N 106.423 1.57458 -0.0668435 0
M  V30 1075 C 107.373 2.0896 0.912119 0
M  V30 1076 C 108.357 0.998186 1.26195 0
M  V30 1077 O 109.549 1.26133 1.24175 0
M  V30 1078 C 106.678 2.6508 2.18145 0
M  V30 1079 C 105.764 3.81218 1.85832 0
M  V30 1080 N 106.155 4.90378 1.23948 0
M  V30 1081 C 104.453 3.9042 2.15612 0
M  V30 1082 C 105.154 5.71279 1.09616 0
M  V30 1083 N 104.13 5.19389 1.60423 0
M  V30 1084 H 107.932 2.90749 0.42924 0
M  V30 1085 H 105.446 1.6182 0.137184 0
M  V30 1086 H 107.443 3.0029 2.89192 0
M  V30 1087 H 106.103 1.84736 2.67025 0
M  V30 1088 H 107.114 5.09847 0.909731 0
M  V30 1089 H 103.791 3.21043 2.66903 0
M  V30 1090 H 105.181 6.69085 0.614425 0
M  V30 1091 N 107.901 -0.206675 1.56239 0
M  V30 1092 C 108.831 -1.25909 1.96645 0
M  V30 1093 C 109.812 -1.48097 0.836734 0
M  V30 1094 O 110.997 -1.6003 1.10019 0
M  V30 1095 C 108.127 -2.6058 2.29599 0
M  V30 1096 C 107.081 -2.53024 3.452 0
M  V30 1097 C 106.407 -3.91861 3.63798 0
M  V30 1098 C 107.707 -2.06524 4.79734 0
M  V30 1099 H 109.401 -0.923369 2.84806 0
M  V30 1100 H 106.947 -0.442735 1.37025 0
M  V30 1101 H 108.9 -3.34375 2.56459 0
M  V30 1102 H 107.624 -2.95869 1.38307 0
M  V30 1103 H 106.283 -1.81684 3.18412 0
M  V30 1104 H 105.931 -4.24483 2.69857 0
M  V30 1105 H 105.631 -3.87683 4.4156 0
M  V30 1106 H 107.155 -4.67296 3.93022 0
M  V30 1107 H 108.569 -2.70072 5.05702 0
M  V30 1108 H 106.966 -2.13374 5.60885 0
M  V30 1109 H 108.036 -1.01802 4.74093 0
M  V30 1110 N 109.379 -1.50304 -0.473955 0
M  V30 1111 C 110.795 -1.37667 -0.807466 0
M  V30 1112 C 110.995 -0.430555 -1.96846 0
M  V30 1113 O 110.051 0.127874 -2.52176 0
M  V30 1114 C 111.364 -2.78974 -1.12223 0
M  V30 1115 C 112.912 -2.87868 -1.22885 0
M  V30 1116 C 113.387 -4.30003 -1.57676 0
M  V30 1117 N 114.878 -4.3294 -1.64673 0
M  V30 1118 C 115.613 -5.3991 -1.93091 0
M  V30 1119 N 115.109 -6.57092 -2.1955 0
M  V30 1120 N 116.902 -5.27351 -1.94569 0
M  V30 1121 H 109.053 -2.10394 0.291212 0
M  V30 1122 H 111.316 -0.945575 0.0677609 0
M  V30 1123 H 111.022 -3.50031 -0.342229 0
M  V30 1124 H 110.896 -3.16038 -2.05913 0
M  V30 1125 H 113.283 -2.17032 -1.99953 0
M  V30 1126 H 113.364 -2.54352 -0.271814 0
M  V30 1127 H 113.008 -5.01375 -0.81149 0
M  V30 1128 H 112.938 -4.61004 -2.54525 0
M  V30 1129 H 115.429 -3.48441 -1.46277 0
M  V30 1130 H 115.742 -7.34425 -2.405 0
M  V30 1131 H 114.087 -6.60272 -2.16948 0
M  V30 1132 H 117.278 -4.34801 -1.73394 0
M  V30 1133 H 117.451 -6.10805 -2.16381 0
M  V30 1134 N 110.857 0.726932 -1.39834 0
M  V30 1135 C 111.767 1.87131 -1.41489 0
M  V30 1136 C 112.783 1.71239 -0.308757 0
M  V30 1137 O 113.959 1.93701 -0.551529 0
M  V30 1138 C 111.024 3.22811 -1.26468 0
M  V30 1139 C 110.085 3.51039 -2.47124 0
M  V30 1140 C 109.318 4.80245 -2.3281 0
M  V30 1141 O 109.541 5.54537 -1.33585 0
M  V30 1142 O 108.475 5.08554 -3.21957 0
M  V30 1143 H 112.301 1.8869 -2.3797 0
M  V30 1144 H 109.886 0.875837 -1.21035 0
M  V30 1145 H 111.768 4.03877 -1.20255 0
M  V30 1146 H 110.443 3.22005 -0.330862 0
M  V30 1147 H 109.35 2.70027 -2.58914 0
M  V30 1148 H 110.683 3.56632 -3.39227 0
M  V30 1149 N 112.336 1.25143 0.95797 0
M  V30 1150 C 113.561 1.12521 1.74223 0
M  V30 1151 C 113.986 -0.317402 1.85403 0
M  V30 1152 O 113.344 -1.2299 1.33204 0
M  V30 1153 C 113.392 1.78062 3.1357 0
M  V30 1154 O 112.496 1.058 3.98598 0
M  V30 1155 H 111.837 0.39304 0.535178 0
M  V30 1156 H 114.367 1.65641 1.201 0
M  V30 1157 H 114.377 1.84213 3.64046 0
M  V30 1158 H 113.052 2.83021 3.04749 0
M  V30 1159 H 111.629 1.07506 3.57067 0
M  V30 1160 N 113.814 -1.1601 1.06675 0
M  V30 1161 C 114.777 -2.18724 0.685001 0
M  V30 1162 C 115.777 -1.58496 -0.271246 0
M  V30 1163 O 116.967 -1.74119 -0.0531156 0
M  V30 1164 C 114.099 -3.40899 0.00853648 0
M  V30 1165 H 115.292 -2.54011 1.59431 0
M  V30 1166 H 112.845 -1.30352 0.862441 0
M  V30 1167 H 113.58 -3.11173 -0.913337 0
M  V30 1168 H 113.365 -3.8587 0.696204 0
M  V30 1169 H 114.855 -4.16886 -0.24414 0
M  V30 1170 N 115.292 -0.849877 -1.32721 0
M  V30 1171 C 116.54 -0.450032 -1.97026 0
M  V30 1172 C 116.861 0.996604 -1.67609 0
M  V30 1173 O 116.131 1.6958 -0.980786 0
M  V30 1174 H 114.711 -0.163426 -0.728904 0
M  V30 1175 H 117.373 -1.08526 -1.6189 0
M  V30 1176 H 116.469 -0.591146 -3.0645 0
M  V30 1177 N 116.77 1.45427 -0.607355 0
M  V30 1178 C 118.017 2.02241 -0.102455 0
M  V30 1179 C 118.345 1.4758 1.26691 0
M  V30 1180 O 117.6 0.640468 1.84923 0
M  V30 1181 C 117.899 3.57398 -0.0129263 0
M  V30 1182 C 117.565 4.3121 -1.31792 0
M  V30 1183 C 116.227 4.51092 -1.67539 0
M  V30 1184 C 118.579 4.73401 -2.18039 0
M  V30 1185 C 115.907 5.10422 -2.89285 0
M  V30 1186 C 118.259 5.34078 -3.39034 0
M  V30 1187 C 116.923 5.52184 -3.75033 0
M  V30 1188 H 116.193 0.740051 -0.037491 0
M  V30 1189 H 118.84 1.74494 -0.788926 0
M  V30 1190 H 117.145 3.84421 0.756806 0
M  V30 1191 H 118.842 3.99061 0.393881 0
M  V30 1192 H 115.432 4.16047 -1.02968 0
M  V30 1193 H 119.616 4.57774 -1.91721 0
M  V30 1194 H 114.872 5.22629 -3.17283 0
M  V30 1195 H 119.046 5.65724 -4.06115 0
M  V30 1196 H 116.673 5.97925 -4.69457 0
M  V30 1197 N 118.248 0.346503 1.53744 0
M  V30 1198 C 119.496 -0.248612 2.00565 0
M  V30 1199 C 119.817 -1.5083 1.23593 0
M  V30 1200 O 119.087 -1.92858 0.343912 0
M  V30 1201 H 117.667 -0.0948564 0.740953 0
M  V30 1202 H 120.329 0.468341 1.89189 0
M  V30 1203 H 119.425 -0.488994 3.08245 0
M  V30 1204 N 119.726 -1.57421 0.075193 0
M  V30 1205 C 120.972 -1.94716 -0.587998 0
M  V30 1206 C 121.327 -0.955205 -1.67014 0
M  V30 1207 O 120.62 0.0219842 -1.91587 0
M  V30 1208 C 120.814 -3.36428 -1.20626 0
M  V30 1209 C 120.643 -4.49317 -0.185541 0
M  V30 1210 C 119.413 -5.04772 0.23099 0
M  V30 1211 C 121.611 -5.11036 0.57854 0
M  V30 1212 N 119.593 -6.01204 1.24206 0
M  V30 1213 C 120.964 -6.02998 1.44199 0
M  V30 1214 C 123.019 -4.93844 0.634237 0
M  V30 1215 C 121.722 -6.79614 2.3562 0
M  V30 1216 C 123.748 -5.71106 1.53597 0
M  V30 1217 C 123.11 -6.6272 2.38709 0
M  V30 1218 H 119.209 -0.759536 -0.186089 0
M  V30 1219 H 121.793 -1.94097 0.153128 0
M  V30 1220 H 119.964 -3.37778 -1.9173 0
M  V30 1221 H 121.696 -3.60951 -1.8302 0
M  V30 1222 H 118.451 -4.73353 -0.152807 0
M  V30 1223 H 118.875 -6.54119 1.74521 0
M  V30 1224 H 123.517 -4.22799 -0.00960004 0
M  V30 1225 H 121.235 -7.49934 3.01038 0
M  V30 1226 H 124.821 -5.59824 1.58394 0
M  V30 1227 H 123.701 -7.2146 3.07352 0
M  V30 1228 N 121.204 0.198386 -1.56346 0
M  V30 1229 C 122.114 1.2664 -1.97483 0
M  V30 1230 C 123.13 1.49989 -0.882002 0
M  V30 1231 O 124.306 1.62668 -1.18748 0
M  V30 1232 C 121.371 2.59141 -2.30319 0
M  V30 1233 C 120.432 2.43892 -3.53292 0
M  V30 1234 C 119.665 3.70074 -3.84553 0
M  V30 1235 O 119.888 4.74101 -3.1715 0
M  V30 1236 O 118.822 3.658 -4.7799 0
M  V30 1237 H 122.648 0.947304 -2.88548 0
M  V30 1238 H 120.233 0.403123 -1.43859 0
M  V30 1239 H 122.115 3.37352 -2.5253 0
M  V30 1240 H 120.79 2.90684 -1.42423 0
M  V30 1241 H 119.697 1.63803 -3.36332 0
M  V30 1242 H 121.03 2.17282 -4.41644 0
M  V30 1243 N 122.682 1.50554 0.465978 0
M  V30 1244 C 123.929 1.61798 1.21768 0
M  V30 1245 C 124.257 0.320696 1.91838 0
M  V30 1246 O 123.512 -0.693724 1.82992 0
M  V30 1247 C 123.811 2.75152 2.28093 0
M  V30 1248 C 123.477 4.15454 1.75239 0
M  V30 1249 C 122.139 4.53628 1.60546 0
M  V30 1250 C 124.491 5.03121 1.36083 0
M  V30 1251 C 121.819 5.77204 1.05128 0
M  V30 1252 C 124.171 6.27249 0.821056 0
M  V30 1253 C 122.835 6.64221 0.660795 0
M  V30 1254 H 122.105 0.592063 0.445582 0
M  V30 1255 H 124.752 1.84503 0.512927 0
M  V30 1256 H 123.057 2.46556 3.04496 0
M  V30 1257 H 124.754 2.81055 2.86023 0
M  V30 1258 H 121.344 3.85341 1.87644 0
M  V30 1259 H 125.528 4.74257 1.46267 0
M  V30 1260 H 120.784 6.0452 0.91462 0
M  V30 1261 H 124.958 6.94537 0.509018 0
M  V30 1262 H 122.585 7.59854 0.229226 0
M  V30 1263 N 124.16 -0.719506 1.40217 0
M  V30 1264 C 125.437 -1.47221 1.28784 0
M  V30 1265 C 125.817 -2.10883 -0.0956067 0
M  V30 1266 O 125.165 -1.99833 -1.10811 0
M  V30 1267 C 125.375 -2.5111 2.42373 0
M  V30 1268 C 126.723 -3.17053 2.82423 0
M  V30 1269 O 127.747 -2.61429 2.41937 0
M  V30 1270 O 126.606 -4.17742 3.52355 0
M  V30 1271 H 123.7 -0.654491 0.50554 0
M  V30 1272 H 126.246 -0.752014 1.52128 0
M  V30 1273 H 125.018 -2.02556 3.34793 0
M  V30 1274 H 124.641 -3.3067 2.20778 0
M  V30 1275 N 125.638 -1.25649 -0.95132 0
M  V30 1276 C 127.054 -1.02542 -1.223 0
M  V30 1277 C 127.254 0.255715 -1.99871 0
M  V30 1278 O 126.31 0.967558 -2.33226 0
M  V30 1279 C 127.623 -2.25065 -1.99415 0
M  V30 1280 C 129.171 -2.29861 -2.12446 0
M  V30 1281 C 129.646 -3.52048 -2.92961 0
M  V30 1282 N 131.137 -3.52465 -3.00538 0
M  V30 1283 C 131.872 -4.43672 -3.63239 0
M  V30 1284 N 131.368 -5.45157 -4.27523 0
M  V30 1285 N 133.161 -4.31346 -3.60412 0
M  V30 1286 H 125.312 -2.07951 -0.432471 0
M  V30 1287 H 127.575 -0.91339 -0.253816 0
M  V30 1288 H 127.281 -3.18194 -1.49817 0
M  V30 1289 H 127.155 -2.28502 -3.00111 0
M  V30 1290 H 129.542 -1.37252 -2.61239 0
M  V30 1291 H 129.623 -2.3044 -1.11044 0
M  V30 1292 H 129.267 -4.44981 -2.44856 0
M  V30 1293 H 129.197 -3.48715 -3.94596 0
M  V30 1294 H 131.688 -2.79056 -2.54826 0
M  V30 1295 H 132.001 -6.10958 -4.73234 0
M  V30 1296 H 130.346 -5.49025 -4.26141 0
M  V30 1297 H 133.537 -3.51288 -3.09377 0
M  V30 1298 H 133.71 -5.02624 -4.0899 0
M  V30 1299 N 127.117 1.15442 -1.07289 0
M  V30 1300 C 128.345 1.90096 -0.81676 0
M  V30 1301 C 128.76 1.7798 0.629966 0
M  V30 1302 O 128.117 1.1313 1.43206 0
M  V30 1303 C 128.168 3.40466 -1.21512 0
M  V30 1304 O 127.889 3.52232 -2.60508 0
M  V30 1305 C 129.39 4.32145 -0.988198 0
M  V30 1306 H 126.61 0.602495 -0.295366 0
M  V30 1307 H 129.154 1.4627 -1.42918 0
M  V30 1308 H 127.309 3.81958 -0.647039 0
M  V30 1309 H 127.723 4.45549 -2.76742 0
M  V30 1310 H 129.197 5.36072 -1.31645 0
M  V30 1311 H 129.674 4.39135 0.0755063 0
M  V30 1312 H 130.28 3.96395 -1.54115 0
M  V30 1313 N 128.595 0.856903 1.32268 0
M  V30 1314 C 129.823 0.475439 2.01363 0
M  V30 1315 C 130.238 -0.928486 1.64392 0
M  V30 1316 O 129.595 -1.60624 0.866387 0
M  V30 1317 C 129.646 0.607545 3.56358 0
M  V30 1318 O 129.367 1.95617 3.92002 0
M  V30 1319 C 130.868 0.225382 4.42727 0
M  V30 1320 H 128.088 0.186636 0.644521 0
M  V30 1321 H 130.632 1.15446 1.68797 0
M  V30 1322 H 128.787 -0.0237719 3.87393 0
M  V30 1323 H 129.201 1.95455 4.86721 0
M  V30 1324 H 130.675 0.368813 5.50767 0
M  V30 1325 H 131.152 -0.834369 4.31202 0
M  V30 1326 H 131.758 0.831864 4.17085 0
M  V30 1327 N 130.073 -1.45103 0.615059 0
M  V30 1328 C 131.003 -2.33339 -0.0865619 0
M  V30 1329 C 131.984 -1.4727 -0.851209 0
M  V30 1330 O 133.169 -1.76026 -0.820281 0
M  V30 1331 C 130.299 -3.30095 -1.07956 0
M  V30 1332 C 129.253 -4.25858 -0.427628 0
M  V30 1333 C 128.579 -5.12361 -1.5294 0
M  V30 1334 C 129.879 -5.18165 0.655944 0
M  V30 1335 H 131.573 -2.92254 0.650224 0
M  V30 1336 H 129.119 -1.40532 0.314138 0
M  V30 1337 H 131.072 -3.90698 -1.57901 0
M  V30 1338 H 129.796 -2.69355 -1.84703 0
M  V30 1339 H 128.455 -3.66564 0.0510292 0
M  V30 1340 H 128.103 -4.47984 -2.28734 0
M  V30 1341 H 127.803 -5.77238 -1.09865 0
M  V30 1342 H 129.327 -5.75833 -2.03098 0
M  V30 1343 H 130.741 -5.72796 0.240257 0
M  V30 1344 H 129.138 -5.91559 1.00888 0
M  V30 1345 H 130.208 -4.60144 1.52957 0
M  V30 1346 N 131.551 -0.354651 -1.53558 0
M  V30 1347 C 132.967 -0.00315426 -1.596 0
M  V30 1348 C 133.167 1.47741 -1.37021 0
M  V30 1349 O 132.223 2.23759 -1.16996 0
M  V30 1350 C 133.536 -0.44929 -2.97325 0
M  V30 1351 C 135.084 -0.402578 -3.104 0
M  V30 1352 C 135.559 -0.824355 -4.5052 0
M  V30 1353 N 137.05 -0.778979 -4.56603 0
M  V30 1354 C 137.785 -1.07715 -5.63192 0
M  V30 1355 N 137.281 -1.44405 -6.77583 0
M  V30 1356 N 139.074 -1.00066 -5.53121 0
M  V30 1357 H 131.225 -1.31893 -1.66487 0
M  V30 1358 H 133.488 -0.538388 -0.780284 0
M  V30 1359 H 133.194 -1.48202 -3.1895 0
M  V30 1360 H 133.068 0.169772 -3.76818 0
M  V30 1361 H 135.455 0.621004 -2.88492 0
M  V30 1362 H 135.536 -1.05699 -2.32941 0
M  V30 1363 H 135.18 -1.846 -4.73165 0
M  V30 1364 H 135.11 -0.147304 -5.26394 0
M  V30 1365 H 137.601 -0.508528 -3.74463 0
M  V30 1366 H 137.914 -1.65612 -7.54846 0
M  V30 1367 H 136.259 -1.4826 -6.79002 0
M  V30 1368 H 139.45 -0.713293 -4.62633 0
M  V30 1369 H 139.623 -1.23638 -6.36096 0
M  V30 1370 N 133.029 1.57378 -0.0835403 0
M  V30 1371 C 133.992 2.12252 0.864959 0
M  V30 1372 C 134.992 1.04916 1.21858 0
M  V30 1373 O 136.182 1.30853 1.14991 0
M  V30 1374 C 133.314 2.63358 2.16461 0
M  V30 1375 H 134.507 2.97371 0.388676 0
M  V30 1376 H 132.06 1.55423 0.165317 0
M  V30 1377 H 132.795 1.81727 2.686 0
M  V30 1378 H 132.58 3.41826 1.92087 0
M  V30 1379 H 134.07 3.05847 2.84337 0
M  V30 1380 N 134.507 -0.190092 1.56449 0
M  V30 1381 C 135.417 -1.25591 1.98152 0
M  V30 1382 C 136.433 -1.49519 0.889944 0
M  V30 1383 O 137.609 -1.62036 1.19609 0
M  V30 1384 C 134.674 -2.57916 2.3169 0
M  V30 1385 C 133.735 -2.42015 3.5458 0
M  V30 1386 C 132.968 -3.6803 3.8651 0
M  V30 1387 O 133.191 -4.72413 3.1966 0
M  V30 1388 O 132.125 -3.6326 4.79923 0
M  V30 1389 H 135.951 -0.931988 2.89046 0
M  V30 1390 H 133.536 -0.395488 1.4407 0
M  V30 1391 H 135.418 -3.36008 2.54316 0
M  V30 1392 H 134.093 -2.89925 1.43963 0
M  V30 1393 H 133 -1.62017 3.37196 0
M  V30 1394 H 134.333 -2.14937 4.4279 0
M  V30 1395 N 135.985 -1.50799 -0.457987 0
M  V30 1396 C 137.231 -1.63648 -1.20792 0
M  V30 1397 C 137.586 -0.338662 -1.89396 0
M  V30 1398 O 136.879 0.664291 -1.79716 0
M  V30 1399 C 137.073 -2.76358 -2.2663 0
M  V30 1400 C 136.902 -4.16974 -1.68411 0
M  V30 1401 C 135.672 -4.83199 -1.47807 0
M  V30 1402 C 137.87 -5.00774 -1.17176 0
M  V30 1403 N 135.852 -6.07991 -0.849692 0
M  V30 1404 C 137.223 -6.16397 -0.667403 0
M  V30 1405 C 139.278 -4.86452 -1.06155 0
M  V30 1406 C 137.981 -7.19272 -0.0636908 0
M  V30 1407 C 140.007 -5.89515 -0.471759 0
M  V30 1408 C 139.369 -7.04397 0.0221557 0
M  V30 1409 H 135.468 -0.652888 -0.43042 0
M  V30 1410 H 138.052 -1.87962 -0.507785 0
M  V30 1411 H 136.223 -2.53744 -2.94056 0
M  V30 1412 H 137.955 -2.78496 -2.93636 0
M  V30 1413 H 134.71 -4.40714 -1.73403 0
M  V30 1414 H 135.134 -6.74733 -0.553537 0
M  V30 1415 H 139.776 -3.97907 -1.42932 0
M  V30 1416 H 137.494 -8.07481 0.316253 0
M  V30 1417 H 141.08 -5.805 -0.388671 0
M  V30 1418 H 139.96 -7.82782 0.471375 0
M  V30 1419 N 137.463 0.71206 -1.40597 0
M  V30 1420 C 138.41 1.82613 -1.41142 0
M  V30 1421 C 139.38 1.63925 -0.267903 0
M  V30 1422 O 140.565 1.85009 -0.466495 0
M  V30 1423 C 137.705 3.20354 -1.28324 0
M  V30 1424 C 136.818 3.50589 -2.52411 0
M  V30 1425 C 135.953 4.77855 -2.32009 0
M  V30 1426 C 134.992 5.01005 -3.51654 0
M  V30 1427 N 134.129 6.19487 -3.30425 0
M  V30 1428 H 138.969 1.81482 -2.36365 0
M  V30 1429 H 136.506 0.886475 -1.17388 0
M  V30 1430 H 138.464 3.99899 -1.18899 0
M  V30 1431 H 137.094 3.20705 -0.367189 0
M  V30 1432 H 136.146 2.65573 -2.72351 0
M  V30 1433 H 137.458 3.63604 -3.41458 0
M  V30 1434 H 136.612 5.65424 -2.19956 0
M  V30 1435 H 135.351 4.67056 -1.40392 0
M  V30 1436 H 134.356 4.1189 -3.64179 0
M  V30 1437 H 135.581 5.13674 -4.44202 0
M  V30 1438 H 133.527 6.09932 -2.41494 0
M  V30 1439 H 133.444 6.33194 -4.13039 0
M  V30 1440 H 134.712 7.09834 -3.22113 0
M  V30 1441 N 138.941 1.26152 0.944643 0
M  V30 1442 C 139.888 1.07408 2.04285 0
M  V30 1443 C 140.858 -0.0198413 1.66088 0
M  V30 1444 O 142.043 0.139264 1.90291 0
M  V30 1445 C 139.183 0.70945 3.37729 0
M  V30 1446 C 138.296 1.87926 3.88983 0
M  V30 1447 C 137.431 1.45807 5.10797 0
M  V30 1448 C 136.47 2.5964 5.54305 0
M  V30 1449 N 135.607 2.18226 6.67324 0
M  V30 1450 H 140.447 2.01389 2.1965 0
M  V30 1451 H 137.984 1.00275 1.07626 0
M  V30 1452 H 139.942 0.478948 4.14442 0
M  V30 1453 H 138.572 -0.193389 3.2222 0
M  V30 1454 H 137.624 2.22279 3.08701 0
M  V30 1455 H 138.936 2.73377 4.17213 0
M  V30 1456 H 138.09 1.18781 5.94959 0
M  V30 1457 H 136.829 0.574414 4.84305 0
M  V30 1458 H 135.834 2.87399 4.68702 0
M  V30 1459 H 137.059 3.48599 5.828 0
M  V30 1460 H 135.005 1.3229 6.42523 0
M  V30 1461 H 134.922 2.97221 6.95123 0
M  V30 1462 H 136.19 1.94403 7.54869 0
M  V30 1463 N 140.419 -1.14872 1.07899 0
M  V30 1464 C 141.349 -2.2193 0.725887 0
M  V30 1465 C 142.33 -1.67622 -0.28927 0
M  V30 1466 O 143.515 -1.93533 -0.160787 0
M  V30 1467 C 140.645 -3.47061 0.128856 0
M  V30 1468 C 139.599 -4.14363 1.07178 0
M  V30 1469 C 138.925 -5.33636 0.337229 0
M  V30 1470 C 140.225 -4.63492 2.40775 0
M  V30 1471 H 141.919 -2.51724 1.62097 0
M  V30 1472 H 139.465 -1.20991 0.780838 0
M  V30 1473 H 141.418 -4.21199 -0.130147 0
M  V30 1474 H 140.142 -3.16617 -0.80134 0
M  V30 1475 H 138.801 -3.42173 1.3158 0
M  V30 1476 H 138.449 -4.99449 -0.596606 0
M  V30 1477 H 138.149 -5.79609 0.965788 0
M  V30 1478 H 139.673 -6.10539 0.0861567 0
M  V30 1479 H 141.087 -5.2913 2.20669 0
M  V30 1480 H 139.484 -5.20148 2.99276 0
M  V30 1481 H 140.554 -3.78834 3.02676 0
M  V30 1482 N 141.898 -0.863906 -1.31812 0
M  V30 1483 C 143.147 -0.46801 -1.96195 0
M  V30 1484 C 143.46 0.983474 -1.69077 0
M  V30 1485 O 144.666 1.48523 -2.27273 0
M  V30 1486 C 143.122 -0.785995 -3.51212 0
M  V30 1487 C 142.73 -2.25383 -3.87178 0
M  V30 1488 C 144.474 -0.458274 -4.22019 0
M  V30 1489 C 142.381 -2.51455 -5.3528 0
M  V30 1490 H 141.311 -0.171283 -0.734287 0
M  V30 1491 H 143.962 -1.05597 -1.50072 0
M  V30 1492 H 142.344 -0.127359 -3.95795 0
M  V30 1493 H 143.518 -2.95502 -3.53575 0
M  V30 1494 H 141.833 -2.54698 -3.2942 0
M  V30 1495 H 144.43 -0.630369 -5.30971 0
M  V30 1496 H 144.773 0.600834 -4.11941 0
M  V30 1497 H 145.306 -1.07319 -3.8305 0
M  V30 1498 H 142.045 -3.56025 -5.50387 0
M  V30 1499 H 141.565 -1.85923 -5.70257 0
M  V30 1500 H 143.244 -2.35874 -6.02472 0
M  V30 1501 N 143.376 1.44774 -0.622745 0
M  V30 1502 C 144.339 2.29069 0.0774015 0
M  V30 1503 C 145.339 1.4059 0.780461 0
M  V30 1504 O 146.529 1.62551 0.626322 0
M  V30 1505 C 143.661 3.21974 1.12006 0
M  V30 1506 H 144.854 2.92459 -0.663901 0
M  V30 1507 H 142.407 1.51548 -0.382486 0
M  V30 1508 H 143.142 2.63417 1.89162 0
M  V30 1509 H 142.927 3.87168 0.619951 0
M  V30 1510 H 144.417 3.85318 1.60995 0
M  V30 1511 N 144.854 0.36279 1.53368 0
M  V30 1512 C 146.1 -0.228113 2.01513 0
M  V30 1513 C 146.433 -1.48648 1.2497 0
M  V30 1514 O 145.708 -1.91459 0.342616 0
M  V30 1515 C 145.991 -0.522884 3.56284 0
M  V30 1516 C 145.844 0.74892 4.43521 0
M  V30 1517 C 147.163 -1.32461 4.19693 0
M  V30 1518 H 144.282 -0.0814343 0.732487 0
M  V30 1519 H 146.924 0.48713 1.83649 0
M  V30 1520 H 145.074 -1.1322 3.71636 0
M  V30 1521 H 146.746 1.38648 4.39971 0
M  V30 1522 H 144.989 1.36986 4.11603 0
M  V30 1523 H 145.66 0.497667 5.49752 0
M  V30 1524 H 148.136 -0.809203 4.08156 0
M  V30 1525 H 147.012 -1.49961 5.28018 0
M  V30 1526 H 147.273 -2.33232 3.75573 0
M  V30 1527 N 146.332 -1.57332 0.0918853 0
M  V30 1528 C 147.279 -2.13847 -0.868211 0
M  V30 1529 C 148.249 -1.05618 -1.28196 0
M  V30 1530 O 149.434 -1.33387 -1.36427 0
M  V30 1531 C 146.574 -2.72062 -2.12312 0
M  V30 1532 C 145.687 -3.94514 -1.7602 0
M  V30 1533 C 144.822 -4.40903 -2.96273 0
M  V30 1534 C 143.861 -5.55953 -2.56092 0
M  V30 1535 N 142.998 -5.97209 -3.69169 0
M  V30 1536 H 147.838 -2.95575 -0.379406 0
M  V30 1537 H 145.375 -1.46048 -0.175606 0
M  V30 1538 H 147.333 -3.03931 -2.858 0
M  V30 1539 H 145.963 -1.93068 -2.58698 0
M  V30 1540 H 145.015 -3.68979 -0.925135 0
M  V30 1541 H 146.327 -4.7802 -1.42472 0
M  V30 1542 H 145.481 -4.74539 -3.78018 0
M  V30 1543 H 144.22 -3.56291 -3.33029 0
M  V30 1544 H 143.225 -5.21948 -1.72773 0
M  V30 1545 H 144.45 -6.42311 -2.20484 0
M  V30 1546 H 142.396 -5.15543 -4.05649 0
M  V30 1547 H 142.313 -6.75504 -3.39456 0
M  V30 1548 H 143.581 -6.35475 -4.51434 0
M  V30 1549 N 147.81 0.181792 -1.56548 0
M  V30 1550 C 149.087 0.926765 -1.72251 0
M  V30 1551 C 149.467 2.00831 -0.650386 0
M  V30 1552 O 148.815 2.26008 0.336521 0
M  V30 1553 C 149.025 1.50106 -3.1507 0
M  V30 1554 C 150.373 1.97805 -3.75711 0
M  V30 1555 O 151.397 1.59922 -3.18282 0
M  V30 1556 O 150.256 2.67555 -4.76525 0
M  V30 1557 H 147.35 0.435506 -0.703039 0
M  V30 1558 H 149.896 0.170443 -1.68842 0
M  V30 1559 H 148.668 0.72212 -3.84579 0
M  V30 1560 H 148.291 2.32186 -3.22763 0
M  V30 1561 N 149.288 1.51039 0.449983 0
M  V30 1562 C 150.198 1.74261 1.57067 0
M  V30 1563 C 151.214 0.626363 1.62335 0
M  V30 1564 O 152.39 0.907162 1.79812 0
M  V30 1565 C 149.455 1.85114 2.93144 0
M  V30 1566 C 148.516 3.0893 2.98095 0
M  V30 1567 C 147.749 3.19256 4.27681 0
M  V30 1568 O 147.972 2.35835 5.19363 0
M  V30 1569 O 146.906 4.12144 4.38658 0
M  V30 1570 H 150.732 2.69303 1.40391 0
M  V30 1571 H 148.317 1.35389 0.631688 0
M  V30 1572 H 150.199 1.94311 3.73926 0
M  V30 1573 H 148.874 0.932588 3.09975 0
M  V30 1574 H 147.781 3.0522 2.16314 0
M  V30 1575 H 149.114 4.00433 2.86206 0
M  V30 1576 N 150.766 -0.704594 1.40972 0
M  V30 1577 C 151.729 -1.80035 1.41845 0
M  V30 1578 C 152.729 -1.57774 0.310474 0
M  V30 1579 O 153.919 -1.64613 0.56992 0
M  V30 1580 C 151.051 -3.18284 1.22098 0
M  V30 1581 H 152.244 -1.80658 2.3938 0
M  V30 1582 H 149.797 -0.911329 1.26982 0
M  V30 1583 H 150.532 -3.23306 0.253672 0
M  V30 1584 H 150.317 -3.35843 2.02366 0
M  V30 1585 H 151.807 -3.98289 1.25522 0
M  V30 1586 N 152.244 -1.26651 -0.937939 0
M  V30 1587 C 153.49 -1.12553 -1.687 0
M  V30 1588 C 153.823 0.329782 -1.91379 0
M  V30 1589 O 153.098 1.24202 -1.4968 0
M  V30 1590 C 153.381 -1.89862 -3.05981 0
M  V30 1591 C 153.234 -3.43318 -2.90607 0
M  V30 1592 C 154.553 -1.69499 -4.0615 0
M  V30 1593 H 151.672 -0.410257 -0.612257 0
M  V30 1594 H 154.314 -1.55685 -1.08913 0
M  V30 1595 H 152.464 -1.53204 -3.57017 0
M  V30 1596 H 154.136 -3.89747 -2.46769 0
M  V30 1597 H 152.379 -3.70179 -2.26164 0
M  V30 1598 H 153.05 -3.92642 -3.8799 0
M  V30 1599 H 155.526 -2.01442 -3.64088 0
M  V30 1600 H 154.402 -2.26002 -5.00214 0
M  V30 1601 H 154.663 -0.640365 -4.37438 0
M  V30 1602 N 153.722 1.14298 -1.08507 0
M  V30 1603 C 154.652 2.21542 -0.737646 0
M  V30 1604 C 155.633 1.67773 0.280377 0
M  V30 1605 O 156.818 1.93616 0.150521 0
M  V30 1606 C 153.948 3.46988 -0.147259 0
M  V30 1607 C 152.902 4.13789 -1.09374 0
M  V30 1608 C 152.228 5.33449 -0.365524 0
M  V30 1609 C 153.528 4.62208 -2.4323 0
M  V30 1610 H 155.222 2.5086 -1.6343 0
M  V30 1611 H 152.768 1.20576 -0.787243 0
M  V30 1612 H 154.721 4.21262 0.107808 0
M  V30 1613 H 153.445 3.17037 0.784538 0
M  V30 1614 H 152.104 3.4147 -1.33393 0
M  V30 1615 H 151.752 4.99759 0.57011 0
M  V30 1616 H 151.452 5.79088 -0.996512 0
M  V30 1617 H 152.976 6.10485 -0.118534 0
M  V30 1618 H 154.39 5.27952 -2.23472 0
M  V30 1619 H 152.787 5.18553 -3.02031 0
M  V30 1620 H 153.857 3.77224 -3.04681 0
M  V30 1621 N 155.201 0.870884 1.31352 0
M  V30 1622 C 156.149 0.316445 2.30437 0
M  V30 1623 C 157.143 -0.568965 1.59559 0
M  V30 1624 O 158.349 -0.454964 1.74155 0
M  V30 1625 H 154.724 0.0836521 0.747333 0
M  V30 1626 H 156.695 1.16606 2.74673 0
M  V30 1627 C 155.444 -0.46635 3.44558 0
M  V30 1628 H 154.767 0.205687 3.99271 0
M  V30 1629 H 156.207 -0.819614 4.16003 0
M  V30 1630 C 154.666 -1.65797 2.9328 0
M  V30 1631 O 155.196 -2.75728 2.92125 0
M  V30 1632 N 153.402 -1.49041 2.4947 0
M  V30 1633 H 152.949 -0.59612 2.50608 0
M  V30 1634 H 152.907 -2.28911 2.15516 0
M  V30 1635 N 156.679 -1.44442 0.630414 0
M  V30 1636 C 157.928 -2.01267 0.132073 0
M  V30 1637 C 158.241 -1.50172 -1.25331 0
M  V30 1638 O 159.447 -1.9912 -1.84562 0
M  V30 1639 C 157.903 -3.59422 0.185362 0
M  V30 1640 C 157.511 -4.19514 1.57201 0
M  V30 1641 C 159.255 -4.23724 -0.256553 0
M  V30 1642 C 157.162 -5.69891 1.58045 0
M  V30 1643 H 156.092 -0.752619 0.0456092 0
M  V30 1644 H 158.743 -1.65666 0.789106 0
M  V30 1645 H 157.125 -3.92318 -0.538759 0
M  V30 1646 H 158.299 -3.98156 2.31966 0
M  V30 1647 H 156.614 -3.67496 1.95795 0
M  V30 1648 H 159.211 -5.34019 -0.269767 0
M  V30 1649 H 159.554 -3.96013 -1.28372 0
M  V30 1650 H 160.087 -3.95629 0.41505 0
M  V30 1651 H 156.826 -6.02336 2.58597 0
M  V30 1652 H 156.346 -5.93373 0.875725 0
M  V30 1653 H 158.025 -6.33515 1.31408 0
M  V30 1654 N 158.157 -0.370918 -1.53173 0
M  V30 1655 C 159.105 0.488101 -2.27421 0
M  V30 1656 C 160.099 1.07884 -1.30604 0
M  V30 1657 O 161.305 1.02143 -1.48212 0
M  V30 1658 H 157.68 0.176134 -0.731082 0
M  V30 1659 H 159.651 -0.159815 -2.97972 0
M  V30 1660 C 158.4 1.61306 -3.08019 0
M  V30 1661 H 157.723 1.1678 -3.82364 0
M  V30 1662 H 159.163 2.18872 -3.63141 0
M  V30 1663 C 157.622 2.55848 -2.19188 0
M  V30 1664 O 158.152 3.58799 -1.80626 0
M  V30 1665 N 156.358 2.2516 -1.83715 0
M  V30 1666 H 155.905 1.41476 -2.15273 0
M  V30 1667 H 155.863 2.8867 -1.24567 0
M  V30 1668 N 159.635 1.57281 -0.100228 0
M  V30 1669 C 160.582 2.14305 0.856858 0
M  V30 1670 C 161.552 1.06296 1.27634 0
M  V30 1671 O 162.737 1.34109 1.35718 0
M  V30 1672 C 159.877 2.73184 2.10866 0
M  V30 1673 C 158.99 3.95442 1.73925 0
M  V30 1674 C 158.125 4.42468 2.93931 0
M  V30 1675 C 157.164 5.57303 2.5314 0
M  V30 1676 N 156.301 5.99158 3.65997 0
M  V30 1677 H 161.141 2.95772 0.363726 0
M  V30 1678 H 158.678 1.46139 0.167858 0
M  V30 1679 H 160.636 3.05442 2.84185 0
M  V30 1680 H 159.266 1.94437 2.57671 0
M  V30 1681 H 158.318 3.69464 0.905554 0
M  V30 1682 H 159.63 4.78769 1.39935 0
M  V30 1683 H 158.784 4.76537 3.75496 0
M  V30 1684 H 157.523 3.58052 3.31134 0
M  V30 1685 H 156.528 5.22857 1.70003 0
M  V30 1686 H 157.753 6.43471 2.17075 0
M  V30 1687 H 155.699 5.17687 4.02909 0
M  V30 1688 H 155.616 6.77295 3.35869 0
M  V30 1689 H 156.884 6.3786 4.48057 0
M  V30 1690 N 161.113 -0.173488 1.56642 0
M  V30 1691 C 162.338 -0.910149 1.86363 0
M  V30 1692 C 162.763 -1.75132 0.686318 0
M  V30 1693 O 162.121 -1.77595 -0.364643 0
M  V30 1694 C 162.169 -1.76447 3.14482 0
M  V30 1695 O 161.273 -2.86584 2.96553 0
M  V30 1696 H 160.614 -0.255086 0.613047 0
M  V30 1697 H 163.144 -0.172283 2.03873 0
M  V30 1698 H 163.154 -2.16483 3.45831 0
M  V30 1699 H 161.829 -1.14658 3.99783 0
M  V30 1700 H 160.406 -2.50146 2.76553 0
M  V30 1701 N 162.591 -1.51276 -0.441967 0
M  V30 1702 C 163.821 -1.67273 -1.21257 0
M  V30 1703 C 164.229 -0.367624 -1.85594 0
M  V30 1704 O 163.572 0.663349 -1.71305 0
M  V30 1705 C 163.634 -2.72807 -2.34129 0
M  V30 1706 C 163.298 -4.1554 -1.90198 0
M  V30 1707 C 164.295 -5.00471 -1.40801 0
M  V30 1708 C 161.98 -4.61616 -1.9803 0
M  V30 1709 C 163.974 -6.29536 -0.998174 0
M  V30 1710 C 161.661 -5.90679 -1.56658 0
M  V30 1711 C 162.659 -6.74466 -1.07633 0
M  V30 1712 O 162.347 -8.01116 -0.668459 0
M  V30 1713 H 162.079 -0.564614 -0.371734 0
M  V30 1714 H 164.633 -1.9843 -0.530521 0
M  V30 1715 H 162.863 -2.36954 -3.05597 0
M  V30 1716 H 164.552 -2.77729 -2.96009 0
M  V30 1717 H 165.318 -4.66079 -1.34148 0
M  V30 1718 H 161.197 -3.96526 -2.35135 0
M  V30 1719 H 164.741 -6.94885 -0.61482 0
M  V30 1720 H 160.638 -6.24586 -1.62979 0
M  V30 1721 H 161.406 -8.14633 -0.794722 0
M  V30 1722 N 164.069 0.697108 -1.41344 0
M  V30 1723 C 164.979 1.84088 -1.45427 0
M  V30 1724 C 165.995 1.70545 -0.34501 0
M  V30 1725 O 167.171 1.92488 -0.592492 0
M  V30 1726 C 164.236 3.20056 -1.33286 0
M  V30 1727 C 163.297 3.45718 -2.54514 0
M  V30 1728 C 162.53 4.75199 -2.42944 0
M  V30 1729 O 162.753 5.51579 -1.45318 0
M  V30 1730 O 161.687 5.0161 -3.32672 0
M  V30 1731 H 165.513 1.836 -2.41919 0
M  V30 1732 H 163.098 0.849966 -1.22866 0
M  V30 1733 H 164.98 4.01236 -1.28794 0
M  V30 1734 H 163.655 3.2123 -0.39909 0
M  V30 1735 H 162.562 2.64474 -2.64583 0
M  V30 1736 H 163.895 3.49356 -3.46715 0
M  V30 1737 N 165.547 1.27147 0.931209 0
M  V30 1738 C 166.457 1.11372 2.06478 0
M  V30 1739 C 167.473 0.044645 1.73943 0
M  V30 1740 O 168.649 0.250417 1.99837 0
M  V30 1741 C 165.714 0.758838 3.38294 0
M  V30 1742 C 164.775 1.90841 3.84549 0
M  V30 1743 C 164.008 1.57036 5.10074 0
M  V30 1744 O 164.231 0.476645 5.68405 0
M  V30 1745 O 163.165 2.40839 5.51616 0
M  V30 1746 H 166.991 2.06493 2.22698 0
M  V30 1747 H 164.576 1.06301 1.04978 0
M  V30 1748 H 166.458 0.574098 4.17471 0
M  V30 1749 H 165.133 -0.162879 3.2329 0
M  V30 1750 H 164.04 2.14819 3.06274 0
M  V30 1751 H 165.373 2.81021 4.04089 0
M  V30 1752 N 167.025 -1.13721 1.09112 0
M  V30 1753 C 167.958 -2.18094 0.67158 0
M  V30 1754 C 168.936 -1.59414 -0.320299 0
M  V30 1755 O 170.12 -1.87183 -0.222444 0
M  V30 1756 C 167.247 -3.38698 -0.0111189 0
M  V30 1757 C 166.293 -4.15966 0.942055 0
M  V30 1758 S 167.126 -4.7604 2.45246 0
M  V30 1759 C 168.282 -5.99994 1.78208 0
M  V30 1760 H 168.515 -2.53344 1.55577 0
M  V30 1761 H 166.048 -1.24967 0.906789 0
M  V30 1762 H 168.006 -4.08559 -0.398716 0
M  V30 1763 H 166.667 -3.01756 -0.871905 0
M  V30 1764 H 165.86 -5.02318 0.411396 0
M  V30 1765 H 165.462 -3.51745 1.2709 0
M  V30 1766 H 167.754 -6.68441 1.10424 0
M  V30 1767 H 168.697 -6.57662 2.62463 0
M  V30 1768 H 169.105 -5.50432 1.25238 0
M  V30 1769 N 168.503 -0.877838 -1.30888 0
M  V30 1770 C 169.75 -0.492696 -1.96415 0
M  V30 1771 C 170.078 0.956671 -1.69346 0
M  V30 1772 O 169.333 1.68993 -0.986913 0
M  V30 1773 C 169.632 -0.705748 -3.50363 0
M  V30 1774 C 169.298 -2.1291 -3.97467 0
M  V30 1775 C 167.96 -2.51834 -4.1004 0
M  V30 1776 C 170.312 -3.05702 -4.22132 0
M  V30 1777 C 167.64 -3.82775 -4.44635 0
M  V30 1778 C 169.992 -4.36166 -4.58194 0
M  V30 1779 C 168.656 -4.74993 -4.68975 0
M  V30 1780 H 167.926 -0.18029 -0.718733 0
M  V30 1781 H 170.573 -1.11233 -1.55883 0
M  V30 1782 H 168.878 -0.00303058 -3.918 0
M  V30 1783 H 170.575 -0.387456 -3.99124 0
M  V30 1784 H 167.165 -1.81694 -3.88182 0
M  V30 1785 H 171.349 -2.76853 -4.11906 0
M  V30 1786 H 166.605 -4.12609 -4.51181 0
M  V30 1787 H 170.779 -5.08111 -4.76231 0
M  V30 1788 H 168.406 -5.76495 -4.95537 0
M  V30 1789 N 169.982 1.44106 -0.638065 0
M  V30 1790 C 171.398 1.56672 -0.304286 0
M  V30 1791 C 171.598 1.6244 1.19228 0
M  V30 1792 O 170.654 1.57121 1.9766 0
M  V30 1793 C 171.967 2.83503 -1.00231 0
M  V30 1794 C 173.515 2.97226 -0.981116 0
M  V30 1795 C 173.99 4.26868 -1.65974 0
M  V30 1796 N 175.481 4.33698 -1.62666 0
M  V30 1797 C 176.216 5.32745 -2.12063 0
M  V30 1798 N 175.712 6.38157 -2.6968 0
M  V30 1799 N 177.505 5.24299 -2.02651 0
M  V30 1800 H 169.656 1.38605 -1.60942 0
M  V30 1801 H 171.919 0.664661 -0.675965 0
M  V30 1802 H 171.625 2.85251 -2.0573 0
M  V30 1803 H 171.499 3.73251 -0.54439 0
M  V30 1804 H 173.886 2.95027 0.0654188 0
M  V30 1805 H 173.967 2.08808 -1.47759 0
M  V30 1806 H 173.611 4.29826 -2.70576 0
M  V30 1807 H 173.541 5.14156 -1.13804 0
M  V30 1808 H 176.032 3.58138 -1.20606 0
M  V30 1809 H 176.345 7.10029 -3.05087 0
M  V30 1810 H 174.69 6.38823 -2.73734 0
M  V30 1811 H 177.881 4.4086 -1.57353 0
M  V30 1812 H 178.054 6.01334 -2.41457 0
M  V30 1813 N 171.46 0.379036 1.52974 0
M  V30 1814 C 172.737 -0.263479 1.93817 0
M  V30 1815 C 173.117 -1.65244 1.31368 0
M  V30 1816 O 172.465 -2.23448 0.477856 0
M  V30 1817 C 172.675 -0.300166 3.47707 0
M  V30 1818 C 174.023 -0.534061 4.21228 0
M  V30 1819 O 175.047 -0.38081 3.54159 0
M  V30 1820 O 173.906 -0.833501 5.40106 0
M  V30 1821 H 171 -0.161149 0.811147 0
M  V30 1822 H 173.546 0.432798 1.64088 0
M  V30 1823 H 172.318 0.673138 3.85467 0
M  V30 1824 H 171.941 -1.04179 3.83709 0
M  V30 1825 N 172.938 -1.57226 0.108567 0
M  V30 1826 C 174.166 -1.99179 -0.559954 0
M  V30 1827 C 174.581 -0.988022 -1.60884 0
M  V30 1828 O 173.938 0.0205512 -1.82488 0
M  V30 1829 C 173.989 -3.41159 -1.19552 0
M  V30 1830 O 173.71 -4.37694 -0.188577 0
M  V30 1831 C 175.211 -3.98188 -1.94837 0
M  V30 1832 H 172.431 -0.654228 -0.149088 0
M  V30 1833 H 174.975 -2.03598 0.19183 0
M  V30 1834 H 173.13 -3.37711 -1.89815 0
M  V30 1835 H 173.544 -5.20469 -0.649014 0
M  V30 1836 H 175.018 -4.99644 -2.34648 0
M  V30 1837 H 175.495 -3.3675 -2.81951 0
M  V30 1838 H 176.101 -4.0515 -1.2936 0
M  V30 1839 N 174.416 0.165178 -1.56732 0
M  V30 1840 C 175.326 1.22423 -2.00125 0
M  V30 1841 C 176.342 1.48084 -0.913619 0
M  V30 1842 O 177.518 1.60112 -1.22172 0
M  V30 1843 C 174.583 2.54197 -2.35764 0
M  V30 1844 C 173.644 2.36343 -3.58386 0
M  V30 1845 C 172.877 3.61834 -3.92316 0
M  V30 1846 O 173.1 4.67267 -3.27135 0
M  V30 1847 O 172.034 3.55579 -4.85641 0
M  V30 1848 H 175.86 0.885886 -2.90492 0
M  V30 1849 H 173.445 0.372518 -1.44681 0
M  V30 1850 H 175.327 3.3192 -2.59629 0
M  V30 1851 H 174.002 2.87598 -1.48557 0
M  V30 1852 H 172.909 1.56632 -3.39731 0
M  V30 1853 H 174.242 2.07865 -4.46154 0
M  V30 1854 N 175.894 1.51508 0.433938 0
M  V30 1855 C 177.142 1.6402 1.18075 0
M  V30 1856 C 177.463 0.360328 1.91642 0
M  V30 1857 O 176.733 -0.623945 1.85698 0
M  V30 1858 H 175.313 0.6045 0.43885 0
M  V30 1859 H 177.975 1.88452 0.497178 0
M  V30 1860 H 177.071 2.46949 1.90847 0
M  V30 1861 N 177.372 -0.689602 1.41712 0
M  V30 1862 C 178.302 -1.81577 1.46806 0
M  V30 1863 C 179.283 -1.66945 0.326105 0
M  V30 1864 O 180.468 -1.86588 0.538377 0
M  V30 1865 C 177.598 -3.19762 1.35535 0
M  V30 1866 C 176.552 -3.49107 2.47605 0
M  V30 1867 C 175.878 -4.86711 2.21397 0
M  V30 1868 C 177.178 -3.47483 3.89939 0
M  V30 1869 H 178.872 -1.7757 2.41058 0
M  V30 1870 H 176.418 -0.852887 1.16025 0
M  V30 1871 H 178.371 -3.98263 1.3771 0
M  V30 1872 H 177.095 -3.24409 0.377708 0
M  V30 1873 H 175.754 -2.72959 2.44722 0
M  V30 1874 H 175.402 -4.8799 1.21961 0
M  V30 1875 H 175.102 -5.0731 2.96497 0
M  V30 1876 H 176.626 -5.67515 2.25297 0
M  V30 1877 H 178.04 -4.1598 3.94505 0
M  V30 1878 H 176.437 -3.79615 4.64771 0
M  V30 1879 H 177.507 -2.46341 4.17665 0
M  V30 1880 N 178.85 -1.27639 -0.924453 0
M  V30 1881 C 179.76 -1.12466 -2.05885 0
M  V30 1882 C 180.776 -0.053869 -1.73917 0
M  V30 1883 O 181.952 -0.261012 -1.99702 0
M  V30 1884 C 179.017 -0.776768 -3.37886 0
M  V30 1885 C 178.078 -1.92878 -3.83532 0
M  V30 1886 C 177.311 -1.59739 -5.09234 0
M  V30 1887 O 177.534 -0.506782 -5.68144 0
M  V30 1888 O 176.468 -2.43761 -5.50331 0
M  V30 1889 H 180.294 -2.07671 -2.21599 0
M  V30 1890 H 177.879 -1.06857 -1.04413 0
M  V30 1891 H 179.761 -0.596229 -4.17161 0
M  V30 1892 H 178.436 0.145732 -3.23372 0
M  V30 1893 H 177.343 -2.1644 -3.0513 0
M  V30 1894 H 178.676 -2.8316 -4.02593 0
M  V30 1895 N 180.328 1.1314 -1.09713 0
M  V30 1896 C 181.575 1.84484 -0.834987 0
M  V30 1897 C 181.903 1.83689 0.639418 0
M  V30 1898 O 181.158 1.2724 1.4869 0
M  V30 1899 C 181.457 3.32167 -1.3191 0
M  V30 1900 C 181.123 3.53139 -2.80363 0
M  V30 1901 C 179.785 3.58571 -3.20905 0
M  V30 1902 C 182.137 3.60866 -3.76065 0
M  V30 1903 C 179.465 3.69267 -4.55916 0
M  V30 1904 C 181.817 3.73089 -5.10869 0
M  V30 1905 C 180.481 3.76775 -5.50996 0
M  V30 1906 H 179.751 0.675073 -0.305544 0
M  V30 1907 H 182.398 1.33554 -1.37243 0
M  V30 1908 H 180.703 3.85469 -0.701517 0
M  V30 1909 H 182.4 3.85821 -1.09284 0
M  V30 1910 H 178.99 3.49569 -2.47991 0
M  V30 1911 H 183.174 3.55946 -3.45855 0
M  V30 1912 H 178.43 3.70388 -4.86438 0
M  V30 1913 H 182.604 3.78011 -5.84877 0
M  V30 1914 H 180.231 3.84815 -6.55608 0
M  V30 1915 N 181.806 0.884767 1.30421 0
M  V30 1916 C 183.053 0.503105 1.96151 0
M  V30 1917 C 183.381 -0.947676 1.69851 0
M  V30 1918 O 182.636 -1.68467 0.995861 0
M  V30 1919 C 182.935 0.724318 3.49983 0
M  V30 1920 C 182.601 2.15015 3.96332 0
M  V30 1921 C 181.263 2.54005 4.08699 0
M  V30 1922 C 183.615 3.07936 4.20505 0
M  V30 1923 C 180.943 3.85128 4.42599 0
M  V30 1924 C 183.295 4.3859 4.55874 0
M  V30 1925 C 181.959 4.77474 4.66449 0
M  V30 1926 H 181.229 0.184099 0.717766 0
M  V30 1927 H 183.876 1.12058 1.55291 0
M  V30 1928 H 182.181 0.0238086 3.91793 0
M  V30 1929 H 183.878 0.408617 3.98913 0
M  V30 1930 H 180.468 1.8375 3.87213 0
M  V30 1931 H 184.652 2.79033 4.10431 0
M  V30 1932 H 179.908 4.14996 4.48986 0
M  V30 1933 H 184.082 5.10629 4.7353 0
M  V30 1934 H 181.709 5.79115 4.92473 0
M  V30 1935 N 183.284 -1.43765 0.645699 0
M  V30 1936 C 184.214 -2.33471 -0.0370477 0
M  V30 1937 C 185.195 -1.49042 -0.819779 0
M  V30 1938 O 186.38 -1.77726 -0.782758 0
M  V30 1939 C 183.51 -3.32311 -1.0093 0
M  V30 1940 C 182.464 -4.2667 -0.337201 0
M  V30 1941 C 181.79 -5.1549 -1.42037 0
M  V30 1942 C 183.09 -5.16657 0.765706 0
M  V30 1943 H 184.784 -2.90809 0.712069 0
M  V30 1944 H 182.33 -1.39834 0.343876 0
M  V30 1945 H 184.283 -3.9396 -1.49578 0
M  V30 1946 H 183.007 -2.73213 -1.78948 0
M  V30 1947 H 181.666 -3.66374 0.128771 0
M  V30 1948 H 181.314 -4.52735 -2.1918 0
M  V30 1949 H 181.014 -5.79438 -0.975966 0
M  V30 1950 H 182.538 -5.80012 -1.90838 0
M  V30 1951 H 183.952 -5.72158 0.361702 0
M  V30 1952 H 182.349 -5.89286 1.13413 0
M  V30 1953 H 183.419 -4.56796 1.62683 0
M  V30 1954 N 184.763 -0.387143 -1.52771 0
M  V30 1955 C 186.011 0.195349 -2.01154 0
M  V30 1956 C 186.332 1.475 -1.27549 0
M  V30 1957 O 185.602 1.91878 -0.394924 0
M  V30 1958 H 184.182 0.075178 -0.743207 0
M  V30 1959 H 186.844 -0.518337 -1.87881 0
M  V30 1960 H 185.94 0.407096 -3.09434 0
M  V30 1961 N 186.241 1.57166 -0.116904 0
M  V30 1962 C 187.487 1.96206 0.536166 0
M  V30 1963 C 187.842 0.99915 1.64422 0
M  V30 1964 O 187.135 0.0288195 1.91578 0
M  V30 1965 C 187.329 3.39508 1.11664 0
M  V30 1966 C 187.158 4.49651 0.0663474 0
M  V30 1967 C 185.928 5.03982 -0.36474 0
M  V30 1968 C 188.126 5.09322 -0.713829 0
M  V30 1969 N 186.108 5.97699 -1.40102 0
M  V30 1970 C 187.479 5.98963 -1.60136 0
M  V30 1971 C 189.534 4.91989 -0.764948 0
M  V30 1972 C 188.237 6.73128 -2.53556 0
M  V30 1973 C 190.263 5.66833 -1.68685 0
M  V30 1974 C 189.625 6.56158 -2.56196 0
M  V30 1975 H 185.724 0.764203 0.165886 0
M  V30 1976 H 188.308 1.93623 -0.204535 0
M  V30 1977 H 186.479 3.42743 1.82707 0
M  V30 1978 H 188.211 3.65677 1.73386 0
M  V30 1979 H 184.966 4.73592 0.027252 0
M  V30 1980 H 185.39 6.49262 -1.91802 0
M  V30 1981 H 190.032 4.22676 -0.102501 0
M  V30 1982 H 187.75 7.41689 -3.20816 0
M  V30 1983 H 191.336 5.55427 -1.73181 0
M  V30 1984 H 190.216 7.13057 -3.26372 0
M  V30 1985 N 187.719 -0.156864 1.56817 0
M  V30 1986 C 188.967 -0.869404 1.82444 0
M  V30 1987 C 189.288 -1.82147 0.69623 0
M  V30 1988 O 188.558 -1.93847 -0.28287 0
M  V30 1989 H 187.138 -0.324043 0.673056 0
M  V30 1990 H 189.8 -0.153224 1.94297 0
M  V30 1991 H 188.896 -1.43761 2.77019 0
M  V30 1992 N 189.197 -1.51736 -0.425897 0
M  V30 1993 C 190.422 -1.69082 -1.20108 0
M  V30 1994 C 190.847 -0.392398 -1.83962 0
M  V30 1995 O 190.205 0.64858 -1.69302 0
M  V30 1996 C 190.253 -2.81604 -2.25237 0
M  V30 1997 O 189.357 -2.46004 -3.30992 0
M  V30 1998 H 188.698 -0.563408 -0.35138 0
M  V30 1999 H 191.228 -1.98358 -0.501512 0
M  V30 2000 H 191.238 -3.06025 -2.69838 0
M  V30 2001 H 189.913 -3.75817 -1.78142 0
M  V30 2002 H 188.49 -2.32195 -2.91787 0
M  V30 2003 N 190.675 0.682077 -1.42076 0
M  V30 2004 C 191.605 1.80796 -1.47767 0
M  V30 2005 C 192.586 1.6677 -0.334954 0
M  V30 2006 O 193.771 1.863 -0.548264 0
M  V30 2007 C 190.901 3.19038 -1.37229 0
M  V30 2008 C 189.855 3.47789 -2.49453 0
M  V30 2009 C 189.181 4.8553 -2.23975 0
M  V30 2010 C 190.481 3.45411 -3.91776 0
M  V30 2011 H 192.175 1.7629 -2.41997 0
M  V30 2012 H 189.721 0.846721 -1.16476 0
M  V30 2013 H 191.674 3.97528 -1.39821 0
M  V30 2014 H 190.398 3.24204 -0.394907 0
M  V30 2015 H 189.057 2.71657 -2.46166 0
M  V30 2016 H 188.705 4.87337 -1.24547 0
M  V30 2017 H 188.405 5.0573 -2.99184 0
M  V30 2018 H 189.929 5.66312 -2.28304 0
M  V30 2019 H 191.343 4.13882 -3.96705 0
M  V30 2020 H 189.74 3.77145 -4.66778 0
M  V30 2021 H 190.81 2.44122 -4.18966 0
M  V30 2022 N 192.153 1.28127 0.917671 0
M  V30 2023 C 193.063 1.13556 2.05286 0
M  V30 2024 C 194.079 0.0630914 1.73886 0
M  V30 2025 O 195.255 0.271598 1.9956 0
M  V30 2026 C 192.32 0.794676 3.3747 0
M  V30 2027 C 191.381 1.94909 3.82504 0
M  V30 2028 C 190.614 1.62437 5.0838 0
M  V30 2029 O 190.837 0.536905 5.67867 0
M  V30 2030 O 189.771 2.46677 5.4903 0
M  V30 2031 H 193.597 2.08844 2.20495 0
M  V30 2032 H 191.182 1.07409 1.03845 0
M  V30 2033 H 193.064 0.618344 4.16839 0
M  V30 2034 H 191.739 -0.128581 3.23445 0
M  V30 2035 H 190.646 2.18055 3.03978 0
M  V30 2036 H 191.979 2.85291 4.01086 0
M  V30 2037 N 193.631 -1.12557 1.10312 0
M  V30 2038 C 194.856 -1.88405 0.867085 0
M  V30 2039 C 195.281 -1.79038 -0.576817 0
M  V30 2040 O 194.639 -1.14439 -1.40618 0
M  V30 2041 C 194.687 -3.3563 1.31851 0
M  V30 2042 O 193.791 -4.09565 0.482734 0
M  V30 2043 H 193.132 -0.585455 0.313271 0
M  V30 2044 H 195.662 -1.42352 1.4696 0
M  V30 2045 H 195.672 -3.86469 1.3079 0
M  V30 2046 H 194.347 -3.41765 2.37001 0
M  V30 2047 H 192.924 -3.68695 0.558448 0
M  V30 2048 N 195.109 -0.891671 -1.2995 0
M  V30 2049 C 196.056 -0.361736 -2.27948 0
M  V30 2050 C 197.026 0.551761 -1.56668 0
M  V30 2051 O 198.211 0.478736 -1.84696 0
M  V30 2052 C 195.351 0.411825 -3.42634 0
M  V30 2053 C 194.464 -0.531651 -4.28716 0
M  V30 2054 C 193.599 0.258167 -5.30572 0
M  V30 2055 C 192.638 -0.680349 -6.08307 0
M  V30 2056 N 191.775 0.0745613 -7.0206 0
M  V30 2057 H 196.615 -1.20254 -2.72659 0
M  V30 2058 H 194.152 -0.604352 -1.34112 0
M  V30 2059 H 196.11 0.876304 -4.07893 0
M  V30 2060 H 194.74 1.21715 -2.98974 0
M  V30 2061 H 193.792 -1.11463 -3.63703 0
M  V30 2062 H 195.104 -1.25038 -4.82874 0
M  V30 2063 H 194.258 0.784204 -6.0161 0
M  V30 2064 H 192.997 1.01008 -4.77126 0
M  V30 2065 H 192.002 -1.21796 -5.3614 0
M  V30 2066 H 193.227 -1.43145 -6.63842 0
M  V30 2067 H 191.173 0.808883 -6.50994 0
M  V30 2068 H 191.09 -0.584409 -7.53738 0
M  V30 2069 H 192.358 0.581123 -7.77331 0
M  V30 2070 N 196.587 1.43421 -0.653314 0
M  V30 2071 C 197.535 2.32546 0.0501531 0
M  V30 2072 C 198.529 1.48617 0.812985 0
M  V30 2073 O 199.735 1.64825 0.723375 0
M  V30 2074 H 196.11 0.751185 0.0350032 0
M  V30 2075 H 198.081 2.89602 -0.719261 0
M  V30 2076 C 196.83 3.32925 1.00279 0
M  V30 2077 H 196.153 3.97532 0.425236 0
M  V30 2078 H 197.593 3.9792 1.46409 0
M  V30 2079 C 196.052 2.63532 2.09886 0
M  V30 2080 O 196.582 2.45092 3.18265 0
M  V30 2081 N 194.788 2.22905 1.86445 0
M  V30 2082 H 194.335 2.38103 0.98309 0
M  V30 2083 H 194.293 1.76805 2.59976 0
M  V30 2084 N 198.065 0.39524 1.52563 0
M  V30 2085 C 199.311 -0.185318 2.01952 0
M  V30 2086 C 199.644 -1.45964 1.28095 0
M  V30 2087 O 198.919 -1.90689 0.38315 0
M  V30 2088 C 199.202 -0.447193 3.57312 0
M  V30 2089 C 199.055 0.842828 4.41833 0
M  V30 2090 C 200.374 -1.23529 4.22408 0
M  V30 2091 H 197.493 -0.0658788 0.73405 0
M  V30 2092 H 200.135 0.525975 1.82575 0
M  V30 2093 H 198.285 -1.05312 3.73954 0
M  V30 2094 H 199.957 1.4795 4.36931 0
M  V30 2095 H 198.2 1.45686 4.08605 0
M  V30 2096 H 198.871 0.614165 5.48573 0
M  V30 2097 H 201.347 -0.722445 4.0978 0
M  V30 2098 H 200.223 -1.38727 5.3108 0
M  V30 2099 H 200.484 -2.25213 3.80436 0
M  V30 2100 N 199.544 -1.57102 0.125237 0
M  V30 2101 C 200.79 -1.95697 -0.532035 0
M  V30 2102 C 201.123 -1.009 -1.6593 0
M  V30 2103 O 200.398 -0.047347 -1.94442 0
M  V30 2104 C 200.681 -3.44181 -1.05884 0
M  V30 2105 C 200.534 -4.49752 0.0654392 0
M  V30 2106 C 201.853 -3.94655 -1.9477 0
M  V30 2107 H 198.972 -0.711571 -0.191925 0
M  V30 2108 H 201.614 -1.88923 0.20206 0
M  V30 2109 H 199.764 -3.50085 -1.68442 0
M  V30 2110 H 201.436 -4.55943 0.700982 0
M  V30 2111 H 199.679 -4.27653 0.727709 0
M  V30 2112 H 200.35 -5.50924 -0.344505 0
M  V30 2113 H 202.826 -3.91094 -1.42074 0
M  V30 2114 H 201.702 -4.99057 -2.28546 0
M  V30 2115 H 201.963 -3.35718 -2.87656 0
M  V30 2116 N 201.022 0.148545 -1.56898 0
M  V30 2117 C 201.97 1.20265 -1.99096 0
M  V30 2118 C 202.964 1.44559 -0.883123 0
M  V30 2119 O 204.17 1.4487 -1.0683 0
M  V30 2120 H 200.545 0.404786 -0.63376 0
M  V30 2121 H 202.516 0.82004 -2.86911 0
M  V30 2122 C 201.265 2.52886 -2.3863 0
M  V30 2123 H 200.588 2.35021 -3.23427 0
M  V30 2124 H 202.028 3.25274 -2.7198 0
M  V30 2125 C 200.487 3.13315 -1.23837 0
M  V30 2126 O 201.017 3.98077 -0.538268 0
M  V30 2127 N 199.223 2.72742 -1.00301 0
M  V30 2128 H 198.77 2.03912 -1.5741 0
M  V30 2129 H 198.728 3.13507 -0.236838 0
M  V30 2130 N 202.5 1.5196 0.417844 0
M  V30 2131 C 203.746 1.65836 1.16732 0
M  V30 2132 C 204.079 0.382881 1.90388 0
M  V30 2133 O 203.354 -0.618368 1.84408 0
M  V30 2134 C 203.637 2.87466 2.16876 0
M  V30 2135 C 203.49 4.25041 1.47174 0
M  V30 2136 C 204.809 3.04613 3.17646 0
M  V30 2137 H 201.928 0.603515 0.423011 0
M  V30 2138 H 204.57 1.84494 0.454105 0
M  V30 2139 H 202.72 2.71689 2.777 0
M  V30 2140 H 204.392 4.52527 0.895376 0
M  V30 2141 H 202.635 4.26843 0.773806 0
M  V30 2142 H 203.306 5.06176 2.20204 0
M  V30 2143 H 205.782 3.1923 2.66892 0
M  V30 2144 H 204.658 3.91247 3.8499 0
M  V30 2145 H 204.919 2.17541 3.84874 0
M  V30 2146 N 203.978 -0.674533 1.42435 0
M  V30 2147 C 205.394 -0.98769 1.25367 0
M  V30 2148 C 205.594 -2.00879 0.158044 0
M  V30 2149 O 204.65 -2.48075 -0.470633 0
M  V30 2150 C 205.963 -1.49224 2.6106 0
M  V30 2151 C 207.511 -1.61 2.68417 0
M  V30 2152 C 207.986 -2.14852 4.04478 0
M  V30 2153 N 209.477 -2.22185 4.06434 0
M  V30 2154 C 210.212 -2.64928 5.08528 0
M  V30 2155 N 209.708 -3.07121 6.21006 0
M  V30 2156 N 211.501 -2.64679 4.95885 0
M  V30 2157 H 203.652 0.00152503 2.124 0
M  V30 2158 H 205.915 -0.0618434 0.945981 0
M  V30 2159 H 205.621 -0.816453 3.42092 0
M  V30 2160 H 205.495 -2.47094 2.84999 0
M  V30 2161 H 207.882 -2.27686 1.87732 0
M  V30 2162 H 207.963 -0.616195 2.48267 0
M  V30 2163 H 207.607 -1.48775 4.85622 0
M  V30 2164 H 207.537 -3.15024 4.2198 0
M  V30 2165 H 210.028 -1.92435 3.25234 0
M  V30 2166 H 210.341 -3.38423 6.94759 0
M  V30 2167 H 208.686 -3.04978 6.24511 0
M  V30 2168 H 211.877 -2.31078 4.07088 0
M  V30 2169 H 212.05 -2.9767 5.75584 0
M  V30 2170 N 205.456 -1.28612 -0.910864 0
M  V30 2171 C 206.366 -1.14643 -2.0468 0
M  V30 2172 C 207.382 -0.0723121 -1.7385 0
M  V30 2173 O 208.558 -0.282178 -1.99413 0
M  V30 2174 C 205.623 -0.812561 -3.37044 0
M  V30 2175 C 204.684 -1.96935 -3.81465 0
M  V30 2176 C 203.917 -1.65131 -5.07511 0
M  V30 2177 O 204.14 -0.567013 -5.67575 0
M  V30 2178 O 203.074 -2.49585 -5.47714 0
M  V30 2179 H 206.9 -2.1001 -2.19384 0
M  V30 2180 H 204.485 -1.07958 -1.03274 0
M  V30 2181 H 206.367 -0.640441 -4.16505 0
M  V30 2182 H 205.042 0.111426 -3.23508 0
M  V30 2183 H 203.949 -2.19664 -3.02818 0
M  V30 2184 H 205.282 -2.87414 -3.99567 0
M  V30 2185 N 206.934 1.1197 -1.10907 0
M  V30 2186 C 208.159 1.87942 -0.877064 0
M  V30 2187 C 208.584 1.79341 0.567314 0
M  V30 2188 O 207.942 1.15184 1.40009 0
M  V30 2189 C 207.99 3.34926 -1.33629 0
M  V30 2190 O 207.094 4.09303 -0.504447 0
M  V30 2191 H 206.435 0.583785 -0.316371 0
M  V30 2192 H 208.965 1.4157 -1.47712 0
M  V30 2193 H 208.975 3.8577 -1.32837 0
M  V30 2194 H 207.65 3.40504 -2.3881 0
M  V30 2195 H 206.227 3.68393 -0.577993 0
M  V30 2196 N 208.412 0.89855 1.29475 0
M  V30 2197 C 209.375 0.380272 2.26023 0
M  V30 2198 C 210.375 -0.484891 1.53315 0
M  V30 2199 O 211.565 -0.290108 1.71767 0
M  V30 2200 C 208.697 -0.45651 3.3783 0
M  V30 2201 H 209.89 1.23295 2.73383 0
M  V30 2202 H 207.443 0.676589 1.40897 0
M  V30 2203 H 208.178 -1.32922 2.95808 0
M  V30 2204 H 207.963 0.163393 3.91759 0
M  V30 2205 H 209.453 -0.810466 4.0966 0
M  V30 2206 N 209.89 -1.43072 0.660911 0
M  V30 2207 C 211.167 -1.95307 0.107017 0
M  V30 2208 C 211.547 -1.60192 -1.37484 0
M  V30 2209 O 210.895 -0.890949 -2.10415 0
M  V30 2210 C 211.105 -3.47124 0.361402 0
M  V30 2211 C 212.453 -4.23738 0.270455 0
M  V30 2212 O 213.477 -3.54981 0.294382 0
M  V30 2213 O 212.336 -5.46131 0.200737 0
M  V30 2214 H 209.43 -0.826984 -0.00517729 0
M  V30 2215 H 211.976 -1.52972 0.734681 0
M  V30 2216 H 210.748 -3.65837 1.38848 0
M  V30 2217 H 210.371 -3.96475 -0.298953 0
M  V30 2218 N 211.368 -0.403325 -1.52352 0
M  V30 2219 C 212.779 0.0675782 -1.86578 0
M  V30 2220 C 213.13 1.44941 -1.32236 0
M  V30 2221 O 212.255 2.06112 -0.659307 0
M  V30 2222 C 212.85 0.129404 -3.38553 0
M  V30 2223 C 211.409 0.544629 -3.72439 0
M  V30 2224 C 210.556 -0.284551 -2.75836 0
M  V30 2225 H 213.507 -0.620631 -1.46061 0
M  V30 2226 H 213.528 0.94581 -3.68558 0
M  V30 2227 H 213.04 -0.87645 -3.78074 0
M  V30 2228 H 211.141 1.55734 -3.38493 0
M  V30 2229 H 211.254 0.293046 -4.78203 0
M  V30 2230 H 209.618 0.252258 -2.53448 0
M  V30 2231 H 210.401 -1.28865 -3.18196 0
M  V30 2232 N 212.846 1.57033 -0.133567 0
M  V30 2233 C 213.809 2.14897 0.796995 0
M  V30 2234 C 214.809 1.0874 1.18458 0
M  V30 2235 O 215.999 1.34446 1.1077 0
M  V30 2236 C 213.131 2.70112 2.07973 0
M  V30 2237 H 214.324 2.98457 0.293873 0
M  V30 2238 H 211.877 1.55871 0.115787 0
M  V30 2239 H 212.612 1.9018 2.62682 0
M  V30 2240 H 212.397 3.47764 1.81115 0
M  V30 2241 H 213.887 3.14738 2.74462 0
M  V30 2242 N 214.325 -0.140222 1.56975 0
M  V30 2243 C 215.55 -0.870414 1.88251 0
M  V30 2244 C 215.975 -1.73637 0.723312 0
M  V30 2245 O 215.333 -1.78329 -0.32689 0
M  V30 2246 C 215.381 -1.69737 3.18154 0
M  V30 2247 O 214.485 -2.80229 3.02565 0
M  V30 2248 H 213.826 -0.242025 0.61832 0
M  V30 2249 H 216.356 -0.128999 2.04193 0
M  V30 2250 H 216.366 -2.09099 3.50345 0
M  V30 2251 H 215.041 -1.06152 4.02125 0
M  V30 2252 H 213.618 -2.44224 2.81796 0
M  V30 2253 N 215.803 -1.52179 -0.40978 0
M  V30 2254 C 216.766 -1.74853 -1.48186 0
M  V30 2255 C 217.766 -0.618417 -1.48433 0
M  V30 2256 O 218.956 -0.886286 -1.49969 0
M  V30 2257 C 216.088 -1.8303 -2.87598 0
M  V30 2258 H 217.281 -2.70559 -1.29374 0
M  V30 2259 H 214.834 -1.42586 -0.640233 0
M  V30 2260 H 215.569 -0.89236 -3.11781 0
M  V30 2261 H 215.354 -2.65187 -2.88822 0
M  V30 2262 H 216.844 -2.02316 -3.65319 0
M  V30 2263 N 217.281 0.66697 -1.42791 0
M  V30 2264 C 218.527 1.4291 -1.43891 0
M  V30 2265 C 218.86 1.94114 -0.0578972 0
M  V30 2266 O 218.135 1.71414 0.91911 0
M  V30 2267 C 218.418 2.62049 -2.46987 0
M  V30 2268 C 218.271 2.16426 -3.94309 0
M  V30 2269 C 219.59 3.64266 -2.46978 0
M  V30 2270 H 216.709 0.518306 -0.523954 0
M  V30 2271 H 219.351 0.757321 -1.74255 0
M  V30 2272 H 217.501 3.19361 -2.21225 0
M  V30 2273 H 219.173 1.64221 -4.31079 0
M  V30 2274 H 217.416 1.47925 -4.078 0
M  V30 2275 H 218.087 3.02038 -4.62036 0
M  V30 2276 H 220.563 3.16686 -2.69906 0
M  V30 2277 H 219.439 4.45196 -3.21079 0
M  V30 2278 H 219.7 4.15927 -1.49857 0
M  V30 2279 N 218.759 1.29093 0.90403 0
M  V30 2280 C 219.706 1.13853 2.00764 0
M  V30 2281 C 220.676 0.0330084 1.66067 0
M  V30 2282 O 221.861 0.199733 1.89752 0
M  V30 2283 C 219.001 0.816537 3.35301 0
M  V30 2284 C 218.114 2.00206 3.82807 0
M  V30 2285 C 217.249 1.61983 5.059 0
M  V30 2286 C 216.288 2.77143 5.45764 0
M  V30 2287 N 215.425 2.39346 6.60044 0
M  V30 2288 H 220.265 2.08276 2.13132 0
M  V30 2289 H 217.802 1.03648 1.04381 0
M  V30 2290 H 219.76 0.610557 4.12708 0
M  V30 2291 H 218.39 -0.090779 3.22672 0
M  V30 2292 H 217.442 2.31988 3.01473 0
M  V30 2293 H 218.754 2.86512 4.08304 0
M  V30 2294 H 217.908 1.37649 5.90879 0
M  V30 2295 H 216.647 0.728202 4.82233 0
M  V30 2296 H 215.652 3.02165 4.59322 0
M  V30 2297 H 216.877 3.66964 5.71414 0
M  V30 2298 H 214.823 1.52665 6.37989 0
M  V30 2299 H 214.74 3.19185 6.85315 0
M  V30 2300 H 216.008 2.1832 7.48303 0
M  V30 2301 N 220.237 -1.11381 1.11499 0
M  V30 2302 C 221.147 -2.21019 0.786628 0
M  V30 2303 C 222.163 -1.72597 -0.220507 0
M  V30 2304 O 223.339 -2.01321 -0.0565251 0
M  V30 2305 C 220.404 -3.459 0.235333 0
M  V30 2306 C 219.465 -4.09107 1.30115 0
M  V30 2307 C 218.698 -5.28027 0.776068 0
M  V30 2308 O 218.921 -5.6904 -0.393661 0
M  V30 2309 O 217.855 -5.81835 1.54114 0
M  V30 2310 H 221.681 -2.51521 1.70209 0
M  V30 2311 H 219.266 -1.19928 0.890928 0
M  V30 2312 H 221.148 -4.21346 -0.067715 0
M  V30 2313 H 219.823 -3.17049 -0.652828 0
M  V30 2314 H 218.73 -3.35391 1.65722 0
M  V30 2315 H 220.063 -4.42139 2.16273 0
M  V30 2316 N 221.715 -0.905404 -1.28997 0
M  V30 2317 C 223.131 -0.60233 -1.47798 0
M  V30 2318 C 223.331 0.854645 -1.82478 0
M  V30 2319 O 222.387 1.63439 -1.92468 0
M  V30 2320 C 223.7 -1.53306 -2.58685 0
M  V30 2321 C 225.248 -1.53887 -2.72558 0
M  V30 2322 C 225.723 -2.45602 -3.86579 0
M  V30 2323 N 227.214 -2.43681 -3.93921 0
M  V30 2324 C 227.949 -3.11347 -4.81509 0
M  V30 2325 N 227.445 -3.88313 -5.73746 0
M  V30 2326 N 229.238 -3.00476 -4.75048 0
M  V30 2327 H 221.389 -1.84765 -1.04764 0
M  V30 2328 H 223.652 -0.792025 -0.520961 0
M  V30 2329 H 223.358 -2.57141 -2.39941 0
M  V30 2330 H 223.232 -1.25787 -3.55609 0
M  V30 2331 H 225.619 -0.507941 -2.90696 0
M  V30 2332 H 225.7 -1.85447 -1.76191 0
M  V30 2333 H 225.344 -3.48792 -3.69197 0
M  V30 2334 H 225.274 -2.11349 -4.82327 0
M  V30 2335 H 227.765 -1.87767 -3.27951 0
M  V30 2336 H 228.078 -4.36985 -6.37389 0
M  V30 2337 H 226.423 -3.92419 -5.73614 0
M  V30 2338 H 229.614 -2.39858 -4.01977 0
M  V30 2339 H 229.787 -3.53485 -5.43095 0
M  V30 2340 N 223.193 1.4272 -0.668489 0
M  V30 2341 C 224.123 2.335 -0.000100175 0
M  V30 2342 C 225.104 1.50328 0.795964 0
M  V30 2343 O 226.289 1.78949 0.754385 0
M  V30 2344 C 223.419 3.33874 0.956302 0
M  V30 2345 C 222.373 4.27152 0.269278 0
M  V30 2346 C 221.699 5.17684 1.33818 0
M  V30 2347 C 222.999 5.15373 -0.847805 0
M  V30 2348 H 224.693 2.89639 -0.758244 0
M  V30 2349 H 222.239 1.39269 -0.366079 0
M  V30 2350 H 224.192 3.9629 1.43292 0
M  V30 2351 H 222.916 2.76025 1.74579 0
M  V30 2352 H 221.575 3.66123 -0.187042 0
M  V30 2353 H 221.223 4.56165 2.1195 0
M  V30 2354 H 220.923 5.80918 0.883659 0
M  V30 2355 H 222.447 5.82974 1.81586 0
M  V30 2356 H 223.861 5.7151 -0.452681 0
M  V30 2357 H 222.258 5.87407 -1.22773 0
M  V30 2358 H 223.328 4.5415 -1.69929 0
M  V30 2359 N 224.671 0.411399 1.52136 0
M  V30 2360 C 225.581 -0.419774 2.30814 0
M  V30 2361 C 226.597 -1.0515 1.38634 0
M  V30 2362 O 227.773 -1.05252 1.71709 0
M  V30 2363 C 224.838 -1.52019 3.11594 0
M  V30 2364 C 223.899 -0.91129 4.19516 0
M  V30 2365 C 223.132 -1.95927 4.96436 0
M  V30 2366 O 223.355 -3.17775 4.73683 0
M  V30 2367 O 222.289 -1.56423 5.81219 0
M  V30 2368 H 226.115 0.221805 3.02889 0
M  V30 2369 H 223.7 0.174547 1.48377 0
M  V30 2370 H 225.582 -2.15898 3.61892 0
M  V30 2371 H 224.257 -2.14633 2.42311 0
M  V30 2372 H 223.164 -0.235157 3.7336 0
M  V30 2373 H 224.497 -0.32904 4.91099 0
M  V30 2374 N 226.149 -1.5696 0.141893 0
M  V30 2375 C 227.377 -2.00322 -0.517579 0
M  V30 2376 C 227.792 -1.02193 -1.58752 0
M  V30 2377 O 227.149 -0.0181619 -1.82491 0
M  V30 2378 C 227.2 -3.43618 -1.12289 0
M  V30 2379 O 226.921 -4.37995 -0.0956929 0
M  V30 2380 C 228.422 -4.02231 -1.86347 0
M  V30 2381 H 225.642 -0.657243 -0.135177 0
M  V30 2382 H 228.186 -2.03146 0.234973 0
M  V30 2383 H 226.341 -3.41662 -1.82609 0
M  V30 2384 H 226.755 -5.21729 -0.538469 0
M  V30 2385 H 228.229 -5.04509 -2.23997 0
M  V30 2386 H 228.706 -3.42655 -2.74744 0
M  V30 2387 H 229.312 -4.07802 -1.20737 0
M  V30 2388 N 227.627 0.131896 -1.57047 0
M  V30 2389 C 228.537 1.1815 -2.02676 0
M  V30 2390 C 229.553 1.46113 -0.944824 0
M  V30 2391 O 230.729 1.57485 -1.25541 0
M  V30 2392 C 227.794 2.49139 -2.41103 0
M  V30 2393 C 226.855 2.28688 -3.63318 0
M  V30 2394 C 226.088 3.53431 -3.99903 0
M  V30 2395 O 226.311 4.60223 -3.36973 0
M  V30 2396 O 225.245 3.45198 -4.93074 0
M  V30 2397 H 229.071 0.824069 -2.92306 0
M  V30 2398 H 226.656 0.341745 -1.45439 0
M  V30 2399 H 228.538 3.26338 -2.66611 0
M  V30 2400 H 227.213 2.84382 -1.54624 0
M  V30 2401 H 226.12 1.4939 -3.42977 0
M  V30 2402 H 227.453 1.98355 -4.50462 0
M  V30 2403 N 229.106 1.52395 0.401703 0
M  V30 2404 C 230.054 1.7689 1.51039 0
M  V30 2405 C 231.048 0.636298 1.56996 0
M  V30 2406 O 232.254 0.818507 1.60314 0
M  V30 2407 H 228.629 0.559502 0.502456 0
M  V30 2408 H 230.6 2.69757 1.27568 0
M  V30 2409 C 229.349 1.94331 2.88324 0
M  V30 2410 H 228.672 2.80905 2.84486 0
M  V30 2411 H 230.112 2.15466 3.65172 0
M  V30 2412 C 228.571 0.712396 3.29282 0
M  V30 2413 O 229.101 -0.116218 4.01532 0
M  V30 2414 N 227.307 0.546154 2.85422 0
M  V30 2415 H 226.854 1.22156 2.26794 0
M  V30 2416 H 226.812 -0.276113 3.13185 0
M  V30 2417 N 230.584 -0.659388 1.43143 0
M  V30 2418 C 231.833 -1.41518 1.43721 0
M  V30 2419 C 232.146 -1.95499 0.0628176 0
M  V30 2420 O 233.352 -2.71446 -0.0539683 0
M  V30 2421 C 231.808 -2.5608 2.52885 0
M  V30 2422 C 231.416 -2.08733 3.96402 0
M  V30 2423 C 233.16 -3.3349 2.62649 0
M  V30 2424 C 231.067 -3.20469 4.97045 0
M  V30 2425 H 229.997 -0.531705 0.534608 0
M  V30 2426 H 232.648 -0.712343 1.69109 0
M  V30 2427 H 231.03 -3.28805 2.20688 0
M  V30 2428 H 232.204 -1.43059 4.3803 0
M  V30 2429 H 230.519 -1.44219 3.90627 0
M  V30 2430 H 233.116 -4.16734 3.35017 0
M  V30 2431 H 233.459 -3.8111 1.67513 0
M  V30 2432 H 233.992 -2.67842 2.94118 0
M  V30 2433 H 230.731 -2.77824 5.93712 0
M  V30 2434 H 230.251 -3.84874 4.60034 0
M  V30 2435 H 231.93 -3.85698 5.19467 0
M  V30 2436 N 232.062 -1.29571 -0.897171 0
M  V30 2437 C 232.992 -1.17473 -2.01798 0
M  V30 2438 C 233.973 -0.068323 -1.69963 0
M  V30 2439 O 235.158 -0.248239 -1.92607 0
M  V30 2440 C 232.288 -0.853099 -3.36659 0
M  V30 2441 C 231.242 -1.9161 -3.82713 0
M  V30 2442 C 230.568 -1.44773 -5.14728 0
M  V30 2443 C 231.868 -3.32535 -4.02763 0
M  V30 2444 H 233.562 -2.11237 -2.12177 0
M  V30 2445 H 231.108 -1.01699 -1.01948 0
M  V30 2446 H 233.061 -0.755165 -4.14578 0
M  V30 2447 H 231.785 0.120236 -3.26379 0
M  V30 2448 H 230.444 -2.00346 -3.07013 0
M  V30 2449 H 230.092 -0.462995 -5.00865 0
M  V30 2450 H 229.792 -2.15865 -5.46513 0
M  V30 2451 H 231.316 -1.36334 -5.95185 0
M  V30 2452 H 232.73 -3.26626 -4.71156 0
M  V30 2453 H 231.127 -4.01607 -4.45905 0
M  V30 2454 H 232.197 -3.75326 -3.07016 0
M  V30 2455 N 233.54 1.10788 -1.12088 0
M  V30 2456 C 234.47 2.19083 -0.807755 0
M  V30 2457 C 235.451 1.6858 0.226859 0
M  V30 2458 O 236.636 1.93997 0.0888475 0
M  V30 2459 C 233.766 3.46344 -0.257576 0
M  V30 2460 C 232.72 4.101 -1.22483 0
M  V30 2461 C 232.046 5.32016 -0.535052 0
M  V30 2462 C 233.346 4.54236 -2.57811 0
M  V30 2463 H 235.04 2.45534 -1.71328 0
M  V30 2464 H 232.586 1.1801 -0.825205 0
M  V30 2465 H 234.539 4.21392 -0.0262679 0
M  V30 2466 H 233.263 3.19373 0.683278 0
M  V30 2467 H 231.922 3.37054 -1.44189 0
M  V30 2468 H 231.57 5.01319 0.410827 0
M  V30 2469 H 231.27 5.75625 -1.18024 0
M  V30 2470 H 232.794 6.09799 -0.312695 0
M  V30 2471 H 234.208 5.20575 -2.40155 0
M  V30 2472 H 232.605 5.08682 -3.18375 0
M  V30 2473 H 233.675 3.6734 -3.16528 0
M  V30 2474 N 235.018 0.912232 1.28515 0
M  V30 2475 C 235.981 0.404223 2.25607 0
M  V30 2476 C 236.981 -0.468602 1.53821 0
M  V30 2477 O 238.171 -0.271873 1.72065 0
M  V30 2478 C 235.303 -0.420653 3.38295 0
M  V30 2479 H 236.496 1.26188 2.7206 0
M  V30 2480 H 234.049 0.691495 1.40171 0
M  V30 2481 H 234.784 -1.29777 2.97201 0
M  V30 2482 H 234.569 0.204935 3.91564 0
M  V30 2483 H 236.059 -0.766971 4.10496 0
M  V30 2484 N 236.496 -1.42363 0.676048 0
M  V30 2485 C 237.721 -2.06377 0.205705 0
M  V30 2486 C 238.146 -1.50463 -1.12883 0
M  V30 2487 O 237.504 -0.623619 -1.70237 0
M  V30 2488 C 237.552 -3.60277 0.152655 0
M  V30 2489 O 236.656 -4.02935 -0.87845 0
M  V30 2490 H 235.997 -0.655588 0.105359 0
M  V30 2491 H 238.527 -1.82475 0.925412 0
M  V30 2492 H 238.537 -4.07993 -0.0230675 0
M  V30 2493 H 237.212 -4.00346 1.12675 0
M  V30 2494 H 235.789 -3.66764 -0.673668 0
M  V30 2495 N 237.974 -0.419461 -1.51915 0
M  V30 2496 C 239.222 0.152637 -2.01523 0
M  V30 2497 C 239.543 1.44762 -1.30649 0
M  V30 2498 O 238.813 1.90997 -0.435535 0
M  V30 2499 H 237.393 0.0593966 -0.744635 0
M  V30 2500 H 240.055 -0.558073 -1.86739 0
M  V30 2501 H 239.151 0.341369 -3.10227 0
M  V30 2502 N 239.452 1.56882 -0.150215 0
M  V30 2503 C 240.677 2.01027 0.510184 0
M  V30 2504 C 241.102 1.02966 1.57415 0
M  V30 2505 O 240.46 0.00590158 1.81299 0
M  V30 2506 C 240.508 3.43899 1.08472 0
M  V30 2507 O 239.612 3.4885 2.19948 0
M  V30 2508 H 238.953 0.652233 0.124451 0
M  V30 2509 H 241.483 2.03093 -0.247894 0
M  V30 2510 H 241.493 3.82766 1.41259 0
M  V30 2511 H 240.168 4.14776 0.305582 0
M  V30 2512 H 238.745 3.21827 1.88366 0
M  V30 2513 N 240.93 -0.123565 1.57115 0
M  V30 2514 C 242.176 -0.828428 1.85765 0
M  V30 2515 C 242.531 -1.77709 0.737371 0
M  V30 2516 O 241.824 -1.89787 -0.262978 0
M  V30 2517 C 242.018 -1.62016 3.18568 0
M  V30 2518 C 241.847 -0.749663 4.43407 0
M  V30 2519 C 240.617 -0.406251 5.03664 0
M  V30 2520 C 242.815 -0.0693505 5.14253 0
M  V30 2521 N 240.797 0.475389 6.12057 0
M  V30 2522 C 242.168 0.671474 6.16353 0
M  V30 2523 C 244.223 0.00754393 4.97899 0
M  V30 2524 C 242.926 1.48197 7.03868 0
M  V30 2525 C 244.952 0.804845 5.85898 0
M  V30 2526 C 244.314 1.53388 6.87497 0
M  V30 2527 H 240.413 -0.280219 0.73007 0
M  V30 2528 H 242.997 -0.0924183 1.94481 0
M  V30 2529 H 241.168 -2.32724 3.10957 0
M  V30 2530 H 242.9 -2.27 3.35042 0
M  V30 2531 H 239.655 -0.747446 4.67665 0
M  V30 2532 H 240.079 0.907924 6.70884 0
M  V30 2533 H 244.721 -0.541741 4.19315 0
M  V30 2534 H 242.439 2.04242 7.81864 0
M  V30 2535 H 246.025 0.866642 5.75309 0
M  V30 2536 H 244.905 2.1409 7.5441 0
M  V30 2537 N 242.408 -1.52605 -0.393616 0
M  V30 2538 C 243.819 -1.59417 -0.971761 0
M  V30 2539 C 244.17 -0.444173 -1.91106 0
M  V30 2540 O 243.295 0.433382 -2.12016 0
M  V30 2541 C 243.89 -2.88936 -1.76921 0
M  V30 2542 C 242.449 -2.98175 -2.29714 0
M  V30 2543 C 241.596 -2.54491 -1.10135 0
M  V30 2544 H 244.547 -1.57751 -0.173317 0
M  V30 2545 H 244.568 -2.75163 -2.62804 0
M  V30 2546 H 244.08 -3.72616 -1.08532 0
M  V30 2547 H 242.181 -2.19024 -3.01429 0
M  V30 2548 H 242.294 -4.02726 -2.59517 0
M  V30 2549 H 240.658 -2.08702 -1.45999 0
M  V30 2550 H 241.441 -3.4056 -0.432874 0
M  V30 2551 N 243.887 0.651787 -1.4349 0
M  V30 2552 C 244.837 1.75783 -1.45205 0
M  V30 2553 C 245.821 1.57679 -0.320328 0
M  V30 2554 O 247.013 1.67767 -0.564211 0
M  V30 2555 C 244.142 3.14377 -1.3792 0
M  V30 2556 C 243.228 3.38023 -2.56127 0
M  V30 2557 N 243.619 3.32135 -3.81471 0
M  V30 2558 C 241.917 3.68747 -2.50882 0
M  V30 2559 C 242.618 3.55902 -4.60118 0
M  V30 2560 N 241.594 3.77783 -3.90872 0
M  V30 2561 H 245.396 1.69657 -2.39987 0
M  V30 2562 H 242.91 0.853508 -1.38163 0
M  V30 2563 H 244.907 3.93666 -1.37231 0
M  V30 2564 H 243.567 3.21683 -0.441596 0
M  V30 2565 H 244.578 3.11515 -4.13738 0
M  V30 2566 H 241.255 3.8316 -1.65816 0
M  V30 2567 H 242.645 3.57116 -5.69138 0
M  V30 2568 N 245.365 1.30045 0.890287 0
M  V30 2569 C 246.298 1.10301 1.99772 0
M  V30 2570 C 247.276 0.0121631 1.62595 0
M  V30 2571 O 248.46 0.16469 1.87779 0
M  V30 2572 C 245.587 0.681125 3.31781 0
M  V30 2573 C 244.633 1.77206 3.87944 0
M  V30 2574 S 245.466 3.37335 4.15891 0
M  V30 2575 C 246.622 2.97036 5.50927 0
M  V30 2576 H 246.855 2.04057 2.16213 0
M  V30 2577 H 244.388 1.14299 1.03804 0
M  V30 2578 H 246.346 0.444439 4.08087 0
M  V30 2579 H 245.007 -0.236981 3.13205 0
M  V30 2580 H 244.2 1.42903 4.83316 0
M  V30 2581 H 243.802 1.96275 3.18358 0
M  V30 2582 H 246.094 2.44666 6.31779 0
M  V30 2583 H 247.037 3.91296 5.90164 0
M  V30 2584 H 247.445 2.35057 5.13233 0
M  V30 2585 N 246.843 -1.10192 1.12674 0
M  V30 2586 C 248.254 -1.63707 0.897604 0
M  V30 2587 C 248.605 -1.87812 -0.567546 0
M  V30 2588 O 247.73 -1.62196 -1.43253 0
M  V30 2589 C 248.325 -2.974 1.62292 0
M  V30 2590 C 246.884 -3.47772 1.43986 0
M  V30 2591 C 246.031 -2.22332 1.65722 0
M  V30 2592 H 248.982 -0.936587 1.28116 0
M  V30 2593 H 249.003 -3.64986 1.07541 0
M  V30 2594 H 248.515 -2.79824 2.68924 0
M  V30 2595 H 246.616 -3.70487 0.396206 0
M  V30 2596 H 246.729 -4.25723 2.19765 0
M  V30 2597 H 245.093 -2.30599 1.08149 0
M  V30 2598 H 245.876 -2.07285 2.73657 0
M  V30 2599 N 248.321 -0.919034 -1.28029 0
M  V30 2600 C 249.269 -0.401753 -2.29104 0
M  V30 2601 C 250.263 0.509354 -1.61561 0
M  V30 2602 O 251.469 0.390014 -1.75724 0
M  V30 2603 H 247.844 -0.111331 -0.743713 0
M  V30 2604 H 249.815 -1.2672 -2.70156 0
M  V30 2605 C 248.564 0.338148 -3.46052 0
M  V30 2606 H 247.887 -0.353732 -3.98232 0
M  V30 2607 H 249.327 0.664653 -4.18758 0
M  V30 2608 C 247.786 1.54798 -2.99231 0
M  V30 2609 O 248.316 2.64696 -3.02157 0
M  V30 2610 N 246.522 1.3968 -2.54829 0
M  V30 2611 H 246.069 0.502698 -2.52647 0
M  V30 2612 H 246.027 2.20755 -2.23863 0
M  V30 2613 N 249.799 1.42003 -0.683588 0
M  V30 2614 C 251.048 2.00638 -0.206681 0
M  V30 2615 C 251.361 1.5472 1.19671 0
M  V30 2616 O 252.567 2.05833 1.77045 0
M  V30 2617 C 251.023 3.58487 -0.318632 0
M  V30 2618 C 250.631 4.1339 -1.72663 0
M  V30 2619 C 252.375 4.24384 0.0991141 0
M  V30 2620 C 250.282 5.63633 -1.79087 0
M  V30 2621 H 249.212 0.750408 -0.0735107 0
M  V30 2622 H 251.863 1.62624 -0.850048 0
M  V30 2623 H 250.245 3.94047 0.392781 0
M  V30 2624 H 251.419 3.89273 -2.46583 0
M  V30 2625 H 249.734 3.59976 -2.09299 0
M  V30 2626 H 252.331 5.34652 0.0713833 0
M  V30 2627 H 252.674 4.00505 1.13586 0
M  V30 2628 H 253.207 3.93816 -0.561599 0
M  V30 2629 H 249.946 5.92323 -2.80774 0
M  V30 2630 H 249.466 5.89714 -1.09535 0
M  V30 2631 H 251.145 6.28201 -1.5483 0
M  V30 2632 N 251.277 0.427512 1.51691 0
M  V30 2633 C 252.688 -0.0378867 1.86662 0
M  V30 2634 C 253.039 -1.42819 1.34525 0
M  V30 2635 O 252.164 -2.05037 0.692014 0
M  V30 2636 C 252.759 -0.0755266 3.38716 0
M  V30 2637 C 251.318 -0.485309 3.73258 0
M  V30 2638 C 250.465 0.328399 2.75349 0
M  V30 2639 H 253.416 0.64379 1.45055 0
M  V30 2640 H 253.437 -0.887056 3.70016 0
M  V30 2641 H 252.949 0.936487 3.76632 0
M  V30 2642 H 251.05 -1.50329 3.40928 0
M  V30 2643 H 251.163 -0.21693 4.78609 0
M  V30 2644 H 249.527 -0.211905 2.53817 0
M  V30 2645 H 250.31 1.3391 3.16106 0
M  V30 2646 N 252.755 -1.56801 0.158532 0
M  V30 2647 C 254.003 -1.96102 -0.488712 0
M  V30 2648 C 254.324 -1.04498 -1.64636 0
M  V30 2649 O 253.594 -0.108783 -1.95598 0
M  V30 2650 H 252.174 -0.724102 -0.183535 0
M  V30 2651 H 254.836 -1.93457 0.236728 0
M  V30 2652 H 253.932 -3.00097 -0.857219 0
M  V30 2653 N 254.233 0.115231 -1.57178 0
M  V30 2654 C 255.482 0.820945 -1.84237 0
M  V30 2655 C 255.795 1.80866 -0.744761 0
M  V30 2656 O 257.001 2.56083 -0.901871 0
M  V30 2657 C 255.457 1.51072 -3.26658 0
M  V30 2658 C 255.065 0.563795 -4.44438 0
M  V30 2659 C 256.809 2.20134 -3.62962 0
M  V30 2660 C 254.716 1.25701 -5.77887 0
M  V30 2661 H 253.646 0.310328 -0.687177 0
M  V30 2662 H 256.297 0.0737134 -1.83352 0
M  V30 2663 H 254.679 2.30471 -3.22024 0
M  V30 2664 H 255.853 -0.197247 -4.60378 0
M  V30 2665 H 254.168 -0.0200638 -4.16395 0
M  V30 2666 H 256.765 2.72696 -4.59936 0
M  V30 2667 H 257.108 2.98107 -2.90582 0
M  V30 2668 H 257.641 1.47619 -3.69396 0
M  V30 2669 H 254.38 0.518493 -6.53446 0
M  V30 2670 H 253.9 1.98997 -5.65827 0
M  V30 2671 H 255.579 1.78915 -6.2177 0
M  V30 2672 N 255.711 1.52812 0.385517 0
M  V30 2673 C 256.621 1.80766 1.49535 0
M  V30 2674 C 257.637 0.694651 1.59532 0
M  V30 2675 O 258.813 0.982611 1.75803 0
M  V30 2676 C 255.878 1.97381 2.85029 0
M  V30 2677 C 254.939 3.21295 2.84724 0
M  V30 2678 C 254.172 3.37108 4.13756 0
M  V30 2679 O 254.395 2.5765 5.08893 0
M  V30 2680 O 253.329 4.30378 4.20783 0
M  V30 2681 H 257.155 2.75015 1.28842 0
M  V30 2682 H 254.74 1.37946 0.573697 0
M  V30 2683 H 256.622 2.09996 3.65349 0
M  V30 2684 H 255.297 1.06322 3.05741 0
M  V30 2685 H 254.204 3.1412 2.03174 0
M  V30 2686 H 255.537 4.12212 2.68965 0
M  V30 2687 N 257.189 -0.644168 1.43834 0
M  V30 2688 C 258.139 -1.7501 1.46135 0
M  V30 2689 C 259.123 -1.57507 0.328685 0
M  V30 2690 O 260.315 -1.67465 0.5731 0
M  V30 2691 C 257.444 -3.13641 1.39585 0
M  V30 2692 C 256.53 -3.3666 2.57916 0
M  V30 2693 N 256.921 -3.30107 3.83227 0
M  V30 2694 C 255.219 -3.67411 2.52834 0
M  V30 2695 C 255.92 -3.53456 4.61999 0
M  V30 2696 N 254.896 -3.75705 3.9287 0
M  V30 2697 H 258.698 -1.68382 2.40883 0
M  V30 2698 H 256.212 -0.846169 1.38614 0
M  V30 2699 H 258.209 -3.92933 1.39317 0
M  V30 2700 H 256.869 -3.21444 0.45865 0
M  V30 2701 H 257.88 -3.09316 4.15384 0
M  V30 2702 H 254.557 -3.82275 1.67845 0
M  V30 2703 H 255.947 -3.54093 5.71024 0
M  V30 2704 N 258.668 -1.30515 -0.883378 0
M  V30 2705 C 259.908 -1.20716 -1.64946 0
M  V30 2706 C 260.272 0.234072 -1.90568 0
M  V30 2707 O 261.473 0.455335 -2.64915 0
M  V30 2708 C 259.744 -2.01444 -2.9522 0
M  V30 2709 S 261.303 -2.0836 -3.86175 0
M  V30 2710 H 258.121 -0.430165 -0.566109 0
M  V30 2711 H 260.723 -1.65011 -1.04841 0
M  V30 2712 H 259.427 -3.05268 -2.74298 0
M  V30 2713 H 258.958 -1.57817 -3.60357 0
M  V30 2714 H 260.973 -1.21215 -4.81167 0
M  V30 2715 N 260.146 1.09593 -1.13257 0
M  V30 2716 C 261.395 1.81105 -0.887917 0
M  V30 2717 C 261.708 1.86563 0.587672 0
M  V30 2718 O 262.914 2.54367 0.949204 0
M  V30 2719 C 261.37 3.25338 -1.53895 0
M  V30 2720 C 260.978 3.28151 -3.04994 0
M  V30 2721 C 262.722 4.01617 -1.37492 0
M  V30 2722 C 260.629 4.66897 -3.6299 0
M  V30 2723 H 259.559 0.678661 -0.328534 0
M  V30 2724 H 262.21 1.23183 -1.36008 0
M  V30 2725 H 260.592 3.8331 -0.994446 0
M  V30 2726 H 261.766 2.79953 -3.66009 0
M  V30 2727 H 260.081 2.65361 -3.20893 0
M  V30 2728 H 262.678 5.04119 -1.78235 0
M  V30 2729 H 263.021 4.15072 -0.31957 0
M  V30 2730 H 263.554 3.50082 -1.88912 0
M  V30 2731 H 260.293 4.58643 -4.68323 0
M  V30 2732 H 259.813 5.15426 -3.06752 0
M  V30 2733 H 261.492 5.3587 -3.62563 0
M  V30 2734 N 261.624 0.925811 1.2754 0
M  V30 2735 C 262.849 0.580924 1.99098 0
M  V30 2736 C 263.274 -0.833555 1.68622 0
M  V30 2737 O 262.632 -1.55903 0.925422 0
M  V30 2738 C 262.68 0.811186 3.51358 0
M  V30 2739 O 261.784 -0.124129 4.12213 0
M  V30 2740 H 261.125 0.223873 0.625122 0
M  V30 2741 H 263.655 1.24455 1.62395 0
M  V30 2742 H 263.665 0.72601 4.01489 0
M  V30 2743 H 262.34 1.84227 3.72872 0
M  V30 2744 H 260.917 0.0108006 3.72898 0
M  V30 2745 N 263.102 -1.41638 0.69111 0
M  V30 2746 C 264.327 -2.06148 0.227583 0
M  V30 2747 C 264.752 -1.51652 -1.11281 0
M  V30 2748 O 264.11 -0.64164 -1.69566 0
M  V30 2749 C 264.158 -3.60095 0.190858 0
M  V30 2750 O 263.262 -4.03845 -0.835664 0
M  V30 2751 H 262.603 -0.654434 0.112306 0
M  V30 2752 H 265.133 -1.81484 0.944714 0
M  V30 2753 H 265.143 -4.07995 0.020207 0
M  V30 2754 H 263.818 -3.99129 1.16915 0
M  V30 2755 H 262.395 -3.67458 -0.63473 0
M  V30 2756 N 264.58 -0.43555 -1.51462 0
M  V30 2757 C 265.528 0.391205 -2.29287 0
M  V30 2758 C 266.522 1.02247 -1.35062 0
M  V30 2759 O 267.728 0.957646 -1.52411 0
M  V30 2760 H 264.103 0.144968 -0.737895 0
M  V30 2761 H 266.074 -0.286051 -2.97026 0
M  V30 2762 C 264.823 1.48096 -3.14583 0
M  V30 2763 H 264.146 1.00457 -3.86973 0
M  V30 2764 H 265.586 2.03273 -3.72097 0
M  V30 2765 C 264.045 2.46321 -2.29843 0
M  V30 2766 O 264.575 3.50815 -1.95682 0
M  V30 2767 N 262.781 2.17166 -1.931 0
M  V30 2768 H 262.328 1.32218 -2.21079 0
M  V30 2769 H 262.286 2.83127 -1.36698 0
M  V30 2770 N 266.058 1.56714 -0.166846 0
M  V30 2771 C 266.968 2.21331 0.777791 0
M  V30 2772 C 267.984 1.20358 1.25658 0
M  V30 2773 O 269.16 1.53005 1.30964 0
M  V30 2774 C 266.225 2.83787 1.99163 0
M  V30 2775 C 265.286 3.99947 1.56016 0
M  V30 2776 C 264.519 4.59415 2.71613 0
M  V30 2777 O 264.742 4.17769 3.88362 0
M  V30 2778 O 263.676 5.49359 2.45945 0
M  V30 2779 H 267.502 3.02605 0.257636 0
M  V30 2780 H 265.087 1.49275 0.0611393 0
M  V30 2781 H 266.969 3.23405 2.70161 0
M  V30 2782 H 265.644 2.05513 2.50092 0
M  V30 2783 H 264.551 3.65007 0.819809 0
M  V30 2784 H 265.884 4.79801 1.09782 0
M  V30 2785 N 267.536 -0.106894 1.57237 0
M  V30 2786 C 268.499 -1.11466 2.0027 0
M  V30 2787 C 269.499 -1.33623 0.894519 0
M  V30 2788 O 270.689 -1.29935 1.16028 0
M  V30 2789 C 267.821 -2.46646 2.35327 0
M  V30 2790 H 269.014 -0.744516 2.90512 0
M  V30 2791 H 266.567 -0.351576 1.52295 0
M  V30 2792 H 267.302 -2.88558 1.48003 0
M  V30 2793 H 267.087 -2.31915 3.16161 0
M  V30 2794 H 268.577 -3.19151 2.69318 0
M  V30 2795 N 269.014 -1.53014 -0.377408 0
M  V30 2796 C 270.261 -1.68623 -1.12128 0
M  V30 2797 C 270.589 -0.431997 -1.89642 0
M  V30 2798 O 269.844 0.585855 -1.86725 0
M  V30 2799 C 270.143 -2.87982 -2.11663 0
M  V30 2800 C 269.809 -4.24964 -1.50719 0
M  V30 2801 C 268.471 -4.62217 -1.33825 0
M  V30 2802 C 270.823 -5.10199 -1.06519 0
M  V30 2803 C 268.151 -5.82352 -0.712963 0
M  V30 2804 C 270.503 -6.30969 -0.453955 0
M  V30 2805 C 269.167 -6.66944 -0.272411 0
M  V30 2806 H 268.437 -0.617034 -0.410305 0
M  V30 2807 H 271.084 -1.8718 -0.404484 0
M  V30 2808 H 269.389 -2.63889 -2.89603 0
M  V30 2809 H 271.086 -2.97253 -2.6915 0
M  V30 2810 H 267.676 -3.95626 -1.64858 0
M  V30 2811 H 271.86 -4.81978 -1.18368 0
M  V30 2812 H 267.116 -6.08824 -0.560611 0
M  V30 2813 H 271.29 -6.96324 -0.103217 0
M  V30 2814 H 268.917 -7.59898 0.214181 0
M  V30 2815 N 270.492 0.636531 -1.44174 0
M  V30 2816 C 271.722 1.42146 -1.49927 0
M  V30 2817 C 272.13 1.88812 -0.121063 0
M  V30 2818 O 271.473 1.61126 0.882267 0
M  V30 2819 C 271.535 2.67883 -2.39748 0
M  V30 2820 C 271.199 2.43048 -3.8701 0
M  V30 2821 C 272.196 2.05216 -4.77684 0
M  V30 2822 C 269.881 2.56856 -4.3166 0
M  V30 2823 C 271.875 1.81512 -6.11009 0
M  V30 2824 C 269.562 2.32766 -5.65034 0
M  V30 2825 C 270.56 1.95152 -6.54526 0
M  V30 2826 O 270.248 1.71326 -7.85431 0
M  V30 2827 H 269.98 0.442567 -0.51099 0
M  V30 2828 H 272.534 0.786158 -1.8976 0
M  V30 2829 H 270.764 3.34032 -1.94832 0
M  V30 2830 H 272.453 3.29874 -2.36513 0
M  V30 2831 H 273.219 1.94111 -4.44462 0
M  V30 2832 H 269.098 2.85104 -3.62266 0
M  V30 2833 H 272.642 1.52077 -6.80822 0
M  V30 2834 H 268.539 2.43479 -5.97819 0
M  V30 2835 H 269.307 1.85616 -7.97176 0
M  V30 2836 N 271.97 1.30982 0.876444 0
M  V30 2837 C 272.9 1.20668 1.99903 0
M  V30 2838 C 273.881 0.095354 1.69833 0
M  V30 2839 O 275.066 0.27885 1.92188 0
M  V30 2840 C 272.196 0.90655 3.3526 0
M  V30 2841 C 271.15 1.97675 3.79617 0
M  V30 2842 C 270.476 1.52943 5.1236 0
M  V30 2843 C 271.776 3.389 3.97422 0
M  V30 2844 H 273.47 2.14586 2.0879 0
M  V30 2845 H 271.016 1.03308 1.00317 0
M  V30 2846 H 272.969 0.821025 4.13324 0
M  V30 2847 H 271.693 -0.0682969 3.26529 0
M  V30 2848 H 270.352 2.05205 3.03787 0
M  V30 2849 H 270 0.54262 5.00065 0
M  V30 2850 H 269.7 2.24532 5.43009 0
M  V30 2851 H 271.224 1.45786 5.92941 0
M  V30 2852 H 272.638 3.34081 4.659 0
M  V30 2853 H 271.035 4.0865 4.3946 0
M  V30 2854 H 272.105 3.80163 3.01006 0
M  V30 2855 N 273.449 -1.08991 1.13837 0
M  V30 2856 C 274.86 -1.62746 0.914917 0
M  V30 2857 C 275.211 -1.88403 -0.547594 0
M  V30 2858 O 274.336 -1.63706 -1.41525 0
M  V30 2859 C 274.931 -2.95662 1.65437 0
M  V30 2860 C 273.49 -3.46225 1.47666 0
M  V30 2861 C 272.637 -2.20562 1.6807 0
M  V30 2862 H 275.588 -0.922946 1.29102 0
M  V30 2863 H 275.609 -3.63825 1.11407 0
M  V30 2864 H 275.121 -2.76956 2.71877 0
M  V30 2865 H 273.222 -3.70046 0.435478 0
M  V30 2866 H 273.335 -4.23368 2.24268 0
M  V30 2867 H 271.699 -2.29439 1.10589 0
M  V30 2868 H 272.482 -2.0437 2.7584 0
M  V30 2869 N 274.927 -0.932562 -1.27047 0
M  V30 2870 C 275.837 -0.441219 -2.30414 0
M  V30 2871 C 276.853 0.480525 -1.67233 0
M  V30 2872 O 278.029 0.362151 -1.98117 0
M  V30 2873 C 275.094 0.293651 -3.45454 0
M  V30 2874 C 274.155 -0.663601 -4.2414 0
M  V30 2875 C 273.388 0.0362932 -5.33688 0
M  V30 2876 O 273.611 1.2548 -5.56427 0
M  V30 2877 O 272.545 -0.638015 -5.98509 0
M  V30 2878 H 276.371 -1.29962 -2.74488 0
M  V30 2879 H 273.956 -0.6981 -1.32087 0
M  V30 2880 H 275.838 0.707951 -4.15411 0
M  V30 2881 H 274.513 1.12758 -3.03426 0
M  V30 2882 H 273.42 -1.12768 -3.56699 0
M  V30 2883 H 274.753 -1.46489 -4.69896 0
M  V30 2884 N 276.405 1.4127 -0.698611 0
M  V30 2885 C 277.816 1.84187 -0.305289 0
M  V30 2886 C 278.167 1.58449 1.15708 0
M  V30 2887 O 277.292 1.05651 1.88856 0
M  V30 2888 C 277.887 3.3435 -0.547314 0
M  V30 2889 C 276.446 3.75826 -0.207878 0
M  V30 2890 C 275.593 2.64647 -0.828099 0
M  V30 2891 H 278.544 1.30778 -0.89904 0
M  V30 2892 H 278.565 3.8001 0.192998 0
M  V30 2893 H 278.077 3.53051 -1.61172 0
M  V30 2894 H 276.178 3.62725 0.852143 0
M  V30 2895 H 276.291 4.74462 -0.665021 0
M  V30 2896 H 274.655 2.53395 -0.257458 0
M  V30 2897 H 275.438 2.86165 -1.89643 0
M  V30 2898 N 277.883 0.443576 1.51229 0
M  V30 2899 C 279.294 -0.0180867 1.86691 0
M  V30 2900 C 279.645 -1.41384 1.36033 0
M  V30 2901 O 278.77 -2.04291 0.713722 0
M  V30 2902 C 279.365 -0.039597 3.38777 0
M  V30 2903 C 277.924 -0.445692 3.73752 0
M  V30 2904 C 277.071 0.357584 2.74985 0
M  V30 2905 H 280.022 0.659138 1.44364 0
M  V30 2906 H 280.043 -0.847761 3.70936 0
M  V30 2907 H 279.555 0.976382 3.75617 0
M  V30 2908 H 277.656 -1.46704 3.42503 0
M  V30 2909 H 277.769 -0.166155 4.78812 0
M  V30 2910 H 276.133 -0.184973 2.54027 0
M  V30 2911 H 276.916 1.37256 3.14668 0
M  V30 2912 N 279.361 -1.56624 0.175154 0
M  V30 2913 C 280.777 -1.58571 -0.180966 0
M  V30 2914 C 280.977 -1.19065 -1.6256 0
M  V30 2915 O 280.033 -0.904044 -2.35761 0
M  V30 2916 C 281.346 -3.00522 0.103326 0
M  V30 2917 C 282.894 -3.12972 0.0418426 0
M  V30 2918 C 283.369 -4.57022 0.299175 0
M  V30 2919 N 284.86 -4.62541 0.247086 0
M  V30 2920 C 285.595 -5.71857 0.420318 0
M  V30 2921 N 285.091 -6.89717 0.652816 0
M  V30 2922 N 286.884 -5.60972 0.355957 0
M  V30 2923 H 279.035 -1.80589 1.11809 0
M  V30 2924 H 281.298 -0.837178 0.444788 0
M  V30 2925 H 281.004 -3.33916 1.10422 0
M  V30 2926 H 280.878 -3.72344 -0.603299 0
M  V30 2927 H 283.265 -2.79403 -0.949636 0
M  V30 2928 H 283.346 -2.43578 0.781238 0
M  V30 2929 H 282.99 -4.913 1.28788 0
M  V30 2930 H 282.92 -5.24579 -0.460876 0
M  V30 2931 H 285.411 -3.77829 0.0731895 0
M  V30 2932 H 285.724 -7.68911 0.774347 0
M  V30 2933 H 284.069 -6.91572 0.689476 0
M  V30 2934 H 287.26 -4.67773 0.174882 0
M  V30 2935 H 287.433 -6.46111 0.494388 0
M  V30 2936 N 280.839 0.0985539 -1.57292 0
M  V30 2937 C 282.255 0.45267 -1.53046 0
M  V30 2938 C 282.455 1.80713 -0.891342 0
M  V30 2939 O 281.511 2.4785 -0.482375 0
M  V30 2940 C 282.824 0.418341 -2.97776 0
M  V30 2941 C 284.372 0.500443 -3.08973 0
M  V30 2942 C 284.847 0.496297 -4.55303 0
M  V30 2943 N 286.338 0.557151 -4.59837 0
M  V30 2944 C 287.073 0.575726 -5.70502 0
M  V30 2945 N 286.569 0.550714 -6.90608 0
M  V30 2946 N 288.362 0.620277 -5.58667 0
M  V30 2947 H 280.513 -0.788673 -1.97215 0
M  V30 2948 H 282.776 -0.293188 -0.901524 0
M  V30 2949 H 282.482 -0.509659 -3.47988 0
M  V30 2950 H 282.356 1.2386 -3.56284 0
M  V30 2951 H 284.743 1.41886 -2.58751 0
M  V30 2952 H 284.824 -0.347894 -2.53423 0
M  V30 2953 H 284.468 -0.418162 -5.06176 0
M  V30 2954 H 284.398 1.3618 -5.08687 0
M  V30 2955 H 286.889 0.581816 -3.73394 0
M  V30 2956 H 287.202 0.568075 -7.70709 0
M  V30 2957 H 285.547 0.517816 -6.93068 0
M  V30 2958 H 288.738 0.637322 -4.63741 0
M  V30 2959 H 288.911 0.631283 -6.44918 0
M  V30 2960 N 282.317 1.53212 0.369288 0
M  V30 2961 C 283.563 1.69466 1.11397 0
M  V30 2962 C 283.896 0.443257 1.89074 0
M  V30 2963 O 283.171 -0.559386 1.86282 0
M  V30 2964 C 283.454 2.9422 2.07621 0
M  V30 2965 C 283.307 4.29508 1.33577 0
M  V30 2966 C 284.626 3.14565 3.07794 0
M  V30 2967 H 281.745 0.616667 0.403597 0
M  V30 2968 H 284.387 1.85845 0.395179 0
M  V30 2969 H 282.537 2.80387 2.68916 0
M  V30 2970 H 284.209 4.55147 0.750955 0
M  V30 2971 H 282.452 4.29088 0.637618 0
M  V30 2972 H 283.123 5.12926 2.03989 0
M  V30 2973 H 285.599 3.2756 2.56601 0
M  V30 2974 H 284.475 4.03297 3.72348 0
M  V30 2975 H 284.736 2.29675 3.77759 0
M  V30 2976 N 283.795 -0.628877 1.44509 0
M  V30 2977 C 284.725 -1.75187 1.54376 0
M  V30 2978 C 285.706 -1.65411 0.396618 0
M  V30 2979 O 286.891 -1.84137 0.617031 0
M  V30 2980 C 284.021 -3.13725 1.48976 0
M  V30 2981 C 282.975 -3.38291 2.62189 0
M  V30 2982 C 282.301 -4.76883 2.41841 0
M  V30 2983 C 283.601 -3.30632 4.04326 0
M  V30 2984 H 285.295 -1.67187 2.48373 0
M  V30 2985 H 282.841 -0.802909 1.19538 0
M  V30 2986 H 284.794 -3.92064 1.54478 0
M  V30 2987 H 283.518 -3.22515 0.514961 0
M  V30 2988 H 282.177 -2.62334 2.56079 0
M  V30 2989 H 281.825 -4.82378 1.42548 0
M  V30 2990 H 281.525 -4.94278 3.17747 0
M  V30 2991 H 283.049 -5.57449 2.49165 0
M  V30 2992 H 284.463 -3.98873 4.11793 0
M  V30 2993 H 282.86 -3.59561 4.80454 0
M  V30 2994 H 283.93 -2.28404 4.27738 0
M  V30 2995 N 285.273 -1.31445 -0.869486 0
M  V30 2996 C 286.501 -1.24122 -1.65534 0
M  V30 2997 C 286.916 0.193387 -1.87807 0
M  V30 2998 O 286.273 1.12557 -1.43656 0
M  V30 2999 C 286.324 -1.98229 -3.02304 0
M  V30 3000 O 286.045 -3.3609 -2.81026 0
M  V30 3001 C 287.546 -1.97751 -3.96749 0
M  V30 3002 H 284.766 -0.428868 -0.516055 0
M  V30 3003 H 287.31 -1.73328 -1.08525 0
M  V30 3004 H 285.465 -1.52782 -3.56001 0
M  V30 3005 H 285.879 -3.7383 -3.67902 0
M  V30 3006 H 287.353 -2.54114 -4.90031 0
M  V30 3007 H 287.83 -0.960137 -4.28577 0
M  V30 3008 H 288.436 -2.43079 -3.48988 0
M  V30 3009 N 286.751 1.08385 -1.14413 0
M  V30 3010 C 287.997 1.81044 -0.913834 0
M  V30 3011 C 288.33 1.86004 0.558209 0
M  V30 3012 O 287.605 1.33606 1.4135 0
M  V30 3013 C 287.888 3.26648 -1.51569 0
M  V30 3014 C 287.741 3.29895 -3.0576 0
M  V30 3015 C 289.06 4.23629 -1.19273 0
M  V30 3016 H 286.179 0.65727 -0.333414 0
M  V30 3017 H 288.821 1.26896 -1.41412 0
M  V30 3018 H 286.971 3.72889 -1.09023 0
M  V30 3019 H 288.643 2.91977 -3.57137 0
M  V30 3020 H 286.886 2.69163 -3.40197 0
M  V30 3021 H 287.557 4.32516 -3.42977 0
M  V30 3022 H 290.033 3.85727 -1.56057 0
M  V30 3023 H 288.909 5.23822 -1.64017 0
M  V30 3024 H 289.17 4.41968 -0.108068 0
M  V30 3025 N 288.23 0.939286 1.26551 0
M  V30 3026 C 289.478 0.58469 1.93457 0
M  V30 3027 C 289.799 -0.878774 1.74076 0
M  V30 3028 O 289.069 -1.62421 1.09528 0
M  V30 3029 H 287.649 0.21325 0.715914 0
M  V30 3030 H 290.311 1.1942 1.54029 0
M  V30 3031 H 289.407 0.800849 3.0165 0
M  V30 3032 N 289.708 -1.40897 0.706093 0
M  V30 3033 C 290.956 -2.00657 0.241054 0
M  V30 3034 C 291.277 -1.56241 -1.16678 0
M  V30 3035 O 290.547 -0.79765 -1.78926 0
M  V30 3036 H 289.127 -0.742018 0.0861308 0
M  V30 3037 H 291.789 -1.72372 0.909604 0
M  V30 3038 H 290.885 -3.10958 0.266705 0
M  V30 3039 N 291.186 -0.45159 -1.50991 0
M  V30 3040 C 292.434 0.109857 -2.01801 0
M  V30 3041 C 292.755 1.41958 -1.3369 0
M  V30 3042 O 292.025 1.9003 -0.475951 0
M  V30 3043 H 290.605 0.0435884 -0.745727 0
M  V30 3044 H 293.267 -0.597557 -1.85514 0
M  V30 3045 H 292.363 0.275489 -3.10882 0
M  V30 3046 N 292.664 1.56529 -0.183458 0
M  V30 3047 C 293.911 1.97244 0.458357 0
M  V30 3048 C 294.239 1.06992 1.62428 0
M  V30 3049 O 293.494 0.106542 1.9541 0
M  V30 3050 C 293.793 3.43939 0.971637 0
M  V30 3051 C 293.459 4.5083 -0.0796784 0
M  V30 3052 C 292.121 4.79786 -0.368584 0
M  V30 3053 C 294.473 5.15138 -0.792638 0
M  V30 3054 C 291.801 5.70345 -1.37563 0
M  V30 3055 C 294.153 6.06784 -1.78875 0
M  V30 3056 C 292.817 6.34102 -2.08497 0
M  V30 3057 H 292.087 0.721768 0.167725 0
M  V30 3058 H 294.734 1.89472 -0.277976 0
M  V30 3059 H 293.039 3.48724 1.78602 0
M  V30 3060 H 294.736 3.72791 1.47744 0
M  V30 3061 H 291.326 4.28317 0.155668 0
M  V30 3062 H 295.51 4.92868 -0.582659 0
M  V30 3063 H 290.766 5.89789 -1.61118 0
M  V30 3064 H 294.94 6.55677 -2.3465 0
M  V30 3065 H 292.567 7.04074 -2.86678 0
M  V30 3066 N 294.142 -0.090211 1.57342 0
M  V30 3067 C 295.391 -0.791531 1.8552 0
M  V30 3068 C 295.704 -1.79659 0.773441 0
M  V30 3069 O 296.91 -2.54616 0.942497 0
M  V30 3070 C 295.366 -1.45856 3.2902 0
M  V30 3071 C 294.974 -0.493017 4.45279 0
M  V30 3072 C 296.718 -2.14332 3.66418 0
M  V30 3073 C 294.625 -1.16491 5.79814 0
M  V30 3074 H 293.555 -0.299356 0.692027 0
M  V30 3075 H 296.206 -0.0445343 1.83446 0
M  V30 3076 H 294.588 -2.25318 3.2565 0
M  V30 3077 H 295.762 0.270464 4.60006 0
M  V30 3078 H 294.077 0.0863061 4.16311 0
M  V30 3079 H 296.674 -2.65344 4.64216 0
M  V30 3080 H 297.017 -2.93447 2.95287 0
M  V30 3081 H 297.55 -1.41724 3.71698 0
M  V30 3082 H 294.289 -0.41447 6.54188 0
M  V30 3083 H 293.809 -1.8997 5.68921 0
M  V30 3084 H 295.488 -1.69001 6.24538 0
M  V30 3085 N 295.62 -1.53406 -0.361157 0
M  V30 3086 C 296.845 -1.74024 -1.12829 0
M  V30 3087 C 297.27 -0.470069 -1.82132 0
M  V30 3088 O 296.628 0.57619 -1.719 0
M  V30 3089 C 296.676 -2.90903 -2.13091 0
M  V30 3090 O 295.78 -2.59821 -3.20261 0
M  V30 3091 H 295.121 -0.577804 -0.327168 0
M  V30 3092 H 297.651 -2.00307 -0.41693 0
M  V30 3093 H 297.661 -3.17194 -2.56616 0
M  V30 3094 H 296.336 -3.83034 -1.62042 0
M  V30 3095 H 294.913 -2.44362 -2.81677 0
M  V30 3096 N 297.098 0.621204 -1.44841 0
M  V30 3097 C 298.344 1.3826 -1.48365 0
M  V30 3098 C 298.677 1.93831 -0.119624 0
M  V30 3099 O 297.952 1.74251 0.864111 0
M  V30 3100 C 298.235 2.54058 -2.55199 0
M  V30 3101 C 298.088 2.03772 -4.00995 0
M  V30 3102 C 299.407 3.56225 -2.58442 0
M  V30 3103 H 296.526 0.501374 -0.540179 0
M  V30 3104 H 299.168 0.7015 -1.76576 0
M  V30 3105 H 297.318 3.12162 -2.31274 0
M  V30 3106 H 298.99 1.50423 -4.36086 0
M  V30 3107 H 297.233 1.34876 -4.12299 0
M  V30 3108 H 297.904 2.87185 -4.71411 0
M  V30 3109 H 300.38 3.07939 -2.79844 0
M  V30 3110 H 299.256 4.34756 -3.3508 0
M  V30 3111 H 299.517 4.10949 -1.63013 0
M  V30 3112 N 298.576 1.31904 0.862503 0
M  V30 3113 C 299.486 1.22161 2.00285 0
M  V30 3114 C 300.502 0.136785 1.73462 0
M  V30 3115 O 301.678 0.355994 1.98229 0
M  V30 3116 C 298.743 0.937093 3.33796 0
M  V30 3117 C 297.804 2.10957 3.73893 0
M  V30 3118 C 297.037 1.83853 5.01033 0
M  V30 3119 O 297.26 0.777274 5.65079 0
M  V30 3120 O 296.194 2.69741 5.38074 0
M  V30 3121 H 300.02 2.18008 2.11439 0
M  V30 3122 H 297.605 1.11716 0.991957 0
M  V30 3123 H 299.487 0.794583 4.13841 0
M  V30 3124 H 298.162 0.00871894 3.23699 0
M  V30 3125 H 297.069 2.30752 2.94456 0
M  V30 3126 H 298.402 3.02046 3.88625 0
M  V30 3127 N 300.054 -1.07777 1.14986 0
M  V30 3128 C 301.301 -1.8029 0.922056 0
M  V30 3129 C 301.629 -1.86531 -0.55105 0
M  V30 3130 O 300.884 -1.34189 -1.42449 0
M  V30 3131 C 301.183 -3.25495 1.47608 0
M  V30 3132 C 300.849 -3.39361 2.96893 0
M  V30 3133 C 299.511 -3.42852 3.37647 0
M  V30 3134 C 301.863 -3.42512 3.92854 0
M  V30 3135 C 299.191 -3.47094 4.73015 0
M  V30 3136 C 301.543 -3.4829 5.28088 0
M  V30 3137 C 300.207 -3.50058 5.68345 0
M  V30 3138 H 299.477 -0.659727 0.337404 0
M  V30 3139 H 302.124 -1.26854 1.43459 0
M  V30 3140 H 300.429 -3.81683 0.88463 0
M  V30 3141 H 302.126 -3.80168 1.27568 0
M  V30 3142 H 298.716 -3.37339 2.64387 0
M  V30 3143 H 302.9 -3.3904 3.62444 0
M  V30 3144 H 298.156 -3.46758 5.03556 0
M  V30 3145 H 302.33 -3.49675 6.02246 0
M  V30 3146 H 299.957 -3.53097 6.73221 0
M  V30 3147 N 301.532 -0.945985 -1.26051 0
M  V30 3148 C 302.495 -0.463897 -2.24456 0
M  V30 3149 C 303.495 0.427655 -1.55009 0
M  V30 3150 O 304.685 0.226157 -1.72726 0
M  V30 3151 C 301.817 0.330812 -3.39291 0
M  V30 3152 H 303.01 -1.33357 -2.68619 0
M  V30 3153 H 300.563 -0.728416 -1.38289 0
M  V30 3154 H 301.298 1.21852 -3.00537 0
M  V30 3155 H 301.083 -0.308679 -3.90883 0
M  V30 3156 H 302.573 0.657865 -4.12386 0
M  V30 3157 N 303.011 1.40521 -0.713556 0
M  V30 3158 C 304.259 2.00527 -0.251692 0
M  V30 3159 C 304.58 1.56857 1.15848 0
M  V30 3160 O 303.85 0.807127 1.785 0
M  V30 3161 H 302.43 0.741551 -0.0900646 0
M  V30 3162 H 305.092 1.71887 -0.918733 0
M  V30 3163 H 304.188 3.10813 -0.283192 0
M  V30 3164 N 304.489 0.459591 1.5075 0
M  V30 3165 C 305.738 -0.100971 2.01447 0
M  V30 3166 C 306.051 -1.41816 1.34713 0
M  V30 3167 O 307.257 -2.06299 1.76502 0
M  V30 3168 C 305.713 -0.23047 3.59161 0
M  V30 3169 C 305.321 1.0776 4.34847 0
M  V30 3170 C 307.065 -0.743608 4.17936 0
M  V30 3171 C 304.972 0.91253 5.84317 0
M  V30 3172 H 303.902 -0.0415102 0.752856 0
M  V30 3173 H 306.553 0.592742 1.73663 0
M  V30 3174 H 304.935 -0.987703 3.83485 0
M  V30 3175 H 306.109 1.8449 4.22256 0
M  V30 3176 H 304.424 1.52097 3.87628 0
M  V30 3177 H 307.021 -0.883959 5.27343 0
M  V30 3178 H 307.364 -1.73196 3.78562 0
M  V30 3179 H 307.897 -0.04408 3.97776 0
M  V30 3180 H 304.636 1.87391 6.28144 0
M  V30 3181 H 304.156 0.185422 5.99513 0
M  V30 3182 H 305.835 0.574547 6.44444 0
M  V30 3183 N 305.967 -1.56429 0.191757 0
M  V30 3184 C 307.214 -1.97485 -0.447891 0
M  V30 3185 C 307.542 -1.07852 -1.61859 0
M  V30 3186 O 306.797 -0.116903 -1.95351 0
M  V30 3187 C 307.096 -3.44449 -0.953384 0
M  V30 3188 C 306.762 -4.50781 0.103586 0
M  V30 3189 C 305.424 -4.79584 0.394023 0
M  V30 3190 C 307.776 -5.1471 0.819946 0
M  V30 3191 C 305.104 -5.69607 1.40585 0
M  V30 3192 C 307.456 -6.05827 1.8209 0
M  V30 3193 C 306.12 -6.32987 2.11857 0
M  V30 3194 H 305.39 -0.722648 -0.163895 0
M  V30 3195 H 308.037 -1.89322 0.28802 0
M  V30 3196 H 306.342 -3.49666 -1.76751 0
M  V30 3197 H 308.039 -3.73569 -1.45765 0
M  V30 3198 H 304.629 -4.28394 -0.132951 0
M  V30 3199 H 308.813 -4.92552 0.608789 0
M  V30 3200 H 304.069 -5.88926 1.64243 0
M  V30 3201 H 308.243 -6.54424 2.38123 0
M  V30 3202 H 305.87 -7.02544 2.90407 0
M  V30 3203 N 307.445 0.0818655 -1.57387 0
M  V30 3204 C 308.393 1.11712 -2.04018 0
M  V30 3205 C 309.387 1.40683 -0.94364 0
M  V30 3206 O 310.593 1.40209 -1.12878 0
M  V30 3207 H 306.968 0.377542 -0.650358 0
M  V30 3208 H 308.939 0.697614 -2.90131 0
M  V30 3209 C 307.688 2.42537 -2.49141 0
M  V30 3210 H 307.011 2.21092 -3.33104 0
M  V30 3211 H 308.451 3.13446 -2.85531 0
M  V30 3212 C 306.91 3.0778 -1.37014 0
M  V30 3213 O 307.44 3.95436 -0.706621 0
M  V30 3214 N 305.646 2.68242 -1.11779 0
M  V30 3215 H 305.193 1.97052 -1.65917 0
M  V30 3216 H 305.151 3.1222 -0.369594 0
M  V30 3217 N 308.923 1.53595 0.353017 0
M  V30 3218 C 309.886 1.80232 1.41594 0
M  V30 3219 C 310.886 0.673081 1.46035 0
M  V30 3220 O 312.076 0.941335 1.46576 0
M  V30 3221 C 309.208 1.93578 2.80607 0
M  V30 3222 H 310.401 2.75174 1.19244 0
M  V30 3223 H 307.954 1.44864 0.586872 0
M  V30 3224 H 308.689 1.00746 3.08254 0
M  V30 3225 H 308.474 2.75724 2.78781 0
M  V30 3226 H 309.964 2.15735 3.57558 0
M  V30 3227 N 310.401 -0.613514 1.45168 0
M  V30 3228 C 311.631 -1.39743 1.52169 0
M  V30 3229 C 312.039 -1.88596 0.151086 0
M  V30 3230 O 311.382 -1.6251 -0.856521 0
M  V30 3231 C 311.444 -2.64035 2.43979 0
M  V30 3232 C 311.108 -2.36861 3.90827 0
M  V30 3233 C 312.105 -1.97591 4.80889 0
M  V30 3234 C 309.79 -2.49956 4.35692 0
M  V30 3235 C 311.784 -1.71768 6.1382 0
M  V30 3236 C 309.471 -2.23747 5.68665 0
M  V30 3237 C 310.469 -1.84714 6.57548 0
M  V30 3238 O 310.157 -1.58809 7.88058 0
M  V30 3239 H 309.889 -0.434382 0.517966 0
M  V30 3240 H 312.443 -0.75587 1.90986 0
M  V30 3241 H 310.673 -3.3089 2.00122 0
M  V30 3242 H 312.362 -3.26069 2.41731 0
M  V30 3243 H 313.128 -1.87015 4.47493 0
M  V30 3244 H 309.007 -2.79305 3.66756 0
M  V30 3245 H 312.551 -1.41227 6.83155 0
M  V30 3246 H 308.448 -2.33938 6.01617 0
M  V30 3247 H 309.216 -1.7291 8.00028 0
M  V30 3248 N 311.879 -1.3236 -0.855495 0
M  V30 3249 C 312.826 -1.21225 -1.964 0
M  V30 3250 C 313.796 -0.0946204 -1.6583 0
M  V30 3251 O 314.981 -0.27002 -1.8888 0
M  V30 3252 C 312.121 -0.940419 -3.32039 0
M  V30 3253 C 311.234 -2.14276 -3.75113 0
M  V30 3254 C 310.369 -1.80648 -4.9954 0
M  V30 3255 C 309.408 -2.97208 -5.35102 0
M  V30 3256 N 308.545 -2.63678 -6.50706 0
M  V30 3257 H 313.385 -2.16042 -2.05255 0
M  V30 3258 H 310.922 -1.07451 -1.00463 0
M  V30 3259 H 312.88 -0.763311 -4.10158 0
M  V30 3260 H 311.51 -0.0290413 -3.22787 0
M  V30 3261 H 310.562 -2.43017 -2.92655 0
M  V30 3262 H 311.874 -3.01468 -3.97389 0
M  V30 3263 H 311.028 -1.59484 -5.85363 0
M  V30 3264 H 309.767 -0.906678 -4.79198 0
M  V30 3265 H 308.772 -3.19004 -4.47791 0
M  V30 3266 H 309.997 -3.87918 -5.57401 0
M  V30 3267 H 307.943 -1.76238 -6.31883 0
M  V30 3268 H 307.86 -3.444 -6.72997 0
M  V30 3269 H 309.128 -2.45942 -7.39684 0
M  V30 3270 N 313.357 1.07166 -1.15556 0
M  V30 3271 C 314.768 1.6127 -0.940693 0
M  V30 3272 C 315.119 1.89251 0.517551 0
M  V30 3273 O 314.244 1.65937 1.38903 0
M  V30 3274 C 314.839 2.92993 -1.7012 0
M  V30 3275 C 313.398 3.43832 -1.53156 0
M  V30 3276 C 312.545 2.1786 -1.71558 0
M  V30 3277 H 315.496 0.90229 -1.30554 0
M  V30 3278 H 315.517 3.62007 -1.17181 0
M  V30 3279 H 315.029 2.72596 -2.76248 0
M  V30 3280 H 313.13 3.69307 -0.494294 0
M  V30 3281 H 313.243 4.19747 -2.30975 0
M  V30 3282 H 311.607 2.2765 -1.14225 0
M  V30 3283 H 312.39 1.99956 -2.79056 0
M  V30 3284 N 314.835 0.952656 1.25548 0
M  V30 3285 C 315.782 0.47008 2.25962 0
M  V30 3286 C 316.752 -0.476384 1.59122 0
M  V30 3287 O 317.937 -0.39007 1.8677 0
M  V30 3288 C 315.077 -0.247881 3.44209 0
M  V30 3289 C 314.19 0.735591 4.25691 0
M  V30 3290 C 313.325 -0.0047306 5.312 0
M  V30 3291 C 312.364 0.969805 6.04368 0
M  V30 3292 N 311.501 0.260486 7.01617 0
M  V30 3293 H 316.341 1.33126 2.66611 0
M  V30 3294 H 313.878 0.66765 1.31076 0
M  V30 3295 H 315.836 -0.680695 4.1161 0
M  V30 3296 H 314.466 -1.07312 3.0444 0
M  V30 3297 H 313.518 1.28689 3.57971 0
M  V30 3298 H 314.83 1.47934 4.76358 0
M  V30 3299 H 313.984 -0.496275 6.04667 0
M  V30 3300 H 312.723 -0.781282 4.81401 0
M  V30 3301 H 311.728 1.47237 5.29718 0
M  V30 3302 H 312.953 1.74655 6.56256 0
M  V30 3303 H 310.899 -0.497364 6.54112 0
M  V30 3304 H 310.816 0.943362 7.50091 0
M  V30 3305 H 312.084 -0.209587 7.79218 0
M  V30 3306 N 316.313 -1.40141 0.720998 0
M  V30 3307 C 317.59 -1.94677 0.189757 0
M  V30 3308 C 317.97 -1.65879 -1.30566 0
M  V30 3309 O 317.318 -0.979391 -2.06447 0
M  V30 3310 C 317.528 -3.45279 0.508304 0
M  V30 3311 C 318.876 -4.22209 0.449934 0
M  V30 3312 O 319.9 -3.53413 0.444677 0
M  V30 3313 O 318.759 -5.44788 0.432189 0
M  V30 3314 H 315.853 -0.826459 0.0299026 0
M  V30 3315 H 318.399 -1.49719 0.7989 0
M  V30 3316 H 317.171 -3.59619 1.54239 0
M  V30 3317 H 316.794 -3.97386 -0.130525 0
M  V30 3318 N 317.792 -0.46758 -1.50504 0
M  V30 3319 C 319.04 0.0884469 -2.01906 0
M  V30 3320 C 319.361 1.40532 -1.35188 0
M  V30 3321 O 318.631 1.89515 -0.496079 0
M  V30 3322 H 317.211 0.0356765 -0.746148 0
M  V30 3323 H 319.873 -0.6172 -1.84869 0
M  V30 3324 H 318.969 0.2425 -3.11156 0
M  V30 3325 N 319.27 1.56325 -0.20005 0
M  V30 3326 C 320.202 2.16555 0.750771 0
M  V30 3327 C 321.215 1.12871 1.1732 0
M  V30 3328 O 322.404 1.39943 1.10807 0
M  V30 3329 C 319.504 2.71684 2.02586 0
M  V30 3330 C 318.677 4.00321 1.76244 0
M  V30 3331 C 317.736 4.40227 2.88248 0
M  V30 3332 O 316.762 5.07552 2.57642 0
M  V30 3333 N 317.964 4.04138 4.16717 0
M  V30 3334 H 320.729 2.98772 0.235685 0
M  V30 3335 H 318.29 1.6189 -0.0182594 0
M  V30 3336 H 320.282 2.95363 2.76664 0
M  V30 3337 H 318.852 1.93893 2.45202 0
M  V30 3338 H 318.072 3.84723 0.85919 0
M  V30 3339 H 319.36 4.84279 1.56048 0
M  V30 3340 H 318.758 3.49993 4.44434 0
M  V30 3341 H 317.315 4.32756 4.87407 0
M  V30 3342 N 320.748 -0.0735177 1.57428 0
M  V30 3343 C 321.994 -0.774145 1.87443 0
M  V30 3344 C 322.327 -1.77311 0.792103 0
M  V30 3345 O 321.602 -1.93492 -0.197793 0
M  V30 3346 C 321.885 -1.48367 3.28115 0
M  V30 3347 C 321.738 -0.501227 4.46999 0
M  V30 3348 C 323.057 -2.429 3.66998 0
M  V30 3349 H 320.176 -0.279971 0.681752 0
M  V30 3350 H 322.818 -0.0373616 1.89963 0
M  V30 3351 H 320.968 -2.11171 3.26097 0
M  V30 3352 H 322.64 0.121468 4.6114 0
M  V30 3353 H 320.883 0.183593 4.33411 0
M  V30 3354 H 321.554 -1.03526 5.42205 0
M  V30 3355 H 324.03 -1.90175 3.70098 0
M  V30 3356 H 322.906 -2.89549 4.66318 0
M  V30 3357 H 323.167 -3.27628 2.96837 0
M  V30 3358 N 322.226 -1.5378 -0.344866 0
M  V30 3359 C 323.454 -1.74899 -1.10534 0
M  V30 3360 C 323.869 -0.487534 -1.82397 0
M  V30 3361 O 323.226 0.540741 -1.74305 0
M  V30 3362 C 323.277 -2.92822 -2.11984 0
M  V30 3363 O 322.998 -4.14089 -1.43044 0
M  V30 3364 C 324.499 -3.25982 -3.00417 0
M  V30 3365 H 321.719 -0.584426 -0.329678 0
M  V30 3366 H 324.263 -2.006 -0.397474 0
M  V30 3367 H 322.418 -2.69457 -2.78338 0
M  V30 3368 H 322.832 -4.80272 -2.10805 0
M  V30 3369 H 324.306 -4.11848 -3.67539 0
M  V30 3370 H 324.783 -2.42228 -3.66363 0
M  V30 3371 H 325.389 -3.51349 -2.39654 0
M  V30 3372 N 323.704 0.605807 -1.45491 0
M  V30 3373 C 324.634 1.72709 -1.57143 0
M  V30 3374 C 325.615 1.6476 -0.422884 0
M  V30 3375 O 326.8 1.83132 -0.646247 0
M  V30 3376 C 323.93 3.11316 -1.53948 0
M  V30 3377 C 322.884 3.34077 -2.67537 0
M  V30 3378 C 322.21 4.72975 -2.49397 0
M  V30 3379 C 323.51 3.24158 -4.09535 0
M  V30 3380 H 325.204 1.63214 -2.51001 0
M  V30 3381 H 322.75 0.78379 -1.208 0
M  V30 3382 H 324.703 3.89557 -1.60696 0
M  V30 3383 H 323.427 3.21655 -0.566205 0
M  V30 3384 H 322.086 2.58227 -2.6022 0
M  V30 3385 H 321.734 4.8005 -1.50205 0
M  V30 3386 H 321.434 4.8916 -3.25571 0
M  V30 3387 H 322.958 5.53414 -2.58002 0
M  V30 3388 H 324.372 3.92271 -4.18086 0
M  V30 3389 H 322.769 3.51872 -4.86113 0
M  V30 3390 H 323.839 2.2157 -4.31317 0
M  V30 3391 N 325.182 1.32811 0.848464 0
M  V30 3392 C 326.422 1.25046 1.61687 0
M  V30 3393 C 326.786 -0.183464 1.91121 0
M  V30 3394 O 327.987 -0.384937 2.66029 0
M  V30 3395 C 326.258 2.09201 2.89775 0
M  V30 3396 S 327.817 2.18526 3.80515 0
M  V30 3397 H 324.635 0.445023 0.554505 0
M  V30 3398 H 327.237 1.67733 1.00429 0
M  V30 3399 H 325.941 3.12433 2.66108 0
M  V30 3400 H 325.472 1.67315 3.56047 0
M  V30 3401 H 327.487 1.3393 4.77784 0
M  V30 3402 N 326.66 -1.06551 1.16123 0
M  V30 3403 C 327.89 -1.8274 0.963838 0
M  V30 3404 C 328.298 -1.82712 -0.491228 0
M  V30 3405 O 327.641 -1.24294 -1.35265 0
M  V30 3406 C 327.703 -3.3065 1.41106 0
M  V30 3407 C 327.367 -3.54384 2.88549 0
M  V30 3408 C 328.364 -3.4765 3.86569 0
M  V30 3409 C 326.049 -3.81789 3.26408 0
M  V30 3410 C 328.043 -3.67982 5.2045 0
M  V30 3411 C 325.73 -4.01772 4.60459 0
M  V30 3412 C 326.728 -3.94866 5.57288 0
M  V30 3413 O 326.416 -4.14306 6.88916 0
M  V30 3414 H 326.148 -0.583136 0.341948 0
M  V30 3415 H 328.702 -1.35351 1.54497 0
M  V30 3416 H 326.932 -3.78887 0.773394 0
M  V30 3417 H 328.621 -3.88324 1.1815 0
M  V30 3418 H 329.387 -3.2647 3.58667 0
M  V30 3419 H 325.266 -3.86276 2.51619 0
M  V30 3420 H 328.81 -3.62507 5.96015 0
M  V30 3421 H 324.707 -4.2244 4.88072 0
M  V30 3422 H 325.475 -4.31609 6.95454 0
M  V30 3423 N 328.138 -0.959301 -1.25041 0
M  V30 3424 C 329.554 -0.664474 -1.4511 0
M  V30 3425 C 329.754 0.776481 -1.85938 0
M  V30 3426 O 328.81 1.55128 -1.99227 0
M  V30 3427 C 330.123 -1.64139 -2.5195 0
M  V30 3428 C 331.671 -1.65309 -2.65786 0
M  V30 3429 C 332.146 -2.61777 -3.75815 0
M  V30 3430 N 333.637 -2.60169 -3.83231 0
M  V30 3431 C 334.372 -3.31489 -4.6787 0
M  V30 3432 N 333.868 -4.12298 -5.56761 0
M  V30 3433 N 335.661 -3.20354 -4.61876 0
M  V30 3434 H 327.812 -1.89043 -0.968332 0
M  V30 3435 H 330.075 -0.813408 -0.4869 0
M  V30 3436 H 329.781 -2.67086 -2.28819 0
M  V30 3437 H 329.655 -1.40756 -3.49954 0
M  V30 3438 H 332.042 -0.630778 -2.8828 0
M  V30 3439 H 332.123 -1.92753 -1.68167 0
M  V30 3440 H 331.767 -3.64137 -3.54071 0
M  V30 3441 H 331.697 -2.31616 -4.72929 0
M  V30 3442 H 334.188 -2.01507 -3.19692 0
M  V30 3443 H 334.501 -4.63625 -6.18281 0
M  V30 3444 H 332.846 -4.16395 -5.56454 0
M  V30 3445 H 336.037 -2.56692 -3.91442 0
M  V30 3446 H 336.21 -3.76201 -5.27614 0
M  V30 3447 N 329.616 1.39756 -0.72842 0
M  V30 3448 C 330.864 2.00248 -0.272946 0
M  V30 3449 C 331.185 1.58077 1.14178 0
M  V30 3450 O 330.455 0.826014 1.77634 0
M  V30 3451 H 329.035 0.740554 -0.0979247 0
M  V30 3452 H 331.697 1.70903 -0.936912 0
M  V30 3453 H 330.793 3.10495 -0.316142 0
M  V30 3454 N 331.094 0.475555 1.50254 0
M  V30 3455 C 332.004 -0.321501 2.32387 0
M  V30 3456 C 333.02 -0.991755 1.42969 0
M  V30 3457 O 334.196 -0.978747 1.76018 0
M  V30 3458 C 331.261 -1.38667 3.17762 0
M  V30 3459 C 330.322 -0.732538 4.23004 0
M  V30 3460 C 329.555 -1.74695 5.04299 0
M  V30 3461 O 329.778 -2.97399 4.86734 0
M  V30 3462 O 328.712 -1.31631 5.8733 0
M  V30 3463 H 332.538 0.350071 3.01676 0
M  V30 3464 H 330.123 0.237321 1.47503 0
M  V30 3465 H 332.005 -2.00354 3.70724 0
M  V30 3466 H 330.68 -2.04163 2.51196 0
M  V30 3467 H 329.587 -0.0765902 3.74022 0
M  V30 3468 H 330.92 -0.120452 4.92053 0
M  V30 3469 N 332.573 -1.56217 0.208337 0
M  V30 3470 C 333.506 -2.15633 -0.746842 0
M  V30 3471 C 334.484 -1.09685 -1.20034 0
M  V30 3472 O 335.668 -1.3787 -1.28547 0
M  V30 3473 C 332.795 -2.72594 -2.01023 0
M  V30 3474 C 331.841 -3.91251 -1.69779 0
M  V30 3475 S 332.674 -5.28962 -0.834209 0
M  V30 3476 C 333.83 -5.89353 -2.10745 0
M  V30 3477 H 334.063 -2.96315 -0.241789 0
M  V30 3478 H 331.596 -1.54398 -0.00682183 0
M  V30 3479 H 333.554 -3.06053 -2.73572 0
M  V30 3480 H 332.215 -1.91929 -2.48641 0
M  V30 3481 H 331.408 -4.29562 -2.63614 0
M  V30 3482 H 331.01 -3.58869 -1.05303 0
M  V30 3483 H 333.302 -6.04522 -3.05875 0
M  V30 3484 H 334.245 -6.85661 -1.76845 0
M  V30 3485 H 334.653 -5.1807 -2.24196 0
M  V30 3486 N 334.051 0.0651679 -1.57465 0
M  V30 3487 C 335.3 0.761916 -1.86756 0
M  V30 3488 C 335.613 1.78406 -0.801925 0
M  V30 3489 O 336.819 2.53084 -0.982885 0
M  V30 3490 C 335.275 1.40603 -3.31299 0
M  V30 3491 C 334.883 0.422115 -4.46007 0
M  V30 3492 C 336.627 2.08476 -3.69781 0
M  V30 3493 C 334.534 1.07252 -5.81593 0
M  V30 3494 H 333.464 0.288308 -0.696702 0
M  V30 3495 H 336.115 0.015344 -1.83494 0
M  V30 3496 H 334.497 2.20109 -3.29193 0
M  V30 3497 H 335.671 -0.343613 -4.59517 0
M  V30 3498 H 333.986 -0.152527 -4.16121 0
M  V30 3499 H 336.583 2.57925 -4.68379 0
M  V30 3500 H 336.926 2.88712 -2.99919 0
M  V30 3501 H 337.459 1.35792 -3.73905 0
M  V30 3502 H 334.198 0.310342 -6.54765 0
M  V30 3503 H 333.718 1.80895 -5.71872 0
M  V30 3504 H 335.397 1.59043 -6.27148 0
M  V30 3505 N 335.529 1.53961 0.336706 0
M  V30 3506 C 336.459 1.85417 1.41925 0
M  V30 3507 C 337.44 0.709856 1.5458 0
M  V30 3508 O 338.625 0.962396 1.68676 0
M  V30 3509 C 335.755 2.06985 2.78881 0
M  V30 3510 C 334.709 3.22813 2.81026 0
M  V30 3511 C 334.035 3.29727 4.20932 0
M  V30 3512 C 335.335 4.60767 2.45949 0
M  V30 3513 H 337.029 2.76079 1.15848 0
M  V30 3514 H 334.575 1.32839 0.555859 0
M  V30 3515 H 336.528 2.27575 3.54665 0
M  V30 3516 H 335.252 1.13061 3.06406 0
M  V30 3517 H 333.911 3.0209 2.07695 0
M  V30 3518 H 333.559 2.33385 4.45579 0
M  V30 3519 H 333.259 4.07566 4.23277 0
M  V30 3520 H 334.783 3.52536 4.98549 0
M  V30 3521 H 336.197 4.81325 3.11446 0
M  V30 3522 H 334.594 5.4106 2.59566 0
M  V30 3523 H 335.664 4.6391 1.41122 0
M  V30 3524 N 337.007 -0.598083 1.45811 0
M  V30 3525 C 338.423 -0.919847 1.30426 0
M  V30 3526 C 338.623 -1.99759 0.264303 0
M  V30 3527 O 337.679 -2.50221 -0.338472 0
M  V30 3528 C 338.992 -1.35176 2.68603 0
M  V30 3529 C 340.54 -1.46546 2.76574 0
M  V30 3530 C 341.015 -1.9311 4.15298 0
M  V30 3531 N 342.506 -2.00328 4.1764 0
M  V30 3532 C 343.241 -2.37599 5.21856 0
M  V30 3533 N 342.737 -2.73771 6.36413 0
M  V30 3534 N 344.53 -2.38021 5.09218 0
M  V30 3535 H 336.681 0.114111 2.12093 0
M  V30 3536 H 338.944 -0.0116121 0.947929 0
M  V30 3537 H 338.65 -0.633969 3.45939 0
M  V30 3538 H 338.524 -2.3164 2.97696 0
M  V30 3539 H 340.911 -2.17415 1.99537 0
M  V30 3540 H 340.992 -0.483727 2.51185 0
M  V30 3541 H 340.636 -1.22824 4.92825 0
M  V30 3542 H 340.566 -2.92213 4.38086 0
M  V30 3543 H 343.057 -1.74925 3.34977 0
M  V30 3544 H 343.37 -3.0112 7.11721 0
M  V30 3545 H 341.715 -2.71445 6.39799 0
M  V30 3546 H 344.906 -2.09174 4.18765 0
M  V30 3547 H 345.079 -2.66741 5.90554 0
M  V30 3548 N 338.485 -1.33259 -0.841409 0
M  V30 3549 C 339.733 -1.24326 -1.59334 0
M  V30 3550 C 340.054 0.191564 -1.94057 0
M  V30 3551 O 339.324 1.11967 -1.60749 0
M  V30 3552 H 337.904 -0.457174 -0.590763 0
M  V30 3553 H 340.566 -1.66947 -1.00571 0
M  V30 3554 H 339.662 -1.8352 -2.52442 0
M  V30 3555 N 339.963 1.05934 -1.16686 0
M  V30 3556 C 341.21 1.788 -0.950622 0
M  V30 3557 C 341.538 1.87384 0.521305 0
M  V30 3558 O 340.793 1.36438 1.40297 0
M  V30 3559 C 341.092 3.23105 -1.52767 0
M  V30 3560 C 340.758 3.34594 -3.02254 0
M  V30 3561 C 339.42 3.37437 -3.43059 0
M  V30 3562 C 341.772 3.36219 -3.98254 0
M  V30 3563 C 339.1 3.39525 -4.78477 0
M  V30 3564 C 341.452 3.39845 -5.33562 0
M  V30 3565 C 340.116 3.40971 -5.73842 0
M  V30 3566 H 339.386 0.654275 -0.347857 0
M  V30 3567 H 342.033 1.24555 -1.45459 0
M  V30 3568 H 340.338 3.80227 -0.94524 0
M  V30 3569 H 342.035 3.7809 -1.336 0
M  V30 3570 H 338.625 3.3309 -2.6972 0
M  V30 3571 H 342.809 3.33231 -3.67792 0
M  V30 3572 H 338.065 3.38703 -5.09009 0
M  V30 3573 H 342.239 3.4005 -6.07733 0
M  V30 3574 H 339.866 3.42342 -6.78753 0
M  V30 3575 N 341.441 0.965919 1.2453 0
M  V30 3576 C 342.718 0.543777 1.87889 0
M  V30 3577 C 343.098 -0.97909 1.87021 0
M  V30 3578 O 342.446 -1.84969 1.3416 0
M  V30 3579 C 342.656 1.13327 3.30088 0
M  V30 3580 C 344.004 1.21707 4.06783 0
M  V30 3581 O 345.028 1.08566 3.39252 0
M  V30 3582 O 343.887 1.42456 5.27606 0
M  V30 3583 H 340.981 0.181054 0.806938 0
M  V30 3584 H 343.527 1.06007 1.32516 0
M  V30 3585 H 342.299 2.17612 3.25209 0
M  V30 3586 H 341.922 0.600911 3.93033 0
M  V30 3587 N 342.919 -1.39368 0.735821 0
M  V30 3588 C 343.869 -2.27885 0.0724287 0
M  V30 3589 C 344.853 -1.44301 -0.711756 0
M  V30 3590 O 346.045 -1.67206 -0.58063 0
M  V30 3591 C 343.174 -3.33029 -0.833454 0
M  V30 3592 C 342.26 -4.24078 -0.0433749 0
M  V30 3593 N 342.651 -4.96138 0.983903 0
M  V30 3594 C 340.949 -4.45164 -0.272905 0
M  V30 3595 C 341.65 -5.63069 1.4604 0
M  V30 3596 N 340.626 -5.37991 0.778857 0
M  V30 3597 H 344.428 -2.81052 0.859467 0
M  V30 3598 H 341.942 -1.5206 0.570227 0
M  V30 3599 H 343.939 -3.95311 -1.32419 0
M  V30 3600 H 342.599 -2.81421 -1.61964 0
M  V30 3601 H 343.61 -4.9958 1.36528 0
M  V30 3602 H 340.287 -4.04497 -1.03383 0
M  V30 3603 H 341.677 -6.30755 2.31511 0
M  V30 3604 N 344.397 -0.483516 -1.5 0
M  V30 3605 C 345.625 0.0644831 -2.06799 0
M  V30 3606 C 346.04 1.32399 -1.34596 0
M  V30 3607 O 345.397 1.77626 -0.418946 0
M  V30 3608 C 345.448 0.339927 -3.59898 0
M  V30 3609 O 345.169 -0.869635 -4.29382 0
M  V30 3610 C 346.67 0.933515 -4.33359 0
M  V30 3611 H 343.89 -0.0126333 -0.670881 0
M  V30 3612 H 346.434 -0.675864 -1.93009 0
M  V30 3613 H 344.589 1.03022 -3.7345 0
M  V30 3614 H 345.003 -0.62179 -5.20801 0
M  V30 3615 H 346.477 1.07593 -5.41413 0
M  V30 3616 H 346.954 1.92685 -3.94676 0
M  V30 3617 H 347.56 0.281221 -4.24369 0
M  V30 3618 N 345.875 1.56104 -0.216619 0
M  V30 3619 C 346.805 2.23063 0.690296 0
M  V30 3620 C 347.786 1.20072 1.20485 0
M  V30 3621 O 348.971 1.48643 1.24976 0
M  V30 3622 C 346.101 2.90672 1.90072 0
M  V30 3623 C 345.055 4.00092 1.5202 0
M  V30 3624 C 344.381 4.54972 2.80899 0
M  V30 3625 C 345.681 5.17398 0.71391 0
M  V30 3626 H 347.375 2.99109 0.132038 0
M  V30 3627 H 344.921 1.43866 0.0620664 0
M  V30 3628 H 346.874 3.36204 2.54057 0
M  V30 3629 H 345.598 2.12066 2.48386 0
M  V30 3630 H 344.257 3.55283 0.903839 0
M  V30 3631 H 343.905 3.73102 3.37348 0
M  V30 3632 H 343.605 5.28817 2.56176 0
M  V30 3633 H 345.129 5.0322 3.45836 0
M  V30 3634 H 346.543 5.59342 1.25735 0
M  V30 3635 H 344.94 5.97444 0.563951 0
M  V30 3636 H 346.01 4.84088 -0.280527 0
M  V30 3637 N 347.353 -0.0568162 1.57498 0
M  V30 3638 C 348.769 -0.411933 1.54192 0
M  V30 3639 C 348.969 -1.78287 0.938942 0
M  V30 3640 O 348.025 -2.46483 0.547919 0
M  V30 3641 C 349.338 -0.339244 2.9878 0
M  V30 3642 C 350.886 -0.418348 3.10192 0
M  V30 3643 C 351.361 -0.375407 4.56459 0
M  V30 3644 N 352.852 -0.435038 4.61153 0
M  V30 3645 C 353.587 -0.424265 5.71828 0
M  V30 3646 N 353.083 -0.367418 6.91825 0
M  V30 3647 N 354.876 -0.471938 5.60115 0
M  V30 3648 H 347.027 0.840684 1.95055 0
M  V30 3649 H 349.29 0.316987 0.893433 0
M  V30 3650 H 348.996 0.601742 3.46514 0
M  V30 3651 H 348.87 -1.14371 3.59443 0
M  V30 3652 H 351.257 -1.34976 2.62422 0
M  V30 3653 H 351.338 0.414962 2.52412 0
M  V30 3654 H 350.982 0.552219 5.04889 0
M  V30 3655 H 350.912 -1.22645 5.12119 0
M  V30 3656 H 353.403 -0.482612 3.74806 0
M  V30 3657 H 353.716 -0.363535 7.71944 0
M  V30 3658 H 352.061 -0.333879 6.94198 0
M  V30 3659 H 355.252 -0.514145 4.65268 0
M  V30 3660 H 355.425 -0.460073 6.46365 0
M  V30 3661 N 348.832 -1.54138 -0.328536 0
M  V30 3662 C 349.742 -1.86192 -1.42723 0
M  V30 3663 C 350.758 -0.753382 -1.56844 0
M  V30 3664 O 351.934 -1.04718 -1.72035 0
M  V30 3665 C 348.999 -2.07824 -2.77507 0
M  V30 3666 C 348.06 -3.31641 -2.72603 0
M  V30 3667 C 347.293 -3.52232 -4.00959 0
M  V30 3668 O 347.516 -2.7636 -4.9898 0
M  V30 3669 O 346.45 -4.45699 -4.0452 0
M  V30 3670 H 350.276 -2.79608 -1.18547 0
M  V30 3671 H 347.861 -1.3998 -0.522104 0
M  V30 3672 H 349.743 -2.23411 -3.57303 0
M  V30 3673 H 348.418 -1.17596 -3.01584 0
M  V30 3674 H 347.325 -3.21444 -1.91376 0
M  V30 3675 H 348.658 -4.2191 -2.53481 0
M  V30 3676 N 350.31 0.590341 -1.46126 0
M  V30 3677 C 351.22 1.72793 -1.58681 0
M  V30 3678 C 352.236 1.67516 -0.470566 0
M  V30 3679 O 353.412 1.87562 -0.733642 0
M  V30 3680 C 350.477 3.09287 -1.5666 0
M  V30 3681 C 349.538 3.25886 -2.79458 0
M  V30 3682 C 348.771 4.55869 -2.77524 0
M  V30 3683 O 348.994 5.3928 -1.85832 0
M  V30 3684 O 347.928 4.75552 -3.68964 0
M  V30 3685 H 351.754 1.65149 -2.54872 0
M  V30 3686 H 349.339 0.756486 -1.28832 0
M  V30 3687 H 351.221 3.90577 -1.58202 0
M  V30 3688 H 349.896 3.17385 -0.636271 0
M  V30 3689 H 348.803 2.44119 -2.83472 0
M  V30 3690 H 350.136 3.22675 -3.71674 0
M  V30 3691 N 351.788 1.33704 0.83433 0
M  V30 3692 C 352.718 1.26967 1.95963 0
M  V30 3693 C 353.699 0.149337 1.69443 0
M  V30 3694 O 354.884 0.339852 1.91203 0
M  V30 3695 C 352.014 1.01275 3.32206 0
M  V30 3696 C 350.968 2.09652 3.73136 0
M  V30 3697 C 350.294 1.69166 5.07235 0
M  V30 3698 C 351.594 3.51372 3.86439 0
M  V30 3699 H 353.288 2.2112 2.01857 0
M  V30 3700 H 350.834 1.06447 0.969793 0
M  V30 3701 H 352.787 0.952106 4.10503 0
M  V30 3702 H 351.511 0.0356203 3.26581 0
M  V30 3703 H 350.17 2.14766 2.97104 0
M  V30 3704 H 349.818 0.701437 4.98085 0
M  V30 3705 H 349.518 2.41694 5.35591 0
M  V30 3706 H 351.042 1.64576 5.88003 0
M  V30 3707 H 352.456 3.48734 4.55036 0
M  V30 3708 H 350.853 4.22425 4.26236 0
M  V30 3709 H 351.923 3.89546 2.88759 0
M  V30 3710 N 353.266 -1.05314 1.17247 0
M  V30 3711 C 354.494 -1.81971 0.984593 0
M  V30 3712 C 354.909 -1.82929 -0.467166 0
M  V30 3713 O 354.266 -1.25564 -1.32438 0
M  V30 3714 C 354.317 -3.28143 1.51672 0
M  V30 3715 O 354.038 -3.27347 2.91163 0
M  V30 3716 C 355.539 -4.21493 1.37326 0
M  V30 3717 H 352.759 -0.573455 0.348411 0
M  V30 3718 H 355.303 -1.32808 1.55506 0
M  V30 3719 H 353.458 -3.74582 0.988302 0
M  V30 3720 H 353.872 -4.18824 3.15732 0
M  V30 3721 H 355.346 -5.22043 1.79375 0
M  V30 3722 H 355.823 -4.38031 0.320169 0
M  V30 3723 H 356.429 -3.80909 1.89178 0
M  V30 3724 N 354.744 -0.972509 -1.24016 0
M  V30 3725 C 355.691 -0.505969 -2.25186 0
M  V30 3726 C 356.661 0.451009 -1.5986 0
M  V30 3727 O 357.846 0.360307 -1.87367 0
M  V30 3728 C 354.986 0.193089 -3.44559 0
M  V30 3729 C 354.099 -0.803222 -4.24467 0
M  V30 3730 C 353.234 -0.0797793 -5.3114 0
M  V30 3731 C 352.273 -1.06583 -6.02749 0
M  V30 3732 N 351.41 -0.372074 -7.01113 0
M  V30 3733 H 356.25 -1.37351 -2.64459 0
M  V30 3734 H 353.787 -0.688419 -1.29997 0
M  V30 3735 H 355.745 0.615125 -4.1264 0
M  V30 3736 H 354.375 1.02455 -3.06109 0
M  V30 3737 H 353.427 -1.34368 -3.55878 0
M  V30 3738 H 354.739 -1.55494 -4.73944 0
M  V30 3739 H 353.893 0.400015 -6.0538 0
M  V30 3740 H 352.632 0.704597 -4.82583 0
M  V30 3741 H 351.637 -1.55645 -5.27309 0
M  V30 3742 H 352.862 -1.85074 -6.53395 0
M  V30 3743 H 350.808 0.393238 -6.5482 0
M  V30 3744 H 350.725 -1.06258 -7.48495 0
M  V30 3745 H 351.993 0.0855932 -7.79453 0
M  V30 3746 N 356.222 1.38976 -0.743202 0
M  V30 3747 C 357.154 2.29096 -0.0689228 0
M  V30 3748 C 358.167 1.47229 0.694791 0
M  V30 3749 O 359.356 1.70212 0.537597 0
M  V30 3750 C 356.456 3.25988 0.926548 0
M  V30 3751 C 355.629 4.36833 0.222647 0
M  V30 3752 C 354.688 5.13981 1.12739 0
M  V30 3753 O 353.714 5.6601 0.601795 0
M  V30 3754 N 354.916 5.25966 2.45641 0
M  V30 3755 H 357.681 2.87604 -0.842846 0
M  V30 3756 H 355.242 1.50645 -0.593109 0
M  V30 3757 H 357.234 3.74476 1.5346 0
M  V30 3758 H 355.804 2.68453 1.60162 0
M  V30 3759 H 355.024 3.90116 -0.565983 0
M  V30 3760 H 356.312 5.0811 -0.264841 0
M  V30 3761 H 355.71 4.85228 2.9081 0
M  V30 3762 H 354.267 5.77865 3.01522 0
M  V30 3763 N 357.7 0.491464 1.49741 0
M  V30 3764 C 358.63 -0.28154 2.31796 0
M  V30 3765 C 359.611 -0.971473 1.3963 0
M  V30 3766 O 360.796 -0.964719 1.68543 0
M  V30 3767 C 357.926 -1.35203 3.19902 0
M  V30 3768 C 356.88 -0.782529 4.20786 0
M  V30 3769 C 356.206 -1.95283 4.97764 0
M  V30 3770 C 357.506 0.21999 5.21837 0
M  V30 3771 H 359.2 0.403355 2.96671 0
M  V30 3772 H 356.746 0.195425 1.42668 0
M  V30 3773 H 358.699 -1.90045 3.76113 0
M  V30 3774 H 357.423 -2.06598 2.52953 0
M  V30 3775 H 356.082 -0.255928 3.65706 0
M  V30 3776 H 355.73 -2.65423 4.2727 0
M  V30 3777 H 355.43 -1.57789 5.66018 0
M  V30 3778 H 356.954 -2.50577 5.56816 0
M  V30 3779 H 358.368 -0.23996 5.72798 0
M  V30 3780 H 356.765 0.51026 5.97927 0
M  V30 3781 H 357.835 1.13911 4.7133 0
M  V30 3782 N 359.178 -1.55987 0.224894 0
M  V30 3783 C 360.406 -2.02784 -0.410665 0
M  V30 3784 C 360.821 -1.10464 -1.53112 0
M  V30 3785 O 360.178 -0.114871 -1.82138 0
M  V30 3786 C 360.229 -3.49087 -0.939165 0
M  V30 3787 O 359.95 -4.37887 0.136614 0
M  V30 3788 C 361.451 -4.11543 -1.64763 0
M  V30 3789 H 358.671 -0.663484 -0.100148 0
M  V30 3790 H 361.215 -2.01614 0.342326 0
M  V30 3791 H 359.37 -3.50861 -1.64242 0
M  V30 3792 H 359.784 -5.23849 -0.261155 0
M  V30 3793 H 361.258 -5.15673 -1.96939 0
M  V30 3794 H 361.735 -3.56736 -2.56195 0
M  V30 3795 H 362.341 -4.13629 -0.989503 0
M  V30 3796 N 360.656 0.0484629 -1.57525 0
M  V30 3797 C 361.619 1.03956 -2.04269 0
M  V30 3798 C 362.619 1.30211 -0.943496 0
M  V30 3799 O 363.809 1.25539 -1.20771 0
M  V30 3800 C 360.941 2.37742 -2.44319 0
M  V30 3801 H 362.134 0.636182 -2.93075 0
M  V30 3802 H 359.687 0.294811 -1.53494 0
M  V30 3803 H 360.422 2.82866 -1.5861 0
M  V30 3804 H 360.207 2.20021 -3.24551 0
M  V30 3805 H 361.697 3.08936 -2.80978 0
M  V30 3806 N 362.134 1.5431 0.320358 0
M  V30 3807 C 363.082 1.84647 1.4145 0
M  V30 3808 C 364.076 0.718624 1.53402 0
M  V30 3809 O 365.282 0.902335 1.5575 0
M  V30 3810 H 361.657 0.585349 0.472091 0
M  V30 3811 H 363.628 2.7614 1.13089 0
M  V30 3812 C 362.377 2.09341 2.77617 0
M  V30 3813 H 361.7 2.9559 2.69196 0
M  V30 3814 H 363.14 2.3452 3.53237 0
M  V30 3815 C 361.599 0.885939 3.25043 0
M  V30 3816 O 362.129 0.0967891 4.01583 0
M  V30 3817 N 360.335 0.696682 2.82125 0
M  V30 3818 H 359.882 1.34006 2.2 0
M  V30 3819 H 359.84 -0.109712 3.14209 0
M  V30 3820 N 363.613 -0.582584 1.46437 0
M  V30 3821 C 364.861 -1.33814 1.51453 0
M  V30 3822 C 365.182 -1.94277 0.167792 0
M  V30 3823 O 364.452 -1.78566 -0.805677 0
M  V30 3824 H 363.032 -0.496838 0.557818 0
M  V30 3825 H 365.694 -0.682281 1.82568 0
M  V30 3826 H 364.79 -2.14479 2.26728 0
M  V30 3827 N 365.091 -1.34144 -0.827227 0
M  V30 3828 C 366.34 -1.25602 -1.5782 0
M  V30 3829 C 366.653 0.173445 -1.94829 0
M  V30 3830 O 367.859 0.380984 -2.68814 0
M  V30 3831 C 366.315 -2.20151 -2.84713 0
M  V30 3832 C 365.923 -3.68331 -2.55021 0
M  V30 3833 C 367.667 -2.20508 -3.62735 0
M  V30 3834 C 365.574 -4.54762 -3.78082 0
M  V30 3835 H 364.504 -0.466573 -0.592306 0
M  V30 3836 H 367.155 -1.59283 -0.911116 0
M  V30 3837 H 365.537 -1.79417 -3.53023 0
M  V30 3838 H 366.711 -4.17577 -1.94849 0
M  V30 3839 H 365.026 -3.7038 -1.90283 0
M  V30 3840 H 367.623 -2.82306 -4.54101 0
M  V30 3841 H 367.966 -1.20322 -3.98533 0
M  V30 3842 H 368.499 -2.59664 -3.01362 0
M  V30 3843 H 365.238 -5.55867 -3.47407 0
M  V30 3844 H 364.758 -4.10254 -4.37552 0
M  V30 3845 H 366.437 -4.69153 -4.45538 0
M  V30 3846 N 366.569 1.04691 -1.17803 0
M  V30 3847 C 367.501 2.12571 -0.857097 0
M  V30 3848 C 368.514 1.62174 0.142647 0
M  V30 3849 O 369.703 1.78301 -0.0843387 0
M  V30 3850 C 366.803 3.37915 -0.258216 0
M  V30 3851 C 365.976 4.1757 -1.30207 0
M  V30 3852 C 365.035 5.2125 -0.720029 0
M  V30 3853 O 364.061 5.51888 -1.39314 0
M  V30 3854 N 365.263 5.78466 0.485507 0
M  V30 3855 H 368.028 2.40698 -1.78562 0
M  V30 3856 H 365.589 1.20831 -1.07757 0
M  V30 3857 H 367.581 4.04442 0.144584 0
M  V30 3858 H 366.151 3.07281 0.574199 0
M  V30 3859 H 365.371 3.46458 -1.88043 0
M  V30 3860 H 366.659 4.67586 -2.00601 0
M  V30 3861 H 366.057 5.55866 1.05022 0
M  V30 3862 H 364.614 6.4649 0.830307 0
M  V30 3863 N 368.047 0.979072 1.23499 0
M  V30 3864 C 369.296 0.642751 1.91185 0
M  V30 3865 C 369.609 -0.827253 1.77245 0
M  V30 3866 O 370.815 -1.27458 2.39722 0
M  V30 3867 C 369.271 1.09901 3.42709 0
M  V30 3868 C 368.879 2.59327 3.65313 0
M  V30 3869 C 370.623 0.836371 4.16179 0
M  V30 3870 C 368.53 2.98627 5.10467 0
M  V30 3871 H 367.46 0.236698 0.715884 0
M  V30 3872 H 370.111 1.1868 1.39955 0
M  V30 3873 H 368.493 0.48319 3.93041 0
M  V30 3874 H 369.667 3.26136 3.25533 0
M  V30 3875 H 367.982 2.83323 3.05151 0
M  V30 3876 H 370.579 1.10586 5.23139 0
M  V30 3877 H 370.922 -0.227509 4.15678 0
M  V30 3878 H 371.455 1.41371 3.71832 0
M  V30 3879 H 368.194 4.04133 5.16098 0
M  V30 3880 H 367.714 2.3651 5.51201 0
M  V30 3881 H 369.393 2.89159 5.78788 0
M  V30 3882 N 369.525 -1.3858 0.750561 0
M  V30 3883 C 370.455 -2.33102 0.136237 0
M  V30 3884 C 371.436 -1.54713 -0.706965 0
M  V30 3885 O 372.621 -1.83043 -0.648769 0
M  V30 3886 C 369.751 -3.38882 -0.760017 0
M  V30 3887 C 368.705 -4.27995 -0.0197785 0
M  V30 3888 C 368.031 -5.24605 -1.03408 0
M  V30 3889 C 369.331 -5.09554 1.14684 0
M  V30 3890 H 371.025 -2.84726 0.925822 0
M  V30 3891 H 368.571 -1.36898 0.446654 0
M  V30 3892 H 370.524 -4.0397 -1.19943 0
M  V30 3893 H 369.248 -2.85734 -1.58189 0
M  V30 3894 H 367.907 -3.64409 0.400184 0
M  V30 3895 H 367.555 -4.67746 -1.84994 0
M  V30 3896 H 367.255 -5.85081 -0.543464 0
M  V30 3897 H 368.779 -5.9257 -1.47288 0
M  V30 3898 H 370.193 -5.67899 0.785118 0
M  V30 3899 H 368.59 -5.7925 1.56812 0
M  V30 3900 H 369.66 -4.4347 1.96118 0
M  V30 3901 N 371.003 -0.499398 -1.49478 0
M  V30 3902 C 372.231 0.0425456 -2.06856 0
M  V30 3903 C 372.646 1.30964 -1.35992 0
M  V30 3904 O 372.003 1.77172 -0.437762 0
M  V30 3905 C 372.054 0.301735 -3.60239 0
M  V30 3906 O 371.775 -0.915127 -4.28436 0
M  V30 3907 C 373.276 0.887499 -4.34325 0
M  V30 3908 H 370.496 -0.0197482 -0.670709 0
M  V30 3909 H 373.04 -0.696297 -1.92281 0
M  V30 3910 H 371.195 0.990556 -3.74522 0
M  V30 3911 H 371.609 -0.676993 -5.20113 0
M  V30 3912 H 373.083 1.01845 -5.42523 0
M  V30 3913 H 373.56 1.88488 -3.96698 0
M  V30 3914 H 374.166 0.236196 -4.24644 0
M  V30 3915 N 372.481 1.55866 -0.233164 0
M  V30 3916 C 373.428 2.20796 0.67215 0
M  V30 3917 C 374.398 1.16731 1.18166 0
M  V30 3918 O 375.583 1.45129 1.23864 0
M  V30 3919 C 372.723 2.90072 1.86955 0
M  V30 3920 C 371.836 4.08759 1.39786 0
M  V30 3921 C 370.971 4.65787 2.55374 0
M  V30 3922 C 370.01 5.76752 2.04998 0
M  V30 3923 N 369.147 6.28021 3.13901 0
M  V30 3924 H 373.987 2.9779 0.111749 0
M  V30 3925 H 371.524 1.47036 0.0434007 0
M  V30 3926 H 373.482 3.28428 2.57276 0
M  V30 3927 H 372.112 2.15575 2.40265 0
M  V30 3928 H 371.164 3.7581 0.589173 0
M  V30 3929 H 372.476 4.88906 0.98856 0
M  V30 3930 H 371.63 5.06646 3.33758 0
M  V30 3931 H 370.369 3.84828 2.99598 0
M  V30 3932 H 369.374 5.35383 1.25079 0
M  V30 3933 H 370.599 6.59553 1.61759 0
M  V30 3934 H 368.545 5.49971 3.57586 0
M  V30 3935 H 368.462 7.03323 2.7726 0
M  V30 3936 H 369.73 6.73538 3.92386 0
M  V30 3937 N 373.959 -0.0401083 1.57549 0
M  V30 3938 C 374.869 -1.06133 2.0922 0
M  V30 3939 C 375.885 -1.40356 1.0284 0
M  V30 3940 O 377.061 -1.49897 1.34509 0
M  V30 3941 C 374.126 -2.34658 2.55218 0
M  V30 3942 C 373.187 -2.07117 3.76033 0
M  V30 3943 C 372.42 -3.29514 4.19829 0
M  V30 3944 O 372.643 -4.39794 3.63232 0
M  V30 3945 O 371.577 -3.15863 5.12362 0
M  V30 3946 H 375.403 -0.652244 2.96613 0
M  V30 3947 H 372.988 -0.256368 1.47184 0
M  V30 3948 H 374.87 -3.10239 2.85184 0
M  V30 3949 H 373.545 -2.74883 1.70941 0
M  V30 3950 H 372.452 -1.29139 3.51104 0
M  V30 3951 H 373.785 -1.71754 4.61261 0
M  V30 3952 N 375.437 -1.54477 -0.31217 0
M  V30 3953 C 376.385 -1.85395 -1.40469 0
M  V30 3954 C 377.379 -0.726749 -1.53019 0
M  V30 3955 O 378.585 -0.910582 -1.55269 0
M  V30 3956 H 374.96 -0.587845 -0.46898 0
M  V30 3957 H 376.931 -2.76736 -1.11623 0
M  V30 3958 C 375.68 -2.10811 -2.76503 0
M  V30 3959 H 375.003 -2.97014 -2.67625 0
M  V30 3960 H 376.443 -2.3639 -3.51988 0
M  V30 3961 C 374.902 -0.903165 -3.24568 0
M  V30 3962 O 375.432 -0.118085 -4.01526 0
M  V30 3963 N 373.638 -0.711634 -2.81752 0
M  V30 3964 H 373.185 -1.35171 -2.19286 0
M  V30 3965 H 373.143 0.0930473 -3.14262 0
M  V30 3966 N 376.915 0.57481 -1.46744 0
M  V30 3967 C 378.326 1.15695 -1.46532 0
M  V30 3968 C 378.677 1.95068 -0.210425 0
M  V30 3969 O 377.802 2.05241 0.685944 0
M  V30 3970 C 378.397 2.1048 -2.65487 0
M  V30 3971 C 376.956 2.64002 -2.68291 0
M  V30 3972 C 376.103 1.40026 -2.39349 0
M  V30 3973 H 379.054 0.362325 -1.54509 0
M  V30 3974 H 379.075 2.94074 -2.41455 0
M  V30 3975 H 378.587 1.52683 -3.56805 0
M  V30 3976 H 376.688 3.25646 -1.81067 0
M  V30 3977 H 376.801 3.06197 -3.68483 0
M  V30 3978 H 375.165 1.70106 -1.89568 0
M  V30 3979 H 375.948 0.840485 -3.32852 0
M  V30 3980 N 378.394 1.34581 0.820102 0
M  V30 3981 C 379.357 1.2628 1.91275 0
M  V30 3982 C 380.357 0.177344 1.59819 0
M  V30 3983 O 381.547 0.430156 1.68806 0
M  V30 3984 C 378.679 0.950327 3.27386 0
M  V30 3985 H 379.872 2.23421 2.00057 0
M  V30 3986 H 377.425 1.1891 1.0144 0
M  V30 3987 H 378.16 -0.0177938 3.24295 0
M  V30 3988 H 377.945 1.73549 3.51601 0
M  V30 3989 H 379.435 0.917492 4.07396 0
M  V30 3990 N 379.872 -1.04064 1.18357 0
M  V30 3991 C 380.819 -2.12077 0.910603 0
M  V30 3992 C 381.789 -1.65421 -0.15 0
M  V30 3993 O 382.974 -1.90797 -0.0103614 0
M  V30 3994 C 380.114 -3.42252 0.442472 0
M  V30 3995 C 379.227 -4.0252 1.5685 0
M  V30 3996 C 378.362 -5.20657 1.05309 0
M  V30 3997 C 377.401 -5.72955 2.1538 0
M  V30 3998 N 376.538 -6.8238 1.65233 0
M  V30 3999 H 381.378 -2.34764 1.83548 0
M  V30 4000 H 378.915 -1.15157 0.915279 0
M  V30 4001 H 380.873 -4.16921 0.152534 0
M  V30 4002 H 379.503 -3.19712 -0.445428 0
M  V30 4003 H 378.555 -3.25178 1.97391 0
M  V30 4004 H 379.867 -4.37362 2.39824 0
M  V30 4005 H 379.021 -6.0244 0.717677 0
M  V30 4006 H 377.76 -4.87318 0.19293 0
M  V30 4007 H 376.765 -4.89793 2.49766 0
M  V30 4008 H 377.99 -6.08337 3.01832 0
M  V30 4009 H 375.936 -6.50917 0.815064 0
M  V30 4010 H 375.853 -7.16286 2.41805 0
M  V30 4011 H 377.121 -7.67788 1.34619 0
M  V30 4012 N 381.35 -0.985608 -1.22978 0
M  V30 4013 C 382.596 -0.65836 -1.91816 0
M  V30 4014 C 382.929 0.806692 -1.76653 0
M  V30 4015 O 382.204 1.58252 -1.13078 0
M  V30 4016 C 382.487 -1.056 -3.44268 0
M  V30 4017 C 382.34 -2.57906 -3.68516 0
M  V30 4018 C 383.659 -0.603781 -4.35939 0
M  V30 4019 H 380.778 -0.24065 -0.696604 0
M  V30 4020 H 383.42 -1.22783 -1.44998 0
M  V30 4021 H 381.57 -0.571445 -3.84274 0
M  V30 4022 H 383.242 -3.13976 -3.3796 0
M  V30 4023 H 381.485 -3.00305 -3.13048 0
M  V30 4024 H 382.156 -2.80779 -4.75255 0
M  V30 4025 H 384.632 -1.01987 -4.03408 0
M  V30 4026 H 383.508 -0.910383 -5.41298 0
M  V30 4027 H 383.769 0.495761 -4.39312 0
M  V30 4028 N 382.828 1.3818 -0.7579 0
M  V30 4029 C 383.738 2.3421 -0.135247 0
M  V30 4030 C 384.754 1.59487 0.695683 0
M  V30 4031 O 385.93 1.91657 0.618832 0
M  V30 4032 C 382.995 3.3862 0.744139 0
M  V30 4033 C 382.056 4.2918 -0.101658 0
M  V30 4034 C 381.289 5.28603 0.735851 0
M  V30 4035 O 381.512 5.35166 1.97366 0
M  V30 4036 O 380.446 6.01707 0.152372 0
M  V30 4037 H 384.272 2.8916 -0.928436 0
M  V30 4038 H 381.857 1.40101 -0.518855 0
M  V30 4039 H 383.739 4.02539 1.2466 0
M  V30 4040 H 382.414 2.86019 1.51575 0
M  V30 4041 H 381.321 3.68407 -0.650167 0
M  V30 4042 H 382.654 4.85048 -0.836024 0
M  V30 4043 N 384.306 0.507319 1.49211 0
M  V30 4044 C 385.236 -0.256939 2.32082 0
M  V30 4045 C 386.217 -0.956609 1.40652 0
M  V30 4046 O 387.402 -0.946788 1.69557 0
M  V30 4047 C 384.532 -1.31802 3.21318 0
M  V30 4048 C 383.486 -0.737855 4.21592 0
M  V30 4049 C 382.812 -1.89992 4.99807 0
M  V30 4050 C 384.112 0.275325 5.21574 0
M  V30 4051 H 385.806 0.434798 2.96226 0
M  V30 4052 H 383.352 0.210546 1.42452 0
M  V30 4053 H 385.305 -1.86045 3.78107 0
M  V30 4054 H 384.029 -2.03903 2.5513 0
M  V30 4055 H 382.688 -0.217126 3.65956 0
M  V30 4056 H 382.336 -2.60877 4.30061 0
M  V30 4057 H 382.036 -1.51777 5.6766 0
M  V30 4058 H 383.56 -2.44657 5.59442 0
M  V30 4059 H 384.974 -0.179193 5.7302 0
M  V30 4060 H 383.371 0.573649 5.97352 0
M  V30 4061 H 384.441 1.18903 4.70096 0
M  V30 4062 N 385.784 -1.5574 0.241426 0
M  V30 4063 C 386.732 -2.22538 -0.676718 0
M  V30 4064 C 387.726 -1.21117 -1.18436 0
M  V30 4065 O 388.932 -1.39144 -1.14188 0
M  V30 4066 H 385.307 -0.713776 -0.236701 0
M  V30 4067 H 387.278 -2.98264 -0.0901187 0
M  V30 4068 C 386.027 -2.93439 -1.86518 0
M  V30 4069 H 385.35 -3.7125 -1.4837 0
M  V30 4070 H 386.79 -3.43549 -2.48495 0
M  V30 4071 C 385.249 -1.97008 -2.73294 0
M  V30 4072 O 385.779 -1.49965 -3.72657 0
M  V30 4073 N 383.985 -1.64227 -2.39745 0
M  V30 4074 H 383.532 -2.02677 -1.58996 0
M  V30 4075 H 383.49 -0.999708 -2.98083 0
M  V30 4076 N 387.262 0.0317525 -1.57568 0
M  V30 4077 C 388.225 1.01783 -2.0536 0
M  V30 4078 C 389.225 1.29203 -0.957253 0
M  V30 4079 O 390.415 1.24251 -1.22095 0
M  V30 4080 C 387.547 2.35137 -2.46827 0
M  V30 4081 H 388.74 0.605062 -2.93733 0
M  V30 4082 H 386.293 0.278514 -1.53799 0
M  V30 4083 H 387.028 2.81168 -1.61602 0
M  V30 4084 H 386.813 2.16566 -3.26866 0
M  V30 4085 H 388.303 3.05938 -2.84239 0
M  V30 4086 N 388.74 1.54641 0.303973 0
M  V30 4087 C 390.017 1.64455 1.05896 0
M  V30 4088 C 390.397 0.490923 2.05312 0
M  V30 4089 O 389.745 -0.512685 2.22674 0
M  V30 4090 C 389.955 3.02331 1.74347 0
M  V30 4091 C 391.303 3.59045 2.26653 0
M  V30 4092 O 392.327 3.04764 1.84384 0
M  V30 4093 O 391.186 4.54081 3.04093 0
M  V30 4094 H 388.28 0.666729 0.489287 0
M  V30 4095 H 390.826 1.66986 0.302298 0
M  V30 4096 H 389.598 3.77734 1.02142 0
M  V30 4097 H 389.221 3.03565 2.56777 0
M  V30 4098 N 390.218 -0.567019 1.47046 0
M  V30 4099 C 391.466 -1.322 1.52864 0
M  V30 4100 C 391.787 -1.94088 0.188388 0
M  V30 4101 O 391.057 -1.7941 -0.786693 0
M  V30 4102 H 389.637 -0.490894 0.563056 0
M  V30 4103 H 392.299 -0.662879 1.83281 0
M  V30 4104 H 391.395 -2.12062 2.2899 0
M  V30 4105 N 391.696 -1.35014 -0.812953 0
M  V30 4106 C 392.921 -1.31187 -1.60639 0
M  V30 4107 C 393.346 0.109382 -1.87782 0
M  V30 4108 O 392.704 1.07424 -1.46047 0
M  V30 4109 C 392.752 -2.11809 -2.91838 0
M  V30 4110 O 391.856 -1.49444 -3.8437 0
M  V30 4111 H 391.197 -0.450084 -0.488181 0
M  V30 4112 H 393.727 -1.77963 -1.00947 0
M  V30 4113 H 393.737 -2.23531 -3.41318 0
M  V30 4114 H 392.412 -3.15137 -2.71407 0
M  V30 4115 H 390.989 -1.46524 -3.42907 0
M  V30 4116 N 393.175 1.03435 -1.18907 0
M  V30 4117 C 394.122 2.11591 -0.921837 0
M  V30 4118 C 395.092 1.65499 0.141226 0
M  V30 4119 O 396.277 1.908 0.000242829 0
M  V30 4120 C 393.417 3.42012 -0.460616 0
M  V30 4121 C 392.53 4.01682 -1.58982 0
M  V30 4122 C 391.665 5.20091 -1.08069 0
M  V30 4123 C 390.704 5.71805 -2.18416 0
M  V30 4124 N 389.841 6.81494 -1.68849 0
M  V30 4125 H 394.681 2.33787 -1.8479 0
M  V30 4126 H 392.218 1.1467 -0.921373 0
M  V30 4127 H 394.176 4.16834 -0.174642 0
M  V30 4128 H 392.806 3.19944 0.428467 0
M  V30 4129 H 391.858 3.24127 -1.99113 0
M  V30 4130 H 393.17 4.36084 -2.4214 0
M  V30 4131 H 392.324 6.02051 -0.749615 0
M  V30 4132 H 391.063 4.87209 -0.218771 0
M  V30 4133 H 390.068 4.88461 -2.5236 0
M  V30 4134 H 391.293 6.06728 -3.05054 0
M  V30 4135 H 389.239 6.50475 -0.849572 0
M  V30 4136 H 389.156 7.14994 -2.45601 0
M  V30 4137 H 390.424 7.67063 -1.38689 0
M  V30 4138 N 394.653 0.992116 1.22453 0
M  V30 4139 C 395.878 0.685644 1.95739 0
M  V30 4140 C 396.303 -0.743 1.72804 0
M  V30 4141 O 395.661 -1.50778 1.00676 0
M  V30 4142 C 395.709 0.996293 3.46564 0
M  V30 4143 O 394.813 0.0945512 4.12292 0
M  V30 4144 H 394.154 0.256694 0.612376 0
M  V30 4145 H 396.684 1.32888 1.5557 0
M  V30 4146 H 396.694 0.93781 3.97076 0
M  V30 4147 H 395.369 2.03733 3.62582 0
M  V30 4148 H 393.946 0.208451 3.72317 0
M  V30 4149 N 396.131 -1.37776 0.765217 0
M  V30 4150 C 397.377 -2.00145 0.327072 0
M  V30 4151 C 397.71 -1.60607 -1.09175 0
M  V30 4152 O 396.985 -0.849127 -1.74986 0
M  V30 4153 C 397.268 -3.57109 0.46319 0
M  V30 4154 C 397.121 -4.06576 1.92395 0
M  V30 4155 C 398.44 -4.39888 -0.136473 0
M  V30 4156 H 395.559 -0.727113 0.120316 0
M  V30 4157 H 398.201 -1.63549 0.967039 0
M  V30 4158 H 396.351 -3.88414 -0.0816358 0
M  V30 4159 H 398.023 -3.85864 2.52798 0
M  V30 4160 H 396.266 -3.59011 2.43503 0
M  V30 4161 H 396.937 -5.15639 1.97028 0
M  V30 4162 H 399.413 -4.14803 0.328317 0
M  V30 4163 H 398.289 -5.48899 -0.0110582 0
M  V30 4164 H 398.55 -4.24758 -1.22608 0
M  V30 4165 N 397.609 -0.515225 -1.4894 0
M  V30 4166 C 398.837 0.0206034 -2.0689 0
M  V30 4167 C 399.252 1.29514 -1.37374 0
M  V30 4168 O 398.609 1.76698 -0.456529 0
M  V30 4169 C 398.66 0.26351 -3.60538 0
M  V30 4170 O 398.381 -0.960517 -4.27441 0
M  V30 4171 C 399.882 0.841383 -4.35242 0
M  V30 4172 H 397.102 -0.0268608 -0.670462 0
M  V30 4173 H 399.646 -0.716651 -1.91532 0
M  V30 4174 H 397.801 0.950777 -3.75552 0
M  V30 4175 H 398.215 -0.73212 -5.19365 0
M  V30 4176 H 399.689 0.96085 -5.43573 0
M  V30 4177 H 400.166 1.8427 -3.98674 0
M  V30 4178 H 400.772 0.191143 -4.2487 0
M  V30 4179 N 399.087 1.5561 -0.249682 0
M  V30 4180 C 400.334 1.99011 0.374287 0
M  V30 4181 C 400.662 1.13785 1.57744 0
M  V30 4182 O 399.917 0.189326 1.94782 0
M  V30 4183 C 400.216 3.4775 0.824887 0
M  V30 4184 C 399.882 4.50086 -0.270819 0
M  V30 4185 C 398.544 4.77791 -0.571746 0
M  V30 4186 C 400.896 5.11312 -1.01041 0
M  V30 4187 C 398.224 5.63997 -1.61629 0
M  V30 4188 C 400.576 5.98651 -2.0445 0
M  V30 4189 C 399.24 6.24688 -2.35204 0
M  V30 4190 H 398.51 0.728233 0.136961 0
M  V30 4191 H 401.157 1.88122 -0.358087 0
M  V30 4192 H 399.462 3.55985 1.63651 0
M  V30 4193 H 401.159 3.78721 1.31799 0
M  V30 4194 H 397.749 4.28592 -0.026136 0
M  V30 4195 H 401.933 4.89953 -0.791177 0
M  V30 4196 H 397.189 5.82425 -1.85988 0
M  V30 4197 H 401.363 6.45135 -2.62248 0
M  V30 4198 H 398.99 6.91281 -3.16282 0
M  V30 4199 N 400.565 -0.0233959 1.57583 0
M  V30 4200 C 401.475 -1.03907 2.10334 0
M  V30 4201 C 402.491 -1.39257 1.04323 0
M  V30 4202 O 403.667 -1.48462 1.36091 0
M  V30 4203 C 400.732 -2.31938 2.57693 0
M  V30 4204 C 399.793 -2.03117 3.78209 0
M  V30 4205 C 399.026 -3.25043 4.233 0
M  V30 4206 O 399.249 -4.35916 3.67876 0
M  V30 4207 O 398.183 -3.10411 5.15683 0
M  V30 4208 H 402.009 -0.620748 2.97288 0
M  V30 4209 H 399.594 -0.240743 1.47448 0
M  V30 4210 H 401.476 -3.07196 2.88458 0
M  V30 4211 H 400.151 -2.73055 1.73847 0
M  V30 4212 H 399.058 -1.25408 3.52454 0
M  V30 4213 H 400.391 -1.66852 4.63056 0
M  V30 4214 N 402.043 -1.548 -0.295768 0
M  V30 4215 C 403.268 -1.78653 -1.05346 0
M  V30 4216 C 403.693 -0.546894 -1.79974 0
M  V30 4217 O 403.051 0.502763 -1.7419 0
M  V30 4218 C 403.099 -2.99679 -2.00561 0
M  V30 4219 O 402.203 -2.7317 -3.08953 0
M  V30 4220 H 401.544 -0.59116 -0.302367 0
M  V30 4221 H 404.074 -2.01895 -0.331598 0
M  V30 4222 H 404.084 -3.27793 -2.42932 0
M  V30 4223 H 402.759 -3.89562 -1.4565 0
M  V30 4224 H 401.336 -2.56089 -2.71059 0
M  V30 4225 N 403.521 0.559213 -1.47345 0
M  V30 4226 C 404.769 1.31388 -1.53563 0
M  V30 4227 C 405.09 1.93985 -0.198678 0
M  V30 4228 O 404.36 1.79825 0.777167 0
M  V30 4229 H 402.94 0.487901 -0.565652 0
M  V30 4230 H 405.602 0.65315 -1.8363 0
M  V30 4231 H 404.698 2.10844 -2.30111 0
M  V30 4232 N 404.999 1.35443 0.805782 0
M  V30 4233 C 405.946 1.28431 1.91766 0
M  V30 4234 C 406.916 0.156102 1.65365 0
M  V30 4235 O 408.101 0.339936 1.87747 0
M  V30 4236 C 405.241 1.06301 3.2832 0
M  V30 4237 C 404.354 2.2805 3.66902 0
M  V30 4238 C 403.489 1.99064 4.92491 0
M  V30 4239 C 402.528 3.16863 5.23703 0
M  V30 4240 N 401.665 2.87647 6.40471 0
M  V30 4241 H 406.505 2.23511 1.97096 0
M  V30 4242 H 404.042 1.11105 0.964054 0
M  V30 4243 H 406 0.915012 4.07042 0
M  V30 4244 H 404.63 0.148822 3.22457 0
M  V30 4245 H 403.682 2.53711 2.83434 0
M  V30 4246 H 404.994 3.1601 3.85927 0
M  V30 4247 H 404.148 1.81099 5.7904 0
M  V30 4248 H 402.887 1.0839 4.75503 0
M  V30 4249 H 401.892 3.35404 4.35642 0
M  V30 4250 H 403.117 4.08339 5.4262 0
M  V30 4251 H 401.063 1.99568 6.24907 0
M  V30 4252 H 400.98 3.69141 6.59751 0
M  V30 4253 H 402.248 2.73226 7.30047 0
M  V30 4254 N 406.477 -1.02803 1.19454 0
M  V30 4255 C 407.424 -2.11099 0.933046 0
M  V30 4256 C 408.394 -1.65571 -0.132447 0
M  V30 4257 O 409.579 -1.90797 0.00987576 0
M  V30 4258 C 406.719 -3.41763 0.478747 0
M  V30 4259 C 405.832 -4.00833 1.6111 0
M  V30 4260 C 404.967 -5.19511 1.10825 0
M  V30 4261 C 404.006 -5.70639 2.21445 0
M  V30 4262 N 403.143 -6.80589 1.72461 0
M  V30 4263 H 407.983 -2.32804 1.86028 0
M  V30 4264 H 405.52 -1.14179 0.927441 0
M  V30 4265 H 407.478 -4.16736 0.196745 0
M  V30 4266 H 406.108 -3.20166 -0.411493 0
M  V30 4267 H 405.16 -3.23066 2.00829 0
M  V30 4268 H 406.472 -4.34794 2.4445 0
M  V30 4269 H 405.626 -6.01645 0.781533 0
M  V30 4270 H 404.365 -4.87086 0.244606 0
M  V30 4271 H 403.37 -4.87116 2.54947 0
M  V30 4272 H 404.595 -6.05102 3.08267 0
M  V30 4273 H 402.541 -6.50016 0.884056 0
M  V30 4274 H 402.458 -7.13681 2.49389 0
M  V30 4275 H 403.726 -7.66317 1.42755 0
M  V30 4276 N 407.956 -0.998596 -1.21925 0
M  V30 4277 C 408.889 -0.498517 -2.22688 0
M  V30 4278 C 409.867 0.444301 -1.56412 0
M  V30 4279 O 411.051 0.368518 -1.84863 0
M  V30 4280 C 408.178 0.276639 -3.37568 0
M  V30 4281 C 407.224 -0.61302 -4.22071 0
M  V30 4282 S 408.057 -2.07168 -4.93803 0
M  V30 4283 C 409.213 -1.30617 -6.12119 0
M  V30 4284 H 409.446 -1.35234 -2.64762 0
M  V30 4285 H 406.979 -0.806018 -1.31692 0
M  V30 4286 H 408.937 0.717817 -4.04175 0
M  V30 4287 H 407.598 1.10581 -2.93991 0
M  V30 4288 H 406.791 -0.0162909 -5.03997 0
M  V30 4289 H 406.393 -0.991202 -3.60626 0
M  V30 4290 H 408.685 -0.57675 -6.75041 0
M  V30 4291 H 409.628 -2.10091 -6.76215 0
M  V30 4292 H 410.036 -0.816957 -5.58557 0
M  V30 4293 N 409.434 1.37368 -0.772513 0
M  V30 4294 C 410.711 1.93839 -0.26188 0
M  V30 4295 C 411.091 1.7061 1.24319 0
M  V30 4296 O 410.439 1.05534 2.02669 0
M  V30 4297 C 410.649 3.43154 -0.636102 0
M  V30 4298 C 411.997 4.20249 -0.606324 0
M  V30 4299 O 413.021 3.5152 -0.575538 0
M  V30 4300 O 411.88 5.42809 -0.634086 0
M  V30 4301 H 408.974 0.82478 -0.0605555 0
M  V30 4302 H 411.52 1.4665 -0.853917 0
M  V30 4303 H 410.292 3.53647 -1.6748 0
M  V30 4304 H 409.915 3.97596 -0.0170516 0
M  V30 4305 N 410.912 0.523116 1.48665 0
M  V30 4306 C 412.159 -0.0134763 2.02496 0
M  V30 4307 C 412.487 -1.3493 1.40086 0
M  V30 4308 O 411.742 -1.88286 0.533567 0
M  V30 4309 C 412.041 -0.191671 3.56886 0
M  V30 4310 C 411.707 1.06893 4.38046 0
M  V30 4311 C 410.369 1.41443 4.59943 0
M  V30 4312 C 412.721 1.90584 4.85106 0
M  V30 4313 C 410.049 2.59594 5.26144 0
M  V30 4314 C 412.401 3.07907 5.52609 0
M  V30 4315 C 411.065 3.42811 5.72745 0
M  V30 4316 H 410.335 -0.00493133 0.740984 0
M  V30 4317 H 412.982 0.687751 1.78724 0
M  V30 4318 H 411.287 -0.97561 3.79459 0
M  V30 4319 H 412.984 -0.621659 3.96152 0
M  V30 4320 H 409.574 0.789848 4.21259 0
M  V30 4321 H 413.758 1.65203 4.67997 0
M  V30 4322 H 409.014 2.86847 5.39934 0
M  V30 4323 H 413.188 3.73066 5.88043 0
M  V30 4324 H 410.815 4.34462 6.23816 0
M  V30 4325 N 412.39 -1.55475 0.257931 0
M  V30 4326 C 413.667 -1.91155 -0.414629 0
M  V30 4327 C 414.047 -1.18008 -1.75035 0
M  V30 4328 O 413.395 -0.301193 -2.26506 0
M  V30 4329 C 413.605 -3.44283 -0.571859 0
M  V30 4330 C 414.953 -4.15744 -0.862678 0
M  V30 4331 O 415.977 -3.50083 -0.657314 0
M  V30 4332 O 414.836 -5.31909 -1.2544 0
M  V30 4333 H 411.93 -0.796016 -0.22425 0
M  V30 4334 H 414.476 -1.66976 0.302814 0
M  V30 4335 H 413.248 -3.89558 0.368844 0
M  V30 4336 H 412.871 -3.7436 -1.33943 0
M  V30 4337 N 413.868 0.0150385 -1.57593 0
M  V30 4338 C 414.798 1.01047 -2.10503 0
M  V30 4339 C 415.779 1.36816 -1.01071 0
M  V30 4340 O 416.964 1.45455 -1.28672 0
M  V30 4341 C 414.094 2.30708 -2.59598 0
M  V30 4342 C 413.048 2.09142 -3.73421 0
M  V30 4343 C 412.374 3.44685 -4.08774 0
M  V30 4344 C 413.674 1.46619 -5.01298 0
M  V30 4345 H 415.368 0.569978 -2.93925 0
M  V30 4346 H 412.914 0.272724 -1.41394 0
M  V30 4347 H 414.867 3.00687 -2.95238 0
M  V30 4348 H 413.591 2.76843 -1.73279 0
M  V30 4349 H 412.25 1.41592 -3.38153 0
M  V30 4350 H 411.898 3.88495 -3.195 0
M  V30 4351 H 411.598 3.31077 -4.8545 0
M  V30 4352 H 413.122 4.16004 -4.4696 0
M  V30 4353 H 414.536 2.06535 -5.34805 0
M  V30 4354 H 412.933 1.43544 -5.82679 0
M  V30 4355 H 414.003 0.433611 -4.82957 0
M  V30 4356 N 415.346 1.54954 0.287554 0
M  V30 4357 C 416.592 1.75132 1.02257 0
M  V30 4358 C 416.925 0.542858 1.86458 0
M  V30 4359 O 416.2 -0.459856 1.88986 0
M  V30 4360 C 416.483 3.04812 1.91733 0
M  V30 4361 C 416.336 4.35985 1.10622 0
M  V30 4362 C 417.655 3.30438 2.90687 0
M  V30 4363 H 414.774 0.637194 0.370341 0
M  V30 4364 H 417.416 1.87678 0.296111 0
M  V30 4365 H 415.566 2.94247 2.53675 0
M  V30 4366 H 417.238 4.58487 0.508636 0
M  V30 4367 H 415.481 4.31865 0.409271 0
M  V30 4368 H 416.152 5.23017 1.76513 0
M  V30 4369 H 418.628 3.40701 2.38877 0
M  V30 4370 H 417.504 4.22467 3.50447 0
M  V30 4371 H 417.765 2.49377 3.65053 0
M  V30 4372 N 416.824 -0.551391 1.4764 0
M  V30 4373 C 417.757 -1.6738 1.5511 0
M  V30 4374 C 418.735 -1.5753 0.402856 0
M  V30 4375 O 419.919 -1.78307 0.611475 0
M  V30 4376 C 417.046 -3.05661 1.45908 0
M  V30 4377 C 416.092 -3.33938 2.65307 0
M  V30 4378 S 416.925 -3.22553 4.27457 0
M  V30 4379 C 418.081 -4.63317 4.20818 0
M  V30 4380 H 418.314 -1.6079 2.50068 0
M  V30 4381 H 415.847 -0.732674 1.35909 0
M  V30 4382 H 417.805 -3.8542 1.41286 0
M  V30 4383 H 416.466 -3.09711 0.523248 0
M  V30 4384 H 415.659 -4.34761 2.54948 0
M  V30 4385 H 415.261 -2.61809 2.67081 0
M  V30 4386 H 417.553 -5.54391 3.89431 0
M  V30 4387 H 418.496 -4.78732 5.21748 0
M  V30 4388 H 418.904 -4.41636 3.51593 0
M  V30 4389 N 418.302 -1.35869 -0.798587 0
M  V30 4390 C 419.235 -1.23801 -1.91699 0
M  V30 4391 C 420.213 -0.124143 -1.62125 0
M  V30 4392 O 421.397 -0.293656 -1.86199 0
M  V30 4393 C 418.524 -0.908063 -3.263 0
M  V30 4394 C 417.57 -2.0351 -3.74815 0
M  V30 4395 S 418.403 -3.65183 -3.91665 0
M  V30 4396 C 419.559 -3.34283 -5.29156 0
M  V30 4397 H 419.792 -2.18466 -2.01643 0
M  V30 4398 H 417.325 -1.21178 -0.956833 0
M  V30 4399 H 419.283 -0.724506 -4.04056 0
M  V30 4400 H 417.944 0.0206584 -3.14093 0
M  V30 4401 H 417.137 -1.75858 -4.72324 0
M  V30 4402 H 416.739 -2.1774 -3.04081 0
M  V30 4403 H 419.031 -2.87607 -6.13424 0
M  V30 4404 H 419.974 -4.31022 -5.61806 0
M  V30 4405 H 420.382 -2.69854 -4.95822 0
M  V30 4406 N 419.78 1.02168 -1.19998 0
M  V30 4407 C 420.743 2.08765 -0.94604 0
M  V30 4408 C 421.743 1.60618 0.0763846 0
M  V30 4409 O 422.933 1.73472 -0.159135 0
M  V30 4410 C 420.065 3.38262 -0.423255 0
M  V30 4411 H 421.258 2.32726 -1.89153 0
M  V30 4412 H 418.811 1.1889 -1.01464 0
M  V30 4413 H 419.546 3.19974 0.527938 0
M  V30 4414 H 419.331 3.74532 -1.16053 0
M  V30 4415 H 420.821 4.16759 -0.264911 0
M  V30 4416 N 421.258 1.00505 1.21394 0
M  V30 4417 C 422.507 0.683159 1.89778 0
M  V30 4418 C 422.82 -0.789471 1.7896 0
M  V30 4419 O 424.026 -1.22344 2.42372 0
M  V30 4420 C 422.482 1.17146 3.40301 0
M  V30 4421 C 422.09 2.67017 3.5973 0
M  V30 4422 C 423.834 0.924461 4.14311 0
M  V30 4423 C 421.741 3.09387 5.04017 0
M  V30 4424 H 420.671 0.25183 0.710702 0
M  V30 4425 H 423.322 1.21622 1.37406 0
M  V30 4426 H 421.704 0.566451 3.91928 0
M  V30 4427 H 422.878 3.32968 3.18542 0
M  V30 4428 H 421.193 2.89732 2.99073 0
M  V30 4429 H 423.79 1.21658 5.20676 0
M  V30 4430 H 424.133 -0.139286 4.16067 0
M  V30 4431 H 424.666 1.49226 3.6875 0
M  V30 4432 H 421.405 4.14989 5.07409 0
M  V30 4433 H 420.925 2.48149 5.46061 0
M  V30 4434 H 422.604 3.01371 5.72525 0
M  V30 4435 N 422.737 -1.36956 0.779787 0
M  V30 4436 C 423.985 -1.99097 0.347079 0
M  V30 4437 C 424.306 -1.62206 -1.08232 0
M  V30 4438 O 423.576 -0.891373 -1.74446 0
M  V30 4439 H 422.156 -0.736409 0.125342 0
M  V30 4440 H 424.818 -1.67308 0.999696 0
M  V30 4441 H 423.914 -3.09107 0.431162 0
M  V30 4442 N 424.215 -0.530993 -1.48385 0
M  V30 4443 C 425.631 -0.188919 -1.58478 0
M  V30 4444 C 425.831 1.30786 -1.53288 0
M  V30 4445 O 424.887 2.08619 -1.42248 0
M  V30 4446 C 426.2 -0.792343 -2.90073 0
M  V30 4447 C 427.748 -0.76117 -3.03604 0
M  V30 4448 C 428.223 -1.34319 -4.37861 0
M  V30 4449 N 429.714 -1.3052 -4.44431 0
M  V30 4450 C 430.449 -1.72543 -5.46824 0
M  V30 4451 N 429.945 -2.22299 -6.56167 0
M  V30 4452 N 431.738 -1.63773 -5.37712 0
M  V30 4453 H 423.889 -1.50377 -1.50002 0
M  V30 4454 H 426.152 -0.625559 -0.712306 0
M  V30 4455 H 425.858 -1.84323 -2.99529 0
M  V30 4456 H 425.732 -0.270026 -3.76232 0
M  V30 4457 H 428.119 0.280957 -2.93759 0
M  V30 4458 H 428.2 -1.32097 -2.19053 0
M  V30 4459 H 427.844 -2.38425 -4.4846 0
M  V30 4460 H 427.774 -0.759064 -5.21101 0
M  V30 4461 H 430.265 -0.940973 -3.65997 0
M  V30 4462 H 430.578 -2.52356 -7.30436 0
M  V30 4463 H 428.923 -2.26293 -6.57127 0
M  V30 4464 H 432.114 -1.24698 -4.51185 0
M  V30 4465 H 432.287 -1.96844 -6.17379 0
M  V30 4466 N 425.693 1.55336 -0.266172 0
M  V30 4467 C 426.918 2.04258 0.359661 0
M  V30 4468 C 427.343 1.14359 1.49344 0
M  V30 4469 O 426.701 0.140369 1.80756 0
M  V30 4470 C 426.749 3.50997 0.826635 0
M  V30 4471 O 425.853 3.64204 1.93466 0
M  V30 4472 H 425.194 0.659668 0.075727 0
M  V30 4473 H 427.724 2.00694 -0.39786 0
M  V30 4474 H 427.734 3.9219 1.12477 0
M  V30 4475 H 426.409 4.159 -0.00293032 0
M  V30 4476 H 424.986 3.34913 1.63974 0
M  V30 4477 N 427.171 -0.0066808 1.57599 0
M  V30 4478 C 428.582 -0.550379 1.78403 0
M  V30 4479 C 428.933 -1.74339 0.900014 0
M  V30 4480 O 428.058 -2.16166 0.100713 0
M  V30 4481 C 428.653 -1.00523 3.23544 0
M  V30 4482 C 427.212 -1.49428 3.45468 0
M  V30 4483 C 426.359 -0.442444 2.73748 0
M  V30 4484 H 429.31 0.219508 1.57175 0
M  V30 4485 H 429.331 -1.87157 3.31289 0
M  V30 4486 H 428.843 -0.136735 3.87859 0
M  V30 4487 H 426.944 -2.3839 2.86358 0
M  V30 4488 H 427.057 -1.52635 4.54136 0
M  V30 4489 H 425.421 -0.902578 2.38171 0
M  V30 4490 H 426.204 0.416973 3.40758 0
M  V30 4491 N 428.649 -1.55105 -0.279332 0
M  V30 4492 C 430.065 -1.46803 -0.626187 0
M  V30 4493 C 430.265 -0.676939 -1.89789 0
M  V30 4494 O 429.321 -0.19326 -2.51759 0
M  V30 4495 C 430.634 -2.90962 -0.759034 0
M  V30 4496 C 432.182 -3.01138 -0.853504 0
M  V30 4497 C 432.657 -4.46539 -1.01818 0
M  V30 4498 N 434.148 -4.50341 -1.08386 0
M  V30 4499 C 434.883 -5.60053 -1.22996 0
M  V30 4500 N 434.379 -6.79645 -1.34366 0
M  V30 4501 N 436.172 -5.47783 -1.26056 0
M  V30 4502 H 428.323 -2.04996 0.555921 0
M  V30 4503 H 430.586 -0.929325 0.187239 0
M  V30 4504 H 430.292 -3.51544 0.104852 0
M  V30 4505 H 430.166 -3.39619 -1.64131 0
M  V30 4506 H 432.553 -2.40658 -1.70786 0
M  V30 4507 H 432.634 -2.55745 0.0532466 0
M  V30 4508 H 432.278 -5.0762 -0.168504 0
M  V30 4509 H 432.208 -4.89583 -1.93948 0
M  V30 4510 H 434.699 -3.64191 -1.00864 0
M  V30 4511 H 435.012 -7.59012 -1.4533 0
M  V30 4512 H 433.357 -6.82469 -1.31382 0
M  V30 4513 H 436.548 -4.53294 -1.168 0
M  V30 4514 H 436.721 -6.33331 -1.37098 0
M  V30 4515 N 430.127 0.543554 -1.4793 0
M  V30 4516 C 431.355 1.32516 -1.58894 0
M  V30 4517 C 431.77 1.87215 -0.244131 0
M  V30 4518 O 431.127 1.65709 0.764652 0
M  V30 4519 C 431.178 2.48554 -2.62494 0
M  V30 4520 O 430.899 1.96112 -3.91755 0
M  V30 4521 C 432.4 3.40572 -2.8377 0
M  V30 4522 H 429.62 0.403472 -0.536145 0
M  V30 4523 H 432.164 0.657106 -1.93655 0
M  V30 4524 H 430.319 3.1127 -2.30629 0
M  V30 4525 H 430.733 2.71967 -4.4848 0
M  V30 4526 H 432.207 4.18375 -3.60093 0
M  V30 4527 H 432.684 3.94965 -1.92092 0
M  V30 4528 H 433.29 2.8366 -3.16887 0
M  V30 4529 N 431.605 1.3629 0.791371 0
M  V30 4530 C 432.552 1.30458 1.90393 0
M  V30 4531 C 433.522 0.173632 1.6519 0
M  V30 4532 O 434.707 0.35983 1.87376 0
M  V30 4533 C 431.847 1.09777 3.27174 0
M  V30 4534 C 430.96 2.31929 3.64462 0
M  V30 4535 C 430.095 2.04276 4.90352 0
M  V30 4536 C 429.134 3.224 5.20312 0
M  V30 4537 N 428.271 2.94424 6.37385 0
M  V30 4538 H 433.111 2.25589 1.94714 0
M  V30 4539 H 430.648 1.12122 0.952216 0
M  V30 4540 H 432.606 0.958133 4.06049 0
M  V30 4541 H 431.236 0.183014 3.22281 0
M  V30 4542 H 430.288 2.56703 2.80727 0
M  V30 4543 H 431.6 3.20085 3.82553 0
M  V30 4544 H 430.754 1.87231 5.77087 0
M  V30 4545 H 429.493 1.13428 4.74326 0
M  V30 4546 H 428.498 3.40005 4.32061 0
M  V30 4547 H 429.723 4.14071 5.38258 0
M  V30 4548 H 427.669 2.06185 6.22755 0
M  V30 4549 H 427.586 3.76118 6.55798 0
M  V30 4550 H 428.854 2.80953 7.27108 0
M  V30 4551 N 433.083 -1.0153 1.20538 0
M  V30 4552 C 434.36 -1.72327 0.925343 0
M  V30 4553 C 434.74 -2.03383 -0.565547 0
M  V30 4554 O 434.088 -1.69934 -1.52757 0
M  V30 4555 C 434.298 -2.9902 1.79967 0
M  V30 4556 C 435.646 -3.72258 2.04228 0
M  V30 4557 O 436.67 -3.08979 1.77231 0
M  V30 4558 O 435.529 -4.86053 2.4983 0
M  V30 4559 H 432.623 -0.751099 0.346092 0
M  V30 4560 H 435.169 -1.07366 1.31417 0
M  V30 4561 H 433.941 -2.72402 2.80915 0
M  V30 4562 H 433.564 -3.71721 1.41099 0
M  V30 4563 N 434.561 -1.01147 -1.20859 0
M  V30 4564 C 435.491 -0.597663 -2.25722 0
M  V30 4565 C 436.472 0.384744 -1.65692 0
M  V30 4566 O 437.657 0.271303 -1.92296 0
M  V30 4567 C 434.787 0.0700149 -3.47229 0
M  V30 4568 C 433.741 -0.832843 -4.19819 0
M  V30 4569 C 433.067 -0.0312202 -5.34691 0
M  V30 4570 C 434.367 -2.1385 -4.76514 0
M  V30 4571 H 436.061 -1.47423 -2.60589 0
M  V30 4572 H 433.607 -0.710301 -1.25263 0
M  V30 4573 H 435.56 0.37103 -4.19763 0
M  V30 4574 H 434.284 0.981259 -3.11511 0
M  V30 4575 H 432.943 -1.11778 -3.49144 0
M  V30 4576 H 432.591 0.881515 -4.95215 0
M  V30 4577 H 432.291 -0.632434 -5.84187 0
M  V30 4578 H 433.815 0.26346 -6.10031 0
M  V30 4579 H 435.229 -1.9002 -5.40893 0
M  V30 4580 H 433.626 -2.69012 -5.36426 0
M  V30 4581 H 434.696 -2.80495 -3.95538 0
M  V30 4582 N 436.039 1.36541 -0.78704 0
M  V30 4583 C 436.971 2.28761 -0.141773 0
M  V30 4584 C 437.984 1.49365 0.647599 0
M  V30 4585 O 439.173 1.71836 0.483173 0
M  V30 4586 C 436.273 3.28771 0.822368 0
M  V30 4587 C 435.446 4.3732 0.0835594 0
M  V30 4588 C 434.505 5.17307 0.963296 0
M  V30 4589 O 433.531 5.67638 0.421419 0
M  V30 4590 N 434.733 5.33515 2.28784 0
M  V30 4591 H 437.498 2.84777 -0.933919 0
M  V30 4592 H 435.059 1.48682 -0.640735 0
M  V30 4593 H 437.051 3.79169 1.41468 0
M  V30 4594 H 435.621 2.73412 1.5154 0
M  V30 4595 H 434.841 3.88118 -0.689809 0
M  V30 4596 H 436.129 5.0701 -0.426358 0
M  V30 4597 H 435.527 4.94234 2.75226 0
M  V30 4598 H 434.084 5.87165 2.82985 0
M  V30 4599 N 437.518 0.538854 1.48102 0
M  V30 4600 C 438.448 -0.207654 2.32575 0
M  V30 4601 C 439.429 -0.926559 1.4265 0
M  V30 4602 O 440.614 -0.91061 1.71527 0
M  V30 4603 C 437.744 -1.24957 3.24042 0
M  V30 4604 C 436.698 -0.648263 4.23062 0
M  V30 4605 C 436.024 -1.79348 5.03725 0
M  V30 4606 C 437.324 0.385897 5.20872 0
M  V30 4607 H 439.018 0.497534 2.95237 0
M  V30 4608 H 436.564 0.240715 1.41974 0
M  V30 4609 H 438.517 -1.77983 3.81969 0
M  V30 4610 H 437.241 -1.98446 2.59397 0
M  V30 4611 H 435.9 -0.139452 3.66335 0
M  V30 4612 H 435.548 -2.51696 4.35498 0
M  V30 4613 H 435.248 -1.39702 5.70751 0
M  V30 4614 H 436.772 -2.32735 5.64506 0
M  V30 4615 H 438.186 -0.057607 5.73271 0
M  V30 4616 H 436.583 0.700227 5.96001 0
M  V30 4617 H 437.653 1.28848 4.67468 0
M  V30 4618 N 438.996 -1.55193 0.274407 0
M  V30 4619 C 439.928 -2.1989 -0.646595 0
M  V30 4620 C 440.941 -1.1834 -1.11801 0
M  V30 4621 O 442.13 -1.4507 -1.04004 0
M  V30 4622 C 439.23 -2.8104 -1.89393 0
M  V30 4623 C 438.403 -4.08274 -1.56943 0
M  V30 4624 C 437.462 -4.53478 -2.66916 0
M  V30 4625 O 436.488 -5.19267 -2.33132 0
M  V30 4626 N 437.69 -4.2356 -3.9696 0
M  V30 4627 H 440.455 -2.99556 -0.0928686 0
M  V30 4628 H 438.016 -1.61618 0.0954783 0
M  V30 4629 H 440.008 -3.08226 -2.62257 0
M  V30 4630 H 438.578 -2.05372 -2.35672 0
M  V30 4631 H 437.798 -3.88384 -0.674655 0
M  V30 4632 H 439.086 -4.91173 -1.32764 0
M  V30 4633 H 438.484 -3.70799 -4.27229 0
M  V30 4634 H 437.041 -4.55518 -4.66205 0
M  V30 4635 N 440.474 -0.00167713 -1.576 0
M  V30 4636 C 441.422 1.0074 -2.09652 0
M  V30 4637 C 442.416 1.35483 -1.01689 0
M  V30 4638 O 443.622 1.34028 -1.20152 0
M  V30 4639 H 439.997 0.342537 -0.669457 0
M  V30 4640 H 441.968 0.542841 -2.93421 0
M  V30 4641 C 440.717 2.2899 -2.61647 0
M  V30 4642 H 440.04 2.03124 -3.44355 0
M  V30 4643 H 441.48 2.9787 -3.01744 0
M  V30 4644 C 439.939 3.00085 -1.53136 0
M  V30 4645 O 440.469 3.91135 -0.91524 0
M  V30 4646 N 438.675 2.6194 -1.25841 0
M  V30 4647 H 438.222 1.8798 -1.76129 0
M  V30 4648 H 438.18 3.09822 -0.534576 0
M  V30 4649 N 441.952 1.55251 0.271103 0
M  V30 4650 C 442.915 1.87484 1.31842 0
M  V30 4651 C 443.915 0.749545 1.42262 0
M  V30 4652 O 445.105 1.01771 1.4138 0
M  V30 4653 C 442.237 2.0818 2.69951 0
M  V30 4654 H 443.43 2.81108 1.0449 0
M  V30 4655 H 440.983 1.47771 0.509258 0
M  V30 4656 H 441.718 1.16944 3.02481 0
M  V30 4657 H 441.503 2.90114 2.63774 0
M  V30 4658 H 442.993 2.34385 3.4562 0
M  V30 4659 N 443.43 -0.535701 1.48216 0
M  V30 4660 C 444.678 -1.28928 1.55634 0
M  V30 4661 C 444.999 -1.93645 0.229514 0
M  V30 4662 O 444.269 -1.81038 -0.74846 0
M  V30 4663 H 442.849 -0.47884 0.573342 0
M  V30 4664 H 445.511 -0.623853 1.84646 0
M  V30 4665 H 444.607 -2.07157 2.33436 0
M  V30 4666 N 444.908 -1.36708 -0.784132 0
M  V30 4667 C 446.154 -1.31426 -1.54451 0
M  V30 4668 C 446.487 0.10476 -1.93917 0
M  V30 4669 O 445.762 1.05934 -1.6312 0
M  V30 4670 C 446.045 -2.24189 -2.818 0
M  V30 4671 C 445.898 -3.74813 -2.48667 0
M  V30 4672 C 447.217 -2.15626 -3.83658 0
M  V30 4673 H 444.336 -0.478739 -0.560337 0
M  V30 4674 H 446.978 -1.67305 -0.900498 0
M  V30 4675 H 445.128 -1.93722 -3.36755 0
M  V30 4676 H 446.8 -4.15823 -1.99722 0
M  V30 4677 H 445.043 -3.93989 -1.81535 0
M  V30 4678 H 445.714 -4.35138 -3.39646 0
M  V30 4679 H 448.19 -2.42456 -3.38163 0
M  V30 4680 H 447.066 -2.82694 -4.70506 0
M  V30 4681 H 447.327 -1.14522 -4.27009 0
M  V30 4682 N 446.386 1.0089 -1.21074 0
M  V30 4683 C 447.319 2.09279 -0.909806 0
M  V30 4684 C 448.297 1.61986 0.141145 0
M  V30 4685 O 449.481 1.88495 0.0130332 0
M  V30 4686 C 446.608 3.36723 -0.365374 0
M  V30 4687 C 445.654 4.02919 -1.39852 0
M  V30 4688 S 446.487 4.45835 -2.96633 0
M  V30 4689 C 447.643 5.76471 -2.43786 0
M  V30 4690 H 447.876 2.34484 -1.82769 0
M  V30 4691 H 445.409 1.14115 -1.04006 0
M  V30 4692 H 447.367 4.10459 -0.0578203 0
M  V30 4693 H 446.028 3.09577 0.531136 0
M  V30 4694 H 445.221 4.94634 -0.967117 0
M  V30 4695 H 444.823 3.35441 -1.65395 0
M  V30 4696 H 447.115 6.52027 -1.84029 0
M  V30 4697 H 448.058 6.24418 -3.33928 0
M  V30 4698 H 448.466 5.33104 -1.85636 0
M  V30 4699 N 447.864 1.01787 1.20321 0
M  V30 4700 C 449.113 0.703249 1.89043 0
M  V30 4701 C 449.426 -0.770445 1.79787 0
M  V30 4702 O 450.632 -1.19767 2.43656 0
M  V30 4703 C 449.088 1.20749 3.3904 0
M  V30 4704 C 448.696 2.70817 3.56878 0
M  V30 4705 C 450.44 0.968352 4.13308 0
M  V30 4706 C 448.347 3.14716 5.00708 0
M  V30 4707 H 447.277 0.259354 0.707991 0
M  V30 4708 H 449.928 1.23072 1.36108 0
M  V30 4709 H 448.31 0.607989 3.91305 0
M  V30 4710 H 449.484 3.36327 3.14993 0
M  V30 4711 H 447.799 2.92888 2.95983 0
M  V30 4712 H 450.396 1.27173 5.19356 0
M  V30 4713 H 450.739 -0.095149 4.16191 0
M  V30 4714 H 451.272 1.53129 3.67146 0
M  V30 4715 H 448.011 4.20347 5.02979 0
M  V30 4716 H 447.531 2.53927 5.43398 0
M  V30 4717 H 449.21 3.07426 5.69296 0
M  V30 4718 N 449.342 -1.36122 0.79427 0
M  V30 4719 C 450.289 -2.29982 0.194101 0
M  V30 4720 C 451.259 -1.52214 -0.664833 0
M  V30 4721 O 452.444 -1.80702 -0.612498 0
M  V30 4722 C 449.584 -3.38706 -0.661244 0
M  V30 4723 C 448.697 -4.31456 0.216766 0
M  V30 4724 C 447.832 -5.27265 -0.645411 0
M  V30 4725 C 446.871 -6.11653 0.233756 0
M  V30 4726 N 446.008 -6.99636 -0.587682 0
M  V30 4727 H 450.848 -2.80722 0.999965 0
M  V30 4728 H 448.385 -1.38172 0.504677 0
M  V30 4729 H 450.343 -4.00394 -1.17219 0
M  V30 4730 H 448.973 -2.89274 -1.43249 0
M  V30 4731 H 448.025 -3.7088 0.845724 0
M  V30 4732 H 449.337 -4.90724 0.893973 0
M  V30 4733 H 448.491 -5.94266 -1.22198 0
M  V30 4734 H 447.23 -4.68463 -1.35623 0
M  V30 4735 H 446.235 -5.4361 0.82269 0
M  V30 4736 H 447.46 -6.72531 0.942247 0
M  V30 4737 H 445.406 -6.43337 -1.2827 0
M  V30 4738 H 445.323 -7.55993 0.0317402 0
M  V30 4739 H 446.591 -7.71001 -1.14792 0
M  V30 4740 N 450.82 -0.546701 -1.47814 0
M  V30 4741 C 451.768 0.220048 -2.31557 0
M  V30 4742 C 452.762 0.919472 -1.42275 0
M  V30 4743 O 453.968 0.841953 -1.59095 0
M  V30 4744 H 450.343 0.0898334 -0.746615 0
M  V30 4745 H 452.314 -0.505589 -2.94086 0
M  V30 4746 C 451.063 1.24353 -3.24702 0
M  V30 4747 H 450.386 0.714758 -3.93359 0
M  V30 4748 H 451.826 1.75112 -3.8615 0
M  V30 4749 C 450.285 2.28593 -2.47481 0
M  V30 4750 O 450.815 3.35334 -2.21165 0
M  V30 4751 N 449.021 2.02244 -2.08676 0
M  V30 4752 H 448.568 1.15455 -2.30278 0
M  V30 4753 H 448.526 2.72207 -1.57323 0
M  V30 4754 N 452.299 1.55045 -0.282633 0
M  V30 4755 C 453.547 1.99365 0.331334 0
M  V30 4756 C 453.868 1.1725 1.55812 0
M  V30 4757 O 453.138 0.263871 1.94115 0
M  V30 4758 H 451.718 0.736397 0.125414 0
M  V30 4759 H 454.38 1.90964 -0.389711 0
M  V30 4760 H 453.476 3.0596 0.616036 0
M  V30 4761 N 453.777 0.010035 1.57597 0
M  V30 4762 C 455.025 -0.671371 1.90623 0
M  V30 4763 C 455.346 -1.73753 0.885151 0
M  V30 4764 O 454.616 -1.95752 -0.0760611 0
M  V30 4765 H 453.196 -0.250968 0.703579 0
M  V30 4766 H 455.858 0.0533325 1.94827 0
M  V30 4767 H 454.954 -1.13626 2.90681 0
M  V30 4768 N 455.255 -1.55392 -0.262866 0
M  V30 4769 C 456.501 -1.76737 -0.99458 0
M  V30 4770 C 456.834 -0.572453 -1.85571 0
M  V30 4771 O 456.109 0.429732 -1.89693 0
M  V30 4772 C 456.392 -3.07824 -1.8686 0
M  V30 4773 C 456.245 -4.3769 -1.03672 0
M  V30 4774 C 457.564 -3.35021 -2.85393 0
M  V30 4775 H 454.683 -0.643005 -0.360157 0
M  V30 4776 H 457.325 -1.88126 -0.266216 0
M  V30 4777 H 455.475 -2.98245 -2.48962 0
M  V30 4778 H 457.147 -4.59238 -0.43563 0
M  V30 4779 H 455.39 -4.32461 -0.340513 0
M  V30 4780 H 456.061 -5.25759 -1.6817 0
M  V30 4781 H 458.537 -3.44458 -2.33426 0
M  V30 4782 H 457.413 -4.27989 -3.43681 0
M  V30 4783 H 457.674 -2.55153 -3.61039 0
M  V30 4784 N 456.733 0.527833 -1.48498 0
M  V30 4785 C 457.665 1.6482 -1.5927 0
M  V30 4786 C 458.678 1.55659 -0.476869 0
M  V30 4787 O 459.867 1.62081 -0.747806 0
M  V30 4788 C 456.967 3.0348 -1.50842 0
M  V30 4789 C 456.14 3.381 -2.77502 0
M  V30 4790 C 455.199 4.5605 -2.62497 0
M  V30 4791 O 454.225 4.59165 -3.36387 0
M  V30 4792 N 455.427 5.54353 -1.72257 0
M  V30 4793 H 458.192 1.56015 -2.55889 0
M  V30 4794 H 455.753 0.715152 -1.45249 0
M  V30 4795 H 457.745 3.80264 -1.38496 0
M  V30 4796 H 456.315 3.06352 -0.621887 0
M  V30 4797 H 455.535 2.50473 -3.04396 0
M  V30 4798 H 456.823 3.58017 -3.61527 0
M  V30 4799 H 456.221 5.54617 -1.11431 0
M  V30 4800 H 454.778 6.30347 -1.65849 0
M  V30 4801 N 458.211 1.37122 0.776871 0
M  V30 4802 C 459.457 1.32243 1.53752 0
M  V30 4803 C 459.79 -0.0944745 1.9397 0
M  V30 4804 O 459.065 -1.05068 1.6368 0
M  V30 4805 C 459.348 2.25681 2.80607 0
M  V30 4806 C 459.201 3.76127 2.46676 0
M  V30 4807 C 460.52 2.17657 3.82509 0
M  V30 4808 H 457.639 0.481704 0.557791 0
M  V30 4809 H 460.281 1.6778 0.891612 0
M  V30 4810 H 458.431 1.95505 3.35723 0
M  V30 4811 H 460.103 4.16877 1.97513 0
M  V30 4812 H 458.346 3.94946 1.79443 0
M  V30 4813 H 459.017 4.36933 3.37333 0
M  V30 4814 H 461.493 2.44245 3.36873 0
M  V30 4815 H 460.369 2.85185 4.69 0
M  V30 4816 H 460.63 1.16785 4.26396 0
M  V30 4817 N 459.689 -1.00246 1.21608 0
M  V30 4818 C 460.966 -1.71336 0.943568 0
M  V30 4819 C 461.346 -2.03972 -0.543943 0
M  V30 4820 O 460.694 -1.71545 -1.50946 0
M  V30 4821 C 460.904 -2.97094 1.83128 0
M  V30 4822 C 462.252 -3.70071 2.08165 0
M  V30 4823 O 463.276 -3.07081 1.80498 0
M  V30 4824 O 462.135 -4.83376 2.54971 0
M  V30 4825 H 459.229 -0.747386 0.354039 0
M  V30 4826 H 461.775 -1.05967 1.32549 0
M  V30 4827 H 460.547 -2.69407 2.83788 0
M  V30 4828 H 460.17 -3.70204 1.45034 0
M  V30 4829 N 461.167 -1.02423 -1.1978 0
M  V30 4830 C 462.077 -0.610919 -2.26506 0
M  V30 4831 C 463.093 0.355152 -1.70337 0
M  V30 4832 O 464.269 0.214195 -2.00258 0
M  V30 4833 C 461.334 0.0365921 -3.46681 0
M  V30 4834 C 460.395 -0.976389 -4.18049 0
M  V30 4835 C 459.628 -0.359683 -5.32487 0
M  V30 4836 O 459.851 0.838601 -5.64202 0
M  V30 4837 O 458.785 -1.08022 -5.92127 0
M  V30 4838 H 462.611 -1.49965 -2.64091 0
M  V30 4839 H 460.196 -0.794156 -1.26545 0
M  V30 4840 H 462.078 0.39786 -4.19518 0
M  V30 4841 H 460.753 0.899398 -3.10954 0
M  V30 4842 H 459.66 -1.38916 -3.47352 0
M  V30 4843 H 460.993 -1.80941 -4.57735 0
M  V30 4844 N 462.645 1.35699 -0.801477 0
M  V30 4845 C 463.875 2.02862 -0.3912 0
M  V30 4846 C 464.283 1.60552 1.00099 0
M  V30 4847 O 463.626 0.796215 1.65548 0
M  V30 4848 C 463.688 3.57386 -0.389299 0
M  V30 4849 C 463.352 4.22943 -1.73113 0
M  V30 4850 C 464.349 4.44984 -2.68859 0
M  V30 4851 C 462.034 4.60167 -2.01373 0
M  V30 4852 C 464.028 5.03345 -3.91053 0
M  V30 4853 C 461.715 5.18243 -3.23832 0
M  V30 4854 C 462.713 5.39773 -4.1849 0
M  V30 4855 O 462.401 5.96626 -5.38788 0
M  V30 4856 H 462.133 0.657341 -0.157732 0
M  V30 4857 H 464.687 1.74407 -1.08496 0
M  V30 4858 H 462.917 3.85011 0.361031 0
M  V30 4859 H 464.606 4.059 -0.0020365 0
M  V30 4860 H 465.372 4.1661 -2.48316 0
M  V30 4861 H 461.251 4.42726 -1.28508 0
M  V30 4862 H 464.795 5.20065 -4.64949 0
M  V30 4863 H 460.692 5.46044 -3.44248 0
M  V30 4864 H 461.46 6.15082 -5.40015 0
M  V30 4865 N 464.123 0.554532 1.47522 0
M  V30 4866 C 465.348 0.0322661 2.07375 0
M  V30 4867 C 465.773 -1.25079 1.40488 0
M  V30 4868 O 465.131 -1.74859 0.47896 0
M  V30 4869 C 465.179 -0.149397 3.6029 0
M  V30 4870 O 464.283 -1.21259 3.9417 0
M  V30 4871 H 463.624 0.0501228 0.662106 0
M  V30 4872 H 466.154 0.769452 1.8958 0
M  V30 4873 H 466.164 -0.364437 4.06369 0
M  V30 4874 H 464.839 0.787743 4.08372 0
M  V30 4875 H 463.416 -0.97825 3.5984 0
M  V30 4876 N 465.601 -1.54893 0.290851 0
M  V30 4877 C 467.017 -1.59476 -0.0628432 0
M  V30 4878 C 467.217 -1.30795 -1.5328 0
M  V30 4879 O 466.273 -1.07644 -2.28406 0
M  V30 4880 C 467.586 -2.98928 0.325962 0
M  V30 4881 C 469.134 -3.11799 0.273882 0
M  V30 4882 C 469.609 -4.53544 0.637359 0
M  V30 4883 N 471.1 -4.59433 0.589507 0
M  V30 4884 C 471.835 -5.67164 0.84335 0
M  V30 4885 N 471.331 -6.82975 1.16263 0
M  V30 4886 N 473.124 -5.56786 0.771091 0
M  V30 4887 H 465.275 -1.71798 1.24896 0
M  V30 4888 H 467.538 -0.801879 0.505663 0
M  V30 4889 H 467.244 -3.24805 1.34887 0
M  V30 4890 H 467.118 -3.75793 -0.325441 0
M  V30 4891 H 469.505 -2.85677 -0.739765 0
M  V30 4892 H 469.586 -2.37112 0.959766 0
M  V30 4893 H 469.23 -4.80394 1.64877 0
M  V30 4894 H 469.16 -5.26553 -0.0704866 0
M  V30 4895 H 471.651 -3.76245 0.353252 0
M  V30 4896 H 471.964 -7.61048 1.34257 0
M  V30 4897 H 470.309 -6.84552 1.20057 0
M  V30 4898 H 473.5 -4.65187 0.521383 0
M  V30 4899 H 473.673 -6.40664 0.972295 0
M  V30 4900 N 467.08 -0.0183926 -1.57589 0
M  V30 4901 C 468.308 0.673046 -1.95647 0
M  V30 4902 C 468.723 1.66275 -0.894312 0
M  V30 4903 O 468.08 1.82072 0.124975 0
M  V30 4904 C 468.131 1.38884 -3.33756 0
M  V30 4905 O 467.852 0.438806 -4.35897 0
M  V30 4906 C 469.353 2.1731 -3.86383 0
M  V30 4907 H 466.573 0.186292 -0.644621 0
M  V30 4908 H 469.117 -0.0749748 -2.04363 0
M  V30 4909 H 467.272 2.08835 -3.26293 0
M  V30 4910 H 467.686 0.945869 -5.15901 0
M  V30 4911 H 469.16 2.62863 -4.85394 0
M  V30 4912 H 469.637 3.00764 -3.20059 0
M  V30 4913 H 470.243 1.52339 -3.97081 0
M  V30 4914 N 468.558 1.5553 0.254621 0
M  V30 4915 C 469.506 1.9048 1.33492 0
M  V30 4916 C 470.5 0.78304 1.50216 0
M  V30 4917 O 471.706 0.967582 1.51782 0
M  V30 4918 H 468.081 0.604846 0.44684 0
M  V30 4919 H 470.052 2.80688 1.01275 0
M  V30 4920 C 468.801 2.20928 2.68489 0
M  V30 4921 H 468.124 3.06742 2.56417 0
M  V30 4922 H 469.564 2.49291 3.42972 0
M  V30 4923 C 468.023 1.023 3.20993 0
M  V30 4924 O 468.553 0.267027 4.00811 0
M  V30 4925 N 466.759 0.815714 2.78917 0
M  V30 4926 H 466.306 1.43217 2.14119 0
M  V30 4927 H 466.264 0.0236532 3.14391 0
M  V30 4928 N 470.036 -0.519951 1.48776 0
M  V30 4929 C 471.282 -1.27711 1.57536 0
M  V30 4930 C 471.615 -1.92547 0.252866 0
M  V30 4931 O 470.89 -1.7979 -0.742021 0
M  V30 4932 C 471.173 -2.35875 2.72094 0
M  V30 4933 C 471.026 -1.75664 4.1408 0
M  V30 4934 C 472.345 -3.37575 2.82367 0
M  V30 4935 H 469.464 -0.462971 0.573434 0
M  V30 4936 H 472.106 -0.578194 1.80989 0
M  V30 4937 H 470.256 -2.95488 2.52228 0
M  V30 4938 H 471.928 -1.20025 4.45412 0
M  V30 4939 H 470.171 -1.06154 4.20611 0
M  V30 4940 H 470.842 -2.54029 4.90075 0
M  V30 4941 H 473.318 -2.87929 3.00393 0
M  V30 4942 H 472.194 -4.1064 3.64233 0
M  V30 4943 H 472.455 -3.98743 1.90936 0
M  V30 4944 N 471.514 -1.37532 -0.769588 0
M  V30 4945 C 472.739 -1.36231 -1.56384 0
M  V30 4946 C 473.164 0.0495849 -1.88035 0
M  V30 4947 O 472.522 1.02723 -1.49391 0
M  V30 4948 C 472.57 -2.20986 -2.84952 0
M  V30 4949 O 471.674 -1.61597 -3.79421 0
M  V30 4950 H 471.015 -0.465387 -0.473615 0
M  V30 4951 H 473.545 -1.81085 -0.952342 0
M  V30 4952 H 473.555 -2.34277 -3.34034 0
M  V30 4953 H 472.23 -3.23612 -2.61243 0
M  V30 4954 H 470.807 -1.57359 -3.38072 0
M  V30 4955 N 472.992 0.995999 -1.22138 0
M  V30 4956 C 473.94 2.10673 -0.985876 0
M  V30 4957 C 474.934 1.69255 0.0699553 0
M  V30 4958 O 476.14 1.79812 -0.0822176 0
M  V30 4959 H 472.515 0.688865 -0.30161 0
M  V30 4960 H 474.486 2.27711 -1.92848 0
M  V30 4961 C 473.235 3.42881 -0.576909 0
M  V30 4962 H 472.558 3.75191 -1.38101 0
M  V30 4963 H 473.998 4.21589 -0.451518 0
M  V30 4964 C 472.457 3.29265 0.713196 0
M  V30 4965 O 472.987 3.60777 1.76643 0
M  V30 4966 N 471.193 2.82456 0.683162 0
M  V30 4967 H 470.74 2.5701 -0.174242 0
M  V30 4968 H 470.698 2.73727 1.54663 0
M  V30 4969 N 474.47 1.03057 1.19235 0
M  V30 4970 C 475.719 0.72326 1.88287 0
M  V30 4971 C 476.032 -0.751333 1.80594 0
M  V30 4972 O 477.238 -1.17176 2.44912 0
M  V30 4973 C 475.694 1.24338 3.3774 0
M  V30 4974 C 475.302 2.74587 3.53986 0
M  V30 4975 C 477.046 1.01213 4.12257 0
M  V30 4976 C 474.953 3.20009 4.97341 0
M  V30 4977 H 473.883 0.266848 0.705201 0
M  V30 4978 H 476.534 1.24509 1.34795 0
M  V30 4979 H 474.916 0.649457 3.90638 0
M  V30 4980 H 476.09 3.39649 3.11408 0
M  V30 4981 H 474.405 2.9601 2.9286 0
M  V30 4982 H 477.002 1.32675 5.17978 0
M  V30 4983 H 477.345 -0.051001 4.16269 0
M  V30 4984 H 477.878 1.57014 3.65501 0
M  V30 4985 H 474.617 4.25659 4.98493 0
M  V30 4986 H 474.137 2.59676 5.40674 0
M  V30 4987 H 475.816 3.13447 5.66003 0
M  V30 4988 N 475.948 -1.35272 0.808662 0
M  V30 4989 C 477.178 -2.02652 0.401953 0
M  V30 4990 C 477.586 -1.6108 -0.992462 0
M  V30 4991 O 476.929 -0.804984 -1.65123 0
M  V30 4992 C 476.991 -3.57174 0.408246 0
M  V30 4993 C 476.655 -4.22019 1.75353 0
M  V30 4994 C 477.652 -4.43552 2.71215 0
M  V30 4995 C 475.337 -4.59093 2.03811 0
M  V30 4996 C 477.331 -5.01264 3.93717 0
M  V30 4997 C 475.018 -5.16519 3.26576 0
M  V30 4998 C 476.016 -5.37546 4.21347 0
M  V30 4999 O 475.704 -5.93761 5.41944 0
M  V30 5000 H 475.436 -0.656495 0.161216 0
M  V30 5001 H 477.99 -1.73829 1.0942 0
M  V30 5002 H 476.22 -3.85197 -0.340608 0
M  V30 5003 H 477.909 -4.05893 0.0235623 0
M  V30 5004 H 478.675 -4.15288 2.50522 0
M  V30 5005 H 474.554 -4.42039 1.30854 0
M  V30 5006 H 478.098 -5.17592 4.67701 0
M  V30 5007 H 473.995 -5.4421 3.47139 0
M  V30 5008 H 474.763 -6.1221 5.43269 0
M  V30 5009 N 477.426 -0.562348 -1.47226 0
M  V30 5010 C 478.389 0.172056 -2.28553 0
M  V30 5011 C 479.389 0.837928 -1.37242 0
M  V30 5012 O 480.579 0.693001 -1.59822 0
M  V30 5013 C 477.711 1.25223 -3.17068 0
M  V30 5014 H 478.904 -0.542401 -2.94954 0
M  V30 5015 H 476.457 -0.319493 -1.53 0
M  V30 5016 H 477.192 1.99892 -2.55369 0
M  V30 5017 H 476.977 0.779515 -3.84273 0
M  V30 5018 H 478.467 1.76791 -3.78332 0
M  V30 5019 N 478.904 1.54736 -0.299062 0
M  V30 5020 C 480.153 1.99279 0.311549 0
M  V30 5021 C 480.466 1.19107 1.55154 0
M  V30 5022 O 481.672 1.53908 2.23662 0
M  V30 5023 C 480.128 3.54768 0.605632 0
M  V30 5024 C 479.736 4.43746 -0.615914 0
M  V30 5025 C 481.48 4.07841 1.17754 0
M  V30 5026 C 479.387 5.90663 -0.29509 0
M  V30 5027 H 478.317 0.744359 0.120187 0
M  V30 5028 H 480.968 1.78919 -0.407464 0
M  V30 5029 H 479.35 3.71021 1.38419 0
M  V30 5030 H 480.524 4.39267 -1.39218 0
M  V30 5031 H 478.839 4.01434 -1.10633 0
M  V30 5032 H 481.436 5.15174 1.43179 0
M  V30 5033 H 481.779 3.58324 2.11918 0
M  V30 5034 H 482.312 3.95123 0.460739 0
M  V30 5035 H 479.051 6.44325 -1.20524 0
M  V30 5036 H 478.571 5.98155 0.44394 0
M  V30 5037 H 480.25 6.46916 0.104048 0
M  V30 5038 N 480.382 0.0267497 1.57577 0
M  V30 5039 C 481.63 -0.651116 1.91324 0
M  V30 5040 C 481.951 -1.72804 0.90353 0
M  V30 5041 O 481.221 -1.95822 -0.0552946 0
M  V30 5042 H 479.801 -0.243491 0.706202 0
M  V30 5043 H 482.463 0.0739935 1.94759 0
M  V30 5044 H 481.559 -1.10536 2.9187 0
M  V30 5045 N 481.861 -1.55662 -0.24637 0
M  V30 5046 C 483.138 -1.68272 -0.997198 0
M  V30 5047 C 483.518 -0.566785 -2.03349 0
M  V30 5048 O 482.866 0.429688 -2.24424 0
M  V30 5049 C 483.076 -3.08594 -1.63006 0
M  V30 5050 C 484.424 -3.6721 -2.13171 0
M  V30 5051 O 485.448 -3.11397 -1.72946 0
M  V30 5052 O 484.307 -4.65054 -2.87031 0
M  V30 5053 H 481.401 -0.684429 -0.464205 0
M  V30 5054 H 483.947 -1.67993 -0.240114 0
M  V30 5055 H 482.719 -3.81264 -0.880527 0
M  V30 5056 H 482.342 -3.12886 -2.45333 0
M  V30 5057 N 483.339 0.512053 -1.4905 0
M  V30 5058 C 484.585 1.26874 -1.58212 0
M  V30 5059 C 484.918 1.9241 -0.263073 0
M  V30 5060 O 484.193 1.80181 0.732476 0
M  V30 5061 C 484.476 2.34428 -2.73341 0
M  V30 5062 C 484.329 1.73466 -4.15006 0
M  V30 5063 C 485.648 3.36073 -2.84154 0
M  V30 5064 H 482.767 0.459924 -0.575881 0
M  V30 5065 H 485.409 0.568587 -1.81293 0
M  V30 5066 H 483.559 2.94146 -2.53792 0
M  V30 5067 H 485.231 1.17661 -4.46042 0
M  V30 5068 H 483.474 1.03921 -4.21168 0
M  V30 5069 H 484.145 2.51426 -4.91415 0
M  V30 5070 H 486.621 2.86332 -3.01916 0
M  V30 5071 H 485.497 4.08703 -3.66406 0
M  V30 5072 H 485.758 3.97725 -1.93048 0
M  V30 5073 N 484.817 1.37938 0.762283 0
M  V30 5074 C 486.045 1.36883 1.55147 0
M  V30 5075 C 486.46 -0.0435348 1.8875 0
M  V30 5076 O 485.817 -1.00786 1.52146 0
M  V30 5077 C 485.868 2.21624 2.85596 0
M  V30 5078 O 485.589 3.57358 2.5343 0
M  V30 5079 C 487.09 2.28653 3.7978 0
M  V30 5080 H 484.31 0.468521 0.480343 0
M  V30 5081 H 486.854 1.81404 0.944079 0
M  V30 5082 H 485.009 1.80588 3.42734 0
M  V30 5083 H 485.423 4.01883 3.37032 0
M  V30 5084 H 486.897 2.9225 4.68288 0
M  V30 5085 H 487.374 1.29767 4.19592 0
M  V30 5086 H 487.98 2.70043 3.28568 0
M  V30 5087 N 486.295 -0.989507 1.22664 0
M  V30 5088 C 487.243 -2.10148 0.997035 0
M  V30 5089 C 488.237 -1.6929 -0.0609783 0
M  V30 5090 O 489.443 -1.79766 0.0917523 0
M  V30 5091 H 485.818 -0.687256 0.305259 0
M  V30 5092 H 487.789 -2.26685 1.94053 0
M  V30 5093 C 486.538 -3.4257 0.595085 0
M  V30 5094 H 485.861 -3.74453 1.40089 0
M  V30 5095 H 487.301 -4.21344 0.473869 0
M  V30 5096 C 485.76 -3.29638 -0.695725 0
M  V30 5097 O 486.29 -3.61709 -1.74727 0
M  V30 5098 N 484.496 -2.82814 -0.668173 0
M  V30 5099 H 484.043 -2.56914 0.18787 0
M  V30 5100 H 484.001 -2.74544 -1.5321 0
M  V30 5101 N 487.773 -1.03688 -1.18687 0
M  V30 5102 C 489.189 -0.755413 -1.4059 0
M  V30 5103 C 489.389 0.656659 -1.905 0
M  V30 5104 O 488.445 1.42144 -2.08689 0
M  V30 5105 C 489.758 -1.7983 -2.41001 0
M  V30 5106 C 491.306 -1.81877 -2.54735 0
M  V30 5107 C 491.781 -2.85148 -3.58406 0
M  V30 5108 N 493.272 -2.84015 -3.6591 0
M  V30 5109 C 494.007 -3.60573 -4.45841 0
M  V30 5110 N 493.503 -4.46871 -5.29413 0
M  V30 5111 N 495.296 -3.49079 -4.40568 0
M  V30 5112 H 487.447 -1.94818 -0.846148 0
M  V30 5113 H 489.71 -0.842727 -0.434184 0
M  V30 5114 H 489.416 -2.81097 -2.1137 0
M  V30 5115 H 489.29 -1.62727 -3.40294 0
M  V30 5116 H 491.677 -0.812836 -2.83685 0
M  V30 5117 H 491.758 -2.03057 -1.55568 0
M  V30 5118 H 491.402 -3.85918 -3.30197 0
M  V30 5119 H 491.332 -2.61224 -4.57241 0
M  V30 5120 H 493.823 -2.21431 -3.0623 0
M  V30 5121 H 494.136 -5.02007 -5.87545 0
M  V30 5122 H 492.481 -4.5094 -5.28846 0
M  V30 5123 H 495.672 -2.81066 -3.74325 0
M  V30 5124 H 495.845 -4.08994 -5.02621 0
M  V30 5125 N 489.251 1.34841 -0.815825 0
M  V30 5126 C 490.497 1.98793 -0.401129 0
M  V30 5127 C 490.83 1.64548 1.03139 0
M  V30 5128 O 490.105 0.913487 1.71714 0
M  V30 5129 C 490.388 3.55143 -0.595409 0
M  V30 5130 C 490.241 3.99155 -2.07352 0
M  V30 5131 C 491.56 4.40092 -0.0268823 0
M  V30 5132 H 488.679 0.722146 -0.14722 0
M  V30 5133 H 491.321 1.59847 -1.02707 0
M  V30 5134 H 489.471 3.8845 -0.0625779 0
M  V30 5135 H 491.143 3.76216 -2.66945 0
M  V30 5136 H 489.386 3.49726 -2.56659 0
M  V30 5137 H 490.057 5.07971 -2.1603 0
M  V30 5138 H 492.533 4.13298 -0.482042 0
M  V30 5139 H 491.409 5.48562 -0.19267 0
M  V30 5140 H 491.67 4.29016 1.06759 0
M  V30 5141 N 490.729 0.570148 1.46925 0
M  V30 5142 C 491.662 -0.218362 2.27153 0
M  V30 5143 C 492.64 -0.90847 1.34854 0
M  V30 5144 O 493.824 -0.924875 1.64251 0
M  V30 5145 C 490.951 -1.3122 3.12248 0
M  V30 5146 C 489.997 -0.729277 4.20219 0
M  V30 5147 S 490.83 0.434159 5.33737 0
M  V30 5148 C 491.986 -0.661188 6.22398 0
M  V30 5149 H 492.219 0.462393 2.93682 0
M  V30 5150 H 489.752 0.356753 1.50222 0
M  V30 5151 H 491.71 -1.93856 3.61842 0
M  V30 5152 H 490.371 -1.96485 2.45056 0
M  V30 5153 H 489.564 -1.5511 4.79538 0
M  V30 5154 H 489.166 -0.178836 3.73572 0
M  V30 5155 H 491.458 -1.55006 6.5953 0
M  V30 5156 H 492.401 -0.105046 7.08022 0
M  V30 5157 H 492.809 -0.959682 5.56283 0
M  V30 5158 N 492.207 -1.54576 0.307264 0
M  V30 5159 C 493.137 -2.26708 -0.55907 0
M  V30 5160 C 494.118 -1.26893 -1.1328 0
M  V30 5161 O 495.303 -1.55677 -1.16097 0
M  V30 5162 C 492.433 -3.01259 -1.72801 0
M  V30 5163 C 491.387 -4.08275 -1.28435 0
M  V30 5164 C 490.713 -4.70575 -2.53895 0
M  V30 5165 C 492.013 -5.2068 -0.411038 0
M  V30 5166 H 493.707 -2.9937 0.042576 0
M  V30 5167 H 491.253 -1.43983 0.0219173 0
M  V30 5168 H 493.206 -3.50444 -2.34023 0
M  V30 5169 H 491.93 -2.26187 -2.356 0
M  V30 5170 H 490.589 -3.59949 -0.695161 0
M  V30 5171 H 490.237 -3.92136 -3.15021 0
M  V30 5172 H 489.937 -5.42854 -2.24908 0
M  V30 5173 H 491.461 -5.22527 -3.15908 0
M  V30 5174 H 492.875 -5.65721 -0.929097 0
M  V30 5175 H 491.272 -5.99716 -0.214664 0
M  V30 5176 H 492.342 -4.81629 0.562287 0
M  V30 5177 N 493.685 -0.035106 -1.57561 0
M  V30 5178 C 494.913 0.652258 -1.9635 0
M  V30 5179 C 495.328 1.65317 -0.911897 0
M  V30 5180 O 494.685 1.82194 0.105657 0
M  V30 5181 C 494.736 1.35337 -3.35211 0
M  V30 5182 O 494.457 0.392548 -4.36338 0
M  V30 5183 C 495.958 2.13199 -3.88666 0
M  V30 5184 H 493.178 0.179444 -0.646561 0
M  V30 5185 H 495.722 -0.0966459 -2.04271 0
M  V30 5186 H 493.877 2.05362 -3.28489 0
M  V30 5187 H 494.291 0.891097 -5.16875 0
M  V30 5188 H 495.765 2.577 -4.88154 0
M  V30 5189 H 496.242 2.97353 -3.23231 0
M  V30 5190 H 496.848 1.48118 -3.98674 0
M  V30 5191 N 495.163 1.55791 0.238111 0
M  V30 5192 C 496.574 1.68383 0.806472 0
M  V30 5193 C 496.925 0.634157 1.85669 0
M  V30 5194 O 496.05 -0.217913 2.153 0
M  V30 5195 C 496.645 3.05268 1.46959 0
M  V30 5196 C 495.204 3.1977 1.98555 0
M  V30 5197 C 494.351 2.64279 0.839763 0
M  V30 5198 H 497.302 1.58694 0.0137535 0
M  V30 5199 H 497.323 3.00203 2.33792 0
M  V30 5200 H 496.835 3.81643 0.704993 0
M  V30 5201 H 494.936 2.48234 2.77868 0
M  V30 5202 H 495.049 4.26788 2.17689 0
M  V30 5203 H 493.413 2.22329 1.24265 0
M  V30 5204 H 494.196 3.43187 0.0881032 0
M  V30 5205 N 496.642 -0.504142 1.49319 0
M  V30 5206 C 497.888 -1.26033 1.58882 0
M  V30 5207 C 498.221 -1.92268 0.273274 0
M  V30 5208 O 497.496 -1.80567 -0.72291 0
M  V30 5209 C 497.779 -2.32976 2.7458 0
M  V30 5210 C 497.632 -1.71263 4.1592 0
M  V30 5211 C 498.951 -3.34561 2.85932 0
M  V30 5212 H 496.07 -0.456863 0.578312 0
M  V30 5213 H 498.712 -0.558965 1.81592 0
M  V30 5214 H 496.862 -2.92796 2.55348 0
M  V30 5215 H 498.534 -1.15294 4.4666 0
M  V30 5216 H 496.777 -1.01686 4.21714 0
M  V30 5217 H 497.448 -2.48816 4.92742 0
M  V30 5218 H 499.924 -2.84727 3.0343 0
M  V30 5219 H 498.8 -4.06754 3.68568 0
M  V30 5220 H 499.061 -3.96695 1.95154 0
M  V30 5221 N 498.12 -1.38341 -0.754957 0
M  V30 5222 C 499.083 -1.35262 -1.85032 0
M  V30 5223 C 500.083 -0.253393 -1.58791 0
M  V30 5224 O 501.273 -0.510205 -1.66561 0
M  V30 5225 C 498.405 -1.10544 -3.22479 0
M  V30 5226 H 499.598 -2.32712 -1.8917 0
M  V30 5227 H 497.151 -1.23614 -0.956515 0
M  V30 5228 H 497.886 -0.136952 -3.24011 0
M  V30 5229 H 497.671 -1.90127 -3.4292 0
M  V30 5230 H 499.161 -1.11082 -4.02555 0
M  V30 5231 N 499.598 0.982988 -1.23187 0
M  V30 5232 C 500.847 1.71817 -1.05649 0
M  V30 5233 C 501.16 1.91315 0.407176 0
M  V30 5234 O 502.366 2.62256 0.702436 0
M  V30 5235 C 500.822 3.09188 -1.84203 0
M  V30 5236 C 500.43 2.97586 -3.34882 0
M  V30 5237 C 502.174 3.86684 -1.75146 0
M  V30 5238 C 500.081 4.30173 -4.05839 0
M  V30 5239 H 499.011 0.644258 -0.391724 0
M  V30 5240 H 501.662 1.09659 -1.4713 0
M  V30 5241 H 500.044 3.72087 -1.35527 0
M  V30 5242 H 501.218 2.43793 -3.91026 0
M  V30 5243 H 499.533 2.33567 -3.44725 0
M  V30 5244 H 502.13 4.84836 -2.25473 0
M  V30 5245 H 502.473 4.10136 -0.713737 0
M  V30 5246 H 503.006 3.30482 -2.21419 0
M  V30 5247 H 499.745 4.11918 -5.09906 0
M  V30 5248 H 499.265 4.83841 -3.54482 0
M  V30 5249 H 500.944 4.98873 -4.11989 0
M  V30 5250 N 501.076 1.04316 1.18135 0
M  V30 5251 C 502.024 0.630175 2.23901 0
M  V30 5252 C 503.018 -0.344254 1.65865 0
M  V30 5253 O 504.224 -0.211273 1.78756 0
M  V30 5254 H 500.599 0.185578 0.728742 0
M  V30 5255 H 502.57 1.53253 2.56039 0
M  V30 5256 C 501.319 0.011666 3.47698 0
M  V30 5257 H 500.642 0.752526 3.92654 0
M  V30 5258 H 502.082 -0.240046 4.2332 0
M  V30 5259 C 500.541 -1.23913 3.13285 0
M  V30 5260 O 501.071 -2.32959 3.27251 0
M  V30 5261 N 499.277 -1.13338 2.67587 0
M  V30 5262 H 498.824 -0.246006 2.56423 0
M  V30 5263 H 498.782 -1.97116 2.44934 0
M  V30 5264 N 502.554 -1.34406 0.822964 0
M  V30 5265 C 503.464 -2.33298 0.246838 0
M  V30 5266 C 504.48 -1.62625 -0.618797 0
M  V30 5267 O 505.656 -1.94391 -0.526685 0
M  V30 5268 C 502.721 -3.41785 -0.581731 0
M  V30 5269 C 501.782 -4.28206 0.306309 0
M  V30 5270 C 501.015 -5.31512 -0.48281 0
M  V30 5271 O 501.238 -5.43973 -1.71607 0
M  V30 5272 O 500.172 -6.01749 0.134884 0
M  V30 5273 H 503.998 -2.84401 1.06534 0
M  V30 5274 H 501.583 -1.37466 0.585108 0
M  V30 5275 H 503.465 -4.08028 -1.05313 0
M  V30 5276 H 502.14 -2.92925 -1.37756 0
M  V30 5277 H 501.047 -3.64885 0.825199 0
M  V30 5278 H 502.38 -4.80507 1.06649 0
M  V30 5279 N 504.032 -0.577932 -1.46621 0
M  V30 5280 C 504.995 0.147805 -2.28723 0
M  V30 5281 C 505.995 0.823325 -1.38123 0
M  V30 5282 O 507.185 0.676011 -1.60548 0
M  V30 5283 C 504.317 1.21853 -3.18378 0
M  V30 5284 H 505.51 -0.573654 -2.94362 0
M  V30 5285 H 503.063 -0.335703 -1.52652 0
M  V30 5286 H 503.798 1.97173 -2.57475 0
M  V30 5287 H 503.583 0.738714 -3.85078 0
M  V30 5288 H 505.073 1.72768 -3.80186 0
M  V30 5289 N 505.51 1.54411 -0.315457 0
M  V30 5290 C 506.473 2.22713 0.54142 0
M  V30 5291 C 507.473 1.2179 1.04995 0
M  V30 5292 O 508.663 1.46426 0.943667 0
M  V30 5293 C 505.795 2.92485 1.75116 0
M  V30 5294 H 506.988 2.99849 -0.0555508 0
M  V30 5295 H 504.541 1.56159 -0.0664453 0
M  V30 5296 H 505.276 2.19466 2.38758 0
M  V30 5297 H 505.061 3.66483 1.39401 0
M  V30 5298 H 506.551 3.44548 2.35959 0
M  V30 5299 N 506.988 0.0434614 1.5754 0
M  V30 5300 C 507.951 -0.918696 2.09982 0
M  V30 5301 C 508.951 -1.24488 1.01781 0
M  V30 5302 O 510.141 -1.18284 1.27885 0
M  V30 5303 C 507.273 -2.23093 2.57764 0
M  V30 5304 H 508.466 -0.464229 2.96285 0
M  V30 5305 H 506.019 -0.204818 1.54952 0
M  V30 5306 H 506.754 -2.73137 1.74832 0
M  V30 5307 H 506.539 -2.00724 3.36827 0
M  V30 5308 H 508.029 -2.92028 2.98512 0
M  V30 5309 N 508.466 -1.55915 -0.229846 0
M  V30 5310 C 509.396 -1.94754 -1.28815 0
M  V30 5311 C 510.377 -0.814657 -1.49323 0
M  V30 5312 O 511.562 -1.07631 -1.61645 0
M  V30 5313 C 508.692 -2.25705 -2.63959 0
M  V30 5314 C 507.646 -3.41406 -2.5812 0
M  V30 5315 C 506.972 -3.57941 -3.97218 0
M  V30 5316 C 508.272 -4.76616 -2.13623 0
M  V30 5317 H 509.966 -2.83404 -0.965547 0
M  V30 5318 H 507.512 -1.36353 -0.463028 0
M  V30 5319 H 509.465 -2.51467 -3.38146 0
M  V30 5320 H 508.189 -1.339 -2.9789 0
M  V30 5321 H 506.848 -3.1568 -1.86391 0
M  V30 5322 H 506.496 -2.63526 -4.28443 0
M  V30 5323 H 506.196 -4.35757 -3.94195 0
M  V30 5324 H 507.72 -3.86042 -4.73079 0
M  V30 5325 H 509.134 -5.01637 -2.77549 0
M  V30 5326 H 507.531 -5.57655 -2.21677 0
M  V30 5327 H 508.601 -4.7253 -1.08829 0
M  V30 5328 N 509.944 0.496216 -1.49584 0
M  V30 5329 C 511.19 1.25189 -1.59548 0
M  V30 5330 C 511.523 1.9212 -0.283466 0
M  V30 5331 O 510.798 1.80947 0.713324 0
M  V30 5332 C 511.081 2.31516 -2.75812 0
M  V30 5333 C 510.934 1.69054 -4.16822 0
M  V30 5334 C 512.253 3.3304 -2.87702 0
M  V30 5335 H 509.372 0.45379 -0.580727 0
M  V30 5336 H 512.014 0.549327 -1.81886 0
M  V30 5337 H 510.164 2.91438 -2.56897 0
M  V30 5338 H 511.836 1.12923 -4.47265 0
M  V30 5339 H 510.079 0.994485 -4.22247 0
M  V30 5340 H 510.75 2.462 -4.94054 0
M  V30 5341 H 513.226 2.83114 -3.04936 0
M  V30 5342 H 512.102 4.04794 -3.7072 0
M  V30 5343 H 512.363 3.95655 -1.97255 0
M  V30 5344 N 511.423 1.38739 0.74761 0
M  V30 5345 C 512.7 1.25791 1.49786 0
M  V30 5346 C 513.08 -0.138075 2.10648 0
M  V30 5347 O 512.428 -1.14815 1.9756 0
M  V30 5348 C 512.638 2.37265 2.55942 0
M  V30 5349 C 513.986 2.75978 3.22679 0
M  V30 5350 O 515.01 2.36621 2.6625 0
M  V30 5351 O 513.869 3.43867 4.24756 0
M  V30 5352 H 510.963 0.492251 0.664543 0
M  V30 5353 H 513.509 1.50582 0.782511 0
M  V30 5354 H 512.281 3.30644 2.0926 0
M  V30 5355 H 511.904 2.14071 3.35051 0
M  V30 5356 N 512.901 -0.976442 1.23707 0
M  V30 5357 C 514.129 -1.75341 1.09833 0
M  V30 5358 C 514.544 -1.8553 -0.349885 0
M  V30 5359 O 513.901 -1.33732 -1.24185 0
M  V30 5360 C 513.952 -3.17833 1.72233 0
M  V30 5361 O 513.673 -3.08167 3.11391 0
M  V30 5362 C 515.174 -4.11906 1.63853 0
M  V30 5363 H 512.394 -0.550137 0.384175 0
M  V30 5364 H 514.938 -1.2265 1.63638 0
M  V30 5365 H 513.093 -3.67538 1.22452 0
M  V30 5366 H 513.507 -3.97897 3.41729 0
M  V30 5367 H 514.981 -5.09579 2.12211 0
M  V30 5368 H 515.458 -4.35109 0.598092 0
M  V30 5369 H 516.064 -3.68107 2.13019 0
M  V30 5370 N 514.379 -1.04941 -1.1758 0
M  V30 5371 C 515.625 -0.759112 -1.88057 0
M  V30 5372 C 515.958 0.711918 -1.8068 0
M  V30 5373 O 515.233 1.52035 -1.21308 0
M  V30 5374 C 515.516 -1.237 -3.38187 0
M  V30 5375 C 515.369 -2.77078 -3.54327 0
M  V30 5376 C 516.688 -0.834014 -4.32125 0
M  V30 5377 H 513.807 -0.277237 -0.682868 0
M  V30 5378 H 516.449 -1.30296 -1.38286 0
M  V30 5379 H 514.599 -0.774337 -3.80705 0
M  V30 5380 H 516.271 -3.31449 -3.20842 0
M  V30 5381 H 514.514 -3.16477 -2.96689 0
M  V30 5382 H 515.185 -3.05577 -4.59703 0
M  V30 5383 H 517.661 -1.23228 -3.97434 0
M  V30 5384 H 516.537 -1.19603 -5.35711 0
M  V30 5385 H 516.798 0.262195 -4.41322 0
M  V30 5386 N 515.857 1.33968 -0.830081 0
M  V30 5387 C 517.104 1.98063 -0.421566 0
M  V30 5388 C 517.432 1.65787 1.0171 0
M  V30 5389 O 516.687 0.925348 1.72441 0
M  V30 5390 C 516.986 3.52679 -0.57898 0
M  V30 5391 C 516.652 4.04884 -1.98443 0
M  V30 5392 C 515.314 4.18852 -2.36888 0
M  V30 5393 C 517.666 4.32879 -2.90285 0
M  V30 5394 C 514.994 4.58145 -3.66497 0
M  V30 5395 C 517.346 4.7362 -4.19364 0
M  V30 5396 C 516.01 4.85794 -4.57778 0
M  V30 5397 H 515.28 0.724765 -0.154262 0
M  V30 5398 H 517.927 1.59792 -1.05541 0
M  V30 5399 H 516.232 3.91556 0.138219 0
M  V30 5400 H 517.929 4.00261 -0.243317 0
M  V30 5401 H 514.519 3.9448 -1.67581 0
M  V30 5402 H 518.703 4.21619 -2.61823 0
M  V30 5403 H 513.959 4.65762 -3.96075 0
M  V30 5404 H 518.133 4.9424 -4.90612 0
M  V30 5405 H 515.76 5.15998 -5.58256 0
M  V30 5406 N 517.335 0.585699 1.46312 0
M  V30 5407 C 518.583 0.072278 2.01971 0
M  V30 5408 C 518.904 -1.29345 1.45928 0
M  V30 5409 O 518.174 -1.84973 0.645109 0
M  V30 5410 H 516.754 0.023729 0.746623 0
M  V30 5411 H 519.416 0.762155 1.7938 0
M  V30 5412 H 518.512 0.00552767 3.121 0
M  V30 5413 N 518.813 -1.54241 0.323641 0
M  V30 5414 C 520.041 -2.04985 -0.280871 0
M  V30 5415 C 520.456 -1.19978 -1.45777 0
M  V30 5416 O 519.813 -0.230471 -1.81039 0
M  V30 5417 C 519.864 -3.54353 -0.715258 0
M  V30 5418 O 519.585 -4.36132 0.414817 0
M  V30 5419 C 521.086 -4.21189 -1.38257 0
M  V30 5420 H 518.306 -0.66851 -0.0577502 0
M  V30 5421 H 520.85 -1.99029 0.469852 0
M  V30 5422 H 519.005 -3.60596 -1.41596 0
M  V30 5423 H 519.419 -5.2445 0.0725227 0
M  V30 5424 H 520.893 -5.27154 -1.63745 0
M  V30 5425 H 521.37 -3.72307 -2.32989 0
M  V30 5426 H 521.976 -4.19085 -0.724447 0
M  V30 5427 N 520.291 -0.0518155 -1.57515 0
M  V30 5428 C 521.239 0.940195 -2.12751 0
M  V30 5429 C 522.233 1.3218 -1.05948 0
M  V30 5430 O 523.439 1.30138 -1.24355 0
M  V30 5431 H 519.814 0.321066 -0.680015 0
M  V30 5432 H 521.785 0.449217 -2.94999 0
M  V30 5433 C 520.534 2.2055 -2.68799 0
M  V30 5434 H 519.857 1.92066 -3.50643 0
M  V30 5435 H 521.297 2.88119 -3.11068 0
M  V30 5436 C 519.756 2.95061 -1.62605 0
M  V30 5437 O 520.286 3.88025 -1.03921 0
M  V30 5438 N 518.492 2.57804 -1.34111 0
M  V30 5439 H 518.039 1.82281 -1.8202 0
M  V30 5440 H 517.997 3.07964 -0.632872 0
M  V30 5441 N 521.769 1.56035 0.221574 0
M  V30 5442 C 523.18 1.69229 0.788567 0
M  V30 5443 C 523.531 0.653814 1.84986 0
M  V30 5444 O 522.656 -0.195065 2.15519 0
M  V30 5445 C 523.251 3.06809 1.43713 0
M  V30 5446 C 521.81 3.21858 1.95152 0
M  V30 5447 C 520.957 2.65155 0.811685 0
M  V30 5448 H 523.908 1.587 -0.00307894 0
M  V30 5449 H 523.929 3.02666 2.30594 0
M  V30 5450 H 523.441 3.82369 0.664475 0
M  V30 5451 H 521.542 2.51167 2.7522 0
M  V30 5452 H 521.655 4.29073 2.1315 0
M  V30 5453 H 520.019 2.23635 1.21899 0
M  V30 5454 H 520.802 3.43261 0.0516987 0
M  V30 5455 N 523.247 -0.488276 1.49845 0
M  V30 5456 C 524.663 -0.820566 1.3689 0
M  V30 5457 C 524.863 -1.97248 0.411752 0
M  V30 5458 O 523.919 -2.52042 -0.151931 0
M  V30 5459 C 525.232 -1.1488 2.77891 0
M  V30 5460 C 526.78 -1.25626 2.86683 0
M  V30 5461 C 527.255 -1.61772 4.28479 0
M  V30 5462 N 528.746 -1.68797 4.31349 0
M  V30 5463 C 529.481 -1.98235 5.38043 0
M  V30 5464 N 528.977 -2.2581 6.54967 0
M  V30 5465 N 530.77 -1.99593 5.2547 0
M  V30 5466 H 522.921 0.271123 2.10662 0
M  V30 5467 H 525.184 0.058735 0.946179 0
M  V30 5468 H 524.89 -0.375614 3.49688 0
M  V30 5469 H 524.764 -2.08919 3.14058 0
M  V30 5470 H 527.151 -2.02014 2.15114 0
M  V30 5471 H 527.232 -0.296072 2.54081 0
M  V30 5472 H 526.876 -0.859295 5.00578 0
M  V30 5473 H 526.806 -2.58912 4.58554 0
M  V30 5474 H 529.297 -1.49595 3.4703 0
M  V30 5475 H 529.61 -2.47497 7.32096 0
M  V30 5476 H 527.955 -2.23239 6.58171 0
M  V30 5477 H 531.146 -1.77535 4.33127 0
M  V30 5478 H 531.319 -2.222 6.08713 0
M  V30 5479 N 524.725 -1.39134 -0.740242 0
M  V30 5480 C 525.672 -1.37434 -1.8542 0
M  V30 5481 C 526.642 -0.234822 -1.64432 0
M  V30 5482 O 527.827 -0.429125 -1.85912 0
M  V30 5483 C 524.967 -1.21844 -3.22875 0
M  V30 5484 C 524.08 -2.45296 -3.55603 0
M  V30 5485 C 523.215 -2.22334 -4.82432 0
M  V30 5486 C 522.254 -3.41488 -5.07988 0
M  V30 5487 N 521.391 -3.17877 -6.26018 0
M  V30 5488 H 526.231 -2.3266 -1.86207 0
M  V30 5489 H 523.768 -1.15578 -0.909946 0
M  V30 5490 H 525.726 -1.10818 -4.02213 0
M  V30 5491 H 524.356 -0.3025 -3.21379 0
M  V30 5492 H 523.408 -2.66945 -2.71006 0
M  V30 5493 H 524.72 -3.34063 -3.7041 0
M  V30 5494 H 523.874 -2.0852 -5.69741 0
M  V30 5495 H 522.613 -1.30954 -4.6979 0
M  V30 5496 H 521.618 -3.55807 -4.19144 0
M  V30 5497 H 522.843 -4.33763 -5.22519 0
M  V30 5498 H 520.789 -2.29156 -6.14673 0
M  V30 5499 H 520.706 -4.00198 -6.41387 0
M  V30 5500 H 521.974 -3.07746 -7.16179 0
M  V30 5501 N 526.204 0.969867 -1.24223 0
M  V30 5502 C 527.432 1.74756 -1.10761 0
M  V30 5503 C 527.847 1.85713 0.340041 0
M  V30 5504 O 527.204 1.34389 1.23474 0
M  V30 5505 C 527.255 3.16915 -1.73917 0
M  V30 5506 O 526.976 3.06511 -3.13021 0
M  V30 5507 C 528.477 4.11032 -1.66036 0
M  V30 5508 H 525.697 0.548092 -0.387087 0
M  V30 5509 H 528.241 1.2178 -1.64286 0
M  V30 5510 H 526.396 3.66884 -1.244 0
M  V30 5511 H 526.81 3.96079 -3.43834 0
M  V30 5512 H 528.284 5.08446 -2.14911 0
M  V30 5513 H 528.761 4.34785 -0.621159 0
M  V30 5514 H 529.367 3.66972 -2.14969 0
M  V30 5515 N 527.682 1.05563 1.17022 0
M  V30 5516 C 528.959 0.68165 1.83338 0
M  V30 5517 C 529.339 -0.837665 1.93769 0
M  V30 5518 O 528.687 -1.74507 1.47511 0
M  V30 5519 C 528.897 1.375 3.20772 0
M  V30 5520 C 530.245 1.51545 3.96635 0
M  V30 5521 O 531.269 1.33431 3.30264 0
M  V30 5522 O 530.128 1.812 5.15586 0
M  V30 5523 H 527.222 0.240412 0.791285 0
M  V30 5524 H 529.768 1.15545 1.24288 0
M  V30 5525 H 528.54 2.41135 3.08171 0
M  V30 5526 H 528.163 0.890798 3.87493 0
M  V30 5527 N 529.16 -1.33526 0.837174 0
M  V30 5528 C 530.11 -2.2672 0.241269 0
M  V30 5529 C 531.094 -1.49183 -0.602756 0
M  V30 5530 O 532.286 -1.71052 -0.455002 0
M  V30 5531 C 529.415 -3.38294 -0.584125 0
M  V30 5532 C 528.501 -4.23231 0.271315 0
M  V30 5533 N 528.892 -4.87473 1.34922 0
M  V30 5534 C 527.19 -4.45962 0.0580589 0
M  V30 5535 C 527.891 -5.50685 1.87405 0
M  V30 5536 N 526.867 -5.30732 1.17578 0
M  V30 5537 H 530.669 -2.73903 1.06558 0
M  V30 5538 H 528.183 -1.47411 0.68145 0
M  V30 5539 H 530.18 -4.04044 -1.02731 0
M  V30 5540 H 528.84 -2.9266 -1.40643 0
M  V30 5541 H 529.851 -4.88077 1.7321 0
M  V30 5542 H 526.528 -4.11052 -0.730938 0
M  V30 5543 H 527.918 -6.11845 2.77661 0
M  V30 5544 N 530.638 -0.59345 -1.46 0
M  V30 5545 C 531.866 -0.0890934 -2.06708 0
M  V30 5546 C 532.281 1.2205 -1.44046 0
M  V30 5547 O 531.638 1.74029 -0.549551 0
M  V30 5548 C 531.689 0.0720263 -3.61428 0
M  V30 5549 O 531.41 -1.18574 -4.21748 0
M  V30 5550 C 532.911 0.609487 -4.3909 0
M  V30 5551 H 530.131 -0.0623628 -0.668096 0
M  V30 5552 H 532.675 -0.817171 -1.87464 0
M  V30 5553 H 530.83 0.750369 -3.80063 0
M  V30 5554 H 531.244 -1.0064 -5.14754 0
M  V30 5555 H 532.718 0.671363 -5.47902 0
M  V30 5556 H 533.195 1.62878 -4.07882 0
M  V30 5557 H 533.801 -0.03434 -4.25286 0
M  V30 5558 N 532.116 1.54067 -0.331816 0
M  V30 5559 C 533.532 1.59587 0.0205388 0
M  V30 5560 C 533.732 1.34813 1.49759 0
M  V30 5561 O 532.788 1.13661 2.25471 0
M  V30 5562 C 534.101 2.97959 -0.405103 0
M  V30 5563 C 535.649 3.10964 -0.356454 0
M  V30 5564 C 536.124 4.51694 -0.757384 0
M  V30 5565 N 537.615 4.57709 -0.71111 0
M  V30 5566 C 538.35 5.64729 -0.993427 0
M  V30 5567 N 537.846 6.79652 -1.3433 0
M  V30 5568 N 539.639 5.54546 -0.918442 0
M  V30 5569 H 531.79 1.68426 -1.29407 0
M  V30 5570 H 534.053 0.78819 -0.526745 0
M  V30 5571 H 533.759 3.21115 -1.43451 0
M  V30 5572 H 533.633 3.76524 0.225692 0
M  V30 5573 H 536.02 2.87538 0.663763 0
M  V30 5574 H 536.101 2.34484 -1.02229 0
M  V30 5575 H 535.745 4.75853 -1.77555 0
M  V30 5576 H 535.675 5.26555 -0.0691444 0
M  V30 5577 H 538.166 3.75176 -0.452883 0
M  V30 5578 H 538.479 7.57221 -1.54388 0
M  V30 5579 H 536.824 6.81128 -1.38164 0
M  V30 5580 H 540.015 4.63641 -0.644536 0
M  V30 5581 H 540.188 6.37861 -1.14181 0
M  V30 5582 N 533.594 0.0601682 1.57485 0
M  V30 5583 C 534.84 -0.612501 1.93329 0
M  V30 5584 C 535.173 -1.6996 0.939526 0
M  V30 5585 O 534.448 -1.94472 -0.0330957 0
M  V30 5586 C 534.731 -1.20025 3.39508 0
M  V30 5587 C 534.584 -0.12059 4.49638 0
M  V30 5588 C 535.903 -2.10923 3.86264 0
M  V30 5589 H 533.022 -0.221185 0.703027 0
M  V30 5590 H 535.664 0.123768 1.89596 0
M  V30 5591 H 533.814 -1.82774 3.42821 0
M  V30 5592 H 535.486 0.51185 4.58452 0
M  V30 5593 H 533.729 0.550251 4.30296 0
M  V30 5594 H 534.4 -0.572019 5.49028 0
M  V30 5595 H 536.876 -1.58124 3.84884 0
M  V30 5596 H 535.752 -2.48987 4.8918 0
M  V30 5597 H 536.013 -3.01292 3.23536 0
M  V30 5598 N 535.072 -1.5615 -0.213296 0
M  V30 5599 C 536.035 -1.92249 -1.24792 0
M  V30 5600 C 537.035 -0.801828 -1.39382 0
M  V30 5601 O 538.225 -1.06948 -1.37506 0
M  V30 5602 C 535.357 -2.18056 -2.62039 0
M  V30 5603 H 536.55 -2.84793 -0.939845 0
M  V30 5604 H 534.103 -1.49559 -0.454062 0
M  V30 5605 H 534.838 -1.2809 -2.97932 0
M  V30 5606 H 534.623 -2.99703 -2.52825 0
M  V30 5607 H 536.113 -2.47051 -3.36683 0
M  V30 5608 N 536.55 0.480323 -1.50102 0
M  V30 5609 C 537.775 1.26126 -1.64642 0
M  V30 5610 C 538.2 1.85257 -0.325823 0
M  V30 5611 O 537.558 1.66854 0.709194 0
M  V30 5612 C 537.606 2.35243 -2.73301 0
M  V30 5613 O 536.71 3.39646 -2.33911 0
M  V30 5614 H 536.051 0.371463 -0.550374 0
M  V30 5615 H 538.581 0.572696 -1.96421 0
M  V30 5616 H 538.591 2.80695 -2.96098 0
M  V30 5617 H 537.266 1.91574 -3.6915 0
M  V30 5618 H 535.843 2.99969 -2.21525 0
M  V30 5619 N 538.028 1.39524 0.732853 0
M  V30 5620 C 538.991 1.38189 1.82857 0
M  V30 5621 C 539.991 0.278624 1.58368 0
M  V30 5622 O 541.181 0.536639 1.65728 0
M  V30 5623 C 538.313 1.15661 3.2068 0
M  V30 5624 H 539.506 2.35692 1.85444 0
M  V30 5625 H 537.059 1.2512 0.936728 0
M  V30 5626 H 537.794 0.188482 3.23752 0
M  V30 5627 H 537.579 1.95559 3.39852 0
M  V30 5628 H 539.069 1.17472 4.00737 0
M  V30 5629 N 539.506 -0.963266 1.24736 0
M  V30 5630 C 540.752 -1.70933 1.09131 0
M  V30 5631 C 541.085 -1.90676 -0.368273 0
M  V30 5632 O 540.36 -1.47147 -1.27193 0
M  V30 5633 C 540.643 -3.09744 1.83658 0
M  V30 5634 C 540.496 -2.97465 3.37394 0
M  V30 5635 C 541.815 -4.09483 1.61282 0
M  V30 5636 H 538.934 -0.620398 0.397838 0
M  V30 5637 H 541.576 -1.12028 1.53459 0
M  V30 5638 H 539.726 -3.60031 1.4598 0
M  V30 5639 H 541.398 -2.54571 3.84696 0
M  V30 5640 H 539.641 -2.33576 3.65547 0
M  V30 5641 H 540.312 -3.95822 3.84745 0
M  V30 5642 H 542.788 -3.68073 1.94066 0
M  V30 5643 H 541.664 -5.04666 2.15878 0
M  V30 5644 H 541.925 -4.38639 0.552102 0
M  V30 5645 N 540.985 -1.06182 -1.16461 0
M  V30 5646 C 542.232 -0.777863 -1.86964 0
M  V30 5647 C 542.56 0.695602 -1.81636 0
M  V30 5648 O 541.815 1.52532 -1.22607 0
M  V30 5649 C 542.114 -1.21633 -3.36066 0
M  V30 5650 C 541.78 -2.69371 -3.61594 0
M  V30 5651 C 540.442 -3.09727 -3.6827 0
M  V30 5652 C 542.794 -3.64791 -3.7226 0
M  V30 5653 C 540.122 -4.44345 -3.83112 0
M  V30 5654 C 542.474 -4.99155 -3.88623 0
M  V30 5655 C 541.138 -5.39149 -3.93541 0
M  V30 5656 H 540.408 -0.28464 -0.68415 0
M  V30 5657 H 543.055 -1.33071 -1.37711 0
M  V30 5658 H 541.36 -0.582651 -3.87443 0
M  V30 5659 H 543.057 -0.973682 -3.88999 0
M  V30 5660 H 539.647 -2.37124 -3.57029 0
M  V30 5661 H 543.831 -3.34746 -3.66413 0
M  V30 5662 H 539.087 -4.74819 -3.85172 0
M  V30 5663 H 543.261 -5.72976 -3.95817 0
M  V30 5664 H 540.888 -6.43464 -4.04794 0
M  V30 5665 N 542.463 1.3308 -0.844243 0
M  V30 5666 C 543.688 2.02341 -0.455282 0
M  V30 5667 C 544.113 1.6308 0.93737 0
M  V30 5668 O 543.471 0.826118 1.61385 0
M  V30 5669 C 543.519 3.55743 -0.58988 0
M  V30 5670 O 542.623 4.1063 0.38166 0
M  V30 5671 H 541.964 0.637898 -0.184343 0
M  V30 5672 H 544.494 1.6986 -1.14056 0
M  V30 5673 H 544.504 4.05243 -0.473522 0
M  V30 5674 H 543.179 3.83662 -1.60549 0
M  V30 5675 H 541.756 3.72236 0.22241 0
M  V30 5676 N 543.941 0.601185 1.45683 0
M  V30 5677 C 545.19 0.0914953 2.01492 0
M  V30 5678 C 545.503 -1.28331 1.47616 0
M  V30 5679 O 546.709 -1.88537 1.95362 0
M  V30 5680 C 545.165 0.11291 3.59723 0
M  V30 5681 C 544.773 1.48717 4.22596 0
M  V30 5682 C 546.517 -0.341871 4.23121 0
M  V30 5683 C 544.424 1.46531 5.7296 0
M  V30 5684 H 543.354 0.0304365 0.753385 0
M  V30 5685 H 546.005 0.755568 1.67223 0
M  V30 5686 H 544.387 -0.617692 3.91153 0
M  V30 5687 H 545.561 2.23897 4.02749 0
M  V30 5688 H 543.876 1.88351 3.71366 0
M  V30 5689 H 546.473 -0.377304 5.33367 0
M  V30 5690 H 546.816 -1.36325 3.93346 0
M  V30 5691 H 547.349 0.335256 3.96385 0
M  V30 5692 H 544.088 2.46408 6.07423 0
M  V30 5693 H 543.608 0.755997 5.95017 0
M  V30 5694 H 545.287 1.18618 6.36034 0
M  V30 5695 N 545.419 -1.53889 0.339982 0
M  V30 5696 C 546.83 -1.86139 -0.144671 0
M  V30 5697 C 547.181 -1.2613 -1.50285 0
M  V30 5698 O 546.306 -0.573515 -2.08662 0
M  V30 5699 C 546.901 -3.37728 -0.269285 0
M  V30 5700 C 545.46 -3.69868 -0.698168 0
M  V30 5701 C 544.607 -2.76777 0.170249 0
M  V30 5702 H 547.558 -1.48503 0.559704 0
M  V30 5703 H 547.579 -3.64331 -1.0974 0
M  V30 5704 H 547.091 -3.81375 0.719366 0
M  V30 5705 H 545.192 -3.31764 -1.69597 0
M  V30 5706 H 545.305 -4.76582 -0.490533 0
M  V30 5707 H 543.669 -2.52188 -0.356844 0
M  V30 5708 H 544.452 -3.23253 1.15597 0
M  V30 5709 N 546.897 -0.0685191 -1.57451 0
M  V30 5710 C 548.308 0.464634 -1.80826 0
M  V30 5711 C 548.659 1.69847 -0.982169 0
M  V30 5712 O 547.784 2.15439 -0.203734 0
M  V30 5713 C 548.379 0.849721 -3.27971 0
M  V30 5714 C 546.938 1.32776 -3.52204 0
M  V30 5715 C 546.085 0.311332 -2.75547 0
M  V30 5716 H 549.036 -0.294248 -1.55948 0
M  V30 5717 H 549.057 1.71138 -3.39841 0
M  V30 5718 H 548.569 -0.0484736 -3.8807 0
M  V30 5719 H 546.67 2.24456 -2.97406 0
M  V30 5720 H 546.783 1.30794 -4.60901 0
M  V30 5721 H 545.147 0.787915 -2.42206 0
M  V30 5722 H 545.93 -0.579078 -3.38381 0
M  V30 5723 N 548.375 1.56261 0.205012 0
M  V30 5724 C 549.624 1.79236 0.925058 0
M  V30 5725 C 549.937 0.640011 1.84833 0
M  V30 5726 O 551.143 0.753809 2.60826 0
M  V30 5727 C 549.599 3.17475 1.69522 0
M  V30 5728 C 549.207 4.40482 0.817269 0
M  V30 5729 C 550.951 3.49766 2.4055 0
M  V30 5730 C 548.858 5.69744 1.58573 0
M  V30 5731 H 547.788 0.668287 0.349153 0
M  V30 5732 H 550.439 1.82629 0.178544 0
M  V30 5733 H 548.821 3.08304 2.48526 0
M  V30 5734 H 549.995 4.60752 0.0665988 0
M  V30 5735 H 548.31 4.15827 0.218316 0
M  V30 5736 H 550.907 4.43573 2.98575 0
M  V30 5737 H 551.25 2.73041 3.14252 0
M  V30 5738 H 551.783 3.60341 1.68522 0
M  V30 5739 H 548.522 6.49407 0.891679 0
M  V30 5740 H 548.042 5.53509 2.31059 0
M  V30 5741 H 549.721 6.1051 2.14212 0
M  V30 5742 N 549.853 -0.472356 1.50355 0
M  V30 5743 C 551.101 -1.22211 1.60962 0
M  V30 5744 C 551.422 -1.92497 0.311439 0
M  V30 5745 O 550.692 -1.8405 -0.671002 0
M  V30 5746 H 549.272 -0.454092 0.593135 0
M  V30 5747 H 551.934 -0.544977 1.87126 0
M  V30 5748 H 551.03 -1.9707 2.42012 0
M  V30 5749 N 551.331 -1.39911 -0.725443 0
M  V30 5750 C 552.559 -1.40949 -1.51463 0
M  V30 5751 C 552.974 -0.0065242 -1.88799 0
M  V30 5752 O 552.331 0.967163 -1.54765 0
M  V30 5753 C 552.382 -2.29119 -2.79619 0
M  V30 5754 O 552.103 -3.63952 -2.43866 0
M  V30 5755 C 553.604 -2.38642 -3.73584 0
M  V30 5756 H 550.824 -0.481091 -0.467752 0
M  V30 5757 H 553.368 -1.83843 -0.895651 0
M  V30 5758 H 551.523 -1.89612 -3.37826 0
M  V30 5759 H 551.937 -4.10677 -3.26258 0
M  V30 5760 H 553.411 -3.04563 -4.60375 0
M  V30 5761 H 553.888 -1.40846 -4.16004 0
M  V30 5762 H 554.494 -2.78659 -3.21293 0
M  V30 5763 N 552.809 0.956637 -1.25245 0
M  V30 5764 C 554.049 1.71585 -1.11076 0
M  V30 5765 C 554.413 1.88916 0.34277 0
M  V30 5766 O 555.614 2.61875 0.606227 0
M  V30 5767 C 553.885 3.06267 -1.84215 0
M  V30 5768 S 555.444 3.97469 -1.85914 0
M  V30 5769 H 552.262 0.589803 -0.397055 0
M  V30 5770 H 554.864 1.14114 -1.58739 0
M  V30 5771 H 553.568 2.91322 -2.89067 0
M  V30 5772 H 553.099 3.688 -1.36931 0
M  V30 5773 H 555.114 4.87316 -0.93474 0
M  V30 5774 N 554.287 1.06798 1.15896 0
M  V30 5775 C 555.535 0.786211 1.8618 0
M  V30 5776 C 555.856 -0.689547 1.82401 0
M  V30 5777 O 555.126 -1.49913 1.26107 0
M  V30 5778 H 553.706 0.287843 0.689315 0
M  V30 5779 H 556.368 1.35055 1.40521 0
M  V30 5780 H 555.464 1.1157 2.91477 0
M  V30 5781 N 555.766 -1.3263 0.851289 0
M  V30 5782 C 556.696 -2.31449 0.308771 0
M  V30 5783 C 557.677 -1.59531 -0.590255 0
M  V30 5784 O 558.862 -1.87351 -0.511205 0
M  V30 5785 C 555.992 -3.43586 -0.506548 0
M  V30 5786 C 554.946 -4.26963 0.297753 0
M  V30 5787 C 554.272 -5.30831 -0.642094 0
M  V30 5788 C 555.572 -4.99643 1.52166 0
M  V30 5789 H 557.266 -2.77074 1.13447 0
M  V30 5790 H 554.812 -1.33207 0.546971 0
M  V30 5791 H 556.765 -4.11754 -0.896474 0
M  V30 5792 H 555.489 -2.96681 -1.36558 0
M  V30 5793 H 554.148 -3.60437 0.669391 0
M  V30 5794 H 553.796 -4.8018 -1.49788 0
M  V30 5795 H 553.496 -5.87501 -0.107968 0
M  V30 5796 H 555.02 -6.01862 -1.02927 0
M  V30 5797 H 556.434 -5.6051 1.20421 0
M  V30 5798 H 554.831 -5.66022 1.99347 0
M  V30 5799 H 555.901 -4.27701 2.28474 0
M  V30 5800 N 557.244 -0.608902 -1.45362 0
M  V30 5801 C 558.493 -0.10218 -2.01441 0
M  V30 5802 C 558.806 1.27546 -1.48295 0
M  V30 5803 O 560.012 1.87498 -1.96359 0
M  V30 5804 C 558.468 -0.131985 -3.59658 0
M  V30 5805 C 558.076 -1.50956 -4.21801 0
M  V30 5806 C 559.82 0.319427 -4.23296 0
M  V30 5807 C 557.727 -1.49568 -5.72174 0
M  V30 5808 H 556.657 -0.0344314 -0.753213 0
M  V30 5809 H 559.308 -0.764426 -1.6682 0
M  V30 5810 H 557.69 0.596939 -3.91475 0
M  V30 5811 H 558.864 -2.26029 -4.01556 0
M  V30 5812 H 557.179 -1.90318 -3.70362 0
M  V30 5813 H 559.776 0.349013 -5.3356 0
M  V30 5814 H 560.119 1.34237 -3.94064 0
M  V30 5815 H 560.652 -0.356273 -3.96201 0
M  V30 5816 H 557.391 -2.49626 -6.06108 0
M  V30 5817 H 556.911 -0.787542 -5.94607 0
M  V30 5818 H 558.59 -1.21989 -6.35396 0
M  V30 5819 N 558.722 1.53707 -0.348139 0
M  V30 5820 C 559.632 2.28881 0.514857 0
M  V30 5821 C 560.648 1.34168 1.10793 0
M  V30 5822 O 561.824 1.6721 1.12262 0
M  V30 5823 C 558.889 3.05042 1.64774 0
M  V30 5824 C 557.95 4.15389 1.08398 0
M  V30 5825 C 557.183 4.87909 2.16287 0
M  V30 5826 O 557.406 4.60137 3.3709 0
M  V30 5827 O 556.34 5.74254 1.80323 0
M  V30 5828 H 560.166 3.03547 -0.0963699 0
M  V30 5829 H 557.751 1.48972 -0.113043 0
M  V30 5830 H 559.633 3.52656 2.30677 0
M  V30 5831 H 558.308 2.33228 2.24469 0
M  V30 5832 H 557.215 3.72068 0.389341 0
M  V30 5833 H 558.548 4.89318 0.531829 0
M  V30 5834 N 560.2 0.0768682 1.57412 0
M  V30 5835 C 561.11 -0.903207 2.16516 0
M  V30 5836 C 562.126 -1.32341 1.12968 0
M  V30 5837 O 563.302 -1.39507 1.45258 0
M  V30 5838 C 560.367 -2.1508 2.71922 0
M  V30 5839 C 559.428 -1.78653 3.90361 0
M  V30 5840 C 558.661 -2.97465 4.43114 0
M  V30 5841 O 558.884 -4.11638 3.94854 0
M  V30 5842 O 557.818 -2.76987 5.3438 0
M  V30 5843 H 561.644 -0.430427 3.00634 0
M  V30 5844 H 559.229 -0.146485 1.4868 0
M  V30 5845 H 561.111 -2.8823 3.07411 0
M  V30 5846 H 559.786 -2.61446 1.9086 0
M  V30 5847 H 558.693 -1.0274 3.59716 0
M  V30 5848 H 560.026 -1.37066 4.7273 0
M  V30 5849 N 561.678 -1.56367 -0.196722 0
M  V30 5850 C 562.924 -1.80796 -0.918725 0
M  V30 5851 C 563.257 -0.650645 -1.82976 0
M  V30 5852 O 562.532 0.348889 -1.91345 0
M  V30 5853 C 562.815 -3.15472 -1.73636 0
M  V30 5854 C 562.668 -4.41693 -0.85015 0
M  V30 5855 C 563.987 -3.46824 -2.70927 0
M  V30 5856 H 561.106 -0.657702 -0.332561 0
M  V30 5857 H 563.748 -1.89086 -0.186186 0
M  V30 5858 H 561.898 -3.08536 -2.36088 0
M  V30 5859 H 563.57 -4.60673 -0.240459 0
M  V30 5860 H 561.813 -4.33517 -0.156785 0
M  V30 5861 H 562.484 -5.32419 -1.45719 0
M  V30 5862 H 564.96 -3.54049 -2.18607 0
M  V30 5863 H 563.836 -4.4218 -3.25219 0
M  V30 5864 H 564.097 -2.70236 -3.49893 0
M  V30 5865 N 563.156 0.464375 -1.50603 0
M  V30 5866 C 564.119 1.54393 -1.69397 0
M  V30 5867 C 565.119 1.50566 -0.564504 0
M  V30 5868 O 566.309 1.53066 -0.831645 0
M  V30 5869 C 563.441 2.9401 -1.72543 0
M  V30 5870 H 564.634 1.39044 -2.65719 0
M  V30 5871 H 562.187 0.69122 -1.40185 0
M  V30 5872 H 562.922 3.14795 -0.77938 0
M  V30 5873 H 562.707 2.98195 -2.54602 0
M  V30 5874 H 564.197 3.72375 -1.89015 0
M  V30 5875 N 564.634 1.40294 0.718013 0
M  V30 5876 C 565.859 1.41941 1.5122 0
M  V30 5877 C 566.284 0.0202371 1.88089 0
M  V30 5878 O 565.642 -0.971078 1.53101 0
M  V30 5879 C 565.69 2.3141 2.76554 0
M  V30 5880 O 564.794 1.75567 3.73162 0
M  V30 5881 H 564.135 0.482644 0.456016 0
M  V30 5882 H 566.665 1.84494 0.884478 0
M  V30 5883 H 566.675 2.46513 3.25108 0
M  V30 5884 H 565.35 3.33085 2.49053 0
M  V30 5885 H 563.927 1.69798 3.31999 0
M  V30 5886 N 566.112 -0.949982 1.2575 0
M  V30 5887 C 567.059 -2.04738 1.06541 0
M  V30 5888 C 568.029 -1.66078 -0.0268818 0
M  V30 5889 O 569.214 -1.90348 0.131196 0
M  V30 5890 C 566.354 -3.38027 0.695127 0
M  V30 5891 C 565.467 -3.89776 1.86276 0
M  V30 5892 C 564.602 -5.11411 1.4364 0
M  V30 5893 C 563.641 -5.554 2.57287 0
M  V30 5894 N 562.778 -6.68244 2.15395 0
M  V30 5895 H 567.618 -2.20502 2.00457 0
M  V30 5896 H 565.155 -1.0805 0.998178 0
M  V30 5897 H 567.113 -4.14641 0.461375 0
M  V30 5898 H 565.743 -3.22135 -0.207046 0
M  V30 5899 H 564.795 -3.0964 2.20969 0
M  V30 5900 H 566.107 -4.18368 2.71606 0
M  V30 5901 H 565.261 -5.95457 1.16257 0
M  V30 5902 H 564 -4.84545 0.553879 0
M  V30 5903 H 563.005 -4.69916 2.85409 0
M  V30 5904 H 564.23 -5.84272 3.46125 0
M  V30 5905 H 562.176 -6.43078 1.29565 0
M  V30 5906 H 562.093 -6.96377 2.94272 0
M  V30 5907 H 563.361 -7.55687 1.91201 0
M  V30 5908 N 567.59 -1.07411 -1.15328 0
M  V30 5909 C 569.006 -0.799759 -1.38116 0
M  V30 5910 C 569.206 0.59572 -1.92493 0
M  V30 5911 O 568.262 1.35433 -2.13106 0
M  V30 5912 C 569.575 -1.87407 -2.35158 0
M  V30 5913 C 571.123 -1.89889 -2.48819 0
M  V30 5914 C 571.598 -2.96406 -3.49153 0
M  V30 5915 N 573.089 -2.95512 -3.56689 0
M  V30 5916 C 573.824 -3.74575 -4.34144 0
M  V30 5917 N 573.32 -4.63488 -5.14928 0
M  V30 5918 N 575.113 -3.62919 -4.29239 0
M  V30 5919 H 567.264 -1.97411 -0.78374 0
M  V30 5920 H 569.527 -0.856113 -0.407154 0
M  V30 5921 H 569.233 -2.8768 -2.0232 0
M  V30 5922 H 569.107 -1.73471 -3.34944 0
M  V30 5923 H 571.494 -0.902677 -2.80955 0
M  V30 5924 H 571.575 -2.07904 -1.49029 0
M  V30 5925 H 571.219 -3.96227 -3.17752 0
M  V30 5926 H 571.149 -2.75638 -4.48699 0
M  V30 5927 H 573.64 -2.31061 -2.99031 0
M  V30 5928 H 573.953 -5.20445 -5.71276 0
M  V30 5929 H 572.298 -4.67537 -5.14232 0
M  V30 5930 H 575.489 -2.92833 -3.65194 0
M  V30 5931 H 575.662 -4.24777 -4.89355 0
M  V30 5932 N 569.068 1.32177 -0.85831 0
M  V30 5933 C 570.298 2.01021 -0.476889 0
M  V30 5934 C 570.706 1.64653 0.931995 0
M  V30 5935 O 570.049 0.865713 1.62022 0
M  V30 5936 C 570.111 3.55413 -0.540528 0
M  V30 5937 C 569.775 4.1522 -1.90895 0
M  V30 5938 C 570.772 4.3318 -2.87491 0
M  V30 5939 C 568.457 4.51212 -2.20709 0
M  V30 5940 C 570.451 4.86306 -4.1205 0
M  V30 5941 C 568.138 5.04042 -3.45521 0
M  V30 5942 C 569.136 5.21538 -4.41007 0
M  V30 5943 O 568.824 5.73238 -5.63608 0
M  V30 5944 H 568.556 0.650059 -0.18547 0
M  V30 5945 H 571.11 1.69648 -1.15796 0
M  V30 5946 H 569.34 3.86196 0.19741 0
M  V30 5947 H 571.029 4.05526 -0.174191 0
M  V30 5948 H 571.795 4.05704 -2.65762 0
M  V30 5949 H 567.674 4.36878 -1.4717 0
M  V30 5950 H 571.218 4.99877 -4.86589 0
M  V30 5951 H 567.115 5.30952 -3.67098 0
M  V30 5952 H 567.883 5.91625 -5.65617 0
M  V30 5953 N 570.547 0.616602 1.45037 0
M  V30 5954 C 571.457 -0.0985401 2.34393 0
M  V30 5955 C 572.473 -0.850971 1.51771 0
M  V30 5956 O 573.649 -0.806521 1.84546 0
M  V30 5957 C 570.714 -1.07748 3.29532 0
M  V30 5958 C 569.775 -0.326022 4.2806 0
M  V30 5959 C 569.008 -1.25833 5.18654 0
M  V30 5960 O 569.231 -2.49652 5.12864 0
M  V30 5961 O 568.165 -0.750512 5.97203 0
M  V30 5962 H 571.991 0.636016 2.96966 0
M  V30 5963 H 569.576 0.376832 1.44569 0
M  V30 5964 H 571.458 -1.64107 3.88133 0
M  V30 5965 H 570.133 -1.79291 2.69512 0
M  V30 5966 H 569.04 0.280253 3.73049 0
M  V30 5967 H 570.373 0.349091 4.9096 0
M  V30 5968 N 572.025 -1.5352 0.356285 0
M  V30 5969 C 573.271 -2.01414 -0.236653 0
M  V30 5970 C 573.604 -1.24339 -1.49176 0
M  V30 5971 O 572.879 -0.334496 -1.91602 0
M  V30 5972 C 573.162 -3.56059 -0.537982 0
M  V30 5973 C 573.015 -4.43835 0.730112 0
M  V30 5974 C 574.334 -4.19127 -1.34239 0
M  V30 5975 H 571.453 -0.732135 -0.0845386 0
M  V30 5976 H 574.095 -1.83854 0.479341 0
M  V30 5977 H 572.245 -3.71153 -1.14795 0
M  V30 5978 H 573.917 -4.40555 1.36782 0
M  V30 5979 H 572.16 -4.1218 1.3524 0
M  V30 5980 H 572.831 -5.49958 0.474358 0
M  V30 5981 H 575.307 -4.07809 -0.826498 0
M  V30 5982 H 574.183 -5.27378 -1.52198 0
M  V30 5983 H 574.444 -3.74581 -2.34822 0
M  V30 5984 N 573.503 -0.0852151 -1.57369 0
M  V30 5985 C 574.749 0.581666 -1.94279 0
M  V30 5986 C 575.082 1.68444 -0.966446 0
M  V30 5987 O 574.357 1.945 0.00215277 0
M  V30 5988 C 574.64 1.14609 -3.41375 0
M  V30 5989 C 574.493 0.0490414 -4.49773 0
M  V30 5990 C 575.812 2.04751 -3.8957 0
M  V30 5991 H 572.931 0.209972 -0.706456 0
M  V30 5992 H 575.573 -0.153915 -1.89376 0
M  V30 5993 H 573.723 1.77297 -3.45685 0
M  V30 5994 H 575.395 -0.584721 -4.57579 0
M  V30 5995 H 573.638 -0.618638 -4.29366 0
M  V30 5996 H 574.309 0.484601 -5.49869 0
M  V30 5997 H 576.785 1.51981 -3.87351 0
M  V30 5998 H 575.661 2.41173 -4.93079 0
M  V30 5999 H 575.922 2.96107 -3.28288 0
M  V30 6000 N 574.981 1.5647 0.188427 0
M  V30 6001 C 575.944 1.9421 1.21718 0
M  V30 6002 C 576.944 0.823901 1.38089 0
M  V30 6003 O 578.134 1.09122 1.35787 0
M  V30 6004 C 575.266 2.22197 2.58537 0
M  V30 6005 H 576.459 2.86252 0.894418 0
M  V30 6006 H 574.012 1.50263 0.430211 0
M  V30 6007 H 574.747 1.32814 2.95856 0
M  V30 6008 H 574.532 3.03688 2.48025 0
M  V30 6009 H 576.022 2.52376 3.3271 0
M  V30 6010 N 576.459 -0.456382 1.50847 0
M  V30 6011 C 577.705 -1.20914 1.62811 0
M  V30 6012 C 578.038 -1.91301 0.334304 0
M  V30 6013 O 577.313 -1.82775 -0.665098 0
M  V30 6014 C 577.596 -2.24122 2.81853 0
M  V30 6015 C 577.449 -1.57944 4.21158 0
M  V30 6016 C 578.768 -3.25295 2.96431 0
M  V30 6017 H 575.887 -0.438233 0.592554 0
M  V30 6018 H 578.529 -0.50091 1.83278 0
M  V30 6019 H 576.679 -2.84524 2.64534 0
M  V30 6020 H 578.351 -1.01025 4.50102 0
M  V30 6021 H 576.594 -0.882185 4.24735 0
M  V30 6022 H 577.265 -2.33014 5.00408 0
M  V30 6023 H 579.741 -2.7493 3.12335 0
M  V30 6024 H 578.617 -3.94822 3.81322 0
M  V30 6025 H 578.878 -3.90286 2.07676 0
M  V30 6026 N 577.937 -1.40673 -0.710563 0
M  V30 6027 C 579.167 -1.4234 -1.49742 0
M  V30 6028 C 579.575 -0.022821 -1.89186 0
M  V30 6029 O 578.918 0.964773 -1.56326 0
M  V30 6030 C 578.98 -2.25509 -2.79975 0
M  V30 6031 C 578.644 -3.73862 -2.62824 0
M  V30 6032 C 579.641 -4.66379 -2.29752 0
M  V30 6033 C 577.326 -4.17735 -2.78932 0
M  V30 6034 C 579.32 -6.00756 -2.13006 0
M  V30 6035 C 577.007 -5.5218 -2.61802 0
M  V30 6036 C 578.005 -6.43505 -2.28888 0
M  V30 6037 O 577.693 -7.75472 -2.11894 0
M  V30 6038 H 577.425 -0.487311 -0.468513 0
M  V30 6039 H 579.979 -1.8542 -0.883668 0
M  V30 6040 H 578.209 -1.77218 -3.43701 0
M  V30 6041 H 579.898 -2.19058 -3.41714 0
M  V30 6042 H 580.664 -4.33778 -2.16936 0
M  V30 6043 H 576.543 -3.46967 -3.03537 0
M  V30 6044 H 580.087 -6.72003 -1.87237 0
M  V30 6045 H 575.984 -5.84365 -2.74204 0
M  V30 6046 H 576.752 -7.86458 -2.26775 0
M  V30 6047 N 579.415 0.9433 -1.26252 0
M  V30 6048 C 580.345 2.05902 -1.10122 0
M  V30 6049 C 581.326 1.70099 -0.00700552 0
M  V30 6050 O 582.511 1.93377 -0.178641 0
M  V30 6051 C 579.641 3.39516 -0.731175 0
M  V30 6052 C 578.595 3.89372 -1.77688 0
M  V30 6053 C 577.921 5.19613 -1.26122 0
M  V30 6054 C 579.221 4.14489 -3.17799 0
M  V30 6055 H 580.915 2.19655 -2.03451 0
M  V30 6056 H 578.461 1.05548 -0.979576 0
M  V30 6057 H 580.414 4.17031 -0.605215 0
M  V30 6058 H 579.138 3.25733 0.23782 0
M  V30 6059 H 577.797 3.14036 -1.89148 0
M  V30 6060 H 577.445 5.02208 -0.282128 0
M  V30 6061 H 577.145 5.53939 -1.96023 0
M  V30 6062 H 578.669 5.99713 -1.14789 0
M  V30 6063 H 580.083 4.82625 -3.09428 0
M  V30 6064 H 578.48 4.60094 -3.85271 0
M  V30 6065 H 579.55 3.20347 -3.64014 0
M  V30 6066 N 580.893 1.08022 1.14757 0
M  V30 6067 C 582.118 0.82895 1.90114 0
M  V30 6068 C 582.543 -0.612772 1.77839 0
M  V30 6069 O 581.901 -1.42895 1.11583 0
M  V30 6070 C 581.949 1.25062 3.38219 0
M  V30 6071 O 581.053 0.400119 4.10454 0
M  V30 6072 H 580.394 0.301412 0.591648 0
M  V30 6073 H 582.924 1.44062 1.45284 0
M  V30 6074 H 582.934 1.22977 3.89025 0
M  V30 6075 H 581.609 2.30067 3.46471 0
M  V30 6076 H 580.186 0.484052 3.69745 0
M  V30 6077 N 582.371 -1.3172 0.865308 0
M  V30 6078 C 583.596 -2.01591 0.487415 0
M  V30 6079 C 584.021 -1.6455 -0.911307 0
M  V30 6080 O 583.379 -0.851689 -1.6005 0
M  V30 6081 C 583.427 -3.54759 0.646401 0
M  V30 6082 O 582.531 -4.11185 -0.316284 0
M  V30 6083 H 581.872 -0.634884 0.194468 0
M  V30 6084 H 584.402 -1.68024 1.16744 0
M  V30 6085 H 584.412 -4.04438 0.537932 0
M  V30 6086 H 583.087 -3.8106 1.66632 0
M  V30 6087 H 581.664 -3.72543 -0.163162 0
M  V30 6088 N 583.85 -0.624285 -1.44708 0
M  V30 6089 C 585.096 -0.126051 -2.02107 0
M  V30 6090 C 585.425 1.2496 -1.49048 0
M  V30 6091 O 584.68 1.84163 -0.662005 0
M  V30 6092 C 584.979 -0.0546353 -3.57358 0
M  V30 6093 C 584.644 -1.36815 -4.29642 0
M  V30 6094 C 583.307 -1.72792 -4.49106 0
M  V30 6095 C 585.659 -2.23549 -4.70824 0
M  V30 6096 C 582.986 -2.95222 -5.07012 0
M  V30 6097 C 585.339 -3.45243 -5.30085 0
M  V30 6098 C 584.003 -3.81452 -5.47769 0
M  V30 6099 H 583.273 -0.0461252 -0.739563 0
M  V30 6100 H 585.92 -0.809236 -1.73562 0
M  V30 6101 H 584.225 0.711891 -3.85278 0
M  V30 6102 H 585.922 0.347282 -3.99493 0
M  V30 6103 H 582.512 -1.07817 -4.14817 0
M  V30 6104 H 586.696 -1.9705 -4.55505 0
M  V30 6105 H 581.952 -3.23361 -5.18891 0
M  V30 6106 H 586.125 -4.12689 -5.60946 0
M  V30 6107 H 583.753 -4.76403 -5.92405 0
M  V30 6108 N 585.328 1.53329 -0.364422 0
M  V30 6109 C 586.556 2.05657 0.226424 0
M  V30 6110 C 586.971 1.23801 1.42544 0
M  V30 6111 O 586.328 0.27839 1.80364 0
M  V30 6112 C 586.379 3.56125 0.621056 0
M  V30 6113 O 586.1 4.34879 -0.530304 0
M  V30 6114 C 587.601 4.24706 1.27041 0
M  V30 6115 H 584.821 0.669806 0.0400056 0
M  V30 6116 H 587.365 1.97714 -0.522456 0
M  V30 6117 H 585.52 3.64223 1.31985 0
M  V30 6118 H 585.934 5.24073 -0.211546 0
M  V30 6119 H 587.408 5.3131 1.49711 0
M  V30 6120 H 587.885 3.78354 2.23036 0
M  V30 6121 H 588.491 4.20858 0.613079 0
M  V30 6122 N 586.806 0.0935595 1.57322 0
M  V30 6123 C 588.217 -0.435807 1.81542 0
M  V30 6124 C 588.568 -1.68263 1.00907 0
M  V30 6125 O 587.693 -2.15087 0.237983 0
M  V30 6126 C 588.288 -0.797436 3.29282 0
M  V30 6127 C 586.847 -1.27155 3.54272 0
M  V30 6128 C 585.994 -0.267455 2.76007 0
M  V30 6129 H 588.945 0.31902 1.5546 0
M  V30 6130 H 588.966 -1.6571 3.42521 0
M  V30 6131 H 588.478 0.110206 3.87943 0
M  V30 6132 H 586.579 -2.19696 3.00939 0
M  V30 6133 H 586.692 -1.23445 4.62923 0
M  V30 6134 H 585.056 -0.749282 2.43429 0
M  V30 6135 H 585.839 0.632839 3.37417 0
M  V30 6136 N 588.284 -1.56567 -0.180126 0
M  V30 6137 C 589.214 -1.98753 -1.22553 0
M  V30 6138 C 590.195 -0.86175 -1.46656 0
M  V30 6139 O 591.38 -1.12719 -1.58139 0
M  V30 6140 C 588.51 -2.33988 -2.56645 0
M  V30 6141 C 587.464 -3.49445 -2.47128 0
M  V30 6142 C 586.79 -3.70397 -3.8563 0
M  V30 6143 C 588.09 -4.83171 -1.98352 0
M  V30 6144 H 589.784 -2.86332 -0.874896 0
M  V30 6145 H 587.33 -1.37757 -0.419414 0
M  V30 6146 H 589.283 -2.62097 -3.29974 0
M  V30 6147 H 588.007 -1.43309 -2.93479 0
M  V30 6148 H 586.666 -3.2145 -1.76254 0
M  V30 6149 H 586.314 -2.77023 -4.19842 0
M  V30 6150 H 586.014 -4.48077 -3.80132 0
M  V30 6151 H 587.538 -4.00897 -4.60558 0
M  V30 6152 H 588.952 -5.10213 -2.61449 0
M  V30 6153 H 587.349 -5.64425 -2.03823 0
M  V30 6154 H 588.419 -4.75753 -0.937402 0
M  V30 6155 N 589.762 0.448376 -1.51087 0
M  V30 6156 C 590.695 1.56298 -1.66272 0
M  V30 6157 C 591.673 1.54381 -0.510419 0
M  V30 6158 O 592.857 1.73671 -0.732854 0
M  V30 6159 C 589.984 2.94883 -1.66618 0
M  V30 6160 C 589.03 3.14868 -2.87681 0
M  V30 6161 S 589.863 2.9234 -4.48662 0
M  V30 6162 C 591.019 4.33227 -4.51735 0
M  V30 6163 H 591.252 1.43182 -2.6055 0
M  V30 6164 H 588.785 0.637309 -1.40633 0
M  V30 6165 H 590.743 3.74771 -1.67502 0
M  V30 6166 H 589.404 3.05371 -0.735358 0
M  V30 6167 H 588.597 4.16166 -2.84292 0
M  V30 6168 H 588.199 2.42788 -2.84482 0
M  V30 6169 H 590.491 5.26247 -4.26697 0
M  V30 6170 H 591.434 4.41653 -5.53487 0
M  V30 6171 H 591.842 4.16367 -3.81181 0
M  V30 6172 N 591.24 1.41047 0.703093 0
M  V30 6173 C 592.19 1.38774 1.80903 0
M  V30 6174 C 593.174 0.263275 1.58731 0
M  V30 6175 O 594.366 0.503362 1.69692 0
M  V30 6176 C 591.495 1.26497 3.19145 0
M  V30 6177 C 590.581 2.43775 3.47037 0
M  V30 6178 N 590.972 3.69249 3.45672 0
M  V30 6179 C 589.27 2.37425 3.77552 0
M  V30 6180 C 589.971 4.46989 3.72258 0
M  V30 6181 N 588.947 3.76998 3.91629 0
M  V30 6182 H 592.749 2.33714 1.78199 0
M  V30 6183 H 590.263 1.34996 0.902762 0
M  V30 6184 H 592.26 1.2295 3.98358 0
M  V30 6185 H 590.92 0.32534 3.23066 0
M  V30 6186 H 591.931 4.02239 3.26228 0
M  V30 6187 H 588.608 1.51895 3.88888 0
M  V30 6188 H 589.998 5.55894 3.77402 0
M  V30 6189 N 592.718 -0.936591 1.26751 0
M  V30 6190 C 593.666 -2.0573 1.08527 0
M  V30 6191 C 594.66 -1.69397 0.0108784 0
M  V30 6192 O 595.866 -1.79215 0.167915 0
M  V30 6193 H 592.241 -0.673691 0.334133 0
M  V30 6194 H 594.212 -2.1825 2.03493 0
M  V30 6195 C 592.961 -3.39738 0.739845 0
M  V30 6196 H 592.284 -3.68174 1.55845 0
M  V30 6197 H 593.724 -4.18955 0.652149 0
M  V30 6198 C 592.183 -3.32292 -0.555288 0
M  V30 6199 O 592.713 -3.68794 -1.59229 0
M  V30 6200 N 590.919 -2.85394 -0.54762 0
M  V30 6201 H 590.466 -2.55886 0.296667 0
M  V30 6202 H 590.424 -2.80795 -1.41427 0
M  V30 6203 N 594.196 -1.08629 -1.14182 0
M  V30 6204 C 595.445 -0.812271 -1.84621 0
M  V30 6205 C 595.758 0.664313 -1.83973 0
M  V30 6206 O 596.964 1.05357 -2.50224 0
M  V30 6207 C 595.42 -1.4031 -3.31423 0
M  V30 6208 C 595.028 -2.91164 -3.40481 0
M  V30 6209 C 596.772 -1.20767 -4.06959 0
M  V30 6210 C 594.679 -3.43373 -4.81507 0
M  V30 6211 H 593.609 -0.30019 -0.691666 0
M  V30 6212 H 596.26 -1.30798 -1.28701 0
M  V30 6213 H 594.642 -0.835096 -3.87094 0
M  V30 6214 H 595.816 -3.5412 -2.94848 0
M  V30 6215 H 594.131 -3.09646 -2.78403 0
M  V30 6216 H 596.728 -1.57237 -5.11058 0
M  V30 6217 H 597.071 -0.147664 -4.16038 0
M  V30 6218 H 597.604 -1.74274 -3.57594 0
M  V30 6219 H 594.343 -4.48958 -4.77616 0
M  V30 6220 H 593.863 -2.85176 -5.27669 0
M  V30 6221 H 595.542 -3.40095 -5.50404 0
M  V30 6222 N 595.674 1.31259 -0.872281 0
M  V30 6223 C 596.899 2.0133 -0.498099 0
M  V30 6224 C 597.324 1.65031 0.902568 0
M  V30 6225 O 596.682 0.860164 1.59596 0
M  V30 6226 C 596.73 3.54411 -0.665205 0
M  V30 6227 O 595.834 4.11347 0.294473 0
M  V30 6228 H 595.175 0.633844 -0.197832 0
M  V30 6229 H 597.705 1.67402 -1.17633 0
M  V30 6230 H 597.715 4.04147 -0.559373 0
M  V30 6231 H 596.39 3.80171 -1.68651 0
M  V30 6232 H 594.967 3.72624 0.143403 0
M  V30 6233 N 597.152 0.631951 1.44375 0
M  V30 6234 C 598.4 0.136497 2.01639 0
M  V30 6235 C 598.721 -1.24637 1.49969 0
M  V30 6236 O 597.991 -1.82827 0.70363 0
M  V30 6237 H 596.571 0.0474703 0.74549 0
M  V30 6238 H 599.233 0.818837 1.76865 0
M  V30 6239 H 598.329 0.104817 3.11924 0
M  V30 6240 N 598.631 -1.53133 0.372548 0
M  V30 6241 C 599.856 -2.0625 -0.218098 0
M  V30 6242 C 600.281 -1.24375 -1.41111 0
M  V30 6243 O 599.639 -0.264554 -1.79359 0
M  V30 6244 C 599.687 -3.55858 -0.582876 0
M  V30 6245 O 598.791 -3.76667 -1.67917 0
M  V30 6246 H 598.132 -0.663317 -0.030104 0
M  V30 6247 H 600.662 -1.97477 0.535169 0
M  V30 6248 H 600.672 -3.99007 -0.851925 0
M  V30 6249 H 599.347 -4.14892 0.289428 0
M  V30 6250 H 597.924 -3.45413 -1.40513 0
M  V30 6251 N 600.109 -0.101901 -1.5727 0
M  V30 6252 C 601.056 0.854577 -2.14396 0
M  V30 6253 C 602.026 1.27521 -1.06432 0
M  V30 6254 O 603.211 1.35575 -1.34253 0
M  V30 6255 C 600.351 2.10576 -2.73408 0
M  V30 6256 C 599.464 1.73504 -3.95626 0
M  V30 6257 C 598.599 2.9346 -4.42781 0
M  V30 6258 C 597.638 2.52547 -5.57572 0
M  V30 6259 N 596.775 3.65359 -5.99547 0
M  V30 6260 H 601.615 0.360578 -2.9581 0
M  V30 6261 H 599.152 0.166303 -1.46157 0
M  V30 6262 H 601.11 2.83859 -3.05745 0
M  V30 6263 H 599.74 2.57463 -1.94711 0
M  V30 6264 H 598.792 0.901622 -3.6956 0
M  V30 6265 H 600.104 1.39426 -4.78917 0
M  V30 6266 H 599.258 3.74988 -4.76937 0
M  V30 6267 H 597.997 3.30753 -3.58404 0
M  V30 6268 H 597.002 1.69446 -5.23037 0
M  V30 6269 H 598.227 2.1639 -6.43702 0
M  V30 6270 H 596.173 4.02358 -5.18116 0
M  V30 6271 H 596.09 3.35148 -6.77652 0
M  V30 6272 H 597.358 4.47378 -6.38336 0
M  V30 6273 N 601.587 1.56661 0.17182 0
M  V30 6274 C 602.817 1.85831 0.902804 0
M  V30 6275 C 603.225 0.685157 1.76358 0
M  V30 6276 O 602.568 -0.354947 1.80238 0
M  V30 6277 C 602.63 3.09406 1.83053 0
M  V30 6278 C 602.294 4.4231 1.1494 0
M  V30 6279 C 603.291 5.17342 0.515104 0
M  V30 6280 C 600.976 4.89045 1.14631 0
M  V30 6281 C 602.97 6.37299 -0.113194 0
M  V30 6282 C 600.657 6.08933 0.514184 0
M  V30 6283 C 601.655 6.82904 -0.114463 0
M  V30 6284 O 601.343 8.00518 -0.736622 0
M  V30 6285 H 601.075 0.620715 0.267748 0
M  V30 6286 H 603.629 2.04637 0.176918 0
M  V30 6287 H 601.859 2.86544 2.59672 0
M  V30 6288 H 603.548 3.25027 2.4313 0
M  V30 6289 H 604.314 4.82317 0.509474 0
M  V30 6290 H 600.193 4.31409 1.62502 0
M  V30 6291 H 603.737 6.94976 -0.604477 0
M  V30 6292 H 599.634 6.43423 0.517395 0
M  V30 6293 H 600.402 8.16027 -0.635822 0
M  V30 6294 N 603.065 -0.440357 1.51323 0
M  V30 6295 C 604.012 -1.53429 1.72419 0
M  V30 6296 C 604.982 -1.56165 0.565826 0
M  V30 6297 O 606.167 -1.73222 0.799917 0
M  V30 6298 C 603.307 -2.91169 1.85242 0
M  V30 6299 C 602.42 -2.97985 3.12777 0
M  V30 6300 C 601.555 -4.26829 3.16212 0
M  V30 6301 C 600.594 -4.27501 4.38074 0
M  V30 6302 N 599.731 -5.47866 4.39076 0
M  V30 6303 H 604.571 -1.34743 2.65797 0
M  V30 6304 H 602.108 -0.654608 1.31732 0
M  V30 6305 H 604.066 -3.71087 1.90658 0
M  V30 6306 H 602.696 -3.0842 0.952744 0
M  V30 6307 H 601.748 -2.10749 3.16685 0
M  V30 6308 H 603.06 -2.94342 4.02696 0
M  V30 6309 H 602.214 -5.15118 3.20527 0
M  V30 6310 H 600.953 -4.33124 2.24176 0
M  V30 6311 H 599.958 -3.37606 4.33938 0
M  V30 6312 H 601.183 -4.22873 5.31371 0
M  V30 6313 H 599.129 -5.54887 3.49909 0
M  V30 6314 H 599.046 -5.46091 5.22801 0
M  V30 6315 H 600.314 -6.38195 4.4758 0
M  V30 6316 N 604.543 -1.41418 -0.695603 0
M  V30 6317 C 605.771 -1.4413 -1.48439 0
M  V30 6318 C 606.186 -0.0465698 -1.88743 0
M  V30 6319 O 605.543 0.934117 -1.56782 0
M  V30 6320 C 605.594 -2.34998 -2.74696 0
M  V30 6321 O 605.315 -3.69043 -2.36091 0
M  V30 6322 C 606.816 -2.46513 -3.68438 0
M  V30 6323 H 604.036 -0.490905 -0.457442 0
M  V30 6324 H 606.58 -1.85702 -0.856454 0
M  V30 6325 H 604.735 -1.96735 -3.33728 0
M  V30 6326 H 605.149 -4.17505 -3.17474 0
M  V30 6327 H 606.623 -3.1426 -4.53811 0
M  V30 6328 H 607.1 -1.49638 -4.12922 0
M  V30 6329 H 607.706 -2.85412 -3.1531 0
M  V30 6330 N 606.021 0.929856 -1.27246 0
M  V30 6331 C 607.268 1.67731 -1.13457 0
M  V30 6332 C 607.596 1.9185 0.319998 0
M  V30 6333 O 606.851 1.50524 1.25064 0
M  V30 6334 C 607.15 3.05116 -1.86115 0
M  V30 6335 C 606.816 3.00715 -3.35978 0
M  V30 6336 C 605.478 2.99222 -3.76855 0
M  V30 6337 C 607.83 2.92168 -4.3161 0
M  V30 6338 C 605.158 2.86962 -5.11732 0
M  V30 6339 C 607.51 2.81449 -5.66542 0
M  V30 6340 C 606.174 2.78305 -6.06715 0
M  V30 6341 H 605.444 0.613772 -0.415168 0
M  V30 6342 H 608.091 1.08456 -1.57827 0
M  V30 6343 H 606.396 3.68083 -1.34246 0
M  V30 6344 H 608.093 3.61822 -1.72876 0
M  V30 6345 H 604.683 3.02664 -3.03468 0
M  V30 6346 H 608.867 2.92421 -4.01003 0
M  V30 6347 H 604.123 2.82913 -5.42006 0
M  V30 6348 H 608.297 2.738 -6.40317 0
M  V30 6349 H 605.924 2.68561 -7.11181 0
M  V30 6350 N 607.499 1.09233 1.13605 0
M  V30 6351 C 608.745 0.828385 1.8511 0
M  V30 6352 C 609.078 -0.64437 1.83198 0
M  V30 6353 O 608.353 -1.47428 1.26867 0
M  V30 6354 C 608.636 1.36167 3.33363 0
M  V30 6355 C 608.489 2.90038 3.438 0
M  V30 6356 C 609.808 0.993819 4.28732 0
M  V30 6357 H 606.927 0.30239 0.672108 0
M  V30 6358 H 609.569 1.35339 1.33355 0
M  V30 6359 H 607.719 0.9151 3.77569 0
M  V30 6360 H 609.391 3.43128 3.08319 0
M  V30 6361 H 607.634 3.27271 2.84739 0
M  V30 6362 H 608.305 3.22428 4.48045 0
M  V30 6363 H 610.781 1.37893 3.92587 0
M  V30 6364 H 609.657 1.39403 5.30903 0
M  V30 6365 H 609.918 -0.0982206 4.41991 0
M  V30 6366 N 608.977 -1.30795 0.87923 0
M  V30 6367 C 609.94 -2.26563 0.346676 0
M  V30 6368 C 610.94 -1.52578 -0.507597 0
M  V30 6369 O 612.13 -1.71318 -0.315575 0
M  V30 6370 C 609.262 -3.37115 -0.506611 0
M  V30 6371 H 610.455 -2.75183 1.19223 0
M  V30 6372 H 608.008 -1.41886 0.655598 0
M  V30 6373 H 608.743 -2.93802 -1.37299 0
M  V30 6374 H 608.528 -3.91959 0.105218 0
M  V30 6375 H 610.018 -4.08412 -0.871192 0
M  V30 6376 N 610.455 -0.639598 -1.44038 0
M  V30 6377 C 611.402 0.0602458 -2.30721 0
M  V30 6378 C 612.372 0.828352 -1.43971 0
M  V30 6379 O 613.557 0.807693 -1.72861 0
M  V30 6380 C 610.697 1.03008 -3.29368 0
M  V30 6381 C 609.81 0.259502 -4.3122 0
M  V30 6382 C 608.945 1.22191 -5.16955 0
M  V30 6383 C 607.984 0.440978 -6.10509 0
M  V30 6384 N 607.121 1.35428 -6.88915 0
M  V30 6385 H 611.961 -0.684867 -2.90023 0
M  V30 6386 H 609.498 -0.349509 -1.42888 0
M  V30 6387 H 611.456 1.60583 -3.85057 0
M  V30 6388 H 610.086 1.74222 -2.71747 0
M  V30 6389 H 609.138 -0.432317 -3.77935 0
M  V30 6390 H 610.45 -0.348347 -4.97582 0
M  V30 6391 H 609.604 1.86873 -5.77203 0
M  V30 6392 H 608.343 1.86367 -4.50687 0
M  V30 6393 H 607.348 -0.219279 -5.49363 0
M  V30 6394 H 608.573 -0.196192 -6.78817 0
M  V30 6395 H 606.519 1.9831 -6.25307 0
M  V30 6396 H 606.436 0.800657 -7.51748 0
M  V30 6397 H 607.704 1.98967 -7.53679 0
M  V30 6398 N 611.933 1.52934 -0.380664 0
M  V30 6399 C 613.182 2.00651 0.205477 0
M  V30 6400 C 613.495 1.27164 1.48623 0
M  V30 6401 O 614.701 1.65547 2.15189 0
M  V30 6402 C 613.157 3.57479 0.416726 0
M  V30 6403 C 612.765 4.39857 -0.850268 0
M  V30 6404 C 614.509 4.13509 0.959702 0
M  V30 6405 C 612.416 5.88269 -0.607773 0
M  V30 6406 H 611.346 0.749684 0.0805614 0
M  V30 6407 H 613.997 1.76508 -0.501732 0
M  V30 6408 H 612.379 3.77836 1.18557 0
M  V30 6409 H 613.553 4.31269 -1.62307 0
M  V30 6410 H 611.868 3.95005 -1.31756 0
M  V30 6411 H 614.465 5.22039 1.15669 0
M  V30 6412 H 614.808 3.69054 1.92626 0
M  V30 6413 H 615.341 3.9701 0.250645 0
M  V30 6414 H 612.08 6.3703 -1.54509 0
M  V30 6415 H 611.6 5.99667 0.126247 0
M  V30 6416 H 613.279 6.46558 -0.239014 0
M  V30 6417 N 613.412 0.11024 1.57214 0
M  V30 6418 C 614.661 -0.549638 1.94067 0
M  V30 6419 C 614.974 -1.68388 0.995234 0
M  V30 6420 O 616.18 -2.40593 1.25807 0
M  V30 6421 C 614.636 -1.02912 3.44873 0
M  V30 6422 C 614.244 0.0761861 4.47935 0
M  V30 6423 C 615.988 -1.66087 3.9066 0
M  V30 6424 C 613.895 -0.419502 5.8991 0
M  V30 6425 H 612.825 -0.209092 0.724428 0
M  V30 6426 H 615.476 0.188683 1.82527 0
M  V30 6427 H 613.858 -1.82159 3.51616 0
M  V30 6428 H 615.032 0.852185 4.52851 0
M  V30 6429 H 613.347 0.614052 4.11847 0
M  V30 6430 H 615.944 -2.04272 4.94143 0
M  V30 6431 H 616.287 -2.53591 3.30148 0
M  V30 6432 H 616.82 -0.933959 3.86681 0
M  V30 6433 H 613.559 0.419277 6.54158 0
M  V30 6434 H 613.079 -1.16217 5.88433 0
M  V30 6435 H 614.758 -0.883577 6.40938 0
M  V30 6436 N 614.89 -1.56749 -0.16351 0
M  V30 6437 C 616.118 -1.86577 -0.894233 0
M  V30 6438 C 616.533 -0.696543 -1.75481 0
M  V30 6439 O 615.89 0.334161 -1.79415 0
M  V30 6440 C 615.941 -3.15508 -1.76456 0
M  V30 6441 O 615.662 -4.27926 -0.938685 0
M  V30 6442 C 617.163 -3.58737 -2.60428 0
M  V30 6443 H 614.383 -0.618829 -0.259405 0
M  V30 6444 H 616.927 -2.03863 -0.161259 0
M  V30 6445 H 615.082 -3.00025 -2.45079 0
M  V30 6446 H 615.496 -5.01546 -1.53465 0
M  V30 6447 H 616.97 -4.51832 -3.17099 0
M  V30 6448 H 617.447 -2.83229 -3.35675 0
M  V30 6449 H 618.053 -3.76858 -1.97125 0
M  V30 6450 N 616.368 0.432326 -1.51554 0
M  V30 6451 C 617.316 1.54572 -1.73811 0
M  V30 6452 C 618.31 1.58246 -0.604539 0
M  V30 6453 O 619.516 1.6193 -0.786041 0
M  V30 6454 H 615.891 0.513626 -0.549265 0
M  V30 6455 H 617.862 1.32977 -2.67132 0
M  V30 6456 C 616.611 2.92181 -1.88483 0
M  V30 6457 H 615.934 2.90088 -2.75116 0
M  V30 6458 H 617.374 3.69439 -2.08065 0
M  V30 6459 C 615.833 3.3065 -0.645909 0
M  V30 6460 O 616.363 4.01216 0.197093 0
M  V30 6461 N 614.569 2.86464 -0.488538 0
M  V30 6462 H 614.116 2.29209 -1.17562 0
M  V30 6463 H 614.074 3.12565 0.339156 0
M  V30 6464 N 617.846 1.41785 0.688094 0
M  V30 6465 C 618.796 1.40684 1.79421 0
M  V30 6466 C 619.78 0.280096 1.58443 0
M  V30 6467 O 620.972 0.521332 1.69148 0
M  V30 6468 C 618.101 1.29874 3.17785 0
M  V30 6469 C 617.187 2.47442 3.44432 0
M  V30 6470 N 617.578 3.72895 3.41736 0
M  V30 6471 C 615.876 2.41416 3.75013 0
M  V30 6472 C 616.577 4.50912 3.67496 0
M  V30 6473 N 615.553 3.81131 3.87608 0
M  V30 6474 H 619.355 2.35591 1.7571 0
M  V30 6475 H 616.869 1.35946 0.888393 0
M  V30 6476 H 618.866 1.27168 3.97031 0
M  V30 6477 H 617.526 0.359587 3.22703 0
M  V30 6478 H 618.537 4.05676 3.21943 0
M  V30 6479 H 615.214 1.56011 3.87256 0
M  V30 6480 H 616.604 5.59865 3.71484 0
M  V30 6481 N 619.324 -0.923095 1.27737 0
M  V30 6482 C 620.549 -1.71054 1.17283 0
M  V30 6483 C 620.974 -1.86208 -0.266153 0
M  V30 6484 O 620.332 -1.36545 -1.1927 0
M  V30 6485 C 620.38 -3.0854 1.86642 0
M  V30 6486 O 619.484 -3.95528 1.16752 0
M  V30 6487 H 618.825 -0.524136 0.407649 0
M  V30 6488 H 621.355 -1.15487 1.6889 0
M  V30 6489 H 621.365 -3.58828 1.94182 0
M  V30 6490 H 620.04 -2.96828 2.91317 0
M  V30 6491 H 618.617 -3.53967 1.17312 0
M  V30 6492 N 620.802 -1.09834 -1.13024 0
M  V30 6493 C 622.079 -0.749225 -1.80682 0
M  V30 6494 C 622.459 0.765171 -1.96744 0
M  V30 6495 O 621.807 1.68912 -1.53886 0
M  V30 6496 C 622.017 -1.49311 -3.15448 0
M  V30 6497 C 623.365 -1.66162 -3.90737 0
M  V30 6498 O 624.389 -1.45597 -3.25085 0
M  V30 6499 O 623.248 -2.00211 -5.08505 0
M  V30 6500 H 620.342 -0.269614 -0.781817 0
M  V30 6501 H 622.888 -1.20078 -1.19914 0
M  V30 6502 H 621.66 -2.52407 -2.99009 0
M  V30 6503 H 621.283 -1.034 -3.8392 0
M  V30 6504 N 622.28 1.30327 -0.886154 0
M  V30 6505 C 623.528 1.9571 -0.504195 0
M  V30 6506 C 623.849 1.70294 0.950003 0
M  V30 6507 O 623.119 1.02718 1.66811 0
M  V30 6508 H 621.699 0.72412 -0.183465 0
M  V30 6509 H 624.361 1.58835 -1.12949 0
M  V30 6510 H 623.457 3.04704 -0.675431 0
M  V30 6511 N 623.758 0.647228 1.43697 0
M  V30 6512 C 624.986 0.16575 2.06235 0
M  V30 6513 C 625.401 -1.1662 1.48476 0
M  V30 6514 O 624.758 -1.7187 0.613762 0
M  V30 6515 C 624.809 0.0621651 3.61447 0
M  V30 6516 O 624.53 1.34146 4.17057 0
M  V30 6517 C 626.031 -0.446102 4.4105 0
M  V30 6518 H 623.251 0.0871158 0.665321 0
M  V30 6519 H 625.795 0.886183 1.84301 0
M  V30 6520 H 623.95 -0.608794 3.82587 0
M  V30 6521 H 624.364 1.19675 5.10664 0
M  V30 6522 H 625.838 -0.46755 5.50016 0
M  V30 6523 H 626.315 -1.47627 4.13646 0
M  V30 6524 H 626.921 0.192159 4.24866 0
M  V30 6525 N 625.236 -1.5273 0.388769 0
M  V30 6526 C 626.482 -2.01871 -0.193877 0
M  V30 6527 C 626.815 -1.27475 -1.46505 0
M  V30 6528 O 626.09 -0.375063 -1.90849 0
M  V30 6529 C 626.373 -3.5712 -0.462336 0
M  V30 6530 C 626.226 -4.42186 0.824091 0
M  V30 6531 C 627.545 -4.21881 -1.25319 0
M  V30 6532 H 624.664 -0.733764 -0.0689899 0
M  V30 6533 H 627.306 -1.82796 0.518231 0
M  V30 6534 H 625.456 -3.73504 -1.06896 0
M  V30 6535 H 627.128 -4.37554 1.46096 0
M  V30 6536 H 625.371 -4.09219 1.43952 0
M  V30 6537 H 626.042 -5.48828 0.590905 0
M  V30 6538 H 628.518 -4.0947 -0.73981 0
M  V30 6539 H 627.394 -5.30487 -1.40977 0
M  V30 6540 H 627.655 -3.79478 -2.26824 0
M  V30 6541 N 626.714 -0.118576 -1.57153 0
M  V30 6542 C 627.644 0.828436 -2.1831 0
M  V30 6543 C 628.625 1.27758 -1.12303 0
M  V30 6544 O 629.81 1.34026 -1.40537 0
M  V30 6545 C 626.94 2.07876 -2.78217 0
M  V30 6546 C 625.894 1.76742 -3.89803 0
M  V30 6547 C 625.22 3.08801 -4.36516 0
M  V30 6548 C 626.52 1.03606 -5.11921 0
M  V30 6549 H 628.214 0.318824 -2.97698 0
M  V30 6550 H 625.76 0.151911 -1.43196 0
M  V30 6551 H 627.713 2.74584 -3.19659 0
M  V30 6552 H 626.437 2.61161 -1.96118 0
M  V30 6553 H 625.096 1.12424 -3.48936 0
M  V30 6554 H 624.744 3.6002 -3.51276 0
M  V30 6555 H 624.444 2.88743 -5.11763 0
M  V30 6556 H 625.968 3.76627 -4.80608 0
M  V30 6557 H 627.382 1.60467 -5.50385 0
M  V30 6558 H 625.779 0.936454 -5.92748 0
M  V30 6559 H 626.849 0.0227421 -4.84895 0
M  V30 6560 N 628.193 1.56834 0.155195 0
M  V30 6561 C 629.441 1.82536 0.867462 0
M  V30 6562 C 629.762 0.698168 1.82073 0
M  V30 6563 O 629.032 -0.280807 1.93877 0
M  V30 6564 H 627.612 0.673401 0.323327 0
M  V30 6565 H 630.274 1.94313 0.151156 0
M  V30 6566 H 629.37 2.77171 1.43466 0
M  V30 6567 N 629.671 -0.424282 1.51781 0
M  V30 6568 C 630.917 -1.17434 1.6534 0
M  V30 6569 C 631.25 -1.90549 0.374806 0
M  V30 6570 O 630.525 -1.84145 -0.626179 0
M  V30 6571 C 630.808 -2.18093 2.86544 0
M  V30 6572 C 630.661 -1.48975 4.24413 0
M  V30 6573 C 631.98 -3.18934 3.03264 0
M  V30 6574 H 629.099 -0.425566 0.601716 0
M  V30 6575 H 631.741 -0.461921 1.84299 0
M  V30 6576 H 629.891 -2.78849 2.7051 0
M  V30 6577 H 631.563 -0.914551 4.52143 0
M  V30 6578 H 629.806 -0.791893 4.26511 0
M  V30 6579 H 630.477 -2.22347 5.05238 0
M  V30 6580 H 632.953 -2.68243 3.18096 0
M  V30 6581 H 631.829 -3.86645 3.89611 0
M  V30 6582 H 632.09 -3.85793 2.15908 0
M  V30 6583 N 631.149 -1.42148 -0.680565 0
M  V30 6584 C 632.099 -1.41634 -1.78672 0
M  V30 6585 C 633.083 -0.288494 -1.58293 0
M  V30 6586 O 634.275 -0.530295 -1.68869 0
M  V30 6587 C 631.404 -1.31558 -3.17092 0
M  V30 6588 C 630.49 -2.49265 -3.43115 0
M  V30 6589 N 630.881 -3.74702 -3.39753 0
M  V30 6590 C 629.179 -2.43401 -3.73727 0
M  V30 6591 C 629.88 -4.52854 -3.651 0
M  V30 6592 N 628.856 -3.83181 -3.85582 0
M  V30 6593 H 632.658 -2.3652 -1.74458 0
M  V30 6594 H 630.172 -1.36415 -0.881171 0
M  V30 6595 H 632.169 -1.29272 -3.96351 0
M  V30 6596 H 630.829 -0.376696 -3.22508 0
M  V30 6597 H 631.84 -4.07378 -3.19787 0
M  V30 6598 H 628.517 -1.58062 -3.86423 0
M  V30 6599 H 629.907 -5.61827 -3.6851 0
M  V30 6600 N 632.627 0.916307 -1.28225 0
M  V30 6601 C 633.557 2.0352 -1.14464 0
M  V30 6602 C 634.538 1.70045 -0.0430844 0
M  V30 6603 O 635.723 1.92954 -0.219619 0
M  V30 6604 C 632.853 3.37889 -0.803027 0
M  V30 6605 C 631.807 3.85516 -1.85908 0
M  V30 6606 C 631.133 5.1682 -1.37116 0
M  V30 6607 C 632.433 4.07655 -3.26519 0
M  V30 6608 H 634.127 2.1529 -2.08064 0
M  V30 6609 H 631.673 1.03446 -1.00174 0
M  V30 6610 H 633.626 4.15654 -0.693537 0
M  V30 6611 H 632.35 3.26164 0.168674 0
M  V30 6612 H 631.009 3.09953 -1.95767 0
M  V30 6613 H 630.657 5.01497 -0.38859 0
M  V30 6614 H 630.357 5.49657 -2.07728 0
M  V30 6615 H 631.881 5.97143 -1.27484 0
M  V30 6616 H 633.295 4.75953 -3.19596 0
M  V30 6617 H 631.692 4.51818 -3.94943 0
M  V30 6618 H 632.762 3.12553 -3.70727 0
M  V30 6619 N 634.105 1.10431 1.1244 0
M  V30 6620 C 635.035 0.775143 2.20258 0
M  V30 6621 C 636.016 -0.25186 1.68225 0
M  V30 6622 O 637.201 -0.117637 1.93843 0
M  V30 6623 C 634.331 0.206133 3.46688 0
M  V30 6624 C 633.285 1.16382 4.11873 0
M  V30 6625 C 632.611 0.456014 5.32752 0
M  V30 6626 C 633.911 2.5104 4.58013 0
M  V30 6627 H 635.605 1.67665 2.4805 0
M  V30 6628 H 633.151 0.807595 1.19222 0
M  V30 6629 H 635.104 -0.036291 4.21384 0
M  V30 6630 H 633.828 -0.730614 3.18323 0
M  V30 6631 H 632.487 1.39169 3.39157 0
M  V30 6632 H 632.135 -0.485203 5.00654 0
M  V30 6633 H 631.835 1.09466 5.77314 0
M  V30 6634 H 633.359 0.222135 6.10196 0
M  V30 6635 H 634.773 2.32401 5.24083 0
M  V30 6636 H 633.17 3.10789 5.13352 0
M  V30 6637 H 634.24 3.11039 3.71998 0
M  V30 6638 N 635.583 -1.29855 0.893053 0
M  V30 6639 C 636.831 -1.9544 0.514566 0
M  V30 6640 C 637.152 -1.70795 -0.940959 0
M  V30 6641 O 636.422 -1.03601 -1.66264 0
M  V30 6642 H 635.002 -0.723137 0.187302 0
M  V30 6643 H 637.664 -1.58234 1.13789 0
M  V30 6644 H 636.76 -3.04341 0.691581 0
M  V30 6645 N 637.061 -0.65484 -1.43351 0
M  V30 6646 C 638.338 -0.0987371 -1.95351 0
M  V30 6647 C 638.718 1.38161 -1.59608 0
M  V30 6648 O 638.066 2.10791 -0.882021 0
M  V30 6649 C 638.276 -0.346684 -3.47274 0
M  V30 6650 C 639.624 -0.25249 -4.23849 0
M  V30 6651 O 640.648 -0.279332 -3.55103 0
M  V30 6652 O 639.507 -0.177584 -5.46211 0
M  V30 6653 H 636.601 0.0086829 -0.826954 0
M  V30 6654 H 639.147 -0.728189 -1.53282 0
M  V30 6655 H 637.919 -1.37296 -3.66423 0
M  V30 6656 H 637.542 0.315757 -3.96344 0
M  V30 6657 N 638.539 1.52521 -0.396863 0
M  V30 6658 C 639.487 2.28217 0.44943 0
M  V30 6659 C 640.481 1.32416 1.05652 0
M  V30 6660 O 641.687 1.49925 0.996124 0
M  V30 6661 H 638.062 0.733966 0.1637 0
M  V30 6662 H 640.033 2.97658 -0.210367 0
M  V30 6663 C 638.782 3.10713 1.56054 0
M  V30 6664 H 638.105 3.84291 1.10273 0
M  V30 6665 H 639.545 3.66803 2.12677 0
M  V30 6666 C 638.004 2.23499 2.52091 0
M  V30 6667 O 638.534 1.8669 3.55682 0
M  V30 6668 N 636.74 1.8751 2.2201 0
M  V30 6669 H 636.287 2.17643 1.37802 0
M  V30 6670 H 636.245 1.29448 2.86514 0
M  V30 6671 N 640.017 0.126909 1.57088 0
M  V30 6672 C 640.98 -0.806097 2.14557 0
M  V30 6673 C 641.98 -1.18918 1.08236 0
M  V30 6674 O 643.17 -1.11339 1.33975 0
M  V30 6675 C 640.302 -2.09116 2.69227 0
M  V30 6676 H 641.495 -0.306522 2.98329 0
M  V30 6677 H 639.048 -0.122393 1.5582 0
M  V30 6678 H 639.783 -2.63486 1.89065 0
M  V30 6679 H 639.568 -1.82588 3.46993 0
M  V30 6680 H 641.058 -2.75794 3.13572 0
M  V30 6681 N 641.495 -1.56914 -0.146875 0
M  V30 6682 C 642.906 -1.72799 -0.706928 0
M  V30 6683 C 643.257 -0.741329 -1.81656 0
M  V30 6684 O 642.382 0.0920162 -2.16204 0
M  V30 6685 C 642.977 -3.13317 -1.28911 0
M  V30 6686 C 641.536 -3.30803 -1.79573 0
M  V30 6687 C 640.683 -2.68725 -0.684252 0
M  V30 6688 H 643.634 -1.58504 0.0787931 0
M  V30 6689 H 643.655 -3.13323 -2.15891 0
M  V30 6690 H 643.167 -3.85104 -0.481284 0
M  V30 6691 H 641.268 -2.64012 -2.62923 0
M  V30 6692 H 641.381 -4.38754 -1.92436 0
M  V30 6693 H 639.745 -2.29196 -1.11091 0
M  V30 6694 H 640.528 -3.43117 0.112134 0
M  V30 6695 N 642.974 0.416227 -1.52004 0
M  V30 6696 C 643.884 1.53147 -1.77717 0
M  V30 6697 C 644.9 1.609 -0.662368 0
M  V30 6698 O 646.076 1.77747 -0.946991 0
M  V30 6699 C 643.141 2.88948 -1.91598 0
M  V30 6700 C 642.202 2.9114 -3.15493 0
M  V30 6701 C 641.435 4.20464 -3.28703 0
M  V30 6702 O 641.658 5.13981 -2.47345 0
M  V30 6703 O 640.592 4.29368 -4.21813 0
M  V30 6704 H 644.418 1.34357 -2.72363 0
M  V30 6705 H 642.003 0.601373 -1.36762 0
M  V30 6706 H 643.885 3.69505 -2.02593 0
M  V30 6707 H 642.56 3.07821 -1.00141 0
M  V30 6708 H 641.467 2.09461 -3.09962 0
M  V30 6709 H 642.8 2.77216 -4.06709 0
M  V30 6710 N 644.452 1.42507 0.673017 0
M  V30 6711 C 645.701 1.42364 1.42883 0
M  V30 6712 C 646.014 0.0441598 1.9555 0
M  V30 6713 O 647.22 -0.0798679 2.71382 0
M  V30 6714 C 645.676 2.5043 2.58482 0
M  V30 6715 C 645.284 3.94392 2.12506 0
M  V30 6716 C 647.028 2.59455 3.35981 0
M  V30 6717 C 644.935 4.93964 3.25198 0
M  V30 6718 H 643.865 0.52951 0.536782 0
M  V30 6719 H 646.516 1.68422 0.728448 0
M  V30 6720 H 644.898 2.1754 3.30896 0
M  V30 6721 H 646.072 4.36645 1.47233 0
M  V30 6722 H 644.387 3.89233 1.4794 0
M  V30 6723 H 646.984 3.31025 4.19912 0
M  V30 6724 H 647.327 1.63869 3.82691 0
M  V30 6725 H 647.86 2.91549 2.70637 0
M  V30 6726 H 644.599 5.91034 2.83477 0
M  V30 6727 H 644.119 4.56341 3.89247 0
M  V30 6728 H 645.798 5.15763 3.90637 0
M  V30 6729 N 645.93 -0.909495 1.28709 0
M  V30 6730 C 647.179 -1.65365 1.15487 0
M  V30 6731 C 647.492 -1.93364 -0.294941 0
M  V30 6732 O 648.698 -2.65905 -0.548338 0
M  V30 6733 C 647.154 -2.97923 2.01916 0
M  V30 6734 C 646.762 -2.77556 3.51663 0
M  V30 6735 C 648.506 -3.75814 1.97393 0
M  V30 6736 C 646.413 -4.0578 4.30229 0
M  V30 6737 H 645.343 -0.620323 0.42862 0
M  V30 6738 H 647.994 -1.00894 1.53273 0
M  V30 6739 H 646.376 -3.63552 1.5699 0
M  V30 6740 H 647.55 -2.2058 4.04575 0
M  V30 6741 H 645.865 -2.13072 3.57756 0
M  V30 6742 H 648.462 -4.70866 2.53357 0
M  V30 6743 H 648.805 -4.05277 0.951643 0
M  V30 6744 H 649.338 -3.1701 2.40311 0
M  V30 6745 H 646.077 -3.81488 5.33055 0
M  V30 6746 H 645.597 -4.62351 3.82089 0
M  V30 6747 H 647.276 -4.74004 4.40374 0
M  V30 6748 N 647.408 -1.11026 -1.11852 0
M  V30 6749 C 648.34 -0.72249 -2.17515 0
M  V30 6750 C 649.353 0.243782 -1.60964 0
M  V30 6751 O 650.542 0.0273252 -1.78479 0
M  V30 6752 C 647.642 -0.0463979 -3.38868 0
M  V30 6753 C 646.815 -1.0384 -4.24895 0
M  V30 6754 C 645.874 -0.392659 -5.24733 0
M  V30 6755 O 644.9 -1.0453 -5.5952 0
M  V30 6756 N 646.102 0.846296 -5.74298 0
M  V30 6757 H 648.867 -1.63161 -2.51393 0
M  V30 6758 H 646.428 -0.999899 -1.27333 0
M  V30 6759 H 648.42 0.397215 -4.02746 0
M  V30 6760 H 646.99 0.765231 -3.03089 0
M  V30 6761 H 646.21 -1.6601 -3.57539 0
M  V30 6762 H 647.498 -1.70968 -4.79215 0
M  V30 6763 H 646.896 1.39578 -5.4821 0
M  V30 6764 H 645.453 1.23296 -6.40032 0
M  V30 6765 N 648.886 1.2938 -0.899927 0
M  V30 6766 C 650.134 1.95164 -0.524924 0
M  V30 6767 C 650.455 1.71292 0.931888 0
M  V30 6768 O 649.725 1.04481 1.65712 0
M  V30 6769 H 648.305 0.722133 -0.191135 0
M  V30 6770 H 650.967 1.57628 -1.14627 0
M  V30 6771 H 650.063 3.0397 -0.707711 0
M  V30 6772 N 650.364 0.662433 1.43002 0
M  V30 6773 C 651.61 0.179857 2.02001 0
M  V30 6774 C 651.943 -1.20625 1.52195 0
M  V30 6775 O 651.218 -1.80726 0.718911 0
M  V30 6776 C 651.501 0.200845 3.59539 0
M  V30 6777 C 651.354 1.62153 4.19555 0
M  V30 6778 C 652.673 -0.457738 4.37713 0
M  V30 6779 H 649.792 0.0668305 0.733964 0
M  V30 6780 H 652.434 0.84487 1.70182 0
M  V30 6781 H 650.584 -0.365411 3.86778 0
M  V30 6782 H 652.256 2.23908 4.03315 0
M  V30 6783 H 650.499 2.16601 3.75854 0
M  V30 6784 H 651.17 1.58799 5.28665 0
M  V30 6785 H 653.646 0.0241495 4.16093 0
M  V30 6786 H 652.522 -0.412363 5.47349 0
M  V30 6787 H 652.783 -1.53336 4.14657 0
M  V30 6788 N 651.842 -1.52309 0.404946 0
M  V30 6789 C 653.09 -2.01368 -0.17186 0
M  V30 6790 C 653.411 -1.29261 -1.46002 0
M  V30 6791 O 652.681 -0.41729 -1.91404 0
M  V30 6792 H 651.261 -0.744034 -0.0664993 0
M  V30 6793 H 653.923 -1.87263 0.540228 0
M  V30 6794 H 653.019 -3.09888 -0.370957 0
M  V30 6795 N 653.32 -0.135238 -1.57019 0
M  V30 6796 C 654.569 0.518694 -1.94917 0
M  V30 6797 C 654.882 1.66783 -1.0219 0
M  V30 6798 O 656.088 2.38561 -1.29619 0
M  V30 6799 C 654.544 0.974123 -3.46466 0
M  V30 6800 C 654.152 -0.147439 -4.47757 0
M  V30 6801 C 655.896 1.59851 -3.93253 0
M  V30 6802 C 653.803 0.325599 -5.90503 0
M  V30 6803 H 652.733 0.19754 -0.727663 0
M  V30 6804 H 655.384 -0.217698 -1.82204 0
M  V30 6805 H 653.766 1.76542 -3.5447 0
M  V30 6806 H 654.94 -0.924122 -4.51438 0
M  V30 6807 H 653.255 -0.679496 -4.10818 0
M  V30 6808 H 655.852 1.96385 -4.9733 0
M  V30 6809 H 656.195 2.48306 -3.3414 0
M  V30 6810 H 656.728 0.872323 -3.88118 0
M  V30 6811 H 653.467 -0.523295 -6.53408 0
M  V30 6812 H 652.987 1.06841 -5.90208 0
M  V30 6813 H 654.666 0.781498 -6.42263 0
M  V30 6814 N 654.798 1.5699 0.138552 0
M  V30 6815 C 656.038 1.85619 0.855849 0
M  V30 6816 C 656.402 0.720663 1.77962 0
M  V30 6817 O 657.603 0.888221 2.53701 0
M  V30 6818 C 655.874 3.19447 1.60275 0
M  V30 6819 S 657.433 3.69656 2.36431 0
M  V30 6820 H 654.251 0.650926 0.286035 0
M  V30 6821 H 656.853 1.9516 0.115331 0
M  V30 6822 H 655.557 4.00053 0.915737 0
M  V30 6823 H 655.088 3.12935 2.38402 0
M  V30 6824 H 657.103 3.39595 3.61787 0
M  V30 6825 N 656.276 -0.40816 1.52223 0
M  V30 6826 C 657.206 -1.5042 1.78595 0
M  V30 6827 C 658.187 -1.57723 0.636974 0
M  V30 6828 O 659.372 -1.72982 0.882664 0
M  V30 6829 C 656.502 -2.88232 1.93751 0
M  V30 6830 C 655.456 -2.95779 3.09352 0
M  V30 6831 C 654.782 -4.35855 3.09732 0
M  V30 6832 C 656.082 -2.67175 4.48793 0
M  V30 6833 H 657.776 -1.28601 2.70374 0
M  V30 6834 H 655.322 -0.617221 1.30101 0
M  V30 6835 H 657.275 -3.64895 2.10783 0
M  V30 6836 H 655.999 -3.11347 0.986443 0
M  V30 6837 H 654.658 -2.21561 2.92072 0
M  V30 6838 H 654.306 -4.55981 2.12346 0
M  V30 6839 H 654.006 -4.41829 3.87377 0
M  V30 6840 H 655.53 -5.14451 3.28895 0
M  V30 6841 H 656.944 -3.3356 4.66273 0
M  V30 6842 H 655.341 -2.84523 5.28362 0
M  V30 6843 H 656.411 -1.62609 4.56822 0
M  V30 6844 N 657.755 -1.42862 -0.66545 0
M  V30 6845 C 658.702 -1.4707 -1.77874 0
M  V30 6846 C 659.672 -0.321654 -1.62956 0
M  V30 6847 O 660.857 -0.52707 -1.83376 0
M  V30 6848 C 657.997 -1.38788 -3.15962 0
M  V30 6849 C 657.11 -2.63801 -3.42101 0
M  V30 6850 C 656.245 -2.47594 -4.69969 0
M  V30 6851 C 655.284 -3.67936 -4.89172 0
M  V30 6852 N 654.421 -3.50614 -6.08288 0
M  V30 6853 H 659.261 -2.42204 -1.73613 0
M  V30 6854 H 656.798 -1.20239 -0.847401 0
M  V30 6855 H 658.756 -1.31982 -3.95773 0
M  V30 6856 H 657.386 -0.472431 -3.19324 0
M  V30 6857 H 656.438 -2.80935 -2.56475 0
M  V30 6858 H 657.75 -3.53228 -3.52181 0
M  V30 6859 H 656.904 -2.38427 -5.57886 0
M  V30 6860 H 655.643 -1.55672 -4.62188 0
M  V30 6861 H 654.648 -3.77525 -3.99694 0
M  V30 6862 H 655.873 -4.60851 -4.98792 0
M  V30 6863 H 653.819 -2.61417 -6.01662 0
M  V30 6864 H 653.736 -4.33634 -6.19272 0
M  V30 6865 H 655.004 -3.45276 -6.98859 0
M  V30 6866 N 659.233 0.902656 -1.29189 0
M  V30 6867 C 660.163 2.02294 -1.16616 0
M  V30 6868 C 661.144 1.6999 -0.0611175 0
M  V30 6869 O 662.329 1.9271 -0.240072 0
M  V30 6870 C 659.459 3.37018 -0.83882 0
M  V30 6871 C 658.413 3.83522 -1.89986 0
M  V30 6872 C 657.739 5.15337 -1.42589 0
M  V30 6873 C 659.039 4.04169 -3.30824 0
M  V30 6874 H 660.733 2.13071 -2.10336 0
M  V30 6875 H 658.279 1.02378 -1.01266 0
M  V30 6876 H 660.232 4.14895 -0.737584 0
M  V30 6877 H 658.956 3.26325 0.134071 0
M  V30 6878 H 657.615 3.07859 -1.99043 0
M  V30 6879 H 657.263 5.01056 -0.441759 0
M  V30 6880 H 656.963 5.47423 -2.13547 0
M  V30 6881 H 658.487 5.95758 -1.3381 0
M  V30 6882 H 659.901 4.72537 -3.24626 0
M  V30 6883 H 658.298 4.47604 -3.99713 0
M  V30 6884 H 659.368 3.08604 -3.74021 0
M  V30 6885 N 660.711 1.11618 1.11262 0
M  V30 6886 C 661.659 0.771291 2.1944 0
M  V30 6887 C 662.653 -0.238073 1.67719 0
M  V30 6888 O 663.859 -0.0971628 1.79738 0
M  V30 6889 H 660.234 0.231548 0.715465 0
M  V30 6890 H 662.205 1.69226 2.45775 0
M  V30 6891 C 660.954 0.232765 3.4692 0
M  V30 6892 H 660.277 1.00072 3.87073 0
M  V30 6893 H 661.717 0.0296561 4.2399 0
M  V30 6894 C 660.176 -1.03738 3.20531 0
M  V30 6895 O 660.706 -2.11675 3.41404 0
M  V30 6896 N 658.912 -0.960906 2.74253 0
M  V30 6897 H 658.459 -0.0824323 2.57468 0
M  V30 6898 H 658.417 -1.8114 2.56974 0
M  V30 6899 N 662.189 -1.289 0.906776 0
M  V30 6900 C 663.152 -2.25777 0.394656 0
M  V30 6901 C 664.152 -1.53621 -0.475119 0
M  V30 6902 O 665.342 -1.71949 -0.279165 0
M  V30 6903 C 662.474 -3.38113 -0.43499 0
M  V30 6904 H 663.667 -2.72592 1.25033 0
M  V30 6905 H 661.22 -1.40463 0.685547 0
M  V30 6906 H 661.955 -2.96648 -1.31036 0
M  V30 6907 H 661.74 -3.91647 0.188334 0
M  V30 6908 H 663.23 -4.10168 -0.784365 0
M  V30 6909 N 663.667 -0.670007 -1.42649 0
M  V30 6910 C 664.614 0.0112928 -2.30797 0
M  V30 6911 C 665.584 0.797627 -1.45695 0
M  V30 6912 O 666.769 0.770845 -1.74535 0
M  V30 6913 C 663.909 0.95998 -3.31479 0
M  V30 6914 C 663.022 0.167975 -4.31673 0
M  V30 6915 C 662.157 1.11198 -5.19431 0
M  V30 6916 C 661.196 0.311381 -6.11307 0
M  V30 6917 N 660.333 1.20784 -6.91633 0
M  V30 6918 H 665.173 -0.746231 -2.88505 0
M  V30 6919 H 662.71 -0.379739 -1.42114 0
M  V30 6920 H 664.668 1.52379 -3.88377 0
M  V30 6921 H 663.298 1.68419 -2.75382 0
M  V30 6922 H 662.35 -0.512385 -3.76933 0
M  V30 6923 H 663.662 -0.453814 -4.96731 0
M  V30 6924 H 662.816 1.74587 -5.81037 0
M  V30 6925 H 661.555 1.76766 -4.54538 0
M  V30 6926 H 660.56 -0.335758 -5.48774 0
M  V30 6927 H 661.785 -0.340135 -6.78248 0
M  V30 6928 H 659.731 1.85001 -6.29373 0
M  V30 6929 H 659.648 0.64102 -7.53277 0
M  V30 6930 H 660.916 1.82936 -7.5773 0
M  V30 6931 N 665.145 1.52092 -0.413018 0
M  V30 6932 C 666.394 2.01041 0.16287 0
M  V30 6933 C 666.707 1.30288 1.45892 0
M  V30 6934 O 667.913 1.70075 2.11629 0
M  V30 6935 C 666.369 3.58283 0.340806 0
M  V30 6936 C 665.977 4.37955 -0.943377 0
M  V30 6937 C 667.721 4.15452 0.871774 0
M  V30 6938 C 665.628 5.86847 -0.732417 0
M  V30 6939 H 664.558 0.751224 0.0646414 0
M  V30 6940 H 667.209 1.75404 -0.539059 0
M  V30 6941 H 665.591 3.80266 1.10516 0
M  V30 6942 H 666.765 4.2773 -1.71418 0
M  V30 6943 H 665.08 3.92122 -1.40105 0
M  V30 6944 H 667.677 5.24375 1.0457 0
M  V30 6945 H 668.02 3.73057 1.84755 0
M  V30 6946 H 668.553 3.97452 0.166377 0
M  V30 6947 H 665.292 6.33609 -1.67986 0
M  V30 6948 H 664.812 5.998 -0.000980058 0
M  V30 6949 H 666.491 6.45906 -0.376105 0
M  V30 6950 N 666.623 0.143563 1.56945 0
M  V30 6951 C 667.848 -0.518701 2.00809 0
M  V30 6952 C 668.273 -1.5785 1.02298 0
M  V30 6953 O 667.631 -1.813 -0.0017839 0
M  V30 6954 C 667.679 -1.09929 3.43436 0
M  V30 6955 O 666.783 -2.21425 3.47915 0
M  V30 6956 H 666.124 -0.127215 0.6517 0
M  V30 6957 H 668.654 0.239283 2.03196 0
M  V30 6958 H 668.664 -1.4288 3.82164 0
M  V30 6959 H 667.339 -0.323162 4.14643 0
M  V30 6960 H 665.916 -1.89728 3.21026 0
M  V30 6961 N 668.101 -1.57061 -0.130224 0
M  V30 6962 C 669.378 -1.75205 -0.869631 0
M  V30 6963 C 669.758 -0.716063 -1.98584 0
M  V30 6964 O 669.106 0.262032 -2.26993 0
M  V30 6965 C 669.316 -3.19835 -1.39666 0
M  V30 6966 C 670.664 -3.82011 -1.85345 0
M  V30 6967 O 671.688 -3.23368 -1.49371 0
M  V30 6968 O 670.547 -4.85064 -2.51744 0
M  V30 6969 H 667.641 -0.716977 -0.412157 0
M  V30 6970 H 670.187 -1.69311 -0.11484 0
M  V30 6971 H 668.959 -3.86745 -0.595288 0
M  V30 6972 H 668.582 -3.30222 -2.21448 0
M  V30 6973 N 669.579 0.400081 -1.52437 0
M  V30 6974 C 670.826 1.14619 -1.6694 0
M  V30 6975 C 671.154 1.90262 -0.403797 0
M  V30 6976 O 670.409 1.85835 0.61351 0
M  V30 6977 C 670.708 2.15914 -2.84808 0
M  V30 6978 C 670.374 1.57011 -4.2268 0
M  V30 6979 C 669.036 1.40672 -4.60179 0
M  V30 6980 C 671.388 1.14081 -5.08562 0
M  V30 6981 C 668.716 0.799335 -5.81229 0
M  V30 6982 C 671.068 0.547573 -6.30226 0
M  V30 6983 C 669.732 0.371389 -6.66466 0
M  V30 6984 H 669.002 0.419419 -0.610875 0
M  V30 6985 H 671.649 0.432227 -1.86558 0
M  V30 6986 H 669.954 2.93488 -2.59561 0
M  V30 6987 H 671.651 2.73533 -2.93225 0
M  V30 6988 H 668.241 1.70713 -3.93135 0
M  V30 6989 H 672.425 1.2551 -4.80168 0
M  V30 6990 H 667.681 0.65093 -6.07925 0
M  V30 6991 H 671.855 0.206575 -6.96094 0
M  V30 6992 H 669.482 -0.10135 -7.60132 0
M  V30 6993 N 671.057 1.43213 0.657864 0
M  V30 6994 C 672.287 1.478 1.44356 0
M  V30 6995 C 672.695 0.0930206 1.88971 0
M  V30 6996 O 672.038 -0.906089 1.59799 0
M  V30 6997 C 672.1 2.35745 2.71412 0
M  V30 6998 C 671.764 3.83359 2.48767 0
M  V30 6999 C 672.761 4.74585 2.12285 0
M  V30 7000 C 670.446 4.27799 2.63235 0
M  V30 7001 C 672.44 6.08247 1.90562 0
M  V30 7002 C 670.127 5.61516 2.41128 0
M  V30 7003 C 671.125 6.51557 2.04847 0
M  V30 7004 O 670.813 7.82802 1.82967 0
M  V30 7005 H 670.545 0.504363 0.450104 0
M  V30 7006 H 673.099 1.88572 0.814241 0
M  V30 7007 H 671.329 1.89852 3.36887 0
M  V30 7008 H 673.018 2.31589 3.33348 0
M  V30 7009 H 673.784 4.41531 2.00687 0
M  V30 7010 H 669.663 3.57993 2.90451 0
M  V30 7011 H 673.207 6.78489 1.62168 0
M  V30 7012 H 669.104 5.94139 2.52327 0
M  V30 7013 H 669.872 7.94332 1.97429 0
M  V30 7014 N 672.536 -0.895792 1.29666 0
M  V30 7015 C 673.484 -2.02173 1.15017 0
M  V30 7016 C 674.478 -1.69276 0.0647651 0
M  V30 7017 O 675.684 -1.7859 0.224846 0
M  V30 7018 H 672.059 -0.662719 0.355397 0
M  V30 7019 H 674.03 -2.11666 2.10334 0
M  V30 7020 C 672.779 -3.37212 0.847555 0
M  V30 7021 H 672.102 -3.6303 1.67479 0
M  V30 7022 H 673.542 -4.16668 0.785106 0
M  V30 7023 C 672.001 -3.33891 -0.44929 0
M  V30 7024 O 672.531 -3.73673 -1.47415 0
M  V30 7025 N 670.737 -2.86991 -0.456547 0
M  V30 7026 H 670.284 -2.54813 0.377925 0
M  V30 7027 H 670.242 -2.85152 -1.32423 0
M  V30 7028 N 674.014 -1.12206 -1.10668 0
M  V30 7029 C 675.242 -0.898635 -1.86366 0
M  V30 7030 C 675.657 0.551991 -1.80551 0
M  V30 7031 O 675.014 1.38152 -1.19249 0
M  V30 7032 C 675.065 -1.36199 -3.34861 0
M  V30 7033 O 674.786 -2.75576 -3.40573 0
M  V30 7034 C 676.287 -1.17515 -4.2744 0
M  V30 7035 H 673.507 -0.321281 -0.589084 0
M  V30 7036 H 676.051 -1.49142 -1.39918 0
M  V30 7037 H 674.206 -0.81249 -3.78784 0
M  V30 7038 H 674.62 -2.95851 -4.33096 0
M  V30 7039 H 676.094 -1.54827 -5.29842 0
M  V30 7040 H 676.571 -0.115486 -4.39048 0
M  V30 7041 H 677.177 -1.71203 -3.89319 0
M  V30 7042 N 675.492 1.28418 -0.913599 0
M  V30 7043 C 676.741 1.94265 -0.542572 0
M  V30 7044 C 677.054 1.72709 0.918207 0
M  V30 7045 O 678.26 2.32778 1.39738 0
M  V30 7046 C 676.716 3.47956 -0.919507 0
M  V30 7047 C 676.324 3.78291 -2.4 0
M  V30 7048 C 678.068 4.19962 -0.619057 0
M  V30 7049 C 675.975 5.2529 -2.71707 0
M  V30 7050 H 674.905 0.727213 -0.199192 0
M  V30 7051 H 677.556 1.45931 -1.11249 0
M  V30 7052 H 675.938 3.9502 -0.278372 0
M  V30 7053 H 677.112 3.42035 -3.08786 0
M  V30 7054 H 675.427 3.19456 -2.67089 0
M  V30 7055 H 678.024 5.28178 -0.832623 0
M  V30 7056 H 678.367 4.13935 0.443126 0
M  V30 7057 H 678.9 3.78674 -1.21865 0
M  V30 7058 H 675.639 5.36394 -3.76778 0
M  V30 7059 H 675.159 5.62743 -2.07559 0
M  V30 7060 H 676.838 5.93027 -2.58703 0
M  V30 7061 N 676.97 0.677563 1.42291 0
M  V30 7062 C 678.218 0.200578 2.01102 0
M  V30 7063 C 678.539 -1.19803 1.53858 0
M  V30 7064 O 677.809 -1.80496 0.761439 0
M  V30 7065 H 676.389 0.0711634 0.743603 0
M  V30 7066 H 679.051 0.874691 1.7417 0
M  V30 7067 H 678.147 0.204 3.11433 0
M  V30 7068 N 678.448 -1.51871 0.421078 0
M  V30 7069 C 679.694 -2.02237 -0.151014 0
M  V30 7070 C 680.027 -1.30554 -1.43768 0
M  V30 7071 O 679.302 -0.41546 -1.90011 0
M  V30 7072 C 679.585 -3.5802 -0.386482 0
M  V30 7073 C 679.438 -4.40339 0.9177 0
M  V30 7074 C 680.757 -4.24444 -1.16342 0
M  V30 7075 H 677.876 -0.735062 -0.0534102 0
M  V30 7076 H 680.518 -1.81656 0.556888 0
M  V30 7077 H 678.668 -3.75688 -0.989494 0
M  V30 7078 H 680.34 -4.34357 1.55344 0
M  V30 7079 H 678.583 -4.06073 1.526 0
M  V30 7080 H 679.254 -5.47451 0.707187 0
M  V30 7081 H 681.73 -4.10948 -0.652788 0
M  V30 7082 H 680.606 -5.33358 -1.29693 0
M  V30 7083 H 680.867 -3.84204 -2.18724 0
M  V30 7084 N 679.926 -0.151884 -1.56866 0
M  V30 7085 C 680.876 0.797799 -2.13586 0
M  V30 7086 C 681.86 1.20613 -1.06496 0
M  V30 7087 O 683.052 1.17173 -1.32663 0
M  V30 7088 C 680.181 2.03493 -2.76488 0
M  V30 7089 C 679.267 1.64948 -3.90708 0
M  V30 7090 N 679.658 0.972513 -4.96363 0
M  V30 7091 C 677.956 1.94186 -4.01507 0
M  V30 7092 C 678.657 0.785661 -5.7637 0
M  V30 7093 N 677.633 1.32105 -5.27304 0
M  V30 7094 H 681.435 0.271403 -2.92644 0
M  V30 7095 H 678.949 0.049487 -1.62325 0
M  V30 7096 H 680.946 2.72532 -3.15487 0
M  V30 7097 H 679.606 2.56646 -1.98904 0
M  V30 7098 H 680.617 0.632724 -5.1402 0
M  V30 7099 H 677.294 2.49154 -3.35005 0
M  V30 7100 H 678.684 0.251749 -6.71428 0
M  V30 7101 N 681.404 1.57128 0.121893 0
M  V30 7102 C 682.815 1.73902 0.679348 0
M  V30 7103 C 683.166 0.770135 1.80453 0
M  V30 7104 O 682.291 -0.0576083 2.16323 0
M  V30 7105 C 682.886 3.15328 1.2391 0
M  V30 7106 C 681.445 3.33618 1.74288 0
M  V30 7107 C 680.592 2.6978 0.641414 0
M  V30 7108 H 683.543 1.58359 -0.104 0
M  V30 7109 H 683.564 3.16718 2.10879 0
M  V30 7110 H 683.076 3.85821 0.419957 0
M  V30 7111 H 681.177 2.68162 2.58689 0
M  V30 7112 H 681.29 4.4176 1.85432 0
M  V30 7113 H 679.654 2.30935 1.0743 0
M  V30 7114 H 680.437 3.42895 -0.166707 0
M  V30 7115 N 682.882 -0.391992 1.52647 0
M  V30 7116 C 684.11 -1.1586 1.71418 0
M  V30 7117 C 684.525 -1.8381 0.431216 0
M  V30 7118 O 683.882 -1.7256 -0.594085 0
M  V30 7119 C 683.933 -2.20888 2.86165 0
M  V30 7120 O 683.654 -1.5571 4.09495 0
M  V30 7121 C 685.155 -3.103 3.1659 0
M  V30 7122 H 682.375 -0.347494 0.574011 0
M  V30 7123 H 684.919 -0.458972 1.99283 0
M  V30 7124 H 683.074 -2.86492 2.6077 0
M  V30 7125 H 683.488 -2.25474 4.73563 0
M  V30 7126 H 684.962 -3.8003 4.00351 0
M  V30 7127 H 685.439 -3.73639 2.30848 0
M  V30 7128 H 686.045 -2.50345 3.43813 0
M  V30 7129 N 684.36 -1.4356 -0.65026 0
M  V30 7130 C 685.585 -1.48995 -1.44275 0
M  V30 7131 C 686.01 -0.109954 -1.87778 0
M  V30 7132 O 685.368 0.896926 -1.57559 0
M  V30 7133 C 685.416 -2.44341 -2.65198 0
M  V30 7134 O 684.52 -1.93172 -3.6436 0
M  V30 7135 H 683.861 -0.503852 -0.432469 0
M  V30 7136 H 686.391 -1.88504 -0.795446 0
M  V30 7137 H 686.401 -2.61743 -3.12977 0
M  V30 7138 H 685.076 -3.44588 -2.32877 0
M  V30 7139 H 683.653 -1.85445 -3.23519 0
M  V30 7140 N 685.838 0.888903 -1.30139 0
M  V30 7141 C 686.801 1.97576 -1.16174 0
M  V30 7142 C 687.801 1.60525 -0.094086 0
M  V30 7143 O 688.991 1.70812 -0.341889 0
M  V30 7144 C 686.123 3.3188 -0.778983 0
M  V30 7145 H 687.316 2.11393 -2.12728 0
M  V30 7146 H 684.869 1.0748 -1.1348 0
M  V30 7147 H 685.604 3.23765 0.186225 0
M  V30 7148 H 685.389 3.60141 -1.55051 0
M  V30 7149 H 686.879 4.11612 -0.704631 0
M  V30 7150 N 687.317 1.12792 1.10072 0
M  V30 7151 C 688.227 0.812369 2.20086 0
M  V30 7152 C 689.243 -0.200349 1.72843 0
M  V30 7153 O 690.419 -0.0330262 2.01373 0
M  V30 7154 C 687.484 0.275685 3.45602 0
M  V30 7155 C 686.545 1.34881 4.07561 0
M  V30 7156 C 685.778 0.837639 5.27086 0
M  V30 7157 O 686.001 -0.327224 5.69461 0
M  V30 7158 O 684.935 1.60894 5.79997 0
M  V30 7159 H 688.761 1.73133 2.49517 0
M  V30 7160 H 686.346 0.904863 1.18881 0
M  V30 7161 H 688.228 -0.0185375 4.21396 0
M  V30 7162 H 686.903 -0.615783 3.17789 0
M  V30 7163 H 685.81 1.69625 3.33434 0
M  V30 7164 H 687.143 2.21418 4.39585 0
M  V30 7165 N 688.795 -1.27931 0.920396 0
M  V30 7166 C 689.705 -2.30824 0.419212 0
M  V30 7167 C 690.721 -1.66767 -0.496461 0
M  V30 7168 O 691.897 -1.97763 -0.38104 0
M  V30 7169 C 688.962 -3.45158 -0.326601 0
M  V30 7170 C 688.023 -4.24754 0.623098 0
M  V30 7171 C 687.256 -5.33629 -0.0872172 0
M  V30 7172 O 687.479 -5.55204 -1.30784 0
M  V30 7173 O 686.413 -5.99091 0.580875 0
M  V30 7174 H 690.239 -2.75716 1.27337 0
M  V30 7175 H 687.824 -1.32747 0.685465 0
M  V30 7176 H 689.706 -4.14716 -0.747559 0
M  V30 7177 H 688.381 -3.02336 -1.15648 0
M  V30 7178 H 687.288 -3.57759 1.09359 0
M  V30 7179 H 688.621 -4.71272 1.41998 0
M  V30 7180 N 690.273 -0.685099 -1.4193 0
M  V30 7181 C 691.203 -0.0273506 -2.33484 0
M  V30 7182 C 692.184 0.778366 -1.51246 0
M  V30 7183 O 693.369 0.733449 -1.79817 0
M  V30 7184 C 690.499 0.917272 -3.34968 0
M  V30 7185 C 689.453 0.21941 -4.27437 0
M  V30 7186 C 688.779 1.27768 -5.1921 0
M  V30 7187 C 690.079 -0.907894 -5.14349 0
M  V30 7188 H 691.773 -0.791994 -2.88735 0
M  V30 7189 H 689.319 -0.382308 -1.38832 0
M  V30 7190 H 691.272 1.38657 -3.97935 0
M  V30 7191 H 689.996 1.71346 -2.78043 0
M  V30 7192 H 688.655 -0.229757 -3.65879 0
M  V30 7193 H 688.303 2.06612 -4.58607 0
M  V30 7194 H 688.003 0.815803 -5.81909 0
M  V30 7195 H 689.527 1.7477 -5.85054 0
M  V30 7196 H 690.941 -0.519348 -5.70943 0
M  V30 7197 H 689.338 -1.2962 -5.85934 0
M  V30 7198 H 690.408 -1.75218 -4.52136 0
M  V30 7199 N 691.751 1.51645 -0.429126 0
M  V30 7200 C 692.991 2.03924 0.139354 0
M  V30 7201 C 693.355 1.30673 1.40672 0
M  V30 7202 O 694.556 1.73282 2.05491 0
M  V30 7203 C 692.827 3.5557 0.361179 0
M  V30 7204 S 694.386 4.29591 0.894241 0
M  V30 7205 H 691.204 0.710103 0.0356986 0
M  V30 7206 H 693.806 1.86491 -0.586644 0
M  V30 7207 H 692.51 4.06455 -0.567686 0
M  V30 7208 H 692.041 3.77283 1.11449 0
M  V30 7209 H 694.056 4.46102 2.17272 0
M  V30 7210 N 693.229 0.160201 1.56784 0
M  V30 7211 C 694.454 -0.497373 2.01348 0
M  V30 7212 C 694.879 -1.56757 1.03966 0
M  V30 7213 O 694.237 -1.81292 0.0174455 0
M  V30 7214 C 694.285 -1.0628 3.44582 0
M  V30 7215 O 693.389 -2.17723 3.50244 0
M  V30 7216 H 692.73 -0.120295 0.653012 0
M  V30 7217 H 695.26 0.260821 2.02931 0
M  V30 7218 H 695.27 -1.38819 3.83658 0
M  V30 7219 H 693.945 -0.279166 4.14962 0
M  V30 7220 H 692.522 -1.86313 3.2302 0
M  V30 7221 N 694.707 -1.5719 -0.113559 0
M  V30 7222 C 695.64 -1.9595 -1.16957 0
M  V30 7223 C 696.618 -0.829951 -1.39823 0
M  V30 7224 O 697.802 -1.08861 -1.53888 0
M  V30 7225 C 694.929 -2.2604 -2.52237 0
M  V30 7226 C 693.975 -3.48571 -2.45765 0
M  V30 7227 S 694.808 -5.00962 -1.89203 0
M  V30 7228 C 695.964 -5.3421 -3.26145 0
M  V30 7229 H 696.197 -2.85214 -0.839069 0
M  V30 7230 H 693.73 -1.51036 -0.320529 0
M  V30 7231 H 695.688 -2.44054 -3.30073 0
M  V30 7232 H 694.349 -1.3738 -2.82463 0
M  V30 7233 H 693.542 -3.67008 -3.45429 0
M  V30 7234 H 693.144 -3.29972 -1.76053 0
M  V30 7235 H 695.436 -5.29725 -4.22371 0
M  V30 7236 H 696.379 -6.35398 -3.12529 0
M  V30 7237 H 696.787 -4.61681 -3.24825 0
M  V30 7238 N 696.185 0.383891 -1.52853 0
M  V30 7239 C 697.601 0.724316 -1.42218 0
M  V30 7240 C 697.801 1.93943 -0.546654 0
M  V30 7241 O 696.857 2.5249 -0.0220562 0
M  V30 7242 C 698.17 0.954635 -2.85144 0
M  V30 7243 C 699.718 1.05579 -2.94656 0
M  V30 7244 C 700.193 1.3187 -4.38605 0
M  V30 7245 N 701.684 1.38681 -4.41952 0
M  V30 7246 C 702.419 1.60699 -5.50421 0
M  V30 7247 N 701.915 1.80154 -6.68967 0
M  V30 7248 N 703.708 1.6292 -5.37972 0
M  V30 7249 H 695.859 -0.4156 -2.08294 0
M  V30 7250 H 698.122 -0.123776 -0.939885 0
M  V30 7251 H 697.828 0.133829 -3.51445 0
M  V30 7252 H 697.702 1.86788 -3.27704 0
M  V30 7253 H 700.089 1.86716 -2.2852 0
M  V30 7254 H 700.17 0.120338 -2.55517 0
M  V30 7255 H 699.814 0.512416 -5.05309 0
M  V30 7256 H 699.744 2.26708 -4.75301 0
M  V30 7257 H 702.235 1.25334 -3.56511 0
M  V30 7258 H 702.548 1.96476 -7.47407 0
M  V30 7259 H 700.893 1.77368 -6.71986 0
M  V30 7260 H 704.084 1.47276 -4.44328 0
M  V30 7261 H 704.257 1.79739 -6.22574 0
M  V30 7262 N 697.663 1.43903 0.642637 0
M  V30 7263 C 698.891 1.4954 1.42988 0
M  V30 7264 C 699.306 0.116588 1.8844 0
M  V30 7265 O 698.663 -0.875285 1.60141 0
M  V30 7266 C 698.714 2.45031 2.65785 0
M  V30 7267 O 698.435 3.77551 2.22232 0
M  V30 7268 C 699.936 2.60017 3.59035 0
M  V30 7269 H 697.156 0.507544 0.438907 0
M  V30 7270 H 699.7 1.88752 0.786942 0
M  V30 7271 H 697.855 2.08985 3.26196 0
M  V30 7272 H 698.269 4.29001 3.01759 0
M  V30 7273 H 699.743 3.30887 4.41835 0
M  V30 7274 H 700.22 1.64861 4.07084 0
M  V30 7275 H 700.826 2.96918 3.045 0
M  V30 7276 N 699.141 -0.881989 1.30609 0
M  V30 7277 C 700.552 -1.44956 1.17664 0
M  V30 7278 C 700.903 -1.94945 -0.221531 0
M  V30 7279 O 700.028 -1.85257 -1.11844 0
M  V30 7280 C 700.623 -2.63474 2.12995 0
M  V30 7281 C 699.182 -3.16312 2.04019 0
M  V30 7282 C 698.329 -1.89008 2.02907 0
M  V30 7283 H 701.28 -0.691645 1.42835 0
M  V30 7284 H 701.301 -3.39783 1.71253 0
M  V30 7285 H 700.813 -2.2706 3.14746 0
M  V30 7286 H 698.914 -3.57376 1.0542 0
M  V30 7287 H 699.027 -3.79409 2.9255 0
M  V30 7288 H 697.391 -2.07465 1.47751 0
M  V30 7289 H 698.174 -1.54848 3.06394 0
M  V30 7290 N 700.619 -1.13374 -1.09472 0
M  V30 7291 C 701.844 -0.918711 -1.85942 0
M  V30 7292 C 702.269 0.527225 -1.8056 0
M  V30 7293 O 701.627 1.37408 -1.18274 0
M  V30 7294 C 701.675 -1.41056 -3.31867 0
M  V30 7295 O 700.779 -0.595496 -4.08078 0
M  V30 7296 H 700.12 -0.329297 -0.576593 0
M  V30 7297 H 702.65 -1.50829 -1.38245 0
M  V30 7298 H 702.66 -1.41398 -3.82715 0
M  V30 7299 H 701.335 -2.46335 -3.35099 0
M  V30 7300 H 699.912 -0.659911 -3.67014 0
M  V30 7301 N 702.098 1.27442 -0.927168 0
M  V30 7302 C 703.328 1.9821 -0.582775 0
M  V30 7303 C 703.736 1.69361 0.843406 0
M  V30 7304 O 703.079 0.950381 1.57205 0
M  V30 7305 C 703.141 3.52048 -0.728165 0
M  V30 7306 C 702.805 4.04518 -2.12637 0
M  V30 7307 C 703.802 4.17332 -3.10048 0
M  V30 7308 C 701.487 4.38879 -2.44317 0
M  V30 7309 C 703.481 4.6378 -4.37249 0
M  V30 7310 C 701.168 4.85018 -3.71753 0
M  V30 7311 C 702.166 4.97428 -4.68033 0
M  V30 7312 O 701.854 5.42556 -5.93202 0
M  V30 7313 H 701.586 0.639314 -0.219667 0
M  V30 7314 H 704.14 1.63272 -1.24626 0
M  V30 7315 H 702.37 3.86699 -0.00758143 0
M  V30 7316 H 704.059 4.04033 -0.388906 0
M  V30 7317 H 704.825 3.91046 -2.86894 0
M  V30 7318 H 700.704 4.28462 -1.70121 0
M  V30 7319 H 704.248 4.73382 -5.12402 0
M  V30 7320 H 700.145 5.10746 -3.94726 0
M  V30 7321 H 700.913 5.60811 -5.96182 0
M  V30 7322 N 703.576 0.692616 1.41565 0
M  V30 7323 C 704.806 0.230943 2.05305 0
M  V30 7324 C 705.214 -1.12379 1.52209 0
M  V30 7325 O 704.557 -1.71281 0.663968 0
M  V30 7326 C 704.619 0.107894 3.59338 0
M  V30 7327 C 704.283 1.39419 4.35214 0
M  V30 7328 C 705.28 2.33143 4.64694 0
M  V30 7329 C 702.965 1.64674 4.74539 0
M  V30 7330 C 704.959 3.50385 5.32456 0
M  V30 7331 C 702.646 2.82202 5.42038 0
M  V30 7332 C 703.644 3.74881 5.70923 0
M  V30 7333 O 703.332 4.90351 6.37033 0
M  V30 7334 H 703.064 0.105708 0.667684 0
M  V30 7335 H 705.618 0.94488 1.82376 0
M  V30 7336 H 703.848 -0.661785 3.80995 0
M  V30 7337 H 705.537 -0.316213 4.04666 0
M  V30 7338 H 706.303 2.14887 4.34797 0
M  V30 7339 H 702.182 0.934007 4.51439 0
M  V30 7340 H 705.726 4.22743 5.54918 0
M  V30 7341 H 701.623 3.00376 5.71353 0
M  V30 7342 H 702.391 4.90128 6.55528 0
M  V30 7343 N 705.054 -1.51416 0.437162 0
M  V30 7344 C 706.284 -2.06204 -0.127859 0
M  V30 7345 C 706.692 -1.30463 -1.37026 0
M  V30 7346 O 706.035 -0.357516 -1.80187 0
M  V30 7347 C 706.097 -3.55783 -0.515632 0
M  V30 7348 C 705.761 -4.52776 0.619937 0
M  V30 7349 C 706.758 -4.98031 1.49201 0
M  V30 7350 C 704.443 -4.95878 0.800618 0
M  V30 7351 C 706.437 -5.85061 2.52947 0
M  V30 7352 C 704.124 -5.82699 1.84135 0
M  V30 7353 C 705.122 -6.27188 2.70416 0
M  V30 7354 O 704.81 -7.12284 3.72702 0
M  V30 7355 H 704.542 -0.675903 -0.011442 0
M  V30 7356 H 707.096 -1.95977 0.614986 0
M  V30 7357 H 705.326 -3.63793 -1.31118 0
M  V30 7358 H 707.015 -3.93087 -1.01179 0
M  V30 7359 H 707.781 -4.65426 1.36395 0
M  V30 7360 H 703.66 -4.60792 0.138617 0
M  V30 7361 H 707.204 -6.19708 3.20325 0
M  V30 7362 H 703.101 -6.14717 1.9696 0
M  V30 7363 H 703.869 -7.30462 3.69281 0
M  V30 7364 N 706.532 -0.168513 -1.56696 0
M  V30 7365 C 707.778 0.477865 -1.9709 0
M  V30 7366 C 708.111 1.63084 -1.05438 0
M  V30 7367 O 707.386 1.94238 -0.10095 0
M  V30 7368 C 707.669 0.963521 -3.4697 0
M  V30 7369 C 707.522 -0.189443 -4.49401 0
M  V30 7370 C 708.841 1.83813 -3.99876 0
M  V30 7371 H 705.96 0.172229 -0.716593 0
M  V30 7372 H 708.602 -0.254083 -1.88293 0
M  V30 7373 H 706.752 1.58724 -3.54597 0
M  V30 7374 H 708.424 -0.826451 -4.53836 0
M  V30 7375 H 706.667 -0.845366 -4.25483 0
M  V30 7376 H 707.338 0.192446 -5.51664 0
M  V30 7377 H 709.814 1.31235 -3.94863 0
M  V30 7378 H 708.69 2.14697 -5.0517 0
M  V30 7379 H 708.951 2.78289 -3.43523 0
M  V30 7380 N 708.01 1.57248 0.105221 0
M  V30 7381 C 708.957 2.01338 1.12835 0
M  V30 7382 C 709.927 0.887897 1.40377 0
M  V30 7383 O 711.112 1.15315 1.5201 0
M  V30 7384 C 708.252 2.43432 2.44611 0
M  V30 7385 C 707.365 3.69457 2.23888 0
M  V30 7386 C 706.5 4.00473 3.48991 0
M  V30 7387 C 705.539 5.19638 3.23485 0
M  V30 7388 N 704.676 5.46457 4.40828 0
M  V30 7389 H 709.516 2.88527 0.745386 0
M  V30 7390 H 707.053 1.42714 0.356535 0
M  V30 7391 H 709.011 2.65879 3.21503 0
M  V30 7392 H 707.641 1.59266 2.80774 0
M  V30 7393 H 706.693 3.54545 1.37847 0
M  V30 7394 H 708.005 4.56497 2.01026 0
M  V30 7395 H 707.159 4.23642 4.34295 0
M  V30 7396 H 705.898 3.11935 3.74897 0
M  V30 7397 H 704.903 4.96299 2.36574 0
M  V30 7398 H 706.128 6.09766 2.98935 0
M  V30 7399 H 704.074 4.60876 4.66829 0
M  V30 7400 H 703.991 6.27849 4.2112 0
M  V30 7401 H 705.259 5.74155 5.27225 0
M  V30 7402 N 709.488 -0.375779 1.53054 0
M  V30 7403 C 710.736 -1.11727 1.68409 0
M  V30 7404 C 711.057 -1.90127 0.43323 0
M  V30 7405 O 710.327 -1.87945 -0.552595 0
M  V30 7406 H 708.907 -0.415451 0.620813 0
M  V30 7407 H 711.569 -0.424869 1.90213 0
M  V30 7408 H 710.665 -1.8128 2.54055 0
M  V30 7409 N 710.966 -1.44241 -0.634997 0
M  V30 7410 C 711.876 -1.53293 -1.77591 0
M  V30 7411 C 712.892 -0.418831 -1.68884 0
M  V30 7412 O 714.068 -0.675619 -1.8973 0
M  V30 7413 C 711.133 -1.47075 -3.13958 0
M  V30 7414 C 710.194 -2.69304 -3.34326 0
M  V30 7415 C 709.427 -2.63374 -4.64187 0
M  V30 7416 O 709.65 -1.69161 -5.44739 0
M  V30 7417 O 708.584 -3.54166 -4.86673 0
M  V30 7418 H 712.41 -2.49673 -1.72908 0
M  V30 7419 H 709.995 -1.26445 -0.795745 0
M  V30 7420 H 711.877 -1.46117 -3.95257 0
M  V30 7421 H 710.552 -0.538373 -3.19192 0
M  V30 7422 H 709.459 -2.75831 -2.52721 0
M  V30 7423 H 710.792 -3.61576 -3.33951 0
M  V30 7424 N 712.444 0.87505 -1.31075 0
M  V30 7425 C 713.391 1.98178 -1.18296 0
M  V30 7426 C 714.361 1.65952 -0.0699923 0
M  V30 7427 O 715.546 1.8926 -0.241951 0
M  V30 7428 C 712.686 3.33399 -0.891024 0
M  V30 7429 C 711.799 3.78253 -2.08684 0
M  V30 7430 C 710.934 5.02166 -1.73212 0
M  V30 7431 C 709.973 5.39455 -2.89231 0
M  V30 7432 N 709.11 6.54549 -2.53989 0
M  V30 7433 H 713.95 2.0844 -2.12971 0
M  V30 7434 H 711.487 1.02047 -1.05948 0
M  V30 7435 H 713.445 4.11246 -0.702338 0
M  V30 7436 H 712.075 3.22794 0.0188799 0
M  V30 7437 H 711.127 2.9623 -2.38646 0
M  V30 7438 H 712.439 4.01821 -2.95536 0
M  V30 7439 H 711.593 5.87666 -1.50777 0
M  V30 7440 H 710.332 4.80491 -0.83544 0
M  V30 7441 H 709.337 4.52477 -3.12321 0
M  V30 7442 H 710.562 5.63098 -3.79601 0
M  V30 7443 H 708.508 6.3443 -1.66838 0
M  V30 7444 H 708.425 6.78035 -3.34372 0
M  V30 7445 H 709.693 7.43254 -2.34934 0
M  V30 7446 N 713.922 1.13953 1.08869 0
M  V30 7447 C 714.855 0.765765 2.14968 0
M  V30 7448 C 715.833 -0.250689 1.60656 0
M  V30 7449 O 717.017 -0.140852 1.87973 0
M  V30 7450 C 714.144 0.136146 3.38426 0
M  V30 7451 C 713.19 1.12201 4.11477 0
M  V30 7452 S 714.023 2.65711 4.64928 0
M  V30 7453 C 715.179 2.04125 5.91679 0
M  V30 7454 H 715.412 1.66444 2.46341 0
M  V30 7455 H 712.945 0.960263 1.20906 0
M  V30 7456 H 714.903 -0.220712 4.09906 0
M  V30 7457 H 713.564 -0.739887 3.05261 0
M  V30 7458 H 712.757 0.629398 5.00055 0
M  V30 7459 H 712.359 1.42262 3.45886 0
M  V30 7460 H 714.651 1.39381 6.63008 0
M  V30 7461 H 715.594 2.90808 6.45629 0
M  V30 7462 H 716.002 1.4905 5.44467 0
M  V30 7463 N 715.4 -1.26948 0.933913 0
M  V30 7464 C 716.31 -2.30366 0.443671 0
M  V30 7465 C 717.326 -1.67284 -0.478745 0
M  V30 7466 O 718.502 -1.98156 -0.360043 0
M  V30 7467 C 715.567 -3.45485 -0.289974 0
M  V30 7468 C 714.628 -4.24069 0.668114 0
M  V30 7469 C 713.861 -5.33691 -0.0306138 0
M  V30 7470 O 714.084 -5.5656 -1.24888 0
M  V30 7471 O 713.018 -5.98441 0.644384 0
M  V30 7472 H 716.844 -2.74349 1.30254 0
M  V30 7473 H 714.429 -1.32012 0.699506 0
M  V30 7474 H 716.311 -4.15486 -0.70353 0
M  V30 7475 H 714.986 -3.03546 -1.12435 0
M  V30 7476 H 713.893 -3.56579 1.13147 0
M  V30 7477 H 715.226 -4.69739 1.46989 0
M  V30 7478 N 716.879 -0.700114 -1.41195 0
M  V30 7479 C 717.826 -0.0376652 -2.30769 0
M  V30 7480 C 718.796 0.766544 -1.47354 0
M  V30 7481 O 719.981 0.73365 -1.76131 0
M  V30 7482 C 717.121 0.889452 -3.33441 0
M  V30 7483 C 716.234 0.076373 -4.31932 0
M  V30 7484 C 715.369 1.00155 -5.21673 0
M  V30 7485 C 714.408 0.181644 -6.1183 0
M  V30 7486 N 713.545 1.06087 -6.94039 0
M  V30 7487 H 718.385 -0.80726 -2.86858 0
M  V30 7488 H 715.922 -0.409798 -1.41277 0
M  V30 7489 H 717.88 1.44107 -3.91522 0
M  V30 7490 H 716.51 1.6254 -2.78892 0
M  V30 7491 H 715.562 -0.592223 -3.75762 0
M  V30 7492 H 716.874 -0.559076 -4.95657 0
M  V30 7493 H 716.028 1.62223 -5.8461 0
M  V30 7494 H 714.767 1.67085 -4.58186 0
M  V30 7495 H 713.772 -0.452085 -5.47938 0
M  V30 7496 H 714.997 -0.483925 -6.77374 0
M  V30 7497 H 712.943 1.7161 -6.33156 0
M  V30 7498 H 712.86 0.481094 -7.54468 0
M  V30 7499 H 714.128 1.66822 -7.6144 0
M  V30 7500 N 718.357 1.51182 -0.445186 0
M  V30 7501 C 719.768 1.86693 0.0160999 0
M  V30 7502 C 720.119 1.36183 1.4124 0
M  V30 7503 O 719.244 0.715895 2.04215 0
M  V30 7504 C 719.839 3.38781 0.0359918 0
M  V30 7505 C 718.398 3.73799 0.441715 0
M  V30 7506 C 717.545 2.74947 -0.360511 0
M  V30 7507 H 720.496 1.44294 -0.660674 0
M  V30 7508 H 720.517 3.71026 0.843813 0
M  V30 7509 H 720.029 3.75513 -0.980378 0
M  V30 7510 H 718.13 3.42659 1.4634 0
M  V30 7511 H 718.243 4.78829 0.16106 0
M  V30 7512 H 716.607 2.54047 0.182269 0
M  V30 7513 H 717.39 3.14521 -1.3759 0
M  V30 7514 N 719.835 0.176821 1.56605 0
M  V30 7515 C 721.06 -0.47599 2.01864 0
M  V30 7516 C 721.485 -1.55645 1.05623 0
M  V30 7517 O 720.843 -1.81263 0.0366729 0
M  V30 7518 C 720.891 -1.02619 3.4569 0
M  V30 7519 O 719.995 -2.13996 3.52533 0
M  V30 7520 H 719.336 -0.113363 0.654251 0
M  V30 7521 H 721.866 0.28233 2.02643 0
M  V30 7522 H 721.876 -1.34742 3.85109 0
M  V30 7523 H 720.551 -0.235138 4.15235 0
M  V30 7524 H 719.128 -1.82876 3.24978 0
M  V30 7525 N 721.313 -1.57302 -0.09688 0
M  V30 7526 C 722.223 -2.05258 -1.13606 0
M  V30 7527 C 723.239 -0.977137 -1.43972 0
M  V30 7528 O 724.415 -1.29018 -1.54649 0
M  V30 7529 C 721.48 -2.46593 -2.43706 0
M  V30 7530 C 720.541 -3.68322 -2.20538 0
M  V30 7531 C 719.774 -4.07676 -3.44435 0
M  V30 7532 O 719.997 -3.47141 -4.52603 0
M  V30 7533 O 718.931 -5.00641 -3.34129 0
M  V30 7534 H 722.757 -2.94069 -0.758752 0
M  V30 7535 H 720.342 -1.46164 -0.309263 0
M  V30 7536 H 722.224 -2.73814 -3.20318 0
M  V30 7537 H 720.899 -1.6092 -2.80867 0
M  V30 7538 H 719.806 -3.4622 -1.41713 0
M  V30 7539 H 721.139 -4.54769 -1.88271 0
M  V30 7540 N 722.791 0.367657 -1.53252 0
M  V30 7541 C 723.754 1.43308 -1.78873 0
M  V30 7542 C 724.754 1.46671 -0.659115 0
M  V30 7543 O 725.944 1.47468 -0.927306 0
M  V30 7544 C 723.076 2.82442 -1.90892 0
M  V30 7545 H 724.269 1.21864 -2.74024 0
M  V30 7546 H 721.822 0.600668 -1.44297 0
M  V30 7547 H 722.557 3.09202 -0.978 0
M  V30 7548 H 722.342 2.81399 -2.73051 0
M  V30 7549 H 723.832 3.59601 -2.12314 0
M  V30 7550 N 724.269 1.44576 0.627338 0
M  V30 7551 C 725.494 1.51271 1.41887 0
M  V30 7552 C 725.919 0.139814 1.8758 0
M  V30 7553 O 725.277 -0.871746 1.58966 0
M  V30 7554 C 725.325 2.48529 2.61277 0
M  V30 7555 O 724.429 1.98944 3.61241 0
M  V30 7556 H 723.77 0.510668 0.424399 0
M  V30 7557 H 726.3 1.89746 0.765356 0
M  V30 7558 H 726.31 2.66689 3.08773 0
M  V30 7559 H 724.985 3.48249 2.27366 0
M  V30 7560 H 723.562 1.90568 3.20528 0
M  V30 7561 N 725.747 -0.868086 1.31537 0
M  V30 7562 C 726.677 -1.99131 1.21939 0
M  V30 7563 C 727.658 -1.69768 0.106166 0
M  V30 7564 O 728.843 -1.92006 0.291081 0
M  V30 7565 C 725.973 -3.34676 0.927879 0
M  V30 7566 C 724.927 -3.7835 2.00088 0
M  V30 7567 C 724.253 -5.11375 1.56203 0
M  V30 7568 C 725.553 -3.95256 3.41424 0
M  V30 7569 H 727.247 -2.07419 2.15911 0
M  V30 7570 H 724.793 -0.996569 1.03945 0
M  V30 7571 H 726.746 -4.12793 0.847327 0
M  V30 7572 H 725.47 -3.26565 -0.0475042 0
M  V30 7573 H 724.129 -3.02474 2.07135 0
M  V30 7574 H 723.777 -4.99709 0.57445 0
M  V30 7575 H 723.477 -5.41568 2.27985 0
M  V30 7576 H 725.001 -5.92001 1.49558 0
M  V30 7577 H 726.415 -4.63764 3.3704 0
M  V30 7578 H 724.812 -4.36849 4.1144 0
M  V30 7579 H 725.882 -2.98579 3.82072 0
M  V30 7580 O 727.264 -1.26432 -1.00485 0
M  V30 7581 H 727.955 -1.05382 -1.62525 0
M  V30 END ATOM
M  V30 BEGIN BOND
M  V30 END BOND
M  V30 END CTAB
M  END
$$$$
