drugbank_target|P28331 NADH-ubiquinone oxidoreductase 75 kDa subunit, mitochondrial (DB00157)
 OpenBabel12092119333D

  0  0  0     0  0            999 V3000
M  V30 BEGIN CTAB
M  V30 COUNTS 11192 11283 0 0 0
M  V30 BEGIN ATOM
M  V30 1 H -0.908 1.98254 -0.117106 0
M  V30 2 N 0 1.576 0 0
M  V30 3 C 0.933 2.03868 1.02534 0
M  V30 4 C 1.911 0.928543 1.3348 0
M  V30 5 O 3.095 1.19667 1.45644 0
M  V30 6 C 0.222 2.43627 2.35294 0
M  V30 7 C -0.732 3.65373 2.2001 0
M  V30 8 S 0.101 5.13292 1.52614 0
M  V30 9 C 1.257 5.56322 2.86805 0
M  V30 10 H 1.49 2.90518 0.631377 0
M  V30 11 H -0.977 1.52953 0.210867 0
M  V30 12 H 0.981 2.67203 3.11629 0
M  V30 13 H -0.358 1.57376 2.7183 0
M  V30 14 H -1.165 3.90944 3.18086 0
M  V30 15 H -1.563 3.418 1.51819 0
M  V30 16 H 0.729 5.58782 3.83104 0
M  V30 17 H 1.672 6.56266 2.65933 0
M  V30 18 H 2.08 4.83886 2.90714 0
M  V30 19 N 1.4781 -0.272755 1.55222 0
M  V30 20 C 2.4081 -1.34136 1.91127 0
M  V30 21 C 3.3891 -1.51513 0.773168 0
M  V30 22 O 4.5741 -1.64552 1.03132 0
M  V30 23 C 1.7041 -2.70083 2.1834 0
M  V30 24 C 0.6581 -2.67437 3.34158 0
M  V30 25 C -0.0159 -4.06938 3.46851 0
M  V30 26 C 1.2841 -2.26686 4.70543 0
M  V30 27 H 2.9781 -1.04333 2.80633 0
M  V30 28 H 0.5241 -0.500454 1.35024 0
M  V30 29 H 2.4771 -3.44952 2.42046 0
M  V30 30 H 1.2011 -3.01469 1.25634 0
M  V30 31 H -0.1399 -1.95026 3.1042 0
M  V30 32 H -0.4919 -4.35547 2.51611 0
M  V30 33 H -0.7919 -4.06062 4.2472 0
M  V30 34 H 0.7321 -4.83545 3.72849 0
M  V30 35 H 2.1461 -2.91277 4.93792 0
M  V30 36 H 0.5431 -2.36971 5.5133 0
M  V30 37 H 1.6131 -1.21818 4.69349 0
M  V30 38 N 2.9562 -1.48159 -0.537278 0
M  V30 39 C 4.3722 -1.34118 -0.865129 0
M  V30 40 C 4.5722 -0.346678 -1.98495 0
M  V30 41 O 3.6282 0.234715 -2.51407 0
M  V30 42 C 4.9412 -2.73963 -1.23954 0
M  V30 43 C 6.4892 -2.82397 -1.34984 0
M  V30 44 C 6.9642 -4.22928 -1.75772 0
M  V30 45 N 8.4552 -4.25566 -1.82887 0
M  V30 46 C 9.1902 -5.31235 -2.15817 0
M  V30 47 N 8.6862 -6.47189 -2.47222 0
M  V30 48 N 10.4792 -5.18624 -2.16761 0
M  V30 49 H 2.6302 -2.1144 0.201715 0
M  V30 50 H 4.8932 -0.947598 0.0275949 0
M  V30 51 H 4.5992 -3.48264 -0.490381 0
M  V30 52 H 4.4732 -3.0702 -2.19132 0
M  V30 53 H 6.8602 -2.08356 -2.08978 0
M  V30 54 H 6.9412 -2.5297 -0.379448 0
M  V30 55 H 6.5852 -4.97482 -1.02341 0
M  V30 56 H 6.5152 -4.49794 -2.73848 0
M  V30 57 H 9.0062 -3.41924 -1.60924 0
M  V30 58 H 9.3192 -7.23564 -2.71433 0
M  V30 59 H 7.6642 -6.50476 -2.44757 0
M  V30 60 H 10.8552 -4.27056 -1.91679 0
M  V30 61 H 11.0282 -6.01078 -2.42093 0
M  V30 62 N 4.4343 0.785586 -1.36625 0
M  V30 63 C 5.6833 1.53883 -1.30396 0
M  V30 64 C 5.9963 1.95271 0.113452 0
M  V30 65 O 7.2023 2.69858 0.298142 0
M  V30 66 C 5.6583 2.77808 -2.28802 0
M  V30 67 C 5.2663 2.43574 -3.75999 0
M  V30 68 C 7.0103 3.55783 -2.31558 0
M  V30 69 C 4.9173 3.63919 -4.66173 0
M  V30 70 H 3.8473 0.577678 -0.484566 0
M  V30 71 H 6.4983 0.861705 -1.62009 0
M  V30 72 H 4.8803 3.47339 -1.90188 0
M  V30 73 H 6.0543 1.81916 -4.23371 0
M  V30 74 H 4.3693 1.78803 -3.76056 0
M  V30 75 H 6.9663 4.45205 -2.96137 0
M  V30 76 H 7.3093 3.94644 -1.3252 0
M  V30 77 H 7.8423 2.93235 -2.68809 0
M  V30 78 H 4.5813 3.3015 -5.66287 0
M  V30 79 H 4.1013 4.2473 -4.23515 0
M  V30 80 H 5.7803 4.30901 -4.82632 0
M  V30 81 N 5.9124 1.20967 1.01018 0
M  V30 82 C 7.3234 1.02319 1.56165 0
M  V30 83 C 7.6744 -0.418546 1.91684 0
M  V30 84 O 6.7994 -1.30096 1.72928 0
M  V30 85 C 7.3944 1.85109 2.8376 0
M  V30 86 C 5.9534 1.70809 3.35412 0
M  V30 87 C 5.1004 1.82643 2.08655 0
M  V30 88 H 8.0514 1.35065 0.833255 0
M  V30 89 H 8.0724 1.35827 3.55431 0
M  V30 90 H 7.5844 2.90035 2.57878 0
M  V30 91 H 5.6854 0.685464 3.66241 0
M  V30 92 H 5.7984 2.52467 4.07182 0
M  V30 93 H 4.1624 1.25896 2.21409 0
M  V30 94 H 4.9454 2.89066 1.85191 0
M  V30 95 N 7.3905 -1.2043 1.01659 0
M  V30 96 C 8.6365 -1.90079 0.706963 0
M  V30 97 C 8.9695 -1.78648 -0.761474 0
M  V30 98 O 8.2445 -1.17069 -1.55323 0
M  V30 99 C 8.5275 -3.41469 1.14327 0
M  V30 100 C 8.3805 -3.61833 2.67201 0
M  V30 101 C 9.6995 -4.34261 0.714529 0
M  V30 102 H 6.8185 -0.690254 0.2583 0
M  V30 103 H 9.4605 -1.41826 1.26433 0
M  V30 104 H 7.6105 -3.82696 0.669056 0
M  V30 105 H 9.2825 -3.2986 3.22475 0
M  V30 106 H 7.5255 -3.05304 3.08175 0
M  V30 107 H 8.1965 -4.67955 2.92783 0
M  V30 108 H 10.6725 -4.00682 1.12221 0
M  V30 109 H 9.5485 -5.38806 1.04784 0
M  V30 110 H 9.8095 -4.40431 -0.383799 0
M  V30 111 N 8.8686 -0.792821 -1.36206 0
M  V30 112 C 10.2846 -0.474903 -1.52371 0
M  V30 113 C 10.4846 1.00622 -1.74578 0
M  V30 114 O 9.5406 1.79162 -1.77924 0
M  V30 115 C 10.8536 -1.3083 -2.70747 0
M  V30 116 C 12.4016 -1.30234 -2.84619 0
M  V30 117 C 12.8766 -2.11956 -4.06004 0
M  V30 118 N 14.3676 -2.09419 -4.13156 0
M  V30 119 C 15.1026 -2.69419 -5.06163 0
M  V30 120 N 14.5986 -3.3829 -6.04592 0
M  V30 121 N 16.3916 -2.59134 -4.98804 0
M  V30 122 H 8.5426 -1.75222 -1.20046 0
M  V30 123 H 10.8056 -0.745024 -0.586211 0
M  V30 124 H 10.5116 -2.35881 -2.6087 0
M  V30 125 H 10.3856 -0.95196 -3.6499 0
M  V30 126 H 12.7726 -0.259748 -2.93955 0
M  V30 127 H 12.8536 -1.69847 -1.91274 0
M  V30 128 H 12.4976 -3.16248 -3.97429 0
M  V30 129 H 12.4276 -1.69711 -4.98503 0
M  V30 130 H 14.9186 -1.59297 -3.42685 0
M  V30 131 H 15.2316 -3.81394 -6.7213 0
M  V30 132 H 13.5766 -3.42393 -6.04807 0
M  V30 133 H 16.7676 -2.04927 -4.20859 0
M  V30 134 H 16.9406 -3.06185 -5.711 0
M  V30 135 N 10.3467 1.47872 -0.545128 0
M  V30 136 C 11.2937 2.29849 0.2093 0
M  V30 137 C 12.2637 1.38313 0.919707 0
M  V30 138 O 13.4487 1.67277 0.917772 0
M  V30 139 C 10.5887 3.22019 1.24088 0
M  V30 140 C 9.7017 4.2864 0.537778 0
M  V30 141 C 8.8367 5.07973 1.5536 0
M  V30 142 C 7.8757 6.06381 0.8348 0
M  V30 143 N 7.0127 6.78717 1.79688 0
M  V30 144 H 11.8527 2.93845 -0.49591 0
M  V30 145 H 9.3897 1.44848 -0.256389 0
M  V30 146 H 11.3477 3.73868 1.85144 0
M  V30 147 H 9.9777 2.59914 1.91428 0
M  V30 148 H 9.0297 3.7994 -0.187046 0
M  V30 149 H 10.3417 4.98793 -0.0258907 0
M  V30 150 H 9.4957 5.63912 2.23803 0
M  V30 151 H 8.2347 4.37693 2.15118 0
M  V30 152 H 7.2397 5.49631 0.136388 0
M  V30 153 H 8.4647 6.78665 0.24313 0
M  V30 154 H 6.4107 6.11177 2.38326 0
M  V30 155 H 6.3277 7.44998 1.28505 0
M  V30 156 H 7.5957 7.39237 2.47282 0
M  V30 157 N 11.8248 0.280983 1.55075 0
M  V30 158 C 12.7878 -0.590896 2.21452 0
M  V30 159 C 13.7878 -1.07682 1.19421 0
M  V30 160 O 14.9778 -0.97605 1.44288 0
M  V30 161 C 12.1098 -1.81587 2.88511 0
M  V30 162 H 13.3028 -0.0112554 2.99898 0
M  V30 163 H 10.8558 0.0316438 1.56268 0
M  V30 164 H 11.5908 -2.43587 2.14093 0
M  V30 165 H 11.3758 -1.4753 3.63287 0
M  V30 166 H 12.8658 -2.43575 3.39206 0
M  V30 167 N 13.3029 -1.57598 0.00835791 0
M  V30 168 C 14.2329 -2.1198 -0.979113 0
M  V30 169 C 15.2139 -1.03091 -1.35301 0
M  V30 170 O 16.3989 -1.30818 -1.43528 0
M  V30 171 C 13.5289 -2.62995 -2.26828 0
M  V30 172 C 12.4829 -3.76485 -2.03576 0
M  V30 173 C 11.8089 -4.13846 -3.38579 0
M  V30 174 C 13.1089 -5.0342 -1.39161 0
M  V30 175 H 14.8029 -2.94738 -0.526281 0
M  V30 176 H 12.3489 -1.41783 -0.251704 0
M  V30 177 H 14.3019 -2.99669 -2.96271 0
M  V30 178 H 13.0259 -1.7737 -2.7424 0
M  V30 179 H 11.6849 -3.40217 -1.36557 0
M  V30 180 H 11.3329 -3.25232 -3.83709 0
M  V30 181 H 11.0329 -4.90312 -3.23834 0
M  V30 182 H 12.5569 -4.53086 -4.09323 0
M  V30 183 H 13.9709 -5.37812 -1.98573 0
M  V30 184 H 12.3679 -5.84746 -1.34878 0
M  V30 185 H 13.4379 -4.83548 -0.361868 0
M  V30 186 N 14.781 0.264519 -1.55364 0
M  V30 187 C 16.027 0.99646 -1.76631 0
M  V30 188 C 16.36 1.85632 -0.570478 0
M  V30 189 O 15.635 1.89647 0.43175 0
M  V30 190 C 15.918 1.87187 -3.07625 0
M  V30 191 C 15.771 1.04138 -4.37579 0
M  V30 192 C 17.09 2.85749 -3.34717 0
M  V30 193 H 14.209 0.360841 -0.642622 0
M  V30 194 H 16.851 0.268218 -1.88097 0
M  V30 195 H 15.001 2.49279 -2.9798 0
M  V30 196 H 16.673 0.440517 -4.59192 0
M  V30 197 H 14.916 0.345115 -4.32425 0
M  V30 198 H 15.587 1.68729 -5.2558 0
M  V30 199 H 18.063 2.33793 -3.4421 0
M  V30 200 H 16.939 3.44136 -4.27623 0
M  V30 201 H 17.2 3.61311 -2.54768 0
M  V30 202 N 16.2591 1.48442 0.529413 0
M  V30 203 C 17.5071 1.56179 1.28267 0
M  V30 204 C 17.8281 0.237721 1.93546 0
M  V30 205 O 17.0981 -0.740779 1.81354 0
M  V30 206 H 15.6781 0.575367 0.476405 0
M  V30 207 H 18.3401 1.84909 0.61602 0
M  V30 208 H 17.4361 2.34312 2.06165 0
M  V30 209 N 17.7372 -0.778329 1.37039 0
M  V30 210 C 18.6672 -1.90546 1.34962 0
M  V30 211 C 19.6482 -1.68681 0.219274 0
M  V30 212 O 20.8332 -1.89634 0.418624 0
M  V30 213 C 17.9632 -3.27734 1.14925 0
M  V30 214 C 16.9172 -3.64147 2.24902 0
M  V30 215 C 16.2432 -4.99806 1.89996 0
M  V30 216 C 17.5432 -3.71579 3.67051 0
M  V30 217 H 19.2372 -1.92541 2.29277 0
M  V30 218 H 16.7832 -0.924948 1.10366 0
M  V30 219 H 18.7362 -4.06215 1.12104 0
M  V30 220 H 17.4602 -3.26154 0.170631 0
M  V30 221 H 16.1192 -2.8797 2.26868 0
M  V30 222 H 15.7672 -4.94759 0.906796 0
M  V30 223 H 15.4672 -5.25139 2.63634 0
M  V30 224 H 16.9912 -5.80694 1.88749 0
M  V30 225 H 18.4052 -4.40227 3.67251 0
M  V30 226 H 16.8022 -4.08405 4.39688 0
M  V30 227 H 17.8722 -2.72404 4.01154 0
M  V30 228 N 19.2153 -1.21501 -1.00376 0
M  V30 229 C 20.4403 -1.05977 -1.78279 0
M  V30 230 C 20.8653 0.385994 -1.84097 0
M  V30 231 O 20.2233 1.27849 -1.28547 0
M  V30 232 C 20.2713 -1.66302 -3.19963 0
M  V30 233 O 19.3753 -0.909333 -4.0225 0
M  V30 234 H 18.7163 -0.372906 -0.549397 0
M  V30 235 H 21.2463 -1.6107 -1.26165 0
M  V30 236 H 21.2563 -1.70574 -3.70632 0
M  V30 237 H 19.9313 -2.71515 -3.15043 0
M  V30 238 H 18.5083 -0.941795 -3.60811 0
M  V30 239 N 20.6934 1.19889 -1.02296 0
M  V30 240 C 21.6404 2.22901 -0.598651 0
M  V30 241 C 22.6104 1.61588 0.384521 0
M  V30 242 O 23.7954 1.88697 0.282522 0
M  V30 243 C 20.9354 3.45063 0.0504476 0
M  V30 244 C 20.0484 4.20783 -0.978053 0
M  V30 245 C 19.1834 5.30356 -0.299338 0
M  V30 246 C 18.2224 5.97826 -1.31416 0
M  V30 247 N 17.3594 6.98975 -0.661667 0
M  V30 248 H 22.1994 2.58554 -1.48169 0
M  V30 249 H 19.7364 1.27039 -0.741584 0
M  V30 250 H 21.6944 4.14831 0.443971 0
M  V30 251 H 20.3244 3.10084 0.897097 0
M  V30 252 H 19.3764 3.50018 -1.48969 0
M  V30 253 H 20.6884 4.67109 -1.74958 0
M  V30 254 H 19.8424 6.06516 0.149347 0
M  V30 255 H 18.5814 4.85084 0.504445 0
M  V30 256 H 17.5864 5.20422 -1.77317 0
M  V30 257 H 18.8114 6.45183 -2.11933 0
M  V30 258 H 16.7574 6.55886 0.122132 0
M  V30 259 H 16.6744 7.43461 -1.37117 0
M  V30 260 H 17.9424 7.7914 -0.236785 0
M  V30 261 N 22.1715 0.800033 1.35784 0
M  V30 262 C 23.3965 0.388511 2.03729 0
M  V30 263 C 23.8215 -0.990481 1.5991 0
M  V30 264 O 23.1795 -1.64013 0.772612 0
M  V30 265 C 23.2275 0.4726 3.5749 0
M  V30 266 O 22.3315 -0.51646 4.09153 0
M  V30 267 H 21.6725 0.163271 0.643614 0
M  V30 268 H 24.2025 1.0841 1.73518 0
M  V30 269 H 24.2125 0.34003 4.06581 0
M  V30 270 H 22.8875 1.47848 3.88734 0
M  V30 271 H 21.4645 -0.344673 3.71304 0
M  V30 272 N 23.6496 -1.47581 0.552962 0
M  V30 273 C 25.0606 -1.86324 0.118463 0
M  V30 274 C 25.4116 -1.46006 -1.3106 0
M  V30 275 O 24.5366 -0.861182 -1.98526 0
M  V30 276 C 25.1316 -3.3816 0.20821 0
M  V30 277 C 23.6906 -3.7601 -0.171226 0
M  V30 278 C 22.8376 -2.71634 0.557686 0
M  V30 279 H 25.7886 -1.39159 0.762928 0
M  V30 280 H 25.8096 -3.76141 -0.574278 0
M  V30 281 H 25.3216 -3.67473 1.24841 0
M  V30 282 H 23.4226 -3.52313 -1.21269 0
M  V30 283 H 23.5356 -4.78745 0.184379 0
M  V30 284 H 21.8996 -2.547 0.00125792 0
M  V30 285 H 22.6826 -3.0379 1.59896 0
M  V30 286 N 25.1277 -0.289203 -1.54924 0
M  V30 287 C 26.0747 0.592115 -2.23075 0
M  V30 288 C 27.0447 1.13881 -1.20915 0
M  V30 289 O 28.2297 1.18551 -1.495 0
M  V30 290 C 25.3697 1.76376 -2.96623 0
M  V30 291 C 24.4827 1.24959 -4.13533 0
M  V30 292 C 23.6177 2.38416 -4.74691 0
M  V30 293 C 22.6567 1.84072 -5.83767 0
M  V30 294 N 21.7937 2.91057 -6.38929 0
M  V30 295 H 26.6337 0.00432038 -2.98 0
M  V30 296 H 24.1707 -0.00963529 -1.47097 0
M  V30 297 H 26.1287 2.45268 -3.3749 0
M  V30 298 H 24.7587 2.32337 -2.24097 0
M  V30 299 H 23.8107 0.453307 -3.77689 0
M  V30 300 H 25.1227 0.811662 -4.92152 0
M  V30 301 H 24.2767 3.15276 -5.18349 0
M  V30 302 H 23.0157 2.8553 -3.95378 0
M  V30 303 H 22.0207 1.05697 -5.39545 0
M  V30 304 H 23.2457 1.37877 -6.64956 0
M  V30 305 H 21.1917 3.37526 -5.62505 0
M  V30 306 H 21.1087 2.51724 -7.12861 0
M  V30 307 H 22.3767 3.6785 -6.87246 0
M  V30 308 N 26.6058 1.57591 -0.0167156 0
M  V30 309 C 27.8538 1.90906 0.663285 0
M  V30 310 C 28.1748 0.892509 1.73376 0
M  V30 311 O 27.4448 -0.0677623 1.95783 0
M  V30 312 H 26.0248 0.704637 0.247983 0
M  V30 313 H 28.6868 1.94803 -0.0615909 0
M  V30 314 H 27.7828 2.9116 1.12393 0
M  V30 315 N 28.0839 -0.256276 1.55502 0
M  V30 316 C 29.3239 -0.993081 1.78654 0
M  V30 317 C 29.6879 -1.8288 0.584724 0
M  V30 318 O 30.8889 -2.59665 0.694822 0
M  V30 319 C 29.1599 -1.83856 3.06483 0
M  V30 320 S 30.7189 -2.63573 3.5082 0
M  V30 321 H 27.5369 -0.334199 0.62756 0
M  V30 322 H 30.1389 -0.26184 1.93739 0
M  V30 323 H 28.8429 -1.21414 3.92029 0
M  V30 324 H 28.3739 -2.61271 2.94111 0
M  V30 325 H 30.3889 -3.86312 3.11412 0
M  V30 326 N 29.562 -1.4872 -0.521534 0
M  V30 327 C 30.808 -1.574 -1.27879 0
M  V30 328 C 31.141 -0.250817 -1.92573 0
M  V30 329 O 30.416 0.743934 -1.79711 0
M  V30 330 C 30.699 -2.71843 -2.36164 0
M  V30 331 C 30.552 -4.13893 -1.76105 0
M  V30 332 C 31.871 -2.82008 -3.37875 0
M  V30 333 H 28.99 -0.572941 -0.463581 0
M  V30 334 H 31.632 -1.80927 -0.580119 0
M  V30 335 H 29.782 -2.51914 -2.95756 0
M  V30 336 H 31.454 -4.45284 -1.20499 0
M  V30 337 H 29.697 -4.20498 -1.06601 0
M  V30 338 H 30.368 -4.89804 -2.5455 0
M  V30 339 H 32.844 -3.00086 -2.88249 0
M  V30 340 H 31.72 -3.63796 -4.11028 0
M  V30 341 H 31.981 -1.90511 -3.98946 0
M  V30 342 N 31.0401 0.771051 -1.3745 0
M  V30 343 C 32.4561 1.07171 -1.18265 0
M  V30 344 C 32.6561 2.01491 -0.019287 0
M  V30 345 O 31.7121 2.44244 0.640408 0
M  V30 346 C 33.0251 1.66854 -2.50161 0
M  V30 347 C 34.5731 1.79109 -2.56689 0
M  V30 348 C 35.0481 2.42205 -3.88717 0
M  V30 349 N 36.5391 2.49655 -3.90162 0
M  V30 350 C 37.2741 2.9933 -4.8907 0
M  V30 351 N 36.7701 3.49172 -5.98374 0
M  V30 352 N 38.5631 2.9821 -4.76474 0
M  V30 353 H 30.7141 0.144796 -2.11906 0
M  V30 354 H 32.9771 0.126863 -0.939473 0
M  V30 355 H 32.6831 1.05017 -3.35655 0
M  V30 356 H 32.5571 2.6614 -2.673 0
M  V30 357 H 34.9441 2.40077 -1.71601 0
M  V30 358 H 35.0251 0.785757 -2.43433 0
M  V30 359 H 34.6691 1.81875 -4.74219 0
M  V30 360 H 34.5991 3.43345 -3.99276 0
M  V30 361 H 37.0901 2.14383 -3.11205 0
M  V30 362 H 37.4031 3.8548 -6.69795 0
M  V30 363 H 35.7481 3.47275 -6.02018 0
M  V30 364 H 38.9391 2.58572 -3.90203 0
M  V30 365 H 39.1121 3.36613 -5.53711 0
M  V30 366 N 32.5182 1.22032 0.997298 0
M  V30 367 C 33.7462 1.06841 1.7718 0
M  V30 368 C 34.1612 -0.381325 1.84909 0
M  V30 369 O 33.5182 -1.26437 1.31605 0
M  V30 370 C 33.5692 1.66814 3.20711 0
M  V30 371 O 33.2902 3.06116 3.13408 0
M  V30 372 C 34.7912 1.56838 4.14628 0
M  V30 373 H 32.0112 0.374782 0.556578 0
M  V30 374 H 34.5552 1.61532 1.2541 0
M  V30 375 H 32.7102 1.16196 3.69564 0
M  V30 376 H 33.1242 3.34926 4.0364 0
M  V30 377 H 34.5982 2.03532 5.13107 0
M  V30 378 H 35.0752 0.524155 4.36061 0
M  V30 379 H 35.6812 2.06741 3.7167 0
M  V30 380 N 33.9963 -1.19345 1.0293 0
M  V30 381 C 35.2243 -1.92997 0.745644 0
M  V30 382 C 35.6393 -1.75519 -0.695589 0
M  V30 383 O 34.9963 -1.07737 -1.47306 0
M  V30 384 C 35.0473 -3.44741 1.08792 0
M  V30 385 O 34.7683 -3.61658 2.47256 0
M  V30 386 C 36.2693 -4.35515 0.827129 0
M  V30 387 H 33.4893 -0.613042 0.272801 0
M  V30 388 H 36.0333 -1.51473 1.3739 0
M  V30 389 H 34.1883 -3.84097 0.504832 0
M  V30 390 H 34.6023 -4.55514 2.60015 0
M  V30 391 H 36.0763 -5.40589 1.11658 0
M  V30 392 H 36.5533 -4.38552 -0.238436 0
M  V30 393 H 37.1593 -4.01841 1.39297 0
M  V30 394 N 35.4744 -0.807222 -1.35358 0
M  V30 395 C 36.4374 -0.223665 -2.28106 0
M  V30 396 C 37.4374 0.589354 -1.4961 0
M  V30 397 O 38.6274 0.407745 -1.69361 0
M  V30 398 C 35.7594 0.688149 -3.33882 0
M  V30 399 H 36.9524 -1.04169 -2.81227 0
M  V30 400 H 34.5054 -0.577921 -1.45223 0
M  V30 401 H 35.2404 1.52984 -2.85948 0
M  V30 402 H 35.0254 0.10687 -3.91954 0
M  V30 403 H 36.5154 1.09075 -4.03104 0
M  V30 404 N 36.9525 1.47285 -0.560781 0
M  V30 405 C 38.1805 2.06855 -0.0430262 0
M  V30 406 C 38.5955 1.41291 1.25229 0
M  V30 407 O 37.9525 0.510648 1.7521 0
M  V30 408 C 38.0035 3.61178 0.152518 0
M  V30 409 O 37.7245 4.24285 -1.0915 0
M  V30 410 C 39.2255 4.37624 0.707145 0
M  V30 411 H 36.4455 0.669319 -0.0474652 0
M  V30 412 H 38.9895 1.89237 -0.77521 0
M  V30 413 H 37.1445 3.78298 0.834843 0
M  V30 414 H 37.5585 5.16868 -0.891482 0
M  V30 415 H 39.0325 5.46271 0.793244 0
M  V30 416 H 39.5095 4.04152 1.71923 0
M  V30 417 H 40.1155 4.25257 0.0604027 0
M  V30 418 N 38.4306 0.297415 1.54768 0
M  V30 419 C 39.3936 -0.567375 2.22066 0
M  V30 420 C 40.3936 -1.06409 1.20556 0
M  V30 421 O 41.5836 -0.960691 1.45315 0
M  V30 422 C 38.7156 -1.78517 2.90421 0
M  V30 423 H 39.9086 0.0205534 2.99893 0
M  V30 424 H 37.4616 0.0482163 1.56226 0
M  V30 425 H 38.1966 -2.41303 2.16664 0
M  V30 426 H 37.9816 -1.43669 3.64831 0
M  V30 427 H 39.4716 -2.39964 3.41771 0
M  V30 428 N 39.9087 -1.5758 0.0250728 0
M  V30 429 C 40.8717 -2.08896 -0.943139 0
M  V30 430 C 41.8717 -1.00321 -1.25668 0
M  V30 431 O 43.0617 -1.26495 -1.19769 0
M  V30 432 C 40.1937 -2.55143 -2.26086 0
M  V30 433 H 41.3867 -2.95723 -0.498775 0
M  V30 434 H 38.9397 -1.54703 -0.222888 0
M  V30 435 H 39.6747 -1.71633 -2.75159 0
M  V30 436 H 39.4597 -3.34461 -2.04641 0
M  V30 437 H 40.9497 -2.95083 -2.95492 0
M  V30 438 N 41.3868 0.248026 -1.55636 0
M  V30 439 C 42.6118 0.998028 -1.81808 0
M  V30 440 C 43.0368 1.78207 -0.601979 0
M  V30 441 O 42.3948 1.75653 0.448961 0
M  V30 442 C 42.4428 1.9125 -3.05705 0
M  V30 443 O 41.5468 3.00406 -2.82542 0
M  V30 444 H 40.8878 0.284045 -0.600179 0
M  V30 445 H 43.4178 0.269357 -2.02819 0
M  V30 446 H 43.4278 2.32737 -3.35108 0
M  V30 447 H 42.1028 1.33602 -3.93857 0
M  V30 448 H 40.6798 2.63056 -2.64303 0
M  V30 449 N 42.8649 1.48995 0.513639 0
M  V30 450 C 43.8129 1.65199 1.63744 0
M  V30 451 C 44.8069 0.51809 1.61283 0
M  V30 452 O 46.0129 0.697335 1.65943 0
M  V30 453 H 42.3879 0.52069 0.542574 0
M  V30 454 H 44.3589 2.59552 1.47226 0
M  V30 455 C 43.1079 1.72409 3.01945 0
M  V30 456 H 42.4309 2.59029 3.04539 0
M  V30 457 H 43.8709 1.87785 3.80148 0
M  V30 458 C 42.3299 0.46618 3.33659 0
M  V30 459 O 42.8599 -0.413744 3.99564 0
M  V30 460 N 41.0659 0.332931 2.88687 0
M  V30 461 H 40.6129 1.04996 2.35231 0
M  V30 462 H 40.5709 -0.507665 3.10274 0
M  V30 463 N 44.343 -0.763751 1.37857 0
M  V30 464 C 45.273 -1.89103 1.36975 0
M  V30 465 C 46.254 -1.68439 0.237152 0
M  V30 466 O 47.439 -1.8918 0.438713 0
M  V30 467 C 44.569 -3.26496 1.18395 0
M  V30 468 C 43.523 -3.61741 2.28751 0
M  V30 469 C 42.849 -4.97762 1.95286 0
M  V30 470 C 44.149 -3.67665 3.70972 0
M  V30 471 H 45.843 -1.90099 2.31307 0
M  V30 472 H 43.389 -0.91319 1.11341 0
M  V30 473 H 45.342 -4.05003 1.16406 0
M  V30 474 H 44.066 -3.25955 0.205215 0
M  V30 475 H 42.725 -2.85547 2.29909 0
M  V30 476 H 42.373 -4.93769 0.959221 0
M  V30 477 H 42.073 -5.22313 2.69189 0
M  V30 478 H 43.597 -5.7866 1.94898 0
M  V30 479 H 45.011 -4.36307 3.719 0
M  V30 480 H 43.408 -4.03718 4.43995 0
M  V30 481 H 44.478 -2.68134 4.0402 0
M  V30 482 N 45.8211 -1.22559 -0.990812 0
M  V30 483 C 47.0701 -1.04553 -1.72486 0
M  V30 484 C 47.3831 0.419349 -1.91052 0
M  V30 485 O 48.5891 0.719121 -2.61803 0
M  V30 486 C 47.0451 -1.82231 -3.10355 0
M  V30 487 C 46.6531 -3.32981 -2.99713 0
M  V30 488 C 48.3971 -1.7268 -3.87791 0
M  V30 489 C 46.3041 -4.03091 -4.32748 0
M  V30 490 H 45.2341 -0.387614 -0.646739 0
M  V30 491 H 47.8851 -1.46429 -1.10593 0
M  V30 492 H 46.2671 -1.33155 -3.72942 0
M  V30 493 H 47.4411 -3.89466 -2.46278 0
M  V30 494 H 45.7561 -3.43231 -2.35758 0
M  V30 495 H 48.3531 -2.22381 -4.86262 0
M  V30 496 H 48.6961 -0.687607 -4.10582 0
M  V30 497 H 49.2291 -2.1931 -3.31885 0
M  V30 498 H 45.9681 -5.07273 -4.15156 0
M  V30 499 H 45.4881 -3.51394 -4.86089 0
M  V30 500 H 47.1671 -4.08804 -5.01486 0
M  V30 501 N 47.2992 1.18797 -1.03562 0
M  V30 502 C 48.2092 2.25913 -0.632505 0
M  V30 503 C 49.2252 1.70668 0.338882 0
M  V30 504 O 50.4012 2.00453 0.195076 0
M  V30 505 C 47.4662 3.467 0.00350942 0
M  V30 506 C 46.5272 4.17098 -1.01624 0
M  V30 507 C 45.7602 5.32119 -0.410478 0
M  V30 508 O 45.9832 5.64976 0.784725 0
M  V30 509 O 44.9172 5.9107 -1.13667 0
M  V30 510 H 48.7432 2.62648 -1.52478 0
M  V30 511 H 46.3282 1.25781 -0.806195 0
M  V30 512 H 48.2102 4.19878 0.35781 0
M  V30 513 H 46.8852 3.11798 0.869686 0
M  V30 514 H 45.7922 3.4601 -1.42224 0
M  V30 515 H 47.1252 4.55987 -1.85301 0
M  V30 516 N 48.7773 0.814389 1.34928 0
M  V30 517 C 50.0233 0.399013 1.98836 0
M  V30 518 C 50.3563 -1.03314 1.64438 0
M  V30 519 O 49.6313 -1.71811 0.911659 0
M  V30 520 C 49.9143 0.591629 3.55207 0
M  V30 521 C 49.7673 2.06928 3.99376 0
M  V30 522 C 51.0863 0.022199 4.40094 0
M  V30 523 H 48.2053 0.146451 0.722303 0
M  V30 524 H 50.8473 1.02537 1.59957 0
M  V30 525 H 48.9973 0.0584441 3.88456 0
M  V30 526 H 50.6693 2.66544 3.76499 0
M  V30 527 H 48.9123 2.56287 3.49999 0
M  V30 528 H 49.5833 2.1549 5.08201 0
M  V30 529 H 52.0593 0.477643 4.13349 0
M  V30 530 H 50.9353 0.186832 5.48582 0
M  V30 531 H 51.1963 -1.07215 4.28902 0
M  V30 532 N 50.2554 -1.46986 0.568584 0
M  V30 533 C 51.5024 -2.02441 0.0487986 0
M  V30 534 C 51.8304 -1.44169 -1.30559 0
M  V30 535 O 51.0854 -0.591213 -1.86556 0
M  V30 536 C 51.3844 -3.57306 -0.081836 0
M  V30 537 C 51.0504 -4.34552 1.20313 0
M  V30 538 C 49.7124 -4.55376 1.5552 0
M  V30 539 C 52.0644 -4.79016 2.05411 0
M  V30 540 C 49.3924 -5.17913 2.7565 0
M  V30 541 C 51.7444 -5.42879 3.24754 0
M  V30 542 C 50.4084 -5.61933 3.60261 0
M  V30 543 H 49.6784 -0.740785 0.0178567 0
M  V30 544 H 52.3254 -1.76525 0.742384 0
M  V30 545 H 50.6304 -3.8228 -0.858463 0
M  V30 546 H 52.3274 -3.97876 -0.499546 0
M  V30 547 H 48.9174 -4.18631 0.919014 0
M  V30 548 H 53.1014 -4.62696 1.79516 0
M  V30 549 H 48.3574 -5.30858 3.03315 0
M  V30 550 H 52.5314 -5.76293 3.90973 0
M  V30 551 H 50.1584 -6.10161 4.53439 0
M  V30 552 N 51.7335 -0.305618 -1.54608 0
M  V30 553 C 52.9795 0.302746 -2.00528 0
M  V30 554 C 53.3125 1.53184 -1.19367 0
M  V30 555 O 52.5875 1.92598 -0.271321 0
M  V30 556 C 52.8705 0.654756 -3.54097 0
M  V30 557 C 52.7235 -0.583793 -4.45995 0
M  V30 558 C 54.0425 1.47947 -4.14487 0
M  V30 559 H 51.1615 0.108564 -0.72896 0
M  V30 560 H 53.8035 -0.418634 -1.85331 0
M  V30 561 H 51.9535 1.26935 -3.67178 0
M  V30 562 H 53.6255 -1.22224 -4.44814 0
M  V30 563 H 51.8685 -1.21615 -4.16404 0
M  V30 564 H 52.5395 -0.293287 -5.5122 0
M  V30 565 H 55.0155 0.96013 -4.04871 0
M  V30 566 H 53.8915 1.69454 -5.22088 0
M  V30 567 H 54.1525 2.47011 -3.66658 0
M  V30 568 N 53.2116 1.57565 -0.0334293 0
M  V30 569 C 54.4886 1.83282 0.683163 0
M  V30 570 C 54.8686 0.91823 1.90084 0
M  V30 571 O 54.2166 -0.025113 2.28486 0
M  V30 572 C 54.4266 3.32599 1.0573 0
M  V30 573 C 55.7746 3.99179 1.44711 0
M  V30 574 O 56.7986 3.3712 1.15015 0
M  V30 575 O 55.6576 5.08565 2.0006 0
M  V30 576 H 52.7516 0.755869 0.335546 0
M  V30 577 H 55.2976 1.69589 -0.0614402 0
M  V30 578 H 54.0696 3.90834 0.190828 0
M  V30 579 H 53.6926 3.51415 1.85993 0
M  V30 580 N 54.6897 -0.239769 1.55765 0
M  V30 581 C 55.9377 -0.964892 1.77579 0
M  V30 582 C 56.2587 -1.85582 0.598699 0
M  V30 583 O 55.5287 -1.92075 -0.385226 0
M  V30 584 H 54.1087 -0.359265 0.654933 0
M  V30 585 H 56.7707 -0.256001 1.93211 0
M  V30 586 H 55.8667 -1.58243 2.69009 0
M  V30 587 N 56.1678 -1.49265 -0.50573 0
M  V30 588 C 57.0998 -1.617 -1.62437 0
M  V30 589 C 58.1128 -0.499924 -1.54934 0
M  V30 590 O 59.3018 -0.771785 -1.60953 0
M  V30 591 C 56.4018 -1.5533 -3.01207 0
M  V30 592 C 55.5748 -2.8249 -3.33943 0
M  V30 593 C 54.6338 -2.69238 -4.52103 0
M  V30 594 O 53.6598 -3.43167 -4.5412 0
M  V30 595 N 54.8618 -1.80468 -5.51735 0
M  V30 596 H 57.6268 -2.58177 -1.52199 0
M  V30 597 H 55.1878 -1.46294 -0.693511 0
M  V30 598 H 57.1798 -1.44125 -3.78167 0
M  V30 599 H 55.7498 -0.667297 -3.05395 0
M  V30 600 H 54.9698 -3.08081 -2.45926 0
M  V30 601 H 56.2578 -3.66802 -3.5261 0
M  V30 602 H 55.6558 -1.19653 -5.52901 0
M  V30 603 H 54.2128 -1.75188 -6.27816 0
M  V30 604 N 57.6459 0.756429 -1.3826 0
M  V30 605 C 58.8709 1.55077 -1.37717 0
M  V30 606 C 59.2959 1.88073 0.03164 0
M  V30 607 O 58.6539 1.50364 1.01293 0
M  V30 608 C 58.7019 2.8283 -2.23695 0
M  V30 609 O 57.8059 3.77862 -1.6521 0
M  V30 610 H 57.1469 0.469152 -0.469885 0
M  V30 611 H 59.6769 0.935019 -1.81985 0
M  V30 612 H 59.6869 3.31783 -2.37453 0
M  V30 613 H 58.3619 2.58144 -3.2609 0
M  V30 614 H 56.9389 3.36555 -1.60578 0
M  V30 615 N 59.124 1.23083 0.984299 0
M  V30 616 C 60.37 1.06214 1.72761 0
M  V30 617 C 60.703 -0.400584 1.90024 0
M  V30 618 O 59.978 -1.29672 1.44967 0
M  V30 619 C 60.261 1.78375 3.12817 0
M  V30 620 C 60.114 3.32296 3.03149 0
M  V30 621 C 61.433 1.54309 4.12161 0
M  V30 622 H 58.552 0.387251 0.627061 0
M  V30 623 H 61.194 1.51536 1.14616 0
M  V30 624 H 59.344 1.39848 3.62457 0
M  V30 625 H 61.016 3.8032 2.61064 0
M  V30 626 H 59.259 3.6153 2.39747 0
M  V30 627 H 59.93 3.77972 4.02295 0
M  V30 628 H 62.406 1.87791 3.71314 0
M  V30 629 H 61.282 2.07281 5.08258 0
M  V30 630 H 61.543 0.477572 4.39513 0
M  V30 631 N 60.6021 -1.18246 1.0419 0
M  V30 632 C 61.5351 -2.20746 0.578474 0
M  V30 633 C 62.5131 -1.57912 -0.387624 0
M  V30 634 O 63.6971 -1.86071 -0.301634 0
M  V30 635 C 60.8241 -3.38346 -0.154762 0
M  V30 636 C 59.8701 -4.19587 0.764782 0
M  V30 637 S 60.7031 -4.86014 2.24835 0
M  V30 638 C 61.8591 -6.07012 1.526 0
M  V30 639 H 62.0921 -2.59715 1.44691 0
M  V30 640 H 59.6251 -1.287 0.85297 0
M  V30 641 H 61.5831 -4.065 -0.571641 0
M  V30 642 H 60.2441 -2.97786 -0.999105 0
M  V30 643 H 59.4371 -5.03611 0.197976 0
M  V30 644 H 59.0391 -3.56818 1.12057 0
M  V30 645 H 61.3311 -6.72523 0.819733 0
M  V30 646 H 62.2741 -6.68202 2.34333 0
M  V30 647 H 62.6821 -5.55249 1.01779 0
M  V30 648 N 62.0802 -0.821533 -1.34494 0
M  V30 649 C 63.3262 -0.409552 -1.98622 0
M  V30 650 C 63.6592 1.0244 -1.64984 0
M  V30 651 O 62.9342 1.71325 -0.920758 0
M  V30 652 C 63.2172 -0.610458 -3.54888 0
M  V30 653 C 63.0702 -2.09043 -3.98273 0
M  V30 654 C 64.3892 -0.0455379 -4.40076 0
M  V30 655 H 61.5082 -0.15028 -0.721516 0
M  V30 656 H 64.1502 -1.03384 -1.59411 0
M  V30 657 H 62.3002 -0.079044 -3.8842 0
M  V30 658 H 63.9722 -2.68537 -3.75081 0
M  V30 659 H 62.2152 -2.58139 -3.48635 0
M  V30 660 H 62.8862 -2.18182 -5.07051 0
M  V30 661 H 65.3622 -0.499557 -4.1309 0
M  V30 662 H 64.2382 -0.215922 -5.48475 0
M  V30 663 H 64.4992 1.04939 -4.29465 0
M  V30 664 N 63.5583 1.46682 -0.576371 0
M  V30 665 C 64.4683 2.34032 0.163141 0
M  V30 666 C 65.4843 1.49367 0.892501 0
M  V30 667 O 66.6603 1.82252 0.857106 0
M  V30 668 C 63.7253 3.26435 1.16795 0
M  V30 669 C 62.7863 4.26998 0.443944 0
M  V30 670 C 62.0193 5.14986 1.40088 0
M  V30 671 O 62.2423 5.05785 2.637 0
M  V30 672 O 61.1763 5.94906 0.914917 0
M  V30 673 H 65.0023 2.98607 -0.55388 0
M  V30 674 H 62.5873 1.45554 -0.336821 0
M  V30 675 H 64.4693 3.83459 1.74748 0
M  V30 676 H 63.1443 2.64465 1.86655 0
M  V30 677 H 62.0513 3.7368 -0.177271 0
M  V30 678 H 63.3843 4.91736 -0.213566 0
M  V30 679 N 65.0364 0.313813 1.54444 0
M  V30 680 C 66.4474 -0.176243 1.85866 0
M  V30 681 C 66.7984 -1.52405 1.23561 0
M  V30 682 O 65.9234 -2.09605 0.538016 0
M  V30 683 C 66.5184 -0.32657 3.37222 0
M  V30 684 C 65.0774 -0.760846 3.6863 0
M  V30 685 C 64.2244 0.123247 2.77026 0
M  V30 686 H 67.1754 0.534418 1.49431 0
M  V30 687 H 67.1964 -1.15908 3.62416 0
M  V30 688 H 66.7084 0.654531 3.82541 0
M  V30 689 H 64.8094 -1.75204 3.28838 0
M  V30 690 H 64.9224 -0.571353 4.75681 0
M  V30 691 H 63.2864 -0.399597 2.51546 0
M  V30 692 H 64.0694 1.10094 3.25168 0
M  V30 693 N 66.5145 -1.57545 0.0417849 0
M  V30 694 C 67.7625 -1.91937 -0.632829 0
M  V30 695 C 68.0835 -0.919978 -1.71934 0
M  V30 696 O 67.3535 0.0366064 -1.95866 0
M  V30 697 H 65.9335 -0.708493 -0.236742 0
M  V30 698 H 68.5955 -1.9468 0.0925745 0
M  V30 699 H 67.6915 -2.92912 -1.07746 0
M  V30 700 N 67.9926 0.231505 -1.5589 0
M  V30 701 C 69.2206 0.974505 -1.82513 0
M  V30 702 C 69.6356 1.78344 -0.619591 0
M  V30 703 O 68.9926 1.77792 0.411848 0
M  V30 704 C 69.0436 1.90007 -3.07538 0
M  V30 705 O 68.7646 1.12385 -4.2344 0
M  V30 706 C 70.2656 2.75779 -3.47075 0
M  V30 707 H 67.4856 0.286065 -0.606966 0
M  V30 708 H 70.0296 0.249739 -2.02969 0
M  V30 709 H 68.1846 2.57891 -2.89086 0
M  V30 710 H 68.5986 1.75125 -4.944 0
M  V30 711 H 70.0726 3.36443 -4.37619 0
M  V30 712 H 70.5496 3.47672 -2.68367 0
M  V30 713 H 71.1556 2.13323 -3.67931 0
M  V30 714 N 69.4707 1.49531 0.497807 0
M  V30 715 C 70.6987 1.62893 1.27567 0
M  V30 716 C 71.1137 0.301585 1.86376 0
M  V30 717 O 70.4707 -0.713335 1.67982 0
M  V30 718 C 70.5217 2.70013 2.40364 0
M  V30 719 O 70.2427 3.976 1.83972 0
M  V30 720 C 71.7437 2.94109 3.31685 0
M  V30 721 H 68.9637 0.548298 0.386794 0
M  V30 722 H 71.5077 1.95584 0.597245 0
M  V30 723 H 69.6627 2.40092 3.04031 0
M  V30 724 H 70.0767 4.56631 2.58047 0
M  V30 725 H 71.5507 3.72788 4.07104 0
M  V30 726 H 72.0277 2.04147 3.88871 0
M  V30 727 H 72.6337 3.2546 2.73781 0
M  V30 728 N 70.9488 -0.749086 1.3866 0
M  V30 729 C 72.1948 -1.51056 1.35314 0
M  V30 730 C 72.5278 -1.94121 -0.0553751 0
M  V30 731 O 71.8028 -1.65763 -1.01749 0
M  V30 732 C 72.0858 -2.76003 2.31288 0
M  V30 733 C 71.9388 -2.39047 3.8102 0
M  V30 734 C 73.2578 -3.78046 2.2532 0
M  V30 735 H 70.3768 -0.547972 0.492844 0
M  V30 736 H 73.0188 -0.857628 1.69543 0
M  V30 737 H 71.1688 -3.31716 2.02229 0
M  V30 738 H 72.8408 -1.89074 4.20771 0
M  V30 739 H 71.0838 -1.71449 3.98482 0
M  V30 740 H 71.7548 -3.28462 4.4364 0
M  V30 741 H 74.2308 -3.31884 2.50983 0
M  V30 742 H 73.1068 -4.63159 2.94576 0
M  V30 743 H 73.3678 -4.23957 1.25352 0
M  V30 744 N 72.4269 -1.23603 -0.977757 0
M  V30 745 C 73.3569 -1.04401 -2.0886 0
M  V30 746 C 74.3379 0.0399052 -1.70053 0
M  V30 747 O 75.5229 -0.125246 -1.93796 0
M  V30 748 C 72.6529 -0.637269 -3.41403 0
M  V30 749 C 71.6069 -1.66883 -3.94124 0
M  V30 750 C 70.9329 -1.11745 -5.22893 0
M  V30 751 C 72.2329 -3.06247 -4.23096 0
M  V30 752 H 73.9269 -1.97316 -2.25182 0
M  V30 753 H 71.4729 -0.950096 -1.08209 0
M  V30 754 H 73.4259 -0.48998 -4.18542 0
M  V30 755 H 72.1499 0.327557 -3.24953 0
M  V30 756 H 70.8089 -1.80416 -3.19133 0
M  V30 757 H 70.4569 -0.143527 -5.02795 0
M  V30 758 H 70.1569 -1.80672 -5.59134 0
M  V30 759 H 71.6809 -0.982067 -6.02651 0
M  V30 760 H 73.0949 -2.96001 -4.90975 0
M  V30 761 H 71.4919 -3.72436 -4.70544 0
M  V30 762 H 72.5619 -3.55041 -3.30263 0
M  V30 763 N 73.905 1.17692 -1.04816 0
M  V30 764 C 74.837 2.21103 -0.603822 0
M  V30 765 C 75.85 1.59411 0.33046 0
M  V30 766 O 77.039 1.7807 0.12379 0
M  V30 767 C 74.139 3.38623 0.136898 0
M  V30 768 C 73.312 4.29888 -0.807137 0
M  V30 769 C 72.371 5.26088 -0.10836 0
M  V30 770 O 71.397 5.64353 -0.741232 0
M  V30 771 N 72.599 5.68882 1.15558 0
M  V30 772 H 75.364 2.59848 -1.49329 0
M  V30 773 H 72.925 1.32553 -0.929587 0
M  V30 774 H 74.917 4.00009 0.614401 0
M  V30 775 H 73.487 2.98508 0.927993 0
M  V30 776 H 72.707 3.65993 -1.46434 0
M  V30 777 H 73.995 4.87759 -1.44807 0
M  V30 778 H 73.393 5.39861 1.69015 0
M  V30 779 H 71.95 6.32429 1.57722 0
M  V30 780 N 75.3831 0.828654 1.34056 0
M  V30 781 C 76.3461 0.259927 2.27721 0
M  V30 782 C 77.3461 -0.565478 1.50529 0
M  V30 783 O 78.5361 -0.38075 1.69988 0
M  V30 784 C 75.6681 -0.634944 3.34935 0
M  V30 785 H 76.8611 1.0863 2.79534 0
M  V30 786 H 74.4141 0.600951 1.44285 0
M  V30 787 H 75.1491 -1.48416 2.88346 0
M  V30 788 H 74.9341 -0.0444999 3.92075 0
M  V30 789 H 76.4241 -1.02648 4.04788 0
M  V30 790 N 76.8612 -1.46375 0.584142 0
M  V30 791 C 78.1012 -2.0427 0.0729695 0
M  V30 792 C 78.4652 -1.44563 -1.26355 0
M  V30 793 O 79.6662 -1.93667 -1.86405 0
M  V30 794 C 77.9372 -3.57399 0.00967464 0
M  V30 795 S 79.4962 -4.36551 -0.443714 0
M  V30 796 H 76.3142 -0.709975 0.0381673 0
M  V30 797 H 78.9162 -1.79398 0.776962 0
M  V30 798 H 77.6202 -3.98372 0.986319 0
M  V30 799 H 77.1512 -3.8681 -0.717044 0
M  V30 800 H 79.1662 -4.66237 -1.69816 0
M  V30 801 N 78.3393 -0.321999 -1.54275 0
M  V30 802 C 79.2493 0.553631 -2.27974 0
M  V30 803 C 80.2653 1.13054 -1.32268 0
M  V30 804 O 81.4413 1.15084 -1.6528 0
M  V30 805 C 78.5063 1.69927 -3.02201 0
M  V30 806 C 77.5673 1.15433 -4.1349 0
M  V30 807 C 76.8003 2.24537 -4.84168 0
M  V30 808 O 77.0233 3.44852 -4.5435 0
M  V30 809 O 75.9573 1.90044 -5.7111 0
M  V30 810 H 79.7833 -0.0448345 -3.03667 0
M  V30 811 H 77.3683 -0.0877418 -1.49142 0
M  V30 812 H 79.2503 2.3663 -3.48689 0
M  V30 813 H 77.9253 2.28395 -2.29385 0
M  V30 814 H 76.8323 0.452436 -3.71354 0
M  V30 815 H 78.1653 0.614805 -4.88345 0
M  V30 816 N 79.8174 1.5752 -0.0501392 0
M  V30 817 C 80.7644 2.1147 0.924603 0
M  V30 818 C 81.7344 1.02182 1.30951 0
M  V30 819 O 82.9194 1.29723 1.39916 0
M  V30 820 C 80.0594 2.66337 2.19451 0
M  V30 821 C 79.1724 3.89708 1.86418 0
M  V30 822 C 78.3074 4.32893 3.07859 0
M  V30 823 C 77.3464 5.48967 2.70742 0
M  V30 824 N 76.4834 5.87211 3.84874 0
M  V30 825 H 81.3234 2.94465 0.457639 0
M  V30 826 H 78.8604 1.45531 0.214266 0
M  V30 827 H 80.8184 2.96247 2.93758 0
M  V30 828 H 79.4484 1.86141 2.63726 0
M  V30 829 H 78.5004 3.66396 1.02264 0
M  V30 830 H 79.8124 4.74074 1.55096 0
M  V30 831 H 78.9664 4.6435 3.90466 0
M  V30 832 H 77.7054 3.47336 3.42358 0
M  V30 833 H 76.7104 5.17183 1.86551 0
M  V30 834 H 77.9354 6.3624 2.37436 0
M  V30 835 H 75.8814 5.04607 4.19175 0
M  V30 836 H 75.7984 6.66266 3.57247 0
M  V30 837 H 77.0664 6.23282 4.68123 0
M  V30 838 N 81.2955 -0.223234 1.56011 0
M  V30 839 C 82.5415 -0.949279 1.79211 0
M  V30 840 C 82.8745 -1.84054 0.619494 0
M  V30 841 O 82.1495 -1.90726 -0.381317 0
M  V30 842 C 82.4325 -1.78965 3.12479 0
M  V30 843 C 82.2855 -0.924997 4.40186 0
M  V30 844 C 83.6045 -2.76774 3.42175 0
M  V30 845 H 80.7235 -0.343676 0.651963 0
M  V30 846 H 83.3655 -0.218253 1.88742 0
M  V30 847 H 81.5155 -2.41291 3.04485 0
M  V30 848 H 83.1875 -0.318615 4.60198 0
M  V30 849 H 81.4305 -0.230344 4.33188 0
M  V30 850 H 82.1015 -1.54735 5.29869 0
M  V30 851 H 84.5775 -2.24584 3.50287 0
M  V30 852 H 83.4535 -3.32678 4.36597 0
M  V30 853 H 83.7145 -3.54429 2.64258 0
M  V30 854 N 82.7736 -1.49793 -0.48987 0
M  V30 855 C 84.0216 -1.59525 -1.24081 0
M  V30 856 C 84.3426 -0.288953 -1.92847 0
M  V30 857 O 83.6126 0.692436 -1.83254 0
M  V30 858 H 82.1926 -0.587796 -0.460983 0
M  V30 859 H 84.8546 -1.86477 -0.566778 0
M  V30 860 H 83.9506 -2.39696 -1.99881 0
M  V30 861 N 84.2517 0.741722 -1.39055 0
M  V30 862 C 85.1847 1.86416 -1.31622 0
M  V30 863 C 86.1627 1.61473 -0.191076 0
M  V30 864 O 87.3467 1.84825 -0.370399 0
M  V30 865 C 84.4737 3.22266 -1.04221 0
M  V30 866 C 83.5197 3.66079 -2.18834 0
M  V30 867 S 84.3527 3.7623 -3.81066 0
M  V30 868 C 85.5087 5.14881 -3.55877 0
M  V30 869 H 85.7417 1.92437 -2.26617 0
M  V30 870 H 83.2747 0.905907 -1.25031 0
M  V30 871 H 85.2327 4.00714 -0.890964 0
M  V30 872 H 83.8937 3.1391 -0.109237 0
M  V30 873 H 83.0867 4.64648 -1.95238 0
M  V30 874 H 82.6887 2.94817 -2.30128 0
M  V30 875 H 84.9807 6.01006 -3.12726 0
M  V30 876 H 85.9237 5.43503 -4.53884 0
M  V30 877 H 86.3317 4.84239 -2.90126 0
M  V30 878 N 85.7298 1.2412 0.971189 0
M  V30 879 C 86.6618 0.988349 2.06795 0
M  V30 880 C 87.6748 -0.0409541 1.62748 0
M  V30 881 O 88.8638 0.195673 1.77424 0
M  V30 882 C 85.9638 0.469023 3.35639 0
M  V30 883 C 85.1368 1.56065 4.08611 0
M  V30 884 C 84.1958 1.04458 5.15728 0
M  V30 885 O 83.2218 1.73553 5.42096 0
M  V30 886 N 84.4238 -0.122817 5.8037 0
M  V30 887 H 87.1888 1.93265 2.29061 0
M  V30 888 H 84.7498 1.15102 1.13856 0
M  V30 889 H 86.7418 0.108613 4.04554 0
M  V30 890 H 85.3118 -0.380919 3.1027 0
M  V30 891 H 84.5318 2.09341 3.34021 0
M  V30 892 H 85.8198 2.29449 4.54126 0
M  V30 893 H 85.2178 -0.700563 5.61345 0
M  V30 894 H 83.7748 -0.424404 6.50417 0
M  V30 895 N 87.2079 -1.17134 1.05439 0
M  V30 896 C 88.4569 -1.86791 0.761049 0
M  V30 897 C 88.7699 -1.82072 -0.714795 0
M  V30 898 O 89.9759 -2.47223 -1.12218 0
M  V30 899 C 88.4319 -3.35166 1.31117 0
M  V30 900 C 88.0399 -3.48381 2.81664 0
M  V30 901 C 89.7839 -4.10134 1.09499 0
M  V30 902 C 87.6909 -4.90793 3.29964 0
M  V30 903 H 86.6209 -0.699681 0.281002 0
M  V30 904 H 89.2719 -1.3226 1.27199 0
M  V30 905 H 87.6539 -3.8925 0.72803 0
M  V30 906 H 88.8279 -3.04502 3.45855 0
M  V30 907 H 87.1429 -2.86836 3.01851 0
M  V30 908 H 89.7399 -5.152 1.43084 0
M  V30 909 H 90.0829 -4.16287 0.0328772 0
M  V30 910 H 90.6159 -3.62264 1.64346 0
M  V30 911 H 87.3549 -4.89816 4.35616 0
M  V30 912 H 86.8749 -5.35333 2.70516 0
M  V30 913 H 88.5539 -5.59573 3.24787 0
M  V30 914 N 88.686 -0.835752 -1.33615 0
M  V30 915 C 90.097 -0.487099 -1.80234 0
M  V30 916 C 90.448 0.993627 -1.69179 0
M  V30 917 O 89.573 1.77403 -1.23924 0
M  V30 918 C 90.168 -0.877385 -3.27242 0
M  V30 919 C 88.727 -0.580915 -3.7189 0
M  V30 920 C 87.874 -1.0874 -2.5509 0
M  V30 921 H 90.825 -1.02474 -1.2118 0
M  V30 922 H 90.846 -0.186195 -3.80044 0
M  V30 923 H 90.358 -1.95512 -3.35256 0
M  V30 924 H 88.459 0.486881 -3.69405 0
M  V30 925 H 88.572 -1.13396 -4.65487 0
M  V30 926 H 86.936 -0.508392 -2.49575 0
M  V30 927 H 87.719 -2.17184 -2.65868 0
M  V30 928 N 90.1641 1.46063 -0.591896 0
M  V30 929 C 91.5801 1.57561 -0.254288 0
M  V30 930 C 91.7801 1.58565 1.24336 0
M  V30 931 O 90.8361 1.50753 2.02558 0
M  V30 932 C 92.1491 2.86549 -0.911611 0
M  V30 933 C 93.6971 3.00197 -0.886059 0
M  V30 934 C 94.1721 4.31933 -1.5231 0
M  V30 935 N 95.6631 4.38654 -1.48786 0
M  V30 936 C 96.3981 5.39222 -1.95006 0
M  V30 937 N 95.8941 6.46414 -2.49241 0
M  V30 938 N 97.6871 5.3048 -1.85868 0
M  V30 939 H 89.8381 1.43655 -1.56451 0
M  V30 940 H 92.1011 0.68583 -0.654478 0
M  V30 941 H 91.8071 2.91651 -1.96551 0
M  V30 942 H 91.6811 3.74794 -0.425368 0
M  V30 943 H 94.0681 2.9467 0.159246 0
M  V30 944 H 94.1491 2.13403 -1.41041 0
M  V30 945 H 93.7931 4.38217 -2.56765 0
M  V30 946 H 93.7231 5.17516 -0.973891 0
M  V30 947 H 96.2141 3.61793 -1.09151 0
M  V30 948 H 96.5271 7.19376 -2.82344 0
M  V30 949 H 94.8721 6.47208 -2.53272 0
M  V30 950 H 98.0631 4.45643 -1.43248 0
M  V30 951 H 98.2361 6.08711 -2.22204 0
M  V30 952 N 91.6422 0.330177 1.54103 0
M  V30 953 C 92.8892 -0.270405 2.00686 0
M  V30 954 C 93.2172 -1.51621 1.21825 0
M  V30 955 O 92.4722 -1.93536 0.29025 0
M  V30 956 C 92.7712 -0.643134 3.51566 0
M  V30 957 C 92.4372 0.504251 4.48072 0
M  V30 958 C 91.0992 0.819163 4.74176 0
M  V30 959 C 93.4512 1.27465 5.05373 0
M  V30 960 C 90.7792 1.90708 5.5484 0
M  V30 961 C 93.1312 2.35271 5.87223 0
M  V30 962 C 91.7952 2.67336 6.11627 0
M  V30 963 H 91.0652 -0.0989482 0.734364 0
M  V30 964 H 93.7122 0.455324 1.86008 0
M  V30 965 H 92.0172 -1.44938 3.64006 0
M  V30 966 H 93.7142 -1.11949 3.85056 0
M  V30 967 H 90.3042 0.248733 4.27878 0
M  V30 968 H 94.4882 1.04462 4.85182 0
M  V30 969 H 89.7442 2.15991 5.71977 0
M  V30 970 H 93.9182 2.95405 6.30641 0
M  V30 971 H 91.5452 3.51763 6.73919 0
M  V30 972 N 93.1203 -1.57491 0.0584922 0
M  V30 973 C 94.3603 -1.94851 -0.617458 0
M  V30 974 C 94.7243 -0.937165 -1.67575 0
M  V30 975 O 95.9253 -1.19795 -2.40629 0
M  V30 976 C 94.1963 -3.36955 -1.19147 0
M  V30 977 S 95.7553 -3.96277 -1.8844 0
M  V30 978 H 92.5733 -0.681539 -0.202547 0
M  V30 979 H 95.1753 -1.95073 0.129176 0
M  V30 980 H 93.8793 -4.08355 -0.409215 0
M  V30 981 H 93.4103 -3.40245 -1.97476 0
M  V30 982 H 95.4253 -3.82099 -3.16568 0
M  V30 983 N 94.5984 0.214957 -1.56127 0
M  V30 984 C 95.8284 0.953707 -1.8327 0
M  V30 985 C 96.2364 1.78181 -0.636262 0
M  V30 986 O 95.5794 1.79191 0.404516 0
M  V30 987 C 95.6414 1.91516 -3.0424 0
M  V30 988 C 95.3054 1.27094 -4.38972 0
M  V30 989 C 96.3024 0.657575 -5.15725 0
M  V30 990 C 93.9874 1.28073 -4.85698 0
M  V30 991 C 95.9814 0.0625968 -6.37369 0
M  V30 992 C 93.6684 0.681914 -6.07283 0
M  V30 993 C 94.6664 0.0739046 -6.8296 0
M  V30 994 O 94.3544 -0.515582 -8.02245 0
M  V30 995 H 94.0864 0.284764 -0.613095 0
M  V30 996 H 96.6404 0.233283 -2.04071 0
M  V30 997 H 94.8704 2.67475 -2.79274 0
M  V30 998 H 96.5594 2.52001 -3.18198 0
M  V30 999 H 97.3254 0.642288 -4.80728 0
M  V30 1000 H 93.2044 1.74337 -4.26764 0
M  V30 1001 H 96.7484 -0.412593 -6.96379 0
M  V30 1002 H 92.6454 0.694636 -6.41752 0
M  V30 1003 H 93.4134 -0.410544 -8.1747 0
M  V30 1004 N 96.0765 1.50051 0.48192 0
M  V30 1005 C 97.0265 1.64512 1.5786 0
M  V30 1006 C 98.0105 0.500073 1.52932 0
M  V30 1007 O 99.2025 0.753964 1.60139 0
M  V30 1008 C 96.3315 1.73263 2.9637 0
M  V30 1009 C 95.4175 2.93409 3.06222 0
M  V30 1010 N 95.8085 4.17236 2.85915 0
M  V30 1011 C 94.1065 2.91742 3.37346 0
M  V30 1012 C 94.8075 4.981 3.00451 0
M  V30 1013 N 93.7835 4.3184 3.30174 0
M  V30 1014 H 97.5855 2.57955 1.40842 0
M  V30 1015 H 95.0995 1.47086 0.688439 0
M  V30 1016 H 97.0965 1.81724 3.75209 0
M  V30 1017 H 95.7565 0.809711 3.14442 0
M  V30 1018 H 96.7675 4.46909 2.6171 0
M  V30 1019 H 93.4445 2.08907 3.61475 0
M  V30 1020 H 94.8345 6.06532 2.89082 0
M  V30 1021 N 97.5546 -0.734337 1.39446 0
M  V30 1022 C 98.4646 -1.87879 1.40495 0
M  V30 1023 C 99.4806 -1.714 0.299672 0
M  V30 1024 O 100.657 -1.93991 0.541249 0
M  V30 1025 C 97.7216 -3.23477 1.24754 0
M  V30 1026 C 96.7826 -3.52344 2.45259 0
M  V30 1027 C 96.0156 -4.81473 2.30259 0
M  V30 1028 O 96.2386 -5.55237 1.30643 0
M  V30 1029 O 95.1726 -5.10254 3.19256 0
M  V30 1030 H 98.9986 -1.89949 2.36966 0
M  V30 1031 H 96.5836 -0.882243 1.20569 0
M  V30 1032 H 98.4656 -4.04509 1.18111 0
M  V30 1033 H 97.1406 -3.22176 0.313781 0
M  V30 1034 H 96.0476 -2.71396 2.57478 0
M  V30 1035 H 97.3806 -3.58426 3.37331 0
M  V30 1036 N 99.0327 -1.24633 -0.964593 0
M  V30 1037 C 100.449 -1.01239 -1.2338 0
M  V30 1038 C 100.649 0.2769 -1.99588 0
M  V30 1039 O 99.7047 0.992241 -2.32187 0
M  V30 1040 C 101.018 -2.22937 -2.01791 0
M  V30 1041 C 102.566 -2.27594 -2.14872 0
M  V30 1042 C 103.041 -3.48921 -2.96678 0
M  V30 1043 N 104.532 -3.49257 -3.04259 0
M  V30 1044 C 105.267 -4.39795 -3.67924 0
M  V30 1045 N 104.763 -5.40591 -4.33281 0
M  V30 1046 N 106.556 -4.275 -3.64966 0
M  V30 1047 H 98.7067 -2.0748 -0.454502 0
M  V30 1048 H 100.97 -0.910647 -0.26349 0
M  V30 1049 H 100.676 -3.16587 -1.53184 0
M  V30 1050 H 100.55 -2.25306 -3.02518 0
M  V30 1051 H 102.937 -1.34473 -2.6268 0
M  V30 1052 H 103.018 -2.2925 -1.13482 0
M  V30 1053 H 102.662 -4.42359 -2.49562 0
M  V30 1054 H 102.592 -3.4451 -3.98272 0
M  V30 1055 H 105.083 -2.76337 -2.57771 0
M  V30 1056 H 105.396 -6.05904 -4.79687 0
M  V30 1057 H 103.741 -5.44475 -4.3194 0
M  V30 1058 H 106.932 -3.47987 -3.13086 0
M  V30 1059 H 107.105 -4.98258 -4.14298 0
M  V30 1060 N 100.511 1.16574 -1.06058 0
M  V30 1061 C 101.441 2.23057 -0.690488 0
M  V30 1062 C 102.422 1.67141 0.315901 0
M  V30 1063 O 103.607 1.93253 0.191556 0
M  V30 1064 C 100.737 3.47222 -0.073625 0
M  V30 1065 C 99.6908 4.16016 -1.00573 0
M  V30 1066 C 99.0168 5.34104 -0.252289 0
M  V30 1067 C 100.317 4.67264 -2.33371 0
M  V30 1068 H 102.011 2.54271 -1.58072 0
M  V30 1069 H 99.5568 1.22218 -0.76149 0
M  V30 1070 H 101.51 4.20939 0.19714 0
M  V30 1071 H 100.234 3.15302 0.85161 0
M  V30 1072 H 98.8928 3.44223 -1.2612 0
M  V30 1073 H 98.5408 4.98437 0.675988 0
M  V30 1074 H 98.2408 5.81072 -0.873455 0
M  V30 1075 H 99.7648 6.10599 0.0109857 0
M  V30 1076 H 101.179 5.32573 -2.12223 0
M  V30 1077 H 99.5758 5.24843 -2.90963 0
M  V30 1078 H 100.646 3.83602 -2.96611 0
M  V30 1079 N 101.989 0.842826 1.3317 0
M  V30 1080 C 103.214 0.453129 2.02389 0
M  V30 1081 C 103.639 -0.939105 1.6298 0
M  V30 1082 O 102.997 -1.61472 0.8244 0
M  V30 1083 C 103.045 0.586094 3.55805 0
M  V30 1084 O 102.149 -0.386029 4.10589 0
M  V30 1085 H 101.49 0.183664 0.638094 0
M  V30 1086 H 104.02 1.13875 1.69981 0
M  V30 1087 H 104.03 0.469209 4.05293 0
M  V30 1088 H 102.705 1.6014 3.83833 0
M  V30 1089 H 101.282 -0.226371 3.72212 0
M  V30 1090 N 103.467 -1.45747 0.599634 0
M  V30 1091 C 104.713 -2.02592 0.0918643 0
M  V30 1092 C 105.046 -1.46806 -1.27128 0
M  V30 1093 O 104.321 -0.639658 -1.83681 0
M  V30 1094 C 104.604 -3.60073 0.0443398 0
M  V30 1095 C 104.457 -4.26208 1.43759 0
M  V30 1096 C 105.776 -4.35309 -0.647608 0
M  V30 1097 H 102.895 -0.736175 0.034857 0
M  V30 1098 H 105.537 -1.73694 0.770081 0
M  V30 1099 H 103.687 -3.84823 -0.533224 0
M  V30 1100 H 105.359 -4.12668 2.06162 0
M  V30 1101 H 103.602 -3.84916 2.00056 0
M  V30 1102 H 104.273 -5.35069 1.35665 0
M  V30 1103 H 106.749 -4.15805 -0.156776 0
M  V30 1104 H 105.625 -5.45038 -0.649942 0
M  V30 1105 H 105.886 -4.07598 -1.71219 0
M  V30 1106 N 104.945 -0.338344 -1.53925 0
M  V30 1107 C 105.908 0.508299 -2.23493 0
M  V30 1108 C 106.908 1.03175 -1.23335 0
M  V30 1109 O 108.098 0.921826 -1.47811 0
M  V30 1110 C 105.23 1.70754 -2.95052 0
M  V30 1111 H 106.423 -0.100058 -2.99733 0
M  V30 1112 H 103.976 -0.0896198 -1.56043 0
M  V30 1113 H 104.711 2.35474 -2.22986 0
M  V30 1114 H 104.496 1.33946 -3.68512 0
M  V30 1115 H 105.986 2.30818 -3.48013 0
M  V30 1116 N 106.423 1.57458 -0.0668435 0
M  V30 1117 C 107.671 1.92919 0.602214 0
M  V30 1118 C 107.992 0.947215 1.70449 0
M  V30 1119 O 107.262 -0.00544117 1.95899 0
M  V30 1120 H 105.842 0.71217 0.22544 0
M  V30 1121 H 108.504 1.94508 -0.123535 0
M  V30 1122 H 107.6 2.94589 1.03073 0
M  V30 1123 N 107.901 -0.206675 1.56239 0
M  V30 1124 C 108.849 -1.27571 1.94495 0
M  V30 1125 C 109.843 -1.47737 0.828862 0
M  V30 1126 O 111.049 -1.48735 1.0138 0
M  V30 1127 H 107.424 -0.428029 0.6183 0
M  V30 1128 H 109.395 -0.925961 2.8367 0
M  V30 1129 C 108.144 -2.61568 2.29079 0
M  V30 1130 H 107.467 -2.46863 3.14482 0
M  V30 1131 H 108.907 -3.35144 2.5972 0
M  V30 1132 C 107.366 -3.17695 1.12123 0
M  V30 1133 O 107.896 -3.99801 0.390153 0
M  V30 1134 N 106.102 -2.76276 0.901097 0
M  V30 1135 H 105.649 -2.09613 1.49733 0
M  V30 1136 H 105.607 -3.1417 0.120319 0
M  V30 1137 N 109.379 -1.50304 -0.473955 0
M  V30 1138 C 110.619 -1.62786 -1.23612 0
M  V30 1139 C 110.983 -0.319786 -1.89318 0
M  V30 1140 O 112.184 -0.320012 -2.66888 0
M  V30 1141 C 110.455 -2.77351 -2.25414 0
M  V30 1142 S 112.014 -3.09948 -3.10608 0
M  V30 1143 H 108.832 -0.573895 -0.419721 0
M  V30 1144 H 111.434 -1.88076 -0.533623 0
M  V30 1145 H 110.138 -3.70879 -1.75719 0
M  V30 1146 H 109.669 -2.54137 -3.00296 0
M  V30 1147 H 111.684 -2.53553 -4.26527 0
M  V30 1148 N 110.857 0.726932 -1.39834 0
M  V30 1149 C 112.273 1.03354 -1.21615 0
M  V30 1150 C 112.473 2.01327 -0.08338 0
M  V30 1151 O 111.529 2.46158 0.56238 0
M  V30 1152 C 112.842 1.58811 -2.55342 0
M  V30 1153 C 114.39 1.70851 -2.62257 0
M  V30 1154 C 114.865 2.29716 -3.96225 0
M  V30 1155 N 116.356 2.37116 -3.97907 0
M  V30 1156 C 117.091 2.83619 -4.98345 0
M  V30 1157 N 116.587 3.29958 -6.09179 0
M  V30 1158 N 118.38 2.82901 -4.8572 0
M  V30 1159 H 110.531 0.0773069 -2.12259 0
M  V30 1160 H 112.794 0.0969102 -0.943034 0
M  V30 1161 H 112.5 0.942855 -3.38826 0
M  V30 1162 H 112.374 2.57502 -2.75632 0
M  V30 1163 H 114.761 2.34497 -1.79152 0
M  V30 1164 H 114.842 0.707913 -2.45809 0
M  V30 1165 H 114.486 1.66696 -4.79765 0
M  V30 1166 H 114.416 3.30469 -4.09997 0
M  V30 1167 H 116.907 2.04374 -3.17868 0
M  V30 1168 H 117.22 3.63976 -6.8172 0
M  V30 1169 H 115.565 3.27946 -6.12761 0
M  V30 1170 H 118.756 2.46027 -3.98231 0
M  V30 1171 H 118.929 3.18827 -5.6414 0
M  V30 1172 N 112.336 1.25143 0.95797 0
M  V30 1173 C 113.269 0.995565 2.05338 0
M  V30 1174 C 114.247 -0.0740423 1.62431 0
M  V30 1175 O 115.431 0.0649212 1.88388 0
M  V30 1176 C 112.558 0.504298 3.34925 0
M  V30 1177 C 111.604 1.56393 3.96792 0
M  V30 1178 S 112.437 3.14815 4.33188 0
M  V30 1179 C 113.593 2.67415 5.65898 0
M  V30 1180 H 113.826 1.92309 2.26726 0
M  V30 1181 H 111.359 1.08635 1.09716 0
M  V30 1182 H 113.317 0.227497 4.09869 0
M  V30 1183 H 111.978 -0.402671 3.11508 0
M  V30 1184 H 111.171 1.17082 4.90212 0
M  V30 1185 H 110.773 1.79124 3.28315 0
M  V30 1186 H 113.065 2.10833 6.4386 0
M  V30 1187 H 114.008 3.59463 6.10076 0
M  V30 1188 H 114.416 2.07521 5.24972 0
M  V30 1189 N 113.814 -1.1601 1.06675 0
M  V30 1190 C 115.054 -1.88304 0.795037 0
M  V30 1191 C 115.418 -1.80062 -0.666466 0
M  V30 1192 O 116.619 -2.47319 -1.05293 0
M  V30 1193 C 114.89 -3.33664 1.28076 0
M  V30 1194 S 116.449 -4.23768 1.13868 0
M  V30 1195 H 113.267 -0.649928 0.288296 0
M  V30 1196 H 115.869 -1.4001 1.36445 0
M  V30 1197 H 114.573 -3.37203 2.33927 0
M  V30 1198 H 114.104 -3.87009 0.706253 0
M  V30 1199 H 116.119 -4.96148 0.0719668 0
M  V30 1200 N 115.292 -0.849877 -1.32721 0
M  V30 1201 C 116.222 -0.306308 -2.31482 0
M  V30 1202 C 117.203 0.591952 -1.59468 0
M  V30 1203 O 118.388 0.513199 -1.87296 0
M  V30 1204 C 115.518 0.510204 -3.43532 0
M  V30 1205 C 114.472 -0.293209 -4.26994 0
M  V30 1206 C 113.798 0.647743 -5.30762 0
M  V30 1207 C 115.098 -1.51634 -4.99804 0
M  V30 1208 H 116.792 -1.13153 -2.77195 0
M  V30 1209 H 114.338 -0.545553 -1.33266 0
M  V30 1210 H 116.291 0.900856 -4.11658 0
M  V30 1211 H 115.015 1.36874 -2.96535 0
M  V30 1212 H 113.674 -0.665555 -3.60508 0
M  V30 1213 H 113.322 1.50299 -4.8002 0
M  V30 1214 H 113.022 0.11422 -5.87489 0
M  V30 1215 H 114.546 1.03567 -6.01753 0
M  V30 1216 H 115.96 -1.19824 -5.60638 0
M  V30 1217 H 114.357 -1.98745 -5.66234 0
M  V30 1218 H 115.427 -2.28018 -4.27943 0
M  V30 1219 N 116.77 1.45427 -0.607355 0
M  V30 1220 C 118.016 2.0254 -0.102607 0
M  V30 1221 C 118.349 1.47478 1.26348 0
M  V30 1222 O 117.624 0.64939 1.83339 0
M  V30 1223 C 117.907 3.60044 -0.0634347 0
M  V30 1224 C 117.76 4.2544 -1.46017 0
M  V30 1225 C 119.079 4.35646 0.624514 0
M  V30 1226 H 116.198 0.73598 -0.0387607 0
M  V30 1227 H 118.84 1.73284 -0.779282 0
M  V30 1228 H 116.99 3.85101 0.512808 0
M  V30 1229 H 118.662 4.11569 -2.08347 0
M  V30 1230 H 116.905 3.83849 -2.02094 0
M  V30 1231 H 117.576 5.34342 -1.385 0
M  V30 1232 H 120.052 4.15882 0.134723 0
M  V30 1233 H 118.928 5.45376 0.621028 0
M  V30 1234 H 119.189 4.08501 1.69055 0
M  V30 1235 N 118.248 0.346503 1.53744 0
M  V30 1236 C 119.158 -0.517293 2.28826 0
M  V30 1237 C 120.174 -1.10935 1.3405 0
M  V30 1238 O 121.35 -1.1244 1.6709 0
M  V30 1239 C 118.415 -1.65098 3.04866 0
M  V30 1240 C 117.476 -1.0884 4.15274 0
M  V30 1241 C 116.709 -2.16806 4.87679 0
M  V30 1242 O 116.932 -3.3758 4.59778 0
M  V30 1243 O 115.866 -1.80934 5.74061 0
M  V30 1244 H 119.692 0.0931396 3.03557 0
M  V30 1245 H 117.277 0.111458 1.48984 0
M  V30 1246 H 119.159 -2.31053 3.5241 0
M  V30 1247 H 117.834 -2.24717 2.32989 0
M  V30 1248 H 116.741 -0.3933 3.72027 0
M  V30 1249 H 118.074 -0.537036 4.89261 0
M  V30 1250 N 119.726 -1.57421 0.075193 0
M  V30 1251 C 120.975 -1.92794 -0.592731 0
M  V30 1252 C 121.288 -0.957478 -1.70563 0
M  V30 1253 O 122.494 -1.20417 -2.43335 0
M  V30 1254 C 120.95 -3.42495 -1.10569 0
M  V30 1255 C 120.558 -4.47994 -0.0236121 0
M  V30 1256 C 122.302 -3.86864 -1.74748 0
M  V30 1257 C 120.209 -5.88829 -0.550803 0
M  V30 1258 H 119.139 -0.719591 -0.225177 0
M  V30 1259 H 121.79 -1.82902 0.147978 0
M  V30 1260 H 120.172 -3.47471 -1.89947 0
M  V30 1261 H 121.346 -4.54637 0.751099 0
M  V30 1262 H 119.661 -4.13113 0.522159 0
M  V30 1263 H 122.258 -4.8947 -2.15229 0
M  V30 1264 H 122.601 -3.24417 -2.60882 0
M  V30 1265 H 123.134 -3.84504 -1.01986 0
M  V30 1266 H 119.873 -6.54929 0.273457 0
M  V30 1267 H 119.393 -5.85698 -1.29296 0
M  V30 1268 H 121.072 -6.38811 -1.02613 0
M  V30 1269 N 121.204 0.198386 -1.56346 0
M  V30 1270 C 122.114 1.2664 -1.97483 0
M  V30 1271 C 123.13 1.49989 -0.882002 0
M  V30 1272 O 124.306 1.62668 -1.18748 0
M  V30 1273 C 121.371 2.59141 -2.30319 0
M  V30 1274 C 120.432 2.43892 -3.53292 0
M  V30 1275 C 119.665 3.70074 -3.84553 0
M  V30 1276 O 119.888 4.74101 -3.1715 0
M  V30 1277 O 118.822 3.658 -4.7799 0
M  V30 1278 H 122.648 0.947304 -2.88548 0
M  V30 1279 H 120.233 0.403123 -1.43859 0
M  V30 1280 H 122.115 3.37352 -2.5253 0
M  V30 1281 H 120.79 2.90684 -1.42423 0
M  V30 1282 H 119.697 1.63803 -3.36332 0
M  V30 1283 H 121.03 2.17282 -4.41644 0
M  V30 1284 N 122.682 1.50554 0.465978 0
M  V30 1285 C 123.629 1.6979 1.56333 0
M  V30 1286 C 124.599 0.539239 1.57103 0
M  V30 1287 O 125.784 0.770401 1.74555 0
M  V30 1288 C 122.924 1.80273 2.94271 0
M  V30 1289 C 122.037 3.07674 3.0325 0
M  V30 1290 C 121.172 3.08922 4.32135 0
M  V30 1291 C 120.211 4.30755 4.34875 0
M  V30 1292 N 119.348 4.29714 5.55239 0
M  V30 1293 H 124.188 2.63472 1.39235 0
M  V30 1294 H 121.725 1.30602 0.676873 0
M  V30 1295 H 123.683 1.84332 3.74269 0
M  V30 1296 H 122.313 0.900258 3.09992 0
M  V30 1297 H 121.365 3.13062 2.16094 0
M  V30 1298 H 122.677 3.97642 3.01135 0
M  V30 1299 H 121.831 3.11738 5.20485 0
M  V30 1300 H 120.57 2.16792 4.36866 0
M  V30 1301 H 119.575 4.28146 3.44922 0
M  V30 1302 H 120.8 5.24117 4.31831 0
M  V30 1303 H 118.746 3.4044 5.60746 0
M  V30 1304 H 118.663 5.13456 5.54886 0
M  V30 1305 H 119.931 4.36683 6.457 0
M  V30 1306 N 124.16 -0.719506 1.40217 0
M  V30 1307 C 125.123 -1.8153 1.39927 0
M  V30 1308 C 126.123 -1.58095 0.293723 0
M  V30 1309 O 127.313 -1.65209 0.552429 0
M  V30 1310 C 124.445 -3.19561 1.18716 0
M  V30 1311 H 125.638 -1.83186 2.37451 0
M  V30 1312 H 123.191 -0.924746 1.26008 0
M  V30 1313 H 123.926 -3.23557 0.219366 0
M  V30 1314 H 123.711 -3.3797 1.98793 0
M  V30 1315 H 125.201 -3.99598 1.21291 0
M  V30 1316 N 125.638 -1.25649 -0.95132 0
M  V30 1317 C 127.049 -1.09654 -1.51106 0
M  V30 1318 C 127.4 0.326615 -1.93462 0
M  V30 1319 O 126.525 1.21697 -1.78938 0
M  V30 1320 C 127.12 -1.98437 -2.74605 0
M  V30 1321 C 125.679 -1.86618 -3.2688 0
M  V30 1322 C 124.826 -1.9239 -1.99703 0
M  V30 1323 H 127.777 -1.38887 -0.767865 0
M  V30 1324 H 127.798 -1.5263 -3.48546 0
M  V30 1325 H 127.31 -3.02009 -2.43746 0
M  V30 1326 H 125.411 -0.859421 -3.62553 0
M  V30 1327 H 125.524 -2.71607 -3.94673 0
M  V30 1328 H 123.888 -1.36317 -2.15151 0
M  V30 1329 H 124.671 -2.97573 -1.71188 0
M  V30 1330 N 127.117 1.15442 -1.07289 0
M  V30 1331 C 128.064 2.20161 -0.692653 0
M  V30 1332 C 129.034 1.63073 0.31564 0
M  V30 1333 O 130.219 1.89725 0.202235 0
M  V30 1334 C 127.359 3.44967 -0.0959509 0
M  V30 1335 C 126.472 4.16256 -1.15564 0
M  V30 1336 C 125.607 5.28609 -0.524011 0
M  V30 1337 C 124.646 5.91715 -1.56653 0
M  V30 1338 N 123.783 6.9554 -0.957531 0
M  V30 1339 H 128.623 2.52037 -1.59002 0
M  V30 1340 H 126.16 1.2378 -0.794798 0
M  V30 1341 H 128.118 4.16341 0.267628 0
M  V30 1342 H 126.748 3.1361 0.764772 0
M  V30 1343 H 125.8 3.43385 -1.6368 0
M  V30 1344 H 127.112 4.59268 -1.94613 0
M  V30 1345 H 126.266 6.06604 -0.108032 0
M  V30 1346 H 125.005 4.86787 0.29825 0
M  V30 1347 H 124.01 5.12433 -1.9923 0
M  V30 1348 H 125.235 6.35614 -2.39107 0
M  V30 1349 H 123.181 6.55814 -0.156162 0
M  V30 1350 H 123.098 7.36977 -1.68526 0
M  V30 1351 H 124.366 7.77435 -0.567032 0
M  V30 1352 N 128.595 0.856903 1.32268 0
M  V30 1353 C 129.841 0.462069 1.97466 0
M  V30 1354 C 130.174 -0.980298 1.67642 0
M  V30 1355 O 129.449 -1.68824 0.965858 0
M  V30 1356 C 129.732 0.704336 3.53145 0
M  V30 1357 C 129.585 2.19529 3.9259 0
M  V30 1358 C 130.904 0.1622 4.39801 0
M  V30 1359 H 128.023 0.169357 0.717278 0
M  V30 1360 H 130.665 1.07574 1.56614 0
M  V30 1361 H 128.815 0.181999 3.88073 0
M  V30 1362 H 130.487 2.78387 3.67829 0
M  V30 1363 H 128.73 2.67292 3.41668 0
M  V30 1364 H 129.401 2.31549 5.01088 0
M  V30 1365 H 131.877 0.608905 4.11621 0
M  V30 1366 H 130.753 0.361265 5.4771 0
M  V30 1367 H 131.014 -0.935158 4.32096 0
M  V30 1368 N 130.073 -1.45103 0.615059 0
M  V30 1369 C 131.319 -2.02483 0.113347 0
M  V30 1370 C 131.652 -1.48146 -1.25564 0
M  V30 1371 O 130.927 -0.659104 -1.82992 0
M  V30 1372 C 131.21 -3.60005 0.0825278 0
M  V30 1373 C 131.063 -4.2466 1.48271 0
M  V30 1374 C 132.382 -4.35972 -0.601401 0
M  V30 1375 H 129.501 -0.735764 0.0426632 0
M  V30 1376 H 132.143 -1.72868 0.788461 0
M  V30 1377 H 130.293 -3.85367 -0.492378 0
M  V30 1378 H 131.965 -4.10458 2.10527 0
M  V30 1379 H 130.208 -3.82772 2.04127 0
M  V30 1380 H 130.879 -5.336 1.41332 0
M  V30 1381 H 133.355 -4.15947 -0.112666 0
M  V30 1382 H 132.231 -5.45697 -0.592097 0
M  V30 1383 H 132.492 -4.09391 -1.66887 0
M  V30 1384 N 131.551 -0.354651 -1.53558 0
M  V30 1385 C 132.514 0.484566 -2.24019 0
M  V30 1386 C 133.514 1.01861 -1.24422 0
M  V30 1387 O 134.704 0.906097 -1.4878 0
M  V30 1388 C 131.836 1.67615 -2.96847 0
M  V30 1389 H 133.029 -0.131843 -2.9961 0
M  V30 1390 H 130.582 -0.106165 -1.55939 0
M  V30 1391 H 131.317 2.33095 -2.25471 0
M  V30 1392 H 131.102 1.30029 -3.69912 0
M  V30 1393 H 132.592 2.27114 -3.50441 0
M  V30 1394 N 133.029 1.57378 -0.0835403 0
M  V30 1395 C 133.992 2.12252 0.864959 0
M  V30 1396 C 134.992 1.04916 1.21858 0
M  V30 1397 O 136.182 1.30853 1.14991 0
M  V30 1398 C 133.314 2.63358 2.16461 0
M  V30 1399 H 134.507 2.97371 0.388676 0
M  V30 1400 H 132.06 1.55423 0.165317 0
M  V30 1401 H 132.795 1.81727 2.686 0
M  V30 1402 H 132.58 3.41826 1.92087 0
M  V30 1403 H 134.07 3.05847 2.84337 0
M  V30 1404 N 134.507 -0.190092 1.56449 0
M  V30 1405 C 135.747 -0.916414 1.82705 0
M  V30 1406 C 136.111 -1.80235 0.661763 0
M  V30 1407 O 137.312 -2.56484 0.80433 0
M  V30 1408 C 135.583 -1.70691 3.14005 0
M  V30 1409 S 137.142 -2.48457 3.61683 0
M  V30 1410 H 133.96 -0.307281 0.64117 0
M  V30 1411 H 136.562 -0.179433 1.94675 0
M  V30 1412 H 135.266 -1.04677 3.96826 0
M  V30 1413 H 134.797 -2.48562 3.04927 0
M  V30 1414 H 136.812 -3.72756 3.27517 0
M  V30 1415 N 135.985 -1.50799 -0.457987 0
M  V30 1416 C 136.948 -1.7005 -1.53674 0
M  V30 1417 C 137.948 -0.570881 -1.50325 0
M  V30 1418 O 139.138 -0.838126 -1.52712 0
M  V30 1419 C 136.27 -1.73788 -2.93276 0
M  V30 1420 H 137.463 -2.66306 -1.37917 0
M  V30 1421 H 135.016 -1.40477 -0.685271 0
M  V30 1422 H 135.751 -0.792717 -3.14462 0
M  V30 1423 H 135.536 -2.55864 -2.97113 0
M  V30 1424 H 137.026 -1.90591 -3.71571 0
M  V30 1425 N 137.463 0.71206 -1.40597 0
M  V30 1426 C 138.396 1.83582 -1.35546 0
M  V30 1427 C 139.374 1.61032 -0.225284 0
M  V30 1428 O 140.558 1.83998 -0.409519 0
M  V30 1429 C 137.685 3.19983 -1.11034 0
M  V30 1430 C 136.731 3.61355 -2.2655 0
M  V30 1431 S 137.564 3.68062 -3.88961 0
M  V30 1432 C 138.72 5.07216 -3.66719 0
M  V30 1433 H 138.953 1.87586 -2.30648 0
M  V30 1434 H 136.486 0.879182 -1.26924 0
M  V30 1435 H 138.444 3.98734 -0.975761 0
M  V30 1436 H 137.105 3.13608 -0.175798 0
M  V30 1437 H 136.298 4.60403 -2.0505 0
M  V30 1438 H 135.9 2.8987 -2.36329 0
M  V30 1439 H 138.192 5.94238 -3.25404 0
M  V30 1440 H 139.135 5.33753 -4.6531 0
M  V30 1441 H 139.543 4.77976 -3.00332 0
M  V30 1442 N 138.941 1.26152 0.944643 0
M  V30 1443 C 140.352 1.10454 1.50522 0
M  V30 1444 C 140.703 -0.31635 1.93633 0
M  V30 1445 O 139.828 -1.20746 1.79581 0
M  V30 1446 C 140.423 1.99891 2.73549 0
M  V30 1447 C 138.982 1.88348 3.25886 0
M  V30 1448 C 138.129 1.93447 1.9868 0
M  V30 1449 H 141.08 1.39292 0.760489 0
M  V30 1450 H 141.101 1.54477 3.47732 0
M  V30 1451 H 140.613 3.03297 2.42141 0
M  V30 1452 H 138.714 0.878636 3.62092 0
M  V30 1453 H 138.827 2.73696 3.93227 0
M  V30 1454 H 137.191 1.37456 2.14425 0
M  V30 1455 H 137.974 2.98476 1.69607 0
M  V30 1456 N 140.419 -1.14872 1.07899 0
M  V30 1457 C 141.665 -1.86064 0.806725 0
M  V30 1458 C 141.998 -1.82434 -0.665706 0
M  V30 1459 O 141.273 -1.25138 -1.48899 0
M  V30 1460 C 141.556 -3.34929 1.32267 0
M  V30 1461 C 141.409 -3.47161 2.86006 0
M  V30 1462 C 142.728 -4.29863 0.943717 0
M  V30 1463 H 139.847 -0.675591 0.294526 0
M  V30 1464 H 142.489 -1.34925 1.33773 0
M  V30 1465 H 140.639 -3.78611 0.870974 0
M  V30 1466 H 142.311 -3.12302 3.39507 0
M  V30 1467 H 140.554 -2.88539 3.23925 0
M  V30 1468 H 141.225 -4.51777 3.17177 0
M  V30 1469 H 143.701 -3.9417 1.33302 0
M  V30 1470 H 142.577 -5.32494 1.33198 0
M  V30 1471 H 142.838 -4.41846 -0.149796 0
M  V30 1472 N 141.898 -0.863906 -1.31812 0
M  V30 1473 C 142.831 -0.259963 -2.26714 0
M  V30 1474 C 143.809 0.607392 -1.50829 0
M  V30 1475 O 144.993 0.562155 -1.79922 0
M  V30 1476 C 142.12 0.632456 -3.32743 0
M  V30 1477 C 141.166 -0.162743 -4.26189 0
M  V30 1478 S 141.999 -1.53726 -5.12961 0
M  V30 1479 C 143.155 -0.650803 -6.22507 0
M  V30 1480 H 143.388 -1.06445 -2.77591 0
M  V30 1481 H 140.921 -0.662071 -1.39485 0
M  V30 1482 H 142.879 1.14167 -3.94305 0
M  V30 1483 H 141.54 1.41083 -2.80632 0
M  V30 1484 H 140.733 0.517366 -5.01338 0
M  V30 1485 H 140.335 -0.60385 -3.69093 0
M  V30 1486 H 142.627 0.141134 -6.77353 0
M  V30 1487 H 143.57 -1.37322 -6.94657 0
M  V30 1488 H 143.978 -0.221041 -5.64067 0
M  V30 1489 N 143.376 1.44774 -0.622745 0
M  V30 1490 C 144.323 2.30635 0.0871679 0
M  V30 1491 C 145.293 1.42994 0.845097 0
M  V30 1492 O 146.478 1.71907 0.827812 0
M  V30 1493 C 143.618 3.28144 1.06844 0
M  V30 1494 C 142.731 4.30888 0.309809 0
M  V30 1495 C 141.866 5.15494 1.28215 0
M  V30 1496 C 140.905 6.09953 0.512198 0
M  V30 1497 N 140.042 6.87287 1.43458 0
M  V30 1498 H 144.882 2.90803 -0.650974 0
M  V30 1499 H 142.419 1.43286 -0.33281 0
M  V30 1500 H 144.377 3.83157 1.65066 0
M  V30 1501 H 143.007 2.69695 1.77382 0
M  V30 1502 H 142.059 3.78414 -0.388181 0
M  V30 1503 H 143.371 4.97955 -0.290254 0
M  V30 1504 H 142.525 5.74983 1.93596 0
M  V30 1505 H 141.264 4.48481 1.91614 0
M  V30 1506 H 140.269 5.49581 -0.155151 0
M  V30 1507 H 141.494 6.78999 -0.116958 0
M  V30 1508 H 139.44 6.2295 2.05594 0
M  V30 1509 H 139.357 7.50763 0.888335 0
M  V30 1510 H 140.625 7.51306 2.07749 0
M  V30 1511 N 144.854 0.36279 1.53368 0
M  V30 1512 C 146.102 -0.227326 2.00817 0
M  V30 1513 C 146.423 -1.49511 1.25186 0
M  V30 1514 O 145.693 -1.92482 0.364348 0
M  V30 1515 H 144.273 -0.0869923 0.741917 0
M  V30 1516 H 146.935 0.488381 1.88682 0
M  V30 1517 H 146.031 -0.456273 3.08747 0
M  V30 1518 N 146.332 -1.57332 0.0918853 0
M  V30 1519 C 147.578 -1.95328 -0.567313 0
M  V30 1520 C 147.933 -0.972866 -1.65991 0
M  V30 1521 O 147.226 0.00166256 -1.916 0
M  V30 1522 C 147.42 -3.37689 -1.17051 0
M  V30 1523 C 147.249 -4.49489 -0.137875 0
M  V30 1524 C 146.019 -5.04498 0.284515 0
M  V30 1525 C 148.217 -5.10393 0.63271 0
M  V30 1526 N 146.199 -5.99853 1.30576 0
M  V30 1527 C 147.57 -6.01435 1.50587 0
M  V30 1528 C 149.625 -4.93143 0.68658 0
M  V30 1529 C 148.328 -6.77077 2.42815 0
M  V30 1530 C 150.354 -5.69445 1.59645 0
M  V30 1531 C 149.716 -6.60151 2.45725 0
M  V30 1532 H 145.815 -0.761467 -0.178023 0
M  V30 1533 H 148.399 -1.93924 0.173706 0
M  V30 1534 H 146.57 -3.39793 -1.88136 0
M  V30 1535 H 148.302 -3.62872 -1.79181 0
M  V30 1536 H 145.057 -4.73489 -0.102593 0
M  V30 1537 H 145.481 -6.52231 1.81449 0
M  V30 1538 H 150.123 -4.22785 0.035244 0
M  V30 1539 H 147.841 -7.46699 3.08975 0
M  V30 1540 H 151.427 -5.58112 1.64323 0
M  V30 1541 H 150.307 -7.18159 3.14987 0
M  V30 1542 N 147.81 0.181792 -1.56548 0
M  V30 1543 C 148.758 1.24461 -1.965 0
M  V30 1544 C 149.752 1.464 -0.852261 0
M  V30 1545 O 150.958 1.47103 -1.03733 0
M  V30 1546 H 147.333 0.418138 -0.625031 0
M  V30 1547 H 149.304 0.880714 -2.85107 0
M  V30 1548 C 148.053 2.57891 -2.33212 0
M  V30 1549 H 147.376 2.41829 -3.18369 0
M  V30 1550 H 148.816 3.3097 -2.65019 0
M  V30 1551 C 147.275 3.15871 -1.17163 0
M  V30 1552 O 147.805 3.9913 -0.453708 0
M  V30 1553 N 146.011 2.74808 -0.944936 0
M  V30 1554 H 145.558 2.07205 -1.53049 0
M  V30 1555 H 145.516 3.13939 -0.170286 0
M  V30 1556 N 149.288 1.51039 0.449983 0
M  V30 1557 C 150.537 1.62317 1.19733 0
M  V30 1558 C 150.85 0.339101 1.92638 0
M  V30 1559 O 152.056 0.331069 2.69474 0
M  V30 1560 C 150.512 2.86608 2.17678 0
M  V30 1561 C 150.12 4.21972 1.50479 0
M  V30 1562 C 151.864 3.07239 2.92924 0
M  V30 1563 C 149.771 5.37426 2.46834 0
M  V30 1564 H 148.701 0.604532 0.450619 0
M  V30 1565 H 151.352 1.77494 0.465625 0
M  V30 1566 H 149.734 2.65037 2.94231 0
M  V30 1567 H 150.908 4.53878 0.795716 0
M  V30 1568 H 149.223 4.07117 0.874344 0
M  V30 1569 H 151.82 3.90668 3.65079 0
M  V30 1570 H 152.163 2.19807 3.5354 0
M  V30 1571 H 152.696 3.29091 2.23481 0
M  V30 1572 H 149.435 6.27079 1.90926 0
M  V30 1573 H 148.955 5.09912 3.15832 0
M  V30 1574 H 150.634 5.68862 3.08228 0
M  V30 1575 N 150.766 -0.704594 1.40972 0
M  V30 1576 C 151.696 -1.83124 1.44872 0
M  V30 1577 C 152.677 -1.67281 0.30838 0
M  V30 1578 O 153.862 -1.87149 0.518556 0
M  V30 1579 C 150.992 -3.21181 1.32136 0
M  V30 1580 C 149.946 -3.51714 2.43888 0
M  V30 1581 C 149.272 -4.89032 2.16222 0
M  V30 1582 C 150.572 -3.516 3.86232 0
M  V30 1583 H 152.266 -1.80117 2.39161 0
M  V30 1584 H 149.812 -0.865145 1.15114 0
M  V30 1585 H 151.765 -3.99702 1.33479 0
M  V30 1586 H 150.489 -3.24791 0.343279 0
M  V30 1587 H 149.148 -2.75539 2.41813 0
M  V30 1588 H 148.796 -4.89256 1.16778 0
M  V30 1589 H 148.496 -5.10426 2.911 0
M  V30 1590 H 150.02 -5.69873 2.19265 0
M  V30 1591 H 151.434 -4.2014 3.9007 0
M  V30 1592 H 149.831 -3.84523 4.60719 0
M  V30 1593 H 150.901 -2.50757 4.15029 0
M  V30 1594 N 152.244 -1.26651 -0.937939 0
M  V30 1595 C 153.472 -1.15173 -1.7188 0
M  V30 1596 C 153.887 0.292668 -1.86518 0
M  V30 1597 O 153.244 1.20014 -1.37488 0
M  V30 1598 C 153.295 -1.81925 -3.12387 0
M  V30 1599 O 153.016 -3.2072 -2.98446 0
M  V30 1600 C 154.517 -1.76442 -4.06673 0
M  V30 1601 H 151.737 -0.400911 -0.538063 0
M  V30 1602 H 154.281 -1.67332 -1.1756 0
M  V30 1603 H 152.436 -1.33696 -3.63599 0
M  V30 1604 H 152.85 -3.53802 -3.872 0
M  V30 1605 H 154.324 -2.27781 -5.02812 0
M  V30 1606 H 154.801 -0.731608 -4.33064 0
M  V30 1607 H 155.407 -2.24238 -3.61382 0
M  V30 1608 N 153.722 1.14298 -1.08507 0
M  V30 1609 C 154.67 2.21483 -0.710483 0
M  V30 1610 C 155.664 1.66998 0.284234 0
M  V30 1611 O 156.87 1.79401 0.146692 0
M  V30 1612 H 153.245 0.721578 -0.211729 0
M  V30 1613 H 155.216 2.50348 -1.62384 0
M  V30 1614 C 153.965 3.4743 -0.137007 0
M  V30 1615 H 153.288 3.89686 -0.893592 0
M  V30 1616 H 154.728 4.2391 0.0872789 0
M  V30 1617 C 153.187 3.17548 1.12538 0
M  V30 1618 O 153.717 3.35437 2.21009 0
M  V30 1619 N 151.923 2.71499 1.03617 0
M  V30 1620 H 151.47 2.57143 0.153403 0
M  V30 1621 H 151.428 2.51881 1.88158 0
M  V30 1622 N 155.201 0.870884 1.31352 0
M  V30 1623 C 156.426 0.495957 2.01383 0
M  V30 1624 C 156.851 -0.904324 1.64935 0
M  V30 1625 O 156.209 -1.59687 0.858466 0
M  V30 1626 C 156.257 0.661433 3.54482 0
M  V30 1627 O 155.361 -0.298851 4.11316 0
M  V30 1628 H 154.702 0.197158 0.634054 0
M  V30 1629 H 157.232 1.17455 1.67527 0
M  V30 1630 H 157.242 0.555072 4.04207 0
M  V30 1631 H 155.917 1.68246 3.8035 0
M  V30 1632 H 154.494 -0.147368 3.72609 0
M  V30 1633 N 156.679 -1.44442 0.630414 0
M  V30 1634 C 157.589 -2.34476 -0.0761693 0
M  V30 1635 C 158.605 -1.52576 -0.836449 0
M  V30 1636 O 159.781 -1.85307 -0.788874 0
M  V30 1637 C 156.846 -3.30545 -1.04599 0
M  V30 1638 C 155.907 -4.28352 -0.28516 0
M  V30 1639 C 155.14 -5.19831 -1.20878 0
M  V30 1640 O 155.363 -5.15223 -2.44747 0
M  V30 1641 O 154.297 -5.97892 -0.693491 0
M  V30 1642 H 158.123 -2.96345 0.664324 0
M  V30 1643 H 155.708 -1.44203 0.39061 0
M  V30 1644 H 157.59 -3.89681 -1.60396 0
M  V30 1645 H 156.265 -2.7121 -1.76711 0
M  V30 1646 H 155.172 -3.72764 0.315837 0
M  V30 1647 H 156.505 -4.90605 0.395924 0
M  V30 1648 N 158.157 -0.370918 -1.53173 0
M  V30 1649 C 159.104 0.473035 -2.259 0
M  V30 1650 C 160.074 1.07311 -1.26781 0
M  V30 1651 O 161.259 1.1046 -1.55574 0
M  V30 1652 C 158.399 1.60405 -3.05556 0
M  V30 1653 C 157.512 1.02863 -4.19575 0
M  V30 1654 C 156.647 2.12918 -4.86661 0
M  V30 1655 C 155.686 1.52869 -5.92704 0
M  V30 1656 N 154.823 2.56779 -6.53459 0
M  V30 1657 H 159.663 -0.153649 -2.97604 0
M  V30 1658 H 157.2 -0.0875946 -1.46839 0
M  V30 1659 H 159.158 2.27034 -3.50016 0
M  V30 1660 H 157.788 2.20131 -2.36097 0
M  V30 1661 H 156.84 0.252465 -3.79561 0
M  V30 1662 H 158.152 0.549642 -4.95762 0
M  V30 1663 H 157.306 2.87356 -5.34333 0
M  V30 1664 H 156.045 2.6417 -4.09958 0
M  V30 1665 H 155.05 0.769479 -5.44389 0
M  V30 1666 H 156.275 1.02435 -6.7133 0
M  V30 1667 H 154.221 3.07235 -5.79606 0
M  V30 1668 H 154.138 2.13583 -7.25202 0
M  V30 1669 H 155.406 3.30903 -7.05779 0
M  V30 1670 N 159.635 1.57281 -0.100228 0
M  V30 1671 C 160.86 1.99302 0.573881 0
M  V30 1672 C 161.285 0.979059 1.60611 0
M  V30 1673 O 160.643 -0.0517803 1.81226 0
M  V30 1674 C 160.691 3.40274 1.19358 0
M  V30 1675 O 159.795 3.41676 2.30935 0
M  V30 1676 H 159.136 0.647944 0.145138 0
M  V30 1677 H 161.666 2.03779 -0.183156 0
M  V30 1678 H 161.676 3.78078 1.53365 0
M  V30 1679 H 160.351 4.13594 0.437385 0
M  V30 1680 H 158.928 3.15672 1.98509 0
M  V30 1681 N 161.113 -0.173488 1.56642 0
M  V30 1682 C 162.06 -1.21482 1.96242 0
M  V30 1683 C 163.03 -1.44104 0.826027 0
M  V30 1684 O 164.215 -1.5688 1.08597 0
M  V30 1685 C 161.355 -2.54964 2.32567 0
M  V30 1686 C 160.468 -2.39739 3.59373 0
M  V30 1687 C 159.603 -3.66072 3.84921 0
M  V30 1688 C 158.642 -3.45771 5.05083 0
M  V30 1689 N 157.779 -4.64169 5.26775 0
M  V30 1690 H 162.619 -0.870123 2.85014 0
M  V30 1691 H 160.156 -0.418245 1.41029 0
M  V30 1692 H 162.114 -3.32758 2.5165 0
M  V30 1693 H 160.744 -2.87433 1.46908 0
M  V30 1694 H 159.796 -1.53131 3.48217 0
M  V30 1695 H 161.108 -2.20683 4.47326 0
M  V30 1696 H 160.262 -4.52303 4.0436 0
M  V30 1697 H 159.001 -3.88105 2.9534 0
M  V30 1698 H 158.006 -2.57927 4.85545 0
M  V30 1699 H 159.231 -3.25163 5.96193 0
M  V30 1700 H 157.177 -4.86425 4.40144 0
M  V30 1701 H 157.094 -4.48019 6.08946 0
M  V30 1702 H 158.362 -5.51689 5.5069 0
M  V30 1703 N 162.591 -1.51276 -0.441967 0
M  V30 1704 C 163.538 -1.72256 -1.53612 0
M  V30 1705 C 164.508 -0.564164 -1.56225 0
M  V30 1706 O 165.693 -0.798074 -1.73307 0
M  V30 1707 C 162.833 -1.84932 -2.91366 0
M  V30 1708 C 161.946 -3.12459 -2.98317 0
M  V30 1709 C 161.081 -3.15758 -4.27166 0
M  V30 1710 C 160.12 -4.37619 -4.27967 0
M  V30 1711 N 159.257 -4.38493 -5.48333 0
M  V30 1712 H 164.097 -2.65654 -1.35026 0
M  V30 1713 H 161.634 -1.31662 -0.656009 0
M  V30 1714 H 163.592 -1.90263 -3.7129 0
M  V30 1715 H 162.222 -0.949461 -3.08521 0
M  V30 1716 H 161.274 -3.1646 -2.11086 0
M  V30 1717 H 162.586 -4.02382 -2.94771 0
M  V30 1718 H 161.74 -3.19979 -5.15459 0
M  V30 1719 H 160.479 -2.23715 -4.33362 0
M  V30 1720 H 159.484 -4.33579 -3.38067 0
M  V30 1721 H 160.709 -5.30921 -4.23438 0
M  V30 1722 H 158.655 -3.49318 -5.55259 0
M  V30 1723 H 158.572 -5.22219 -5.46647 0
M  V30 1724 H 159.84 -4.469 -6.38671 0
M  V30 1725 N 164.069 0.697108 -1.41344 0
M  V30 1726 C 165.032 1.79281 -1.42797 0
M  V30 1727 C 166.032 1.57607 -0.318837 0
M  V30 1728 O 167.222 1.64309 -0.578642 0
M  V30 1729 C 164.354 3.17632 -1.23785 0
M  V30 1730 H 165.547 1.79385 -2.40335 0
M  V30 1731 H 163.1 0.904582 -1.27464 0
M  V30 1732 H 163.835 3.23167 -0.270814 0
M  V30 1733 H 163.62 3.34765 -2.04144 0
M  V30 1734 H 165.11 3.97617 -1.27633 0
M  V30 1735 N 165.547 1.27147 0.931209 0
M  V30 1736 C 166.963 1.04475 1.20653 0
M  V30 1737 C 167.163 -0.223885 2.00252 0
M  V30 1738 O 166.219 -0.930332 2.34736 0
M  V30 1739 C 167.532 2.28209 1.95809 0
M  V30 1740 C 169.08 2.33211 2.08762 0
M  V30 1741 C 169.555 3.56665 2.87323 0
M  V30 1742 N 171.046 3.57201 2.94892 0
M  V30 1743 C 171.781 4.49395 3.56134 0
M  V30 1744 N 171.277 5.51889 4.18796 0
M  V30 1745 N 173.07 4.37026 3.53504 0
M  V30 1746 H 165.221 2.08612 0.399333 0
M  V30 1747 H 167.484 0.917312 0.239253 0
M  V30 1748 H 167.19 3.20538 1.44736 0
M  V30 1749 H 167.064 2.33247 2.96438 0
M  V30 1750 H 169.451 1.41391 2.59023 0
M  V30 1751 H 169.532 2.32178 1.07364 0
M  V30 1752 H 169.176 4.4882 2.37746 0
M  V30 1753 H 169.106 3.54948 3.88998 0
M  V30 1754 H 171.597 2.83074 2.50354 0
M  V30 1755 H 171.91 6.18409 4.63454 0
M  V30 1756 H 170.255 5.55735 4.17353 0
M  V30 1757 H 173.446 3.56166 3.03749 0
M  V30 1758 H 173.619 5.09067 4.00942 0
M  V30 1759 N 167.025 -1.13721 1.09112 0
M  V30 1760 C 167.935 -2.22638 0.73957 0
M  V30 1761 C 168.951 -1.72091 -0.257068 0
M  V30 1762 O 170.127 -2.01155 -0.0992154 0
M  V30 1763 C 167.192 -3.46322 0.16191 0
M  V30 1764 C 166.253 -4.11775 1.21408 0
M  V30 1765 C 165.486 -5.29555 0.663891 0
M  V30 1766 O 165.709 -5.68077 -0.514274 0
M  V30 1767 O 164.643 -5.84973 1.41738 0
M  V30 1768 H 168.469 -2.55074 1.64836 0
M  V30 1769 H 166.054 -1.21791 0.865289 0
M  V30 1770 H 167.936 -4.21107 -0.157073 0
M  V30 1771 H 166.611 -3.15593 -0.719932 0
M  V30 1772 H 165.518 -3.3883 1.58571 0
M  V30 1773 H 166.851 -4.46627 2.06845 0
M  V30 1774 N 168.503 -0.877838 -1.30888 0
M  V30 1775 C 169.751 -0.491723 -1.96027 0
M  V30 1776 C 170.072 0.960827 -1.69685 0
M  V30 1777 O 169.342 1.67462 -1.01654 0
M  V30 1778 H 167.922 -0.17885 -0.725273 0
M  V30 1779 H 170.584 -1.11935 -1.59551 0
M  V30 1780 H 169.68 -0.656016 -3.05128 0
M  V30 1781 N 169.982 1.44106 -0.638065 0
M  V30 1782 C 171.228 2.02277 -0.145546 0
M  V30 1783 C 171.561 1.50125 1.23191 0
M  V30 1784 O 170.836 0.688133 1.8192 0
M  V30 1785 C 171.119 3.59829 -0.139791 0
M  V30 1786 C 170.972 4.22247 -1.55008 0
M  V30 1787 C 172.291 4.36873 0.531966 0
M  V30 1788 H 169.41 0.734992 -0.0543632 0
M  V30 1789 H 172.052 1.71592 -0.815863 0
M  V30 1790 H 170.202 3.86102 0.431007 0
M  V30 1791 H 171.874 4.07057 -2.1703 0
M  V30 1792 H 170.117 3.79476 -2.10191 0
M  V30 1793 H 170.788 5.31284 -1.49804 0
M  V30 1794 H 173.264 4.16074 0.0464781 0
M  V30 1795 H 172.14 5.4657 0.505206 0
M  V30 1796 H 172.401 4.11995 1.60352 0
M  V30 1797 N 171.46 0.379036 1.52974 0
M  V30 1798 C 172.393 -0.504932 2.22544 0
M  V30 1799 C 173.371 -1.0723 1.22231 0
M  V30 1800 O 174.555 -1.12589 1.51182 0
M  V30 1801 C 171.682 -1.69794 2.93066 0
M  V30 1802 C 170.728 -1.25678 4.07563 0
M  V30 1803 S 171.561 -0.246852 5.34931 0
M  V30 1804 C 172.717 -1.44588 6.08971 0
M  V30 1805 H 172.95 0.0858666 2.97176 0
M  V30 1806 H 170.483 0.163183 1.53535 0
M  V30 1807 H 172.441 -2.38219 3.34308 0
M  V30 1808 H 171.102 -2.26002 2.18133 0
M  V30 1809 H 170.295 -2.14725 4.5597 0
M  V30 1810 H 169.897 -0.651584 3.6828 0
M  V30 1811 H 172.189 -2.37469 6.34519 0
M  V30 1812 H 173.132 -1.00292 7.00962 0
M  V30 1813 H 173.54 -1.65804 5.39601 0
M  V30 1814 N 172.938 -1.57226 0.108567 0
M  V30 1815 C 173.848 -2.18292 -0.859401 0
M  V30 1816 C 174.864 -1.15612 -1.30038 0
M  V30 1817 O 176.04 -1.48039 -1.36552 0
M  V30 1818 C 173.105 -2.762 -2.09558 0
M  V30 1819 C 172.166 -3.93881 -1.70752 0
M  V30 1820 C 171.399 -4.49018 -2.88477 0
M  V30 1821 O 171.622 -4.03068 -4.036 0
M  V30 1822 O 170.556 -5.39852 -2.66164 0
M  V30 1823 H 174.382 -3.01441 -0.369769 0
M  V30 1824 H 171.967 -1.48945 -0.1165 0
M  V30 1825 H 173.849 -3.13156 -2.81978 0
M  V30 1826 H 172.524 -1.96089 -2.57548 0
M  V30 1827 H 171.431 -3.61713 -0.954714 0
M  V30 1828 H 172.764 -4.75396 -1.27513 0
M  V30 1829 N 174.416 0.165178 -1.56732 0
M  V30 1830 C 175.663 0.880807 -1.8234 0
M  V30 1831 C 175.991 1.81977 -0.686621 0
M  V30 1832 O 175.246 1.92971 0.325697 0
M  V30 1833 C 175.545 1.70405 -3.1416 0
M  V30 1834 C 175.211 0.913475 -4.4155 0
M  V30 1835 C 173.873 0.695303 -4.7615 0
M  V30 1836 C 176.225 0.359349 -5.1996 0
M  V30 1837 C 173.553 -0.0879947 -5.86634 0
M  V30 1838 C 175.905 -0.410893 -6.31264 0
M  V30 1839 C 174.569 -0.639808 -6.64427 0
M  V30 1840 H 173.839 0.32231 -0.667231 0
M  V30 1841 H 176.486 0.145402 -1.90947 0
M  V30 1842 H 174.791 2.50903 -3.00923 0
M  V30 1843 H 176.488 2.26091 -3.31186 0
M  V30 1844 H 173.078 1.09357 -4.14414 0
M  V30 1845 H 177.262 0.515228 -4.93618 0
M  V30 1846 H 172.518 -0.27503 -6.10781 0
M  V30 1847 H 176.692 -0.847494 -6.91224 0
M  V30 1848 H 174.319 -1.24864 -7.49875 0
M  V30 1849 N 175.894 1.51508 0.433938 0
M  V30 1850 C 176.824 1.76016 1.53429 0
M  V30 1851 C 177.805 0.610112 1.58782 0
M  V30 1852 O 178.99 0.853177 1.74455 0
M  V30 1853 C 176.12 1.88831 2.9148 0
M  V30 1854 C 175.074 3.04288 3.00987 0
M  V30 1855 C 174.4 3.0229 4.4105 0
M  V30 1856 C 175.7 4.44193 2.74754 0
M  V30 1857 H 177.394 2.68152 1.33171 0
M  V30 1858 H 174.94 1.29035 0.639214 0
M  V30 1859 H 176.893 2.04559 3.6842 0
M  V30 1860 H 175.617 0.933455 3.12976 0
M  V30 1861 H 174.276 2.8827 2.26486 0
M  V30 1862 H 173.924 2.04576 4.59519 0
M  V30 1863 H 173.624 3.79822 4.4834 0
M  V30 1864 H 175.148 3.20116 5.1996 0
M  V30 1865 H 176.562 4.60544 3.41426 0
M  V30 1866 H 174.959 5.23457 2.9345 0
M  V30 1867 H 176.029 4.53996 1.70339 0
M  V30 1868 N 177.372 -0.689602 1.41712 0
M  V30 1869 C 178.302 -1.81577 1.46806 0
M  V30 1870 C 179.283 -1.66945 0.326105 0
M  V30 1871 O 180.468 -1.86588 0.538377 0
M  V30 1872 C 177.598 -3.19762 1.35535 0
M  V30 1873 C 176.552 -3.49107 2.47605 0
M  V30 1874 C 175.878 -4.86711 2.21397 0
M  V30 1875 C 177.178 -3.47483 3.89939 0
M  V30 1876 H 178.872 -1.7757 2.41058 0
M  V30 1877 H 176.418 -0.852887 1.16025 0
M  V30 1878 H 178.371 -3.98263 1.3771 0
M  V30 1879 H 177.095 -3.24409 0.377708 0
M  V30 1880 H 175.754 -2.72959 2.44722 0
M  V30 1881 H 175.402 -4.8799 1.21961 0
M  V30 1882 H 175.102 -5.0731 2.96497 0
M  V30 1883 H 176.626 -5.67515 2.25297 0
M  V30 1884 H 178.04 -4.1598 3.94505 0
M  V30 1885 H 176.437 -3.79615 4.64771 0
M  V30 1886 H 177.507 -2.46341 4.17665 0
M  V30 1887 N 178.85 -1.27639 -0.924453 0
M  V30 1888 C 179.813 -1.10681 -2.00705 0
M  V30 1889 C 180.813 -0.0497823 -1.60723 0
M  V30 1890 O 182.003 -0.294654 -1.7169 0
M  V30 1891 C 179.135 -0.687164 -3.33902 0
M  V30 1892 H 180.328 -2.06817 -2.17179 0
M  V30 1893 H 177.881 -1.10473 -1.10569 0
M  V30 1894 H 178.616 0.275439 -3.23128 0
M  V30 1895 H 178.401 -1.45061 -3.6428 0
M  V30 1896 H 179.891 -0.590853 -4.13399 0
M  V30 1897 N 180.328 1.1314 -1.09713 0
M  V30 1898 C 181.276 2.20717 -0.733934 0
M  V30 1899 C 182.27 1.6729 0.266506 0
M  V30 1900 O 183.476 1.79547 0.127656 0
M  V30 1901 H 179.851 0.719292 -0.21937 0
M  V30 1902 H 181.822 2.48611 -1.6503 0
M  V30 1903 C 180.571 3.47265 -0.173849 0
M  V30 1904 H 179.894 3.88716 -0.934873 0
M  V30 1905 H 181.334 4.23979 0.0423126 0
M  V30 1906 C 179.793 3.18724 1.09164 0
M  V30 1907 O 180.323 3.37762 2.17439 0
M  V30 1908 N 178.529 2.72583 1.00732 0
M  V30 1909 H 178.076 2.57291 0.126121 0
M  V30 1910 H 178.034 2.53862 1.85476 0
M  V30 1911 N 181.806 0.884767 1.30421 0
M  V30 1912 C 182.756 0.322846 2.25703 0
M  V30 1913 C 183.74 -0.548582 1.51259 0
M  V30 1914 O 184.932 -0.39304 1.72581 0
M  V30 1915 C 182.061 -0.461787 3.4018 0
M  V30 1916 C 181.147 0.423717 4.21978 0
M  V30 1917 N 181.538 1.52408 4.82292 0
M  V30 1918 C 179.836 0.218795 4.45463 0
M  V30 1919 C 180.537 2.07136 5.43571 0
M  V30 1920 N 179.513 1.36635 5.26148 0
M  V30 1921 H 183.315 1.16363 2.69883 0
M  V30 1922 H 180.829 0.73415 1.44859 0
M  V30 1923 H 182.826 -0.880985 4.07485 0
M  V30 1924 H 181.486 -1.30001 2.9754 0
M  V30 1925 H 182.497 1.90693 4.81515 0
M  V30 1926 H 179.174 -0.582275 4.1342 0
M  V30 1927 H 180.564 2.99538 6.01437 0
M  V30 1928 N 183.284 -1.43765 0.645699 0
M  V30 1929 C 184.695 -1.85193 0.236719 0
M  V30 1930 C 185.046 -1.54045 -1.21509 0
M  V30 1931 O 184.171 -0.985694 -1.92647 0
M  V30 1932 C 184.766 -3.36151 0.422845 0
M  V30 1933 C 183.325 -3.76338 0.0682492 0
M  V30 1934 C 182.472 -2.67538 0.729306 0
M  V30 1935 H 185.423 -1.34025 0.849883 0
M  V30 1936 H 185.444 -3.79032 -0.333904 0
M  V30 1937 H 184.956 -3.5879 1.47958 0
M  V30 1938 H 183.057 -3.59312 -0.986179 0
M  V30 1939 H 183.17 -4.76603 0.488469 0
M  V30 1940 H 181.534 -2.54176 0.163235 0
M  V30 1941 H 182.317 -2.93006 1.78892 0
M  V30 1942 N 184.763 -0.387143 -1.52771 0
M  V30 1943 C 185.693 0.440551 -2.29306 0
M  V30 1944 C 186.674 1.06535 -1.32606 0
M  V30 1945 O 187.859 1.07853 -1.61497 0
M  V30 1946 C 184.989 1.56919 -3.09829 0
M  V30 1947 C 183.943 1.07054 -4.14395 0
M  V30 1948 C 183.269 2.29109 -4.83129 0
M  V30 1949 C 184.569 0.140015 -5.22112 0
M  V30 1950 H 186.263 -0.198026 -2.98744 0
M  V30 1951 H 183.809 -0.09668 -1.43675 0
M  V30 1952 H 185.762 2.15503 -3.62128 0
M  V30 1953 H 184.486 2.23532 -2.3812 0
M  V30 1954 H 183.145 0.507247 -3.63074 0
M  V30 1955 H 182.793 2.94227 -4.0797 0
M  V30 1956 H 182.493 1.96406 -5.53804 0
M  V30 1957 H 184.017 2.88339 -5.38231 0
M  V30 1958 H 185.431 0.633978 -5.69784 0
M  V30 1959 H 183.828 -0.0971485 -6.00021 0
M  V30 1960 H 184.898 -0.811711 -4.78058 0
M  V30 1961 N 186.241 1.57166 -0.116904 0
M  V30 1962 C 187.518 1.86645 0.585049 0
M  V30 1963 C 187.898 1.0177 1.84949 0
M  V30 1964 O 187.246 0.0960379 2.28298 0
M  V30 1965 C 187.456 3.37736 0.879507 0
M  V30 1966 C 188.804 4.06289 1.23348 0
M  V30 1967 O 189.828 3.42743 0.969836 0
M  V30 1968 O 188.687 5.18455 1.7282 0
M  V30 1969 H 185.781 0.772593 0.295007 0
M  V30 1970 H 188.327 1.69025 -0.151249 0
M  V30 1971 H 187.099 3.91296 -0.0166136 0
M  V30 1972 H 186.722 3.6078 1.67103 0
M  V30 1973 N 187.719 -0.156864 1.56817 0
M  V30 1974 C 188.959 -0.877453 1.84608 0
M  V30 1975 C 189.323 -1.78791 0.699845 0
M  V30 1976 O 190.524 -2.5472 0.858553 0
M  V30 1977 C 188.795 -1.63992 3.17555 0
M  V30 1978 S 190.354 -2.40729 3.66872 0
M  V30 1979 H 187.172 -0.293612 0.647544 0
M  V30 1980 H 189.774 -0.138099 1.95012 0
M  V30 1981 H 188.478 -0.962363 3.98957 0
M  V30 1982 H 188.009 -2.42038 3.10131 0
M  V30 1983 H 190.024 -3.65725 3.3535 0
M  V30 1984 N 189.197 -1.51736 -0.425897 0
M  V30 1985 C 190.608 -1.5732 -1.00536 0
M  V30 1986 C 190.959 -0.403537 -1.92005 0
M  V30 1987 O 190.084 0.478256 -2.11049 0
M  V30 1988 C 190.679 -2.85119 -1.8301 0
M  V30 1989 C 189.238 -2.93236 -2.35987 0
M  V30 1990 C 188.385 -2.52098 -1.15508 0
M  V30 1991 H 191.336 -1.57348 -0.206739 0
M  V30 1992 H 191.357 -2.69526 -2.68581 0
M  V30 1993 H 190.869 -3.7023 -1.16411 0
M  V30 1994 H 188.97 -2.12581 -3.06007 0
M  V30 1995 H 189.083 -3.9713 -2.68001 0
M  V30 1996 H 187.447 -2.05558 -1.50393 0
M  V30 1997 H 188.23 -3.39565 -0.505014 0
M  V30 1998 N 190.675 0.682077 -1.42076 0
M  V30 1999 C 191.924 1.43786 -1.41451 0
M  V30 2000 C 192.237 1.95574 -0.0317074 0
M  V30 2001 O 193.443 2.71326 0.0971462 0
M  V30 2002 C 191.899 2.60071 -2.48779 0
M  V30 2003 C 191.507 2.15013 -3.93031 0
M  V30 2004 C 193.251 3.37626 -2.57311 0
M  V30 2005 C 191.158 3.28336 -4.91883 0
M  V30 2006 H 190.088 0.540143 -0.526082 0
M  V30 2007 H 192.739 0.739157 -1.67955 0
M  V30 2008 H 191.121 3.32275 -2.15429 0
M  V30 2009 H 192.295 1.5001 -4.35699 0
M  V30 2010 H 190.61 1.50416 -3.88284 0
M  V30 2011 H 193.207 4.22012 -3.28345 0
M  V30 2012 H 193.55 3.83727 -1.61429 0
M  V30 2013 H 194.083 2.72488 -2.89819 0
M  V30 2014 H 190.822 2.87234 -5.89217 0
M  V30 2015 H 190.342 3.92145 -4.53853 0
M  V30 2016 H 192.021 3.93913 -5.13265 0
M  V30 2017 N 192.153 1.28127 0.917671 0
M  V30 2018 C 193.393 1.163 1.68088 0
M  V30 2019 C 193.757 -0.284515 1.8988 0
M  V30 2020 O 194.958 -0.525413 2.63615 0
M  V30 2021 C 193.229 1.93546 3.00457 0
M  V30 2022 S 194.788 1.98048 3.91564 0
M  V30 2023 H 191.606 0.415005 0.577315 0
M  V30 2024 H 194.208 1.62173 1.09179 0
M  V30 2025 H 192.912 2.97888 2.82295 0
M  V30 2026 H 192.443 1.48207 3.64415 0
M  V30 2027 H 194.458 1.08415 4.84211 0
M  V30 2028 N 193.631 -1.12557 1.10312 0
M  V30 2029 C 194.908 -1.80363 0.756878 0
M  V30 2030 C 195.288 -1.97067 -0.756824 0
M  V30 2031 O 194.636 -1.54601 -1.68259 0
M  V30 2032 C 194.846 -3.14812 1.50647 0
M  V30 2033 C 196.194 -3.90029 1.67817 0
M  V30 2034 O 197.218 -3.24464 1.46974 0
M  V30 2035 O 196.077 -5.07652 2.02365 0
M  V30 2036 H 193.171 -0.780667 0.272926 0
M  V30 2037 H 195.717 -1.19404 1.20586 0
M  V30 2038 H 194.489 -2.97936 2.53672 0
M  V30 2039 H 194.112 -3.83478 1.05026 0
M  V30 2040 N 195.109 -0.891671 -1.2995 0
M  V30 2041 C 196.041 -0.320695 -2.26945 0
M  V30 2042 C 197.054 0.528497 -1.53983 0
M  V30 2043 O 198.243 0.346959 -1.75096 0
M  V30 2044 C 195.343 0.562066 -3.34207 0
M  V30 2045 C 194.516 -0.259576 -4.36629 0
M  V30 2046 C 193.575 0.554739 -5.23268 0
M  V30 2047 O 192.601 -0.0249311 -5.69195 0
M  V30 2048 N 193.803 1.8625 -5.4981 0
M  V30 2049 H 196.568 -1.15432 -2.76578 0
M  V30 2050 H 194.129 -0.755336 -1.432 0
M  V30 2051 H 196.121 1.11304 -3.89093 0
M  V30 2052 H 194.691 1.29637 -2.84452 0
M  V30 2053 H 193.911 -0.991986 -3.81514 0
M  V30 2054 H 195.199 -0.822564 -5.02107 0
M  V30 2055 H 194.597 2.35628 -5.14292 0
M  V30 2056 H 193.154 2.36078 -6.07545 0
M  V30 2057 N 196.587 1.43421 -0.653314 0
M  V30 2058 C 197.835 2.01414 -0.166415 0
M  V30 2059 C 198.156 1.51803 1.22397 0
M  V30 2060 O 197.426 0.730693 1.81763 0
M  V30 2061 H 196.006 0.744703 -0.0585319 0
M  V30 2062 H 198.668 1.75629 -0.845003 0
M  V30 2063 H 197.764 3.11734 -0.151111 0
M  V30 2064 N 198.065 0.39524 1.52563 0
M  V30 2065 C 199.313 -0.184678 2.01254 0
M  V30 2066 C 199.634 -1.46822 1.28329 0
M  V30 2067 O 198.904 -1.91666 0.405094 0
M  V30 2068 H 197.484 -0.0712355 0.743596 0
M  V30 2069 H 200.146 0.528293 1.87603 0
M  V30 2070 H 199.242 -0.390681 3.09645 0
M  V30 2071 N 199.544 -1.57102 0.125237 0
M  V30 2072 C 200.454 -2.19191 -0.8362 0
M  V30 2073 C 201.47 -1.16985 -1.28805 0
M  V30 2074 O 202.646 -1.49479 -1.34974 0
M  V30 2075 C 199.711 -2.78407 -2.06617 0
M  V30 2076 C 198.772 -3.9567 -1.66565 0
M  V30 2077 C 198.005 -4.52052 -2.83698 0
M  V30 2078 O 198.228 -4.07326 -3.99302 0
M  V30 2079 O 197.162 -5.42645 -2.60423 0
M  V30 2080 H 200.988 -3.01816 -0.337776 0
M  V30 2081 H 198.573 -1.4906 -0.100695 0
M  V30 2082 H 200.455 -3.16129 -2.7864 0
M  V30 2083 H 199.13 -1.9881 -2.55453 0
M  V30 2084 H 198.037 -3.62705 -0.916296 0
M  V30 2085 H 199.37 -4.76722 -1.22464 0
M  V30 2086 N 201.022 0.148545 -1.56898 0
M  V30 2087 C 202.262 0.86765 -1.85071 0
M  V30 2088 C 202.626 1.78417 -0.709317 0
M  V30 2089 O 203.827 2.54261 -0.872049 0
M  V30 2090 C 202.098 1.62306 -3.1842 0
M  V30 2091 S 203.657 2.3878 -3.68143 0
M  V30 2092 H 200.475 0.290174 -0.649092 0
M  V30 2093 H 203.077 0.127755 -1.95082 0
M  V30 2094 H 201.781 0.941192 -3.99462 0
M  V30 2095 H 201.312 2.4039 -3.1141 0
M  V30 2096 H 203.327 3.63942 -3.37285 0
M  V30 2097 N 202.5 1.5196 0.417844 0
M  V30 2098 C 203.777 1.56146 1.17803 0
M  V30 2099 C 204.157 0.337275 2.08388 0
M  V30 2100 O 203.505 -0.676447 2.18258 0
M  V30 2101 C 203.715 2.88566 1.96293 0
M  V30 2102 C 205.063 3.41244 2.52662 0
M  V30 2103 O 206.087 2.90247 2.06483 0
M  V30 2104 O 204.946 4.30273 3.36938 0
M  V30 2105 H 202.04 0.628598 0.537395 0
M  V30 2106 H 204.586 1.64283 0.425331 0
M  V30 2107 H 203.358 3.69116 1.2988 0
M  V30 2108 H 202.981 2.83681 2.78587 0
M  V30 2109 N 203.978 -0.674533 1.42435 0
M  V30 2110 C 204.908 -1.80009 1.48724 0
M  V30 2111 C 205.889 -1.6659 0.343793 0
M  V30 2112 O 207.074 -1.86007 0.558137 0
M  V30 2113 C 204.204 -3.18306 1.38919 0
M  V30 2114 C 203.158 -3.46461 2.51294 0
M  V30 2115 C 202.484 -4.84335 2.26547 0
M  V30 2116 C 203.784 -3.43328 3.93603 0
M  V30 2117 H 205.478 -1.75004 2.42928 0
M  V30 2118 H 203.024 -0.840533 1.16923 0
M  V30 2119 H 204.977 -3.9678 1.41927 0
M  V30 2120 H 203.701 -3.2399 0.412094 0
M  V30 2121 H 202.36 -2.70348 2.47604 0
M  V30 2122 H 202.008 -4.86669 1.2713 0
M  V30 2123 H 201.708 -5.04136 3.01861 0
M  V30 2124 H 203.232 -5.65094 2.31304 0
M  V30 2125 H 204.646 -4.11772 3.98894 0
M  V30 2126 H 203.043 -3.74664 4.68771 0
M  V30 2127 H 204.113 -2.41897 4.20255 0
M  V30 2128 N 205.456 -1.28612 -0.910864 0
M  V30 2129 C 206.388 -1.08589 -2.01844 0
M  V30 2130 C 207.401 -0.0367419 -1.62759 0
M  V30 2131 O 208.59 -0.280101 -1.76289 0
M  V30 2132 C 205.69 -0.628626 -3.33019 0
M  V30 2133 C 204.863 -1.75382 -4.00699 0
M  V30 2134 C 203.922 -1.28945 -5.10156 0
M  V30 2135 O 202.948 -1.9922 -5.33198 0
M  V30 2136 N 204.15 -0.154224 -5.80295 0
M  V30 2137 H 206.915 -2.03973 -2.19579 0
M  V30 2138 H 204.476 -1.20403 -1.08234 0
M  V30 2139 H 206.468 -0.301508 -4.03575 0
M  V30 2140 H 205.038 0.232451 -3.11735 0
M  V30 2141 H 204.258 -2.25039 -3.23653 0
M  V30 2142 H 205.546 -2.50854 -4.42662 0
M  V30 2143 H 204.944 0.43194 -5.64049 0
M  V30 2144 H 203.501 0.113599 -6.51701 0
M  V30 2145 N 206.934 1.1197 -1.10907 0
M  V30 2146 C 208.211 1.79959 -0.766432 0
M  V30 2147 C 208.591 1.97466 0.746363 0
M  V30 2148 O 207.939 1.55491 1.67436 0
M  V30 2149 C 208.149 3.14009 -1.52314 0
M  V30 2150 C 209.497 3.89134 -1.69883 0
M  V30 2151 O 210.521 3.2368 -1.48692 0
M  V30 2152 O 209.38 5.06572 -2.05054 0
M  V30 2153 H 206.474 0.779208 -0.277062 0
M  V30 2154 H 209.02 1.18762 -1.21217 0
M  V30 2155 H 207.792 2.96587 -2.55249 0
M  V30 2156 H 207.415 3.82915 -1.07059 0
M  V30 2157 N 208.412 0.89855 1.29475 0
M  V30 2158 C 209.344 0.332726 2.26772 0
M  V30 2159 C 210.357 -0.520323 1.54261 0
M  V30 2160 O 211.546 -0.337668 1.75277 0
M  V30 2161 C 208.646 -0.544334 3.345 0
M  V30 2162 C 207.819 0.282728 4.36485 0
M  V30 2163 C 206.878 -0.526982 5.23555 0
M  V30 2164 O 205.904 0.0551165 5.69173 0
M  V30 2165 N 207.106 -1.83331 5.5079 0
M  V30 2166 H 209.871 1.16897 2.75962 0
M  V30 2167 H 207.432 0.762919 1.42798 0
M  V30 2168 H 209.424 -1.09239 3.89678 0
M  V30 2169 H 207.994 -1.28127 2.85136 0
M  V30 2170 H 207.214 1.01221 3.80983 0
M  V30 2171 H 208.502 0.84918 5.01664 0
M  V30 2172 H 207.9 -2.32898 5.15534 0
M  V30 2173 H 206.457 -2.32852 6.08788 0
M  V30 2174 N 209.89 -1.43072 0.660911 0
M  V30 2175 C 211.115 -2.06584 0.183805 0
M  V30 2176 C 211.54 -1.49257 -1.14472 0
M  V30 2177 O 210.898 -0.605528 -1.70889 0
M  V30 2178 C 210.946 -3.60418 0.114434 0
M  V30 2179 O 210.05 -4.01981 -0.921137 0
M  V30 2180 H 209.391 -0.656669 0.0983994 0
M  V30 2181 H 211.921 -1.83447 0.906006 0
M  V30 2182 H 211.931 -4.07946 -0.0663394 0
M  V30 2183 H 210.606 -4.01519 1.08422 0
M  V30 2184 H 209.183 -3.66029 -0.71253 0
M  V30 2185 N 211.368 -0.403325 -1.52352 0
M  V30 2186 C 212.301 0.469463 -2.23319 0
M  V30 2187 C 213.279 1.05272 -1.23922 0
M  V30 2188 O 214.463 1.10169 -1.52954 0
M  V30 2189 C 211.59 1.6511 -2.9573 0
M  V30 2190 C 210.636 1.19178 -4.0951 0
M  V30 2191 S 211.469 0.161718 -5.35256 0
M  V30 2192 C 212.625 1.34882 -6.11194 0
M  V30 2193 H 212.858 -0.133134 -2.97002 0
M  V30 2194 H 210.391 -0.187588 -1.53256 0
M  V30 2195 H 212.349 2.3287 -3.38056 0
M  V30 2196 H 211.01 2.22503 -2.21701 0
M  V30 2197 H 210.203 2.07444 -4.59329 0
M  V30 2198 H 209.805 0.592911 -3.6927 0
M  V30 2199 H 212.097 2.27345 -6.38217 0
M  V30 2200 H 213.04 0.89128 -7.02468 0
M  V30 2201 H 213.448 1.57198 -5.42171 0
M  V30 2202 N 212.846 1.57033 -0.133567 0
M  V30 2203 C 213.779 2.11824 0.848872 0
M  V30 2204 C 214.757 1.03833 1.2513 0
M  V30 2205 O 215.941 1.31579 1.34978 0
M  V30 2206 C 213.068 2.62692 2.138 0
M  V30 2207 C 212.114 3.82705 1.88253 0
M  V30 2208 S 212.947 5.2438 1.08563 0
M  V30 2209 C 214.103 5.78627 2.38624 0
M  V30 2210 H 214.336 2.94824 0.38289 0
M  V30 2211 H 211.869 1.5419 0.0804796 0
M  V30 2212 H 213.827 2.92652 2.87863 0
M  V30 2213 H 212.488 1.79847 2.57515 0
M  V30 2214 H 211.681 4.16496 2.83809 0
M  V30 2215 H 211.283 3.53437 1.22305 0
M  V30 2216 H 213.575 5.8924 3.34369 0
M  V30 2217 H 214.518 6.76443 2.09358 0
M  V30 2218 H 214.926 5.06783 2.48658 0
M  V30 2219 N 214.325 -0.140222 1.56975 0
M  V30 2220 C 215.572 -0.851687 1.83719 0
M  V30 2221 C 215.9 -1.80862 0.715485 0
M  V30 2222 O 215.155 -1.93464 -0.294956 0
M  V30 2223 C 215.454 -1.65386 3.16832 0
M  V30 2224 C 215.12 -0.843112 4.42947 0
M  V30 2225 C 213.782 -0.619464 4.77196 0
M  V30 2226 C 216.134 -0.276582 5.20466 0
M  V30 2227 C 213.462 0.181312 5.8642 0
M  V30 2228 C 215.814 0.51127 6.30531 0
M  V30 2229 C 214.478 0.745432 6.63325 0
M  V30 2230 H 213.748 -0.311654 0.672274 0
M  V30 2231 H 216.395 -0.115006 1.91154 0
M  V30 2232 H 214.7 -2.46084 3.04877 0
M  V30 2233 H 216.397 -2.20793 3.34741 0
M  V30 2234 H 212.987 -1.0275 4.16101 0
M  V30 2235 H 217.171 -0.436632 4.94376 0
M  V30 2236 H 212.427 0.372165 6.10266 0
M  V30 2237 H 216.601 0.957354 6.89788 0
M  V30 2238 H 214.228 1.36778 7.47794 0
M  V30 2239 N 215.803 -1.52179 -0.40978 0
M  V30 2240 C 217.051 -1.65878 -1.15451 0
M  V30 2241 C 217.372 -0.390771 -1.91044 0
M  V30 2242 O 216.642 0.594323 -1.86667 0
M  V30 2243 H 215.222 -0.611405 -0.429177 0
M  V30 2244 H 217.884 -1.89219 -0.467134 0
M  V30 2245 H 216.98 -2.49954 -1.86894 0
M  V30 2246 N 217.281 0.66697 -1.42791 0
M  V30 2247 C 218.229 1.80157 -1.47127 0
M  V30 2248 C 219.223 1.65825 -0.346199 0
M  V30 2249 O 220.429 1.72338 -0.519572 0
M  V30 2250 H 216.804 0.594158 -0.460956 0
M  V30 2251 H 218.775 1.73619 -2.42692 0
M  V30 2252 C 217.524 3.18351 -1.39813 0
M  V30 2253 H 216.847 3.3001 -2.25684 0
M  V30 2254 H 218.287 3.97736 -1.46908 0
M  V30 2255 C 216.746 3.36707 -0.11391 0
M  V30 2256 O 217.276 3.93027 0.830241 0
M  V30 2257 N 215.482 2.90586 -0.0285295 0
M  V30 2258 H 215.029 2.4494 -0.79764 0
M  V30 2259 H 214.987 3.03245 0.830063 0
M  V30 2260 N 218.759 1.29093 0.90403 0
M  V30 2261 C 220.036 1.075 1.63411 0
M  V30 2262 C 220.416 -0.382346 2.07609 0
M  V30 2263 O 219.764 -1.37031 1.82851 0
M  V30 2264 C 219.974 2.05858 2.81822 0
M  V30 2265 C 221.322 2.36539 3.52611 0
M  V30 2266 O 222.346 2.04019 2.91984 0
M  V30 2267 O 221.205 2.92085 4.61897 0
M  V30 2268 H 218.299 0.411547 0.717327 0
M  V30 2269 H 220.845 1.40449 0.952479 0
M  V30 2270 H 219.617 3.04037 2.46327 0
M  V30 2271 H 219.24 1.73613 3.57693 0
M  V30 2272 N 220.237 -1.11381 1.11499 0
M  V30 2273 C 221.653 -1.35143 0.849031 0
M  V30 2274 C 221.853 -1.94515 -0.525938 0
M  V30 2275 O 220.909 -2.1785 -1.27662 0
M  V30 2276 C 222.222 -2.28249 1.95762 0
M  V30 2277 C 223.77 -2.41812 1.98736 0
M  V30 2278 C 224.245 -3.3824 3.088 0
M  V30 2279 N 225.736 -3.45803 3.08179 0
M  V30 2280 C 226.471 -4.20358 3.89982 0
M  V30 2281 N 225.967 -4.97884 4.8175 0
M  V30 2282 N 227.76 -4.15877 3.78157 0
M  V30 2283 H 219.911 -0.712062 2.00109 0
M  V30 2284 H 222.174 -0.376025 0.870235 0
M  V30 2285 H 221.88 -1.91817 2.94787 0
M  V30 2286 H 221.754 -3.28473 1.85433 0
M  V30 2287 H 224.141 -2.77518 1.00338 0
M  V30 2288 H 224.222 -1.41437 2.13141 0
M  V30 2289 H 223.866 -3.03261 4.07425 0
M  V30 2290 H 223.796 -4.38471 2.91635 0
M  V30 2291 H 226.287 -2.90506 2.41691 0
M  V30 2292 H 226.6 -5.52142 5.40702 0
M  V30 2293 H 224.945 -4.97043 4.85771 0
M  V30 2294 H 228.136 -3.544 3.05808 0
M  V30 2295 H 228.309 -4.73723 4.42143 0
M  V30 2296 N 221.715 -0.905404 -1.28997 0
M  V30 2297 C 222.94 -0.549175 -1.99997 0
M  V30 2298 C 223.365 0.860276 -1.67275 0
M  V30 2299 O 222.723 1.57355 -0.900502 0
M  V30 2300 C 222.771 -0.755185 -3.52604 0
M  V30 2301 O 221.875 0.189692 -4.11964 0
M  V30 2302 H 221.216 -0.213899 -0.628604 0
M  V30 2303 H 223.746 -1.21856 -1.64354 0
M  V30 2304 H 223.756 -0.662045 -4.02593 0
M  V30 2305 H 222.431 -1.78271 -3.75755 0
M  V30 2306 H 221.008 0.0485257 -3.72868 0
M  V30 2307 N 223.193 1.4272 -0.668489 0
M  V30 2308 C 224.609 1.55992 -0.33745 0
M  V30 2309 C 224.809 1.64933 1.15756 0
M  V30 2310 O 223.865 1.61278 1.94282 0
M  V30 2311 C 225.178 2.81314 -1.06222 0
M  V30 2312 C 226.726 2.95078 -1.04394 0
M  V30 2313 C 227.201 4.23252 -1.74991 0
M  V30 2314 N 228.692 4.3015 -1.71829 0
M  V30 2315 C 229.427 5.28127 -2.23315 0
M  V30 2316 N 228.923 6.32293 -2.83156 0
M  V30 2317 N 230.716 5.19882 -2.13726 0
M  V30 2318 H 222.867 1.3516 -1.63846 0
M  V30 2319 H 225.13 0.650174 -0.689912 0
M  V30 2320 H 224.836 2.80823 -2.11734 0
M  V30 2321 H 224.71 3.72012 -0.62344 0
M  V30 2322 H 227.097 2.951 0.0028244 0
M  V30 2323 H 227.178 2.05627 -1.52155 0
M  V30 2324 H 226.822 4.2399 -2.79633 0
M  V30 2325 H 226.752 5.11626 -1.24685 0
M  V30 2326 H 229.243 3.55499 -1.28175 0
M  V30 2327 H 229.556 7.03398 -3.20079 0
M  V30 2328 H 227.901 6.32873 -2.87223 0
M  V30 2329 H 231.092 4.37423 -1.66669 0
M  V30 2330 H 231.265 5.96077 -2.54158 0
M  V30 2331 N 224.671 0.411399 1.52136 0
M  V30 2332 C 225.918 -0.163645 2.01838 0
M  V30 2333 C 226.246 -1.4495 1.29691 0
M  V30 2334 O 225.501 -1.91725 0.392431 0
M  V30 2335 C 225.8 -0.455872 3.54481 0
M  V30 2336 C 225.466 0.741055 4.44769 0
M  V30 2337 C 224.128 1.06936 4.69167 0
M  V30 2338 C 226.48 1.54075 4.97906 0
M  V30 2339 C 223.808 2.19851 5.43951 0
M  V30 2340 C 226.16 2.66067 5.73926 0
M  V30 2341 C 224.824 2.99381 5.96596 0
M  V30 2342 H 224.094 -0.0598821 0.738576 0
M  V30 2343 H 226.741 0.553283 1.83333 0
M  V30 2344 H 225.046 -1.2544 3.71177 0
M  V30 2345 H 226.743 -0.913802 3.90449 0
M  V30 2346 H 223.333 0.475192 4.25958 0
M  V30 2347 H 227.517 1.30033 4.78963 0
M  V30 2348 H 222.773 2.46006 5.59724 0
M  V30 2349 H 226.947 3.28419 6.14096 0
M  V30 2350 H 224.574 3.86992 6.54325 0
M  V30 2351 N 226.149 -1.5696 0.141893 0
M  V30 2352 C 227.079 -2.19516 -0.795936 0
M  V30 2353 C 228.06 -1.14187 -1.26077 0
M  V30 2354 O 229.245 -1.42511 -1.31925 0
M  V30 2355 C 226.375 -2.81272 -2.03723 0
M  V30 2356 C 225.329 -3.92384 -1.70936 0
M  V30 2357 C 224.655 -4.41052 -3.02287 0
M  V30 2358 C 225.955 -5.13403 -0.959954 0
M  V30 2359 H 227.649 -2.98138 -0.274596 0
M  V30 2360 H 225.195 -1.43406 -0.130636 0
M  V30 2361 H 227.148 -3.237 -2.69808 0
M  V30 2362 H 225.872 -1.99973 -2.58221 0
M  V30 2363 H 224.531 -3.50566 -1.07232 0
M  V30 2364 H 224.179 -3.56582 -3.54765 0
M  V30 2365 H 223.879 -5.15993 -2.81114 0
M  V30 2366 H 225.403 -4.86146 -3.69451 0
M  V30 2367 H 226.817 -5.52706 -1.52279 0
M  V30 2368 H 225.214 -5.94073 -0.848357 0
M  V30 2369 H 226.284 -4.84875 0.0492434 0
M  V30 2370 N 227.627 0.131896 -1.57047 0
M  V30 2371 C 228.537 1.1815 -2.02676 0
M  V30 2372 C 229.553 1.46113 -0.944824 0
M  V30 2373 O 230.729 1.57485 -1.25541 0
M  V30 2374 C 227.794 2.49139 -2.41103 0
M  V30 2375 C 226.855 2.28688 -3.63318 0
M  V30 2376 C 226.088 3.53431 -3.99903 0
M  V30 2377 O 226.311 4.60223 -3.36973 0
M  V30 2378 O 225.245 3.45198 -4.93074 0
M  V30 2379 H 229.071 0.824069 -2.92306 0
M  V30 2380 H 226.656 0.341745 -1.45439 0
M  V30 2381 H 228.538 3.26338 -2.66611 0
M  V30 2382 H 227.213 2.84382 -1.54624 0
M  V30 2383 H 226.12 1.4939 -3.42977 0
M  V30 2384 H 227.453 1.98355 -4.50462 0
M  V30 2385 N 229.106 1.52395 0.401703 0
M  V30 2386 C 230.354 1.66488 1.14569 0
M  V30 2387 C 230.675 0.400897 1.90835 0
M  V30 2388 O 229.945 -0.584415 1.8698 0
M  V30 2389 H 228.525 0.613672 0.425929 0
M  V30 2390 H 231.187 1.89464 0.457093 0
M  V30 2391 H 230.283 2.50942 1.85566 0
M  V30 2392 N 230.584 -0.659388 1.43143 0
M  V30 2393 C 231.531 -1.77249 1.47822 0
M  V30 2394 C 232.501 -1.62818 0.328558 0
M  V30 2395 O 233.686 -1.83151 0.534838 0
M  V30 2396 C 230.826 -3.15371 1.40126 0
M  V30 2397 C 229.939 -3.4098 2.65249 0
M  V30 2398 C 229.074 -4.68915 2.49584 0
M  V30 2399 C 228.113 -4.87608 3.70006 0
M  V30 2400 N 227.25 -6.06796 3.53189 0
M  V30 2401 H 232.09 -1.72584 2.42938 0
M  V30 2402 H 229.627 -0.842297 1.20598 0
M  V30 2403 H 231.585 -3.9521 1.33659 0
M  V30 2404 H 230.215 -3.19121 0.485964 0
M  V30 2405 H 229.267 -2.55282 2.8202 0
M  V30 2406 H 230.579 -3.50681 3.54717 0
M  V30 2407 H 229.733 -5.56871 2.4079 0
M  V30 2408 H 228.472 -4.61524 1.5763 0
M  V30 2409 H 227.477 -3.9809 3.79215 0
M  V30 2410 H 228.702 -4.96834 4.62961 0
M  V30 2411 H 226.648 -6.00549 2.63965 0
M  V30 2412 H 226.565 -6.17428 4.36255 0
M  V30 2413 H 227.833 -6.9739 3.48236 0
M  V30 2414 N 232.062 -1.29571 -0.897171 0
M  V30 2415 C 233.478 -1.07637 -1.17841 0
M  V30 2416 C 233.678 0.170713 -2.00776 0
M  V30 2417 O 232.734 0.867768 -2.3712 0
M  V30 2418 C 234.047 -2.3332 -1.8969 0
M  V30 2419 C 235.595 -2.38664 -2.02505 0
M  V30 2420 C 236.07 -3.64157 -2.77765 0
M  V30 2421 N 237.561 -3.64894 -2.85318 0
M  V30 2422 C 238.296 -4.58679 -3.44094 0
M  V30 2423 N 237.792 -5.62799 -4.04017 0
M  V30 2424 N 239.585 -4.46245 -3.41793 0
M  V30 2425 H 231.736 -2.09598 -0.343883 0
M  V30 2426 H 233.999 -0.923333 -0.214848 0
M  V30 2427 H 233.705 -3.24262 -1.36187 0
M  V30 2428 H 233.579 -2.41025 -2.9015 0
M  V30 2429 H 235.966 -1.48208 -2.55183 0
M  V30 2430 H 236.047 -2.34943 -1.01171 0
M  V30 2431 H 235.691 -4.54965 -2.25763 0
M  V30 2432 H 235.621 -3.65137 -3.7945 0
M  V30 2433 H 238.112 -2.89613 -2.42761 0
M  V30 2434 H 238.425 -6.3048 -4.46895 0
M  V30 2435 H 236.77 -5.66605 -4.02472 0
M  V30 2436 H 239.961 -3.64094 -2.94199 0
M  V30 2437 H 240.134 -5.19518 -3.87304 0
M  V30 2438 N 233.54 1.10788 -1.12088 0
M  V30 2439 C 234.503 2.15207 -0.788577 0
M  V30 2440 C 235.503 1.59609 0.195317 0
M  V30 2441 O 236.693 1.74174 -0.0300193 0
M  V30 2442 C 233.825 3.4047 -0.171174 0
M  V30 2443 H 235.018 2.46116 -1.71368 0
M  V30 2444 H 232.571 1.26089 -0.923652 0
M  V30 2445 H 233.306 3.15176 0.763832 0
M  V30 2446 H 233.091 3.82109 -0.879514 0
M  V30 2447 H 234.581 4.17576 0.04496 0
M  V30 2448 N 235.018 0.912232 1.28515 0
M  V30 2449 C 236.264 0.545405 1.95328 0
M  V30 2450 C 236.597 -0.908313 1.71649 0
M  V30 2451 O 235.872 -1.64575 1.03659 0
M  V30 2452 C 236.155 0.853483 3.4984 0
M  V30 2453 C 236.008 2.35982 3.82926 0
M  V30 2454 C 237.327 0.348589 4.38717 0
M  V30 2455 H 234.446 0.199626 0.709449 0
M  V30 2456 H 237.088 1.1412 1.5191 0
M  V30 2457 H 235.238 0.34643 3.86952 0
M  V30 2458 H 236.91 2.93738 3.55691 0
M  V30 2459 H 235.153 2.81543 3.30024 0
M  V30 2460 H 235.824 2.52593 4.90816 0
M  V30 2461 H 238.3 0.78294 4.08668 0
M  V30 2462 H 237.176 0.593242 5.45685 0
M  V30 2463 H 237.437 -0.751049 4.35674 0
M  V30 2464 N 236.496 -1.42363 0.676048 0
M  V30 2465 C 237.406 -2.346 -0.00153389 0
M  V30 2466 C 238.422 -1.5516 -0.787485 0
M  V30 2467 O 239.598 -1.87723 -0.729521 0
M  V30 2468 C 236.663 -3.33705 -0.940298 0
M  V30 2469 C 235.724 -4.29042 -0.148739 0
M  V30 2470 C 234.957 -5.23413 -1.04279 0
M  V30 2471 O 235.18 -5.22749 -2.28232 0
M  V30 2472 O 234.114 -5.99795 -0.502925 0
M  V30 2473 H 237.94 -2.94082 0.758268 0
M  V30 2474 H 235.525 -1.42888 0.436289 0
M  V30 2475 H 237.407 -3.94586 -1.47917 0
M  V30 2476 H 236.082 -2.76695 -1.67993 0
M  V30 2477 H 234.989 -3.71571 0.43427 0
M  V30 2478 H 236.322 -4.89097 0.551805 0
M  V30 2479 N 237.974 -0.419461 -1.51915 0
M  V30 2480 C 239.251 0.211999 -1.94448 0
M  V30 2481 C 239.631 1.61703 -1.35703 0
M  V30 2482 O 238.979 2.22102 -0.536931 0
M  V30 2483 C 239.189 0.207872 -3.4838 0
M  V30 2484 C 240.537 0.422192 -4.22496 0
M  V30 2485 O 241.561 0.286778 -3.55044 0
M  V30 2486 O 240.42 0.690009 -5.42126 0
M  V30 2487 H 237.514 0.139586 -0.815135 0
M  V30 2488 H 240.06 -0.476151 -1.62883 0
M  V30 2489 H 238.832 -0.775102 -3.83546 0
M  V30 2490 H 238.455 0.939688 -3.86336 0
M  V30 2491 N 239.452 1.56882 -0.150215 0
M  V30 2492 C 240.399 2.16922 0.788244 0
M  V30 2493 C 241.369 1.10303 1.24187 0
M  V30 2494 O 242.554 1.38359 1.31383 0
M  V30 2495 C 239.694 2.79754 2.02068 0
M  V30 2496 C 238.807 4.00775 1.61257 0
M  V30 2497 C 237.942 4.51595 2.79705 0
M  V30 2498 C 236.981 5.65074 2.35282 0
M  V30 2499 N 236.118 6.10499 3.4675 0
M  V30 2500 H 240.958 2.96779 0.269444 0
M  V30 2501 H 238.495 1.46599 0.12128 0
M  V30 2502 H 240.453 3.14329 2.74323 0
M  V30 2503 H 239.083 2.02536 2.51354 0
M  V30 2504 H 238.135 3.72158 0.787553 0
M  V30 2505 H 239.447 4.82978 1.24633 0
M  V30 2506 H 238.601 4.88242 3.60145 0
M  V30 2507 H 237.34 3.68406 3.19576 0
M  V30 2508 H 236.345 5.28 1.53283 0
M  V30 2509 H 237.57 6.50052 1.96493 0
M  V30 2510 H 235.516 5.30243 3.86236 0
M  V30 2511 H 235.433 6.87637 3.14152 0
M  V30 2512 H 236.701 6.51791 4.27537 0
M  V30 2513 N 240.93 -0.123565 1.57115 0
M  V30 2514 C 241.878 -1.17082 2.00984 0
M  V30 2515 C 242.872 -1.43136 0.906009 0
M  V30 2516 O 244.078 -1.43152 1.09121 0
M  V30 2517 H 240.453 -0.394653 0.64012 0
M  V30 2518 H 242.424 -0.774292 2.88179 0
M  V30 2519 C 241.173 -2.49057 2.42623 0
M  V30 2520 H 240.496 -2.29846 3.27125 0
M  V30 2521 H 241.936 -3.20906 2.7712 0
M  V30 2522 C 240.395 -3.11305 1.28805 0
M  V30 2523 O 240.925 -3.97171 0.60153 0
M  V30 2524 N 239.131 -2.71111 1.04628 0
M  V30 2525 H 238.678 -2.01382 1.60634 0
M  V30 2526 H 238.636 -3.1309 0.286685 0
M  V30 2527 N 242.408 -1.52605 -0.393616 0
M  V30 2528 C 243.657 -1.66649 -1.13627 0
M  V30 2529 C 243.97 -0.410364 -1.91247 0
M  V30 2530 O 245.176 -0.430854 -2.68059 0
M  V30 2531 C 243.632 -2.9449 -2.06891 0
M  V30 2532 C 243.24 -4.27266 -1.34714 0
M  V30 2533 C 244.984 -3.17899 -2.81319 0
M  V30 2534 C 242.891 -5.46217 -2.26717 0
M  V30 2535 H 241.821 -0.62084 -0.427871 0
M  V30 2536 H 244.472 -1.791 -0.399428 0
M  V30 2537 H 242.854 -2.75774 -2.84191 0
M  V30 2538 H 244.028 -4.56518 -0.626714 0
M  V30 2539 H 242.343 -4.10081 -0.722643 0
M  V30 2540 H 244.94 -4.03949 -3.50328 0
M  V30 2541 H 245.283 -2.32777 -3.45139 0
M  V30 2542 H 245.816 -3.37159 -2.11113 0
M  V30 2543 H 242.555 -6.33733 -1.67521 0
M  V30 2544 H 242.075 -5.21283 -2.96689 0
M  V30 2545 H 243.754 -5.7991 -2.86903 0
M  V30 2546 N 243.887 0.651787 -1.4349 0
M  V30 2547 C 245.135 1.40888 -1.44897 0
M  V30 2548 C 245.456 1.94856 -0.0749086 0
M  V30 2549 O 244.726 1.74518 0.889956 0
M  V30 2550 H 243.306 0.522887 -0.533478 0
M  V30 2551 H 245.968 0.768609 -1.79104 0
M  V30 2552 H 245.064 2.25052 -2.16236 0
M  V30 2553 N 245.365 1.30045 0.890287 0
M  V30 2554 C 246.776 1.16738 1.45702 0
M  V30 2555 C 247.127 -0.233939 1.948 0
M  V30 2556 O 246.252 -1.13021 1.84541 0
M  V30 2557 C 246.847 2.11313 2.64825 0
M  V30 2558 C 245.406 2.02001 3.17604 0
M  V30 2559 C 244.553 2.01699 1.90296 0
M  V30 2560 H 247.504 1.42392 0.700726 0
M  V30 2561 H 247.525 1.69086 3.40867 0
M  V30 2562 H 247.037 3.13294 2.2906 0
M  V30 2563 H 245.138 1.03142 3.5804 0
M  V30 2564 H 245.251 2.90128 3.81264 0
M  V30 2565 H 243.615 1.46427 2.08402 0
M  V30 2566 H 244.398 3.05402 1.56795 0
M  V30 2567 N 246.843 -1.10192 1.12674 0
M  V30 2568 C 247.773 -2.18652 0.819362 0
M  V30 2569 C 248.754 -1.68698 -0.217915 0
M  V30 2570 O 249.939 -1.94041 -0.0785581 0
M  V30 2571 C 247.069 -3.46202 0.27594 0
M  V30 2572 C 246.023 -4.09444 1.24656 0
M  V30 2573 C 245.349 -5.31725 0.563258 0
M  V30 2574 C 246.649 -4.52863 2.60217 0
M  V30 2575 H 248.343 -2.44622 1.72628 0
M  V30 2576 H 245.889 -1.17571 0.831451 0
M  V30 2577 H 247.842 -4.21372 0.0486149 0
M  V30 2578 H 246.566 -3.1973 -0.666331 0
M  V30 2579 H 245.225 -3.36284 1.45974 0
M  V30 2580 H 244.873 -5.0153 -0.384235 0
M  V30 2581 H 244.573 -5.74991 1.21075 0
M  V30 2582 H 246.097 -6.09624 0.34503 0
M  V30 2583 H 247.511 -5.19294 2.42913 0
M  V30 2584 H 245.908 -5.06986 3.21068 0
M  V30 2585 H 246.978 -3.65656 3.18471 0
M  V30 2586 N 248.321 -0.919034 -1.28029 0
M  V30 2587 C 249.567 -0.555757 -1.95036 0
M  V30 2588 C 249.9 0.899198 -1.72128 0
M  V30 2589 O 249.175 1.64023 -1.04531 0
M  V30 2590 C 249.458 -0.872024 -3.49382 0
M  V30 2591 C 249.311 -2.3801 -3.81669 0
M  V30 2592 C 250.63 -0.37185 -4.38526 0
M  V30 2593 H 247.749 -0.203386 -0.708381 0
M  V30 2594 H 250.391 -1.14924 -1.51303 0
M  V30 2595 H 248.541 -0.366946 -3.86763 0
M  V30 2596 H 250.213 -2.9562 -3.54128 0
M  V30 2597 H 248.456 -2.83289 -3.28526 0
M  V30 2598 H 249.127 -2.55192 -4.8947 0
M  V30 2599 H 251.603 -0.804602 -4.08247 0
M  V30 2600 H 250.479 -0.622173 -5.45362 0
M  V30 2601 H 250.74 0.727934 -4.36066 0
M  V30 2602 N 249.799 1.42003 -0.683588 0
M  V30 2603 C 250.746 2.30798 -0.0107309 0
M  V30 2604 C 251.716 1.4645 0.783688 0
M  V30 2605 O 252.901 1.75263 0.754156 0
M  V30 2606 C 250.041 3.3238 0.928306 0
M  V30 2607 C 249.154 4.31814 0.126776 0
M  V30 2608 C 248.289 5.20468 1.06236 0
M  V30 2609 C 247.328 6.11577 0.253035 0
M  V30 2610 N 246.465 6.92754 1.14179 0
M  V30 2611 H 251.305 2.8778 -0.773727 0
M  V30 2612 H 248.842 1.41745 -0.393283 0
M  V30 2613 H 250.8 3.89813 1.48666 0
M  V30 2614 H 249.43 2.76976 1.65783 0
M  V30 2615 H 248.482 3.76427 -0.54833 0
M  V30 2616 H 249.794 4.96276 -0.501192 0
M  V30 2617 H 248.948 5.82677 1.69035 0
M  V30 2618 H 247.687 4.56204 1.7242 0
M  V30 2619 H 246.692 5.48428 -0.388108 0
M  V30 2620 H 247.917 6.77892 -0.404839 0
M  V30 2621 H 245.863 6.3111 1.78987 0
M  V30 2622 H 245.78 7.53855 0.569111 0
M  V30 2623 H 247.048 7.59441 1.75697 0
M  V30 2624 N 251.277 0.427512 1.51691 0
M  V30 2625 C 252.505 -0.141191 2.06418 0
M  V30 2626 C 252.92 -1.37303 1.29589 0
M  V30 2627 O 252.277 -1.79059 0.352732 0
M  V30 2628 C 252.328 -0.473266 3.58389 0
M  V30 2629 O 252.049 0.709673 4.32314 0
M  V30 2630 C 253.55 -1.09371 4.29596 0
M  V30 2631 H 250.77 -0.0122747 0.670888 0
M  V30 2632 H 253.314 0.603764 1.95384 0
M  V30 2633 H 251.469 -1.16812 3.69369 0
M  V30 2634 H 251.883 0.42807 5.2275 0
M  V30 2635 H 253.357 -1.27613 5.37046 0
M  V30 2636 H 253.834 -2.072 3.87253 0
M  V30 2637 H 254.44 -0.43853 4.23033 0
M  V30 2638 N 252.755 -1.56801 0.158532 0
M  V30 2639 C 254.004 -1.95665 -0.489702 0
M  V30 2640 C 254.317 -1.04654 -1.65248 0
M  V30 2641 O 255.523 -1.33146 -2.3661 0
M  V30 2642 C 253.979 -3.47874 -0.922582 0
M  V30 2643 C 253.587 -4.47489 0.213893 0
M  V30 2644 C 255.331 -3.95583 -1.53996 0
M  V30 2645 C 253.238 -5.90921 -0.237903 0
M  V30 2646 H 252.168 -0.730516 -0.186716 0
M  V30 2647 H 254.819 -1.81861 0.244722 0
M  V30 2648 H 253.201 -3.57051 -1.71261 0
M  V30 2649 H 254.375 -4.50017 0.991036 0
M  V30 2650 H 252.69 -4.09764 0.740407 0
M  V30 2651 H 255.287 -5.0019 -1.8898 0
M  V30 2652 H 255.63 -3.37789 -2.43319 0
M  V30 2653 H 256.163 -3.8937 -0.814611 0
M  V30 2654 H 252.902 -6.52559 0.620236 0
M  V30 2655 H 252.422 -5.91729 -0.980676 0
M  V30 2656 H 254.101 -6.43352 -0.686067 0
M  V30 2657 N 254.233 0.115231 -1.57178 0
M  V30 2658 C 255.166 1.17166 -1.95825 0
M  V30 2659 C 256.144 1.39912 -0.828463 0
M  V30 2660 O 257.328 1.54004 -1.08697 0
M  V30 2661 C 254.455 2.52478 -2.25771 0
M  V30 2662 C 253.501 2.46136 -3.48309 0
M  V30 2663 S 254.334 1.89736 -5.0076 0
M  V30 2664 C 255.49 3.26713 -5.33863 0
M  V30 2665 H 255.723 0.842103 -2.85124 0
M  V30 2666 H 253.256 0.322136 -1.51002 0
M  V30 2667 H 255.214 3.30332 -2.43702 0
M  V30 2668 H 253.875 2.82609 -1.37079 0
M  V30 2669 H 253.068 3.45819 -3.66641 0
M  V30 2670 H 252.67 1.76404 -3.29784 0
M  V30 2671 H 254.962 4.22935 -5.29275 0
M  V30 2672 H 255.905 3.13205 -6.35065 0
M  V30 2673 H 256.313 3.25316 -4.61335 0
M  V30 2674 N 255.711 1.52812 0.385517 0
M  V30 2675 C 256.939 1.71907 1.15133 0
M  V30 2676 C 257.354 0.439004 1.83625 0
M  V30 2677 O 256.711 -0.586765 1.7281 0
M  V30 2678 C 256.762 2.87099 2.19673 0
M  V30 2679 O 256.483 4.10151 1.53973 0
M  V30 2680 C 257.984 3.17902 3.08955 0
M  V30 2681 H 255.204 0.575479 0.345057 0
M  V30 2682 H 257.748 1.99476 0.45052 0
M  V30 2683 H 255.903 2.61982 2.85384 0
M  V30 2684 H 256.317 4.74514 2.23465 0
M  V30 2685 H 257.791 4.01959 3.7833 0
M  V30 2686 H 258.268 2.3243 3.72657 0
M  V30 2687 H 258.874 3.44871 2.48885 0
M  V30 2688 N 257.189 -0.644168 1.43834 0
M  V30 2689 C 258.605 -0.960875 1.27434 0
M  V30 2690 C 258.805 -2.00499 0.200618 0
M  V30 2691 O 257.861 -2.49018 -0.417906 0
M  V30 2692 C 259.174 -1.43653 2.64167 0
M  V30 2693 C 260.722 -1.55271 2.71772 0
M  V30 2694 C 261.197 -2.06224 4.08944 0
M  V30 2695 N 262.688 -2.13513 4.11055 0
M  V30 2696 C 263.423 -2.54081 5.14033 0
M  V30 2697 N 262.919 -2.9388 6.27381 0
M  V30 2698 N 264.712 -2.54101 5.01387 0
M  V30 2699 H 256.863 0.0465779 2.12349 0
M  V30 2700 H 259.126 -0.0417638 0.94708 0
M  V30 2701 H 258.832 -0.743706 3.43747 0
M  V30 2702 H 258.706 -2.40993 2.90176 0
M  V30 2703 H 261.093 -2.23653 1.92519 0
M  V30 2704 H 261.174 -0.563395 2.49519 0
M  V30 2705 H 260.818 -1.38441 4.88668 0
M  V30 2706 H 260.748 -3.06003 4.28567 0
M  V30 2707 H 263.239 -1.85493 3.29242 0
M  V30 2708 H 263.552 -3.2361 7.01781 0
M  V30 2709 H 261.897 -2.91663 6.30839 0
M  V30 2710 H 265.088 -2.22391 4.11898 0
M  V30 2711 H 265.261 -2.85394 5.81768 0
M  V30 2712 N 258.668 -1.30515 -0.883378 0
M  V30 2713 C 259.908 -1.20716 -1.64946 0
M  V30 2714 C 260.272 0.234072 -1.90568 0
M  V30 2715 O 261.473 0.455335 -2.64915 0
M  V30 2716 C 259.744 -2.01444 -2.9522 0
M  V30 2717 S 261.303 -2.0836 -3.86175 0
M  V30 2718 H 258.121 -0.430165 -0.566109 0
M  V30 2719 H 260.723 -1.65011 -1.04841 0
M  V30 2720 H 259.427 -3.05268 -2.74298 0
M  V30 2721 H 258.958 -1.57817 -3.60357 0
M  V30 2722 H 260.973 -1.21215 -4.81167 0
M  V30 2723 N 260.146 1.09593 -1.13257 0
M  V30 2724 C 261.395 1.81105 -0.887917 0
M  V30 2725 C 261.708 1.86563 0.587672 0
M  V30 2726 O 262.914 2.54367 0.949204 0
M  V30 2727 C 261.37 3.25338 -1.53895 0
M  V30 2728 C 260.978 3.28151 -3.04994 0
M  V30 2729 C 262.722 4.01617 -1.37492 0
M  V30 2730 C 260.629 4.66897 -3.6299 0
M  V30 2731 H 259.559 0.678661 -0.328534 0
M  V30 2732 H 262.21 1.23183 -1.36008 0
M  V30 2733 H 260.592 3.8331 -0.994446 0
M  V30 2734 H 261.766 2.79953 -3.66009 0
M  V30 2735 H 260.081 2.65361 -3.20893 0
M  V30 2736 H 262.678 5.04119 -1.78235 0
M  V30 2737 H 263.021 4.15072 -0.31957 0
M  V30 2738 H 263.554 3.50082 -1.88912 0
M  V30 2739 H 260.293 4.58643 -4.68323 0
M  V30 2740 H 259.813 5.15426 -3.06752 0
M  V30 2741 H 261.492 5.3587 -3.62563 0
M  V30 2742 N 261.624 0.925811 1.2754 0
M  V30 2743 C 262.556 0.380753 2.26015 0
M  V30 2744 C 263.569 -0.487485 1.5533 0
M  V30 2745 O 264.758 -0.300413 1.75954 0
M  V30 2746 C 261.858 -0.473259 3.35579 0
M  V30 2747 C 261.031 0.375249 4.35787 0
M  V30 2748 C 260.09 -0.415809 5.24555 0
M  V30 2749 O 259.116 0.175834 5.68928 0
M  V30 2750 N 260.318 -1.71607 5.54555 0
M  V30 2751 H 263.083 1.22725 2.73421 0
M  V30 2752 H 260.644 0.793037 1.41147 0
M  V30 2753 H 262.636 -1.00949 3.91907 0
M  V30 2754 H 261.206 -1.2205 2.87789 0
M  V30 2755 H 260.426 1.09279 3.7875 0
M  V30 2756 H 261.714 0.955399 4.99749 0
M  V30 2757 H 261.112 -2.2191 5.20358 0
M  V30 2758 H 259.669 -2.19887 6.1359 0
M  V30 2759 N 263.102 -1.41638 0.69111 0
M  V30 2760 C 264.342 -2.03166 0.224291 0
M  V30 2761 C 264.706 -1.53537 -1.15284 0
M  V30 2762 O 265.907 -2.0696 -1.71525 0
M  V30 2763 C 264.178 -3.56342 0.274758 0
M  V30 2764 S 265.737 -4.3864 -0.118669 0
M  V30 2765 H 262.555 -0.705188 0.0907263 0
M  V30 2766 H 265.157 -1.7314 0.907895 0
M  V30 2767 H 263.861 -3.89958 1.2791 0
M  V30 2768 H 263.392 -3.91063 -0.428142 0
M  V30 2769 H 265.407 -4.77549 -1.34764 0
M  V30 2770 N 264.58 -0.43555 -1.51462 0
M  V30 2771 C 265.808 0.130242 -2.0649 0
M  V30 2772 C 266.223 1.36614 -1.30315 0
M  V30 2773 O 265.58 1.78869 -0.362223 0
M  V30 2774 C 265.631 0.454253 -3.58635 0
M  V30 2775 O 265.352 -0.73259 -4.31931 0
M  V30 2776 C 266.853 1.07091 -4.3017 0
M  V30 2777 H 264.073 0.00871669 -0.670943 0
M  V30 2778 H 266.617 -0.614117 -1.95061 0
M  V30 2779 H 264.772 1.14851 -3.69984 0
M  V30 2780 H 265.186 -0.455787 -5.22516 0
M  V30 2781 H 266.66 1.24764 -5.37716 0
M  V30 2782 H 267.137 2.05144 -3.88346 0
M  V30 2783 H 267.743 0.416089 -4.2326 0
M  V30 2784 N 266.058 1.56714 -0.166846 0
M  V30 2785 C 267.474 1.58473 0.189372 0
M  V30 2786 C 267.674 1.18201 1.63189 0
M  V30 2787 O 266.73 0.891528 2.36237 0
M  V30 2788 C 268.043 3.00573 -0.0873872 0
M  V30 2789 C 269.591 3.1299 -0.0252443 0
M  V30 2790 C 270.066 4.57174 -0.274934 0
M  V30 2791 N 271.557 4.62665 -0.222553 0
M  V30 2792 C 272.292 5.72072 -0.389985 0
M  V30 2793 N 271.788 6.90054 -0.616229 0
M  V30 2794 N 273.581 5.61153 -0.326202 0
M  V30 2795 H 265.732 1.8118 -1.10849 0
M  V30 2796 H 267.995 0.839525 -0.440342 0
M  V30 2797 H 267.701 3.34497 -1.0865 0
M  V30 2798 H 267.575 3.72019 0.623037 0
M  V30 2799 H 269.962 2.78895 0.96444 0
M  V30 2800 H 270.043 2.43989 -0.768309 0
M  V30 2801 H 269.687 4.91976 -1.26181 0
M  V30 2802 H 269.617 5.24328 0.48869 0
M  V30 2803 H 272.108 3.77863 -0.0531512 0
M  V30 2804 H 272.421 7.69311 -0.733559 0
M  V30 2805 H 270.766 6.91927 -0.652791 0
M  V30 2806 H 273.957 4.67859 -0.150072 0
M  V30 2807 H 274.13 6.46364 -0.460116 0
M  V30 2808 N 267.536 -0.106894 1.57237 0
M  V30 2809 C 268.776 -0.818277 1.87306 0
M  V30 2810 C 269.14 -1.76474 0.756371 0
M  V30 2811 O 270.341 -2.5186 0.939155 0
M  V30 2812 C 268.612 -1.53806 3.22612 0
M  V30 2813 S 270.171 -2.28935 3.74345 0
M  V30 2814 H 266.989 -0.272862 0.656557 0
M  V30 2815 H 269.591 -0.075988 1.95352 0
M  V30 2816 H 268.295 -0.834951 4.01817 0
M  V30 2817 H 267.826 -2.32049 3.17674 0
M  V30 2818 H 269.841 -3.54871 3.46815 0
M  V30 2819 N 269.014 -1.53014 -0.377408 0
M  V30 2820 C 270.263 -1.67845 -1.11853 0
M  V30 2821 C 270.576 -0.430625 -1.90801 0
M  V30 2822 O 271.782 -0.459261 -2.67587 0
M  V30 2823 C 270.238 -2.96668 -2.03756 0
M  V30 2824 C 269.846 -4.28671 -1.30175 0
M  V30 2825 C 271.59 -3.20865 -2.77932 0
M  V30 2826 C 269.497 -5.48591 -2.20911 0
M  V30 2827 H 268.427 -0.625343 -0.421263 0
M  V30 2828 H 271.078 -1.79514 -0.380409 0
M  V30 2829 H 269.46 -2.78773 -2.8125 0
M  V30 2830 H 270.634 -4.57157 -0.578259 0
M  V30 2831 H 268.949 -4.10825 -0.679108 0
M  V30 2832 H 271.546 -4.07642 -3.46024 0
M  V30 2833 H 271.889 -2.36424 -3.4265 0
M  V30 2834 H 272.422 -3.39379 -2.07525 0
M  V30 2835 H 269.161 -6.35474 -1.6079 0
M  V30 2836 H 268.681 -5.244 -2.91144 0
M  V30 2837 H 270.36 -5.8292 -2.80736 0
M  V30 2838 N 270.492 0.636531 -1.44174 0
M  V30 2839 C 271.908 0.954104 -1.27941 0
M  V30 2840 C 272.108 2.0039 -0.211248 0
M  V30 2841 O 271.164 2.49236 0.404695 0
M  V30 2842 C 272.477 1.4225 -2.64925 0
M  V30 2843 C 274.025 1.53827 -2.72592 0
M  V30 2844 C 274.5 2.04053 -4.10032 0
M  V30 2845 N 275.991 2.11331 -4.12182 0
M  V30 2846 C 276.726 2.51352 -5.15374 0
M  V30 2847 N 276.222 2.90549 -6.2893 0
M  V30 2848 N 278.015 2.51438 -5.02728 0
M  V30 2849 H 270.166 -0.0578386 -2.12321 0
M  V30 2850 H 272.429 0.0367406 -0.947288 0
M  V30 2851 H 272.135 0.725466 -3.44136 0
M  V30 2852 H 272.009 2.39451 -2.9145 0
M  V30 2853 H 274.396 2.22628 -1.93702 0
M  V30 2854 H 274.477 0.550154 -2.49814 0
M  V30 2855 H 274.121 1.35848 -4.89395 0
M  V30 2856 H 274.051 3.03726 -4.30184 0
M  V30 2857 H 276.542 1.83745 -3.30222 0
M  V30 2858 H 276.855 3.19884 -7.03487 0
M  V30 2859 H 275.2 2.88313 -6.32377 0
M  V30 2860 H 278.391 2.20203 -4.13072 0
M  V30 2861 H 278.564 2.82304 -5.83274 0
M  V30 2862 N 271.97 1.30982 0.876444 0
M  V30 2863 C 273.217 1.20296 1.62896 0
M  V30 2864 C 273.545 -0.240395 1.93009 0
M  V30 2865 O 272.8 -1.18733 1.55567 0
M  V30 2866 C 273.099 1.98572 2.9716 0
M  V30 2867 C 272.765 3.48125 2.86566 0
M  V30 2868 C 271.427 3.88905 2.83383 0
M  V30 2869 C 273.779 4.43322 2.74071 0
M  V30 2870 C 271.107 5.2316 2.65556 0
M  V30 2871 C 273.459 5.77695 2.57781 0
M  V30 2872 C 272.123 6.17704 2.52979 0
M  V30 2873 H 271.393 0.440193 0.59608 0
M  V30 2874 H 274.04 1.62177 1.01837 0
M  V30 2875 H 272.345 1.49352 3.62217 0
M  V30 2876 H 274.042 1.8769 3.54364 0
M  V30 2877 H 270.632 3.15723 2.89856 0
M  V30 2878 H 274.816 4.12752 2.75589 0
M  V30 2879 H 270.072 5.53241 2.60259 0
M  V30 2880 H 274.246 6.51091 2.47089 0
M  V30 2881 H 271.873 7.21678 2.38924 0
M  V30 2882 N 273.449 -1.08991 1.13837 0
M  V30 2883 C 274.412 -2.13925 0.822715 0
M  V30 2884 C 275.412 -1.599 -0.1699 0
M  V30 2885 O 276.602 -1.74104 0.0577251 0
M  V30 2886 C 273.734 -3.40155 0.225318 0
M  V30 2887 H 274.927 -2.43358 1.75262 0
M  V30 2888 H 272.48 -1.24603 0.943594 0
M  V30 2889 H 273.215 -3.16352 -0.713594 0
M  V30 2890 H 273 -3.80661 0.940193 0
M  V30 2891 H 274.49 -4.17594 0.0214784 0
M  V30 2892 N 274.927 -0.932562 -1.27047 0
M  V30 2893 C 276.152 -0.591474 -1.98787 0
M  V30 2894 C 276.577 0.824601 -1.69062 0
M  V30 2895 O 275.935 1.5541 -0.933677 0
M  V30 2896 C 275.983 -0.829808 -3.50922 0
M  V30 2897 O 275.087 0.102266 -4.12273 0
M  V30 2898 H 274.428 -0.227185 -0.623926 0
M  V30 2899 H 276.958 -1.25314 -1.61733 0
M  V30 2900 H 276.968 -0.747292 -4.01098 0
M  V30 2901 H 275.643 -1.86201 -3.7189 0
M  V30 2902 H 274.22 -0.0305761 -3.72887 0
M  V30 2903 N 276.405 1.4127 -0.698611 0
M  V30 2904 C 277.315 2.34573 -0.0357891 0
M  V30 2905 C 278.331 1.56393 0.762701 0
M  V30 2906 O 279.507 1.8886 0.699564 0
M  V30 2907 C 276.572 3.35159 0.887089 0
M  V30 2908 C 275.633 4.29225 0.0804634 0
M  V30 2909 C 274.866 5.25006 0.959387 0
M  V30 2910 O 275.089 5.26314 2.19886 0
M  V30 2911 O 274.023 6.00519 0.407439 0
M  V30 2912 H 277.849 2.92838 -0.804957 0
M  V30 2913 H 275.434 1.42175 -0.458966 0
M  V30 2914 H 277.316 3.9689 1.41621 0
M  V30 2915 H 275.991 2.79333 1.6357 0
M  V30 2916 H 274.898 3.70833 -0.493328 0
M  V30 2917 H 276.231 4.88157 -0.629547 0
M  V30 2918 N 277.883 0.443576 1.51229 0
M  V30 2919 C 279.132 -0.122332 2.01329 0
M  V30 2920 C 279.445 -1.43237 1.33201 0
M  V30 2921 O 280.651 -2.0816 1.74304 0
M  V30 2922 C 279.107 -0.268551 3.58897 0
M  V30 2923 C 278.715 1.03142 4.35965 0
M  V30 2924 C 280.459 -0.787894 4.17124 0
M  V30 2925 C 278.366 0.850504 5.85252 0
M  V30 2926 H 277.296 -0.0494929 0.752374 0
M  V30 2927 H 279.947 0.574289 1.74282 0
M  V30 2928 H 278.329 -1.02832 3.82415 0
M  V30 2929 H 279.503 1.80001 4.24189 0
M  V30 2930 H 277.818 1.47977 3.89219 0
M  V30 2931 H 280.415 -0.939841 5.26375 0
M  V30 2932 H 280.758 -1.77201 3.76703 0
M  V30 2933 H 281.291 -0.0862669 3.97706 0
M  V30 2934 H 278.03 1.80718 6.30096 0
M  V30 2935 H 277.55 0.121825 5.99676 0
M  V30 2936 H 279.229 0.506163 6.45017 0
M  V30 2937 N 279.361 -1.56624 0.175154 0
M  V30 2938 C 280.324 -2.16934 -0.739738 0
M  V30 2939 C 281.324 -1.11842 -1.15533 0
M  V30 2940 O 282.514 -1.37335 -1.07167 0
M  V30 2941 C 279.646 -2.75531 -2.00738 0
M  V30 2942 H 280.839 -2.99131 -0.214639 0
M  V30 2943 H 278.392 -1.56123 -0.0744197 0
M  V30 2944 H 279.127 -1.97078 -2.57548 0
M  V30 2945 H 278.912 -3.52444 -1.71831 0
M  V30 2946 H 280.402 -3.21904 -2.66021 0
M  V30 2947 N 280.839 0.0985539 -1.57292 0
M  V30 2948 C 282.087 0.801092 -1.85545 0
M  V30 2949 C 282.408 1.79438 -0.763353 0
M  V30 2950 O 281.678 1.94763 0.21073 0
M  V30 2951 H 280.258 0.29884 -0.684619 0
M  V30 2952 H 282.92 0.0810064 -1.94732 0
M  V30 2953 H 282.016 1.3338 -2.82163 0
M  V30 2954 N 282.317 1.53212 0.369288 0
M  V30 2955 C 283.563 1.69466 1.11397 0
M  V30 2956 C 283.896 0.443257 1.89074 0
M  V30 2957 O 283.171 -0.559386 1.86282 0
M  V30 2958 C 283.454 2.9422 2.07621 0
M  V30 2959 C 283.307 4.29508 1.33577 0
M  V30 2960 C 284.626 3.14565 3.07794 0
M  V30 2961 H 281.745 0.616667 0.403597 0
M  V30 2962 H 284.387 1.85845 0.395179 0
M  V30 2963 H 282.537 2.80387 2.68916 0
M  V30 2964 H 284.209 4.55147 0.750955 0
M  V30 2965 H 282.452 4.29088 0.637618 0
M  V30 2966 H 283.123 5.12926 2.03989 0
M  V30 2967 H 285.599 3.2756 2.56601 0
M  V30 2968 H 284.475 4.03297 3.72348 0
M  V30 2969 H 284.736 2.29675 3.77759 0
M  V30 2970 N 283.795 -0.628877 1.44509 0
M  V30 2971 C 285.072 -1.38733 1.37886 0
M  V30 2972 C 285.452 -2.11065 0.0387008 0
M  V30 2973 O 284.8 -2.06476 -0.97878 0
M  V30 2974 C 285.01 -2.35188 2.57852 0
M  V30 2975 C 286.358 -2.9845 3.02014 0
M  V30 2976 O 287.382 -2.45513 2.58073 0
M  V30 2977 O 286.241 -3.94487 3.78209 0
M  V30 2978 H 283.335 -0.621015 0.54614 0
M  V30 2979 H 285.881 -0.653744 1.56602 0
M  V30 2980 H 284.653 -1.80855 3.46998 0
M  V30 2981 H 284.276 -3.1596 2.4136 0
M  V30 2982 N 285.273 -1.31445 -0.869486 0
M  V30 2983 C 286.55 -1.11795 -1.60503 0
M  V30 2984 C 286.93 0.327168 -2.08549 0
M  V30 2985 O 286.278 1.32135 -1.8642 0
M  V30 2986 C 286.488 -2.13258 -2.76265 0
M  V30 2987 C 287.836 -2.45805 -3.46215 0
M  V30 2988 O 288.86 -2.11688 -2.86473 0
M  V30 2989 O 287.719 -3.04228 -4.5399 0
M  V30 2990 H 284.813 -0.430421 -0.706163 0
M  V30 2991 H 287.359 -1.42925 -0.914907 0
M  V30 2992 H 286.131 -3.10461 -2.3818 0
M  V30 2993 H 285.754 -1.83035 -3.52964 0
M  V30 2994 N 286.751 1.08385 -1.14413 0
M  V30 2995 C 287.681 2.17321 -0.854044 0
M  V30 2996 C 288.662 1.69024 0.191049 0
M  V30 2997 O 289.847 1.94141 0.0476779 0
M  V30 2998 C 286.977 3.45719 -0.330983 0
M  V30 2999 C 285.931 4.07409 -1.31155 0
M  V30 3000 C 285.257 5.30762 -0.64778 0
M  V30 3001 C 286.557 4.48665 -2.67388 0
M  V30 3002 H 288.251 2.41845 -1.76498 0
M  V30 3003 H 285.797 1.16233 -0.850051 0
M  V30 3004 H 287.75 4.21241 -0.115645 0
M  V30 3005 H 286.474 3.2075 0.615381 0
M  V30 3006 H 285.133 3.33919 -1.51306 0
M  V30 3007 H 284.781 5.02078 0.304398 0
M  V30 3008 H 284.481 5.72992 -1.30207 0
M  V30 3009 H 286.005 6.08998 -0.441972 0
M  V30 3010 H 287.419 5.15364 -2.51143 0
M  V30 3011 H 285.816 5.01814 -3.29093 0
M  V30 3012 H 286.886 3.60543 -3.24248 0
M  V30 3013 N 288.23 0.939286 1.26551 0
M  V30 3014 C 289.478 0.58469 1.93457 0
M  V30 3015 C 289.799 -0.878774 1.74076 0
M  V30 3016 O 289.069 -1.62421 1.09528 0
M  V30 3017 H 287.649 0.21325 0.715914 0
M  V30 3018 H 290.311 1.1942 1.54029 0
M  V30 3019 H 289.407 0.800849 3.0165 0
M  V30 3020 N 289.708 -1.40897 0.706093 0
M  V30 3021 C 290.936 -2.05373 0.250887 0
M  V30 3022 C 291.351 -1.53172 -1.10381 0
M  V30 3023 O 290.708 -0.684305 -1.69185 0
M  V30 3024 C 290.759 -3.6088 0.211571 0
M  V30 3025 O 290.48 -4.11153 1.51276 0
M  V30 3026 C 291.981 -4.42517 -0.263346 0
M  V30 3027 H 289.201 -0.66115 0.114552 0
M  V30 3028 H 291.745 -1.80479 0.961635 0
M  V30 3029 H 289.9 -3.84777 -0.450073 0
M  V30 3030 H 290.314 -5.05279 1.40689 0
M  V30 3031 H 291.788 -5.51479 -0.239718 0
M  V30 3032 H 292.265 -4.19396 -1.30397 0
M  V30 3033 H 292.871 -4.23708 0.367677 0
M  V30 3034 N 291.186 -0.45159 -1.50991 0
M  V30 3035 C 292.414 0.108334 -2.06616 0
M  V30 3036 C 292.829 1.35224 -1.31757 0
M  V30 3037 O 292.186 1.78475 -0.381174 0
M  V30 3038 C 292.237 0.41619 -3.59096 0
M  V30 3039 O 291.958 -0.778361 -4.3113 0
M  V30 3040 C 293.459 1.02523 -4.31282 0
M  V30 3041 H 290.679 0.00159995 -0.670998 0
M  V30 3042 H 293.223 -0.634771 -1.94399 0
M  V30 3043 H 291.378 1.10921 -3.71181 0
M  V30 3044 H 291.792 -0.511181 -5.22003 0
M  V30 3045 H 293.266 1.19053 -5.39009 0
M  V30 3046 H 293.743 2.01013 -3.905 0
M  V30 3047 H 294.349 0.371173 -4.23677 0
M  V30 3048 N 292.664 1.56529 -0.183458 0
M  V30 3049 C 293.912 1.96855 0.457452 0
M  V30 3050 C 294.233 1.07104 1.62953 0
M  V30 3051 O 293.503 0.139887 1.954 0
M  V30 3052 H 292.083 0.72693 0.171992 0
M  V30 3053 H 294.745 1.93056 -0.267476 0
M  V30 3054 H 293.841 3.01423 0.809368 0
M  V30 3055 N 294.142 -0.090211 1.57342 0
M  V30 3056 C 295.558 -0.444547 1.53284 0
M  V30 3057 C 295.758 -1.80238 0.900914 0
M  V30 3058 O 294.814 -2.4759 0.495513 0
M  V30 3059 C 296.127 -0.402543 2.97993 0
M  V30 3060 C 297.675 -0.48405 3.09234 0
M  V30 3061 C 298.15 -0.472144 4.5556 0
M  V30 3062 N 299.641 -0.532757 4.60126 0
M  V30 3063 C 300.376 -0.545462 5.708 0
M  V30 3064 N 299.872 -0.514082 6.9089 0
M  V30 3065 N 301.665 -0.59064 5.58988 0
M  V30 3066 H 293.816 0.799121 1.96794 0
M  V30 3067 H 296.079 0.297965 0.899956 0
M  V30 3068 H 295.785 0.528106 3.47712 0
M  V30 3069 H 295.659 -1.21969 3.56936 0
M  V30 3070 H 298.046 -1.40512 2.595 0
M  V30 3071 H 298.127 0.361328 2.53235 0
M  V30 3072 H 297.771 0.445 5.05947 0
M  V30 3073 H 297.701 -1.3348 5.09402 0
M  V30 3074 H 300.192 -0.562006 3.73698 0
M  V30 3075 H 300.505 -0.527195 7.71 0
M  V30 3076 H 298.85 -0.481054 6.93333 0
M  V30 3077 H 302.041 -0.61272 4.64073 0
M  V30 3078 H 302.214 -0.597073 6.45243 0
M  V30 3079 N 295.62 -1.53406 -0.361157 0
M  V30 3080 C 296.868 -1.69467 -1.10115 0
M  V30 3081 C 297.189 -0.451352 -1.89705 0
M  V30 3082 O 296.459 0.534636 -1.88463 0
M  V30 3083 H 295.039 -0.624749 -0.409508 0
M  V30 3084 H 297.701 -1.90609 -0.406699 0
M  V30 3085 H 296.797 -2.55774 -1.78847 0
M  V30 3086 N 297.098 0.621204 -1.44841 0
M  V30 3087 C 298.046 1.75385 -1.52784 0
M  V30 3088 C 299.04 1.64639 -0.398779 0
M  V30 3089 O 300.246 1.70598 -0.574137 0
M  V30 3090 H 296.621 0.579193 -0.479625 0
M  V30 3091 H 298.592 1.6581 -2.48092 0
M  V30 3092 C 297.341 3.13742 -1.4987 0
M  V30 3093 H 296.664 3.22663 -2.36069 0
M  V30 3094 H 298.104 3.92861 -1.59487 0
M  V30 3095 C 296.563 3.36175 -0.220973 0
M  V30 3096 O 297.093 3.95469 0.704782 0
M  V30 3097 N 295.299 2.90348 -0.120963 0
M  V30 3098 H 294.846 2.42278 -0.875162 0
M  V30 3099 H 294.804 3.05732 0.733168 0
M  V30 3100 N 298.576 1.31904 0.862503 0
M  V30 3101 C 299.853 1.12644 1.59908 0
M  V30 3102 C 300.233 -0.316104 2.0872 0
M  V30 3103 O 299.581 -1.31145 1.87118 0
M  V30 3104 C 299.791 2.1472 2.7513 0
M  V30 3105 C 301.139 2.47637 3.44907 0
M  V30 3106 O 302.163 2.13205 2.85346 0
M  V30 3107 O 301.022 3.06632 4.52371 0
M  V30 3108 H 298.116 0.43416 0.703871 0
M  V30 3109 H 300.662 1.43408 0.907314 0
M  V30 3110 H 299.434 3.1172 2.3653 0
M  V30 3111 H 299.057 1.84905 3.51989 0
M  V30 3112 N 300.054 -1.07777 1.14986 0
M  V30 3113 C 300.987 -2.14228 0.786243 0
M  V30 3114 C 301.965 -1.60888 -0.235347 0
M  V30 3115 O 303.149 -1.88099 -0.122909 0
M  V30 3116 C 300.276 -3.38281 0.168433 0
M  V30 3117 C 299.322 -4.10387 1.16123 0
M  V30 3118 S 300.155 -4.62371 2.70135 0
M  V30 3119 C 301.311 -5.89704 2.09762 0
M  V30 3120 H 301.544 -2.44741 1.68787 0
M  V30 3121 H 299.077 -1.19984 0.971756 0
M  V30 3122 H 301.035 -4.10098 -0.181588 0
M  V30 3123 H 299.696 -3.05953 -0.710725 0
M  V30 3124 H 298.889 -4.99431 0.677086 0
M  V30 3125 H 298.491 -3.44513 1.45556 0
M  V30 3126 H 300.783 -6.61648 1.45701 0
M  V30 3127 H 301.726 -6.42824 2.96955 0
M  V30 3128 H 302.134 -5.4302 1.54239 0
M  V30 3129 N 301.532 -0.945985 -1.26051 0
M  V30 3130 C 302.464 -0.416662 -2.25381 0
M  V30 3131 C 303.477 0.462712 -1.56086 0
M  V30 3132 O 304.666 0.272383 -1.7641 0
M  V30 3133 C 301.766 0.419812 -3.3629 0
M  V30 3134 C 300.939 -0.444531 -4.35135 0
M  V30 3135 C 299.998 0.332305 -5.2515 0
M  V30 3136 O 299.024 -0.266324 -5.68577 0
M  V30 3137 N 300.226 1.62763 -5.57215 0
M  V30 3138 H 302.991 -1.27059 -2.71433 0
M  V30 3139 H 300.552 -0.815392 -1.39868 0
M  V30 3140 H 302.544 0.947013 -3.93464 0
M  V30 3141 H 301.114 1.17456 -2.89694 0
M  V30 3142 H 300.334 -1.15291 -3.76964 0
M  V30 3143 H 301.622 -1.03478 -4.98166 0
M  V30 3144 H 301.02 2.13603 -5.23823 0
M  V30 3145 H 299.577 2.10097 -6.17011 0
M  V30 3146 N 303.011 1.40521 -0.713556 0
M  V30 3147 C 304.257 2.01221 -0.252564 0
M  V30 3148 C 304.59 1.56444 1.1506 0
M  V30 3149 O 303.865 0.783597 1.78017 0
M  V30 3150 C 304.148 3.58582 -0.330332 0
M  V30 3151 C 304.001 4.13437 -1.77173 0
M  V30 3152 C 305.32 4.39079 0.299641 0
M  V30 3153 H 302.439 0.731077 -0.0932471 0
M  V30 3154 H 305.081 1.67026 -0.905673 0
M  V30 3155 H 303.231 3.87844 0.225737 0
M  V30 3156 H 304.903 3.9498 -2.38303 0
M  V30 3157 H 303.146 3.67801 -2.3001 0
M  V30 3158 H 303.817 5.22597 -1.77755 0
M  V30 3159 H 306.293 4.15735 -0.174139 0
M  V30 3160 H 305.169 5.4848 0.214771 0
M  V30 3161 H 305.43 4.19915 1.38288 0
M  V30 3162 N 304.489 0.459591 1.5075 0
M  V30 3163 C 305.737 -0.0991532 2.01857 0
M  V30 3164 C 306.058 -1.41247 1.34441 0
M  V30 3165 O 305.328 -1.89775 0.486022 0
M  V30 3166 H 303.908 -0.039633 0.745948 0
M  V30 3167 H 306.57 0.607387 1.85194 0
M  V30 3168 H 305.666 -0.258998 3.11023 0
M  V30 3169 N 305.967 -1.56429 0.191757 0
M  V30 3170 C 307.195 -2.01867 -0.453586 0
M  V30 3171 C 307.61 -1.07191 -1.5542 0
M  V30 3172 O 306.967 -0.0762108 -1.82341 0
M  V30 3173 C 307.018 -3.47017 -1.013 0
M  V30 3174 O 306.739 -4.38078 0.0437005 0
M  V30 3175 C 308.24 -4.07956 -1.73456 0
M  V30 3176 H 305.46 -0.661211 -0.114199 0
M  V30 3177 H 308.004 -2.02295 0.299483 0
M  V30 3178 H 306.159 -3.47298 -1.71647 0
M  V30 3179 H 306.573 -5.23178 -0.372212 0
M  V30 3180 H 308.047 -5.1138 -2.07833 0
M  V30 3181 H 308.524 -3.51222 -2.63704 0
M  V30 3182 H 309.13 -4.11437 -1.07702 0
M  V30 3183 N 307.445 0.0818655 -1.57387 0
M  V30 3184 C 308.675 0.794954 -1.90694 0
M  V30 3185 C 309.083 1.72147 -0.784982 0
M  V30 3186 O 308.426 1.81974 0.251196 0
M  V30 3187 C 308.488 1.65042 -3.19376 0
M  V30 3188 C 308.152 0.894337 -4.48164 0
M  V30 3189 C 309.149 0.21813 -5.19442 0
M  V30 3190 C 306.834 0.864495 -4.94805 0
M  V30 3191 C 308.828 -0.477802 -6.35607 0
M  V30 3192 C 306.515 0.164785 -6.10878 0
M  V30 3193 C 307.513 -0.505173 -6.81129 0
M  V30 3194 O 307.201 -1.19363 -7.94989 0
M  V30 3195 H 306.933 0.231779 -0.635023 0
M  V30 3196 H 309.487 0.059493 -2.05314 0
M  V30 3197 H 307.717 2.42844 -3.00938 0
M  V30 3198 H 309.406 2.24127 -3.38411 0
M  V30 3199 H 310.172 0.232558 -4.84442 0
M  V30 3200 H 306.051 1.37542 -4.40004 0
M  V30 3201 H 309.595 -1.00129 -6.90377 0
M  V30 3202 H 305.492 0.148249 -6.4533 0
M  V30 3203 H 306.26 -1.10188 -8.11049 0
M  V30 3204 N 308.923 1.53595 0.353017 0
M  V30 3205 C 310.172 1.69603 1.09168 0
M  V30 3206 C 310.485 0.460925 1.90092 0
M  V30 3207 O 311.691 0.501774 2.66823 0
M  V30 3208 C 310.147 2.99872 1.9901 0
M  V30 3209 C 309.755 4.30687 1.23339 0
M  V30 3210 C 311.499 3.25246 2.72792 0
M  V30 3211 C 309.406 5.52036 2.12156 0
M  V30 3212 H 308.336 0.631966 0.411261 0
M  V30 3213 H 310.987 1.80096 0.351802 0
M  V30 3214 H 309.369 2.83212 2.7678 0
M  V30 3215 H 310.543 4.58019 0.505456 0
M  V30 3216 H 308.858 4.11853 0.613663 0
M  V30 3217 H 311.455 4.13095 3.39495 0
M  V30 3218 H 311.798 2.41846 3.38846 0
M  V30 3219 H 312.331 3.42638 2.021 0
M  V30 3220 H 309.07 6.37951 1.50659 0
M  V30 3221 H 308.59 5.28966 2.82764 0
M  V30 3222 H 310.269 5.87313 2.71427 0
M  V30 3223 N 310.401 -0.613514 1.45168 0
M  V30 3224 C 311.311 -1.75296 1.55912 0
M  V30 3225 C 312.327 -1.68244 0.443856 0
M  V30 3226 O 313.503 -1.88706 0.70371 0
M  V30 3227 C 310.568 -3.1174 1.5172 0
M  V30 3228 C 309.629 -3.30291 2.74238 0
M  V30 3229 C 308.862 -4.60226 2.70236 0
M  V30 3230 O 309.085 -5.42168 1.77229 0
M  V30 3231 O 308.019 -4.81361 3.61352 0
M  V30 3232 H 311.845 -1.69183 2.52212 0
M  V30 3233 H 309.43 -0.776886 1.27612 0
M  V30 3234 H 311.312 -3.93044 1.51968 0
M  V30 3235 H 309.987 -3.18357 0.585697 0
M  V30 3236 H 308.894 -2.48598 2.79553 0
M  V30 3237 H 310.227 -3.28547 3.66494 0
M  V30 3238 N 311.879 -1.3236 -0.855495 0
M  V30 3239 C 312.826 -1.21225 -1.964 0
M  V30 3240 C 313.796 -0.0946204 -1.6583 0
M  V30 3241 O 314.981 -0.27002 -1.8888 0
M  V30 3242 C 312.121 -0.940419 -3.32039 0
M  V30 3243 C 311.234 -2.14276 -3.75113 0
M  V30 3244 C 310.369 -1.80648 -4.9954 0
M  V30 3245 C 309.408 -2.97208 -5.35102 0
M  V30 3246 N 308.545 -2.63678 -6.50706 0
M  V30 3247 H 313.385 -2.16042 -2.05255 0
M  V30 3248 H 310.922 -1.07451 -1.00463 0
M  V30 3249 H 312.88 -0.763311 -4.10158 0
M  V30 3250 H 311.51 -0.0290413 -3.22787 0
M  V30 3251 H 310.562 -2.43017 -2.92655 0
M  V30 3252 H 311.874 -3.01468 -3.97389 0
M  V30 3253 H 311.028 -1.59484 -5.85363 0
M  V30 3254 H 309.767 -0.906678 -4.79198 0
M  V30 3255 H 308.772 -3.19004 -4.47791 0
M  V30 3256 H 309.997 -3.87918 -5.57401 0
M  V30 3257 H 307.943 -1.76238 -6.31883 0
M  V30 3258 H 307.86 -3.444 -6.72997 0
M  V30 3259 H 309.128 -2.45942 -7.39684 0
M  V30 3260 N 313.357 1.07166 -1.15556 0
M  V30 3261 C 314.29 2.13808 -0.797593 0
M  V30 3262 C 315.268 1.6101 0.226812 0
M  V30 3263 O 316.452 1.88161 0.112932 0
M  V30 3264 C 313.579 3.38187 -0.186371 0
M  V30 3265 C 312.625 4.09766 -1.18297 0
M  V30 3266 S 313.458 4.60932 -2.72584 0
M  V30 3267 C 314.614 5.88583 -2.12886 0
M  V30 3268 H 314.847 2.43843 -1.70083 0
M  V30 3269 H 312.38 1.19467 -0.978106 0
M  V30 3270 H 314.338 4.10189 0.159837 0
M  V30 3271 H 312.999 3.06326 0.694489 0
M  V30 3272 H 312.192 4.99065 -0.703562 0
M  V30 3273 H 311.794 3.43736 -1.47381 0
M  V30 3274 H 314.086 6.60866 -1.49208 0
M  V30 3275 H 315.029 6.41241 -3.0036 0
M  V30 3276 H 315.437 5.42194 -1.57116 0
M  V30 3277 N 314.835 0.952656 1.25548 0
M  V30 3278 C 316.082 0.606373 1.93208 0
M  V30 3279 C 316.41 -0.85631 1.74636 0
M  V30 3280 O 315.665 -1.62951 1.08376 0
M  V30 3281 C 315.964 0.908818 3.45652 0
M  V30 3282 C 315.63 2.35722 3.84378 0
M  V30 3283 C 314.292 2.75312 3.9466 0
M  V30 3284 C 316.644 3.29793 4.03591 0
M  V30 3285 C 313.972 4.08047 4.21562 0
M  V30 3286 C 316.324 4.62138 4.31985 0
M  V30 3287 C 314.988 5.01528 4.40484 0
M  V30 3288 H 314.258 0.221888 0.706998 0
M  V30 3289 H 316.905 1.20132 1.49133 0
M  V30 3290 H 315.21 0.231456 3.91116 0
M  V30 3291 H 316.907 0.619498 3.96186 0
M  V30 3292 H 313.497 2.04017 3.76928 0
M  V30 3293 H 317.681 3.00397 3.95064 0
M  V30 3294 H 312.937 4.38212 4.26357 0
M  V30 3295 H 317.111 5.35012 4.45797 0
M  V30 3296 H 314.738 6.04406 4.61083 0
M  V30 3297 N 316.313 -1.40141 0.720998 0
M  V30 3298 C 317.246 -2.2819 0.020916 0
M  V30 3299 C 318.224 -1.43633 -0.762129 0
M  V30 3300 O 319.408 -1.7304 -0.747633 0
M  V30 3301 C 316.535 -3.24281 -0.977715 0
M  V30 3302 C 315.581 -4.25548 -0.284836 0
M  V30 3303 S 316.414 -5.26247 0.991169 0
M  V30 3304 C 317.57 -6.259 -0.0052214 0
M  V30 3305 H 317.803 -2.87218 0.767649 0
M  V30 3306 H 315.336 -1.45656 0.512233 0
M  V30 3307 H 317.294 -3.80167 -1.54865 0
M  V30 3308 H 315.955 -2.643 -1.69719 0
M  V30 3309 H 315.148 -4.93154 -1.03996 0
M  V30 3310 H 314.75 -3.73389 0.213684 0
M  V30 3311 H 317.042 -6.72143 -0.850279 0
M  V30 3312 H 317.985 -7.05224 0.637599 0
M  V30 3313 H 318.393 -5.63277 -0.371366 0
M  V30 3314 N 317.792 -0.46758 -1.50504 0
M  V30 3315 C 319.017 0.0886943 -2.0721 0
M  V30 3316 C 319.442 1.33057 -1.32956 0
M  V30 3317 O 318.8 1.77354 -0.376197 0
M  V30 3318 C 318.848 0.359202 -3.58806 0
M  V30 3319 O 317.952 1.44034 -3.8643 0
M  V30 3320 H 317.293 -0.0114349 -0.663902 0
M  V30 3321 H 319.823 -0.657613 -1.93744 0
M  V30 3322 H 319.833 0.600742 -4.03553 0
M  V30 3323 H 318.508 -0.548311 -4.1227 0
M  V30 3324 H 317.085 1.18638 -3.53524 0
M  V30 3325 N 319.27 1.56325 -0.20005 0
M  V30 3326 C 320.18 2.22931 0.730668 0
M  V30 3327 C 321.196 1.22997 1.23076 0
M  V30 3328 O 322.372 1.55748 1.27689 0
M  V30 3329 C 319.437 2.87948 1.93098 0
M  V30 3330 C 318.498 4.03166 1.47497 0
M  V30 3331 C 317.731 4.65073 2.61807 0
M  V30 3332 O 317.954 4.25913 3.79413 0
M  V30 3333 O 316.888 5.54452 2.34237 0
M  V30 3334 H 320.714 3.03084 0.193391 0
M  V30 3335 H 318.299 1.49371 0.0294621 0
M  V30 3336 H 320.181 3.29063 2.6324 0
M  V30 3337 H 318.856 2.10771 2.45677 0
M  V30 3338 H 317.763 3.66664 0.742201 0
M  V30 3339 H 319.096 4.82022 0.995796 0
M  V30 3340 N 320.748 -0.0735177 1.57428 0
M  V30 3341 C 321.678 -1.0879 2.06608 0
M  V30 3342 C 322.659 -1.40473 0.959237 0
M  V30 3343 O 323.844 -1.5013 1.23185 0
M  V30 3344 C 320.974 -2.40183 2.50857 0
M  V30 3345 C 319.928 -2.22858 3.65402 0
M  V30 3346 C 319.254 -3.59619 3.957 0
M  V30 3347 C 320.554 -1.65123 4.95511 0
M  V30 3348 H 322.248 -0.678673 2.91607 0
M  V30 3349 H 319.794 -0.325013 1.40284 0
M  V30 3350 H 321.747 -3.11437 2.83874 0
M  V30 3351 H 320.471 -2.83083 1.62885 0
M  V30 3352 H 319.13 -1.54045 3.32664 0
M  V30 3353 H 318.778 -4.00086 3.04861 0
M  V30 3354 H 318.478 -3.48866 4.72828 0
M  V30 3355 H 320.002 -4.32306 4.31212 0
M  V30 3356 H 321.416 -2.26241 5.26771 0
M  V30 3357 H 319.813 -1.65071 5.7695 0
M  V30 3358 H 320.883 -0.612559 4.81015 0
M  V30 3359 N 322.226 -1.5378 -0.344866 0
M  V30 3360 C 323.451 -1.75211 -1.10977 0
M  V30 3361 C 323.876 -0.48936 -1.81623 0
M  V30 3362 O 323.234 0.557925 -1.72502 0
M  V30 3363 C 323.282 -2.93147 -2.09993 0
M  V30 3364 O 322.386 -2.63203 -3.17487 0
M  V30 3365 H 321.727 -0.581241 -0.321021 0
M  V30 3366 H 324.257 -2.00738 -0.395661 0
M  V30 3367 H 324.267 -3.19898 -2.53237 0
M  V30 3368 H 322.942 -3.84731 -1.5797 0
M  V30 3369 H 321.519 -2.47336 -2.79069 0
M  V30 3370 N 323.704 0.605807 -1.45491 0
M  V30 3371 C 324.952 1.36207 -1.49305 0
M  V30 3372 C 325.273 1.94519 -0.136863 0
M  V30 3373 O 324.543 1.77261 0.833983 0
M  V30 3374 H 323.123 0.50565 -0.549843 0
M  V30 3375 H 325.785 0.711239 -1.81459 0
M  V30 3376 H 324.881 2.18058 -2.23287 0
M  V30 3377 N 325.182 1.32811 0.848464 0
M  V30 3378 C 326.13 1.22231 1.97895 0
M  V30 3379 C 327.124 0.125749 1.68933 0
M  V30 3380 O 328.33 0.289083 1.77663 0
M  V30 3381 H 324.705 0.379058 0.649476 0
M  V30 3382 H 326.676 2.17828 2.03945 0
M  V30 3383 C 325.425 0.968572 3.33937 0
M  V30 3384 H 324.748 1.80458 3.56756 0
M  V30 3385 H 326.188 0.934808 4.13567 0
M  V30 3386 C 324.647 -0.328628 3.35293 0
M  V30 3387 O 325.177 -1.33848 3.78745 0
M  V30 3388 N 323.383 -0.352788 2.88451 0
M  V30 3389 H 322.93 0.469541 2.53285 0
M  V30 3390 H 322.888 -1.22057 2.89741 0
M  V30 3391 N 326.66 -1.06551 1.16123 0
M  V30 3392 C 327.909 -1.78687 0.935622 0
M  V30 3393 C 328.222 -1.88056 -0.538001 0
M  V30 3394 O 329.428 -2.56794 -0.88143 0
M  V30 3395 C 327.884 -3.21143 1.62466 0
M  V30 3396 C 327.492 -3.19949 3.13587 0
M  V30 3397 C 329.236 -3.9783 1.48092 0
M  V30 3398 C 327.143 -4.57108 3.75241 0
M  V30 3399 H 326.073 -0.669712 0.346412 0
M  V30 3400 H 328.724 -1.19534 1.39226 0
M  V30 3401 H 327.106 -3.80539 1.09572 0
M  V30 3402 H 328.28 -2.70151 3.73303 0
M  V30 3403 H 326.595 -2.5676 3.27816 0
M  V30 3404 H 329.192 -4.99217 1.91538 0
M  V30 3405 H 329.535 -4.14078 0.429507 0
M  V30 3406 H 330.068 -3.4495 1.98127 0
M  V30 3407 H 326.807 -4.46065 4.80319 0
M  V30 3408 H 326.327 -5.07111 3.20309 0
M  V30 3409 H 328.006 -5.26069 3.76644 0
M  V30 3410 N 328.138 -0.959301 -1.25041 0
M  V30 3411 C 329.387 -0.612254 -1.92183 0
M  V30 3412 C 329.7 0.855347 -1.75907 0
M  V30 3413 O 330.906 1.31256 -2.37664 0
M  V30 3414 C 329.362 -1.04435 -3.44414 0
M  V30 3415 C 328.97 -2.53482 -3.69393 0
M  V30 3416 C 330.714 -0.770055 -4.17457 0
M  V30 3417 C 328.621 -2.90468 -5.15153 0
M  V30 3418 H 327.551 -0.225279 -0.719559 0
M  V30 3419 H 330.202 -1.16438 -1.41825 0
M  V30 3420 H 328.584 -0.4206 -3.9376 0
M  V30 3421 H 329.758 -3.20916 -3.30681 0
M  V30 3422 H 328.073 -2.78432 -3.0962 0
M  V30 3423 H 330.67 -1.02249 -5.24832 0
M  V30 3424 H 331.013 0.293611 -4.15263 0
M  V30 3425 H 331.546 -1.35437 -3.74034 0
M  V30 3426 H 328.285 -3.95871 -5.22462 0
M  V30 3427 H 327.805 -2.27711 -5.54894 0
M  V30 3428 H 329.484 -2.79914 -5.83315 0
M  V30 3429 N 329.616 1.39756 -0.72842 0
M  V30 3430 C 330.893 1.94574 -0.200079 0
M  V30 3431 C 331.273 1.66569 1.29684 0
M  V30 3432 O 330.621 0.990326 2.05924 0
M  V30 3433 C 330.831 3.45004 -0.526608 0
M  V30 3434 C 332.179 4.21965 -0.472318 0
M  V30 3435 O 333.203 3.53173 -0.463413 0
M  V30 3436 O 332.062 5.44552 -0.461075 0
M  V30 3437 H 329.156 0.826289 -0.0342851 0
M  V30 3438 H 331.702 1.49293 -0.806829 0
M  V30 3439 H 330.474 3.58796 -1.56144 0
M  V30 3440 H 330.097 3.97449 0.109449 0
M  V30 3441 N 331.094 0.475555 1.50254 0
M  V30 3442 C 332.343 -0.0795996 2.01543 0
M  V30 3443 C 332.656 -1.4038 1.36209 0
M  V30 3444 O 333.862 -2.04415 1.7868 0
M  V30 3445 C 332.318 -0.192363 3.59386 0
M  V30 3446 C 331.926 1.12367 4.33679 0
M  V30 3447 C 333.67 -0.699238 4.18701 0
M  V30 3448 C 331.577 0.974453 5.83317 0
M  V30 3449 H 330.507 -0.0335228 0.753254 0
M  V30 3450 H 333.158 0.611128 1.73025 0
M  V30 3451 H 331.54 -0.946974 3.84511 0
M  V30 3452 H 332.714 1.88958 4.20276 0
M  V30 3453 H 331.029 1.562 3.85993 0
M  V30 3454 H 333.626 -0.827978 5.28251 0
M  V30 3455 H 333.969 -1.69171 3.80377 0
M  V30 3456 H 334.502 -0.00188807 3.978 0
M  V30 3457 H 331.241 1.94042 6.26121 0
M  V30 3458 H 330.761 0.248998 5.99283 0
M  V30 3459 H 332.44 0.642867 6.43798 0
M  V30 3460 N 332.573 -1.56217 0.208337 0
M  V30 3461 C 333.813 -1.99849 -0.428927 0
M  V30 3462 C 334.177 -1.09262 -1.57879 0
M  V30 3463 O 335.378 -1.42185 -2.28116 0
M  V30 3464 C 333.649 -3.46777 -0.864879 0
M  V30 3465 S 335.208 -4.12434 -1.49811 0
M  V30 3466 H 332.026 -0.697742 -0.136665 0
M  V30 3467 H 334.628 -1.92953 0.314519 0
M  V30 3468 H 333.332 -4.10396 -0.0181326 0
M  V30 3469 H 332.863 -3.57518 -1.64147 0
M  V30 3470 H 334.878 -4.10532 -2.78707 0
M  V30 3471 N 334.051 0.0651679 -1.57465 0
M  V30 3472 C 335.462 0.616213 -1.76238 0
M  V30 3473 C 335.813 1.7756 -0.834689 0
M  V30 3474 O 334.938 2.1639 -0.0204156 0
M  V30 3475 C 335.533 1.12462 -3.1959 0
M  V30 3476 C 334.092 1.62147 -3.39684 0
M  V30 3477 C 333.239 0.543739 -2.71917 0
M  V30 3478 H 336.19 -0.161022 -1.57881 0
M  V30 3479 H 336.211 1.99324 -3.24114 0
M  V30 3480 H 335.723 0.280592 -3.87084 0
M  V30 3481 H 333.824 2.48854 -2.77313 0
M  V30 3482 H 333.937 1.69385 -4.48158 0
M  V30 3483 H 332.301 0.990352 -2.34657 0
M  V30 3484 H 333.084 -0.290216 -3.42071 0
M  V30 3485 N 335.529 1.53961 0.336706 0
M  V30 3486 C 336.775 1.7179 1.07777 0
M  V30 3487 C 337.108 0.483263 1.88091 0
M  V30 3488 O 336.383 -0.519747 1.87427 0
M  V30 3489 C 336.666 2.98558 2.01334 0
M  V30 3490 C 336.519 4.32245 1.24437 0
M  V30 3491 C 337.838 3.21023 3.01052 0
M  V30 3492 H 334.957 0.625089 0.390426 0
M  V30 3493 H 337.599 1.86641 0.35567 0
M  V30 3494 H 335.749 2.86028 2.62908 0
M  V30 3495 H 337.421 4.56637 0.654243 0
M  V30 3496 H 335.664 4.30344 0.546458 0
M  V30 3497 H 336.335 5.17137 1.93063 0
M  V30 3498 H 338.811 3.32929 2.49595 0
M  V30 3499 H 337.687 4.11104 3.6371 0
M  V30 3500 H 337.948 2.37637 3.72802 0
M  V30 3501 N 337.007 -0.598083 1.45811 0
M  V30 3502 C 338.255 -1.35413 1.50026 0
M  V30 3503 C 338.576 -1.94444 0.147177 0
M  V30 3504 O 337.846 -1.77701 -0.824571 0
M  V30 3505 H 336.426 -0.502727 0.552517 0
M  V30 3506 H 339.088 -0.701606 1.81834 0
M  V30 3507 H 338.184 -2.16871 2.2444 0
M  V30 3508 N 338.485 -1.33259 -0.841409 0
M  V30 3509 C 339.448 -1.23221 -1.9326 0
M  V30 3510 C 340.448 -0.151895 -1.60081 0
M  V30 3511 O 341.638 -0.403246 -1.69468 0
M  V30 3512 C 338.77 -0.898123 -3.28856 0
M  V30 3513 H 339.963 -2.2021 -2.03587 0
M  V30 3514 H 337.516 -1.17281 -1.03319 0
M  V30 3515 H 338.251 0.0693841 -3.24226 0
M  V30 3516 H 338.036 -1.67934 -3.54317 0
M  V30 3517 H 339.526 -0.852563 -4.08805 0
M  V30 3518 N 339.963 1.05934 -1.16686 0
M  V30 3519 C 340.893 2.1546 -0.899949 0
M  V30 3520 C 341.874 1.69391 0.155154 0
M  V30 3521 O 343.059 1.94199 0.00648693 0
M  V30 3522 C 340.189 3.44939 -0.404241 0
M  V30 3523 C 339.143 4.04536 -1.39767 0
M  V30 3524 C 338.469 5.29268 -0.760216 0
M  V30 3525 C 339.769 4.42893 -2.76845 0
M  V30 3526 H 341.463 2.38046 -1.81588 0
M  V30 3527 H 339.009 1.14404 -0.874514 0
M  V30 3528 H 340.962 4.20901 -0.204971 0
M  V30 3529 H 339.686 3.21983 0.547206 0
M  V30 3530 H 338.345 3.30635 -1.58355 0
M  V30 3531 H 337.993 5.02611 0.197831 0
M  V30 3532 H 337.693 5.70101 -1.42332 0
M  V30 3533 H 339.217 6.07924 -0.57105 0
M  V30 3534 H 340.631 5.09921 -2.62019 0
M  V30 3535 H 339.028 4.94721 -3.39663 0
M  V30 3536 H 340.098 3.53584 -3.31823 0
M  V30 3537 N 341.441 0.965919 1.2453 0
M  V30 3538 C 342.669 0.644385 1.96609 0
M  V30 3539 C 343.084 -0.785823 1.71669 0
M  V30 3540 O 342.441 -1.52703 0.999399 0
M  V30 3541 C 342.492 0.907375 3.49927 0
M  V30 3542 O 342.213 2.28136 3.74013 0
M  V30 3543 C 343.714 0.599784 4.39224 0
M  V30 3544 H 340.934 0.240588 0.626385 0
M  V30 3545 H 343.478 1.29337 1.58405 0
M  V30 3546 H 341.633 0.304631 3.862 0
M  V30 3547 H 342.047 2.36002 4.68405 0
M  V30 3548 H 343.521 0.834263 5.45659 0
M  V30 3549 H 343.998 -0.465921 4.36722 0
M  V30 3550 H 344.604 1.18235 4.08535 0
M  V30 3551 N 342.919 -1.39368 0.735821 0
M  V30 3552 C 344.144 -2.05319 0.293052 0
M  V30 3553 C 344.569 -1.55115 -1.064 0
M  V30 3554 O 343.927 -0.695261 -1.67439 0
M  V30 3555 C 343.975 -3.59305 0.305323 0
M  V30 3556 O 343.079 -4.06299 -0.706761 0
M  V30 3557 H 342.42 -0.650529 0.13307 0
M  V30 3558 H 344.95 -1.78386 1.00197 0
M  V30 3559 H 344.96 -4.07724 0.149997 0
M  V30 3560 H 343.635 -3.95207 1.29553 0
M  V30 3561 H 342.212 -3.69292 -0.517504 0
M  V30 3562 N 344.397 -0.483516 -1.5 0
M  V30 3563 C 345.344 0.304164 -2.28787 0
M  V30 3564 C 346.314 0.976114 -1.34392 0
M  V30 3565 O 347.499 0.986156 -1.63339 0
M  V30 3566 C 344.639 1.37298 -3.16612 0
M  V30 3567 C 343.752 0.714561 -4.26049 0
M  V30 3568 C 342.887 1.76232 -5.01114 0
M  V30 3569 C 341.926 1.08483 -6.0241 0
M  V30 3570 N 341.063 2.076 -6.70706 0
M  V30 3571 H 345.903 -0.373981 -2.95644 0
M  V30 3572 H 343.44 -0.196275 -1.45785 0
M  V30 3573 H 345.398 2.00445 -3.65893 0
M  V30 3574 H 344.028 2.02012 -2.51776 0
M  V30 3575 H 343.08 -0.0297798 -3.80388 0
M  V30 3576 H 344.392 0.180383 -4.98474 0
M  V30 3577 H 343.546 2.46929 -5.54176 0
M  V30 3578 H 342.285 2.33033 -4.28424 0
M  V30 3579 H 341.29 0.363545 -5.48597 0
M  V30 3580 H 342.515 0.523551 -6.77079 0
M  V30 3581 H 340.461 2.63394 -6.00799 0
M  V30 3582 H 340.378 1.59201 -7.39047 0
M  V30 3583 H 341.646 2.77639 -7.2838 0
M  V30 3584 N 345.875 1.56104 -0.216619 0
M  V30 3585 C 347.286 1.844 0.292128 0
M  V30 3586 C 347.637 1.13788 1.59833 0
M  V30 3587 O 346.762 0.405888 2.12559 0
M  V30 3588 C 347.357 3.3452 0.53681 0
M  V30 3589 C 345.916 3.63151 0.989876 0
M  V30 3590 C 345.063 2.77255 0.0502302 0
M  V30 3591 H 348.014 1.52481 -0.439926 0
M  V30 3592 H 348.035 3.54459 1.38345 0
M  V30 3593 H 347.547 3.85885 -0.414031 0
M  V30 3594 H 345.648 3.17238 1.95425 0
M  V30 3595 H 345.761 4.71177 0.867698 0
M  V30 3596 H 344.125 2.48555 0.556117 0
M  V30 3597 H 344.908 3.31416 -0.89544 0
M  V30 3598 N 347.353 -0.0568162 1.57498 0
M  V30 3599 C 348.583 -0.764515 1.91934 0
M  V30 3600 C 348.991 -1.70877 0.81227 0
M  V30 3601 O 348.334 -1.82351 -0.222213 0
M  V30 3602 C 348.396 -1.5994 3.21962 0
M  V30 3603 C 348.06 -0.822925 4.4953 0
M  V30 3604 C 349.057 -0.135464 5.19723 0
M  V30 3605 C 346.742 -0.785666 4.96117 0
M  V30 3606 C 348.736 0.578861 6.34766 0
M  V30 3607 C 346.423 -0.0675784 6.11063 0
M  V30 3608 C 347.421 0.613471 6.80239 0
M  V30 3609 O 347.109 1.31996 7.92989 0
M  V30 3610 H 346.841 -0.221647 0.63863 0
M  V30 3611 H 349.395 -0.0268218 2.05382 0
M  V30 3612 H 347.625 -2.38026 3.04763 0
M  V30 3613 H 349.314 -2.18715 3.41934 0
M  V30 3614 H 350.08 -0.155458 4.84751 0
M  V30 3615 H 345.959 -1.30524 4.42136 0
M  V30 3616 H 349.503 1.111 6.88696 0
M  V30 3617 H 345.4 -0.0455636 6.45484 0
M  V30 3618 H 346.168 1.23077 8.09194 0
M  V30 3619 N 348.832 -1.54138 -0.328536 0
M  V30 3620 C 349.795 -1.82462 -1.38709 0
M  V30 3621 C 350.795 -0.696229 -1.44946 0
M  V30 3622 O 351.985 -0.964535 -1.4506 0
M  V30 3623 C 349.117 -1.98018 -2.77492 0
M  V30 3624 H 350.31 -2.77037 -1.14851 0
M  V30 3625 H 347.863 -1.45779 -0.563751 0
M  V30 3626 H 348.598 -1.05637 -3.06613 0
M  V30 3627 H 348.383 -2.80124 -2.74359 0
M  V30 3628 H 349.873 -2.21396 -3.54081 0
M  V30 3629 N 350.31 0.590341 -1.46126 0
M  V30 3630 C 351.557 1.34882 -1.5104 0
M  V30 3631 C 351.885 1.93849 -0.159021 0
M  V30 3632 O 351.14 1.76544 0.844436 0
M  V30 3633 C 351.439 2.5032 -2.55097 0
M  V30 3634 C 351.105 2.09394 -3.99331 0
M  V30 3635 C 349.767 1.97947 -4.38601 0
M  V30 3636 C 352.119 1.77712 -4.89967 0
M  V30 3637 C 349.447 1.53065 -5.66381 0
M  V30 3638 C 351.799 1.34312 -6.18177 0
M  V30 3639 C 350.463 1.21436 -6.56361 0
M  V30 3640 H 349.733 0.493568 -0.552695 0
M  V30 3641 H 352.38 0.665539 -1.79563 0
M  V30 3642 H 350.685 3.24062 -2.20207 0
M  V30 3643 H 352.382 3.08541 -2.56132 0
M  V30 3644 H 348.972 2.19235 -3.68285 0
M  V30 3645 H 353.156 1.85445 -4.60352 0
M  V30 3646 H 348.412 1.41733 -5.94745 0
M  V30 3647 H 352.586 1.08849 -6.87841 0
M  V30 3648 H 350.213 0.864345 -7.5527 0
M  V30 3649 N 351.788 1.33704 0.83433 0
M  V30 3650 C 353.016 1.28467 1.62185 0
M  V30 3651 C 353.431 -0.143526 1.88254 0
M  V30 3652 O 352.788 -1.08709 1.4659 0
M  V30 3653 C 352.839 2.06174 2.96942 0
M  V30 3654 O 352.56 3.43422 2.72016 0
M  V30 3655 C 354.061 2.08201 3.91366 0
M  V30 3656 H 351.281 0.4424 0.504503 0
M  V30 3657 H 353.825 1.76145 1.03891 0
M  V30 3658 H 351.98 1.62167 3.51825 0
M  V30 3659 H 352.394 3.83453 3.57861 0
M  V30 3660 H 353.868 2.67017 4.83121 0
M  V30 3661 H 354.345 1.07343 4.2588 0
M  V30 3662 H 354.951 2.52246 3.42421 0
M  V30 3663 N 353.266 -1.05314 1.17247 0
M  V30 3664 C 354.229 -2.112 0.890357 0
M  V30 3665 C 355.229 -1.60359 -0.118943 0
M  V30 3666 O 356.419 -1.73833 0.113086 0
M  V30 3667 C 353.551 -3.39266 0.333422 0
M  V30 3668 H 354.744 -2.37659 1.82916 0
M  V30 3669 H 352.297 -1.21538 0.982758 0
M  V30 3670 H 353.032 -3.18462 -0.612587 0
M  V30 3671 H 352.817 -3.77477 1.06082 0
M  V30 3672 H 354.307 -4.17315 0.154322 0
M  V30 3673 N 354.744 -0.972509 -1.24016 0
M  V30 3674 C 356.16 -0.679827 -1.44397 0
M  V30 3675 C 356.36 0.756716 -1.86751 0
M  V30 3676 O 355.416 1.53007 -2.00861 0
M  V30 3677 C 356.729 -1.66803 -2.50195 0
M  V30 3678 C 358.277 -1.68119 -2.64017 0
M  V30 3679 C 358.752 -2.65748 -3.73017 0
M  V30 3680 N 360.243 -2.64219 -3.8045 0
M  V30 3681 C 360.978 -3.36433 -4.64328 0
M  V30 3682 N 360.474 -4.1818 -5.52356 0
M  V30 3683 N 362.267 -3.25235 -4.58453 0
M  V30 3684 H 354.418 -1.90059 -0.948228 0
M  V30 3685 H 356.681 -0.818527 -0.478245 0
M  V30 3686 H 356.387 -2.69498 -2.25973 0
M  V30 3687 H 356.261 -1.4446 -3.48441 0
M  V30 3688 H 358.648 -0.661319 -2.87594 0
M  V30 3689 H 358.729 -1.94525 -1.66113 0
M  V30 3690 H 358.373 -3.67872 -3.50189 0
M  V30 3691 H 358.303 -2.36619 -4.70446 0
M  V30 3692 H 360.794 -2.04887 -3.17537 0
M  V30 3693 H 361.107 -4.70157 -6.13329 0
M  V30 3694 H 359.452 -4.22273 -5.52006 0
M  V30 3695 H 362.643 -2.60829 -3.88698 0
M  V30 3696 H 362.816 -3.81776 -5.23594 0
M  V30 3697 N 356.222 1.38976 -0.743202 0
M  V30 3698 C 357.633 1.83123 -0.363732 0
M  V30 3699 C 357.984 1.6205 1.10609 0
M  V30 3700 O 357.109 1.11606 1.854 0
M  V30 3701 C 357.704 3.32439 -0.653408 0
M  V30 3702 C 356.263 3.74974 -0.327338 0
M  V30 3703 C 355.41 2.61878 -0.911875 0
M  V30 3704 H 358.361 1.27852 -0.940191 0
M  V30 3705 H 358.382 3.80432 0.0720031 0
M  V30 3706 H 357.894 3.47745 -1.72323 0
M  V30 3707 H 355.995 3.65252 0.736314 0
M  V30 3708 H 356.108 4.72106 -0.815631 0
M  V30 3709 H 354.472 2.52448 -0.337944 0
M  V30 3710 H 355.255 2.79987 -1.98651 0
M  V30 3711 N 357.7 0.491464 1.49741 0
M  V30 3712 C 358.946 -0.0485431 2.03342 0
M  V30 3713 C 359.301 -1.35566 1.36527 0
M  V30 3714 O 358.594 -1.85262 0.488729 0
M  V30 3715 C 358.788 -0.267329 3.56399 0
M  V30 3716 C 358.617 1.01703 4.38049 0
M  V30 3717 C 357.387 1.56614 4.80417 0
M  V30 3718 C 359.585 1.91782 4.77204 0
M  V30 3719 N 357.567 2.7974 5.4646 0
M  V30 3720 C 358.938 2.99489 5.42868 0
M  V30 3721 C 360.993 1.92575 4.5915 0
M  V30 3722 C 359.696 4.08005 5.92389 0
M  V30 3723 C 361.722 3.0006 5.09626 0
M  V30 3724 C 361.084 4.06485 5.75282 0
M  V30 3725 H 357.183 0.0227779 0.781668 0
M  V30 3726 H 359.767 0.664204 1.8302 0
M  V30 3727 H 357.938 -0.949126 3.76625 0
M  V30 3728 H 359.67 -0.803492 3.96644 0
M  V30 3729 H 356.425 1.11256 4.60347 0
M  V30 3730 H 356.849 3.42323 5.84075 0
M  V30 3731 H 361.491 1.11605 4.07804 0
M  V30 3732 H 359.209 4.89779 6.42761 0
M  V30 3733 H 362.795 3.01681 4.97473 0
M  V30 3734 H 361.675 4.88287 6.13633 0
M  V30 3735 N 359.178 -1.55987 0.224894 0
M  V30 3736 C 360.088 -2.24066 -0.69511 0
M  V30 3737 C 361.104 -1.24939 -1.21104 0
M  V30 3738 O 362.28 -1.5776 -1.25195 0
M  V30 3739 C 359.345 -2.90983 -1.88493 0
M  V30 3740 C 358.406 -4.05462 -1.41064 0
M  V30 3741 C 357.639 -4.69179 -2.54375 0
M  V30 3742 O 357.862 -4.31895 -3.72589 0
M  V30 3743 O 356.796 -5.58108 -2.25386 0
M  V30 3744 H 360.622 -3.03353 -0.145149 0
M  V30 3745 H 358.207 -1.49399 -0.00569476 0
M  V30 3746 H 360.089 -3.33209 -2.57972 0
M  V30 3747 H 358.764 -2.14653 -2.42293 0
M  V30 3748 H 357.671 -3.67798 -0.683774 0
M  V30 3749 H 359.004 -4.83545 -0.918985 0
M  V30 3750 N 360.656 0.0484629 -1.57525 0
M  V30 3751 C 361.884 0.755421 -1.92616 0
M  V30 3752 C 362.299 1.69919 -0.822984 0
M  V30 3753 O 361.656 1.81378 0.202085 0
M  V30 3754 C 361.707 1.52915 -3.27566 0
M  V30 3755 O 361.428 0.62329 -4.33644 0
M  V30 3756 C 362.929 2.33502 -3.76818 0
M  V30 3757 H 360.149 0.213465 -0.63614 0
M  V30 3758 H 362.693 0.0117698 -2.04497 0
M  V30 3759 H 360.848 2.22486 -3.17142 0
M  V30 3760 H 361.262 1.16383 -5.11425 0
M  V30 3761 H 362.736 2.83214 -4.73808 0
M  V30 3762 H 363.213 3.14068 -3.07014 0
M  V30 3763 H 363.819 1.69043 -3.90262 0
M  V30 3764 N 362.134 1.5431 0.320358 0
M  V30 3765 C 363.55 1.45091 0.664889 0
M  V30 3766 C 363.75 0.626382 1.91517 0
M  V30 3767 O 362.806 0.126443 2.52183 0
M  V30 3768 C 364.119 2.88848 0.83591 0
M  V30 3769 C 365.667 2.9877 0.933046 0
M  V30 3770 C 366.142 4.43683 1.13621 0
M  V30 3771 N 367.633 4.47309 1.20287 0
M  V30 3772 C 368.368 5.56595 1.37801 0
M  V30 3773 N 367.864 6.75844 1.52338 0
M  V30 3774 N 369.657 5.44248 1.40535 0
M  V30 3775 H 361.808 2.06398 -0.501374 0
M  V30 3776 H 364.071 0.933963 -0.162534 0
M  V30 3777 H 363.777 3.51698 -0.0116092 0
M  V30 3778 H 363.651 3.35148 1.73078 0
M  V30 3779 H 366.038 2.36045 1.77107 0
M  V30 3780 H 366.119 2.55796 0.0145782 0
M  V30 3781 H 365.763 5.06995 0.303032 0
M  V30 3782 H 365.693 4.84269 2.0686 0
M  V30 3783 H 368.184 3.61388 1.10485 0
M  V30 3784 H 368.497 7.54892 1.65403 0
M  V30 3785 H 366.842 6.78746 1.4943 0
M  V30 3786 H 370.033 4.50038 1.28777 0
M  V30 3787 H 370.206 6.29473 1.53842 0
M  V30 3788 N 363.613 -0.582584 1.46437 0
M  V30 3789 C 364.56 -1.69164 1.5701 0
M  V30 3790 C 365.53 -1.60847 0.414403 0
M  V30 3791 O 366.715 -1.80058 0.631171 0
M  V30 3792 C 363.855 -3.075 1.56646 0
M  V30 3793 C 362.968 -3.2644 2.82951 0
M  V30 3794 C 362.103 -4.55026 2.7409 0
M  V30 3795 C 361.142 -4.6731 3.95333 0
M  V30 3796 N 360.279 -5.87221 3.84858 0
M  V30 3797 H 365.119 -1.59464 2.51744 0
M  V30 3798 H 362.656 -0.777186 1.24893 0
M  V30 3799 H 364.614 -3.8757 1.5442 0
M  V30 3800 H 363.244 -3.16096 0.654439 0
M  V30 3801 H 362.296 -2.39974 2.95155 0
M  V30 3802 H 363.608 -3.31385 3.72808 0
M  V30 3803 H 362.762 -5.43324 2.6997 0
M  V30 3804 H 361.501 -4.52519 1.81873 0
M  V30 3805 H 360.506 -3.77429 3.99784 0
M  V30 3806 H 361.731 -4.71595 4.88646 0
M  V30 3807 H 359.677 -5.85712 2.95427 0
M  V30 3808 H 359.594 -5.93435 4.6837 0
M  V30 3809 H 360.862 -6.7795 3.84713 0
M  V30 3810 N 365.091 -1.34144 -0.827227 0
M  V30 3811 C 366.319 -1.29325 -1.61501 0
M  V30 3812 C 366.734 0.13354 -1.88327 0
M  V30 3813 O 366.091 1.0793 -1.47164 0
M  V30 3814 C 366.142 -2.07746 -2.95844 0
M  V30 3815 O 365.863 -3.4486 -2.70191 0
M  V30 3816 C 367.364 -2.10273 -3.90256 0
M  V30 3817 H 364.584 -0.445069 -0.50215 0
M  V30 3818 H 367.128 -1.76693 -1.02955 0
M  V30 3819 H 365.283 -1.6403 -3.5096 0
M  V30 3820 H 365.697 -3.85345 -3.55822 0
M  V30 3821 H 367.171 -2.69575 -4.81698 0
M  V30 3822 H 367.648 -1.096 -4.25305 0
M  V30 3823 H 368.254 -2.54059 -3.41078 0
M  V30 3824 N 366.569 1.04691 -1.17803 0
M  V30 3825 C 367.479 2.16057 -0.914151 0
M  V30 3826 C 368.495 1.73589 0.119503 0
M  V30 3827 O 369.671 2.01308 -0.0609468 0
M  V30 3828 C 366.736 3.4394 -0.436603 0
M  V30 3829 C 365.797 4.00825 -1.53746 0
M  V30 3830 C 365.03 5.22604 -1.0826 0
M  V30 3831 O 365.253 5.70367 0.0612244 0
M  V30 3832 O 364.187 5.7186 -1.87775 0
M  V30 3833 H 368.013 2.41169 -1.84584 0
M  V30 3834 H 365.598 1.1453 -0.959334 0
M  V30 3835 H 367.48 4.21024 -0.178057 0
M  V30 3836 H 366.155 3.20316 0.466869 0
M  V30 3837 H 365.062 3.25158 -1.84995 0
M  V30 3838 H 366.395 4.28778 -2.41683 0
M  V30 3839 N 368.047 0.979072 1.23499 0
M  V30 3840 C 369.272 0.664845 1.96455 0
M  V30 3841 C 369.697 -0.761287 1.72006 0
M  V30 3842 O 369.055 -1.51837 0.990713 0
M  V30 3843 C 369.103 0.959479 3.47601 0
M  V30 3844 O 368.207 0.0508168 4.12369 0
M  V30 3845 H 367.548 0.250185 0.615064 0
M  V30 3846 H 370.078 1.31231 1.5697 0
M  V30 3847 H 370.088 0.895642 3.98048 0
M  V30 3848 H 368.763 1.99876 3.64723 0
M  V30 3849 H 367.34 0.16895 3.72517 0
M  V30 3850 N 369.525 -1.3858 0.750561 0
M  V30 3851 C 370.774 -1.99424 0.302172 0
M  V30 3852 C 371.087 -1.60254 -1.12152 0
M  V30 3853 O 372.293 -2.14046 -1.67023 0
M  V30 3854 C 370.749 -3.56558 0.489307 0
M  V30 3855 C 370.357 -4.04682 1.92189 0
M  V30 3856 C 372.101 -4.24374 0.103478 0
M  V30 3857 C 370.008 -5.54446 2.05775 0
M  V30 3858 H 368.938 -0.746046 0.10923 0
M  V30 3859 H 371.589 -1.58383 0.92667 0
M  V30 3860 H 369.971 -3.95472 -0.204329 0
M  V30 3861 H 371.145 -3.77065 2.64875 0
M  V30 3862 H 369.46 -3.4958 2.26236 0
M  V30 3863 H 372.057 -5.34384 0.183787 0
M  V30 3864 H 372.4 -4.05468 -0.943481 0
M  V30 3865 H 372.933 -3.90688 0.748854 0
M  V30 3866 H 369.672 -5.78252 3.08714 0
M  V30 3867 H 369.192 -5.83816 1.37546 0
M  V30 3868 H 370.871 -6.20099 1.84626 0
M  V30 3869 N 371.003 -0.499398 -1.49478 0
M  V30 3870 C 372.28 0.108629 -1.95298 0
M  V30 3871 C 372.66 1.54282 -1.44084 0
M  V30 3872 O 372.008 2.18944 -0.653908 0
M  V30 3873 C 372.218 0.0229111 -3.48992 0
M  V30 3874 C 373.566 0.197643 -4.2414 0
M  V30 3875 O 374.59 0.0981735 -3.56065 0
M  V30 3876 O 373.449 0.401669 -5.45022 0
M  V30 3877 H 370.543 0.096181 -0.821388 0
M  V30 3878 H 373.089 -0.561822 -1.6013 0
M  V30 3879 H 371.861 -0.977321 -3.78899 0
M  V30 3880 H 371.484 0.733579 -3.90774 0
M  V30 3881 N 372.481 1.55866 -0.233164 0
M  V30 3882 C 373.727 1.98897 0.395959 0
M  V30 3883 C 374.06 1.12091 1.58585 0
M  V30 3884 O 373.335 0.181182 1.93654 0
M  V30 3885 C 373.618 3.50658 0.819224 0
M  V30 3886 C 373.471 4.48233 -0.375109 0
M  V30 3887 C 374.79 4.07135 1.67121 0
M  V30 3888 H 371.909 0.723102 0.142451 0
M  V30 3889 H 374.551 1.87082 -0.331725 0
M  V30 3890 H 372.701 3.60857 1.43925 0
M  V30 3891 H 374.373 4.50031 -1.01341 0
M  V30 3892 H 372.616 4.21624 -1.02058 0
M  V30 3893 H 373.287 5.51988 -0.0358328 0
M  V30 3894 H 375.763 3.99952 1.14795 0
M  V30 3895 H 374.639 5.13615 1.93625 0
M  V30 3896 H 374.9 3.54736 2.63846 0
M  V30 3897 N 373.959 -0.0401083 1.57549 0
M  V30 3898 C 374.892 -1.07689 2.01192 0
M  V30 3899 C 375.87 -1.358 0.894273 0
M  V30 3900 O 377.054 -1.48642 1.15921 0
M  V30 3901 C 374.181 -2.41418 2.3756 0
M  V30 3902 C 373.227 -2.29237 3.59656 0
M  V30 3903 S 374.06 -1.65628 5.09242 0
M  V30 3904 C 375.216 -3.0087 5.48843 0
M  V30 3905 H 375.449 -0.705108 2.88817 0
M  V30 3906 H 372.982 -0.249724 1.52367 0
M  V30 3907 H 374.94 -3.18329 2.59186 0
M  V30 3908 H 373.601 -2.75747 1.50407 0
M  V30 3909 H 372.794 -3.27932 3.82722 0
M  V30 3910 H 372.396 -1.60469 3.37825 0
M  V30 3911 H 374.688 -3.97201 5.48851 0
M  V30 3912 H 375.631 -2.82549 6.49286 0
M  V30 3913 H 376.039 -3.02934 4.76331 0
M  V30 3914 N 375.437 -1.54477 -0.31217 0
M  V30 3915 C 376.714 -1.63891 -1.06767 0
M  V30 3916 C 377.094 -0.480028 -2.0557 0
M  V30 3917 O 376.442 0.524487 -2.22399 0
M  V30 3918 C 376.652 -3.01402 -1.75948 0
M  V30 3919 C 378 -3.57838 -2.28554 0
M  V30 3920 O 379.024 -3.03782 -1.85998 0
M  V30 3921 O 377.883 -4.52462 -3.06497 0
M  V30 3922 H 374.977 -0.664125 -0.492816 0
M  V30 3923 H 377.523 -1.66823 -0.311149 0
M  V30 3924 H 376.295 -3.77187 -1.04144 0
M  V30 3925 H 375.918 -3.02199 -2.58383 0
M  V30 3926 N 376.915 0.57481 -1.46744 0
M  V30 3927 C 377.878 1.66533 -1.57478 0
M  V30 3928 C 378.878 1.54338 -0.451263 0
M  V30 3929 O 380.068 1.58814 -0.715813 0
M  V30 3930 C 377.2 3.05999 -1.50259 0
M  V30 3931 H 378.393 1.58372 -2.54673 0
M  V30 3932 H 375.946 0.793301 -1.34672 0
M  V30 3933 H 376.681 3.19709 -0.543725 0
M  V30 3934 H 376.466 3.16259 -2.31781 0
M  V30 3935 H 377.956 3.8537 -1.60872 0
M  V30 3936 N 378.394 1.34581 0.820102 0
M  V30 3937 C 379.64 1.27285 1.57881 0
M  V30 3938 C 379.973 -0.156137 1.93571 0
M  V30 3939 O 379.248 -1.10222 1.60254 0
M  V30 3940 C 379.531 2.16639 2.87645 0
M  V30 3941 C 379.384 3.68088 2.58517 0
M  V30 3942 C 380.703 2.05378 3.8924 0
M  V30 3943 H 377.822 0.463714 0.572833 0
M  V30 3944 H 380.464 1.64859 0.944539 0
M  V30 3945 H 378.614 1.84725 3.41773 0
M  V30 3946 H 380.286 4.10382 2.10676 0
M  V30 3947 H 378.529 3.89038 1.91917 0
M  V30 3948 H 379.2 4.2598 3.51063 0
M  V30 3949 H 381.676 2.33404 3.44473 0
M  V30 3950 H 380.552 2.7012 4.77835 0
M  V30 3951 H 380.813 1.0316 4.29896 0
M  V30 3952 N 379.872 -1.04064 1.18357 0
M  V30 3953 C 381.12 -1.76915 0.977013 0
M  V30 3954 C 381.441 -1.88624 -0.494577 0
M  V30 3955 O 380.711 -1.41125 -1.3587 0
M  V30 3956 H 379.291 -0.65535 0.358504 0
M  V30 3957 H 381.953 -1.25592 1.49039 0
M  V30 3958 H 381.049 -2.78178 1.41504 0
M  V30 3959 N 381.35 -0.985608 -1.22978 0
M  V30 3960 C 382.575 -0.675254 -1.961 0
M  V30 3961 C 383 0.752154 -1.72407 0
M  V30 3962 O 382.358 1.5131 -0.998751 0
M  V30 3963 C 382.406 -0.977899 -3.47087 0
M  V30 3964 O 381.51 -0.072685 -4.12336 0
M  V30 3965 H 380.851 -0.253443 -0.613728 0
M  V30 3966 H 383.381 -1.32061 -1.56272 0
M  V30 3967 H 383.391 -0.916739 -3.97567 0
M  V30 3968 H 382.066 -2.01807 -3.63657 0
M  V30 3969 H 380.643 -0.188703 -3.72422 0
M  V30 3970 N 382.828 1.3818 -0.7579 0
M  V30 3971 C 383.776 2.32277 -0.122482 0
M  V30 3972 C 384.77 1.54238 0.700505 0
M  V30 3973 O 385.976 1.69737 0.599119 0
M  V30 3974 H 382.351 0.751712 -0.0208143 0
M  V30 3975 H 384.322 2.83469 -0.932099 0
M  V30 3976 C 383.071 3.39447 0.753076 0
M  V30 3977 H 382.394 3.99591 0.129184 0
M  V30 3978 H 383.834 4.07684 1.16489 0
M  V30 3979 C 382.293 2.78375 1.8976 0
M  V30 3980 O 382.823 2.68025 2.99208 0
M  V30 3981 N 381.029 2.36121 1.69397 0
M  V30 3982 H 380.576 2.4474 0.803762 0
M  V30 3983 H 380.534 1.95602 2.46145 0
M  V30 3984 N 384.306 0.507319 1.49211 0
M  V30 3985 C 385.555 -0.0368315 2.01666 0
M  V30 3986 C 385.868 -1.37459 1.39156 0
M  V30 3987 O 387.074 -2.00579 1.82976 0
M  V30 3988 C 385.53 -0.116089 3.59713 0
M  V30 3989 C 385.138 1.2154 4.31198 0
M  V30 3990 C 386.882 -0.610268 4.2009 0
M  V30 3991 C 384.789 1.09796 5.81119 0
M  V30 3992 H 383.719 -0.0175376 0.753796 0
M  V30 3993 H 386.37 0.647691 1.71689 0
M  V30 3994 H 384.752 -0.8652 3.86433 0
M  V30 3995 H 385.926 1.9783 4.16173 0
M  V30 3996 H 384.241 1.64352 3.82593 0
M  V30 3997 H 386.838 -0.715742 5.29888 0
M  V30 3998 H 387.181 -1.61064 3.8388 0
M  V30 3999 H 387.714 0.0824916 3.97714 0
M  V30 4000 H 384.453 2.0728 6.21864 0
M  V30 4001 H 383.973 0.376058 5.9862 0
M  V30 4002 H 385.652 0.779281 6.4229 0
M  V30 4003 N 385.784 -1.5574 0.241426 0
M  V30 4004 C 387.03 -1.99104 -0.385406 0
M  V30 4005 C 387.363 -1.1293 -1.57988 0
M  V30 4006 O 386.638 -0.191449 -1.93555 0
M  V30 4007 C 386.921 -3.51087 -0.800616 0
M  V30 4008 C 386.774 -4.48028 0.398874 0
M  V30 4009 C 388.093 -4.08015 -1.64959 0
M  V30 4010 H 385.212 -0.723848 -0.138614 0
M  V30 4011 H 387.854 -1.86903 0.341642 0
M  V30 4012 H 386.004 -3.61615 -1.4201 0
M  V30 4013 H 387.676 -4.49487 1.03726 0
M  V30 4014 H 385.919 -4.21077 1.04293 0
M  V30 4015 H 386.59 -5.51962 0.0651056 0
M  V30 4016 H 389.066 -4.00555 -1.12672 0
M  V30 4017 H 387.942 -5.14635 -1.90898 0
M  V30 4018 H 388.203 -3.56131 -2.61961 0
M  V30 4019 N 387.262 0.0317525 -1.57568 0
M  V30 4020 C 388.508 0.724175 -1.8943 0
M  V30 4021 C 388.841 1.75149 -0.838836 0
M  V30 4022 O 388.116 1.93948 0.146422 0
M  V30 4023 C 388.399 1.39615 -3.31933 0
M  V30 4024 C 388.252 0.382537 -4.4817 0
M  V30 4025 C 389.571 2.33084 -3.73309 0
M  V30 4026 H 386.69 0.261797 -0.688935 0
M  V30 4027 H 389.332 -0.013017 -1.89996 0
M  V30 4028 H 387.482 2.02451 -3.31581 0
M  V30 4029 H 389.154 -0.243689 -4.60656 0
M  V30 4030 H 387.397 -0.29844 -4.32772 0
M  V30 4031 H 388.068 0.891145 -5.44759 0
M  V30 4032 H 390.544 1.80295 -3.7501 0
M  V30 4033 H 389.42 2.77084 -4.73831 0
M  V30 4034 H 389.681 3.19643 -3.05419 0
M  V30 4035 N 388.74 1.54641 0.303973 0
M  V30 4036 C 389.965 1.78092 1.06292 0
M  V30 4037 C 390.39 0.537342 1.80262 0
M  V30 4038 O 389.748 -0.511993 1.7392 0
M  V30 4039 C 389.796 2.98612 2.02147 0
M  V30 4040 O 388.9 2.71528 3.10397 0
M  V30 4041 H 388.241 0.589548 0.305497 0
M  V30 4042 H 390.771 2.01716 0.3423 0
M  V30 4043 H 390.781 3.265 2.44667 0
M  V30 4044 H 389.456 3.88785 1.47714 0
M  V30 4045 H 388.033 2.54648 2.72413 0
M  V30 4046 N 390.218 -0.567019 1.47046 0
M  V30 4047 C 391.446 -1.35027 1.56765 0
M  V30 4048 C 391.861 -1.8758 0.214316 0
M  V30 4049 O 391.218 -1.64471 -0.790919 0
M  V30 4050 C 391.269 -2.52698 2.58507 0
M  V30 4051 O 390.99 -2.0232 3.88585 0
M  V30 4052 C 392.491 -3.45043 2.78316 0
M  V30 4053 H 389.711 -0.41195 0.529658 0
M  V30 4054 H 392.255 -0.687832 1.92585 0
M  V30 4055 H 390.41 -3.149 2.25648 0
M  V30 4056 H 390.824 -2.79068 4.44096 0
M  V30 4057 H 392.298 -4.2405 3.53391 0
M  V30 4058 H 392.775 -3.97971 1.85784 0
M  V30 4059 H 393.381 -2.88665 3.12334 0
M  V30 4060 N 391.696 -1.35014 -0.812953 0
M  V30 4061 C 393.112 -1.14914 -1.10757 0
M  V30 4062 C 393.312 0.0426818 -2.01455 0
M  V30 4063 O 392.368 0.715212 -2.42159 0
M  V30 4064 C 393.681 -2.44911 -1.74468 0
M  V30 4065 C 395.229 -2.5106 -1.86917 0
M  V30 4066 C 395.704 -3.81085 -2.54044 0
M  V30 4067 N 397.195 -3.82301 -2.61535 0
M  V30 4068 C 397.93 -4.79634 -3.14227 0
M  V30 4069 N 397.426 -5.87353 -3.67407 0
M  V30 4070 N 399.219 -4.67078 -3.12721 0
M  V30 4071 H 391.37 -2.1136 -0.20989 0
M  V30 4072 H 393.633 -0.935128 -0.155692 0
M  V30 4073 H 393.339 -3.32267 -1.15289 0
M  V30 4074 H 393.213 -2.58989 -2.74234 0
M  V30 4075 H 395.6 -1.64137 -2.45241 0
M  V30 4076 H 395.681 -2.40901 -0.860242 0
M  V30 4077 H 395.325 -4.68402 -1.96372 0
M  V30 4078 H 395.255 -3.88529 -3.55461 0
M  V30 4079 H 397.746 -3.04465 -2.23851 0
M  V30 4080 H 398.059 -6.57624 -4.05894 0
M  V30 4081 H 396.404 -5.91054 -3.65623 0
M  V30 4082 H 399.595 -3.82067 -2.70449 0
M  V30 4083 H 399.768 -5.43098 -3.53481 0
M  V30 4084 N 393.175 1.03435 -1.18907 0
M  V30 4085 C 394.403 1.80381 -1.01342 0
M  V30 4086 C 394.818 1.83649 0.438005 0
M  V30 4087 O 394.175 1.27655 1.30424 0
M  V30 4088 C 394.226 3.25689 -1.56873 0
M  V30 4089 O 393.947 3.22673 -2.96334 0
M  V30 4090 C 395.448 4.19255 -1.44014 0
M  V30 4091 H 392.668 0.56784 -0.35749 0
M  V30 4092 H 395.212 1.30317 -1.576 0
M  V30 4093 H 393.367 3.72962 -1.04777 0
M  V30 4094 H 393.781 4.13748 -3.22355 0
M  V30 4095 H 395.255 5.19123 -1.87657 0
M  V30 4096 H 395.732 4.37467 -0.389815 0
M  V30 4097 H 396.338 3.77851 -1.95214 0
M  V30 4098 N 394.653 0.992116 1.22453 0
M  V30 4099 C 395.901 0.666215 1.90804 0
M  V30 4100 C 396.222 -0.804152 1.77647 0
M  V30 4101 O 395.492 -1.57629 1.16318 0
M  V30 4102 H 394.072 0.243423 0.706225 0
M  V30 4103 H 396.734 1.25845 1.48825 0
M  V30 4104 H 395.83 0.928069 2.97982 0
M  V30 4105 N 396.131 -1.37776 0.765217 0
M  V30 4106 C 397.041 -2.34135 0.147666 0
M  V30 4107 C 398.057 -1.59854 -0.687215 0
M  V30 4108 O 399.233 -1.91983 -0.608659 0
M  V30 4109 C 396.298 -3.3901 -0.72617 0
M  V30 4110 C 395.359 -4.2912 0.124417 0
M  V30 4111 C 394.592 -5.28986 -0.707807 0
M  V30 4112 O 394.815 -5.36205 -1.94525 0
M  V30 4113 O 393.749 -6.01779 -0.12046 0
M  V30 4114 H 397.575 -2.88664 0.943758 0
M  V30 4115 H 395.16 -1.39824 0.526277 0
M  V30 4116 H 397.042 -4.03195 -1.22524 0
M  V30 4117 H 395.717 -2.86819 -1.50056 0
M  V30 4118 H 394.624 -3.68057 0.669696 0
M  V30 4119 H 395.957 -4.84598 0.861736 0
M  V30 4120 N 397.609 -0.515225 -1.4894 0
M  V30 4121 C 398.855 0.0242508 -2.02785 0
M  V30 4122 C 399.188 1.35323 -1.39289 0
M  V30 4123 O 398.463 1.87041 -0.533469 0
M  V30 4124 C 398.746 0.16184 -3.59736 0
M  V30 4125 C 398.599 -1.19127 -4.33738 0
M  V30 4126 C 399.918 0.895719 -4.30888 0
M  V30 4127 H 397.037 0.00733914 -0.736963 0
M  V30 4128 H 399.679 -0.669395 -1.77818 0
M  V30 4129 H 397.829 0.752624 -3.8114 0
M  V30 4130 H 399.501 -1.82202 -4.23792 0
M  V30 4131 H 397.744 -1.77695 -3.95736 0
M  V30 4132 H 398.415 -1.04815 -5.41957 0
M  V30 4133 H 400.891 0.394528 -4.14225 0
M  V30 4134 H 399.767 0.960859 -5.40425 0
M  V30 4135 H 400.028 1.9427 -3.97129 0
M  V30 4136 N 399.087 1.5561 -0.249682 0
M  V30 4137 C 400.02 2.17537 0.689408 0
M  V30 4138 C 400.998 1.12829 1.17083 0
M  V30 4139 O 402.182 1.41229 1.24846 0
M  V30 4140 C 399.309 2.77828 1.93725 0
M  V30 4141 C 398.355 3.95615 1.59346 0
M  V30 4142 S 399.188 5.30988 0.69367 0
M  V30 4143 C 400.344 5.94734 1.95046 0
M  V30 4144 H 400.577 2.96852 0.163142 0
M  V30 4145 H 398.11 1.54362 -0.0341166 0
M  V30 4146 H 400.068 3.13199 2.65361 0
M  V30 4147 H 398.729 1.98454 2.43465 0
M  V30 4148 H 397.922 4.364 2.52132 0
M  V30 4149 H 397.524 3.61535 0.957512 0
M  V30 4150 H 399.816 6.12419 2.89739 0
M  V30 4151 H 400.759 6.90109 1.58604 0
M  V30 4152 H 401.167 5.23832 2.10381 0
M  V30 4153 N 400.565 -0.0233959 1.57583 0
M  V30 4154 C 401.981 -0.379134 1.55031 0
M  V30 4155 C 402.181 -1.76255 0.976548 0
M  V30 4156 O 401.237 -2.45266 0.600078 0
M  V30 4157 C 402.55 -0.275792 2.99433 0
M  V30 4158 C 404.098 -0.352458 3.11009 0
M  V30 4159 C 404.573 -0.278501 4.57152 0
M  V30 4160 N 406.064 -0.337123 4.61972 0
M  V30 4161 C 406.799 -0.302876 5.726 0
M  V30 4162 N 406.295 -0.220589 6.92449 0
M  V30 4163 N 408.088 -0.353023 5.6099 0
M  V30 4164 H 400.239 0.881869 1.93227 0
M  V30 4165 H 402.502 0.335867 0.886509 0
M  V30 4166 H 402.208 0.675108 3.4516 0
M  V30 4167 H 402.082 -1.06721 3.61788 0
M  V30 4168 H 404.469 -1.29379 2.65226 0
M  V30 4169 H 404.55 0.468409 2.51475 0
M  V30 4170 H 404.194 0.659189 5.03604 0
M  V30 4171 H 404.124 -1.11755 5.14605 0
M  V30 4172 H 406.615 -0.403002 3.75745 0
M  V30 4173 H 406.928 -0.199713 7.72542 0
M  V30 4174 H 405.273 -0.186555 6.9475 0
M  V30 4175 H 408.464 -0.415339 4.66254 0
M  V30 4176 H 408.637 -0.322866 6.47195 0
M  V30 4177 N 402.043 -1.548 -0.295768 0
M  V30 4178 C 403.292 -1.73538 -1.02798 0
M  V30 4179 C 403.605 -0.531159 -1.8825 0
M  V30 4180 O 404.811 -0.600458 -2.64777 0
M  V30 4181 C 403.267 -3.07051 -1.87744 0
M  V30 4182 C 402.875 -4.34968 -1.07269 0
M  V30 4183 C 404.619 -3.35146 -2.60533 0
M  V30 4184 C 402.526 -5.5953 -1.91521 0
M  V30 4185 H 401.456 -0.646794 -0.387522 0
M  V30 4186 H 404.107 -1.81278 -0.284718 0
M  V30 4187 H 402.489 -2.93289 -2.66078 0
M  V30 4188 H 403.663 -4.5958 -0.335117 0
M  V30 4189 H 401.978 -4.13847 -0.460384 0
M  V30 4190 H 404.575 -4.2541 -3.23929 0
M  V30 4191 H 404.918 -2.54255 -3.29636 0
M  V30 4192 H 405.451 -3.49902 -1.89244 0
M  V30 4193 H 402.19 -6.43103 -1.26878 0
M  V30 4194 H 401.71 -5.39096 -2.62937 0
M  V30 4195 H 403.389 -5.96982 -2.49442 0
M  V30 4196 N 403.521 0.559213 -1.47345 0
M  V30 4197 C 404.451 1.67622 -1.62558 0
M  V30 4198 C 405.432 1.63331 -0.475087 0
M  V30 4199 O 406.617 1.80983 -0.704182 0
M  V30 4200 C 403.747 3.0626 -1.63774 0
M  V30 4201 C 402.701 3.25397 -2.7803 0
M  V30 4202 C 402.027 4.64801 -2.64318 0
M  V30 4203 C 403.327 3.10965 -4.19641 0
M  V30 4204 H 405.021 1.55146 -2.56067 0
M  V30 4205 H 402.567 0.744961 -1.23233 0
M  V30 4206 H 404.52 3.84247 -1.73008 0
M  V30 4207 H 403.244 3.1969 -0.66825 0
M  V30 4208 H 401.903 2.49817 -2.68304 0
M  V30 4209 H 401.551 4.75028 -1.65401 0
M  V30 4210 H 401.251 4.78555 -3.40968 0
M  V30 4211 H 402.775 5.44926 -2.75478 0
M  V30 4212 H 404.189 3.78772 -4.30354 0
M  V30 4213 H 402.586 3.36229 -4.97062 0
M  V30 4214 H 403.656 2.07736 -4.38148 0
M  V30 4215 N 404.999 1.35443 0.805782 0
M  V30 4216 C 406.41 1.25768 1.37983 0
M  V30 4217 C 406.761 -0.10958 1.95894 0
M  V30 4218 O 405.886 -1.01056 1.91355 0
M  V30 4219 C 406.481 2.27727 2.5085 0
M  V30 4220 C 405.04 2.2179 3.04115 0
M  V30 4221 C 404.187 2.13393 1.77084 0
M  V30 4222 H 407.138 1.4656 0.608752 0
M  V30 4223 H 407.159 1.90422 3.29424 0
M  V30 4224 H 406.671 3.27227 2.08671 0
M  V30 4225 H 404.772 1.25703 3.50756 0
M  V30 4226 H 404.885 3.13788 3.62042 0
M  V30 4227 H 403.249 1.59384 1.98668 0
M  V30 4228 H 404.032 3.14755 1.37056 0
M  V30 4229 N 406.477 -1.02803 1.19454 0
M  V30 4230 C 407.893 -1.28473 0.946937 0
M  V30 4231 C 408.093 -1.97881 -0.380202 0
M  V30 4232 O 407.149 -2.26719 -1.11151 0
M  V30 4233 C 408.462 -2.13099 2.12154 0
M  V30 4234 C 410.01 -2.26404 2.16126 0
M  V30 4235 C 410.485 -3.14402 3.33039 0
M  V30 4236 N 411.976 -3.21991 3.32981 0
M  V30 4237 C 412.711 -3.90272 4.20089 0
M  V30 4238 N 412.207 -4.60777 5.17355 0
M  V30 4239 N 414 -3.8668 4.07964 0
M  V30 4240 H 406.151 -0.561665 2.04839 0
M  V30 4241 H 408.414 -0.310438 0.89573 0
M  V30 4242 H 408.12 -1.69422 3.08203 0
M  V30 4243 H 407.994 -3.13813 2.09287 0
M  V30 4244 H 410.381 -2.69311 1.20647 0
M  V30 4245 H 410.462 -1.25237 2.23045 0
M  V30 4246 H 410.106 -2.72204 4.28798 0
M  V30 4247 H 410.036 -4.1563 3.23356 0
M  V30 4248 H 412.527 -2.71778 2.62574 0
M  V30 4249 H 412.84 -5.10513 5.80169 0
M  V30 4250 H 411.185 -4.5964 5.21302 0
M  V30 4251 H 414.376 -3.30739 3.31254 0
M  V30 4252 H 414.549 -4.39621 4.76064 0
M  V30 4253 N 407.956 -0.998596 -1.21925 0
M  V30 4254 C 408.889 -0.498517 -2.22688 0
M  V30 4255 C 409.867 0.444301 -1.56412 0
M  V30 4256 O 411.051 0.368518 -1.84863 0
M  V30 4257 C 408.178 0.276639 -3.37568 0
M  V30 4258 C 407.224 -0.61302 -4.22071 0
M  V30 4259 S 408.057 -2.07168 -4.93803 0
M  V30 4260 C 409.213 -1.30617 -6.12119 0
M  V30 4261 H 409.446 -1.35234 -2.64762 0
M  V30 4262 H 406.979 -0.806018 -1.31692 0
M  V30 4263 H 408.937 0.717817 -4.04175 0
M  V30 4264 H 407.598 1.10581 -2.93991 0
M  V30 4265 H 406.791 -0.0162909 -5.03997 0
M  V30 4266 H 406.393 -0.991202 -3.60626 0
M  V30 4267 H 408.685 -0.57675 -6.75041 0
M  V30 4268 H 409.628 -2.10091 -6.76215 0
M  V30 4269 H 410.036 -0.816957 -5.58557 0
M  V30 4270 N 409.434 1.37368 -0.772513 0
M  V30 4271 C 410.384 2.27613 -0.132823 0
M  V30 4272 C 411.368 1.46138 0.673247 0
M  V30 4273 O 412.56 1.68686 0.536095 0
M  V30 4274 C 409.689 3.35122 0.744864 0
M  V30 4275 C 408.775 4.24044 -0.0690771 0
M  V30 4276 N 409.166 4.93355 -1.1151 0
M  V30 4277 C 407.464 4.45731 0.154782 0
M  V30 4278 C 408.165 5.59 -1.60917 0
M  V30 4279 N 407.141 5.35737 -0.921222 0
M  V30 4280 H 410.943 2.78675 -0.933681 0
M  V30 4281 H 408.457 1.50494 -0.610342 0
M  V30 4282 H 410.454 3.98683 1.21892 0
M  V30 4283 H 409.114 2.85616 1.54446 0
M  V30 4284 H 410.125 4.95785 -1.49726 0
M  V30 4285 H 406.802 4.07096 0.926224 0
M  V30 4286 H 408.192 6.24395 -2.48153 0
M  V30 4287 N 410.912 0.523116 1.48665 0
M  V30 4288 C 411.822 -0.247406 2.33292 0
M  V30 4289 C 412.838 -0.945769 1.46052 0
M  V30 4290 O 414.014 -0.922253 1.79043 0
M  V30 4291 C 411.079 -1.28487 3.22012 0
M  V30 4292 C 410.14 -0.597592 4.2512 0
M  V30 4293 C 409.373 -1.58563 5.09601 0
M  V30 4294 O 409.596 -2.81763 4.95949 0
M  V30 4295 O 408.53 -1.12879 5.91221 0
M  V30 4296 H 412.356 0.445869 3.00409 0
M  V30 4297 H 409.941 0.284128 1.46673 0
M  V30 4298 H 411.823 -1.88459 3.7691 0
M  V30 4299 H 410.498 -1.96068 2.57564 0
M  V30 4300 H 409.405 0.0424407 3.74076 0
M  V30 4301 H 410.738 0.0361517 4.92187 0
M  V30 4302 N 412.39 -1.55475 0.257931 0
M  V30 4303 C 413.667 -1.91155 -0.414629 0
M  V30 4304 C 414.047 -1.18008 -1.75035 0
M  V30 4305 O 413.395 -0.301193 -2.26506 0
M  V30 4306 C 413.605 -3.44283 -0.571859 0
M  V30 4307 C 414.953 -4.15744 -0.862678 0
M  V30 4308 O 415.977 -3.50083 -0.657314 0
M  V30 4309 O 414.836 -5.31909 -1.2544 0
M  V30 4310 H 411.93 -0.796016 -0.22425 0
M  V30 4311 H 414.476 -1.66976 0.302814 0
M  V30 4312 H 413.248 -3.89558 0.368844 0
M  V30 4313 H 412.871 -3.7436 -1.33943 0
M  V30 4314 N 413.868 0.0150385 -1.57593 0
M  V30 4315 C 415.117 0.702115 -1.89085 0
M  V30 4316 C 415.43 1.75764 -0.858277 0
M  V30 4317 O 416.636 2.49829 -1.0629 0
M  V30 4318 C 415.092 1.29992 -3.35604 0
M  V30 4319 C 414.7 0.280007 -4.47124 0
M  V30 4320 C 416.444 1.96606 -3.76227 0
M  V30 4321 C 414.351 0.886949 -5.84711 0
M  V30 4322 H 413.281 0.265997 -0.705522 0
M  V30 4323 H 415.932 -0.0430408 -1.8345 0
M  V30 4324 H 414.314 2.09525 -3.36029 0
M  V30 4325 H 415.488 -0.489631 -4.58191 0
M  V30 4326 H 413.803 -0.284835 -4.15425 0
M  V30 4327 H 416.4 2.42893 -4.76347 0
M  V30 4328 H 416.743 2.79024 -3.08952 0
M  V30 4329 H 417.276 1.23828 -3.78036 0
M  V30 4330 H 414.015 0.101876 -6.55421 0
M  V30 4331 H 413.535 1.6261 -5.77337 0
M  V30 4332 H 415.214 1.39011 -6.3189 0
M  V30 4333 N 415.346 1.54954 0.287554 0
M  V30 4334 C 416.294 1.87606 1.37502 0
M  V30 4335 C 417.288 0.751001 1.51843 0
M  V30 4336 O 418.494 0.935169 1.53801 0
M  V30 4337 H 414.869 0.595231 0.459569 0
M  V30 4338 H 416.84 2.78477 1.07206 0
M  V30 4339 C 415.589 2.15183 2.73115 0
M  V30 4340 H 414.912 3.01234 2.62866 0
M  V30 4341 H 416.352 2.4196 3.48183 0
M  V30 4342 C 414.811 0.954686 3.2309 0
M  V30 4343 O 415.341 0.181949 4.01288 0
M  V30 4344 N 413.547 0.756368 2.80584 0
M  V30 4345 H 413.094 1.38643 2.17108 0
M  V30 4346 H 413.052 -0.0430391 3.14371 0
M  V30 4347 N 416.824 -0.551391 1.4764 0
M  V30 4348 C 417.734 -1.68525 1.63207 0
M  V30 4349 C 418.75 -1.6621 0.514815 0
M  V30 4350 O 419.926 -1.85551 0.783113 0
M  V30 4351 C 416.991 -3.05025 1.64805 0
M  V30 4352 C 416.052 -3.18362 2.88 0
M  V30 4353 C 415.285 -4.4835 2.89513 0
M  V30 4354 O 415.508 -5.34163 2.00065 0
M  V30 4355 O 414.442 -4.65602 3.81443 0
M  V30 4356 H 418.268 -1.58333 2.59161 0
M  V30 4357 H 415.853 -0.722063 1.30792 0
M  V30 4358 H 417.735 -3.86245 1.68502 0
M  V30 4359 H 416.41 -3.15587 0.720197 0
M  V30 4360 H 415.317 -2.36518 2.89845 0
M  V30 4361 H 416.65 -3.12707 3.80099 0
M  V30 4362 N 418.302 -1.35869 -0.798587 0
M  V30 4363 C 419.212 -1.31578 -1.94228 0
M  V30 4364 C 420.228 -0.21939 -1.72611 0
M  V30 4365 O 421.404 -0.450167 -1.96305 0
M  V30 4366 C 418.469 -1.09528 -3.28944 0
M  V30 4367 C 417.53 -2.28556 -3.63402 0
M  V30 4368 C 416.763 -2.07549 -4.9169 0
M  V30 4369 O 416.986 -1.046 -5.60727 0
M  V30 4370 O 415.92 -2.95106 -5.24591 0
M  V30 4371 H 419.746 -2.27847 -2.00796 0
M  V30 4372 H 417.331 -1.16322 -0.937526 0
M  V30 4373 H 419.213 -0.991127 -4.09579 0
M  V30 4374 H 417.888 -0.16315 -3.23289 0
M  V30 4375 H 416.795 -2.44538 -2.83112 0
M  V30 4376 H 418.128 -3.20244 -3.73771 0
M  V30 4377 N 419.78 1.02168 -1.19998 0
M  V30 4378 C 421.026 1.7606 -1.01855 0
M  V30 4379 C 421.381 1.87178 0.445222 0
M  V30 4380 O 420.674 1.3828 1.32624 0
M  V30 4381 C 420.868 3.18081 -1.62969 0
M  V30 4382 C 420.697 3.20809 -3.15137 0
M  V30 4383 C 419.467 3.28342 -3.84083 0
M  V30 4384 C 421.665 3.07268 -4.1242 0
M  V30 4385 N 419.647 3.2052 -5.23584 0
M  V30 4386 C 421.018 3.0716 -5.38566 0
M  V30 4387 C 423.073 2.91448 -4.03686 0
M  V30 4388 C 421.776 2.92853 -6.56985 0
M  V30 4389 C 423.802 2.78494 -5.21723 0
M  V30 4390 C 423.164 2.79046 -6.46771 0
M  V30 4391 H 419.263 0.655192 -0.426905 0
M  V30 4392 H 421.847 1.21564 -1.52087 0
M  V30 4393 H 420.018 3.70882 -1.15329 0
M  V30 4394 H 421.75 3.80375 -1.38192 0
M  V30 4395 H 418.505 3.34859 -3.34913 0
M  V30 4396 H 418.929 3.19997 -5.96599 0
M  V30 4397 H 423.571 2.89838 -3.07821 0
M  V30 4398 H 421.289 2.93213 -7.53028 0
M  V30 4399 H 424.875 2.67278 -5.16773 0
M  V30 4400 H 423.755 2.69134 -7.36571 0
M  V30 4401 N 421.258 1.00505 1.21394 0
M  V30 4402 C 422.507 0.683159 1.89778 0
M  V30 4403 C 422.82 -0.789471 1.7896 0
M  V30 4404 O 424.026 -1.22344 2.42372 0
M  V30 4405 C 422.482 1.17146 3.40301 0
M  V30 4406 C 422.09 2.67017 3.5973 0
M  V30 4407 C 423.834 0.924461 4.14311 0
M  V30 4408 C 421.741 3.09387 5.04017 0
M  V30 4409 H 420.671 0.25183 0.710702 0
M  V30 4410 H 423.322 1.21622 1.37406 0
M  V30 4411 H 421.704 0.566451 3.91928 0
M  V30 4412 H 422.878 3.32968 3.18542 0
M  V30 4413 H 421.193 2.89732 2.99073 0
M  V30 4414 H 423.79 1.21658 5.20676 0
M  V30 4415 H 424.133 -0.139286 4.16067 0
M  V30 4416 H 424.666 1.49226 3.6875 0
M  V30 4417 H 421.405 4.14989 5.07409 0
M  V30 4418 H 420.925 2.48149 5.46061 0
M  V30 4419 H 422.604 3.01371 5.72525 0
M  V30 4420 N 422.737 -1.36956 0.779787 0
M  V30 4421 C 423.962 -2.04283 0.358224 0
M  V30 4422 C 424.387 -1.58422 -1.01411 0
M  V30 4423 O 423.745 -0.748179 -1.65142 0
M  V30 4424 C 423.793 -3.58152 0.419479 0
M  V30 4425 O 422.897 -4.08342 -0.577142 0
M  V30 4426 H 422.238 -0.645967 0.153698 0
M  V30 4427 H 424.768 -1.75108 1.05822 0
M  V30 4428 H 424.778 -4.07041 0.279636 0
M  V30 4429 H 423.453 -3.90886 1.42061 0
M  V30 4430 H 422.03 -3.70751 -0.399755 0
M  V30 4431 N 424.215 -0.530993 -1.48385 0
M  V30 4432 C 425.492 0.0671788 -1.95485 0
M  V30 4433 C 425.872 1.51191 -1.47324 0
M  V30 4434 O 425.22 2.17507 -0.700202 0
M  V30 4435 C 425.43 -0.0511206 -3.48963 0
M  V30 4436 C 426.778 0.107632 -4.24464 0
M  V30 4437 O 427.802 0.0226248 -3.56193 0
M  V30 4438 O 426.661 0.285972 -5.45751 0
M  V30 4439 H 423.755 0.0787365 -0.823243 0
M  V30 4440 H 426.301 -0.595662 -1.58902 0
M  V30 4441 H 425.073 -1.05747 -3.7674 0
M  V30 4442 H 424.696 0.650525 -3.92242 0
M  V30 4443 N 425.693 1.55336 -0.266172 0
M  V30 4444 C 426.64 2.22172 0.625165 0
M  V30 4445 C 427.61 1.19211 1.15663 0
M  V30 4446 O 428.795 1.47723 1.20758 0
M  V30 4447 C 425.935 2.93972 1.8076 0
M  V30 4448 C 425.048 4.11632 1.31084 0
M  V30 4449 C 424.183 4.71099 2.45436 0
M  V30 4450 C 423.222 5.8097 1.92718 0
M  V30 4451 N 422.359 6.34538 3.00509 0
M  V30 4452 H 427.199 2.9796 0.0485582 0
M  V30 4453 H 424.736 1.47095 0.0122024 0
M  V30 4454 H 426.694 3.33811 2.50251 0
M  V30 4455 H 425.324 2.20623 2.35638 0
M  V30 4456 H 424.376 3.76975 0.509326 0
M  V30 4457 H 425.688 4.90893 0.884633 0
M  V30 4458 H 424.842 5.13612 3.22936 0
M  V30 4459 H 423.581 3.91096 2.91368 0
M  V30 4460 H 422.586 5.37916 1.13695 0
M  V30 4461 H 423.811 6.62836 1.47733 0
M  V30 4462 H 421.757 5.57433 3.45839 0
M  V30 4463 H 421.674 7.09046 2.62279 0
M  V30 4464 H 422.942 6.81709 3.78011 0
M  V30 4465 N 427.171 -0.0066808 1.57599 0
M  V30 4466 C 428.399 -0.704087 1.94551 0
M  V30 4467 C 428.814 -1.67677 0.867746 0
M  V30 4468 O 428.171 -1.8185 -0.153925 0
M  V30 4469 C 428.222 -1.44177 3.31505 0
M  V30 4470 O 427.943 -0.508097 4.35144 0
M  V30 4471 C 429.444 -2.23429 3.82876 0
M  V30 4472 H 426.664 -0.196523 0.641576 0
M  V30 4473 H 429.208 0.042453 2.04456 0
M  V30 4474 H 427.363 -2.13999 3.22929 0
M  V30 4475 H 427.777 -1.02782 5.14331 0
M  V30 4476 H 429.251 -2.70552 4.8115 0
M  V30 4477 H 429.728 -3.05818 3.15233 0
M  V30 4478 H 430.334 -1.58636 3.94607 0
M  V30 4479 N 428.649 -1.55105 -0.279332 0
M  V30 4480 C 430.065 -1.46803 -0.626187 0
M  V30 4481 C 430.265 -0.676939 -1.89789 0
M  V30 4482 O 429.321 -0.19326 -2.51759 0
M  V30 4483 C 430.634 -2.90962 -0.759034 0
M  V30 4484 C 432.182 -3.01138 -0.853504 0
M  V30 4485 C 432.657 -4.46539 -1.01818 0
M  V30 4486 N 434.148 -4.50341 -1.08386 0
M  V30 4487 C 434.883 -5.60053 -1.22996 0
M  V30 4488 N 434.379 -6.79645 -1.34366 0
M  V30 4489 N 436.172 -5.47783 -1.26056 0
M  V30 4490 H 428.323 -2.04996 0.555921 0
M  V30 4491 H 430.586 -0.929325 0.187239 0
M  V30 4492 H 430.292 -3.51544 0.104852 0
M  V30 4493 H 430.166 -3.39619 -1.64131 0
M  V30 4494 H 432.553 -2.40658 -1.70786 0
M  V30 4495 H 432.634 -2.55745 0.0532466 0
M  V30 4496 H 432.278 -5.0762 -0.168504 0
M  V30 4497 H 432.208 -4.89583 -1.93948 0
M  V30 4498 H 434.699 -3.64191 -1.00864 0
M  V30 4499 H 435.012 -7.59012 -1.4533 0
M  V30 4500 H 433.357 -6.82469 -1.31382 0
M  V30 4501 H 436.548 -4.53294 -1.168 0
M  V30 4502 H 436.721 -6.33331 -1.37098 0
M  V30 4503 N 430.127 0.543554 -1.4793 0
M  V30 4504 C 431.374 1.30008 -1.55255 0
M  V30 4505 C 431.702 1.93245 -0.220612 0
M  V30 4506 O 430.957 1.79141 0.787843 0
M  V30 4507 C 431.256 2.42078 -2.62932 0
M  V30 4508 C 430.922 1.96583 -4.0579 0
M  V30 4509 C 429.584 1.83893 -4.44676 0
M  V30 4510 C 431.936 1.62034 -4.95373 0
M  V30 4511 C 429.264 1.34969 -5.70964 0
M  V30 4512 C 431.616 1.14577 -6.22137 0
M  V30 4513 C 430.28 1.00493 -6.59892 0
M  V30 4514 H 429.55 0.475735 -0.568117 0
M  V30 4515 H 432.197 0.608075 -1.81589 0
M  V30 4516 H 430.502 3.16892 -2.30406 0
M  V30 4517 H 432.199 3.00236 -2.65818 0
M  V30 4518 H 428.789 2.07407 -3.75074 0
M  V30 4519 H 432.973 1.70705 -4.66019 0
M  V30 4520 H 428.229 1.2274 -5.98953 0
M  V30 4521 H 432.403 0.869109 -6.90955 0
M  V30 4522 H 430.03 0.623624 -7.57638 0
M  V30 4523 N 431.605 1.3629 0.791371 0
M  V30 4524 C 432.568 1.30309 1.88553 0
M  V30 4525 C 433.568 0.211204 1.59407 0
M  V30 4526 O 434.758 0.465865 1.67855 0
M  V30 4527 C 431.89 1.01956 3.25297 0
M  V30 4528 H 433.083 2.27614 1.95273 0
M  V30 4529 H 430.636 1.21035 0.988953 0
M  V30 4530 H 431.371 0.050998 3.2426 0
M  V30 4531 H 431.156 1.80968 3.4784 0
M  V30 4532 H 432.646 1.0037 4.05359 0
M  V30 4533 N 433.083 -1.0153 1.20538 0
M  V30 4534 C 434.313 -1.78487 1.04048 0
M  V30 4535 C 434.721 -1.84631 -0.413292 0
M  V30 4536 O 434.064 -1.29919 -1.29872 0
M  V30 4537 C 434.126 -3.24367 1.55003 0
M  V30 4538 C 433.79 -3.41827 3.0332 0
M  V30 4539 C 434.787 -3.30941 4.00966 0
M  V30 4540 C 432.472 -3.67602 3.42307 0
M  V30 4541 C 434.466 -3.45577 5.35589 0
M  V30 4542 C 432.153 -3.81881 4.77085 0
M  V30 4543 C 433.151 -3.70874 5.73534 0
M  V30 4544 O 432.839 -3.84714 7.05868 0
M  V30 4545 H 432.571 -0.568108 0.366373 0
M  V30 4546 H 435.125 -1.28677 1.60098 0
M  V30 4547 H 433.355 -3.75266 0.933397 0
M  V30 4548 H 435.044 -3.82963 1.34514 0
M  V30 4549 H 435.81 -3.10964 3.72191 0
M  V30 4550 H 431.689 -3.75256 2.67776 0
M  V30 4551 H 435.233 -3.36902 6.10854 0
M  V30 4552 H 431.13 -4.01359 5.0555 0
M  V30 4553 H 431.898 -4.01724 7.13134 0
M  V30 4554 N 434.561 -1.01147 -1.20859 0
M  V30 4555 C 435.838 -0.613136 -1.85742 0
M  V30 4556 C 436.218 0.909004 -1.90526 0
M  V30 4557 O 435.566 1.79862 -1.40932 0
M  V30 4558 C 435.776 -1.255 -3.25654 0
M  V30 4559 C 437.124 -1.3672 -4.01986 0
M  V30 4560 O 438.148 -1.21082 -3.34989 0
M  V30 4561 O 437.007 -1.6194 -5.21956 0
M  V30 4562 H 434.101 -0.210878 -0.799662 0
M  V30 4563 H 436.647 -1.10853 -1.2849 0
M  V30 4564 H 435.419 -2.29532 -3.16908 0
M  V30 4565 H 435.042 -0.746369 -3.90532 0
M  V30 4566 N 436.039 1.36541 -0.78704 0
M  V30 4567 C 437.287 1.98911 -0.357633 0
M  V30 4568 C 437.608 1.62778 1.07371 0
M  V30 4569 O 436.878 0.900612 1.73971 0
M  V30 4570 H 435.458 0.735734 -0.129246 0
M  V30 4571 H 438.12 1.66776 -1.00855 0
M  V30 4572 H 437.216 3.08874 -0.447549 0
M  V30 4573 N 437.518 0.538854 1.48102 0
M  V30 4574 C 438.448 -0.207654 2.32575 0
M  V30 4575 C 439.429 -0.926559 1.4265 0
M  V30 4576 O 440.614 -0.91061 1.71527 0
M  V30 4577 C 437.744 -1.24957 3.24042 0
M  V30 4578 C 436.698 -0.648263 4.23062 0
M  V30 4579 C 436.024 -1.79348 5.03725 0
M  V30 4580 C 437.324 0.385897 5.20872 0
M  V30 4581 H 439.018 0.497534 2.95237 0
M  V30 4582 H 436.564 0.240715 1.41974 0
M  V30 4583 H 438.517 -1.77983 3.81969 0
M  V30 4584 H 437.241 -1.98446 2.59397 0
M  V30 4585 H 435.9 -0.139452 3.66335 0
M  V30 4586 H 435.548 -2.51696 4.35498 0
M  V30 4587 H 435.248 -1.39702 5.70751 0
M  V30 4588 H 436.772 -2.32735 5.64506 0
M  V30 4589 H 438.186 -0.057607 5.73271 0
M  V30 4590 H 436.583 0.700227 5.96001 0
M  V30 4591 H 437.653 1.28848 4.67468 0
M  V30 4592 N 438.996 -1.55193 0.274407 0
M  V30 4593 C 439.943 -2.225 -0.613374 0
M  V30 4594 C 440.913 -1.19823 -1.15029 0
M  V30 4595 O 442.098 -1.48362 -1.19973 0
M  V30 4596 C 439.238 -2.94927 -1.79199 0
M  V30 4597 C 438.351 -4.12322 -1.28899 0
M  V30 4598 C 437.486 -4.72394 -2.42934 0
M  V30 4599 C 436.525 -5.81984 -1.89634 0
M  V30 4600 N 435.662 -6.36123 -2.9714 0
M  V30 4601 H 440.502 -2.97982 -0.032756 0
M  V30 4602 H 438.039 -1.47099 -0.00440146 0
M  V30 4603 H 439.997 -3.35134 -2.48478 0
M  V30 4604 H 438.627 -2.2187 -2.34465 0
M  V30 4605 H 437.679 -3.7724 -0.489327 0
M  V30 4606 H 438.991 -4.91355 -0.858587 0
M  V30 4607 H 438.145 -5.15317 -3.20208 0
M  V30 4608 H 436.884 -3.92636 -2.8929 0
M  V30 4609 H 435.889 -5.38511 -1.1084 0
M  V30 4610 H 437.114 -6.6361 -1.44215 0
M  V30 4611 H 435.06 -5.59259 -3.42878 0
M  V30 4612 H 434.977 -7.10427 -2.58515 0
M  V30 4613 H 436.245 -6.83704 -3.74391 0
M  V30 4614 N 440.474 -0.00167713 -1.576 0
M  V30 4615 C 441.89 0.354422 -1.55615 0
M  V30 4616 C 442.09 1.74679 -1.00447 0
M  V30 4617 O 441.146 2.4428 -0.639022 0
M  V30 4618 C 442.459 0.22812 -2.99833 0
M  V30 4619 C 444.007 0.302934 -3.11531 0
M  V30 4620 C 444.482 0.205737 -4.57538 0
M  V30 4621 N 445.973 0.263584 -4.62449 0
M  V30 4622 C 446.708 0.211742 -5.73009 0
M  V30 4623 N 446.204 0.110399 -6.92712 0
M  V30 4624 N 447.997 0.263729 -5.61481 0
M  V30 4625 H 440.148 -0.912498 -1.918 0
M  V30 4626 H 442.411 -0.349928 -0.881053 0
M  V30 4627 H 442.117 -0.729934 -3.44042 0
M  V30 4628 H 441.991 1.00951 -3.6344 0
M  V30 4629 H 444.378 1.25143 -2.67251 0
M  V30 4630 H 444.459 -0.508357 -2.50698 0
M  V30 4631 H 444.103 -0.739225 -5.02492 0
M  V30 4632 H 444.033 1.03554 -5.16318 0
M  V30 4633 H 446.524 0.343173 -3.76339 0
M  V30 4634 H 446.837 0.0767828 -7.72762 0
M  V30 4635 H 445.182 0.0760025 -6.94958 0
M  V30 4636 H 448.373 0.34111 -4.66855 0
M  V30 4637 H 448.546 0.219862 -6.47627 0
M  V30 4638 N 441.952 1.55251 0.271103 0
M  V30 4639 C 442.884 1.84675 1.35749 0
M  V30 4640 C 443.897 0.731366 1.45447 0
M  V30 4641 O 445.086 1.00924 1.4723 0
M  V30 4642 C 442.186 1.99638 2.73857 0
M  V30 4643 C 441.359 3.30312 2.86727 0
M  V30 4644 C 440.418 3.35318 4.05522 0
M  V30 4645 O 439.444 4.08682 3.96191 0
M  V30 4646 N 440.646 2.62857 5.17577 0
M  V30 4647 H 443.411 2.78445 1.10853 0
M  V30 4648 H 440.972 1.55191 0.461218 0
M  V30 4649 H 442.964 2.00355 3.51625 0
M  V30 4650 H 441.534 1.12725 2.91568 0
M  V30 4651 H 440.754 3.42118 1.95829 0
M  V30 4652 H 442.042 4.16488 2.92258 0
M  V30 4653 H 441.44 2.02939 5.28046 0
M  V30 4654 H 439.997 2.69295 5.93568 0
M  V30 4655 N 443.43 -0.535701 1.48216 0
M  V30 4656 C 444.846 -0.863701 1.3421 0
M  V30 4657 C 445.046 -1.98458 0.34879 0
M  V30 4658 O 444.102 -2.51432 -0.23204 0
M  V30 4659 C 445.415 -1.23662 2.74095 0
M  V30 4660 C 446.963 -1.34683 2.82541 0
M  V30 4661 C 447.438 -1.75322 4.23115 0
M  V30 4662 N 448.929 -1.82434 4.2576 0
M  V30 4663 C 449.664 -2.15252 5.31464 0
M  V30 4664 N 449.16 -2.46533 6.47452 0
M  V30 4665 N 450.953 -2.16209 5.18855 0
M  V30 4666 H 443.104 0.203965 2.11418 0
M  V30 4667 H 445.367 0.0286033 0.947568 0
M  V30 4668 H 445.073 -0.486674 3.48316 0
M  V30 4669 H 444.947 -2.18805 3.07253 0
M  V30 4670 H 447.334 -2.08756 2.08579 0
M  V30 4671 H 447.415 -0.376756 2.5301 0
M  V30 4672 H 447.059 -1.01812 4.97591 0
M  V30 4673 H 446.989 -2.7337 4.50085 0
M  V30 4674 H 449.48 -1.6056 3.42095 0
M  V30 4675 H 449.793 -2.70662 7.23852 0
M  V30 4676 H 448.138 -2.44065 6.50736 0
M  V30 4677 H 451.329 -1.91224 4.2726 0
M  V30 4678 H 451.502 -2.41453 6.01335 0
M  V30 4679 N 444.908 -1.36708 -0.784132 0
M  V30 4680 C 445.838 -1.34153 -1.91116 0
M  V30 4681 C 446.819 -0.212121 -1.68772 0
M  V30 4682 O 448.004 -0.410581 -1.8981 0
M  V30 4683 C 445.134 -1.13535 -3.28218 0
M  V30 4684 C 444.088 -2.23356 -3.65097 0
M  V30 4685 C 443.414 -1.87875 -5.00607 0
M  V30 4686 C 444.714 -3.65473 -3.73131 0
M  V30 4687 H 446.408 -2.28459 -1.93512 0
M  V30 4688 H 443.954 -1.09973 -0.929618 0
M  V30 4689 H 445.907 -1.10381 -4.06687 0
M  V30 4690 H 444.631 -0.156804 -3.26223 0
M  V30 4691 H 443.29 -2.25645 -2.88929 0
M  V30 4692 H 442.938 -0.885814 -4.95139 0
M  V30 4693 H 442.638 -2.61406 -5.26252 0
M  V30 4694 H 444.162 -1.86286 -5.81489 0
M  V30 4695 H 445.576 -3.65382 -4.41779 0
M  V30 4696 H 443.973 -4.37953 -4.10265 0
M  V30 4697 H 445.043 -3.99995 -2.74102 0
M  V30 4698 N 446.386 1.0089 -1.21074 0
M  V30 4699 C 447.614 1.78191 -1.05145 0
M  V30 4700 C 448.029 1.84537 0.398952 0
M  V30 4701 O 447.386 1.30393 1.27687 0
M  V30 4702 C 447.437 3.22288 -1.63746 0
M  V30 4703 O 447.158 3.16315 -3.03111 0
M  V30 4704 C 448.659 4.16106 -1.52875 0
M  V30 4705 H 445.879 0.560129 -0.369454 0
M  V30 4706 H 448.423 1.26945 -1.60328 0
M  V30 4707 H 446.578 3.70655 -1.12664 0
M  V30 4708 H 446.992 4.06817 -3.31059 0
M  V30 4709 H 448.466 5.15026 -1.98626 0
M  V30 4710 H 448.943 4.36541 -0.482521 0
M  V30 4711 H 449.549 3.73625 -2.03185 0
M  V30 4712 N 447.864 1.01787 1.20321 0
M  V30 4713 C 448.774 0.598898 2.26827 0
M  V30 4714 C 449.79 -0.36418 1.70146 0
M  V30 4715 O 450.966 -0.224812 2.00141 0
M  V30 4716 C 448.031 -0.0549769 3.46656 0
M  V30 4717 C 447.092 0.954205 4.18561 0
M  V30 4718 C 446.325 0.331439 5.3267 0
M  V30 4719 O 446.548 -0.86851 5.63749 0
M  V30 4720 O 445.482 1.0488 5.92692 0
M  V30 4721 H 449.308 1.48562 2.64883 0
M  V30 4722 H 446.893 0.787434 1.26964 0
M  V30 4723 H 448.775 -0.420102 4.19301 0
M  V30 4724 H 447.45 -0.915876 3.10473 0
M  V30 4725 H 446.357 1.37072 3.48083 0
M  V30 4726 H 447.69 1.78511 4.58688 0
M  V30 4727 N 449.342 -1.36122 0.79427 0
M  V30 4728 C 450.753 -1.81646 0.431446 0
M  V30 4729 C 451.104 -1.66043 -1.04518 0
M  V30 4730 O 450.229 -1.1841 -1.8113 0
M  V30 4731 C 450.824 -3.29785 0.776341 0
M  V30 4732 C 449.383 -3.73501 0.466282 0
M  V30 4733 C 448.53 -2.58313 1.00844 0
M  V30 4734 H 451.481 -1.24274 0.986995 0
M  V30 4735 H 451.502 -3.80437 0.0692413 0
M  V30 4736 H 451.014 -3.4111 1.8511 0
M  V30 4737 H 449.115 -3.67733 -0.600245 0
M  V30 4738 H 449.228 -4.68754 0.990288 0
M  V30 4739 H 447.592 -2.5102 0.431406 0
M  V30 4740 H 448.375 -2.72421 2.08906 0
M  V30 4741 N 450.82 -0.546701 -1.47814 0
M  V30 4742 C 451.753 0.254472 -2.26777 0
M  V30 4743 C 452.731 0.929809 -1.33392 0
M  V30 4744 O 453.915 0.950889 -1.62759 0
M  V30 4745 C 451.042 1.36171 -3.10121 0
M  V30 4746 C 450.088 0.796038 -4.19005 0
M  V30 4747 S 450.921 -0.349191 -5.3436 0
M  V30 4748 C 452.077 0.760122 -6.21267 0
M  V30 4749 H 452.31 -0.415612 -2.94381 0
M  V30 4750 H 449.843 -0.332809 -1.5077 0
M  V30 4751 H 451.801 1.99588 -3.58713 0
M  V30 4752 H 450.462 2.00359 -2.41899 0
M  V30 4753 H 449.655 1.62719 -4.7701 0
M  V30 4754 H 449.257 0.238246 -3.7324 0
M  V30 4755 H 451.549 1.65479 -6.5698 0
M  V30 4756 H 452.492 0.217673 -7.07765 0
M  V30 4757 H 452.9 1.04806 -5.54685 0
M  V30 4758 N 452.299 1.55045 -0.282633 0
M  V30 4759 C 453.545 2.00056 0.332481 0
M  V30 4760 C 453.878 1.1708 1.54939 0
M  V30 4761 O 453.153 0.2427 1.9298 0
M  V30 4762 C 453.436 3.53086 0.70725 0
M  V30 4763 C 453.289 4.46813 -0.517521 0
M  V30 4764 C 454.608 4.12245 1.54084 0
M  V30 4765 H 451.727 0.727268 0.119373 0
M  V30 4766 H 454.369 1.85932 -0.391076 0
M  V30 4767 H 452.519 3.65253 1.32372 0
M  V30 4768 H 454.191 4.46579 -1.15607 0
M  V30 4769 H 452.434 4.18163 -1.1542 0
M  V30 4770 H 453.105 5.51595 -0.211426 0
M  V30 4771 H 455.581 4.03401 1.02013 0
M  V30 4772 H 454.457 5.19515 1.77186 0
M  V30 4773 H 454.718 3.62951 2.52427 0
M  V30 4774 N 453.777 0.010035 1.57597 0
M  V30 4775 C 455.193 -0.346164 1.55801 0
M  V30 4776 C 455.393 -1.74144 1.01371 0
M  V30 4777 O 454.449 -2.43938 0.651968 0
M  V30 4778 C 455.762 -0.212216 2.9995 0
M  V30 4779 C 457.31 -0.286409 3.11687 0
M  V30 4780 C 457.785 -0.18147 4.5764 0
M  V30 4781 N 459.276 -0.239056 4.62583 0
M  V30 4782 C 460.011 -0.181351 5.73113 0
M  V30 4783 N 459.507 -0.073661 6.92761 0
M  V30 4784 N 461.3 -0.233949 5.61613 0
M  V30 4785 H 453.451 0.922657 1.91313 0
M  V30 4786 H 455.714 0.354595 0.879185 0
M  V30 4787 H 455.42 0.748169 3.4365 0
M  V30 4788 H 455.294 -0.990224 3.6397 0
M  V30 4789 H 457.681 -1.23724 2.67911 0
M  V30 4790 H 457.762 0.521645 2.50425 0
M  V30 4791 H 457.406 0.765863 5.02093 0
M  V30 4792 H 457.336 -1.00814 5.1686 0
M  V30 4793 H 459.827 -0.32321 3.76515 0
M  V30 4794 H 460.14 -0.0358003 7.72792 0
M  V30 4795 H 458.485 -0.0391461 6.94989 0
M  V30 4796 H 461.676 -0.316347 4.6703 0
M  V30 4797 H 461.849 -0.185514 6.47734 0
M  V30 4798 N 455.255 -1.55392 -0.262866 0
M  V30 4799 C 456.203 -1.8977 -1.345 0
M  V30 4800 C 457.197 -0.775063 -1.50629 0
M  V30 4801 O 458.403 -0.959519 -1.52293 0
M  V30 4802 H 454.778 -0.602467 -0.450041 0
M  V30 4803 H 456.749 -2.80147 -1.02762 0
M  V30 4804 C 455.498 -2.19501 -2.69657 0
M  V30 4805 H 454.821 -3.05378 -2.5804 0
M  V30 4806 H 456.261 -2.47469 -3.44289 0
M  V30 4807 C 454.72 -1.00597 -3.21531 0
M  V30 4808 O 455.25 -0.245768 -4.00947 0
M  V30 4809 N 453.456 -0.800911 -2.79345 0
M  V30 4810 H 453.003 -1.42079 -2.14875 0
M  V30 4811 H 452.961 -0.00697996 -3.14399 0
M  V30 4812 N 456.733 0.527833 -1.48498 0
M  V30 4813 C 457.643 1.65907 -1.65867 0
M  V30 4814 C 458.659 1.6537 -0.541192 0
M  V30 4815 O 459.835 1.84282 -0.812534 0
M  V30 4816 C 456.9 3.02364 -1.69637 0
M  V30 4817 C 455.961 3.1374 -2.93028 0
M  V30 4818 C 455.194 4.43688 -2.96609 0
M  V30 4819 O 455.417 5.30913 -2.08538 0
M  V30 4820 O 454.351 4.59475 -3.88802 0
M  V30 4821 H 458.177 1.5419 -2.61647 0
M  V30 4822 H 455.762 0.701163 -1.31924 0
M  V30 4823 H 457.644 3.83515 -1.74625 0
M  V30 4824 H 456.319 3.14401 -0.770312 0
M  V30 4825 H 455.226 2.31877 -2.93571 0
M  V30 4826 H 456.559 3.06621 -3.85026 0
M  V30 4827 N 458.211 1.37122 0.776871 0
M  V30 4828 C 459.158 1.3247 1.88998 0
M  V30 4829 C 460.128 0.191143 1.64997 0
M  V30 4830 O 461.313 0.379683 1.86984 0
M  V30 4831 C 458.453 1.13241 3.25992 0
M  V30 4832 C 457.566 2.35782 3.61982 0
M  V30 4833 C 456.701 2.09465 4.88158 0
M  V30 4834 C 455.74 3.279 5.16864 0
M  V30 4835 N 454.877 3.01167 6.34226 0
M  V30 4836 H 459.717 2.27642 1.9231 0
M  V30 4837 H 457.254 1.13125 0.94027 0
M  V30 4838 H 459.212 1.00115 4.0501 0
M  V30 4839 H 457.842 0.217186 3.22069 0
M  V30 4840 H 456.894 2.59666 2.77989 0
M  V30 4841 H 458.206 3.24125 3.79137 0
M  V30 4842 H 457.36 1.93341 5.75069 0
M  V30 4843 H 456.099 1.18452 4.73097 0
M  V30 4844 H 455.104 3.44569 4.2843 0
M  V30 4845 H 456.329 4.19757 5.33836 0
M  V30 4846 H 454.275 2.12779 6.20533 0
M  V30 4847 H 454.192 3.83052 6.51772 0
M  V30 4848 H 455.46 2.88649 7.24087 0
M  V30 4849 N 459.689 -1.00246 1.21608 0
M  V30 4850 C 460.937 -1.73717 1.0328 0
M  V30 4851 C 461.258 -1.90102 -0.434318 0
M  V30 4852 O 460.528 -1.45376 -1.31311 0
M  V30 4853 H 459.108 -0.643613 0.379172 0
M  V30 4854 H 461.77 -1.20787 1.52959 0
M  V30 4855 H 460.866 -2.73535 1.50283 0
M  V30 4856 N 461.167 -1.02423 -1.1978 0
M  V30 4857 C 462.097 -0.62157 -2.25075 0
M  V30 4858 C 463.078 0.367148 -1.6609 0
M  V30 4859 O 464.263 0.250892 -1.92573 0
M  V30 4860 C 461.393 0.0331826 -3.47284 0
M  V30 4861 C 460.347 -0.877323 -4.18912 0
M  V30 4862 C 459.673 -0.0879296 -5.34628 0
M  V30 4863 C 460.973 -2.18892 -4.74219 0
M  V30 4864 H 462.667 -1.50179 -2.59011 0
M  V30 4865 H 460.213 -0.723547 -1.24502 0
M  V30 4866 H 462.166 0.326488 -4.20133 0
M  V30 4867 H 460.89 0.948164 -3.12534 0
M  V30 4868 H 459.549 -1.15475 -3.47938 0
M  V30 4869 H 459.197 0.828941 -4.96123 0
M  V30 4870 H 458.897 -0.694359 -5.83483 0
M  V30 4871 H 460.421 0.198743 -6.10276 0
M  V30 4872 H 461.835 -1.95746 -5.38847 0
M  V30 4873 H 460.232 -2.74686 -5.33542 0
M  V30 4874 H 461.302 -2.84674 -3.92541 0
M  V30 4875 N 462.645 1.35699 -0.801477 0
M  V30 4876 C 463.575 2.32436 -0.222658 0
M  V30 4877 C 464.556 1.5723 0.649057 0
M  V30 4878 O 465.741 1.85324 0.580387 0
M  V30 4879 C 462.871 3.41469 0.633719 0
M  V30 4880 C 461.825 4.27774 -0.139083 0
M  V30 4881 C 461.151 5.28082 0.838666 0
M  V30 4882 C 462.451 5.04946 -1.33517 0
M  V30 4883 H 464.145 2.81094 -1.03086 0
M  V30 4884 H 461.691 1.35146 -0.497155 0
M  V30 4885 H 463.644 4.08143 1.04868 0
M  V30 4886 H 462.368 2.91408 1.47475 0
M  V30 4887 H 461.027 3.62673 -0.535156 0
M  V30 4888 H 460.675 4.7429 1.67506 0
M  V30 4889 H 460.375 5.86695 0.32594 0
M  V30 4890 H 461.899 5.97628 1.25194 0
M  V30 4891 H 463.313 5.64593 -0.995349 0
M  V30 4892 H 461.71 5.7303 -1.78202 0
M  V30 4893 H 462.78 4.35886 -2.12442 0
M  V30 4894 N 464.123 0.554532 1.47522 0
M  V30 4895 C 465.351 0.034257 2.06872 0
M  V30 4896 C 465.766 -1.25826 1.40759 0
M  V30 4897 O 465.123 -1.75425 0.503217 0
M  V30 4898 C 465.174 -0.167827 3.6111 0
M  V30 4899 O 464.895 1.07351 4.24744 0
M  V30 4900 C 466.396 -0.72569 4.3732 0
M  V30 4901 H 463.616 0.0446275 0.669514 0
M  V30 4902 H 466.16 0.767181 1.89564 0
M  V30 4903 H 464.315 -0.850872 3.7794 0
M  V30 4904 H 464.729 0.869563 5.17242 0
M  V30 4905 H 466.203 -0.816394 5.45929 0
M  V30 4906 H 466.68 -1.73635 4.0342 0
M  V30 4907 H 467.286 -0.0784292 4.25228 0
M  V30 4908 N 465.601 -1.54893 0.290851 0
M  V30 4909 C 466.831 -2.04047 -0.323818 0
M  V30 4910 C 467.239 -1.16809 -1.48837 0
M  V30 4911 O 466.582 -0.184145 -1.82775 0
M  V30 4912 C 466.644 -3.49248 -0.852395 0
M  V30 4913 C 466.308 -4.56623 0.185557 0
M  V30 4914 C 467.305 -5.09985 1.01053 0
M  V30 4915 C 464.99 -5.01252 0.324332 0
M  V30 4916 C 466.984 -6.06507 1.96031 0
M  V30 4917 C 464.671 -5.97596 1.27757 0
M  V30 4918 C 465.669 -6.50107 2.09405 0
M  V30 4919 O 465.357 -7.44565 3.03114 0
M  V30 4920 H 465.089 -0.671735 -0.0758129 0
M  V30 4921 H 467.643 -2.00947 0.425393 0
M  V30 4922 H 465.873 -3.49639 -1.65195 0
M  V30 4923 H 467.562 -3.81654 -1.38185 0
M  V30 4924 H 468.328 -4.76307 0.914129 0
M  V30 4925 H 464.207 -4.60015 -0.301213 0
M  V30 4926 H 467.751 -6.47418 2.598 0
M  V30 4927 H 463.648 -6.30691 1.37473 0
M  V30 4928 H 464.416 -7.62334 2.97976 0
M  V30 4929 N 467.08 -0.0183926 -1.57589 0
M  V30 4930 C 468.308 0.673046 -1.95647 0
M  V30 4931 C 468.723 1.66275 -0.894312 0
M  V30 4932 O 468.08 1.82072 0.124975 0
M  V30 4933 C 468.131 1.38884 -3.33756 0
M  V30 4934 O 467.852 0.438806 -4.35897 0
M  V30 4935 C 469.353 2.1731 -3.86383 0
M  V30 4936 H 466.573 0.186292 -0.644621 0
M  V30 4937 H 469.117 -0.0749748 -2.04363 0
M  V30 4938 H 467.272 2.08835 -3.26293 0
M  V30 4939 H 467.686 0.945869 -5.15901 0
M  V30 4940 H 469.16 2.62863 -4.85394 0
M  V30 4941 H 469.637 3.00764 -3.20059 0
M  V30 4942 H 470.243 1.52339 -3.97081 0
M  V30 4943 N 468.558 1.5553 0.254621 0
M  V30 4944 C 469.783 1.81383 1.00573 0
M  V30 4945 C 470.208 0.594419 1.78461 0
M  V30 4946 O 469.566 -0.456403 1.75461 0
M  V30 4947 C 469.614 3.04892 1.92545 0
M  V30 4948 O 468.718 2.81266 3.01601 0
M  V30 4949 H 468.059 0.598969 0.286587 0
M  V30 4950 H 470.589 2.02703 0.277952 0
M  V30 4951 H 470.599 3.34119 2.34155 0
M  V30 4952 H 469.274 3.93287 1.3527 0
M  V30 4953 H 467.851 2.63185 2.64174 0
M  V30 4954 N 470.036 -0.519951 1.48776 0
M  V30 4955 C 471.282 -1.27456 1.58514 0
M  V30 4956 C 471.637 -1.90634 0.260057 0
M  V30 4957 O 470.93 -1.76815 -0.738036 0
M  V30 4958 C 471.124 -2.37864 2.6675 0
M  V30 4959 C 470.953 -1.85509 4.09654 0
M  V30 4960 C 469.723 -1.67661 4.76674 0
M  V30 4961 C 471.921 -1.37783 4.955 0
M  V30 4962 N 469.903 -1.10037 6.03958 0
M  V30 4963 C 471.274 -0.921714 6.1311 0
M  V30 4964 C 473.329 -1.26179 4.81646 0
M  V30 4965 C 472.032 -0.361057 7.18393 0
M  V30 4966 C 474.058 -0.715121 5.8706 0
M  V30 4967 C 473.42 -0.269132 7.03886 0
M  V30 4968 H 469.519 -0.457049 0.634531 0
M  V30 4969 H 472.103 -0.585073 1.85701 0
M  V30 4970 H 470.274 -3.04296 2.41367 0
M  V30 4971 H 472.006 -3.04901 2.66116 0
M  V30 4972 H 468.761 -1.91478 4.33166 0
M  V30 4973 H 469.185 -0.832067 6.71867 0
M  V30 4974 H 473.827 -1.59263 3.91657 0
M  V30 4975 H 471.545 -0.0179127 8.08098 0
M  V30 4976 H 475.131 -0.628376 5.78397 0
M  V30 4977 H 474.011 0.14729 7.84062 0
M  V30 4978 N 471.514 -1.37532 -0.769588 0
M  V30 4979 C 472.424 -1.35668 -1.91393 0
M  V30 4980 C 473.44 -0.255954 -1.72107 0
M  V30 4981 O 474.616 -0.491704 -1.95305 0
M  V30 4982 C 471.681 -1.16481 -3.26547 0
M  V30 4983 C 470.742 -2.36212 -3.58472 0
M  V30 4984 C 469.975 -2.17932 -4.87177 0
M  V30 4985 O 470.198 -1.1647 -5.58382 0
M  V30 4986 O 469.132 -3.06167 -5.18214 0
M  V30 4987 H 472.958 -2.32055 -1.95918 0
M  V30 4988 H 470.543 -1.18284 -0.912641 0
M  V30 4989 H 472.425 -1.07778 -4.07384 0
M  V30 4990 H 471.1 -0.231687 -3.2287 0
M  V30 4991 H 470.007 -2.50488 -2.77861 0
M  V30 4992 H 471.34 -3.281 -3.66894 0
M  V30 4993 N 472.992 0.995999 -1.22138 0
M  V30 4994 C 474.269 1.70834 -0.952642 0
M  V30 4995 C 474.649 2.04257 0.533119 0
M  V30 4996 O 473.997 1.72343 1.50034 0
M  V30 4997 C 474.207 2.96119 -1.84701 0
M  V30 4998 C 475.555 3.68962 -2.10124 0
M  V30 4999 O 476.579 3.0612 -1.82124 0
M  V30 5000 O 475.438 4.82017 -2.57531 0
M  V30 5001 H 472.532 0.745498 -0.357997 0
M  V30 5002 H 475.078 1.05262 -1.33109 0
M  V30 5003 H 473.85 2.67898 -2.85213 0
M  V30 5004 H 473.473 3.6943 -1.46995 0
M  V30 5005 N 474.47 1.03057 1.19235 0
M  V30 5006 C 475.433 0.617418 2.20727 0
M  V30 5007 C 476.433 -0.319856 1.57587 0
M  V30 5008 O 477.623 -0.106633 1.73873 0
M  V30 5009 C 474.755 -0.096296 3.40764 0
M  V30 5010 H 475.948 1.51544 2.58794 0
M  V30 5011 H 473.501 0.821949 1.32942 0
M  V30 5012 H 474.236 -1.00859 3.08217 0
M  V30 5013 H 474.021 0.577217 3.87828 0
M  V30 5014 H 475.511 -0.372219 4.15938 0
M  V30 5015 N 475.948 -1.35272 0.808662 0
M  V30 5016 C 476.878 -2.32315 0.234981 0
M  V30 5017 C 477.859 -1.57572 -0.64071 0
M  V30 5018 O 479.044 -1.8563 -0.570551 0
M  V30 5019 C 476.174 -3.41801 -0.615601 0
M  V30 5020 C 475.128 -4.27694 0.161767 0
M  V30 5021 C 474.454 -5.28519 -0.810649 0
M  V30 5022 C 475.754 -5.04231 1.36193 0
M  V30 5023 H 477.448 -2.80543 1.04575 0
M  V30 5024 H 474.994 -1.3488 0.504315 0
M  V30 5025 H 476.947 -4.08693 -1.02702 0
M  V30 5026 H 475.671 -2.92186 -1.45928 0
M  V30 5027 H 474.33 -3.62384 0.554382 0
M  V30 5028 H 473.978 -4.75171 -1.64988 0
M  V30 5029 H 473.678 -5.8686 -0.294822 0
M  V30 5030 H 475.202 -5.98283 -1.22023 0
M  V30 5031 H 476.616 -5.64058 1.02528 0
M  V30 5032 H 475.013 -5.72077 1.81239 0
M  V30 5033 H 476.083 -4.34753 2.14751 0
M  V30 5034 N 477.426 -0.562348 -1.47226 0
M  V30 5035 C 478.651 -0.0432632 -2.07355 0
M  V30 5036 C 479.076 1.24332 -1.41149 0
M  V30 5037 O 478.434 1.74603 -0.488226 0
M  V30 5038 C 478.482 0.130288 -3.60365 0
M  V30 5039 O 477.586 1.19166 -3.94808 0
M  V30 5040 H 476.927 -0.0536334 -0.66183 0
M  V30 5041 H 479.457 -0.779495 -1.89169 0
M  V30 5042 H 479.467 0.342881 -4.06557 0
M  V30 5043 H 478.142 -0.809389 -4.07948 0
M  V30 5044 H 476.719 0.959153 -3.60354 0
M  V30 5045 N 478.904 1.54736 -0.299062 0
M  V30 5046 C 480.32 1.59507 0.0543849 0
M  V30 5047 C 480.52 1.31606 1.52585 0
M  V30 5048 O 479.576 1.08853 2.27832 0
M  V30 5049 C 480.889 2.98751 -0.34181 0
M  V30 5050 C 482.437 3.1165 -0.290414 0
M  V30 5051 C 482.912 4.53199 -0.661402 0
M  V30 5052 N 484.403 4.59114 -0.613863 0
M  V30 5053 C 485.138 5.66709 -0.873417 0
M  V30 5054 N 484.634 6.82349 -1.19884 0
M  V30 5055 N 486.427 5.56369 -0.800608 0
M  V30 5056 H 478.578 1.71133 -1.25806 0
M  V30 5057 H 480.841 0.799186 -0.509908 0
M  V30 5058 H 480.547 3.24085 -1.36608 0
M  V30 5059 H 480.421 3.75961 0.305508 0
M  V30 5060 H 482.808 2.86066 0.724605 0
M  V30 5061 H 482.889 2.366 -0.972327 0
M  V30 5062 H 482.533 4.79513 -1.67422 0
M  V30 5063 H 482.463 5.26583 0.0425612 0
M  V30 5064 H 484.954 3.76053 -0.3732 0
M  V30 5065 H 485.267 7.60326 -1.38291 0
M  V30 5066 H 483.612 6.83906 -1.23685 0
M  V30 5067 H 486.803 4.64904 -0.546045 0
M  V30 5068 H 486.976 6.40139 -1.00626 0
M  V30 5069 N 480.382 0.0267497 1.57577 0
M  V30 5070 C 481.628 -0.653371 1.91987 0
M  V30 5071 C 481.961 -1.71915 0.903263 0
M  V30 5072 O 481.236 -1.94358 -0.0743387 0
M  V30 5073 C 481.519 -1.272 3.36886 0
M  V30 5074 C 481.372 -0.215938 4.49281 0
M  V30 5075 C 482.691 -2.19069 3.81703 0
M  V30 5076 H 479.81 -0.236047 0.698177 0
M  V30 5077 H 482.452 0.0835236 1.89816 0
M  V30 5078 H 480.602 -1.90005 3.38866 0
M  V30 5079 H 482.274 0.41449 4.59434 0
M  V30 5080 H 480.517 0.458855 4.31366 0
M  V30 5081 H 481.188 -0.688347 5.47691 0
M  V30 5082 H 483.664 -1.66253 3.81444 0
M  V30 5083 H 482.54 -2.59307 4.83788 0
M  V30 5084 H 482.801 -3.08087 3.17072 0
M  V30 5085 N 481.861 -1.55662 -0.24637 0
M  V30 5086 C 482.824 -1.89558 -1.28842 0
M  V30 5087 C 483.824 -0.772082 -1.41052 0
M  V30 5088 O 485.014 -1.04007 -1.39743 0
M  V30 5089 C 482.146 -2.12449 -2.66605 0
M  V30 5090 H 483.339 -2.82735 -1.00004 0
M  V30 5091 H 480.892 -1.48562 -0.485684 0
M  V30 5092 H 481.627 -1.21742 -3.00582 0
M  V30 5093 H 481.412 -2.94273 -2.59125 0
M  V30 5094 H 482.902 -2.39854 -3.41847 0
M  V30 5095 N 483.339 0.512053 -1.4905 0
M  V30 5096 C 484.587 1.26436 -1.57665 0
M  V30 5097 C 484.908 1.93255 -0.260293 0
M  V30 5098 O 484.178 1.82206 0.719564 0
M  V30 5099 H 482.758 0.469658 -0.580888 0
M  V30 5100 H 485.42 0.594398 -1.85615 0
M  V30 5101 H 484.516 2.03417 -2.36702 0
M  V30 5102 N 484.817 1.37938 0.762283 0
M  V30 5103 C 485.75 1.2884 1.88349 0
M  V30 5104 C 486.728 0.167084 1.61739 0
M  V30 5105 O 487.912 0.34292 1.85355 0
M  V30 5106 C 485.039 0.994257 3.23778 0
M  V30 5107 C 484.085 2.13376 3.69287 0
M  V30 5108 S 484.918 3.75439 3.81845 0
M  V30 5109 C 486.074 3.48195 5.20107 0
M  V30 5110 H 486.307 2.23736 1.95779 0
M  V30 5111 H 483.84 1.23672 0.924368 0
M  V30 5112 H 485.798 0.83138 4.01993 0
M  V30 5113 H 484.459 0.0626251 3.14038 0
M  V30 5114 H 483.652 1.88319 4.67495 0
M  V30 5115 H 483.254 2.25726 2.98201 0
M  V30 5116 H 485.546 3.0377 6.05583 0
M  V30 5117 H 486.489 4.45765 5.50181 0
M  V30 5118 H 486.897 2.82905 4.88493 0
M  V30 5119 N 486.295 -0.989507 1.22664 0
M  V30 5120 C 487.225 -2.09847 1.02404 0
M  V30 5121 C 488.206 -1.70007 -0.0561303 0
M  V30 5122 O 489.391 -1.93906 0.106748 0
M  V30 5123 C 486.521 -3.41996 0.604663 0
M  V30 5124 C 485.475 -3.95699 1.63115 0
M  V30 5125 C 484.801 -5.23936 1.0675 0
M  V30 5126 C 486.101 -4.25999 3.02196 0
M  V30 5127 H 487.795 -2.27054 1.95158 0
M  V30 5128 H 485.341 -1.09111 0.939727 0
M  V30 5129 H 487.294 -4.1899 0.45002 0
M  V30 5130 H 486.018 -3.24626 -0.35855 0
M  V30 5131 H 484.677 -3.2084 1.77362 0
M  V30 5132 H 484.325 -5.02909 0.0955422 0
M  V30 5133 H 484.025 -5.60833 1.75328 0
M  V30 5134 H 485.549 -6.0356 0.924516 0
M  V30 5135 H 486.963 -4.93777 2.91303 0
M  V30 5136 H 485.36 -4.74076 3.67929 0
M  V30 5137 H 486.43 -3.33636 3.51873 0
M  V30 5138 N 487.773 -1.03688 -1.18687 0
M  V30 5139 C 488.705 -0.582696 -2.21669 0
M  V30 5140 C 489.718 0.345656 -1.59088 0
M  V30 5141 O 490.907 0.140776 -1.77944 0
M  V30 5142 C 488.007 0.169204 -3.38477 0
M  V30 5143 C 487.18 -0.766079 -4.30639 0
M  V30 5144 C 486.239 -0.0581541 -5.26168 0
M  V30 5145 O 485.265 -0.687346 -5.65035 0
M  V30 5146 N 486.467 1.20981 -5.67753 0
M  V30 5147 H 489.232 -1.46843 -2.61261 0
M  V30 5148 H 486.793 -0.916896 -1.33434 0
M  V30 5149 H 488.785 0.652543 -3.99405 0
M  V30 5150 H 487.355 0.956435 -2.97609 0
M  V30 5151 H 486.575 -1.42935 -3.67373 0
M  V30 5152 H 487.863 -1.40146 -4.89118 0
M  V30 5153 H 487.261 1.74159 -5.38224 0
M  V30 5154 H 485.818 1.6375 -6.30896 0
M  V30 5155 N 489.251 1.34841 -0.815825 0
M  V30 5156 C 490.476 2.03261 -0.41226 0
M  V30 5157 C 490.901 1.61055 0.971751 0
M  V30 5158 O 490.259 0.7917 1.63101 0
M  V30 5159 C 490.307 3.56914 -0.514289 0
M  V30 5160 O 489.411 4.09728 0.468675 0
M  V30 5161 H 488.752 0.641664 -0.170771 0
M  V30 5162 H 491.282 1.72241 -1.10427 0
M  V30 5163 H 491.292 4.06156 -0.387457 0
M  V30 5164 H 489.967 3.86982 -1.52375 0
M  V30 5165 H 488.544 3.71681 0.301316 0
M  V30 5166 N 490.729 0.570148 1.46925 0
M  V30 5167 C 491.976 0.0509529 2.02436 0
M  V30 5168 C 492.304 -1.30405 1.44308 0
M  V30 5169 O 491.559 -1.86493 0.593198 0
M  V30 5170 C 491.858 -0.0780336 3.57315 0
M  V30 5171 C 491.524 1.20775 4.34424 0
M  V30 5172 C 490.186 1.56004 4.5521 0
M  V30 5173 C 492.538 2.0592 4.78797 0
M  V30 5174 C 489.866 2.76201 5.17619 0
M  V30 5175 C 492.218 3.25332 5.42533 0
M  V30 5176 C 490.882 3.60859 5.61549 0
M  V30 5177 H 490.152 0.018645 0.740765 0
M  V30 5178 H 492.799 0.744262 1.76445 0
M  V30 5179 H 491.104 -0.854394 3.82371 0
M  V30 5180 H 492.801 -0.495312 3.97929 0
M  V30 5181 H 489.391 0.923469 4.18533 0
M  V30 5182 H 493.575 1.80008 4.62505 0
M  V30 5183 H 488.831 3.0388 5.30535 0
M  V30 5184 H 493.005 3.91586 5.75876 0
M  V30 5185 H 490.632 4.54088 6.09678 0
M  V30 5186 N 492.207 -1.54576 0.307264 0
M  V30 5187 C 493.139 -2.21212 -0.599807 0
M  V30 5188 C 494.152 -1.20685 -1.09266 0
M  V30 5189 O 495.341 -1.47244 -1.00903 0
M  V30 5190 C 492.441 -2.84994 -1.83389 0
M  V30 5191 C 491.614 -4.11511 -1.48248 0
M  V30 5192 C 490.673 -4.59038 -2.57237 0
M  V30 5193 O 489.699 -5.24095 -2.22065 0
M  V30 5194 N 490.901 -4.31884 -3.87887 0
M  V30 5195 H 493.666 -2.99686 -0.0293075 0
M  V30 5196 H 491.227 -1.61379 0.129738 0
M  V30 5197 H 493.219 -3.1372 -2.5566 0
M  V30 5198 H 491.789 -2.10324 -2.31263 0
M  V30 5199 H 491.009 -3.89728 -0.592122 0
M  V30 5200 H 492.297 -4.93879 -1.22316 0
M  V30 5201 H 491.695 -3.79778 -4.19268 0
M  V30 5202 H 490.252 -4.65304 -4.56438 0
M  V30 5203 N 493.685 -0.035106 -1.57561 0
M  V30 5204 C 494.933 0.64096 -1.91667 0
M  V30 5205 C 495.254 1.72323 -0.912681 0
M  V30 5206 O 494.524 1.95849 0.0449089 0
M  V30 5207 H 493.104 0.239743 -0.707483 0
M  V30 5208 H 495.766 -0.084321 -1.94718 0
M  V30 5209 H 494.862 1.08987 -2.92452 0
M  V30 5210 N 495.163 1.55791 0.238111 0
M  V30 5211 C 496.11 1.9105 1.29493 0
M  V30 5212 C 497.08 0.765733 1.47397 0
M  V30 5213 O 498.265 1.02017 1.61236 0
M  V30 5214 C 495.405 2.21826 2.64362 0
M  V30 5215 C 494.518 3.49153 2.54394 0
M  V30 5216 C 493.653 3.69455 3.81676 0
M  V30 5217 C 492.692 4.90353 3.66361 0
M  V30 5218 N 491.829 5.07131 4.85554 0
M  V30 5219 H 496.669 2.81172 0.987233 0
M  V30 5220 H 494.206 1.39179 0.476203 0
M  V30 5221 H 496.164 2.37675 3.4288 0
M  V30 5222 H 494.794 1.34897 2.93262 0
M  V30 5223 H 493.846 3.41587 1.67399 0
M  V30 5224 H 495.158 4.37818 2.38991 0
M  V30 5225 H 494.312 3.85311 4.68636 0
M  V30 5226 H 493.051 2.7904 3.99985 0
M  V30 5227 H 492.056 4.74464 2.77784 0
M  V30 5228 H 493.281 5.82237 3.49538 0
M  V30 5229 H 491.227 4.19654 5.04209 0
M  V30 5230 H 491.144 5.89899 4.72816 0
M  V30 5231 H 492.412 5.27407 5.73988 0
M  V30 5232 N 496.642 -0.504142 1.49319 0
M  V30 5233 C 497.919 -1.26548 1.49147 0
M  V30 5234 C 498.299 -2.09977 0.21744 0
M  V30 5235 O 497.647 -2.14028 -0.800269 0
M  V30 5236 C 497.857 -2.12489 2.76857 0
M  V30 5237 C 499.205 -2.7178 3.26222 0
M  V30 5238 O 500.229 -2.22758 2.77952 0
M  V30 5239 O 499.088 -3.61015 4.10281 0
M  V30 5240 H 496.182 -0.572495 0.596806 0
M  V30 5241 H 498.728 -0.51867 1.61579 0
M  V30 5242 H 497.5 -1.50796 3.61077 0
M  V30 5243 H 497.123 -2.94368 2.6727 0
M  V30 5244 N 498.12 -1.38341 -0.754957 0
M  V30 5245 C 499.366 -1.34672 -1.51628 0
M  V30 5246 C 499.699 0.0636036 -1.94096 0
M  V30 5247 O 498.974 1.0245 -1.6533 0
M  V30 5248 C 499.257 -2.30116 -2.76981 0
M  V30 5249 C 499.11 -3.80003 -2.4066 0
M  V30 5250 C 500.429 -2.23715 -3.78998 0
M  V30 5251 H 497.548 -0.490517 -0.550056 0
M  V30 5252 H 500.19 -1.69178 -0.864807 0
M  V30 5253 H 498.34 -2.00821 -3.3257 0
M  V30 5254 H 500.012 -4.19966 -1.90856 0
M  V30 5255 H 498.255 -3.97751 -1.73137 0
M  V30 5256 H 498.926 -4.42244 -3.30339 0
M  V30 5257 H 501.402 -2.49574 -3.32945 0
M  V30 5258 H 500.278 -2.9261 -4.64403 0
M  V30 5259 H 500.539 -1.23554 -4.24484 0
M  V30 5260 N 499.598 0.982988 -1.23187 0
M  V30 5261 C 500.561 2.05649 -1.01198 0
M  V30 5262 C 501.561 1.6078 0.0252464 0
M  V30 5263 O 502.751 1.72878 -0.214243 0
M  V30 5264 C 499.883 3.36744 -0.530656 0
M  V30 5265 H 501.076 2.2659 -1.96461 0
M  V30 5266 H 498.629 1.15602 -1.05195 0
M  V30 5267 H 499.364 3.21492 0.425873 0
M  V30 5268 H 499.149 3.7065 -1.2791 0
M  V30 5269 H 500.639 4.15705 -0.397366 0
M  V30 5270 N 501.076 1.04316 1.18135 0
M  V30 5271 C 502.039 0.640794 2.2006 0
M  V30 5272 C 503.039 -0.303124 1.57917 0
M  V30 5273 O 504.229 -0.0881855 1.73977 0
M  V30 5274 C 501.361 -0.060148 3.40847 0
M  V30 5275 H 502.554 1.54281 2.57172 0
M  V30 5276 H 500.107 0.836004 1.32063 0
M  V30 5277 H 500.842 -0.975845 3.0927 0
M  V30 5278 H 500.627 0.618319 3.87194 0
M  V30 5279 H 502.117 -0.328082 4.16309 0
M  V30 5280 N 502.554 -1.34406 0.822964 0
M  V30 5281 C 503.803 -1.97542 0.407458 0
M  V30 5282 C 504.116 -1.65973 -1.035 0
M  V30 5283 O 505.322 -2.22598 -1.55442 0
M  V30 5284 C 503.778 -3.53463 0.677623 0
M  V30 5285 C 503.386 -3.93925 2.1337 0
M  V30 5286 C 505.13 -4.23229 0.328284 0
M  V30 5287 C 503.037 -5.42759 2.34876 0
M  V30 5288 H 501.967 -0.739207 0.148623 0
M  V30 5289 H 504.618 -1.53248 1.00932 0
M  V30 5290 H 503 -3.96 0.00558965 0
M  V30 5291 H 504.174 -3.62494 2.8449 0
M  V30 5292 H 502.489 -3.37097 2.44448 0
M  V30 5293 H 505.086 -5.32659 0.466794 0
M  V30 5294 H 505.429 -4.09899 -0.727224 0
M  V30 5295 H 505.962 -3.86169 0.954896 0
M  V30 5296 H 502.701 -5.61075 3.38932 0
M  V30 5297 H 502.221 -5.75704 1.68299 0
M  V30 5298 H 503.9 -6.0944 2.17236 0
M  V30 5299 N 504.032 -0.577932 -1.46621 0
M  V30 5300 C 504.995 0.147805 -2.28723 0
M  V30 5301 C 505.995 0.823325 -1.38123 0
M  V30 5302 O 507.185 0.676011 -1.60548 0
M  V30 5303 C 504.317 1.21853 -3.18378 0
M  V30 5304 H 505.51 -0.573654 -2.94362 0
M  V30 5305 H 503.063 -0.335703 -1.52652 0
M  V30 5306 H 503.798 1.97173 -2.57475 0
M  V30 5307 H 503.583 0.738714 -3.85078 0
M  V30 5308 H 505.073 1.72768 -3.80186 0
M  V30 5309 N 505.51 1.54411 -0.315457 0
M  V30 5310 C 506.758 2.00023 0.288971 0
M  V30 5311 C 507.079 1.20529 1.5329 0
M  V30 5312 O 506.349 0.304986 1.93511 0
M  V30 5313 H 504.929 0.738891 0.109766 0
M  V30 5314 H 507.591 1.90094 -0.430129 0
M  V30 5315 H 506.687 3.07198 0.550999 0
M  V30 5316 N 506.988 0.0434614 1.5754 0
M  V30 5317 C 508.236 -0.630786 1.92004 0
M  V30 5318 C 508.557 -1.71836 0.921807 0
M  V30 5319 O 507.827 -1.9587 -0.034522 0
M  V30 5320 H 506.407 -0.235988 0.708745 0
M  V30 5321 H 509.069 0.0946462 1.9467 0
M  V30 5322 H 508.165 -1.07434 2.93026 0
M  V30 5323 N 508.466 -1.55915 -0.229846 0
M  V30 5324 C 509.396 -1.94754 -1.28815 0
M  V30 5325 C 510.377 -0.814657 -1.49323 0
M  V30 5326 O 511.562 -1.07631 -1.61645 0
M  V30 5327 C 508.692 -2.25705 -2.63959 0
M  V30 5328 C 507.646 -3.41406 -2.5812 0
M  V30 5329 C 506.972 -3.57941 -3.97218 0
M  V30 5330 C 508.272 -4.76616 -2.13623 0
M  V30 5331 H 509.966 -2.83404 -0.965547 0
M  V30 5332 H 507.512 -1.36353 -0.463028 0
M  V30 5333 H 509.465 -2.51467 -3.38146 0
M  V30 5334 H 508.189 -1.339 -2.9789 0
M  V30 5335 H 506.848 -3.1568 -1.86391 0
M  V30 5336 H 506.496 -2.63526 -4.28443 0
M  V30 5337 H 506.196 -4.35757 -3.94195 0
M  V30 5338 H 507.72 -3.86042 -4.73079 0
M  V30 5339 H 509.134 -5.01637 -2.77549 0
M  V30 5340 H 507.531 -5.57655 -2.21677 0
M  V30 5341 H 508.601 -4.7253 -1.08829 0
M  V30 5342 N 509.944 0.496216 -1.49584 0
M  V30 5343 C 511.19 1.25189 -1.59548 0
M  V30 5344 C 511.523 1.9212 -0.283466 0
M  V30 5345 O 510.798 1.80947 0.713324 0
M  V30 5346 C 511.081 2.31516 -2.75812 0
M  V30 5347 C 510.934 1.69054 -4.16822 0
M  V30 5348 C 512.253 3.3304 -2.87702 0
M  V30 5349 H 509.372 0.45379 -0.580727 0
M  V30 5350 H 512.014 0.549327 -1.81886 0
M  V30 5351 H 510.164 2.91438 -2.56897 0
M  V30 5352 H 511.836 1.12923 -4.47265 0
M  V30 5353 H 510.079 0.994485 -4.22247 0
M  V30 5354 H 510.75 2.462 -4.94054 0
M  V30 5355 H 513.226 2.83114 -3.04936 0
M  V30 5356 H 512.102 4.04794 -3.7072 0
M  V30 5357 H 512.363 3.95655 -1.97255 0
M  V30 5358 N 511.423 1.38739 0.74761 0
M  V30 5359 C 512.7 1.25791 1.49786 0
M  V30 5360 C 513.08 -0.138075 2.10648 0
M  V30 5361 O 512.428 -1.14815 1.9756 0
M  V30 5362 C 512.638 2.37265 2.55942 0
M  V30 5363 C 513.986 2.75978 3.22679 0
M  V30 5364 O 515.01 2.36621 2.6625 0
M  V30 5365 O 513.869 3.43867 4.24756 0
M  V30 5366 H 510.963 0.492251 0.664543 0
M  V30 5367 H 513.509 1.50582 0.782511 0
M  V30 5368 H 512.281 3.30644 2.0926 0
M  V30 5369 H 511.904 2.14071 3.35051 0
M  V30 5370 N 512.901 -0.976442 1.23707 0
M  V30 5371 C 513.864 -2.0511 1.02287 0
M  V30 5372 C 514.864 -1.60791 -0.0167195 0
M  V30 5373 O 516.054 -1.72761 0.223408 0
M  V30 5374 C 513.186 -3.36458 0.548507 0
M  V30 5375 H 514.379 -2.25545 1.9766 0
M  V30 5376 H 511.932 -1.15042 1.05806 0
M  V30 5377 H 512.667 -3.21713 -0.408818 0
M  V30 5378 H 512.452 -3.69967 1.29874 0
M  V30 5379 H 513.942 -4.15489 0.419406 0
M  V30 5380 N 514.379 -1.04941 -1.1758 0
M  V30 5381 C 515.289 -0.658826 -2.25159 0
M  V30 5382 C 516.305 0.318941 -1.71052 0
M  V30 5383 O 517.481 0.171669 -2.00667 0
M  V30 5384 C 514.546 -0.0369522 -3.4668 0
M  V30 5385 C 513.607 -1.06484 -4.15884 0
M  V30 5386 C 512.84 -0.472551 -5.31604 0
M  V30 5387 O 513.063 0.718736 -5.65854 0
M  V30 5388 O 511.997 -1.20557 -5.89703 0
M  V30 5389 H 515.823 -1.55533 -2.60851 0
M  V30 5390 H 513.408 -0.820819 -1.24832 0
M  V30 5391 H 515.29 0.308784 -4.20267 0
M  V30 5392 H 513.965 0.833238 -3.12792 0
M  V30 5393 H 512.872 -1.46253 -3.44327 0
M  V30 5394 H 514.205 -1.9061 -4.53794 0
M  V30 5395 N 515.857 1.33968 -0.830081 0
M  V30 5396 C 516.82 2.27694 -0.26235 0
M  V30 5397 C 517.82 1.50589 0.563876 0
M  V30 5398 O 519.01 1.70028 0.378941 0
M  V30 5399 C 516.142 3.35002 0.63138 0
M  V30 5400 H 517.335 2.79419 -1.08928 0
M  V30 5401 H 514.888 1.44221 -0.602486 0
M  V30 5402 H 515.623 2.88504 1.48109 0
M  V30 5403 H 515.408 3.92079 0.0403276 0
M  V30 5404 H 516.898 4.04897 1.02217 0
M  V30 5405 N 517.335 0.585699 1.46312 0
M  V30 5406 C 518.265 -0.133556 2.33118 0
M  V30 5407 C 519.246 -0.880707 1.45525 0
M  V30 5408 O 520.431 -0.855579 1.74337 0
M  V30 5409 C 517.561 -1.14585 3.27853 0
M  V30 5410 C 516.515 -0.513341 4.2491 0
M  V30 5411 C 515.841 -1.63231 5.09175 0
M  V30 5412 C 517.141 0.551413 5.19381 0
M  V30 5413 H 518.835 0.59121 2.93505 0
M  V30 5414 H 516.381 0.285761 1.41136 0
M  V30 5415 H 518.334 -1.65741 3.87438 0
M  V30 5416 H 517.058 -1.90093 2.65579 0
M  V30 5417 H 515.717 -0.0228349 3.66593 0
M  V30 5418 H 515.365 -2.37713 4.43285 0
M  V30 5419 H 515.065 -1.21473 5.74907 0
M  V30 5420 H 516.589 -2.14658 5.71624 0
M  V30 5421 H 518.003 0.124804 5.73164 0
M  V30 5422 H 516.4 0.889486 5.93471 0
M  V30 5423 H 517.47 1.43655 4.63132 0
M  V30 5424 N 518.813 -1.54241 0.323641 0
M  V30 5425 C 520.059 -2.00867 -0.279323 0
M  V30 5426 C 520.392 -1.21146 -1.5178 0
M  V30 5427 O 519.667 -0.29378 -1.92269 0
M  V30 5428 C 519.95 -3.54837 -0.613387 0
M  V30 5429 C 519.803 -4.45284 0.635803 0
M  V30 5430 C 521.122 -4.16186 -1.43099 0
M  V30 5431 H 518.241 -0.730177 -0.100049 0
M  V30 5432 H 520.883 -1.84829 0.440235 0
M  V30 5433 H 519.033 -3.68634 -1.22641 0
M  V30 5434 H 520.705 -4.43357 1.27406 0
M  V30 5435 H 518.948 -4.14956 1.26466 0
M  V30 5436 H 519.619 -5.5084 0.357597 0
M  V30 5437 H 522.095 -4.05964 -0.912814 0
M  V30 5438 H 520.971 -5.24031 -1.6335 0
M  V30 5439 H 521.232 -3.69516 -2.42715 0
M  V30 5440 N 520.291 -0.0518155 -1.57515 0
M  V30 5441 C 521.254 0.907547 -2.10467 0
M  V30 5442 C 522.254 1.23947 -1.02439 0
M  V30 5443 O 523.444 1.17604 -1.2851 0
M  V30 5444 C 520.576 2.21723 -2.58944 0
M  V30 5445 H 521.769 0.44851 -2.96527 0
M  V30 5446 H 519.322 0.196598 -1.55059 0
M  V30 5447 H 520.057 2.72206 -1.76279 0
M  V30 5448 H 519.842 1.98935 -3.37886 0
M  V30 5449 H 521.332 2.90441 -3.00056 0
M  V30 5450 N 521.769 1.56035 0.221574 0
M  V30 5451 C 522.699 1.95434 1.2778 0
M  V30 5452 C 523.68 0.822564 1.48889 0
M  V30 5453 O 524.865 1.08486 1.61072 0
M  V30 5454 C 521.995 2.27102 2.62759 0
M  V30 5455 C 520.949 3.4277 2.56306 0
M  V30 5456 C 520.275 3.60043 3.95314 0
M  V30 5457 C 521.575 4.77742 2.11093 0
M  V30 5458 H 523.269 2.83912 0.950504 0
M  V30 5459 H 520.815 1.36596 0.455791 0
M  V30 5460 H 522.768 2.53256 3.36807 0
M  V30 5461 H 521.492 1.35478 2.97176 0
M  V30 5462 H 520.151 3.16664 1.84715 0
M  V30 5463 H 519.799 2.65794 4.27039 0
M  V30 5464 H 519.499 4.37841 3.91879 0
M  V30 5465 H 521.023 3.88545 4.71025 0
M  V30 5466 H 522.437 5.03102 2.74885 0
M  V30 5467 H 520.834 5.58823 2.18716 0
M  V30 5468 H 521.904 4.731 1.06321 0
M  V30 5469 N 523.247 -0.488276 1.49845 0
M  V30 5470 C 524.194 -1.58836 1.67451 0
M  V30 5471 C 525.164 -1.57886 0.515857 0
M  V30 5472 O 526.349 -1.75679 0.744403 0
M  V30 5473 C 523.489 -2.96915 1.75885 0
M  V30 5474 C 522.602 -3.07784 3.03138 0
M  V30 5475 C 521.737 -4.36673 3.02473 0
M  V30 5476 C 520.776 -4.41222 4.24252 0
M  V30 5477 N 519.913 -5.61557 4.21424 0
M  V30 5478 H 524.753 -1.43131 2.61376 0
M  V30 5479 H 522.29 -0.696186 1.29583 0
M  V30 5480 H 524.248 -3.76965 1.78755 0
M  V30 5481 H 522.878 -3.11295 0.85414 0
M  V30 5482 H 521.93 -2.20717 3.09819 0
M  V30 5483 H 523.242 -3.07005 3.93128 0
M  V30 5484 H 522.396 -5.25055 3.03977 0
M  V30 5485 H 521.135 -4.40037 2.10283 0
M  V30 5486 H 520.14 -3.5124 4.22978 0
M  V30 5487 H 521.365 -4.39564 5.17649 0
M  V30 5488 H 519.311 -5.65738 3.32078 0
M  V30 5489 H 519.228 -5.62447 5.05163 0
M  V30 5490 H 520.496 -6.52111 4.2705 0
M  V30 5491 N 524.725 -1.39134 -0.740242 0
M  V30 5492 C 526.002 -1.26584 -1.49117 0
M  V30 5493 C 526.382 0.126902 -2.10718 0
M  V30 5494 O 525.73 1.13765 -1.98166 0
M  V30 5495 C 525.94 -2.38619 -2.54681 0
M  V30 5496 C 527.288 -2.77685 -3.21211 0
M  V30 5497 O 528.312 -2.38029 -2.64991 0
M  V30 5498 O 527.171 -3.46115 -4.22926 0
M  V30 5499 H 524.265 -0.495769 -0.661923 0
M  V30 5500 H 526.811 -1.50995 -0.774514 0
M  V30 5501 H 525.583 -3.3175 -2.07504 0
M  V30 5502 H 525.206 -2.15845 -3.33911 0
M  V30 5503 N 526.204 0.969867 -1.24223 0
M  V30 5504 C 527.134 2.08191 -1.05729 0
M  V30 5505 C 528.115 1.70075 0.0290765 0
M  V30 5506 O 529.3 1.93712 -0.137583 0
M  V30 5507 C 526.43 3.40991 -0.658995 0
M  V30 5508 C 525.384 3.93054 -1.69389 0
M  V30 5509 C 524.71 5.22171 -1.15072 0
M  V30 5510 C 526.01 4.21137 -3.08935 0
M  V30 5511 H 527.704 2.23921 -1.98746 0
M  V30 5512 H 525.25 1.07602 -0.956967 0
M  V30 5513 H 527.203 4.18221 -0.51662 0
M  V30 5514 H 525.927 3.25155 0.30686 0
M  V30 5515 H 524.586 3.17977 -1.82444 0
M  V30 5516 H 524.234 5.02694 -0.175539 0
M  V30 5517 H 523.934 5.57973 -1.84229 0
M  V30 5518 H 525.458 6.02013 -1.02042 0
M  V30 5519 H 526.872 4.8908 -2.99121 0
M  V30 5520 H 525.269 4.68163 -3.75425 0
M  V30 5521 H 526.339 3.27996 -3.57137 0
M  V30 5522 N 527.682 1.05563 1.17022 0
M  V30 5523 C 528.612 0.681026 2.23348 0
M  V30 5524 C 529.593 -0.322983 1.67005 0
M  V30 5525 O 530.778 -0.199746 1.9317 0
M  V30 5526 C 527.908 0.0589053 3.4725 0
M  V30 5527 C 526.862 0.988082 4.16438 0
M  V30 5528 C 526.188 0.229646 5.34207 0
M  V30 5529 C 527.488 2.31388 4.68249 0
M  V30 5530 H 529.182 1.56993 2.54938 0
M  V30 5531 H 526.728 0.756302 1.2254 0
M  V30 5532 H 528.681 -0.214982 4.20851 0
M  V30 5533 H 527.405 -0.864968 3.14938 0
M  V30 5534 H 526.064 1.24659 3.44754 0
M  V30 5535 H 525.712 -0.697111 4.98146 0
M  V30 5536 H 525.412 0.848815 5.81437 0
M  V30 5537 H 526.936 -0.0368694 6.10589 0
M  V30 5538 H 528.35 2.09964 5.33468 0
M  V30 5539 H 526.747 2.88736 5.26072 0
M  V30 5540 H 527.817 2.94982 3.84855 0
M  V30 5541 N 529.16 -1.33526 0.837174 0
M  V30 5542 C 530.108 -2.31168 0.257698 0
M  V30 5543 C 531.102 -1.5806 -0.609388 0
M  V30 5544 O 532.308 -1.72941 -0.499139 0
M  V30 5545 H 528.683 -0.74922 0.0646058 0
M  V30 5546 H 530.654 -2.77552 1.09578 0
M  V30 5547 C 529.403 -3.4326 -0.553887 0
M  V30 5548 H 528.726 -3.99665 0.104008 0
M  V30 5549 H 530.166 -4.13782 -0.925219 0
M  V30 5550 C 528.625 -2.88965 -1.73207 0
M  V30 5551 O 529.155 -2.85013 -2.83073 0
M  V30 5552 N 527.361 -2.45596 -1.55342 0
M  V30 5553 H 526.908 -2.49009 -0.659705 0
M  V30 5554 H 526.866 -2.0962 -2.34322 0
M  V30 5555 N 530.638 -0.59345 -1.46 0
M  V30 5556 C 532.054 -0.255965 -1.57534 0
M  V30 5557 C 532.254 1.24167 -1.58697 0
M  V30 5558 O 531.31 2.02398 -1.50968 0
M  V30 5559 C 532.623 -0.91466 -2.86451 0
M  V30 5560 C 534.171 -0.889253 -3.00102 0
M  V30 5561 C 534.646 -1.52769 -4.3177 0
M  V30 5562 N 536.137 -1.49253 -4.38495 0
M  V30 5563 C 536.872 -1.9558 -5.39014 0
M  V30 5564 N 536.368 -2.49929 -6.46148 0
M  V30 5565 N 538.161 -1.86432 -5.30282 0
M  V30 5566 H 530.312 -1.56604 -1.43489 0
M  V30 5567 H 532.575 -0.655207 -0.685133 0
M  V30 5568 H 532.281 -1.96861 -2.91442 0
M  V30 5569 H 532.155 -0.429356 -3.74748 0
M  V30 5570 H 534.542 0.156111 -2.94687 0
M  V30 5571 H 534.623 -1.41268 -2.13253 0
M  V30 5572 H 534.267 -2.57231 -4.37944 0
M  V30 5573 H 534.197 -0.979398 -5.17412 0
M  V30 5574 H 536.688 -1.09536 -3.61677 0
M  V30 5575 H 537.001 -2.83109 -7.19075 0
M  V30 5576 H 535.346 -2.53961 -6.46938 0
M  V30 5577 H 538.537 -1.43722 -4.4549 0
M  V30 5578 H 538.71 -2.22852 -6.08474 0
M  V30 5579 N 532.116 1.54067 -0.331816 0
M  V30 5580 C 533.362 2.01012 0.268667 0
M  V30 5581 C 533.695 1.2195 1.51136 0
M  V30 5582 O 532.97 0.303972 1.9211 0
M  V30 5583 C 533.253 3.55158 0.59456 0
M  V30 5584 C 533.106 4.4494 -0.659409 0
M  V30 5585 C 534.425 4.16939 1.4089 0
M  V30 5586 H 531.544 0.730698 0.0961756 0
M  V30 5587 H 534.186 1.84593 -0.450031 0
M  V30 5588 H 532.336 3.6928 1.20685 0
M  V30 5589 H 534.008 4.42675 -1.29756 0
M  V30 5590 H 532.251 4.1428 -1.28665 0
M  V30 5591 H 532.922 5.50643 -0.386804 0
M  V30 5592 H 535.398 4.06443 0.891272 0
M  V30 5593 H 534.274 5.24889 1.60569 0
M  V30 5594 H 534.535 3.70798 2.40752 0
M  V30 5595 N 533.594 0.0601682 1.57485 0
M  V30 5596 C 534.871 -0.651956 1.84415 0
M  V30 5597 C 535.251 -1.88498 0.950361 0
M  V30 5598 O 534.599 -2.28496 0.0136719 0
M  V30 5599 C 534.809 -1.00069 3.34346 0
M  V30 5600 C 536.157 -1.37915 4.01578 0
M  V30 5601 O 537.181 -1.09277 3.39024 0
M  V30 5602 O 536.04 -1.91399 5.11887 0
M  V30 5603 H 533.134 -0.322668 0.761455 0
M  V30 5604 H 535.68 0.0902159 1.6946 0
M  V30 5605 H 534.452 -0.124463 3.91102 0
M  V30 5606 H 534.075 -1.80001 3.54521 0
M  V30 5607 N 535.072 -1.5615 -0.213296 0
M  V30 5608 C 536.297 -1.83986 -0.957282 0
M  V30 5609 C 536.722 -0.641526 -1.76822 0
M  V30 5610 O 536.08 0.409722 -1.7661 0
M  V30 5611 C 536.128 -3.09889 -1.84393 0
M  V30 5612 O 535.232 -2.89163 -2.94038 0
M  V30 5613 H 534.573 -0.606357 -0.270605 0
M  V30 5614 H 537.103 -2.03369 -0.224111 0
M  V30 5615 H 537.113 -3.40209 -2.25215 0
M  V30 5616 H 535.788 -3.96735 -1.24795 0
M  V30 5617 H 534.365 -2.70097 -2.57103 0
M  V30 5618 N 536.55 0.480323 -1.50102 0
M  V30 5619 C 537.827 1.24159 -1.51142 0
M  V30 5620 C 538.207 2.09605 -0.250818 0
M  V30 5621 O 537.555 2.15274 0.766118 0
M  V30 5622 C 537.765 2.08057 -2.80202 0
M  V30 5623 C 539.113 2.66556 -3.30504 0
M  V30 5624 O 540.137 2.18308 -2.81461 0
M  V30 5625 O 538.996 3.54442 -4.15973 0
M  V30 5626 H 536.09 0.562928 -0.605839 0
M  V30 5627 H 538.636 0.492899 -1.62384 0
M  V30 5628 H 537.408 1.45032 -3.6343 0
M  V30 5629 H 537.031 2.90079 -2.71919 0
M  V30 5630 N 538.028 1.39524 0.732853 0
M  V30 5631 C 539.256 1.40143 1.52209 0
M  V30 5632 C 539.671 -0.00348836 1.888 0
M  V30 5633 O 539.028 -0.975357 1.5425 0
M  V30 5634 C 539.079 2.27632 2.8083 0
M  V30 5635 O 538.8 3.62654 2.45792 0
M  V30 5636 C 540.301 2.36658 3.74844 0
M  V30 5637 H 537.521 0.478604 0.470297 0
M  V30 5638 H 540.065 1.83366 0.905388 0
M  V30 5639 H 538.22 1.87818 3.38826 0
M  V30 5640 H 538.634 4.08941 3.28431 0
M  V30 5641 H 540.108 3.02118 4.61984 0
M  V30 5642 H 540.585 1.38638 4.16745 0
M  V30 5643 H 541.191 2.76951 3.22766 0
M  V30 5644 N 539.506 -0.963266 1.24736 0
M  V30 5645 C 540.436 -2.07628 1.06832 0
M  V30 5646 C 541.417 -1.70088 -0.0200566 0
M  V30 5647 O 542.602 -1.93636 0.147854 0
M  V30 5648 C 539.732 -3.40636 0.677069 0
M  V30 5649 C 538.686 -3.9215 1.71471 0
M  V30 5650 C 538.012 -5.21553 1.1784 0
M  V30 5651 C 539.312 -4.19493 3.11164 0
M  V30 5652 H 541.006 -2.22864 1.9993 0
M  V30 5653 H 538.552 -1.07093 0.96266 0
M  V30 5654 H 540.505 -4.17941 0.538792 0
M  V30 5655 H 539.229 -3.25313 -0.289612 0
M  V30 5656 H 537.888 -3.17005 1.84128 0
M  V30 5657 H 537.536 -5.02593 0.202195 0
M  V30 5658 H 537.236 -5.56988 1.87185 0
M  V30 5659 H 538.76 -6.01463 1.05233 0
M  V30 5660 H 540.174 -4.87487 3.01711 0
M  V30 5661 H 538.571 -4.66165 3.77902 0
M  V30 5662 H 539.641 -3.26097 3.58871 0
M  V30 5663 N 540.985 -1.06182 -1.16461 0
M  V30 5664 C 542.225 -0.787048 -1.8864 0
M  V30 5665 C 542.589 0.674093 -1.79778 0
M  V30 5666 O 543.79 1.06341 -2.46871 0
M  V30 5667 C 542.061 -1.2666 -3.34203 0
M  V30 5668 S 543.62 -1.12071 -4.24247 0
M  V30 5669 H 540.438 -0.285539 -0.651144 0
M  V30 5670 H 543.04 -1.35851 -1.40587 0
M  V30 5671 H 541.744 -2.32496 -3.38192 0
M  V30 5672 H 541.275 -0.689841 -3.87304 0
M  V30 5673 H 543.29 -0.0509341 -4.96174 0
M  V30 5674 N 542.463 1.3308 -0.844243 0
M  V30 5675 C 543.691 2.01808 -0.456203 0
M  V30 5676 C 544.106 1.63498 0.944131 0
M  V30 5677 O 543.463 0.85102 1.61443 0
M  V30 5678 C 543.514 3.56922 -0.573513 0
M  V30 5679 O 543.235 3.93851 -1.91868 0
M  V30 5680 C 544.736 4.42922 -0.183125 0
M  V30 5681 H 541.956 0.646273 -0.180477 0
M  V30 5682 H 544.5 1.69891 -1.1383 0
M  V30 5683 H 542.655 3.87352 0.0607367 0
M  V30 5684 H 543.069 4.88564 -1.90802 0
M  V30 5685 H 544.543 5.51093 -0.316241 0
M  V30 5686 H 545.02 4.30386 0.875477 0
M  V30 5687 H 545.626 4.1786 -0.792027 0
M  V30 5688 N 543.941 0.601185 1.45683 0
M  V30 5689 C 544.851 -0.123395 2.34275 0
M  V30 5690 C 545.867 -0.86702 1.5086 0
M  V30 5691 O 547.043 -0.826049 1.8368 0
M  V30 5692 C 544.108 -1.11237 3.2837 0
M  V30 5693 C 543.169 -0.371405 4.2769 0
M  V30 5694 C 542.402 -1.31327 5.1729 0
M  V30 5695 O 542.625 -2.55078 5.10188 0
M  V30 5696 O 541.559 -0.813811 5.96373 0
M  V30 5697 H 545.385 0.604483 2.97623 0
M  V30 5698 H 542.97 0.361477 1.44961 0
M  V30 5699 H 544.852 -1.68214 3.8637 0
M  V30 5700 H 543.527 -1.82139 2.67595 0
M  V30 5701 H 542.434 0.24067 3.73325 0
M  V30 5702 H 543.767 0.296998 4.91303 0
M  V30 5703 N 545.419 -1.53889 0.339982 0
M  V30 5704 C 546.329 -2.28604 -0.526988 0
M  V30 5705 C 547.345 -1.33578 -1.11503 0
M  V30 5706 O 548.521 -1.66612 -1.13148 0
M  V30 5707 C 545.586 -3.04164 -1.66389 0
M  V30 5708 C 544.647 -4.14809 -1.10599 0
M  V30 5709 C 543.88 -4.86756 -2.18871 0
M  V30 5710 O 544.103 -4.58343 -3.39526 0
M  V30 5711 O 543.037 -5.73289 -1.83366 0
M  V30 5712 H 546.863 -3.03594 0.0802707 0
M  V30 5713 H 544.448 -1.4903 0.105141 0
M  V30 5714 H 546.33 -3.51427 -2.32544 0
M  V30 5715 H 545.005 -2.32035 -2.25703 0
M  V30 5716 H 543.912 -3.71857 -0.409067 0
M  V30 5717 H 545.245 -4.89029 -0.557771 0
M  V30 5718 N 546.897 -0.0685191 -1.57451 0
M  V30 5719 C 548.143 0.602239 -1.93652 0
M  V30 5720 C 548.476 1.6946 -0.948526 0
M  V30 5721 O 547.751 1.94487 0.022782 0
M  V30 5722 C 548.034 1.18223 -3.4014 0
M  V30 5723 C 547.887 0.0967431 -4.49696 0
M  V30 5724 C 549.206 2.08872 -3.87377 0
M  V30 5725 H 546.325 0.217453 -0.70419 0
M  V30 5726 H 548.967 -0.133821 -1.89528 0
M  V30 5727 H 547.117 1.80953 -3.43785 0
M  V30 5728 H 548.789 -0.536155 -4.58174 0
M  V30 5729 H 547.032 -0.573063 -4.29998 0
M  V30 5730 H 547.703 0.542894 -5.49324 0
M  V30 5731 H 550.179 1.56081 -3.85717 0
M  V30 5732 H 549.055 2.46389 -4.90493 0
M  V30 5733 H 549.316 2.99572 -3.25129 0
M  V30 5734 N 548.375 1.56261 0.205012 0
M  V30 5735 C 549.622 1.8004 0.926927 0
M  V30 5736 C 549.95 0.640086 1.83666 0
M  V30 5737 O 549.205 -0.374702 1.92079 0
M  V30 5738 C 549.504 3.09722 1.78345 0
M  V30 5739 C 549.17 4.39082 1.02555 0
M  V30 5740 C 547.832 4.74226 0.816256 0
M  V30 5741 C 550.184 5.18877 0.491559 0
M  V30 5742 C 547.512 5.86668 0.0613287 0
M  V30 5743 C 549.864 6.32105 -0.250107 0
M  V30 5744 C 548.528 6.6584 -0.470508 0
M  V30 5745 H 547.798 0.658812 0.339187 0
M  V30 5746 H 550.445 1.90515 0.19395 0
M  V30 5747 H 548.75 2.9444 2.5848 0
M  V30 5748 H 550.447 3.25324 2.34446 0
M  V30 5749 H 547.037 4.11497 1.19868 0
M  V30 5750 H 551.221 4.92147 0.640684 0
M  V30 5751 H 546.477 6.11283 -0.119501 0
M  V30 5752 H 550.651 6.93157 -0.671307 0
M  V30 5753 H 548.278 7.5281 -1.05739 0
M  V30 5754 N 549.853 -0.472356 1.50355 0
M  V30 5755 C 551.264 -1.05326 1.54154 0
M  V30 5756 C 551.615 -1.93155 0.344303 0
M  V30 5757 O 550.74 -2.09479 -0.542928 0
M  V30 5758 C 551.335 -1.91691 2.79356 0
M  V30 5759 C 549.894 -2.44892 2.8584 0
M  V30 5760 C 549.041 -1.23205 2.48426 0
M  V30 5761 H 551.992 -0.255027 1.56637 0
M  V30 5762 H 552.013 -2.76742 2.6114 0
M  V30 5763 H 551.525 -1.27741 3.66475 0
M  V30 5764 H 549.626 -3.12399 2.0307 0
M  V30 5765 H 549.739 -2.80086 3.88701 0
M  V30 5766 H 548.103 -1.56643 2.00836 0
M  V30 5767 H 548.886 -0.609194 3.37852 0
M  V30 5768 N 551.331 -1.39911 -0.725443 0
M  V30 5769 C 552.559 -1.40949 -1.51463 0
M  V30 5770 C 552.974 -0.0065242 -1.88799 0
M  V30 5771 O 552.331 0.967163 -1.54765 0
M  V30 5772 C 552.382 -2.29119 -2.79619 0
M  V30 5773 O 552.103 -3.63952 -2.43866 0
M  V30 5774 C 553.604 -2.38642 -3.73584 0
M  V30 5775 H 550.824 -0.481091 -0.467752 0
M  V30 5776 H 553.368 -1.83843 -0.895651 0
M  V30 5777 H 551.523 -1.89612 -3.37826 0
M  V30 5778 H 551.937 -4.10677 -3.26258 0
M  V30 5779 H 553.411 -3.04563 -4.60375 0
M  V30 5780 H 553.888 -1.40846 -4.16004 0
M  V30 5781 H 554.494 -2.78659 -3.21293 0
M  V30 5782 N 552.809 0.956637 -1.25245 0
M  V30 5783 C 553.772 2.03457 -1.05537 0
M  V30 5784 C 554.772 1.60798 -0.00886317 0
M  V30 5785 O 555.962 1.72384 -0.250865 0
M  V30 5786 C 553.094 3.35543 -0.601965 0
M  V30 5787 H 554.287 2.22372 -2.01223 0
M  V30 5788 H 551.84 1.13344 -1.07623 0
M  V30 5789 H 552.575 3.22323 0.357584 0
M  V30 5790 H 552.36 3.67854 -1.35743 0
M  V30 5791 H 553.85 4.14769 -0.485454 0
M  V30 5792 N 554.287 1.06798 1.15896 0
M  V30 5793 C 555.535 0.786211 1.8618 0
M  V30 5794 C 555.856 -0.689547 1.82401 0
M  V30 5795 O 555.126 -1.49913 1.26107 0
M  V30 5796 H 553.706 0.287843 0.689315 0
M  V30 5797 H 556.368 1.35055 1.40521 0
M  V30 5798 H 555.464 1.1157 2.91477 0
M  V30 5799 N 555.766 -1.3263 0.851289 0
M  V30 5800 C 556.729 -2.27247 0.298541 0
M  V30 5801 C 557.729 -1.51467 -0.539847 0
M  V30 5802 O 558.919 -1.7061 -0.351843 0
M  V30 5803 C 556.051 -3.35964 -0.578004 0
M  V30 5804 H 557.244 -2.7765 1.13359 0
M  V30 5805 H 554.797 -1.43245 0.625354 0
M  V30 5806 H 555.532 -2.90823 -1.435 0
M  V30 5807 H 555.317 -3.92094 0.0220539 0
M  V30 5808 H 556.807 -4.06472 -0.957626 0
M  V30 5809 N 557.244 -0.608902 -1.45362 0
M  V30 5810 C 558.492 -0.104401 -2.0183 0
M  V30 5811 C 558.813 1.27007 -1.47967 0
M  V30 5812 O 558.083 1.83924 -0.674455 0
M  V30 5813 H 556.663 -0.0356042 -0.746151 0
M  V30 5814 H 559.325 -0.790596 -1.78145 0
M  V30 5815 H 558.421 -0.0551793 -3.12051 0
M  V30 5816 N 558.722 1.53707 -0.348139 0
M  V30 5817 C 559.95 2.05406 0.248224 0
M  V30 5818 C 560.365 1.22282 1.43849 0
M  V30 5819 O 559.722 0.259244 1.80649 0
M  V30 5820 C 559.773 3.55446 0.658793 0
M  V30 5821 O 559.494 4.35417 -0.484149 0
M  V30 5822 C 560.995 4.23335 1.31539 0
M  V30 5823 H 558.215 0.669344 0.0471075 0
M  V30 5824 H 560.759 1.98257 -0.501456 0
M  V30 5825 H 558.914 3.62803 1.35841 0
M  V30 5826 H 559.328 5.24268 -0.155949 0
M  V30 5827 H 560.802 5.29692 1.55338 0
M  V30 5828 H 561.279 3.75967 2.27036 0
M  V30 5829 H 561.885 4.20184 0.657683 0
M  V30 5830 N 560.2 0.0768682 1.57412 0
M  V30 5831 C 561.477 -0.632359 1.85096 0
M  V30 5832 C 561.857 -1.87479 0.9703 0
M  V30 5833 O 561.205 -2.28469 0.0379062 0
M  V30 5834 C 561.415 -0.965174 3.35388 0
M  V30 5835 C 562.763 -1.33648 4.03018 0
M  V30 5836 O 563.787 -1.05675 3.40164 0
M  V30 5837 O 562.646 -1.85959 5.13889 0
M  V30 5838 H 559.74 -0.314574 0.764835 0
M  V30 5839 H 562.286 0.108184 1.69355 0
M  V30 5840 H 561.058 -0.0829745 3.91212 0
M  V30 5841 H 560.681 -1.76231 3.5641 0
M  V30 5842 N 561.678 -1.56367 -0.196722 0
M  V30 5843 C 562.608 -1.97442 -1.24655 0
M  V30 5844 C 563.589 -0.846147 -1.47561 0
M  V30 5845 O 564.774 -1.11035 -1.59326 0
M  V30 5846 C 561.904 -2.31253 -2.59112 0
M  V30 5847 C 560.858 -3.46804 -2.50821 0
M  V30 5848 C 560.184 -3.66286 -3.89536 0
M  V30 5849 C 561.484 -4.8104 -2.03465 0
M  V30 5850 H 563.178 -2.85388 -0.905216 0
M  V30 5851 H 560.724 -1.37304 -0.434002 0
M  V30 5852 H 562.677 -2.58583 -3.32736 0
M  V30 5853 H 561.401 -1.40188 -2.94983 0
M  V30 5854 H 560.06 -3.19563 -1.79653 0
M  V30 5855 H 559.708 -2.72555 -4.22756 0
M  V30 5856 H 559.408 -4.4402 -3.84864 0
M  V30 5857 H 560.932 -3.9599 -4.64784 0
M  V30 5858 H 562.346 -5.07411 -2.66846 0
M  V30 5859 H 560.743 -5.62232 -2.09798 0
M  V30 5860 H 561.813 -4.74732 -0.98781 0
M  V30 5861 N 563.156 0.464375 -1.50603 0
M  V30 5862 C 564.572 0.798684 -1.38178 0
M  V30 5863 C 564.772 1.96568 -0.44308 0
M  V30 5864 O 563.828 2.52252 0.111814 0
M  V30 5865 C 565.141 1.10444 -2.79683 0
M  V30 5866 C 566.689 1.2105 -2.88645 0
M  V30 5867 C 567.164 1.54934 -4.30998 0
M  V30 5868 N 568.655 1.61913 -4.3398 0
M  V30 5869 C 569.39 1.8965 -5.41129 0
M  V30 5870 N 568.886 2.15361 -6.58477 0
M  V30 5871 N 570.679 1.91207 -5.28579 0
M  V30 5872 H 562.83 -0.304603 -2.10204 0
M  V30 5873 H 565.093 -0.0737804 -0.945125 0
M  V30 5874 H 564.799 0.319934 -3.50242 0
M  V30 5875 H 564.673 2.03896 -3.17342 0
M  V30 5876 H 567.06 1.98567 -2.18301 0
M  V30 5877 H 567.141 0.255613 -2.5452 0
M  V30 5878 H 566.785 0.779549 -5.01882 0
M  V30 5879 H 566.715 2.51584 -4.62615 0
M  V30 5880 H 569.206 1.44055 -3.49366 0
M  V30 5881 H 569.519 2.35818 -7.35941 0
M  V30 5882 H 567.864 2.1274 -6.6164 0
M  V30 5883 H 571.055 1.70622 -4.35897 0
M  V30 5884 H 571.228 2.12488 -6.12171 0
M  V30 5885 N 564.634 1.40294 0.718013 0
M  V30 5886 C 565.859 1.41941 1.5122 0
M  V30 5887 C 566.284 0.0202371 1.88089 0
M  V30 5888 O 565.642 -0.971078 1.53101 0
M  V30 5889 C 565.69 2.3141 2.76554 0
M  V30 5890 O 564.794 1.75567 3.73162 0
M  V30 5891 H 564.135 0.482644 0.456016 0
M  V30 5892 H 566.665 1.84494 0.884478 0
M  V30 5893 H 566.675 2.46513 3.25108 0
M  V30 5894 H 565.35 3.33085 2.49053 0
M  V30 5895 H 563.927 1.69798 3.31999 0
M  V30 5896 N 566.112 -0.949982 1.2575 0
M  V30 5897 C 567.06 -2.06869 1.06339 0
M  V30 5898 C 568.054 -1.69399 -0.00708901 0
M  V30 5899 O 569.26 -1.79383 0.148897 0
M  V30 5900 H 565.635 -0.677197 0.326969 0
M  V30 5901 H 567.606 -2.20396 2.01167 0
M  V30 5902 C 566.355 -3.40503 0.703769 0
M  V30 5903 H 565.678 -3.69807 1.51931 0
M  V30 5904 H 567.118 -4.19623 0.607677 0
M  V30 5905 C 565.577 -3.31685 -0.5905 0
M  V30 5906 O 566.107 -3.67085 -1.63131 0
M  V30 5907 N 564.313 -2.84797 -0.577859 0
M  V30 5908 H 563.86 -2.56186 0.26951 0
M  V30 5909 H 563.818 -2.79279 -1.44398 0
M  V30 5910 N 567.59 -1.07411 -1.15328 0
M  V30 5911 C 568.82 -0.817595 -1.89734 0
M  V30 5912 C 569.228 0.63297 -1.78298 0
M  V30 5913 O 568.571 1.44594 -1.13306 0
M  V30 5914 C 568.633 -1.14748 -3.40695 0
M  V30 5915 C 568.297 -2.59876 -3.75917 0
M  V30 5916 C 569.294 -3.58122 -3.76888 0
M  V30 5917 C 566.979 -2.95469 -4.06206 0
M  V30 5918 C 568.973 -4.89996 -4.07655 0
M  V30 5919 C 566.66 -4.2754 -4.36638 0
M  V30 5920 C 567.658 -5.24614 -4.37344 0
M  V30 5921 O 567.346 -6.54312 -4.67045 0
M  V30 5922 H 567.078 -0.295175 -0.608151 0
M  V30 5923 H 569.632 -1.43409 -1.47048 0
M  V30 5924 H 567.862 -0.47395 -3.83785 0
M  V30 5925 H 569.551 -0.873397 -3.96392 0
M  V30 5926 H 570.317 -3.31966 -3.53587 0
M  V30 5927 H 566.196 -2.20558 -4.04815 0
M  V30 5928 H 569.74 -5.65759 -4.08121 0
M  V30 5929 H 565.637 -4.53449 -4.59407 0
M  V30 5930 H 566.405 -6.59473 -4.84807 0
M  V30 5931 N 569.068 1.32177 -0.85831 0
M  V30 5932 C 569.998 2.31282 -0.321041 0
M  V30 5933 C 570.979 1.59841 0.581786 0
M  V30 5934 O 572.164 1.87619 0.501262 0
M  V30 5935 C 569.294 3.4385 0.48832 0
M  V30 5936 C 568.248 4.26799 -0.320391 0
M  V30 5937 C 567.574 5.31164 0.613934 0
M  V30 5938 C 568.874 4.98829 -1.54813 0
M  V30 5939 H 570.568 2.76469 -1.14915 0
M  V30 5940 H 568.114 1.32916 -0.554028 0
M  V30 5941 H 570.067 4.12224 0.874626 0
M  V30 5942 H 568.791 2.97401 1.34983 0
M  V30 5943 H 567.45 3.60077 -0.688497 0
M  V30 5944 H 567.098 4.80967 1.47239 0
M  V30 5945 H 566.798 5.8755 0.0768097 0
M  V30 5946 H 568.322 6.024 0.997336 0
M  V30 5947 H 569.736 5.59864 -1.23392 0
M  V30 5948 H 568.133 5.64957 -2.02346 0
M  V30 5949 H 569.203 4.26483 -2.30739 0
M  V30 5950 N 570.547 0.616602 1.45037 0
M  V30 5951 C 571.477 -0.0840787 2.33349 0
M  V30 5952 C 572.458 -0.849641 1.4736 0
M  V30 5953 O 573.643 -0.818407 1.76113 0
M  V30 5954 C 570.773 -1.07604 3.3021 0
M  V30 5955 C 569.727 -0.423096 4.25904 0
M  V30 5956 C 569.053 -1.52394 5.12523 0
M  V30 5957 C 570.353 0.661457 5.18095 0
M  V30 5958 H 572.047 0.653333 2.92185 0
M  V30 5959 H 569.593 0.315634 1.40498 0
M  V30 5960 H 571.546 -1.57485 3.90866 0
M  V30 5961 H 570.27 -1.84416 2.69552 0
M  V30 5962 H 568.929 0.05493 3.66559 0
M  V30 5963 H 568.577 -2.28257 4.48227 0
M  V30 5964 H 568.277 -1.09251 5.77354 0
M  V30 5965 H 569.801 -2.02485 5.76049 0
M  V30 5966 H 571.215 0.246353 5.7277 0
M  V30 5967 H 569.612 1.01517 5.91451 0
M  V30 5968 H 570.682 1.53446 4.59981 0
M  V30 5969 N 572.025 -1.5352 0.356285 0
M  V30 5970 C 572.973 -2.26945 -0.50978 0
M  V30 5971 C 573.967 -1.29569 -1.09125 0
M  V30 5972 O 575.173 -1.47231 -1.03552 0
M  V30 5973 H 571.548 -0.729368 -0.183102 0
M  V30 5974 H 573.519 -2.98111 0.131374 0
M  V30 5975 C 572.268 -3.06466 -1.64237 0
M  V30 5976 H 571.591 -3.81233 -1.20423 0
M  V30 5977 H 573.031 -3.61035 -2.22327 0
M  V30 5978 C 571.49 -2.16737 -2.57928 0
M  V30 5979 O 572.02 -1.77195 -3.60507 0
M  V30 5980 N 570.226 -1.81558 -2.26903 0
M  V30 5981 H 569.773 -2.13913 -1.43524 0
M  V30 5982 H 569.731 -1.21806 -2.89846 0
M  V30 5983 N 573.503 -0.0852151 -1.57369 0
M  V30 5984 C 574.731 0.58946 -1.98325 0
M  V30 5985 C 575.146 1.62333 -0.96403 0
M  V30 5986 O 574.503 1.82438 0.0476395 0
M  V30 5987 C 574.554 1.24604 -3.39347 0
M  V30 5988 O 574.275 0.253532 -4.37366 0
M  V30 5989 C 575.776 2.00726 -3.95252 0
M  V30 5990 H 572.996 0.158783 -0.651942 0
M  V30 5991 H 575.54 -0.161584 -2.03861 0
M  V30 5992 H 573.695 1.94808 -3.34856 0
M  V30 5993 H 574.109 0.726207 -5.19448 0
M  V30 5994 H 575.583 2.42039 -4.96106 0
M  V30 5995 H 576.06 2.86919 -3.32527 0
M  V30 5996 H 576.666 1.3536 -4.03185 0
M  V30 5997 N 574.981 1.5647 0.188427 0
M  V30 5998 C 576.209 1.85131 0.923803 0
M  V30 5999 C 576.624 0.668537 1.76567 0
M  V30 6000 O 575.981 -0.362662 1.7886 0
M  V30 6001 C 576.032 3.12661 1.81453 0
M  V30 6002 O 575.753 4.26378 1.00665 0
M  V30 6003 C 577.254 3.54548 2.66103 0
M  V30 6004 H 574.474 0.614624 0.269218 0
M  V30 6005 H 577.018 2.03581 0.193671 0
M  V30 6006 H 575.173 2.96088 2.49821 0
M  V30 6007 H 575.587 4.99041 1.61425 0
M  V30 6008 H 577.061 4.4673 3.24247 0
M  V30 6009 H 577.538 2.77853 3.40139 0
M  V30 6010 H 578.144 3.73674 2.03096 0
M  V30 6011 N 576.459 -0.456382 1.50847 0
M  V30 6012 C 577.708 -1.2042 1.61808 0
M  V30 6013 C 578.021 -1.9278 0.330932 0
M  V30 6014 O 579.227 -2.69612 0.319643 0
M  V30 6015 C 577.683 -2.18891 2.85683 0
M  V30 6016 C 577.291 -1.52267 4.2133 0
M  V30 6017 C 579.035 -2.94224 3.05994 0
M  V30 6018 C 576.942 -2.4911 5.36375 0
M  V30 6019 H 575.872 -0.453177 0.602616 0
M  V30 6020 H 578.523 -0.473144 1.77295 0
M  V30 6021 H 576.905 -2.95351 2.63787 0
M  V30 6022 H 578.079 -0.814949 4.53536 0
M  V30 6023 H 576.394 -0.891594 4.06743 0
M  V30 6024 H 578.991 -3.66732 3.89117 0
M  V30 6025 H 579.334 -3.54469 2.18306 0
M  V30 6026 H 579.867 -2.24874 3.28141 0
M  V30 6027 H 576.606 -1.93582 6.26264 0
M  V30 6028 H 576.126 -3.17991 5.08569 0
M  V30 6029 H 577.805 -3.10637 5.67551 0
M  V30 6030 N 577.937 -1.40673 -0.710563 0
M  V30 6031 C 578.9 -1.4108 -1.80635 0
M  V30 6032 C 579.9 -0.303783 -1.57904 0
M  V30 6033 O 581.09 -0.562937 -1.64853 0
M  V30 6034 C 578.222 -1.20748 -3.18799 0
M  V30 6035 H 579.415 -2.38612 -1.81671 0
M  V30 6036 H 576.968 -1.26595 -0.916704 0
M  V30 6037 H 577.703 -0.239964 -3.23411 0
M  V30 6038 H 577.488 -2.00941 -3.36698 0
M  V30 6039 H 578.978 -1.23833 -3.98817 0
M  V30 6040 N 579.415 0.9433 -1.26252 0
M  V30 6041 C 580.663 1.68592 -1.11451 0
M  V30 6042 C 580.984 1.91957 0.343123 0
M  V30 6043 O 580.254 1.51475 1.24226 0
M  V30 6044 H 578.834 0.624789 -0.409448 0
M  V30 6045 H 581.496 1.13351 -1.58548 0
M  V30 6046 H 580.592 2.66054 -1.63162 0
M  V30 6047 N 580.893 1.08022 1.14757 0
M  V30 6048 C 582.139 0.808705 1.85978 0
M  V30 6049 C 582.472 -0.663764 1.82504 0
M  V30 6050 O 581.747 -1.48765 1.25296 0
M  V30 6051 C 582.03 1.32623 3.34788 0
M  V30 6052 C 581.883 2.86375 3.46856 0
M  V30 6053 C 583.202 0.948291 4.29762 0
M  V30 6054 H 580.321 0.295244 0.675278 0
M  V30 6055 H 582.963 1.33917 1.34783 0
M  V30 6056 H 581.113 0.875002 3.78518 0
M  V30 6057 H 582.785 3.39839 3.11941 0
M  V30 6058 H 581.028 3.24232 2.88194 0
M  V30 6059 H 581.699 3.17658 4.51439 0
M  V30 6060 H 584.175 1.33722 3.94028 0
M  V30 6061 H 583.051 1.33765 5.32352 0
M  V30 6062 H 583.312 -0.145094 4.41862 0
M  V30 6063 N 582.371 -1.3172 0.865308 0
M  V30 6064 C 583.281 -2.32394 0.320935 0
M  V30 6065 C 584.297 -1.64511 -0.566746 0
M  V30 6066 O 585.473 -1.95969 -0.464575 0
M  V30 6067 C 582.538 -3.43462 -0.472701 0
M  V30 6068 C 581.599 -4.27015 0.442385 0
M  V30 6069 C 580.832 -5.32779 -0.313469 0
M  V30 6070 O 581.055 -5.49158 -1.54214 0
M  V30 6071 O 579.989 -6.01015 0.326257 0
M  V30 6072 H 583.815 -2.80868 1.15528 0
M  V30 6073 H 581.4 -1.35535 0.628545 0
M  V30 6074 H 583.282 -4.11172 -0.922781 0
M  V30 6075 H 581.957 -2.97159 -1.28367 0
M  V30 6076 H 580.864 -3.62075 0.940866 0
M  V30 6077 H 582.197 -4.76871 1.21882 0
M  V30 6078 N 583.85 -0.624285 -1.44708 0
M  V30 6079 C 584.76 0.0861083 -2.34442 0
M  V30 6080 C 585.776 0.84291 -1.5222 0
M  V30 6081 O 586.952 0.796723 -1.84971 0
M  V30 6082 C 584.017 1.05999 -3.30099 0
M  V30 6083 C 583.077 0.303316 -4.28227 0
M  V30 6084 C 582.311 1.23081 -5.19314 0
M  V30 6085 O 582.534 2.46929 -5.14181 0
M  V30 6086 O 581.468 0.71883 -5.97592 0
M  V30 6087 H 585.293 -0.651756 -2.96624 0
M  V30 6088 H 582.879 -0.384493 -1.44368 0
M  V30 6089 H 584.76 1.62046 -3.88997 0
M  V30 6090 H 583.436 1.77859 -2.70459 0
M  V30 6091 H 582.343 -0.300033 -3.72895 0
M  V30 6092 H 583.676 -0.375123 -4.90768 0
M  V30 6093 N 585.328 1.53329 -0.364422 0
M  V30 6094 C 586.291 2.24323 0.470292 0
M  V30 6095 C 587.291 1.25068 1.01067 0
M  V30 6096 O 588.481 1.49354 0.896605 0
M  V30 6097 C 585.613 2.97908 1.65722 0
M  V30 6098 H 586.806 2.9952 -0.150917 0
M  V30 6099 H 584.359 1.55868 -0.116092 0
M  V30 6100 H 585.094 2.2695 2.31655 0
M  V30 6101 H 584.879 3.70732 1.27671 0
M  V30 6102 H 586.369 3.5188 2.24878 0
M  V30 6103 N 586.806 0.0935595 1.57322 0
M  V30 6104 C 588.083 -0.612692 1.85756 0
M  V30 6105 C 588.463 -1.86439 0.99013 0
M  V30 6106 O 587.811 -2.28416 0.0621362 0
M  V30 6107 C 588.021 -0.929547 3.36393 0
M  V30 6108 C 589.369 -1.29366 4.04413 0
M  V30 6109 O 590.393 -1.02061 3.41265 0
M  V30 6110 O 589.252 -1.80498 5.15832 0
M  V30 6111 H 586.346 -0.306444 0.768128 0
M  V30 6112 H 588.892 0.126141 1.69231 0
M  V30 6113 H 587.664 -0.0414766 3.91278 0
M  V30 6114 H 587.287 -1.72441 3.5826 0
M  V30 6115 N 588.284 -1.56567 -0.180126 0
M  V30 6116 C 589.53 -1.81761 -0.899497 0
M  V30 6117 C 589.863 -0.670015 -1.82276 0
M  V30 6118 O 589.138 0.328575 -1.91705 0
M  V30 6119 C 589.421 -3.17296 -1.7028 0
M  V30 6120 C 589.274 -4.4257 -0.803255 0
M  V30 6121 C 590.593 -3.49678 -2.67233 0
M  V30 6122 H 587.712 -0.661192 -0.325567 0
M  V30 6123 H 590.354 -1.89272 -0.16612 0
M  V30 6124 H 588.504 -3.11023 -2.32802 0
M  V30 6125 H 590.176 -4.60902 -0.191585 0
M  V30 6126 H 588.419 -4.33658 -0.110796 0
M  V30 6127 H 589.09 -5.33935 -1.40064 0
M  V30 6128 H 591.566 -3.56347 -2.14839 0
M  V30 6129 H 590.442 -4.45605 -3.20511 0
M  V30 6130 H 590.703 -2.73932 -3.47007 0
M  V30 6131 N 589.762 0.448376 -1.51087 0
M  V30 6132 C 591.008 1.20049 -1.6345 0
M  V30 6133 C 591.341 1.91121 -0.344444 0
M  V30 6134 O 590.616 1.83125 0.655396 0
M  V30 6135 C 590.899 2.22624 -2.83038 0
M  V30 6136 C 590.752 1.55708 -4.21989 0
M  V30 6137 C 592.071 3.23718 -2.98152 0
M  V30 6138 H 589.19 0.435085 -0.59487 0
M  V30 6139 H 591.832 0.491183 -1.83541 0
M  V30 6140 H 589.982 2.83117 -2.66039 0
M  V30 6141 H 591.654 0.986367 -4.50631 0
M  V30 6142 H 589.897 0.859647 -4.25197 0
M  V30 6143 H 590.568 2.30357 -5.01637 0
M  V30 6144 H 593.044 2.73269 -3.13788 0
M  V30 6145 H 591.92 3.92795 -3.83411 0
M  V30 6146 H 592.181 3.89179 -2.09743 0
M  V30 6147 N 591.24 1.41047 0.703093 0
M  V30 6148 C 592.17 1.45067 1.82969 0
M  V30 6149 C 593.151 0.31016 1.67248 0
M  V30 6150 O 594.336 0.520548 1.87093 0
M  V30 6151 C 591.466 1.32478 3.2104 0
M  V30 6152 C 590.42 2.44262 3.51454 0
M  V30 6153 C 589.746 2.16742 4.88801 0
M  V30 6154 C 591.046 3.86606 3.51189 0
M  V30 6155 H 592.74 2.39353 1.79863 0
M  V30 6156 H 590.286 1.15206 0.863919 0
M  V30 6157 H 592.239 1.33904 3.99559 0
M  V30 6158 H 590.963 0.346735 3.24754 0
M  V30 6159 H 589.622 2.42107 2.75282 0
M  V30 6160 H 589.27 1.17299 4.89132 0
M  V30 6161 H 588.97 2.91643 5.10116 0
M  V30 6162 H 590.494 2.19872 5.69639 0
M  V30 6163 H 591.908 3.90517 4.19725 0
M  V30 6164 H 590.305 4.61128 3.84033 0
M  V30 6165 H 591.375 4.15296 2.50315 0
M  V30 6166 N 592.718 -0.936591 1.26751 0
M  V30 6167 C 593.648 -2.05315 1.11212 0
M  V30 6168 C 594.629 -1.70092 0.0160262 0
M  V30 6169 O 595.814 -1.93279 0.188894 0
M  V30 6170 C 592.944 -3.39123 0.749171 0
M  V30 6171 C 591.898 -3.88425 1.79751 0
M  V30 6172 C 591.224 -5.18936 1.28876 0
M  V30 6173 C 592.524 -4.12798 3.19992 0
M  V30 6174 H 594.218 -2.18573 2.04613 0
M  V30 6175 H 591.764 -1.05027 0.985159 0
M  V30 6176 H 593.717 -4.16704 0.627323 0
M  V30 6177 H 592.441 -3.25855 -0.220543 0
M  V30 6178 H 591.1 -3.13028 1.90811 0
M  V30 6179 H 590.748 -5.02051 0.308757 0
M  V30 6180 H 590.448 -5.52892 1.98958 0
M  V30 6181 H 591.972 -5.99096 1.17967 0
M  V30 6182 H 593.386 -4.80977 3.11983 0
M  V30 6183 H 591.783 -4.58044 3.87705 0
M  V30 6184 H 592.853 -3.18412 3.65707 0
M  V30 6185 N 594.196 -1.08629 -1.14182 0
M  V30 6186 C 595.442 -0.818556 -1.85546 0
M  V30 6187 C 595.775 0.654076 -1.82854 0
M  V30 6188 O 595.05 1.48099 -1.26083 0
M  V30 6189 C 595.333 -1.34397 -3.3408 0
M  V30 6190 C 595.186 -2.8821 -3.45333 0
M  V30 6191 C 596.505 -0.971069 -4.29253 0
M  V30 6192 H 593.624 -0.298821 -0.673702 0
M  V30 6193 H 596.266 -1.34629 -1.34071 0
M  V30 6194 H 594.416 -0.895064 -3.78049 0
M  V30 6195 H 596.088 -3.41488 -3.10134 0
M  V30 6196 H 594.331 -3.25756 -2.86471 0
M  V30 6197 H 595.002 -3.20047 -4.49749 0
M  V30 6198 H 597.478 -1.35809 -3.93313 0
M  V30 6199 H 596.354 -1.36586 -5.31635 0
M  V30 6200 H 596.615 0.121659 -4.41933 0
M  V30 6201 N 595.674 1.31259 -0.872281 0
M  V30 6202 C 596.922 1.96233 -0.483409 0
M  V30 6203 C 597.243 1.69276 0.968012 0
M  V30 6204 O 596.513 1.00943 1.67891 0
M  V30 6205 H 595.093 0.726025 -0.175774 0
M  V30 6206 H 597.755 1.60024 -1.11258 0
M  V30 6207 H 596.851 3.05403 -0.643075 0
M  V30 6208 N 597.152 0.631951 1.44375 0
M  V30 6209 C 598.38 0.143867 2.06399 0
M  V30 6210 C 598.795 -1.18188 1.47231 0
M  V30 6211 O 598.152 -1.72511 0.595498 0
M  V30 6212 C 598.203 0.0238253 3.61492 0
M  V30 6213 O 597.924 1.29715 4.18456 0
M  V30 6214 C 599.425 -0.492856 4.40552 0
M  V30 6215 H 596.645 0.0800542 0.666207 0
M  V30 6216 H 599.189 0.866586 1.85231 0
M  V30 6217 H 597.344 -0.649338 3.81919 0
M  V30 6218 H 597.758 1.14252 5.11905 0
M  V30 6219 H 599.232 -0.525861 5.49489 0
M  V30 6220 H 599.709 -1.52006 4.12057 0
M  V30 6221 H 600.315 0.147085 4.25046 0
M  V30 6222 N 598.631 -1.53133 0.372548 0
M  V30 6223 C 599.579 -2.27473 -0.485681 0
M  V30 6224 C 600.573 -1.30719 -1.07745 0
M  V30 6225 O 601.779 -1.48321 -1.01985 0
M  V30 6226 H 598.154 -0.731269 -0.175356 0
M  V30 6227 H 600.125 -2.97955 0.162986 0
M  V30 6228 C 598.874 -3.08191 -1.60978 0
M  V30 6229 H 598.197 -3.82488 -1.16373 0
M  V30 6230 H 599.637 -3.63373 -2.18485 0
M  V30 6231 C 598.096 -2.19461 -2.55614 0
M  V30 6232 O 598.626 -1.81008 -3.58607 0
M  V30 6233 N 596.832 -1.83955 -2.24965 0
M  V30 6234 H 596.379 -2.15423 -1.41247 0
M  V30 6235 H 596.337 -1.24874 -2.88538 0
M  V30 6236 N 600.109 -0.101901 -1.5727 0
M  V30 6237 C 601.52 0.426173 -1.81771 0
M  V30 6238 C 601.871 1.67725 -1.01797 0
M  V30 6239 O 600.996 2.14958 -0.249386 0
M  V30 6240 C 601.591 0.779962 -3.297 0
M  V30 6241 C 600.15 1.25275 -3.54941 0
M  V30 6242 C 599.297 0.252814 -2.76145 0
M  V30 6243 H 602.248 -0.32726 -1.55289 0
M  V30 6244 H 602.269 1.63891 -3.43395 0
M  V30 6245 H 601.781 -0.130778 -3.8788 0
M  V30 6246 H 599.882 2.18097 -3.021 0
M  V30 6247 H 599.995 1.20988 -4.63572 0
M  V30 6248 H 598.359 0.736362 -2.43823 0
M  V30 6249 H 599.142 -0.650724 -3.37076 0
M  V30 6250 N 601.587 1.56661 0.17182 0
M  V30 6251 C 603.003 1.50768 0.52357 0
M  V30 6252 C 603.203 0.806072 1.84675 0
M  V30 6253 O 602.259 0.366233 2.4983 0
M  V30 6254 C 603.572 2.955 0.556793 0
M  V30 6255 C 605.12 3.06303 0.644029 0
M  V30 6256 C 605.595 4.52492 0.708148 0
M  V30 6257 N 607.086 4.56737 0.771051 0
M  V30 6258 C 607.821 5.67196 0.841229 0
M  V30 6259 N 607.317 6.87287 0.872272 0
M  V30 6260 N 609.11 5.55165 0.88021 0
M  V30 6261 H 601.261 2.00679 -0.695817 0
M  V30 6262 H 603.524 0.914219 -0.250814 0
M  V30 6263 H 603.23 3.49986 -0.346774 0
M  V30 6264 H 603.104 3.50119 1.40346 0
M  V30 6265 H 605.491 2.51851 1.53802 0
M  V30 6266 H 605.572 2.5477 -0.229297 0
M  V30 6267 H 605.216 5.07575 -0.181585 0
M  V30 6268 H 605.146 5.01781 1.59761 0
M  V30 6269 H 607.637 3.70274 0.755364 0
M  V30 6270 H 607.95 7.6722 0.92698 0
M  V30 6271 H 606.295 6.89898 0.840557 0
M  V30 6272 H 609.486 4.60263 0.852956 0
M  V30 6273 H 609.659 6.41271 0.931439 0
M  V30 6274 N 603.065 -0.440357 1.51323 0
M  V30 6275 C 604.312 -1.19004 1.63842 0
M  V30 6276 C 604.64 -1.91266 0.35321 0
M  V30 6277 O 603.895 -1.84143 -0.662565 0
M  V30 6278 C 604.194 -2.2339 2.78984 0
M  V30 6279 C 603.86 -1.68162 4.18369 0
M  V30 6280 C 602.522 -1.52823 4.56288 0
M  V30 6281 C 604.874 -1.27524 5.05358 0
M  V30 6282 C 602.202 -0.953157 5.78906 0
M  V30 6283 C 604.554 -0.714474 6.28552 0
M  V30 6284 C 603.218 -0.547961 6.65247 0
M  V30 6285 H 602.488 -0.435468 0.59954 0
M  V30 6286 H 605.135 -0.481538 1.85347 0
M  V30 6287 H 603.44 -3.00267 2.51688 0
M  V30 6288 H 605.137 -2.81211 2.85869 0
M  V30 6289 H 601.727 -1.81077 3.8847 0
M  V30 6290 H 605.911 -1.38197 4.76671 0
M  V30 6291 H 601.167 -0.811882 6.05986 0
M  V30 6292 H 605.341 -0.391059 6.95301 0
M  V30 6293 H 602.968 -0.100222 7.60134 0
M  V30 6294 N 604.543 -1.41418 -0.695603 0
M  V30 6295 C 605.453 -1.45622 -1.83933 0
M  V30 6296 C 606.469 -0.346825 -1.70508 0
M  V30 6297 O 607.645 -0.59454 -1.92424 0
M  V30 6298 C 604.71 -1.33627 -3.19914 0
M  V30 6299 C 603.771 -2.54882 -3.45447 0
M  V30 6300 C 603.004 -2.43449 -4.7494 0
M  V30 6301 O 603.227 -1.45905 -5.51424 0
M  V30 6302 O 602.161 -3.33206 -5.01256 0
M  V30 6303 H 605.987 -2.42114 -1.83342 0
M  V30 6304 H 603.572 -1.22956 -0.848658 0
M  V30 6305 H 605.454 -1.29221 -4.01098 0
M  V30 6306 H 604.129 -0.402508 -3.21188 0
M  V30 6307 H 603.036 -2.64865 -2.64192 0
M  V30 6308 H 604.369 -3.47087 -3.48987 0
M  V30 6309 N 606.021 0.929856 -1.27246 0
M  V30 6310 C 606.984 2.01172 -1.09829 0
M  V30 6311 C 607.984 1.60743 -0.0429687 0
M  V30 6312 O 609.174 1.71813 -0.287373 0
M  V30 6313 C 606.306 3.34191 -0.673003 0
M  V30 6314 H 607.499 2.18054 -2.05895 0
M  V30 6315 H 605.052 1.11036 -1.10003 0
M  V30 6316 H 605.787 3.23009 0.289134 0
M  V30 6317 H 605.572 3.64892 -1.43515 0
M  V30 6318 H 607.062 4.13646 -0.573323 0
M  V30 6319 N 607.499 1.09233 1.13605 0
M  V30 6320 C 608.91 0.846839 1.6639 0
M  V30 6321 C 609.261 -0.625031 1.85978 0
M  V30 6322 O 608.386 -1.48173 1.57714 0
M  V30 6323 C 608.981 1.5307 3.0225 0
M  V30 6324 C 607.54 1.33223 3.52035 0
M  V30 6325 C 606.687 1.58806 2.27323 0
M  V30 6326 H 609.638 1.25175 0.975541 0
M  V30 6327 H 609.659 0.96267 3.68121 0
M  V30 6328 H 609.171 2.60192 2.87961 0
M  V30 6329 H 607.272 0.282091 3.71531 0
M  V30 6330 H 607.385 2.0657 4.32279 0
M  V30 6331 H 605.749 1.01007 2.33815 0
M  V30 6332 H 606.532 2.67153 2.15602 0
M  V30 6333 N 608.977 -1.30795 0.87923 0
M  V30 6334 C 609.907 -2.30742 0.357796 0
M  V30 6335 C 610.888 -1.60747 -0.556283 0
M  V30 6336 O 612.073 -1.88393 -0.47135 0
M  V30 6337 C 609.203 -3.44583 -0.433555 0
M  V30 6338 C 608.157 -4.26235 0.388251 0
M  V30 6339 C 607.483 -5.32073 -0.529352 0
M  V30 6340 C 608.783 -4.96303 1.62729 0
M  V30 6341 H 610.477 -2.74605 1.19299 0
M  V30 6342 H 608.023 -1.32017 0.575104 0
M  V30 6343 H 609.976 -4.13563 -0.808934 0
M  V30 6344 H 608.7 -2.99511 -1.30234 0
M  V30 6345 H 607.359 -3.58936 0.745695 0
M  V30 6346 H 607.007 -4.83249 -1.39569 0
M  V30 6347 H 606.707 -5.87598 0.0166741 0
M  V30 6348 H 608.231 -6.0391 -0.901373 0
M  V30 6349 H 609.645 -5.5783 1.32283 0
M  V30 6350 H 608.042 -5.61666 2.11309 0
M  V30 6351 H 609.112 -4.22758 2.37494 0
M  V30 6352 N 610.455 -0.639598 -1.44038 0
M  V30 6353 C 611.702 -0.14748 -2.01962 0
M  V30 6354 C 612.03 1.23372 -1.50365 0
M  V30 6355 O 611.285 1.8345 -0.681501 0
M  V30 6356 C 611.584 -0.0925348 -3.5728 0
M  V30 6357 C 611.25 -1.41365 -4.28167 0
M  V30 6358 C 609.912 -1.77545 -4.47248 0
M  V30 6359 C 612.264 -2.2853 -4.68427 0
M  V30 6360 C 609.592 -3.00583 -5.03852 0
M  V30 6361 C 611.944 -3.50846 -5.26393 0
M  V30 6362 C 610.608 -3.8724 -5.43692 0
M  V30 6363 H 609.878 -0.0539666 -0.739032 0
M  V30 6364 H 612.525 -0.827599 -1.72694 0
M  V30 6365 H 610.83 0.670987 -3.86012 0
M  V30 6366 H 612.527 0.304891 -3.99839 0
M  V30 6367 H 609.117 -1.1221 -4.13651 0
M  V30 6368 H 613.301 -2.0187 -4.5339 0
M  V30 6369 H 608.557 -3.28846 -5.15432 0
M  V30 6370 H 612.731 -4.18616 -5.56537 0
M  V30 6371 H 610.358 -4.8266 -5.87319 0
M  V30 6372 N 611.933 1.52934 -0.380664 0
M  V30 6373 C 612.881 2.27727 0.47361 0
M  V30 6374 C 613.875 1.31288 1.0705 0
M  V30 6375 O 615.081 1.4886 1.01197 0
M  V30 6376 H 611.456 0.732189 0.171475 0
M  V30 6377 H 613.427 2.97864 -0.178785 0
M  V30 6378 C 612.176 3.0904 1.59341 0
M  V30 6379 H 611.499 3.831 1.14343 0
M  V30 6380 H 612.939 3.64527 2.16555 0
M  V30 6381 C 611.398 2.20813 2.54447 0
M  V30 6382 O 611.928 1.82907 3.57642 0
M  V30 6383 N 610.134 1.85145 2.23986 0
M  V30 6384 H 609.681 2.16169 1.40103 0
M  V30 6385 H 609.639 1.26402 2.87871 0
M  V30 6386 N 613.412 0.11024 1.57214 0
M  V30 6387 C 614.375 -0.828808 2.1369 0
M  V30 6388 C 615.375 -1.20059 1.06969 0
M  V30 6389 O 616.565 -1.12754 1.32786 0
M  V30 6390 C 613.697 -2.11959 2.66994 0
M  V30 6391 H 614.89 -0.338146 2.97988 0
M  V30 6392 H 612.443 -0.138913 1.55681 0
M  V30 6393 H 613.178 -2.65476 1.8626 0
M  V30 6394 H 612.963 -1.86258 3.45037 0
M  V30 6395 H 614.453 -2.79105 3.10629 0
M  V30 6396 N 614.89 -1.56749 -0.16351 0
M  V30 6397 C 616.306 -1.51043 -0.515567 0
M  V30 6398 C 616.506 -0.815855 -1.84245 0
M  V30 6399 O 615.562 -0.379477 -2.49632 0
M  V30 6400 C 616.875 -2.95791 -0.541114 0
M  V30 6401 C 618.423 -3.0664 -0.627776 0
M  V30 6402 C 618.898 -4.52861 -0.684141 0
M  V30 6403 N 620.389 -4.5714 -0.746818 0
M  V30 6404 C 621.124 -5.67634 -0.811137 0
M  V30 6405 N 620.62 -6.8774 -0.835811 0
M  V30 6406 N 622.413 -5.55624 -0.850756 0
M  V30 6407 H 614.564 -2.00307 0.70645 0
M  V30 6408 H 616.827 -0.912876 0.255659 0
M  V30 6409 H 616.533 -3.49797 0.365329 0
M  V30 6410 H 616.407 -3.50858 -1.38487 0
M  V30 6411 H 618.794 -2.52663 -1.52464 0
M  V30 6412 H 618.875 -2.54645 0.242805 0
M  V30 6413 H 618.519 -5.07472 0.2085 0
M  V30 6414 H 618.449 -5.02621 -1.57098 0
M  V30 6415 H 620.94 -3.70669 -0.735717 0
M  V30 6416 H 621.253 -7.67701 -0.886279 0
M  V30 6417 H 619.598 -6.90334 -0.803958 0
M  V30 6418 H 622.789 -4.60709 -0.828535 0
M  V30 6419 H 622.962 -6.41756 -0.897418 0
M  V30 6420 N 616.368 0.432326 -1.51554 0
M  V30 6421 C 617.617 1.17831 -1.63703 0
M  V30 6422 C 617.93 1.92229 -0.36156 0
M  V30 6423 O 619.136 2.69069 -0.362495 0
M  V30 6424 C 617.592 2.14318 -2.89129 0
M  V30 6425 C 617.2 1.45544 -4.23699 0
M  V30 6426 C 618.944 2.89319 -3.10636 0
M  V30 6427 C 616.851 2.40545 -5.4027 0
M  V30 6428 H 615.781 0.443533 -0.60975 0
M  V30 6429 H 618.432 0.444878 -1.78026 0
M  V30 6430 H 616.814 2.91117 -2.68452 0
M  V30 6431 H 617.988 0.742693 -4.54775 0
M  V30 6432 H 616.303 0.826772 -4.0811 0
M  V30 6433 H 618.9 3.60495 -3.94902 0
M  V30 6434 H 619.243 3.50951 -2.23918 0
M  V30 6435 H 619.776 2.19625 -3.31677 0
M  V30 6436 H 616.515 1.83594 -6.29264 0
M  V30 6437 H 616.035 3.09859 -5.13563 0
M  V30 6438 H 617.714 3.01569 -5.72421 0
M  V30 6439 N 617.846 1.41785 0.688094 0
M  V30 6440 C 619.262 1.24419 0.999608 0
M  V30 6441 C 619.462 0.138868 2.01021 0
M  V30 6442 O 618.518 -0.494283 2.47615 0
M  V30 6443 C 619.831 2.59625 1.51709 0
M  V30 6444 C 621.379 2.66869 1.63554 0
M  V30 6445 C 621.854 4.0241 2.18702 0
M  V30 6446 N 623.345 4.04295 2.26053 0
M  V30 6447 C 624.08 5.05977 2.69768 0
M  V30 6448 N 623.576 6.18047 3.13033 0
M  V30 6449 N 625.369 4.93336 2.69398 0
M  V30 6450 H 617.52 2.12392 0.0187427 0
M  V30 6451 H 619.783 0.945347 0.0708673 0
M  V30 6452 H 619.489 3.41297 0.849059 0
M  V30 6453 H 619.363 2.82628 2.49803 0
M  V30 6454 H 621.75 1.8555 2.29467 0
M  V30 6455 H 621.831 2.47668 0.639857 0
M  V30 6456 H 621.475 4.8418 1.53402 0
M  V30 6457 H 621.405 4.18955 3.19037 0
M  V30 6458 H 623.896 3.23383 1.9553 0
M  V30 6459 H 624.209 6.91498 3.45038 0
M  V30 6460 H 622.554 6.21572 3.10923 0
M  V30 6461 H 625.745 4.04865 2.34952 0
M  V30 6462 H 625.918 5.72717 3.03148 0
M  V30 6463 N 619.324 -0.923095 1.27737 0
M  V30 6464 C 620.271 -2.02432 1.1086 0
M  V30 6465 C 621.241 -1.66098 0.00835195 0
M  V30 6466 O 622.426 -1.90027 0.171542 0
M  V30 6467 C 619.566 -3.36476 0.766671 0
M  V30 6468 C 618.679 -3.85737 1.94501 0
M  V30 6469 C 617.814 -5.08249 1.54455 0
M  V30 6470 C 616.853 -5.49818 2.6901 0
M  V30 6471 N 615.99 -6.63524 2.29521 0
M  V30 6472 H 620.83 -2.16201 2.05089 0
M  V30 6473 H 618.367 -1.05909 1.02087 0
M  V30 6474 H 620.325 -4.13569 0.549223 0
M  V30 6475 H 618.955 -3.22502 -0.13867 0
M  V30 6476 H 618.007 -3.04883 2.27487 0
M  V30 6477 H 619.319 -4.12513 2.80419 0
M  V30 6478 H 618.473 -5.92857 1.28862 0
M  V30 6479 H 617.212 -4.83261 0.656534 0
M  V30 6480 H 616.217 -4.63757 2.95313 0
M  V30 6481 H 617.442 -5.76799 3.5844 0
M  V30 6482 H 615.388 -6.40185 1.43177 0
M  V30 6483 H 615.305 -6.89978 3.08977 0
M  V30 6484 H 616.573 -7.51461 2.07187 0
M  V30 6485 N 620.802 -1.09834 -1.13024 0
M  V30 6486 C 622.027 -0.85909 -1.88771 0
M  V30 6487 C 622.452 0.584402 -1.78791 0
M  V30 6488 O 621.81 1.41101 -1.13842 0
M  V30 6489 C 621.858 -1.30427 -3.36186 0
M  V30 6490 O 620.962 -0.465368 -4.09766 0
M  V30 6491 H 620.303 -0.310786 -0.586778 0
M  V30 6492 H 622.833 -1.46355 -1.42973 0
M  V30 6493 H 622.843 -1.2915 -3.8702 0
M  V30 6494 H 621.518 -2.3555 -3.42767 0
M  V30 6495 H 620.095 -0.542814 -3.68928 0
M  V30 6496 N 622.28 1.30327 -0.886154 0
M  V30 6497 C 623.526 1.96764 -0.515312 0
M  V30 6498 C 623.881 1.68675 0.925552 0
M  V30 6499 O 623.174 0.981693 1.6454 0
M  V30 6500 C 623.368 3.49906 -0.728042 0
M  V30 6501 C 623.197 3.92881 -2.18803 0
M  V30 6502 C 621.967 4.18424 -2.83284 0
M  V30 6503 C 624.165 4.05617 -3.16195 0
M  V30 6504 N 622.147 4.47867 -4.19867 0
M  V30 6505 C 623.518 4.38957 -4.37855 0
M  V30 6506 C 625.573 3.88047 -3.11968 0
M  V30 6507 C 624.276 4.56559 -5.55829 0
M  V30 6508 C 626.302 4.06851 -4.29215 0
M  V30 6509 C 625.664 4.40538 -5.49641 0
M  V30 6510 H 621.763 0.74493 -0.237916 0
M  V30 6511 H 624.347 1.57536 -1.14414 0
M  V30 6512 H 622.518 3.88187 -0.128696 0
M  V30 6513 H 624.25 4.03401 -0.323983 0
M  V30 6514 H 621.005 4.1167 -2.34146 0
M  V30 6515 H 621.429 4.66721 -4.90408 0
M  V30 6516 H 626.071 3.61078 -2.19961 0
M  V30 6517 H 623.789 4.8237 -6.4834 0
M  V30 6518 H 627.375 3.94724 -4.27416 0
M  V30 6519 H 626.255 4.54789 -6.38856 0
M  V30 6520 N 623.758 0.647228 1.43697 0
M  V30 6521 C 624.688 -0.0345631 2.33474 0
M  V30 6522 C 625.669 -0.818193 1.4913 0
M  V30 6523 O 626.854 -0.780867 1.77809 0
M  V30 6524 C 623.984 -1.00576 3.32418 0
M  V30 6525 C 622.938 -0.33266 4.26705 0
M  V30 6526 C 622.264 -1.41489 5.1564 0
M  V30 6527 C 623.564 0.771204 5.16575 0
M  V30 6528 H 625.258 0.715163 2.90733 0
M  V30 6529 H 622.804 0.345364 1.39797 0
M  V30 6530 H 624.757 -1.49159 3.94119 0
M  V30 6531 H 623.481 -1.78657 2.73403 0
M  V30 6532 H 622.14 0.13267 3.6636 0
M  V30 6533 H 621.788 -2.18698 4.52968 0
M  V30 6534 H 621.488 -0.969799 5.79542 0
M  V30 6535 H 623.012 -1.9022 5.80214 0
M  V30 6536 H 624.426 0.36779 5.72119 0
M  V30 6537 H 622.823 1.1404 5.89165 0
M  V30 6538 H 623.893 1.63169 4.56622 0
M  V30 6539 N 625.236 -1.5273 0.388769 0
M  V30 6540 C 626.186 -2.23238 -0.463567 0
M  V30 6541 C 627.17 -1.23606 -1.03007 0
M  V30 6542 O 628.362 -1.48945 -0.956261 0
M  V30 6543 C 625.491 -3.04228 -1.5906 0
M  V30 6544 C 624.577 -4.11255 -1.03587 0
M  V30 6545 N 624.968 -5.0538 -0.206038 0
M  V30 6546 C 623.266 -4.26376 -1.30841 0
M  V30 6547 C 623.967 -5.81613 0.100359 0
M  V30 6548 N 622.943 -5.41264 -0.503447 0
M  V30 6549 H 626.745 -2.93367 0.176978 0
M  V30 6550 H 624.259 -1.61188 0.198046 0
M  V30 6551 H 626.256 -3.53277 -2.21362 0
M  V30 6552 H 624.916 -2.35634 -2.23398 0
M  V30 6553 H 625.927 -5.17663 0.156659 0
M  V30 6554 H 622.604 -3.69011 -1.95287 0
M  V30 6555 H 623.994 -6.67442 0.772676 0
M  V30 6556 N 626.714 -0.118576 -1.57153 0
M  V30 6557 C 627.662 0.849114 -2.16547 0
M  V30 6558 C 628.656 1.27567 -1.11458 0
M  V30 6559 O 629.862 1.24746 -1.29763 0
M  V30 6560 H 626.237 0.291935 -0.693021 0
M  V30 6561 H 628.208 0.323693 -2.96639 0
M  V30 6562 C 626.957 2.08951 -2.77912 0
M  V30 6563 H 626.28 1.77021 -3.58474 0
M  V30 6564 H 627.72 2.74666 -3.23008 0
M  V30 6565 C 626.179 2.87899 -1.74974 0
M  V30 6566 O 626.709 3.83268 -1.20285 0
M  V30 6567 N 624.915 2.51884 -1.44924 0
M  V30 6568 H 624.462 1.74397 -1.89587 0
M  V30 6569 H 624.42 3.05003 -0.762921 0
M  V30 6570 N 628.193 1.56834 0.155195 0
M  V30 6571 C 629.47 1.73799 0.897395 0
M  V30 6572 C 629.85 0.684379 1.99698 0
M  V30 6573 O 629.198 -0.298111 2.26547 0
M  V30 6574 C 629.408 3.17572 1.44737 0
M  V30 6575 C 630.756 3.79014 1.91399 0
M  V30 6576 O 631.78 3.20951 1.54496 0
M  V30 6577 O 630.639 4.80998 2.59429 0
M  V30 6578 H 627.733 0.710329 0.423511 0
M  V30 6579 H 630.279 1.69107 0.141761 0
M  V30 6580 H 629.051 3.85749 0.656741 0
M  V30 6581 H 628.674 3.26657 2.26674 0
M  V30 6582 N 629.671 -0.424282 1.51781 0
M  V30 6583 C 630.601 -1.52305 1.7699 0
M  V30 6584 C 631.582 -1.5839 0.620209 0
M  V30 6585 O 632.767 -1.73908 0.864268 0
M  V30 6586 C 629.897 -2.90271 1.90683 0
M  V30 6587 C 628.851 -2.99043 3.06198 0
M  V30 6588 C 628.177 -4.39116 3.05092 0
M  V30 6589 C 629.477 -2.7192 4.45934 0
M  V30 6590 H 631.171 -1.31461 2.68995 0
M  V30 6591 H 628.717 -0.630985 1.29439 0
M  V30 6592 H 630.67 -3.6711 2.06901 0
M  V30 6593 H 629.394 -3.12376 0.953365 0
M  V30 6594 H 628.053 -2.24646 2.89706 0
M  V30 6595 H 627.701 -4.58207 2.07498 0
M  V30 6596 H 627.401 -4.45912 3.82669 0
M  V30 6597 H 628.925 -5.17911 3.2342 0
M  V30 6598 H 630.339 -3.38487 4.62709 0
M  V30 6599 H 628.736 -2.90111 5.25315 0
M  V30 6600 H 629.806 -1.67445 4.55072 0
M  V30 6601 N 631.149 -1.42148 -0.680565 0
M  V30 6602 C 632.096 -1.45175 -1.79424 0
M  V30 6603 C 633.066 -0.304352 -1.63288 0
M  V30 6604 O 634.251 -0.507591 -1.83924 0
M  V30 6605 C 631.391 -1.35429 -3.17416 0
M  V30 6606 C 630.504 -2.60158 -3.4488 0
M  V30 6607 C 629.639 -2.42596 -4.72568 0
M  V30 6608 C 628.678 -3.62727 -4.93047 0
M  V30 6609 N 627.815 -3.44143 -6.11973 0
M  V30 6610 H 632.655 -2.40349 -1.76172 0
M  V30 6611 H 630.192 -1.19334 -0.860107 0
M  V30 6612 H 632.15 -1.27777 -3.97151 0
M  V30 6613 H 630.78 -0.438536 -3.19807 0
M  V30 6614 H 629.832 -2.78199 -2.5944 0
M  V30 6615 H 631.144 -3.49473 -3.55908 0
M  V30 6616 H 630.298 -2.32497 -5.60384 0
M  V30 6617 H 629.037 -1.50761 -4.63813 0
M  V30 6618 H 628.042 -3.73264 -4.03676 0
M  V30 6619 H 629.267 -4.55534 -5.03652 0
M  V30 6620 H 627.213 -2.5502 -6.04401 0
M  V30 6621 H 627.13 -4.27041 -6.23836 0
M  V30 6622 H 628.398 -3.37845 -7.02482 0
M  V30 6623 N 632.627 0.916307 -1.28225 0
M  V30 6624 C 633.873 1.66765 -1.154 0
M  V30 6625 C 634.206 1.91912 0.297251 0
M  V30 6626 O 633.481 1.51766 1.21644 0
M  V30 6627 C 633.764 3.02715 -1.95028 0
M  V30 6628 C 633.617 2.84738 -3.48201 0
M  V30 6629 C 634.936 4.03215 -1.76369 0
M  V30 6630 H 632.055 0.605205 -0.42059 0
M  V30 6631 H 634.697 1.06255 -1.57512 0
M  V30 6632 H 632.847 3.54365 -1.59242 0
M  V30 6633 H 634.519 2.40118 -3.9388 0
M  V30 6634 H 632.762 2.19848 -3.73964 0
M  V30 6635 H 633.433 3.8127 -3.99171 0
M  V30 6636 H 635.909 3.60617 -2.07593 0
M  V30 6637 H 634.785 4.96306 -2.34459 0
M  V30 6638 H 635.046 4.36288 -0.71452 0
M  V30 6639 N 634.105 1.10431 1.1244 0
M  V30 6640 C 635.068 0.756542 2.16354 0
M  V30 6641 C 636.068 -0.21899 1.59302 0
M  V30 6642 O 637.258 0.00415969 1.742 0
M  V30 6643 C 634.39 0.120612 3.40687 0
M  V30 6644 H 635.583 1.67696 2.48632 0
M  V30 6645 H 633.136 0.904832 1.27446 0
M  V30 6646 H 633.871 -0.810536 3.14008 0
M  V30 6647 H 633.656 0.822693 3.83372 0
M  V30 6648 H 635.146 -0.106945 4.17463 0
M  V30 6649 N 635.583 -1.29855 0.893053 0
M  V30 6650 C 636.513 -2.3035 0.382249 0
M  V30 6651 C 637.494 -1.61328 -0.539203 0
M  V30 6652 O 638.679 -1.88882 -0.451342 0
M  V30 6653 C 635.809 -3.45024 -0.396983 0
M  V30 6654 C 634.763 -4.258 0.433437 0
M  V30 6655 C 634.089 -5.32605 -0.472889 0
M  V30 6656 C 635.389 -4.94549 1.67984 0
M  V30 6657 H 637.083 -2.73325 1.22205 0
M  V30 6658 H 634.629 -1.314 0.589073 0
M  V30 6659 H 636.582 -4.14398 -0.765024 0
M  V30 6660 H 635.306 -3.00875 -1.2705 0
M  V30 6661 H 633.965 -3.58125 0.783723 0
M  V30 6662 H 633.613 -4.84702 -1.34435 0
M  V30 6663 H 633.313 -5.87547 0.0789958 0
M  V30 6664 H 634.837 -6.04832 -0.837269 0
M  V30 6665 H 636.251 -5.56395 1.38192 0
M  V30 6666 H 634.648 -5.59393 2.17254 0
M  V30 6667 H 635.718 -4.20215 2.41965 0
M  V30 6668 N 637.061 -0.65484 -1.43351 0
M  V30 6669 C 638.31 -0.166215 -2.01014 0
M  V30 6670 C 638.623 1.22764 -1.52278 0
M  V30 6671 O 639.829 1.81156 -2.02224 0
M  V30 6672 C 638.285 -0.246341 -3.59056 0
M  V30 6673 C 637.893 -1.64299 -4.16785 0
M  V30 6674 C 639.637 0.184597 -4.24098 0
M  V30 6675 C 637.544 -1.67695 -5.67126 0
M  V30 6676 H 636.474 -0.0583769 -0.751737 0
M  V30 6677 H 639.125 -0.817111 -1.64303 0
M  V30 6678 H 637.507 0.472092 -3.93176 0
M  V30 6679 H 638.681 -2.3869 -3.94162 0
M  V30 6680 H 636.996 -2.02004 -3.6412 0
M  V30 6681 H 639.593 0.179088 -5.344 0
M  V30 6682 H 639.936 1.21632 -3.98135 0
M  V30 6683 H 640.469 -0.482141 -3.94867 0
M  V30 6684 H 637.208 -2.68783 -5.9786 0
M  V30 6685 H 636.728 -0.976313 -5.91801 0
M  V30 6686 H 638.407 -1.42142 -6.31193 0
M  V30 6687 N 638.539 1.52521 -0.396863 0
M  V30 6688 C 639.787 2.01274 0.182536 0
M  V30 6689 C 640.108 1.28485 1.46685 0
M  V30 6690 O 639.378 0.407134 1.91623 0
M  V30 6691 H 637.958 0.743671 0.0704442 0
M  V30 6692 H 640.62 1.87547 -0.530289 0
M  V30 6693 H 639.716 3.09687 0.387385 0
M  V30 6694 N 640.017 0.126909 1.57088 0
M  V30 6695 C 641.242 -0.53997 2.00248 0
M  V30 6696 C 641.667 -1.58927 1.00618 0
M  V30 6697 O 641.025 -1.81288 -0.0210131 0
M  V30 6698 C 641.073 -1.13565 3.4225 0
M  V30 6699 O 640.177 -2.25103 3.45547 0
M  V30 6700 H 639.518 -0.13412 0.650314 0
M  V30 6701 H 642.048 0.217718 2.03438 0
M  V30 6702 H 642.058 -1.46925 3.80627 0
M  V30 6703 H 640.733 -0.367122 4.14277 0
M  V30 6704 H 639.31 -1.93123 3.18995 0
M  V30 6705 N 641.495 -1.56914 -0.146875 0
M  V30 6706 C 642.906 -1.72799 -0.706928 0
M  V30 6707 C 643.257 -0.741329 -1.81656 0
M  V30 6708 O 642.382 0.0920162 -2.16204 0
M  V30 6709 C 642.977 -3.13317 -1.28911 0
M  V30 6710 C 641.536 -3.30803 -1.79573 0
M  V30 6711 C 640.683 -2.68725 -0.684252 0
M  V30 6712 H 643.634 -1.58504 0.0787931 0
M  V30 6713 H 643.655 -3.13323 -2.15891 0
M  V30 6714 H 643.167 -3.85104 -0.481284 0
M  V30 6715 H 641.268 -2.64012 -2.62923 0
M  V30 6716 H 641.381 -4.38754 -1.92436 0
M  V30 6717 H 639.745 -2.29196 -1.11091 0
M  V30 6718 H 640.528 -3.43117 0.112134 0
M  V30 6719 N 642.974 0.416227 -1.52004 0
M  V30 6720 C 644.22 1.16555 -1.6596 0
M  V30 6721 C 644.553 1.90347 -0.384906 0
M  V30 6722 O 643.828 1.84474 0.616405 0
M  V30 6723 C 644.111 2.1657 -2.87696 0
M  V30 6724 C 643.964 1.46722 -4.25197 0
M  V30 6725 C 645.283 3.17321 -3.04951 0
M  V30 6726 H 642.402 0.422369 -0.603965 0
M  V30 6727 H 645.044 0.452141 -1.84542 0
M  V30 6728 H 643.194 2.77411 -2.71985 0
M  V30 6729 H 644.866 0.89056 -4.52622 0
M  V30 6730 H 643.109 0.769263 -4.26925 0
M  V30 6731 H 643.78 2.19665 -5.0641 0
M  V30 6732 H 646.256 2.66552 -3.19514 0
M  V30 6733 H 645.132 3.84573 -3.91656 0
M  V30 6734 H 645.393 3.84643 -2.17951 0
M  V30 6735 N 644.452 1.42507 0.673017 0
M  V30 6736 C 645.729 1.33554 1.42908 0
M  V30 6737 C 646.109 -0.0262211 2.11084 0
M  V30 6738 O 645.457 -1.04181 2.03368 0
M  V30 6739 C 645.667 2.50498 2.43006 0
M  V30 6740 C 647.015 2.92694 3.07596 0
M  V30 6741 O 648.039 2.50401 2.53333 0
M  V30 6742 O 646.898 3.65899 4.05931 0
M  V30 6743 H 643.992 0.526785 0.637516 0
M  V30 6744 H 646.538 1.54518 0.701591 0
M  V30 6745 H 645.31 3.41272 1.9144 0
M  V30 6746 H 644.933 2.3153 3.23233 0
M  V30 6747 N 645.93 -0.909495 1.28709 0
M  V30 6748 C 646.86 -2.0291 1.15542 0
M  V30 6749 C 647.841 -1.7002 0.0521017 0
M  V30 6750 O 649.026 -1.92835 0.229849 0
M  V30 6751 C 646.156 -3.37458 0.820935 0
M  V30 6752 C 645.11 -3.84524 1.87949 0
M  V30 6753 C 644.436 -5.16086 1.39854 0
M  V30 6754 C 645.736 -4.05918 3.28676 0
M  V30 6755 H 647.43 -2.14183 2.09203 0
M  V30 6756 H 644.976 -1.02913 1.00722 0
M  V30 6757 H 646.929 -4.1528 0.715571 0
M  V30 6758 H 645.653 -3.26249 -0.151374 0
M  V30 6759 H 644.312 -3.08911 1.97408 0
M  V30 6760 H 643.96 -5.01284 0.41518 0
M  V30 6761 H 643.66 -5.48547 2.1064 0
M  V30 6762 H 645.184 -5.96459 1.30649 0
M  V30 6763 H 646.598 -4.74252 3.22115 0
M  V30 6764 H 644.995 -4.49717 3.97334 0
M  V30 6765 H 646.065 -3.10583 3.72379 0
M  V30 6766 N 647.408 -1.11026 -1.11852 0
M  V30 6767 C 648.636 -0.878818 -1.87308 0
M  V30 6768 C 649.051 0.57111 -1.79955 0
M  V30 6769 O 648.408 1.39409 -1.17777 0
M  V30 6770 C 648.459 -1.3264 -3.36287 0
M  V30 6771 O 648.18 -2.71948 -3.43476 0
M  V30 6772 C 649.681 -1.12974 -4.28663 0
M  V30 6773 H 646.901 -0.315015 -0.592458 0
M  V30 6774 H 649.445 -1.47649 -1.41492 0
M  V30 6775 H 647.6 -0.772269 -3.79625 0
M  V30 6776 H 648.014 -2.91241 -4.3621 0
M  V30 6777 H 649.488 -1.49198 -5.31454 0
M  V30 6778 H 649.965 -0.0689127 -4.39146 0
M  V30 6779 H 650.571 -1.67064 -3.91113 0
M  V30 6780 N 648.886 1.2938 -0.899927 0
M  V30 6781 C 650.116 1.99402 -0.540601 0
M  V30 6782 C 650.524 1.67534 0.87914 0
M  V30 6783 O 649.867 0.916821 1.59186 0
M  V30 6784 C 649.929 3.53514 -0.653326 0
M  V30 6785 C 649.593 4.08937 -2.04009 0
M  V30 6786 C 650.59 4.23815 -3.01126 0
M  V30 6787 C 648.275 4.43962 -2.34953 0
M  V30 6788 C 650.269 4.72951 -4.27313 0
M  V30 6789 C 647.956 4.92795 -3.61382 0
M  V30 6790 C 648.954 5.07244 -4.57376 0
M  V30 6791 O 648.642 5.55017 -5.8156 0
M  V30 6792 H 648.374 0.64383 -0.206057 0
M  V30 6793 H 650.928 1.65878 -1.21134 0
M  V30 6794 H 649.158 3.86628 0.0744449 0
M  V30 6795 H 650.847 4.04767 -0.303118 0
M  V30 6796 H 651.613 3.97043 -2.78535 0
M  V30 6797 H 647.492 4.31974 -1.60994 0
M  V30 6798 H 651.036 4.84144 -5.02245 0
M  V30 6799 H 646.933 5.19004 -3.83804 0
M  V30 6800 H 647.701 5.73331 -5.84153 0
M  V30 6801 N 650.364 0.662433 1.43002 0
M  V30 6802 C 651.592 0.187615 2.06048 0
M  V30 6803 C 652.007 -1.15039 1.49705 0
M  V30 6804 O 651.364 -1.71209 0.631956 0
M  V30 6805 C 651.415 0.100498 3.6136 0
M  V30 6806 O 651.136 1.38562 4.15611 0
M  V30 6807 C 652.637 -0.399298 4.41498 0
M  V30 6808 H 649.857 0.0941675 0.664359 0
M  V30 6809 H 652.401 0.905681 1.83351 0
M  V30 6810 H 650.556 -0.568181 3.83211 0
M  V30 6811 H 650.97 1.25084 5.09366 0
M  V30 6812 H 652.444 -0.409187 5.50481 0
M  V30 6813 H 652.921 -1.43232 4.15188 0
M  V30 6814 H 653.527 0.23721 4.24638 0
M  V30 6815 N 651.842 -1.52309 0.404946 0
M  V30 6816 C 653.072 -2.05886 -0.171569 0
M  V30 6817 C 653.48 -1.27527 -1.39762 0
M  V30 6818 O 652.823 -0.319215 -1.80905 0
M  V30 6819 C 652.885 -3.54609 -0.590983 0
M  V30 6820 C 652.549 -4.53989 0.523757 0
M  V30 6821 C 653.546 -5.01084 1.38604 0
M  V30 6822 C 651.231 -4.97465 0.695255 0
M  V30 6823 C 653.225 -5.90295 2.4048 0
M  V30 6824 C 650.912 -5.86473 1.71733 0
M  V30 6825 C 651.91 -6.32782 2.57051 0
M  V30 6826 O 651.598 -7.20029 3.57509 0
M  V30 6827 H 651.33 -0.675508 -0.0257763 0
M  V30 6828 H 653.884 -1.97238 0.573278 0
M  V30 6829 H 652.114 -3.60929 -1.38805 0
M  V30 6830 H 653.803 -3.90853 -1.09494 0
M  V30 6831 H 654.569 -4.68214 1.26492 0
M  V30 6832 H 650.448 -4.60982 0.0408447 0
M  V30 6833 H 653.992 -6.26363 3.07108 0
M  V30 6834 H 649.889 -6.18756 1.83877 0
M  V30 6835 H 650.657 -7.3813 3.53703 0
M  V30 6836 N 653.32 -0.135238 -1.57019 0
M  V30 6837 C 654.597 0.563227 -1.87316 0
M  V30 6838 C 654.977 1.83749 -1.03921 0
M  V30 6839 O 654.325 2.2817 -0.122675 0
M  V30 6840 C 654.535 0.840031 -3.3874 0
M  V30 6841 C 655.883 1.18598 -4.077 0
M  V30 6842 O 656.907 0.92977 -3.43851 0
M  V30 6843 O 655.766 1.66758 -5.20436 0
M  V30 6844 H 652.86 0.285971 -0.775983 0
M  V30 6845 H 655.406 -0.170965 -1.68837 0
M  V30 6846 H 654.178 -0.0622785 -3.9125 0
M  V30 6847 H 653.801 1.62882 -3.62706 0
M  V30 6848 N 654.798 1.5699 0.138552 0
M  V30 6849 C 655.748 1.9532 1.17619 0
M  V30 6850 C 656.732 0.825545 1.38107 0
M  V30 6851 O 657.924 1.08908 1.39528 0
M  V30 6852 C 655.053 2.34451 2.50774 0
M  V30 6853 C 654.139 3.53805 2.33844 0
M  V30 6854 N 654.53 4.70088 1.86685 0
M  V30 6855 C 652.828 3.59055 2.64567 0
M  V30 6856 C 653.529 5.52165 1.82998 0
M  V30 6857 N 652.505 4.94108 2.26624 0
M  V30 6858 H 656.307 2.82694 0.803809 0
M  V30 6859 H 653.821 1.5866 0.346519 0
M  V30 6860 H 655.818 2.60119 3.25797 0
M  V30 6861 H 654.478 1.48431 2.88788 0
M  V30 6862 H 655.489 4.93681 1.56523 0
M  V30 6863 H 652.166 2.83596 3.06398 0
M  V30 6864 H 653.556 6.55407 1.47957 0
M  V30 6865 N 656.276 -0.40816 1.52223 0
M  V30 6866 C 657.206 -1.5042 1.78595 0
M  V30 6867 C 658.187 -1.57723 0.636974 0
M  V30 6868 O 659.372 -1.72982 0.882664 0
M  V30 6869 C 656.502 -2.88232 1.93751 0
M  V30 6870 C 655.456 -2.95779 3.09352 0
M  V30 6871 C 654.782 -4.35855 3.09732 0
M  V30 6872 C 656.082 -2.67175 4.48793 0
M  V30 6873 H 657.776 -1.28601 2.70374 0
M  V30 6874 H 655.322 -0.617221 1.30101 0
M  V30 6875 H 657.275 -3.64895 2.10783 0
M  V30 6876 H 655.999 -3.11347 0.986443 0
M  V30 6877 H 654.658 -2.21561 2.92072 0
M  V30 6878 H 654.306 -4.55981 2.12346 0
M  V30 6879 H 654.006 -4.41829 3.87377 0
M  V30 6880 H 655.53 -5.14451 3.28895 0
M  V30 6881 H 656.944 -3.3356 4.66273 0
M  V30 6882 H 655.341 -2.84523 5.28362 0
M  V30 6883 H 656.411 -1.62609 4.56822 0
M  V30 6884 N 657.755 -1.42862 -0.66545 0
M  V30 6885 C 659.003 -1.43546 -1.42264 0
M  V30 6886 C 659.324 -0.0563116 -1.94919 0
M  V30 6887 O 658.594 0.906568 -1.73661 0
M  V30 6888 H 657.174 -0.528464 -0.527953 0
M  V30 6889 H 659.836 -1.78363 -0.785665 0
M  V30 6890 H 658.932 -2.14079 -2.27105 0
M  V30 6891 N 659.233 0.902656 -1.29189 0
M  V30 6892 C 660.51 1.63296 -1.07674 0
M  V30 6893 C 660.89 2.07649 0.380137 0
M  V30 6894 O 660.238 1.82997 1.36837 0
M  V30 6895 C 660.448 2.81603 -2.06158 0
M  V30 6896 C 661.796 3.52359 -2.36914 0
M  V30 6897 O 662.82 2.91767 -2.04329 0
M  V30 6898 O 661.679 4.61586 -2.92576 0
M  V30 6899 H 658.773 0.716889 -0.41231 0
M  V30 6900 H 661.319 0.950984 -1.4055 0
M  V30 6901 H 660.091 2.46004 -3.04299 0
M  V30 6902 H 659.714 3.57508 -1.73993 0
M  V30 6903 N 660.711 1.11618 1.11262 0
M  V30 6904 C 661.936 0.889013 1.8738 0
M  V30 6905 C 662.361 -0.555884 1.79698 0
M  V30 6906 O 661.719 -1.39272 1.16073 0
M  V30 6907 C 661.767 1.35759 3.34069 0
M  V30 6908 O 660.871 0.530499 4.08974 0
M  V30 6909 H 660.212 0.320082 0.581759 0
M  V30 6910 H 662.742 1.48611 1.40627 0
M  V30 6911 H 662.752 1.35291 3.84916 0
M  V30 6912 H 661.427 2.40973 3.38976 0
M  V30 6913 H 660.004 0.601439 3.68018 0
M  V30 6914 N 662.189 -1.289 0.906776 0
M  V30 6915 C 663.6 -1.77336 0.58384 0
M  V30 6916 C 663.951 -1.74304 -0.900697 0
M  V30 6917 O 663.076 -1.33335 -1.70443 0
M  V30 6918 C 663.671 -3.22019 1.05304 0
M  V30 6919 C 662.23 -3.68205 0.781148 0
M  V30 6920 C 661.377 -2.48837 1.22373 0
M  V30 6921 H 664.328 -1.15462 1.08877 0
M  V30 6922 H 664.349 -3.78481 0.391414 0
M  V30 6923 H 663.861 -3.24194 2.13353 0
M  V30 6924 H 661.962 -3.71497 -0.28643 0
M  V30 6925 H 662.075 -4.58675 1.384 0
M  V30 6926 H 660.439 -2.46461 0.642594 0
M  V30 6927 H 661.222 -2.53736 2.31242 0
M  V30 6928 N 663.667 -0.670007 -1.42649 0
M  V30 6929 C 664.614 0.0112928 -2.30797 0
M  V30 6930 C 665.584 0.797627 -1.45695 0
M  V30 6931 O 666.769 0.770845 -1.74535 0
M  V30 6932 C 663.909 0.95998 -3.31479 0
M  V30 6933 C 663.022 0.167975 -4.31673 0
M  V30 6934 C 662.157 1.11198 -5.19431 0
M  V30 6935 C 661.196 0.311381 -6.11307 0
M  V30 6936 N 660.333 1.20784 -6.91633 0
M  V30 6937 H 665.173 -0.746231 -2.88505 0
M  V30 6938 H 662.71 -0.379739 -1.42114 0
M  V30 6939 H 664.668 1.52379 -3.88377 0
M  V30 6940 H 663.298 1.68419 -2.75382 0
M  V30 6941 H 662.35 -0.512385 -3.76933 0
M  V30 6942 H 663.662 -0.453814 -4.96731 0
M  V30 6943 H 662.816 1.74587 -5.81037 0
M  V30 6944 H 661.555 1.76766 -4.54538 0
M  V30 6945 H 660.56 -0.335758 -5.48774 0
M  V30 6946 H 661.785 -0.340135 -6.78248 0
M  V30 6947 H 659.731 1.85001 -6.29373 0
M  V30 6948 H 659.648 0.64102 -7.53277 0
M  V30 6949 H 660.916 1.82936 -7.5773 0
M  V30 6950 N 665.145 1.52092 -0.413018 0
M  V30 6951 C 666.394 2.01041 0.16287 0
M  V30 6952 C 666.707 1.30288 1.45892 0
M  V30 6953 O 667.913 1.70075 2.11629 0
M  V30 6954 C 666.369 3.58283 0.340806 0
M  V30 6955 C 665.977 4.37955 -0.943377 0
M  V30 6956 C 667.721 4.15452 0.871774 0
M  V30 6957 C 665.628 5.86847 -0.732417 0
M  V30 6958 H 664.558 0.751224 0.0646414 0
M  V30 6959 H 667.209 1.75404 -0.539059 0
M  V30 6960 H 665.591 3.80266 1.10516 0
M  V30 6961 H 666.765 4.2773 -1.71418 0
M  V30 6962 H 665.08 3.92122 -1.40105 0
M  V30 6963 H 667.677 5.24375 1.0457 0
M  V30 6964 H 668.02 3.73057 1.84755 0
M  V30 6965 H 668.553 3.97452 0.166377 0
M  V30 6966 H 665.292 6.33609 -1.67986 0
M  V30 6967 H 664.812 5.998 -0.000980058 0
M  V30 6968 H 666.491 6.45906 -0.376105 0
M  V30 6969 N 666.623 0.143563 1.56945 0
M  V30 6970 C 667.553 -0.7936 2.196 0
M  V30 6971 C 668.534 -1.25955 1.14321 0
M  V30 6972 O 669.719 -1.31773 1.42651 0
M  V30 6973 C 666.849 -2.03424 2.81489 0
M  V30 6974 C 665.803 -1.70519 3.92565 0
M  V30 6975 C 665.129 -3.01817 4.41373 0
M  V30 6976 C 666.429 -0.95449 5.13504 0
M  V30 6977 H 668.123 -0.271423 2.98167 0
M  V30 6978 H 665.669 -0.12911 1.4342 0
M  V30 6979 H 667.622 -2.69463 3.23987 0
M  V30 6980 H 666.346 -2.58008 2.00248 0
M  V30 6981 H 665.005 -1.06859 3.5068 0
M  V30 6982 H 664.653 -3.54386 3.56959 0
M  V30 6983 H 664.353 -2.80565 5.16292 0
M  V30 6984 H 665.877 -3.68934 4.86539 0
M  V30 6985 H 667.291 -1.5169 5.52868 0
M  V30 6986 H 665.688 -0.842035 5.94163 0
M  V30 6987 H 666.758 0.0544033 4.84869 0
M  V30 6988 N 668.101 -1.57061 -0.130224 0
M  V30 6989 C 669.033 -1.96147 -1.18571 0
M  V30 6990 C 670.046 -0.859347 -1.38272 0
M  V30 6991 O 671.235 -1.13769 -1.37545 0
M  V30 6992 C 668.335 -2.23484 -2.54771 0
M  V30 6993 C 667.508 -3.54786 -2.55824 0
M  V30 6994 C 666.567 -3.70467 -3.73686 0
M  V30 6995 O 665.593 -4.42693 -3.57787 0
M  V30 6996 N 666.795 -3.08389 -4.91809 0
M  V30 6997 H 669.56 -2.87295 -0.853333 0
M  V30 6998 H 667.121 -1.58714 -0.319621 0
M  V30 6999 H 669.113 -2.312 -3.32158 0
M  V30 7000 H 667.683 -1.38518 -2.80235 0
M  V30 7001 H 666.903 -3.5836 -1.64232 0
M  V30 7002 H 668.191 -4.4111 -2.53573 0
M  V30 7003 H 667.589 -2.49656 -5.0763 0
M  V30 7004 H 666.146 -3.21642 -5.66912 0
M  V30 7005 N 669.579 0.400081 -1.52437 0
M  V30 7006 C 670.856 1.15973 -1.57511 0
M  V30 7007 C 671.236 2.0798 -0.361572 0
M  V30 7008 O 670.584 2.19032 0.650929 0
M  V30 7009 C 670.794 1.92912 -2.90837 0
M  V30 7010 C 672.142 2.48662 -3.44169 0
M  V30 7011 O 673.166 2.03081 -2.92637 0
M  V30 7012 O 672.025 3.31894 -4.34176 0
M  V30 7013 H 669.119 0.530023 -0.634827 0
M  V30 7014 H 671.665 0.40613 -1.64769 0
M  V30 7015 H 670.437 1.25564 -3.70607 0
M  V30 7016 H 670.06 2.75257 -2.86913 0
M  V30 7017 N 671.057 1.43213 0.657864 0
M  V30 7018 C 672.306 1.43871 1.41365 0
M  V30 7019 C 672.619 0.064898 1.95492 0
M  V30 7020 O 673.825 -0.0510796 2.71452 0
M  V30 7021 C 672.281 2.53158 2.55811 0
M  V30 7022 C 671.889 3.96624 2.08311 0
M  V30 7023 C 673.633 2.63004 3.3321 0
M  V30 7024 C 671.54 4.97385 3.1994 0
M  V30 7025 H 670.47 0.535174 0.531136 0
M  V30 7026 H 673.121 1.69185 0.710543 0
M  V30 7027 H 671.503 2.21037 3.2857 0
M  V30 7028 H 672.677 4.38182 1.42593 0
M  V30 7029 H 670.992 3.90781 1.43804 0
M  V30 7030 H 673.589 3.3546 4.16378 0
M  V30 7031 H 673.932 1.67918 3.80932 0
M  V30 7032 H 674.465 2.94403 2.67529 0
M  V30 7033 H 671.204 5.94007 2.77192 0
M  V30 7034 H 670.724 4.60444 3.84385 0
M  V30 7035 H 672.403 5.19877 3.85145 0
M  V30 7036 N 672.536 -0.895792 1.29666 0
M  V30 7037 C 673.499 -1.98189 1.15124 0
M  V30 7038 C 674.499 -1.60572 0.0855717 0
M  V30 7039 O 675.689 -1.70991 0.332826 0
M  V30 7040 C 672.821 -3.32289 0.761372 0
M  V30 7041 H 674.014 -2.12518 2.11603 0
M  V30 7042 H 671.567 -1.0808 1.12908 0
M  V30 7043 H 672.302 -3.23662 -0.203393 0
M  V30 7044 H 672.087 -3.60958 1.53139 0
M  V30 7045 H 673.577 -4.1198 0.682792 0
M  V30 7046 N 674.014 -1.12206 -1.10668 0
M  V30 7047 C 675.239 -0.898938 -1.86906 0
M  V30 7048 C 675.664 0.546346 -1.79991 0
M  V30 7049 O 675.022 1.38655 -1.1681 0
M  V30 7050 C 675.07 -1.37529 -3.33344 0
M  V30 7051 O 674.174 -0.55218 -4.08687 0
M  V30 7052 H 673.515 -0.323163 -0.580053 0
M  V30 7053 H 676.045 -1.49355 -1.39837 0
M  V30 7054 H 676.055 -1.3733 -3.84193 0
M  V30 7055 H 674.73 -2.42767 -3.37693 0
M  V30 7056 H 673.307 -0.620947 -3.67694 0
M  V30 7057 N 675.492 1.28418 -0.913599 0
M  V30 7058 C 676.74 1.94596 -0.545594 0
M  V30 7059 C 677.061 1.7227 0.913668 0
M  V30 7060 O 676.331 1.06233 1.64595 0
M  V30 7061 H 674.911 0.720065 -0.198783 0
M  V30 7062 H 677.573 1.56404 -1.16292 0
M  V30 7063 H 676.669 3.03202 -0.739911 0
M  V30 7064 N 676.97 0.677563 1.42291 0
M  V30 7065 C 678.195 0.207901 2.06355 0
M  V30 7066 C 678.62 -1.12723 1.50583 0
M  V30 7067 O 677.978 -1.70171 0.62543 0
M  V30 7068 C 678.026 0.156489 3.6026 0
M  V30 7069 O 677.13 -0.874162 4.03029 0
M  V30 7070 H 676.471 0.106056 0.655475 0
M  V30 7071 H 679.001 0.927354 1.82377 0
M  V30 7072 H 679.011 -0.0187258 4.07996 0
M  V30 7073 H 677.686 1.13101 4.00226 0
M  V30 7074 H 676.263 -0.669764 3.66836 0
M  V30 7075 N 678.448 -1.51871 0.421078 0
M  V30 7076 C 679.398 -2.24171 -0.416111 0
M  V30 7077 C 680.382 -1.25763 -1.00362 0
M  V30 7078 O 681.574 -1.5094 -0.924452 0
M  V30 7079 C 678.703 -3.07533 -1.52571 0
M  V30 7080 C 677.789 -4.1336 -0.948399 0
M  V30 7081 N 678.18 -5.05704 -0.0987933 0
M  V30 7082 C 676.478 -4.29055 -1.21768 0
M  V30 7083 C 677.179 -5.8127 0.223705 0
M  V30 7084 N 676.155 -5.4221 -0.388524 0
M  V30 7085 H 679.957 -2.92925 0.239166 0
M  V30 7086 H 677.471 -1.60732 0.232191 0
M  V30 7087 H 679.468 -3.57893 -2.13819 0
M  V30 7088 H 678.128 -2.4032 -2.18349 0
M  V30 7089 H 679.139 -5.17214 0.266428 0
M  V30 7090 H 675.816 -3.73071 -1.87416 0
M  V30 7091 H 677.206 -6.65653 0.914076 0
M  V30 7092 N 679.926 -0.151884 -1.56866 0
M  V30 7093 C 681.337 0.368128 -1.83035 0
M  V30 7094 C 681.688 1.64402 -1.07082 0
M  V30 7095 O 680.813 2.14056 -0.317647 0
M  V30 7096 C 681.408 0.674676 -3.32014 0
M  V30 7097 C 679.967 1.13919 -3.58747 0
M  V30 7098 C 679.114 0.164833 -2.7681 0
M  V30 7099 H 682.065 -0.376499 -1.54169 0
M  V30 7100 H 682.086 1.52883 -3.48435 0
M  V30 7101 H 681.598 -0.254113 -3.87267 0
M  V30 7102 H 679.699 2.08375 -3.08886 0
M  V30 7103 H 679.812 1.06179 -4.67186 0
M  V30 7104 H 678.176 0.658419 -2.46043 0
M  V30 7105 H 678.959 -0.757633 -3.34836 0
M  V30 7106 N 681.404 1.57128 0.121893 0
M  V30 7107 C 682.651 1.847 0.830188 0
M  V30 7108 C 682.979 0.736543 1.80015 0
M  V30 7109 O 682.234 -0.272358 1.93796 0
M  V30 7110 C 682.533 3.1874 1.61677 0
M  V30 7111 C 682.199 4.43901 0.791361 0
M  V30 7112 C 680.861 4.77887 0.563731 0
M  V30 7113 C 683.213 5.20753 0.215823 0
M  V30 7114 C 680.541 5.86168 -0.249737 0
M  V30 7115 C 682.893 6.29891 -0.584821 0
M  V30 7116 C 681.557 6.6241 -0.822794 0
M  V30 7117 H 680.827 0.675866 0.303787 0
M  V30 7118 H 683.474 1.91276 0.0926894 0
M  V30 7119 H 681.779 3.07728 2.42509 0
M  V30 7120 H 683.476 3.37295 2.16872 0
M  V30 7121 H 680.066 4.17272 0.978867 0
M  V30 7122 H 684.25 4.94851 0.378907 0
M  V30 7123 H 679.506 6.0979 -0.44336 0
M  V30 7124 H 683.68 6.88624 -1.03779 0
M  V30 7125 H 681.307 7.46147 -1.45496 0
M  V30 7126 N 682.882 -0.391992 1.52647 0
M  V30 7127 C 684.107 -1.16312 1.71716 0
M  V30 7128 C 684.532 -1.83042 0.433279 0
M  V30 7129 O 683.89 -1.70705 -0.610707 0
M  V30 7130 C 683.938 -2.18908 2.86551 0
M  V30 7131 O 683.042 -3.2543 2.53316 0
M  V30 7132 H 682.383 -0.338743 0.571095 0
M  V30 7133 H 684.913 -0.457202 1.99426 0
M  V30 7134 H 684.923 -2.62954 3.1196 0
M  V30 7135 H 683.598 -1.69726 3.79692 0
M  V30 7136 H 682.175 -2.86543 2.38637 0
M  V30 7137 N 684.36 -1.4356 -0.65026 0
M  V30 7138 C 685.292 -1.44918 -1.77571 0
M  V30 7139 C 686.305 -0.344925 -1.59104 0
M  V30 7140 O 687.494 -0.609537 -1.6777 0
M  V30 7141 C 684.594 -1.24914 -3.15039 0
M  V30 7142 C 683.767 -2.48232 -3.60138 0
M  V30 7143 C 682.826 -2.23409 -4.76419 0
M  V30 7144 O 681.852 -2.9678 -4.85706 0
M  V30 7145 N 683.054 -1.25259 -5.66825 0
M  V30 7146 H 685.819 -2.41935 -1.76883 0
M  V30 7147 H 683.38 -1.38754 -0.834202 0
M  V30 7148 H 685.372 -1.06185 -3.90521 0
M  V30 7149 H 683.942 -0.363319 -3.10481 0
M  V30 7150 H 683.162 -2.82366 -2.75069 0
M  V30 7151 H 684.45 -3.30296 -3.87017 0
M  V30 7152 H 683.848 -0.646246 -5.61997 0
M  V30 7153 H 682.405 -1.12513 -6.42016 0
M  V30 7154 N 685.838 0.888903 -1.30139 0
M  V30 7155 C 687.084 1.6428 -1.18912 0
M  V30 7156 C 687.417 1.92499 0.256477 0
M  V30 7157 O 686.692 1.54312 1.18397 0
M  V30 7158 C 686.975 2.9851 -2.01405 0
M  V30 7159 C 686.828 2.77288 -3.54163 0
M  V30 7160 C 688.147 3.99383 -1.84882 0
M  V30 7161 H 685.266 0.596148 -0.433333 0
M  V30 7162 H 687.908 1.0289 -1.5973 0
M  V30 7163 H 686.058 3.50907 -1.66722 0
M  V30 7164 H 687.73 2.31709 -3.98884 0
M  V30 7165 H 685.973 2.11867 -3.78543 0
M  V30 7166 H 686.644 3.72717 -4.07168 0
M  V30 7167 H 689.12 3.56132 -2.15196 0
M  V30 7168 H 687.996 4.91222 -2.44934 0
M  V30 7169 H 688.257 4.34674 -0.806902 0
M  V30 7170 N 687.317 1.12792 1.10072 0
M  V30 7171 C 688.247 0.821688 2.18565 0
M  V30 7172 C 689.228 -0.21612 1.68721 0
M  V30 7173 O 690.413 -0.0764932 1.94049 0
M  V30 7174 C 687.543 0.279624 3.46172 0
M  V30 7175 C 686.497 1.25092 4.09312 0
M  V30 7176 C 685.823 0.568916 5.31665 0
M  V30 7177 C 687.123 2.60699 4.52585 0
M  V30 7178 H 688.817 1.72888 2.44438 0
M  V30 7179 H 686.363 0.832702 1.17482 0
M  V30 7180 H 688.316 0.053099 4.21367 0
M  V30 7181 H 687.04 -0.662929 3.19801 0
M  V30 7182 H 685.699 1.46332 3.36129 0
M  V30 7183 H 685.347 -0.378898 5.01571 0
M  V30 7184 H 685.047 1.21687 5.74862 0
M  V30 7185 H 686.571 0.351517 6.09587 0
M  V30 7186 H 687.985 2.43465 5.19035 0
M  V30 7187 H 686.382 3.21608 5.06644 0
M  V30 7188 H 687.452 3.1886 3.65317 0
M  V30 7189 N 688.795 -1.27931 0.920396 0
M  V30 7190 C 689.742 -2.27085 0.412422 0
M  V30 7191 C 690.712 -1.57858 -0.516725 0
M  V30 7192 O 691.897 -1.85717 -0.437475 0
M  V30 7193 C 689.037 -3.43466 -0.335399 0
M  V30 7194 C 688.15 -4.27425 0.627017 0
M  V30 7195 C 687.285 -5.31016 -0.139916 0
M  V30 7196 C 686.324 -6.06641 0.815683 0
M  V30 7197 N 685.461 -7.02052 0.0818439 0
M  V30 7198 H 690.301 -2.69913 1.26298 0
M  V30 7199 H 687.838 -1.32732 0.634076 0
M  V30 7200 H 689.796 -4.09744 -0.785226 0
M  V30 7201 H 688.426 -3.01611 -1.15025 0
M  V30 7202 H 687.478 -3.6113 1.19537 0
M  V30 7203 H 688.79 -4.79969 1.35763 0
M  V30 7204 H 687.944 -6.03208 -0.649998 0
M  V30 7205 H 686.683 -4.79257 -0.903543 0
M  V30 7206 H 685.688 -5.33294 1.33708 0
M  V30 7207 H 686.913 -6.60489 1.57897 0
M  V30 7208 H 684.859 -6.52634 -0.663671 0
M  V30 7209 H 684.776 -7.52249 0.752163 0
M  V30 7210 H 686.044 -7.78432 -0.407825 0
M  V30 7211 N 690.273 -0.685099 -1.4193 0
M  V30 7212 C 691.183 -0.013404 -2.34596 0
M  V30 7213 C 692.199 0.777589 -1.55658 0
M  V30 7214 O 693.375 0.717553 -1.88184 0
M  V30 7215 C 690.44 0.919031 -3.34297 0
M  V30 7216 C 689.501 0.121417 -4.29128 0
M  V30 7217 C 688.734 1.00944 -5.24067 0
M  V30 7218 O 688.957 2.24898 -5.24192 0
M  V30 7219 O 687.891 0.464724 -6.00103 0
M  V30 7220 H 691.717 -0.776978 -2.93593 0
M  V30 7221 H 689.302 -0.445379 -1.42607 0
M  V30 7222 H 691.184 1.45402 -3.9552 0
M  V30 7223 H 689.859 1.66228 -2.77759 0
M  V30 7224 H 688.766 -0.45792 -3.71287 0
M  V30 7225 H 690.099 -0.582937 -4.88736 0
M  V30 7226 N 691.751 1.51645 -0.429126 0
M  V30 7227 C 692.714 2.26116 0.374726 0
M  V30 7228 C 693.714 1.29242 0.956714 0
M  V30 7229 O 694.904 1.53022 0.832452 0
M  V30 7230 C 692.036 3.04669 1.52937 0
M  V30 7231 H 693.229 2.9861 -0.277818 0
M  V30 7232 H 690.782 1.55236 -0.182097 0
M  V30 7233 H 691.517 2.36571 2.21821 0
M  V30 7234 H 691.302 3.75814 1.11833 0
M  V30 7235 H 692.792 3.61102 2.09751 0
M  V30 7236 N 693.229 0.160201 1.56784 0
M  V30 7237 C 694.176 -0.774416 2.1742 0
M  V30 7238 C 695.146 -1.23483 1.11091 0
M  V30 7239 O 696.331 -1.30499 1.39193 0
M  V30 7240 C 693.471 -2.00283 2.81035 0
M  V30 7241 C 692.584 -1.58701 4.01793 0
M  V30 7242 C 691.719 -2.76824 4.53367 0
M  V30 7243 C 690.758 -2.31679 5.66561 0
M  V30 7244 N 689.895 -3.42856 6.12694 0
M  V30 7245 H 694.735 -0.250542 2.96945 0
M  V30 7246 H 692.272 -0.111943 1.46673 0
M  V30 7247 H 694.23 -2.72316 3.16069 0
M  V30 7248 H 692.86 -2.5006 2.04132 0
M  V30 7249 H 691.912 -0.76384 3.72652 0
M  V30 7250 H 693.224 -1.21555 4.83762 0
M  V30 7251 H 692.378 -3.57029 4.90525 0
M  V30 7252 H 691.117 -3.17223 3.70433 0
M  V30 7253 H 690.122 -1.49917 5.28966 0
M  V30 7254 H 691.347 -1.9235 6.5129 0
M  V30 7255 H 689.293 -3.82852 5.32692 0
M  V30 7256 H 689.21 -3.09767 6.89624 0
M  V30 7257 H 690.478 -4.23379 6.545 0
M  V30 7258 N 694.707 -1.5719 -0.113559 0
M  V30 7259 C 695.654 -2.00736 -1.13901 0
M  V30 7260 C 696.624 -0.88044 -1.40846 0
M  V30 7261 O 697.809 -1.14507 -1.5262 0
M  V30 7262 C 694.949 -2.42132 -2.45899 0
M  V30 7263 C 694.062 -3.68264 -2.25844 0
M  V30 7264 C 693.197 -3.98617 -3.5111 0
M  V30 7265 C 692.236 -5.17915 -3.26236 0
M  V30 7266 N 691.373 -5.44111 -4.4372 0
M  V30 7267 H 696.213 -2.88128 -0.760677 0
M  V30 7268 H 693.75 -1.42523 -0.364099 0
M  V30 7269 H 695.708 -2.6417 -3.22908 0
M  V30 7270 H 694.338 -1.57775 -2.81615 0
M  V30 7271 H 693.39 -3.53809 -1.39726 0
M  V30 7272 H 694.702 -4.55425 -2.03444 0
M  V30 7273 H 693.856 -4.21333 -4.36536 0
M  V30 7274 H 692.595 -3.09942 -3.76546 0
M  V30 7275 H 691.6 -4.95038 -2.39202 0
M  V30 7276 H 692.825 -6.08172 -3.02165 0
M  V30 7277 H 690.771 -4.58394 -4.69266 0
M  V30 7278 H 690.688 -6.25606 -4.24444 0
M  V30 7279 H 691.956 -5.71351 -5.30263 0
M  V30 7280 N 696.185 0.383891 -1.52853 0
M  V30 7281 C 697.596 0.961591 -1.60032 0
M  V30 7282 C 697.947 1.90819 -0.456333 0
M  V30 7283 O 697.072 2.12288 0.419873 0
M  V30 7284 C 697.667 1.75078 -2.90057 0
M  V30 7285 C 696.226 2.2781 -2.99632 0
M  V30 7286 C 695.373 1.08512 -2.55187 0
M  V30 7287 H 698.324 0.163269 -1.57858 0
M  V30 7288 H 698.345 2.61046 -2.7683 0
M  V30 7289 H 697.857 1.06157 -3.73299 0
M  V30 7290 H 695.958 3.00028 -2.20939 0
M  V30 7291 H 696.071 2.56947 -4.0437 0
M  V30 7292 H 694.435 1.44667 -2.09627 0
M  V30 7293 H 695.218 0.41118 -3.40829 0
M  V30 7294 N 697.663 1.43903 0.642637 0
M  V30 7295 C 698.596 1.44339 1.76753 0
M  V30 7296 C 699.574 0.303558 1.59741 0
M  V30 7297 O 700.758 0.498775 1.81781 0
M  V30 7298 C 697.885 1.26508 3.14187 0
M  V30 7299 C 696.931 2.43905 3.49875 0
M  V30 7300 S 697.764 4.0645 3.48653 0
M  V30 7301 C 698.92 3.91021 4.88726 0
M  V30 7302 H 699.153 2.39523 1.76113 0
M  V30 7303 H 696.686 1.31061 0.81623 0
M  V30 7304 H 698.644 1.16908 3.93501 0
M  V30 7305 H 697.305 0.328548 3.12377 0
M  V30 7306 H 696.498 2.27262 4.49853 0
M  V30 7307 H 696.1 2.50186 2.77998 0
M  V30 7308 H 698.392 3.54 5.77659 0
M  V30 7309 H 699.335 4.9079 5.10423 0
M  V30 7310 H 699.743 3.23287 4.62759 0
M  V30 7311 N 699.141 -0.881989 1.30609 0
M  V30 7312 C 700.387 -1.63647 1.19781 0
M  V30 7313 C 700.72 -1.92632 -0.246265 0
M  V30 7314 O 699.995 -1.54938 -1.17577 0
M  V30 7315 C 700.278 -2.97437 2.02985 0
M  V30 7316 C 700.131 -2.75406 3.55628 0
M  V30 7317 C 701.45 -3.98397 1.86997 0
M  V30 7318 H 698.569 -0.593841 0.436488 0
M  V30 7319 H 701.211 -1.02041 1.60273 0
M  V30 7320 H 699.361 -3.50018 1.68581 0
M  V30 7321 H 701.033 -2.2959 4.00107 0
M  V30 7322 H 699.276 -2.09856 3.79662 0
M  V30 7323 H 699.947 -3.70552 4.09139 0
M  V30 7324 H 702.423 -3.54986 2.17081 0
M  V30 7325 H 701.299 -4.89916 2.47536 0
M  V30 7326 H 701.56 -4.3424 0.829943 0
M  V30 7327 N 700.619 -1.13374 -1.09472 0
M  V30 7328 C 701.865 -0.896516 -1.81908 0
M  V30 7329 C 702.198 0.575933 -1.85463 0
M  V30 7330 O 701.473 1.42618 -1.32251 0
M  V30 7331 C 701.756 -1.48445 -3.28079 0
M  V30 7332 C 701.609 -3.02598 -3.32798 0
M  V30 7333 C 702.928 -1.15226 -4.24748 0
M  V30 7334 H 700.047 -0.327127 -0.660422 0
M  V30 7335 H 702.689 -1.40195 -1.2824 0
M  V30 7336 H 700.839 -1.0546 -3.73912 0
M  V30 7337 H 702.511 -3.54335 -2.95372 0
M  V30 7338 H 700.754 -3.37613 -2.72397 0
M  V30 7339 H 701.425 -3.38835 -4.3577 0
M  V30 7340 H 703.901 -1.52369 -3.87199 0
M  V30 7341 H 702.777 -1.59012 -5.25363 0
M  V30 7342 H 703.038 -0.0658891 -4.42051 0
M  V30 7343 N 702.098 1.27442 -0.927168 0
M  V30 7344 C 703.028 2.29256 -0.443188 0
M  V30 7345 C 704.009 1.62701 0.49624 0
M  V30 7346 O 705.194 1.90013 0.401105 0
M  V30 7347 C 702.324 3.45955 0.305366 0
M  V30 7348 C 701.278 4.24501 -0.546178 0
M  V30 7349 C 700.604 5.33671 0.331512 0
M  V30 7350 C 701.904 4.89921 -1.81037 0
M  V30 7351 H 703.598 2.69988 -1.29409 0
M  V30 7352 H 701.144 1.29792 -0.623705 0
M  V30 7353 H 703.097 4.1628 0.654885 0
M  V30 7354 H 701.821 3.04138 1.19029 0
M  V30 7355 H 700.48 3.55921 -0.878398 0
M  V30 7356 H 700.128 4.88096 1.21537 0
M  V30 7357 H 699.828 5.87131 -0.234746 0
M  V30 7358 H 701.352 6.0684 0.676614 0
M  V30 7359 H 702.766 5.52536 -1.52895 0
M  V30 7360 H 701.163 5.53436 -2.32009 0
M  V30 7361 H 702.233 4.13652 -2.53021 0
M  V30 7362 N 703.576 0.692616 1.41565 0
M  V30 7363 C 704.824 0.221896 2.00878 0
M  V30 7364 C 705.145 -1.18164 1.5512 0
M  V30 7365 O 704.415 -1.79679 0.78054 0
M  V30 7366 H 702.995 0.0790463 0.742806 0
M  V30 7367 H 705.657 0.893115 1.73232 0
M  V30 7368 H 704.753 0.23702 3.11199 0
M  V30 7369 N 705.054 -1.51416 0.437162 0
M  V30 7370 C 706.279 -2.0699 -0.130424 0
M  V30 7371 C 706.704 -1.30249 -1.35709 0
M  V30 7372 O 706.062 -0.340388 -1.78076 0
M  V30 7373 C 706.11 -3.5801 -0.43142 0
M  V30 7374 O 705.214 -3.8345 -1.5179 0
M  V30 7375 H 704.555 -0.663997 -0.00194339 0
M  V30 7376 H 707.085 -1.95029 0.618445 0
M  V30 7377 H 707.095 -4.02261 -0.681926 0
M  V30 7378 H 705.77 -4.13291 0.465137 0
M  V30 7379 H 704.347 -3.51062 -1.25737 0
M  V30 7380 N 706.532 -0.168513 -1.56696 0
M  V30 7381 C 707.757 0.486688 -2.01609 0
M  V30 7382 C 708.182 1.56203 -1.04796 0
M  V30 7383 O 707.54 1.8128 -0.0270596 0
M  V30 7384 C 707.588 1.04451 -3.45141 0
M  V30 7385 O 706.692 2.15862 -3.51393 0
M  V30 7386 H 706.033 0.116831 -0.653641 0
M  V30 7387 H 708.563 -0.271579 -2.0279 0
M  V30 7388 H 708.573 1.36782 -3.84389 0
M  V30 7389 H 707.248 0.257155 -4.15104 0
M  V30 7390 H 705.825 1.84597 -3.24004 0
M  V30 7391 N 708.01 1.57248 0.105221 0
M  V30 7392 C 708.973 2.00388 1.11252 0
M  V30 7393 C 709.973 0.89594 1.33527 0
M  V30 7394 O 711.163 1.16166 1.29811 0
M  V30 7395 C 708.295 2.35589 2.46395 0
M  V30 7396 H 709.488 2.90591 0.741424 0
M  V30 7397 H 707.041 1.52332 0.349956 0
M  V30 7398 H 707.776 1.4831 2.884 0
M  V30 7399 H 707.561 3.16408 2.31578 0
M  V30 7400 H 709.051 2.69658 3.18864 0
M  V30 7401 N 709.488 -0.375779 1.53054 0
M  V30 7402 C 710.418 -1.46598 1.81745 0
M  V30 7403 C 711.399 -1.56337 0.670286 0
M  V30 7404 O 712.584 -1.71071 0.919158 0
M  V30 7405 C 709.714 -2.84058 1.99821 0
M  V30 7406 C 708.668 -2.8915 3.15557 0
M  V30 7407 C 707.994 -4.29187 3.18908 0
M  V30 7408 C 709.294 -2.57595 4.54359 0
M  V30 7409 H 710.988 -1.22837 2.73041 0
M  V30 7410 H 708.534 -0.589485 1.31381 0
M  V30 7411 H 710.487 -3.60342 2.18475 0
M  V30 7412 H 709.211 -3.09184 1.05226 0
M  V30 7413 H 707.87 -2.15316 2.96706 0
M  V30 7414 H 707.518 -4.51374 2.2197 0
M  V30 7415 H 707.218 -4.33512 3.96662 0
M  V30 7416 H 708.742 -5.07359 3.39734 0
M  V30 7417 H 710.156 -3.23595 4.73243 0
M  V30 7418 H 708.553 -2.73252 5.34279 0
M  V30 7419 H 709.623 -1.52882 4.60169 0
M  V30 7420 N 710.966 -1.44241 -0.634997 0
M  V30 7421 C 711.898 -1.46793 -1.76024 0
M  V30 7422 C 712.911 -0.361781 -1.58729 0
M  V30 7423 O 714.1 -0.627297 -1.67114 0
M  V30 7424 C 711.2 -1.28248 -3.13697 0
M  V30 7425 C 710.373 -2.52038 -3.57485 0
M  V30 7426 C 709.432 -2.2845 -4.74022 0
M  V30 7427 O 708.458 -3.01915 -4.82531 0
M  V30 7428 N 709.66 -1.31264 -5.65464 0
M  V30 7429 H 712.425 -2.43797 -1.74307 0
M  V30 7430 H 709.986 -1.39631 -0.819438 0
M  V30 7431 H 711.978 -1.10321 -3.89373 0
M  V30 7432 H 710.548 -0.39623 -3.10079 0
M  V30 7433 H 709.768 -2.85268 -2.72059 0
M  V30 7434 H 711.056 -3.34382 -3.83492 0
M  V30 7435 H 710.454 -0.705817 -5.6128 0
M  V30 7436 H 709.011 -1.19316 -6.40786 0
M  V30 7437 N 712.444 0.87505 -1.31075 0
M  V30 7438 C 713.86 1.15997 -1.09622 0
M  V30 7439 C 714.06 2.01036 0.136611 0
M  V30 7440 O 713.116 2.38559 0.827397 0
M  V30 7441 C 714.429 1.85702 -2.36506 0
M  V30 7442 C 715.977 1.98425 -2.42067 0
M  V30 7443 C 716.452 2.71544 -3.68819 0
M  V30 7444 N 717.943 2.79084 -3.69684 0
M  V30 7445 C 718.678 3.36259 -4.64454 0
M  V30 7446 N 718.174 3.94406 -5.69575 0
M  V30 7447 N 719.967 3.34169 -4.51982 0
M  V30 7448 H 712.118 0.308258 -2.10151 0
M  V30 7449 H 714.381 0.199145 -0.926847 0
M  V30 7450 H 714.087 1.30663 -3.26527 0
M  V30 7451 H 713.961 2.86017 -2.45915 0
M  V30 7452 H 716.348 2.5263 -1.52518 0
M  V30 7453 H 716.429 0.971682 -2.36626 0
M  V30 7454 H 716.073 2.18008 -4.58732 0
M  V30 7455 H 716.003 3.73198 -3.71525 0
M  V30 7456 H 718.494 2.3781 -2.93691 0
M  V30 7457 H 718.807 4.36129 -6.37974 0
M  V30 7458 H 717.152 3.92797 -5.73355 0
M  V30 7459 H 720.343 2.87977 -3.69035 0
M  V30 7460 H 720.516 3.78431 -5.26017 0
M  V30 7461 N 713.922 1.13953 1.08869 0
M  V30 7462 C 714.87 0.817664 2.17754 0
M  V30 7463 C 715.864 -0.202444 1.68186 0
M  V30 7464 O 717.07 -0.0590159 1.79903 0
M  V30 7465 H 713.445 0.246671 0.710392 0
M  V30 7466 H 715.416 1.74401 2.4213 0
M  V30 7467 C 714.165 0.3063 3.46348 0
M  V30 7468 H 713.488 1.08259 3.84864 0
M  V30 7469 H 714.928 0.119584 4.23831 0
M  V30 7470 C 713.387 -0.969158 3.22659 0
M  V30 7471 O 713.917 -2.04386 3.45817 0
M  V30 7472 N 712.123 -0.902516 2.7623 0
M  V30 7473 H 711.67 -0.027801 2.57585 0
M  V30 7474 H 711.628 -1.75649 2.60758 0
M  V30 7475 N 715.4 -1.26948 0.933913 0
M  V30 7476 C 716.677 -1.89212 0.495784 0
M  V30 7477 C 717.057 -1.84469 -1.02637 0
M  V30 7478 O 716.405 -1.29409 -1.88323 0
M  V30 7479 C 716.615 -3.32865 1.0489 0
M  V30 7480 C 717.963 -4.09749 1.11315 0
M  V30 7481 O 718.987 -3.41905 0.998966 0
M  V30 7482 O 717.846 -5.31061 1.28983 0
M  V30 7483 H 714.94 -0.811284 0.160459 0
M  V30 7484 H 717.486 -1.35171 1.02601 0
M  V30 7485 H 716.258 -3.30642 2.09265 0
M  V30 7486 H 715.881 -3.94435 0.500692 0
M  V30 7487 N 716.879 -0.700114 -1.41195 0
M  V30 7488 C 718.127 -0.232546 -2.00758 0
M  V30 7489 C 718.448 1.1734 -1.55745 0
M  V30 7490 O 717.718 1.79262 -0.790058 0
M  V30 7491 H 716.298 -0.0829845 -0.742376 0
M  V30 7492 H 718.96 -0.902289 -1.72756 0
M  V30 7493 H 718.056 -0.253521 -3.11069 0
M  V30 7494 N 718.357 1.51182 -0.445186 0
M  V30 7495 C 719.32 2.26501 0.350722 0
M  V30 7496 C 720.32 1.3025 0.942952 0
M  V30 7497 O 721.51 1.53897 0.816175 0
M  V30 7498 C 718.642 3.06274 1.49697 0
M  V30 7499 H 719.835 2.98299 -0.309474 0
M  V30 7500 H 717.388 1.55034 -0.198551 0
M  V30 7501 H 718.123 2.38911 2.19299 0
M  V30 7502 H 717.908 3.76979 1.0784 0
M  V30 7503 H 719.398 3.63306 2.05909 0
M  V30 7504 N 719.835 0.176821 1.56605 0
M  V30 7505 C 720.798 -0.737429 2.17013 0
M  V30 7506 C 721.798 -1.15414 1.11965 0
M  V30 7507 O 722.988 -1.0702 1.37449 0
M  V30 7508 C 720.12 -2.00445 2.75744 0
M  V30 7509 H 721.313 -0.211455 2.99154 0
M  V30 7510 H 718.866 -0.0727582 1.56131 0
M  V30 7511 H 719.601 -2.57338 1.97352 0
M  V30 7512 H 719.386 -1.71456 3.52626 0
M  V30 7513 H 720.876 -2.65679 3.22187 0
M  V30 7514 N 721.313 -1.57302 -0.09688 0
M  V30 7515 C 722.562 -1.85183 -0.799388 0
M  V30 7516 C 722.875 -0.765818 -1.79985 0
M  V30 7517 O 724.081 -0.931696 -2.55013 0
M  V30 7518 C 722.537 -3.28399 -1.47249 0
M  V30 7519 C 722.145 -4.45066 -0.511888 0
M  V30 7520 C 723.889 -3.65506 -2.15883 0
M  V30 7521 C 721.796 -5.79315 -1.18948 0
M  V30 7522 H 720.726 -0.690752 -0.302287 0
M  V30 7523 H 723.377 -1.83425 -0.0523104 0
M  V30 7524 H 721.759 -3.24692 -2.26697 0
M  V30 7525 H 722.933 -4.60116 0.250962 0
M  V30 7526 H 721.248 -4.16343 0.0686576 0
M  V30 7527 H 723.845 -4.63087 -2.67309 0
M  V30 7528 H 724.188 -2.94041 -2.94696 0
M  V30 7529 H 724.721 -3.71094 -1.43298 0
M  V30 7530 H 721.46 -6.54007 -0.442198 0
M  V30 7531 H 720.98 -5.68111 -1.9238 0
M  V30 7532 H 722.659 -6.23816 -1.71646 0
M  V30 7533 N 722.791 0.367657 -1.53252 0
M  V30 7534 C 723.721 1.45632 -1.8252 0
M  V30 7535 C 724.702 1.55979 -0.678568 0
M  V30 7536 O 725.887 1.70581 -0.928217 0
M  V30 7537 C 723.017 2.82994 -2.01325 0
M  V30 7538 C 721.971 2.87473 -3.17086 0
M  V30 7539 C 721.297 4.2749 -3.21179 0
M  V30 7540 C 722.597 2.55182 -4.55719 0
M  V30 7541 H 724.291 1.21387 -2.73689 0
M  V30 7542 H 721.837 0.58251 -1.31692 0
M  V30 7543 H 723.79 3.59179 -2.20383 0
M  V30 7544 H 722.514 3.08622 -1.06864 0
M  V30 7545 H 721.173 2.13739 -2.97844 0
M  V30 7546 H 720.821 4.5019 -2.24361 0
M  V30 7547 H 720.521 4.31403 -3.98955 0
M  V30 7548 H 722.045 5.0555 -3.42419 0
M  V30 7549 H 723.459 3.21081 -4.74953 0
M  V30 7550 H 721.856 2.70414 -5.3572 0
M  V30 7551 H 722.926 1.5044 -4.60973 0
M  V30 7552 N 724.269 1.44576 0.627338 0
M  V30 7553 C 725.232 1.51372 1.72102 0
M  V30 7554 C 726.232 0.395329 1.55865 0
M  V30 7555 O 727.422 0.658094 1.61291 0
M  V30 7556 C 724.554 1.39129 3.11217 0
M  V30 7557 H 725.747 2.48798 1.6745 0
M  V30 7558 H 723.3 1.31724 0.841336 0
M  V30 7559 H 724.035 0.428114 3.21462 0
M  V30 7560 H 723.82 2.20229 3.24409 0
M  V30 7561 H 725.31 1.46874 3.90919 0
M  V30 7562 N 725.747 -0.868086 1.31537 0
M  V30 7563 C 726.71 -1.95703 1.19302 0
M  V30 7564 C 727.71 -1.60355 0.119612 0
M  V30 7565 O 728.9 -1.70247 0.36902 0
M  V30 7566 C 726.032 -3.30599 0.831684 0
M  V30 7567 H 727.225 -2.07982 2.16064 0
M  V30 7568 H 724.778 -1.05661 1.15176 0
M  V30 7569 H 725.513 -3.2402 -0.134694 0
M  V30 7570 H 725.298 -3.57629 1.60761 0
M  V30 7571 H 726.788 -4.10439 0.770026 0
M  V30 7572 N 727.225 -1.14528 -1.08264 0
M  V30 7573 C 728.471 -0.91576 -1.80947 0
M  V30 7574 C 728.804 0.55623 -1.86064 0
M  V30 7575 O 728.079 1.41207 -1.33756 0
M  V30 7576 C 728.362 -1.51917 -3.26486 0
M  V30 7577 C 728.215 -3.06111 -3.2957 0
M  V30 7578 C 729.534 -1.19724 -4.23502 0
M  V30 7579 H 726.653 -0.334113 -0.656915 0
M  V30 7580 H 729.295 -1.41547 -1.26746 0
M  V30 7581 H 727.445 -1.0942 -3.72773 0
M  V30 7582 H 729.117 -3.57448 -2.91597 0
M  V30 7583 H 727.36 -3.40483 -2.688 0
M  V30 7584 H 728.031 -3.43438 -4.32151 0
M  V30 7585 H 730.507 -1.56467 -3.85561 0
M  V30 7586 H 729.383 -1.64575 -5.23647 0
M  V30 7587 H 729.644 -0.112771 -4.41956 0
M  V30 7588 N 728.703 1.26451 -0.940633 0
M  V30 7589 C 729.928 1.98407 -0.60412 0
M  V30 7590 C 730.353 1.69584 0.81382 0
M  V30 7591 O 729.711 0.943553 1.54812 0
M  V30 7592 C 729.759 3.50387 -0.852136 0
M  V30 7593 O 728.863 4.1233 0.076013 0
M  V30 7594 H 728.204 0.622466 -0.231153 0
M  V30 7595 H 730.734 1.60932 -1.26342 0
M  V30 7596 H 730.744 4.00614 -0.772816 0
M  V30 7597 H 729.419 3.70696 -1.88566 0
M  V30 7598 H 727.996 3.7286 -0.0543187 0
M  V30 7599 N 730.181 0.707592 1.40822 0
M  V30 7600 C 731.406 0.251626 2.05868 0
M  V30 7601 C 731.831 -1.09503 1.5294 0
M  V30 7602 O 731.189 -1.68806 0.661385 0
M  V30 7603 C 731.237 0.23287 3.59847 0
M  V30 7604 O 730.341 -0.788477 4.04792 0
M  V30 7605 H 729.682 0.119936 0.653078 0
M  V30 7606 H 732.212 0.96583 1.80369 0
M  V30 7607 H 732.222 0.0678204 4.07944 0
M  V30 7608 H 730.897 1.21565 3.97737 0
M  V30 7609 H 729.474 -0.591802 3.68174 0
M  V30 7610 N 731.66 -1.50943 0.453197 0
M  V30 7611 C 732.909 -2.01402 -0.10951 0
M  V30 7612 C 733.222 -1.3411 -1.42386 0
M  V30 7613 O 734.428 -1.75626 -2.07045 0
M  V30 7614 C 732.884 -3.5906 -0.245693 0
M  V30 7615 C 732.492 -4.353 1.05916 0
M  V30 7616 C 734.236 -4.17617 -0.761318 0
M  V30 7617 C 732.143 -5.84699 0.887752 0
M  V30 7618 H 731.073 -0.752674 -0.0447013 0
M  V30 7619 H 733.724 -1.73913 0.585375 0
M  V30 7620 H 732.106 -3.83062 -1.00395 0
M  V30 7621 H 733.28 -4.23034 1.82698 0
M  V30 7622 H 731.595 -3.88269 1.50452 0
M  V30 7623 H 734.192 -5.26963 -0.906306 0
M  V30 7624 H 734.535 -3.77824 -1.74799 0
M  V30 7625 H 735.068 -3.97753 -0.0609416 0
M  V30 7626 H 731.807 -6.28933 1.84726 0
M  V30 7627 H 731.327 -5.99587 0.160006 0
M  V30 7628 H 733.006 -6.44682 0.547223 0
M  V30 7629 N 733.138 -0.185124 -1.56509 0
M  V30 7630 C 734.101 0.72591 -2.17401 0
M  V30 7631 C 735.101 1.14819 -1.12575 0
M  V30 7632 O 736.291 1.0629 -1.38015 0
M  V30 7633 C 733.423 1.98979 -2.76803 0
M  V30 7634 H 734.616 0.195588 -2.99262 0
M  V30 7635 H 732.169 0.0644772 -1.56167 0
M  V30 7636 H 732.904 2.56287 -1.98714 0
M  V30 7637 H 732.689 1.69583 -3.53531 0
M  V30 7638 H 734.179 2.63966 -3.23592 0
M  V30 7639 N 734.616 1.57351 0.0885366 0
M  V30 7640 C 735.548 1.99221 1.13329 0
M  V30 7641 C 736.561 0.895705 1.35945 0
M  V30 7642 O 737.75 1.17376 1.34481 0
M  V30 7643 C 734.85 2.3016 2.48756 0
M  V30 7644 C 734.023 3.61444 2.46327 0
M  V30 7645 C 733.082 3.80244 3.63732 0
M  V30 7646 O 732.108 4.52024 3.45924 0
M  V30 7647 N 733.31 3.2132 4.8346 0
M  V30 7648 H 736.075 2.89456 0.776862 0
M  V30 7649 H 733.636 1.59505 0.277428 0
M  V30 7650 H 735.628 2.39925 3.25911 0
M  V30 7651 H 734.198 1.459 2.76464 0
M  V30 7652 H 733.418 3.62588 1.54673 0
M  V30 7653 H 734.706 4.47678 2.41789 0
M  V30 7654 H 734.104 2.63028 5.00832 0
M  V30 7655 H 732.661 3.3656 5.58185 0
M  V30 7656 N 736.094 -0.359525 1.53444 0
M  V30 7657 C 737.041 -1.44073 1.8031 0
M  V30 7658 C 738.011 -1.52946 0.647811 0
M  V30 7659 O 739.196 -1.68739 0.890614 0
M  V30 7660 C 736.336 -2.80941 2.00416 0
M  V30 7661 C 735.449 -2.80986 3.28132 0
M  V30 7662 C 734.584 -4.09468 3.38393 0
M  V30 7663 C 733.623 -4.03679 4.60119 0
M  V30 7664 N 732.76 -5.23821 4.675 0
M  V30 7665 H 737.6 -1.20464 2.72566 0
M  V30 7666 H 735.137 -0.583859 1.35017 0
M  V30 7667 H 737.095 -3.60459 2.1006 0
M  V30 7668 H 735.725 -3.02936 1.11489 0
M  V30 7669 H 734.777 -1.93666 3.27411 0
M  V30 7670 H 736.089 -2.72583 4.17732 0
M  V30 7671 H 735.243 -4.97404 3.47382 0
M  V30 7672 H 733.982 -4.20632 2.4682 0
M  V30 7673 H 732.987 -3.14129 4.51224 0
M  V30 7674 H 734.212 -3.94112 5.5304 0
M  V30 7675 H 732.158 -5.35559 3.7883 0
M  V30 7676 H 732.075 -5.17611 5.51013 0
M  V30 7677 H 733.343 -6.13572 4.8078 0
M  V30 7678 N 737.572 -1.44907 -0.619662 0
M  V30 7679 C 738.821 -1.47569 -1.37501 0
M  V30 7680 C 739.134 -0.116707 -1.95252 0
M  V30 7681 O 740.34 -0.020909 -2.71492 0
M  V30 7682 C 738.796 -2.59851 -2.49009 0
M  V30 7683 C 738.404 -4.02008 -1.97722 0
M  V30 7684 C 740.148 -2.71746 -3.2612 0
M  V30 7685 C 738.055 -5.05693 -3.0664 0
M  V30 7686 H 736.985 -0.549068 -0.51676 0
M  V30 7687 H 739.636 -1.71009 -0.665437 0
M  V30 7688 H 738.018 -2.29671 -3.22594 0
M  V30 7689 H 739.192 -4.41809 -1.30925 0
M  V30 7690 H 737.507 -3.94456 -1.33392 0
M  V30 7691 H 740.104 -3.46382 -4.07337 0
M  V30 7692 H 740.447 -1.77959 -3.76346 0
M  V30 7693 H 740.98 -3.01392 -2.5963 0
M  V30 7694 H 737.719 -6.01148 -2.61345 0
M  V30 7695 H 737.239 -4.70473 -3.72042 0
M  V30 7696 H 738.918 -5.29906 -3.71226 0
M  V30 7697 N 739.05 0.861098 -1.31996 0
M  V30 7698 C 740.466 1.14827 -1.10846 0
M  V30 7699 C 740.666 2.0117 0.11528 0
M  V30 7700 O 739.722 2.39423 0.802048 0
M  V30 7701 C 741.035 1.83183 -2.38462 0
M  V30 7702 C 742.583 1.95847 -2.44158 0
M  V30 7703 C 743.058 2.67617 -3.71679 0
M  V30 7704 N 744.549 2.75147 -3.72624 0
M  V30 7705 C 745.284 3.31314 -4.67994 0
M  V30 7706 N 744.78 3.88343 -5.73726 0
M  V30 7707 N 746.573 3.29356 -4.55501 0
M  V30 7708 H 738.724 0.285951 -2.10466 0
M  V30 7709 H 740.987 0.189303 -0.928907 0
M  V30 7710 H 740.693 1.27193 -3.27895 0
M  V30 7711 H 740.567 2.83393 -2.48935 0
M  V30 7712 H 742.954 2.50999 -1.55189 0
M  V30 7713 H 743.035 0.94653 -2.37644 0
M  V30 7714 H 742.679 2.13131 -4.61018 0
M  V30 7715 H 742.609 3.69237 -3.75462 0
M  V30 7716 H 745.1 2.34682 -2.96197 0
M  V30 7717 H 745.413 4.29338 -6.42564 0
M  V30 7718 H 743.758 3.86693 -5.77489 0
M  V30 7719 H 746.949 2.84047 -3.72069 0
M  V30 7720 H 747.122 3.7283 -5.30001 0
M  V30 7721 N 740.528 1.15101 1.07655 0
M  V30 7722 C 741.461 0.788522 2.14144 0
M  V30 7723 C 742.439 -0.233635 1.60913 0
M  V30 7724 O 743.623 -0.120908 1.88112 0
M  V30 7725 C 740.75 0.172033 3.38263 0
M  V30 7726 C 739.796 1.16559 4.10264 0
M  V30 7727 S 740.629 2.70627 4.62084 0
M  V30 7728 C 741.785 2.10389 5.8948 0
M  V30 7729 H 742.018 1.69047 2.44561 0
M  V30 7730 H 739.551 0.973033 1.19881 0
M  V30 7731 H 741.509 -0.177223 4.10117 0
M  V30 7732 H 740.17 -0.707468 3.06029 0
M  V30 7733 H 739.363 0.6824 4.99359 0
M  V30 7734 H 738.965 1.45923 3.44358 0
M  V30 7735 H 741.257 1.46405 6.61492 0
M  V30 7736 H 742.2 2.97639 6.42508 0
M  V30 7737 H 742.608 1.54816 5.42856 0
M  V30 7738 N 742.006 -1.2595 0.947325 0
M  V30 7739 C 743.234 -1.97544 0.615127 0
M  V30 7740 C 743.649 -1.70484 -0.811221 0
M  V30 7741 O 743.006 -0.97662 -1.5417 0
M  V30 7742 C 743.057 -3.51236 0.855328 0
M  V30 7743 O 742.778 -3.77359 2.22558 0
M  V30 7744 C 744.279 -4.40066 0.534515 0
M  V30 7745 H 741.499 -0.629888 0.231263 0
M  V30 7746 H 744.043 -1.60308 1.26971 0
M  V30 7747 H 742.198 -3.8661 0.247266 0
M  V30 7748 H 742.612 -4.71857 2.29022 0
M  V30 7749 H 744.086 -5.46838 0.753168 0
M  V30 7750 H 744.563 -4.35982 -0.530701 0
M  V30 7751 H 745.169 -4.10245 1.12158 0
M  V30 7752 N 743.484 -0.715051 -1.40445 0
M  V30 7753 C 744.709 -0.26254 -2.05732 0
M  V30 7754 C 745.134 1.08691 -1.53519 0
M  V30 7755 O 744.492 1.68453 -0.670328 0
M  V30 7756 C 744.54 -0.25195 -3.59719 0
M  V30 7757 O 743.644 0.766998 -4.05205 0
M  V30 7758 H 742.985 -0.123398 -0.652433 0
M  V30 7759 H 745.515 -0.975382 -1.79854 0
M  V30 7760 H 745.525 -0.0894537 -4.07902 0
M  V30 7761 H 744.2 -1.23672 -3.97087 0
M  V30 7762 H 742.777 0.572269 -3.68483 0
M  V30 7763 N 744.962 1.50701 -0.461195 0
M  V30 7764 C 746.21 2.01867 0.0970051 0
M  V30 7765 C 746.531 1.34591 1.41104 0
M  V30 7766 O 745.801 0.488041 1.89723 0
M  V30 7767 H 744.381 0.74599 0.0388392 0
M  V30 7768 H 747.043 1.85129 -0.609357 0
M  V30 7769 H 746.139 3.11051 0.255688 0
M  V30 7770 N 746.441 0.193421 1.56409 0
M  V30 7771 C 747.687 -0.446449 1.97825 0
M  V30 7772 C 748.02 -1.61386 1.08019 0
M  V30 7773 O 747.295 -1.94053 0.131839 0
M  V30 7774 C 747.578 -0.908199 3.48459 0
M  V30 7775 C 747.431 0.260914 4.49043 0
M  V30 7776 C 748.75 -1.77428 4.0275 0
M  V30 7777 H 745.869 -0.160807 0.719243 0
M  V30 7778 H 748.511 0.284006 1.87865 0
M  V30 7779 H 746.661 -1.53062 3.57077 0
M  V30 7780 H 748.333 0.898548 4.52464 0
M  V30 7781 H 746.576 0.912949 4.24085 0
M  V30 7782 H 747.247 -0.104657 5.51901 0
M  V30 7783 H 749.723 -1.24936 3.96901 0
M  V30 7784 H 748.599 -2.06633 5.08521 0
M  V30 7785 H 748.86 -2.72788 3.47907 0
M  V30 7786 N 747.919 -1.57396 -0.0801906 0
M  V30 7787 C 749.147 -1.91055 -0.794075 0
M  V30 7788 C 749.562 -0.788583 -1.71542 0
M  V30 7789 O 748.919 0.238587 -1.80934 0
M  V30 7790 C 748.97 -3.24418 -1.59484 0
M  V30 7791 O 748.691 -4.323 -0.710532 0
M  V30 7792 C 750.192 -3.72037 -2.41046 0
M  V30 7793 H 747.412 -0.63171 -0.226238 0
M  V30 7794 H 749.956 -2.04431 -0.0529685 0
M  V30 7795 H 748.111 -3.12595 -2.2883 0
M  V30 7796 H 748.525 -5.08976 -1.26663 0
M  V30 7797 H 749.999 -4.68006 -2.92702 0
M  V30 7798 H 750.476 -3.00624 -3.2019 0
M  V30 7799 H 751.082 -3.86777 -1.76871 0
M  V30 7800 N 749.397 0.351382 -1.53633 0
M  V30 7801 C 750.645 1.09034 -1.70165 0
M  V30 7802 C 750.966 1.89413 -0.463422 0
M  V30 7803 O 750.236 1.888 0.522624 0
M  V30 7804 H 748.816 0.405522 -0.627344 0
M  V30 7805 H 751.478 0.394554 -1.90865 0
M  V30 7806 H 750.574 1.77215 -2.56907 0
M  V30 7807 N 750.875 1.45233 0.611969 0
M  V30 7808 C 752.152 1.39495 1.37115 0
M  V30 7809 C 752.532 0.0633303 2.11005 0
M  V30 7810 O 751.88 -0.954617 2.07604 0
M  V30 7811 C 752.09 2.60579 2.32163 0
M  V30 7812 C 753.438 3.05477 2.94905 0
M  V30 7813 O 754.462 2.60921 2.42485 0
M  V30 7814 O 753.321 3.82787 3.90047 0
M  V30 7815 H 750.415 0.55335 0.614599 0
M  V30 7816 H 752.961 1.57355 0.635423 0
M  V30 7817 H 751.733 3.49085 1.76793 0
M  V30 7818 H 751.356 2.45031 3.13122 0
M  V30 7819 N 752.353 -0.854086 1.3245 0
M  V30 7820 C 753.599 -1.6105 1.24235 0
M  V30 7821 C 753.954 -1.91421 -0.193877 0
M  V30 7822 O 753.247 -1.54599 -1.1318 0
M  V30 7823 C 753.441 -2.93746 2.03587 0
M  V30 7824 C 753.27 -2.76335 3.54781 0
M  V30 7825 C 752.04 -2.74687 4.24117 0
M  V30 7826 C 754.238 -2.50052 4.4942 0
M  V30 7827 N 752.22 -2.48493 5.6136 0
M  V30 7828 C 753.591 -2.33269 5.74444 0
M  V30 7829 C 755.646 -2.35525 4.38671 0
M  V30 7830 C 754.349 -2.03434 6.89933 0
M  V30 7831 C 756.375 -2.07081 5.5396 0
M  V30 7832 C 755.737 -1.91098 6.77983 0
M  V30 7833 H 751.836 -0.593008 0.50977 0
M  V30 7834 H 754.42 -1.00392 1.66822 0
M  V30 7835 H 752.591 -3.52382 1.63345 0
M  V30 7836 H 754.323 -3.58768 1.87263 0
M  V30 7837 H 751.078 -2.87647 3.7624 0
M  V30 7838 H 751.502 -2.38322 6.33665 0
M  V30 7839 H 756.144 -2.46602 3.43435 0
M  V30 7840 H 753.862 -1.91095 7.85181 0
M  V30 7841 H 757.448 -1.96618 5.4757 0
M  V30 7842 H 756.328 -1.69402 7.65684 0
M  V30 7843 N 753.831 -1.1567 -1.07043 0
M  V30 7844 C 754.778 -0.856336 -2.14326 0
M  V30 7845 C 755.748 0.192051 -1.64986 0
M  V30 7846 O 756.933 0.0589148 -1.90709 0
M  V30 7847 C 754.073 -0.355227 -3.43267 0
M  V30 7848 C 753.186 -1.46555 -4.06381 0
M  V30 7849 C 752.321 -0.920245 -5.23168 0
M  V30 7850 C 751.36 -2.00729 -5.78251 0
M  V30 7851 N 750.497 -1.47813 -6.86364 0
M  V30 7852 H 755.337 -1.77514 -2.39359 0
M  V30 7853 H 752.874 -0.885676 -1.17449 0
M  V30 7854 H 754.832 -0.0463804 -4.17174 0
M  V30 7855 H 753.462 0.526649 -3.18475 0
M  V30 7856 H 752.514 -1.89052 -3.30096 0
M  V30 7857 H 753.826 -2.28616 -4.43324 0
M  V30 7858 H 752.98 -0.564127 -6.04072 0
M  V30 7859 H 751.719 -0.0688477 -4.87651 0
M  V30 7860 H 750.724 -2.3722 -4.95991 0
M  V30 7861 H 751.949 -2.86252 -6.15822 0
M  V30 7862 H 749.895 -0.649145 -6.5278 0
M  V30 7863 H 749.812 -2.23498 -7.22208 0
M  V30 7864 H 751.08 -1.15036 -7.70965 0
M  V30 7865 N 755.309 1.25446 -0.953992 0
M  V30 7866 C 756.555 1.9343 -0.60933 0
M  V30 7867 C 756.888 1.74542 0.851388 0
M  V30 7868 O 756.163 1.09014 1.61078 0
M  V30 7869 C 756.446 3.46844 -0.968041 0
M  V30 7870 C 756.299 3.74961 -2.48444 0
M  V30 7871 C 757.618 4.37334 -0.492641 0
M  V30 7872 H 754.737 0.702502 -0.222844 0
M  V30 7873 H 757.379 1.48076 -1.19053 0
M  V30 7874 H 755.529 3.85604 -0.473465 0
M  V30 7875 H 757.201 3.45841 -3.05273 0
M  V30 7876 H 755.444 3.20589 -2.92241 0
M  V30 7877 H 756.115 4.82246 -2.68594 0
M  V30 7878 H 758.591 4.05873 -0.916878 0
M  V30 7879 H 757.467 5.43439 -0.772331 0
M  V30 7880 H 757.728 4.37908 0.607403 0
M  V30 7881 N 756.787 0.722489 1.40064 0
M  V30 7882 C 757.72 0.0233443 2.28188 0
M  V30 7883 C 758.698 -0.7606 1.43714 0
M  V30 7884 O 759.882 -0.745791 1.73119 0
M  V30 7885 C 757.009 -0.974264 3.24385 0
M  V30 7886 C 756.055 -0.280307 4.25578 0
M  V30 7887 S 756.888 0.996769 5.26141 0
M  V30 7888 C 758.044 0.00143923 6.259 0
M  V30 7889 H 758.277 0.770705 2.87137 0
M  V30 7890 H 755.81 0.513783 1.45601 0
M  V30 7891 H 757.768 -1.5446 3.80332 0
M  V30 7892 H 756.429 -1.69438 2.6448 0
M  V30 7893 H 755.622 -1.03471 4.93264 0
M  V30 7894 H 755.224 0.217657 3.73366 0
M  V30 7895 H 757.516 -0.843126 6.72233 0
M  V30 7896 H 758.459 0.645104 7.05155 0
M  V30 7897 H 758.867 -0.365371 5.63316 0
M  V30 7898 N 758.265 -1.50454 0.469181 0
M  V30 7899 C 759.213 -2.30101 -0.340033 0
M  V30 7900 C 760.207 -1.37306 -0.992135 0
M  V30 7901 O 761.413 -1.54506 -0.923458 0
M  V30 7902 H 757.788 -0.740941 -0.128495 0
M  V30 7903 H 759.759 -2.96315 0.352144 0
M  V30 7904 C 758.508 -3.17804 -1.41052 0
M  V30 7905 H 757.831 -3.89115 -0.918124 0
M  V30 7906 H 759.271 -3.76533 -1.94934 0
M  V30 7907 C 757.73 -2.35272 -2.4114 0
M  V30 7908 O 758.26 -2.03448 -3.4637 0
M  V30 7909 N 756.466 -1.97889 -2.1281 0
M  V30 7910 H 756.013 -2.2397 -1.27261 0
M  V30 7911 H 755.971 -1.42971 -2.80012 0
M  V30 7912 N 759.743 -0.201713 -1.56304 0
M  V30 7913 C 760.992 0.435557 -1.96941 0
M  V30 7914 C 761.305 1.62299 -1.09172 0
M  V30 7915 O 762.511 2.32849 -1.3962 0
M  V30 7916 C 760.967 0.826298 -3.50286 0
M  V30 7917 C 760.575 -0.337216 -4.46729 0
M  V30 7918 C 762.319 1.43028 -3.99679 0
M  V30 7919 C 760.226 0.0748539 -5.91353 0
M  V30 7920 H 759.156 0.1665 -0.735387 0
M  V30 7921 H 761.807 -0.294781 -1.81117 0
M  V30 7922 H 760.189 1.61349 -3.61639 0
M  V30 7923 H 761.363 -1.11476 -4.47113 0
M  V30 7924 H 759.678 -0.853126 -4.07567 0
M  V30 7925 H 762.275 1.75115 -5.05212 0
M  V30 7926 H 762.618 2.33911 -3.44371 0
M  V30 7927 H 763.151 0.706924 -3.91468 0
M  V30 7928 H 759.89 -0.799957 -6.506 0
M  V30 7929 H 759.41 0.817122 -5.94208 0
M  V30 7930 H 761.089 0.508389 -6.45 0
M  V30 7931 N 761.222 1.57436 0.0718424 0
M  V30 7932 C 762.152 2.06724 1.08571 0
M  V30 7933 C 763.133 0.960731 1.40371 0
M  V30 7934 O 764.318 1.23345 1.49999 0
M  V30 7935 C 761.448 2.51112 2.39916 0
M  V30 7936 C 760.402 3.65639 2.22469 0
M  V30 7937 C 759.728 3.96082 3.59198 0
M  V30 7938 C 761.028 4.95687 1.64596 0
M  V30 7939 H 762.722 2.91679 0.675569 0
M  V30 7940 H 760.268 1.40319 0.32352 0
M  V30 7941 H 762.221 2.84206 3.11135 0
M  V30 7942 H 760.945 1.63186 2.8291 0
M  V30 7943 H 759.604 3.32828 1.53691 0
M  V30 7944 H 759.252 3.05287 3.99761 0
M  V30 7945 H 758.952 4.73199 3.48362 0
M  V30 7946 H 760.476 4.31672 4.31847 0
M  V30 7947 H 761.89 5.27011 2.25681 0
M  V30 7948 H 760.287 5.77126 1.64457 0
M  V30 7949 H 761.357 4.8108 0.60744 0
M  V30 7950 N 762.7 -0.34323 1.53817 0
M  V30 7951 C 763.65 -1.42217 1.78208 0
M  V30 7952 C 764.634 -1.4774 0.637304 0
M  V30 7953 O 765.826 -1.52605 0.896705 0
M  V30 7954 C 762.955 -2.79354 1.9954 0
M  V30 7955 C 762.041 -2.78222 3.20084 0
M  V30 7956 N 762.432 -2.46719 4.41547 0
M  V30 7957 C 760.73 -3.09368 3.21259 0
M  V30 7958 C 761.431 -2.53828 5.23399 0
M  V30 7959 N 760.407 -2.89464 4.60121 0
M  V30 7960 H 764.209 -1.16759 2.69712 0
M  V30 7961 H 761.723 -0.551592 1.52746 0
M  V30 7962 H 763.72 -3.57095 2.15148 0
M  V30 7963 H 762.38 -3.05759 1.09278 0
M  V30 7964 H 763.391 -2.19912 4.68891 0
M  V30 7965 H 760.068 -3.40942 2.40966 0
M  V30 7966 H 761.458 -2.32629 6.30344 0
M  V30 7967 N 764.178 -1.45556 -0.604258 0
M  V30 7968 C 765.594 -1.30035 -0.925368 0
M  V30 7969 C 765.794 -0.255833 -1.99869 0
M  V30 7970 O 764.85 0.349076 -2.50075 0
M  V30 7971 C 766.163 -2.68028 -1.36314 0
M  V30 7972 C 767.711 -2.75951 -1.47717 0
M  V30 7973 C 768.186 -4.14476 -1.94868 0
M  V30 7974 N 769.677 -4.16787 -2.02097 0
M  V30 7975 C 770.412 -5.20845 -2.39809 0
M  V30 7976 N 769.908 -6.35246 -2.76467 0
M  V30 7977 N 771.701 -5.08204 -2.40177 0
M  V30 7978 H 763.852 -2.1214 0.10512 0
M  V30 7979 H 766.115 -0.947871 -0.0156303 0
M  V30 7980 H 765.821 -3.45667 -0.648628 0
M  V30 7981 H 765.695 -2.96711 -2.329 0
M  V30 7982 H 768.082 -1.98613 -2.18258 0
M  V30 7983 H 768.163 -2.50977 -0.494371 0
M  V30 7984 H 767.807 -4.923 -1.24912 0
M  V30 7985 H 767.737 -4.36843 -2.94068 0
M  V30 7986 H 770.228 -3.34233 -1.76343 0
M  V30 7987 H 770.541 -7.10438 -3.04134 0
M  V30 7988 H 768.886 -6.38642 -2.74155 0
M  V30 7989 H 772.077 -4.17874 -2.10947 0
M  V30 7990 H 772.25 -5.89417 -2.69242 0
M  V30 7991 N 765.656 0.84705 -1.32902 0
M  V30 7992 C 766.905 1.59667 -1.23245 0
M  V30 7993 C 767.218 1.94551 0.202349 0
M  V30 7994 O 768.424 2.68218 0.420847 0
M  V30 7995 C 766.88 2.8795 -2.15901 0
M  V30 7996 C 766.488 2.60461 -3.64505 0
M  V30 7997 C 768.232 3.65968 -2.15098 0
M  V30 7998 C 766.139 3.84791 -4.49099 0
M  V30 7999 H 765.069 0.599167 -0.457728 0
M  V30 8000 H 767.72 0.934662 -1.57912 0
M  V30 8001 H 766.102 3.55648 -1.74157 0
M  V30 8002 H 767.276 2.01026 -4.14639 0
M  V30 8003 H 765.591 1.9576 -3.67515 0
M  V30 8004 H 768.188 4.58241 -2.75534 0
M  V30 8005 H 768.531 4.00275 -1.14392 0
M  V30 8006 H 769.064 3.05184 -2.55162 0
M  V30 8007 H 765.803 3.55621 -5.50649 0
M  V30 8008 H 765.323 4.43594 -4.03713 0
M  V30 8009 H 767.002 4.52454 -4.62487 0
M  V30 8010 N 767.134 1.16236 1.06428 0
M  V30 8011 C 768.097 0.870163 2.1204 0
M  V30 8012 C 769.097 -0.134239 1.60239 0
M  V30 8013 O 770.287 0.0964932 1.73933 0
M  V30 8014 C 767.419 0.301033 3.39568 0
M  V30 8015 H 768.612 1.8064 2.39394 0
M  V30 8016 H 766.165 0.971116 1.2247 0
M  V30 8017 H 766.9 -0.642948 3.17863 0
M  V30 8018 H 766.685 1.02475 3.78472 0
M  V30 8019 H 768.175 0.114494 4.17443 0
M  V30 8020 N 768.612 -1.24939 0.960631 0
M  V30 8021 C 769.837 -1.9742 0.635608 0
M  V30 8022 C 770.262 -1.70857 -0.786737 0
M  V30 8023 O 769.62 -0.968063 -1.53291 0
M  V30 8024 C 769.668 -3.48987 0.907771 0
M  V30 8025 O 768.772 -4.12399 -0.0104053 0
M  V30 8026 H 768.113 -0.61871 0.241027 0
M  V30 8027 H 770.643 -1.58901 1.28886 0
M  V30 8028 H 770.653 -3.99334 0.836453 0
M  V30 8029 H 769.328 -3.6765 1.94439 0
M  V30 8030 H 767.905 -3.72727 0.113631 0
M  V30 8031 N 770.09 -0.729906 -1.39679 0
M  V30 8032 C 771.022 -0.0470588 -2.29152 0
M  V30 8033 C 772.035 0.708808 -1.4656 0
M  V30 8034 O 773.224 0.553815 -1.69691 0
M  V30 8035 C 770.324 0.957612 -3.25089 0
M  V30 8036 C 769.497 0.264321 -4.36601 0
M  V30 8037 C 768.556 1.17638 -5.12882 0
M  V30 8038 O 767.582 0.655777 -5.6541 0
M  V30 8039 N 768.784 2.50649 -5.23598 0
M  V30 8040 H 771.549 -0.815364 -2.88395 0
M  V30 8041 H 769.11 -0.578707 -1.51204 0
M  V30 8042 H 771.102 1.57026 -3.72995 0
M  V30 8043 H 769.672 1.62716 -2.66912 0
M  V30 8044 H 768.892 -0.528732 -3.90638 0
M  V30 8045 H 770.18 -0.216344 -5.0834 0
M  V30 8046 H 769.578 2.95427 -4.82431 0
M  V30 8047 H 768.135 3.07022 -5.74961 0
M  V30 8048 N 771.568 1.50203 -0.477153 0
M  V30 8049 C 772.814 2.02658 0.0758507 0
M  V30 8050 C 773.147 1.358 1.38824 0
M  V30 8051 O 772.422 0.485696 1.88338 0
M  V30 8052 C 772.705 3.59208 0.253339 0
M  V30 8053 C 772.558 4.36629 -1.0805 0
M  V30 8054 C 773.877 4.28469 1.00509 0
M  V30 8055 H 770.996 0.736538 0.0260921 0
M  V30 8056 H 773.638 1.79464 -0.623925 0
M  V30 8057 H 771.788 3.79101 0.849378 0
M  V30 8058 H 773.46 4.28292 -1.71358 0
M  V30 8059 H 771.703 4.0013 -1.67566 0
M  V30 8060 H 772.374 5.44449 -0.909883 0
M  V30 8061 H 774.85 4.13087 0.499818 0
M  V30 8062 H 773.726 5.37804 1.09808 0
M  V30 8063 H 773.987 3.92057 2.04314 0
M  V30 8064 N 773.046 0.209999 1.56195 0
M  V30 8065 C 774.009 -0.691232 2.18528 0
M  V30 8066 C 775.009 -1.13013 1.14388 0
M  V30 8067 O 776.199 -1.04081 1.39688 0
M  V30 8068 C 773.331 -1.94551 2.79934 0
M  V30 8069 H 774.524 -0.147953 2.99535 0
M  V30 8070 H 772.077 -0.0396243 1.5625 0
M  V30 8071 H 772.812 -2.53094 2.02766 0
M  V30 8072 H 772.597 -1.63938 3.56184 0
M  V30 8073 H 774.087 -2.58785 3.2775 0
M  V30 8074 N 774.524 -1.57472 -0.0634922 0
M  V30 8075 C 775.487 -2.03268 -1.059 0
M  V30 8076 C 776.487 -0.931028 -1.31105 0
M  V30 8077 O 777.677 -1.19567 -1.26686 0
M  V30 8078 C 774.809 -2.42039 -2.40062 0
M  V30 8079 H 776.002 -2.92454 -0.664119 0
M  V30 8080 H 773.555 -1.53206 -0.309444 0
M  V30 8081 H 774.29 -1.55904 -2.84367 0
M  V30 8082 H 774.075 -3.22437 -2.23108 0
M  V30 8083 H 775.565 -2.78017 -3.11603 0
M  V30 8084 N 776.003 0.335068 -1.53997 0
M  V30 8085 C 776.933 1.41727 -1.85568 0
M  V30 8086 C 777.914 1.54505 -0.7115 0
M  V30 8087 O 779.099 1.68573 -0.964191 0
M  V30 8088 C 776.229 2.7866 -2.07282 0
M  V30 8089 C 775.183 2.80682 -3.23112 0
M  V30 8090 C 774.509 4.20581 -3.30175 0
M  V30 8091 C 775.809 2.45458 -4.61029 0
M  V30 8092 H 777.503 1.15555 -2.76202 0
M  V30 8093 H 775.049 0.554445 -1.32898 0
M  V30 8094 H 777.002 3.54423 -2.27952 0
M  V30 8095 H 775.726 3.06286 -1.13387 0
M  V30 8096 H 774.385 2.07373 -3.02311 0
M  V30 8097 H 774.033 4.4533 -2.33859 0
M  V30 8098 H 773.733 4.22843 -4.08016 0
M  V30 8099 H 775.257 4.98174 -3.53066 0
M  V30 8100 H 776.671 3.10934 -4.81656 0
M  V30 8101 H 775.068 2.5899 -5.41336 0
M  V30 8102 H 776.138 1.40628 -4.6406 0
M  V30 8103 N 777.481 1.45874 0.596531 0
M  V30 8104 C 778.758 1.40942 1.35627 0
M  V30 8105 C 779.138 0.0857066 2.10926 0
M  V30 8106 O 778.486 -0.932544 2.08605 0
M  V30 8107 C 778.696 2.63027 2.29386 0
M  V30 8108 C 780.044 3.08588 2.91649 0
M  V30 8109 O 781.068 2.63478 2.39704 0
M  V30 8110 O 779.927 3.86902 3.85965 0
M  V30 8111 H 777.021 0.559838 0.608696 0
M  V30 8112 H 779.567 1.5802 0.618698 0
M  V30 8113 H 778.339 3.5094 1.7308 0
M  V30 8114 H 777.962 2.48338 3.10506 0
M  V30 8115 N 778.959 -0.83999 1.33349 0
M  V30 8116 C 779.889 -1.965 1.26135 0
M  V30 8117 C 780.87 -1.69505 0.142152 0
M  V30 8118 O 782.055 -1.91346 0.331743 0
M  V30 8119 C 779.185 -3.32632 0.99866 0
M  V30 8120 C 778.139 -3.74021 2.08068 0
M  V30 8121 C 777.465 -5.07947 1.67014 0
M  V30 8122 C 778.765 -3.87925 3.49731 0
M  V30 8123 H 780.459 -2.02793 2.20262 0
M  V30 8124 H 778.005 -0.974297 1.06035 0
M  V30 8125 H 779.958 -4.10903 0.934696 0
M  V30 8126 H 778.682 -3.26593 0.0217759 0
M  V30 8127 H 777.341 -2.98012 2.13505 0
M  V30 8128 H 776.989 -4.98378 0.680316 0
M  V30 8129 H 776.689 -5.36611 2.39422 0
M  V30 8130 H 778.213 -5.88695 1.62082 0
M  V30 8131 H 779.627 -4.5651 3.46802 0
M  V30 8132 H 778.024 -4.28023 4.20614 0
M  V30 8133 H 779.094 -2.90407 3.88319 0
M  V30 8134 N 780.437 -1.16799 -1.0581 0
M  V30 8135 C 781.685 -0.950642 -1.78346 0
M  V30 8136 C 782.006 0.522524 -1.87869 0
M  V30 8137 O 781.276 1.3795 -1.39092 0
M  V30 8138 H 779.856 -0.348736 -0.6606 0
M  V30 8139 H 782.518 -1.47158 -1.27791 0
M  V30 8140 H 781.614 -1.37359 -2.80248 0
M  V30 8141 N 781.915 1.24427 -0.967243 0
M  V30 8142 C 783.145 1.96256 -0.64554 0
M  V30 8143 C 783.553 1.71959 0.789098 0
M  V30 8144 O 782.896 0.999913 1.54102 0
M  V30 8145 C 782.958 3.49553 -0.839798 0
M  V30 8146 C 782.622 3.97548 -2.25399 0
M  V30 8147 C 783.619 4.07257 -3.23168 0
M  V30 8148 C 781.304 4.30884 -2.58156 0
M  V30 8149 C 783.298 4.49635 -4.51782 0
M  V30 8150 C 780.985 4.72946 -3.86996 0
M  V30 8151 C 781.983 4.82286 -4.83621 0
M  V30 8152 O 781.671 5.23409 -6.10162 0
M  V30 8153 H 781.403 0.632002 -0.239895 0
M  V30 8154 H 783.957 1.59224 -1.29757 0
M  V30 8155 H 782.187 3.86479 -0.130603 0
M  V30 8156 H 783.876 4.02591 -0.517249 0
M  V30 8157 H 784.642 3.8172 -2.9919 0
M  V30 8158 H 780.521 4.22833 -1.83666 0
M  V30 8159 H 784.065 4.5684 -5.27203 0
M  V30 8160 H 779.962 4.9793 -4.10775 0
M  V30 8161 H 780.73 5.4156 -6.13722 0
M  V30 8162 N 783.393 0.737304 1.3929 0
M  V30 8163 C 784.34 0.0988364 2.30588 0
M  V30 8164 C 785.31 -0.727206 1.49335 0
M  V30 8165 O 786.495 -0.686694 1.78014 0
M  V30 8166 C 783.635 -0.800734 3.35682 0
M  V30 8167 C 782.748 0.0381731 4.31983 0
M  V30 8168 C 781.883 -0.862884 5.24145 0
M  V30 8169 C 780.922 -0.0193639 6.12097 0
M  V30 8170 N 780.059 -0.87648 6.96608 0
M  V30 8171 H 784.899 0.883031 2.84617 0
M  V30 8172 H 782.436 0.447111 1.4014 0
M  V30 8173 H 784.394 -1.33676 3.95205 0
M  V30 8174 H 783.024 -1.55088 2.83103 0
M  V30 8175 H 782.076 0.691641 3.74059 0
M  V30 8176 H 783.388 0.690294 4.94 0
M  V30 8177 H 782.542 -1.46667 5.88705 0
M  V30 8178 H 781.281 -1.54878 4.62454 0
M  V30 8179 H 780.286 0.597202 5.46547 0
M  V30 8180 H 781.511 0.663348 6.75852 0
M  V30 8181 H 779.457 -1.54762 6.37483 0
M  V30 8182 H 779.374 -0.280892 7.55478 0
M  V30 8183 H 780.642 -1.46575 7.65595 0
M  V30 8184 N 784.871 -1.49948 0.485112 0
M  V30 8185 C 786.282 -1.8667 0.0334041 0
M  V30 8186 C 786.633 -1.3988 -1.37579 0
M  V30 8187 O 785.758 -0.769788 -2.02245 0
M  V30 8188 C 786.353 -3.38757 0.0538426 0
M  V30 8189 C 784.912 -3.74839 -0.342453 0
M  V30 8190 C 784.059 -2.73894 0.433281 0
M  V30 8191 H 787.01 -1.42492 0.698699 0
M  V30 8192 H 787.031 -3.73132 -0.745146 0
M  V30 8193 H 786.543 -3.72782 1.07959 0
M  V30 8194 H 784.644 -3.46419 -1.37203 0
M  V30 8195 H 784.757 -4.79088 -0.0340503 0
M  V30 8196 H 783.121 -2.54441 -0.114849 0
M  V30 8197 H 783.904 -3.10763 1.45881 0
M  V30 8198 N 786.349 -0.21828 -1.56081 0
M  V30 8199 C 787.597 0.413488 -1.97825 0
M  V30 8200 C 787.918 1.60527 -1.10707 0
M  V30 8201 O 787.188 1.9504 -0.183378 0
M  V30 8202 H 785.768 0.155757 -0.730581 0
M  V30 8203 H 788.43 -0.310413 -1.92412 0
M  V30 8204 H 787.526 0.742024 -3.03151 0
M  V30 8205 N 787.827 1.57504 0.0551401 0
M  V30 8206 C 789.073 1.88334 0.752216 0
M  V30 8207 C 789.406 0.812742 1.76375 0
M  V30 8208 O 788.681 -0.175198 1.93709 0
M  V30 8209 C 788.964 3.29824 1.44528 0
M  V30 8210 C 788.817 4.47553 0.449026 0
M  V30 8211 C 790.136 3.69808 2.38601 0
M  V30 8212 H 787.255 0.684973 0.271995 0
M  V30 8213 H 789.897 1.89994 0.0151895 0
M  V30 8214 H 788.047 3.28539 2.07351 0
M  V30 8215 H 789.719 4.60967 -0.175277 0
M  V30 8216 H 787.962 4.33168 -0.234162 0
M  V30 8217 H 788.633 5.43376 0.971917 0
M  V30 8218 H 791.109 3.72293 1.85842 0
M  V30 8219 H 789.985 4.69665 2.84088 0
M  V30 8220 H 790.246 3.00641 3.24141 0
M  V30 8221 N 789.305 -0.326896 1.54172 0
M  V30 8222 C 790.215 -1.42525 1.86343 0
M  V30 8223 C 791.231 -1.56764 0.75505 0
M  V30 8224 O 792.407 -1.71924 1.04901 0
M  V30 8225 C 789.472 -2.77286 2.08119 0
M  V30 8226 C 788.533 -2.7225 3.31931 0
M  V30 8227 C 787.766 -4.00584 3.52659 0
M  V30 8228 O 787.989 -4.98686 2.76891 0
M  V30 8229 O 786.923 -4.04045 4.46129 0
M  V30 8230 H 790.749 -1.18249 2.79734 0
M  V30 8231 H 788.334 -0.520614 1.40036 0
M  V30 8232 H 790.216 -3.57065 2.23791 0
M  V30 8233 H 788.891 -3.01459 1.17917 0
M  V30 8234 H 787.798 -1.91033 3.21647 0
M  V30 8235 H 789.131 -2.53032 4.2218 0
M  V30 8236 N 790.784 -1.46188 -0.588786 0
M  V30 8237 C 791.747 -1.55882 -1.68029 0
M  V30 8238 C 792.747 -0.436515 -1.54762 0
M  V30 8239 O 793.937 -0.700626 -1.59489 0
M  V30 8240 C 791.069 -1.47332 -3.07418 0
M  V30 8241 H 792.262 -2.5315 -1.60795 0
M  V30 8242 H 789.815 -1.33908 -0.806116 0
M  V30 8243 H 790.55 -0.513193 -3.20214 0
M  V30 8244 H 790.335 -2.28753 -3.18456 0
M  V30 8245 H 791.825 -1.57187 -3.86887 0
M  V30 8246 N 792.262 0.832906 -1.33792 0
M  V30 8247 C 793.511 1.58351 -1.24932 0
M  V30 8248 C 793.824 1.94754 0.181703 0
M  V30 8249 O 795.03 2.6865 0.392375 0
M  V30 8250 C 793.486 2.85643 -2.18943 0
M  V30 8251 C 793.094 2.56581 -3.67247 0
M  V30 8252 C 794.838 3.63667 -2.18968 0
M  V30 8253 C 792.745 3.80006 -4.53155 0
M  V30 8254 H 791.675 0.594278 -0.464058 0
M  V30 8255 H 794.326 0.91786 -1.58895 0
M  V30 8256 H 792.708 3.53781 -1.77919 0
M  V30 8257 H 793.882 1.96617 -4.16747 0
M  V30 8258 H 792.197 1.91851 -3.6957 0
M  V30 8259 H 794.794 4.55293 -2.80379 0
M  V30 8260 H 795.137 3.99039 -1.18631 0
M  V30 8261 H 795.67 3.0246 -2.58384 0
M  V30 8262 H 792.409 3.4976 -5.5439 0
M  V30 8263 H 791.929 4.39288 -4.08395 0
M  V30 8264 H 793.608 4.47523 -4.6726 0
M  V30 8265 N 793.74 1.17359 1.05189 0
M  V30 8266 C 795.156 0.920861 1.30355 0
M  V30 8267 C 795.356 -0.419993 1.97074 0
M  V30 8268 O 794.412 -1.15696 2.24434 0
M  V30 8269 C 795.725 2.07818 2.1733 0
M  V30 8270 C 797.273 2.1152 2.30712 0
M  V30 8271 C 797.748 3.26637 3.21048 0
M  V30 8272 N 799.239 3.26426 3.28634 0
M  V30 8273 C 799.974 4.12141 3.98657 0
M  V30 8274 N 799.47 5.07966 4.71107 0
M  V30 8275 N 801.263 4.00091 3.94821 0
M  V30 8276 H 793.414 2.03666 0.602821 0
M  V30 8277 H 795.677 0.889294 0.328421 0
M  V30 8278 H 795.383 3.04727 1.75597 0
M  V30 8279 H 795.257 2.02922 3.17966 0
M  V30 8280 H 797.644 1.15196 2.71687 0
M  V30 8281 H 797.725 2.20477 1.29706 0
M  V30 8282 H 797.369 4.23227 2.80788 0
M  V30 8283 H 797.299 3.14917 4.2206 0
M  V30 8284 H 799.79 2.57045 2.77013 0
M  V30 8285 H 800.103 5.69766 5.22099 0
M  V30 8286 H 798.448 5.11936 4.7005 0
M  V30 8287 H 801.639 3.24523 3.37346 0
M  V30 8288 H 801.812 4.6711 4.49123 0
M  V30 8289 N 795.218 -1.23913 0.973828 0
M  V30 8290 C 796.165 -2.25132 0.508366 0
M  V30 8291 C 797.135 -1.59908 -0.449307 0
M  V30 8292 O 798.32 -1.87405 -0.358313 0
M  V30 8293 C 795.46 -3.4458 -0.189422 0
M  V30 8294 C 794.573 -4.24381 0.807738 0
M  V30 8295 C 793.708 -5.31131 0.0854315 0
M  V30 8296 C 792.747 -6.02635 1.07225 0
M  V30 8297 N 791.884 -7.01073 0.379535 0
M  V30 8298 H 796.724 -2.64313 1.37632 0
M  V30 8299 H 794.261 -1.29924 0.689802 0
M  V30 8300 H 796.219 -4.12706 -0.610733 0
M  V30 8301 H 794.849 -3.06218 -1.02129 0
M  V30 8302 H 793.901 -3.55735 1.34747 0
M  V30 8303 H 795.213 -4.73778 1.55998 0
M  V30 8304 H 794.367 -6.05422 -0.393572 0
M  V30 8305 H 793.106 -4.82658 -0.699461 0
M  V30 8306 H 792.111 -5.27143 1.56207 0
M  V30 8307 H 793.336 -6.53197 1.85769 0
M  V30 8308 H 791.282 -6.54862 -0.386269 0
M  V30 8309 H 791.199 -7.48382 1.07054 0
M  V30 8310 H 792.467 -7.79462 -0.0772984 0
M  V30 8311 N 796.696 -0.74468 -1.38897 0
M  V30 8312 C 797.644 -0.100312 -2.32384 0
M  V30 8313 C 798.638 0.715191 -1.53562 0
M  V30 8314 O 799.844 0.615288 -1.69157 0
M  V30 8315 H 796.219 -0.0136403 -0.751876 0
M  V30 8316 H 798.19 -0.905007 -2.84345 0
M  V30 8317 C 796.939 0.785432 -3.38713 0
M  V30 8318 H 796.262 0.167308 -3.9945 0
M  V30 8319 H 797.702 1.20374 -4.06554 0
M  V30 8320 C 796.161 1.92408 -2.76552 0
M  V30 8321 O 796.691 3.01752 -2.65157 0
M  V30 8322 N 794.897 1.71642 -2.34494 0
M  V30 8323 H 794.444 0.827079 -2.43961 0
M  V30 8324 H 794.402 2.48 -1.93244 0
M  V30 8325 N 798.174 1.49689 -0.493057 0
M  V30 8326 C 799.585 1.8665 -0.0433032 0
M  V30 8327 C 799.936 1.40607 1.36836 0
M  V30 8328 O 799.061 0.780503 2.01834 0
M  V30 8329 C 799.656 3.38724 -0.0718069 0
M  V30 8330 C 798.215 3.75015 0.32257 0
M  V30 8331 C 797.362 2.7366 -0.4478 0
M  V30 8332 H 800.313 1.42119 -0.706246 0
M  V30 8333 H 800.334 3.73522 0.725347 0
M  V30 8334 H 799.846 3.72204 -1.09935 0
M  V30 8335 H 797.947 3.47142 1.35364 0
M  V30 8336 H 798.06 4.79099 0.00864259 0
M  V30 8337 H 796.424 2.54498 0.101354 0
M  V30 8338 H 797.207 3.09985 -1.47527 0
M  V30 8339 N 799.652 0.226554 1.55963 0
M  V30 8340 C 801.063 -0.280381 1.84583 0
M  V30 8341 C 801.414 -1.59105 1.14804 0
M  V30 8342 O 800.539 -2.12297 0.419414 0
M  V30 8343 C 801.134 -0.515499 3.34855 0
M  V30 8344 C 799.693 -0.966733 3.63774 0
M  V30 8345 C 798.84 -0.0325753 2.77281 0
M  V30 8346 H 801.791 0.449626 1.52197 0
M  V30 8347 H 801.812 -1.36085 3.55332 0
M  V30 8348 H 801.324 0.438594 3.85614 0
M  V30 8349 H 799.425 -1.93401 3.18476 0
M  V30 8350 H 799.538 -0.837679 4.7172 0
M  V30 8351 H 797.902 -0.540279 2.48904 0
M  V30 8352 H 798.685 0.916524 3.30839 0
M  V30 8353 N 801.13 -1.57531 -0.0467866 0
M  V30 8354 C 802.077 -2.05387 -1.05285 0
M  V30 8355 C 803.047 -0.939385 -1.36985 0
M  V30 8356 O 804.232 -1.20877 -1.47626 0
M  V30 8357 C 801.372 -2.52343 -2.35408 0
M  V30 8358 C 800.485 -3.77512 -2.10022 0
M  V30 8359 C 799.62 -4.1315 -3.33887 0
M  V30 8360 C 798.659 -5.31286 -3.03976 0
M  V30 8361 N 797.796 -5.62441 -4.20243 0
M  V30 8362 H 802.636 -2.91095 -0.637788 0
M  V30 8363 H 800.173 -1.43939 -0.303322 0
M  V30 8364 H 802.131 -2.77628 -3.11413 0
M  V30 8365 H 800.761 -1.69577 -2.7467 0
M  V30 8366 H 799.813 -3.59417 -1.24594 0
M  V30 8367 H 801.125 -4.63644 -1.83945 0
M  V30 8368 H 800.279 -4.39469 -4.18273 0
M  V30 8369 H 799.018 -3.25634 -3.63062 0
M  V30 8370 H 798.023 -5.04738 -2.17991 0
M  V30 8371 H 799.248 -6.20441 -2.76098 0
M  V30 8372 H 797.194 -4.77885 -4.49402 0
M  V30 8373 H 797.111 -6.43046 -3.97528 0
M  V30 8374 H 798.379 -5.93327 -5.05553 0
M  V30 8375 N 802.608 0.318715 -1.54344 0
M  V30 8376 C 803.854 1.05765 -1.73037 0
M  V30 8377 C 804.187 1.87514 -0.505181 0
M  V30 8378 O 803.462 1.88021 0.497838 0
M  V30 8379 C 803.745 1.97836 -3.00887 0
M  V30 8380 C 803.598 1.19384 -4.33668 0
M  V30 8381 C 804.917 2.97285 -3.24514 0
M  V30 8382 H 802.036 0.383104 -0.629603 0
M  V30 8383 H 804.678 0.333864 -1.87044 0
M  V30 8384 H 802.828 2.59552 -2.89076 0
M  V30 8385 H 804.5 0.600906 -4.57369 0
M  V30 8386 H 802.743 0.496198 -4.30953 0
M  V30 8387 H 803.414 1.87014 -5.19355 0
M  V30 8388 H 805.89 2.45693 -3.35819 0
M  V30 8389 H 804.766 3.58887 -4.15321 0
M  V30 8390 H 805.027 3.70003 -2.41971 0
M  V30 8391 N 804.086 1.46499 0.581025 0
M  V30 8392 C 805.016 1.60052 1.70017 0
M  V30 8393 C 805.997 0.450788 1.64018 0
M  V30 8394 O 807.182 0.677237 1.82009 0
M  V30 8395 C 804.312 1.5921 3.08658 0
M  V30 8396 C 803.266 2.73169 3.29488 0
M  V30 8397 C 802.592 2.57389 4.68674 0
M  V30 8398 C 803.892 4.14978 3.1716 0
M  V30 8399 H 805.586 2.53735 1.5893 0
M  V30 8400 H 803.132 1.22113 0.763173 0
M  V30 8401 H 805.085 1.67285 3.86773 0
M  V30 8402 H 803.809 0.620718 3.20647 0
M  V30 8403 H 802.468 2.64566 2.53773 0
M  V30 8404 H 802.116 1.58331 4.77431 0
M  V30 8405 H 801.816 3.33826 4.83564 0
M  V30 8406 H 803.34 2.67358 5.48956 0
M  V30 8407 H 804.754 4.24684 3.85119 0
M  V30 8408 H 803.151 4.92016 3.4357 0
M  V30 8409 H 804.221 4.35016 2.14218 0
M  V30 8410 N 805.565 -0.825799 1.34232 0
M  V30 8411 C 806.812 -1.58185 1.26427 0
M  V30 8412 C 807.14 -1.93786 -0.166533 0
M  V30 8413 O 806.395 -1.59986 -1.12707 0
M  V30 8414 C 806.694 -2.89362 2.09772 0
M  V30 8415 C 806.36 -2.73066 3.58812 0
M  V30 8416 C 805.022 -2.68329 3.99441 0
M  V30 8417 C 807.374 -2.56946 4.53462 0
M  V30 8418 C 804.702 -2.4539 5.32917 0
M  V30 8419 C 807.054 -2.35538 5.87115 0
M  V30 8420 C 805.718 -2.29212 6.26912 0
M  V30 8421 H 804.988 -0.57884 0.462629 0
M  V30 8422 H 807.635 -0.955714 1.65947 0
M  V30 8423 H 805.94 -3.56251 1.63071 0
M  V30 8424 H 807.637 -3.4694 2.01081 0
M  V30 8425 H 804.227 -2.77591 3.26559 0
M  V30 8426 H 808.411 -2.59631 4.22972 0
M  V30 8427 H 803.667 -2.38947 5.62774 0
M  V30 8428 H 807.841 -2.22051 6.6005 0
M  V30 8429 H 805.468 -2.11197 7.30274 0
M  V30 8430 N 807.043 -1.17915 -1.04565 0
M  V30 8431 C 807.973 -0.925033 -2.14395 0
M  V30 8432 C 808.954 0.135375 -1.6956 0
M  V30 8433 O 810.139 -0.0161774 -1.94193 0
M  V30 8434 C 807.269 -0.444469 -3.44444 0
M  V30 8435 C 806.223 -1.44478 -4.02877 0
M  V30 8436 C 805.549 -0.821933 -5.28345 0
M  V30 8437 C 806.849 -2.81995 -4.39632 0
M  V30 8438 H 808.543 -1.84354 -2.35911 0
M  V30 8439 H 806.089 -0.887806 -1.13375 0
M  V30 8440 H 808.042 -0.254078 -4.20633 0
M  V30 8441 H 806.766 0.509592 -3.226 0
M  V30 8442 H 805.425 -1.62203 -3.28764 0
M  V30 8443 H 805.073 0.139161 -5.02807 0
M  V30 8444 H 804.773 -1.48976 -5.68401 0
M  V30 8445 H 806.297 -0.641959 -6.07216 0
M  V30 8446 H 807.711 -2.67952 -5.06828 0
M  V30 8447 H 806.108 -3.45414 -4.90723 0
M  V30 8448 H 807.178 -3.35927 -3.49687 0
M  V30 8449 N 808.521 1.23394 -0.980386 0
M  V30 8450 C 809.451 2.2717 -0.540024 0
M  V30 8451 C 810.432 1.64659 0.426787 0
M  V30 8452 O 811.617 1.91543 0.320153 0
M  V30 8453 C 808.747 3.46939 0.15836 0
M  V30 8454 C 807.701 4.21802 -0.725732 0
M  V30 8455 C 807.027 5.34597 0.104866 0
M  V30 8456 C 808.327 4.81802 -2.01654 0
M  V30 8457 H 810.021 2.64257 -1.40743 0
M  V30 8458 H 807.567 1.2703 -0.678193 0
M  V30 8459 H 809.52 4.18683 0.477737 0
M  V30 8460 H 808.244 3.08912 1.06022 0
M  V30 8461 H 806.903 3.51875 -1.02857 0
M  V30 8462 H 806.551 4.92812 1.00726 0
M  V30 8463 H 806.251 5.85607 -0.483557 0
M  V30 8464 H 807.775 6.09163 0.418624 0
M  V30 8465 H 809.189 5.45554 -1.76193 0
M  V30 8466 H 807.586 5.43098 -2.55273 0
M  V30 8467 H 808.656 4.02549 -2.70338 0
M  V30 8468 N 809.999 0.752036 1.385 0
M  V30 8469 C 811.247 0.306895 1.99756 0
M  V30 8470 C 811.568 -1.11478 1.59992 0
M  V30 8471 O 810.838 -1.76206 0.856045 0
M  V30 8472 H 809.418 0.11048 0.738785 0
M  V30 8473 H 812.08 0.965785 1.69289 0
M  V30 8474 H 811.176 0.368797 3.09913 0
M  V30 8475 N 811.477 -1.49425 0.500989 0
M  V30 8476 C 812.44 -2.27646 -0.266416 0
M  V30 8477 C 813.44 -1.3366 -0.893961 0
M  V30 8478 O 814.63 -1.5682 -0.758495 0
M  V30 8479 C 811.762 -3.11618 -1.38227 0
M  V30 8480 H 812.955 -2.96945 0.419973 0
M  V30 8481 H 810.508 -1.5419 0.255954 0
M  V30 8482 H 811.243 -2.46885 -2.10281 0
M  V30 8483 H 811.028 -3.80721 -0.937746 0
M  V30 8484 H 812.518 -3.70698 -1.92283 0
M  V30 8485 N 812.955 -0.234822 -1.55841 0
M  V30 8486 C 814.232 0.442961 -1.90518 0
M  V30 8487 C 814.612 1.76768 -1.15397 0
M  V30 8488 O 813.96 2.26928 -0.267534 0
M  V30 8489 C 814.17 0.622905 -3.43396 0
M  V30 8490 C 815.518 0.9243 -4.14417 0
M  V30 8491 O 816.542 0.709211 -3.49068 0
M  V30 8492 O 815.401 1.33323 -5.29988 0
M  V30 8493 H 812.495 0.236042 -0.792599 0
M  V30 8494 H 815.041 -0.277992 -1.67408 0
M  V30 8495 H 813.813 -0.310973 -3.90062 0
M  V30 8496 H 813.436 1.39485 -3.7233 0
M  V30 8497 N 814.433 1.57553 0.0384317 0
M  V30 8498 C 815.681 1.88468 0.729672 0
M  V30 8499 C 816.002 0.831302 1.76393 0
M  V30 8500 O 815.272 -0.13622 1.95426 0
M  V30 8501 H 813.852 0.695529 0.272485 0
M  V30 8502 H 816.514 1.94899 0.0066032 0
M  V30 8503 H 815.61 2.8705 1.22511 0
M  V30 8504 N 815.911 -0.310526 1.54511 0
M  V30 8505 C 817.159 -1.04484 1.72996 0
M  V30 8506 C 817.48 -1.88118 0.513479 0
M  V30 8507 O 816.75 -1.90119 -0.472384 0
M  V30 8508 H 815.33 -0.388747 0.637875 0
M  V30 8509 H 817.992 -0.343811 1.91844 0
M  V30 8510 H 817.088 -1.70341 2.61515 0
M  V30 8511 N 817.389 -1.46805 -0.573248 0
M  V30 8512 C 818.629 -1.5417 -1.34205 0
M  V30 8513 C 818.993 -0.192675 -1.91031 0
M  V30 8514 O 820.194 -0.141111 -2.68429 0
M  V30 8515 C 818.465 -2.61682 -2.43428 0
M  V30 8516 S 820.024 -2.88519 -3.30609 0
M  V30 8517 H 816.842 -0.544592 -0.4571 0
M  V30 8518 H 819.444 -1.84094 -0.658001 0
M  V30 8519 H 818.148 -3.58319 -2.00088 0
M  V30 8520 H 817.679 -2.33521 -3.16594 0
M  V30 8521 H 819.694 -2.2451 -4.42504 0
M  V30 8522 N 818.867 0.818669 -1.34668 0
M  V30 8523 C 820.116 1.57017 -1.26604 0
M  V30 8524 C 820.429 1.94936 0.161036 0
M  V30 8525 O 821.635 2.69051 0.36386 0
M  V30 8526 C 820.091 2.83305 -2.2196 0
M  V30 8527 C 819.699 2.52671 -3.69948 0
M  V30 8528 C 821.443 3.61324 -2.22813 0
M  V30 8529 C 819.35 3.75178 -4.5716 0
M  V30 8530 H 818.28 0.589323 -0.470335 0
M  V30 8531 H 820.931 0.900956 -1.59859 0
M  V30 8532 H 819.313 3.51874 -1.81661 0
M  V30 8533 H 820.487 1.92186 -4.18809 0
M  V30 8534 H 818.802 1.8792 -3.71584 0
M  V30 8535 H 821.399 4.52294 -2.85192 0
M  V30 8536 H 821.742 3.97759 -1.22857 0
M  V30 8537 H 822.275 2.99703 -2.61578 0
M  V30 8538 H 819.014 3.43861 -5.58068 0
M  V30 8539 H 818.534 4.34931 -4.13031 0
M  V30 8540 H 820.213 4.42542 -4.71981 0
M  V30 8541 N 820.346 1.18468 1.03938 0
M  V30 8542 C 821.574 1.00576 1.80809 0
M  V30 8543 C 821.989 -0.445786 1.83462 0
M  V30 8544 O 821.346 -1.30964 1.27101 0
M  V30 8545 C 821.397 1.55491 3.26351 0
M  V30 8546 O 821.118 2.94963 3.23926 0
M  V30 8547 C 822.619 1.42236 4.19862 0
M  V30 8548 H 819.839 0.35508 0.56935 0
M  V30 8549 H 822.383 1.57046 1.30984 0
M  V30 8550 H 820.538 1.03195 3.73403 0
M  V30 8551 H 820.952 3.20598 4.15111 0
M  V30 8552 H 822.426 1.85455 5.19914 0
M  V30 8553 H 822.903 0.371267 4.37628 0
M  V30 8554 H 823.509 1.9361 3.78675 0
M  V30 8555 N 821.824 -1.22873 0.986916 0
M  V30 8556 C 823.24 -1.43594 0.696633 0
M  V30 8557 C 823.44 -1.87622 -0.734869 0
M  V30 8558 O 822.496 -2.02633 -1.50652 0
M  V30 8559 C 823.809 -2.48231 1.69711 0
M  V30 8560 C 825.357 -2.62037 1.71188 0
M  V30 8561 C 825.832 -3.6989 2.70084 0
M  V30 8562 N 827.323 -3.77341 2.68641 0
M  V30 8563 C 828.058 -4.6037 3.41829 0
M  V30 8564 N 827.554 -5.47438 4.24598 0
M  V30 8565 N 829.347 -4.54626 3.30563 0
M  V30 8566 H 821.498 -0.925982 1.91153 0
M  V30 8567 H 823.761 -0.46866 0.824052 0
M  V30 8568 H 823.467 -2.22812 2.72117 0
M  V30 8569 H 823.341 -3.46731 1.48516 0
M  V30 8570 H 825.728 -2.86803 0.694837 0
M  V30 8571 H 825.809 -1.63831 1.96451 0
M  V30 8572 H 825.453 -3.45872 3.71934 0
M  V30 8573 H 825.383 -4.67652 2.42093 0
M  V30 8574 H 827.874 -3.15124 2.08578 0
M  V30 8575 H 828.187 -6.078 4.77283 0
M  V30 8576 H 826.532 -5.4704 4.28687 0
M  V30 8577 H 829.723 -3.85627 2.65347 0
M  V30 8578 H 829.896 -5.19103 3.8786 0
M  V30 8579 N 823.302 -0.75937 -1.38099 0
M  V30 8580 C 824.234 -0.0956547 -2.29 0
M  V30 8581 C 825.247 0.677561 -1.4803 0
M  V30 8582 O 826.436 0.517696 -1.70828 0
M  V30 8583 C 823.536 0.88844 -3.27047 0
M  V30 8584 C 822.709 0.171652 -4.37063 0
M  V30 8585 C 821.768 1.06733 -5.15262 0
M  V30 8586 O 820.794 0.535698 -5.66674 0
M  V30 8587 N 821.996 2.39486 -5.28797 0
M  V30 8588 H 824.761 -0.876354 -2.86601 0
M  V30 8589 H 822.322 -0.61065 -1.49942 0
M  V30 8590 H 824.314 1.49079 -3.76241 0
M  V30 8591 H 822.884 1.57018 -2.70304 0
M  V30 8592 H 822.104 -0.611473 -3.89429 0
M  V30 8593 H 823.392 -0.324121 -5.07767 0
M  V30 8594 H 822.79 2.85127 -4.88589 0
M  V30 8595 H 821.347 2.94758 -5.81344 0
M  V30 8596 N 824.78 1.49157 -0.508906 0
M  V30 8597 C 826.057 1.95363 0.0961913 0
M  V30 8598 C 826.437 1.45064 1.53362 0
M  V30 8599 O 825.785 0.667835 2.18523 0
M  V30 8600 C 825.995 3.49 0.000688881 0
M  V30 8601 C 827.343 4.24257 0.170632 0
M  V30 8602 O 828.367 3.5612 0.0754994 0
M  V30 8603 O 827.226 5.45267 0.366957 0
M  V30 8604 H 824.32 0.821984 0.0909489 0
M  V30 8605 H 826.866 1.59769 -0.572007 0
M  V30 8606 H 825.638 3.78269 -1.00143 0
M  V30 8607 H 825.261 3.91233 0.708682 0
M  V30 8608 N 826.258 0.243083 1.55714 0
M  V30 8609 C 827.188 -0.652336 2.24203 0
M  V30 8610 C 828.169 -1.1843 1.221 0
M  V30 8611 O 829.354 -1.22435 1.50743 0
M  V30 8612 C 826.484 -1.85111 2.93856 0
M  V30 8613 C 825.438 -1.45208 4.02615 0
M  V30 8614 C 824.764 -2.73137 4.59674 0
M  V30 8615 C 826.064 -0.625988 5.18535 0
M  V30 8616 H 827.758 -0.0812504 2.9929 0
M  V30 8617 H 825.304 -0.0376388 1.43951 0
M  V30 8618 H 827.257 -2.48314 3.40468 0
M  V30 8619 H 825.981 -2.44751 2.16251 0
M  V30 8620 H 824.64 -0.843406 3.56766 0
M  V30 8621 H 824.288 -3.30967 3.78774 0
M  V30 8622 H 823.988 -2.47163 5.33089 0
M  V30 8623 H 825.512 -3.37245 5.09017 0
M  V30 8624 H 826.926 -1.16223 5.61396 0
M  V30 8625 H 825.323 -0.462465 5.98315 0
M  V30 8626 H 826.393 0.362652 4.83542 0
M  V30 8627 N 827.736 -1.57571 -0.0300757 0
M  V30 8628 C 829.147 -1.77567 -0.576802 0
M  V30 8629 C 829.498 -0.874034 -1.75656 0
M  V30 8630 O 828.623 -0.0686124 -2.16291 0
M  V30 8631 C 829.218 -3.22016 -1.05315 0
M  V30 8632 C 827.777 -3.43212 -1.5454 0
M  V30 8633 C 826.924 -2.73061 -0.483033 0
M  V30 8634 H 829.875 -1.57483 0.196151 0
M  V30 8635 H 829.896 -3.28474 -1.92055 0
M  V30 8636 H 829.408 -3.87613 -0.194298 0
M  V30 8637 H 827.509 -2.82788 -2.42615 0
M  V30 8638 H 827.622 -4.5182 -1.5936 0
M  V30 8639 H 825.986 -2.36805 -0.937835 0
M  V30 8640 H 826.769 -3.4134 0.366341 0
M  V30 8641 N 829.214 0.302327 -1.54673 0
M  V30 8642 C 830.161 1.37282 -1.85532 0
M  V30 8643 C 831.131 1.50437 -0.704129 0
M  V30 8644 O 832.316 1.65317 -0.952627 0
M  V30 8645 C 829.456 2.73309 -2.10704 0
M  V30 8646 C 828.569 2.68614 -3.38335 0
M  V30 8647 C 827.704 3.96626 -3.53357 0
M  V30 8648 C 826.743 3.86324 -4.74784 0
M  V30 8649 N 825.88 5.06109 -4.86619 0
M  V30 8650 H 830.72 1.10265 -2.76849 0
M  V30 8651 H 828.257 0.533346 -1.37091 0
M  V30 8652 H 830.215 3.52414 -2.23294 0
M  V30 8653 H 828.845 2.98589 -1.22656 0
M  V30 8654 H 827.897 1.81381 -3.34373 0
M  V30 8655 H 829.209 2.56891 -4.27561 0
M  V30 8656 H 828.363 4.84168 -3.65604 0
M  V30 8657 H 827.102 4.11182 -2.62261 0
M  V30 8658 H 826.107 2.97166 -4.62572 0
M  V30 8659 H 827.332 3.73315 -5.67286 0
M  V30 8660 H 825.278 5.2113 -3.98446 0
M  V30 8661 H 825.195 4.96804 -5.69844 0
M  V30 8662 H 826.463 5.95306 -5.03221 0
M  V30 8663 N 830.692 1.47107 0.565454 0
M  V30 8664 C 831.969 1.43787 1.32607 0
M  V30 8665 C 832.349 0.130428 2.10697 0
M  V30 8666 O 831.697 -0.888086 2.10536 0
M  V30 8667 C 831.907 2.67833 2.23755 0
M  V30 8668 C 833.255 3.14704 2.85037 0
M  V30 8669 O 834.279 2.68503 2.34061 0
M  V30 8670 O 833.138 3.95002 3.77671 0
M  V30 8671 H 830.232 0.572623 0.596684 0
M  V30 8672 H 832.778 1.59296 0.58504 0
M  V30 8673 H 831.55 3.54532 1.65597 0
M  V30 8674 H 831.173 2.54869 3.05168 0
M  V30 8675 N 832.17 -0.811516 1.35101 0
M  V30 8676 C 833.41 -1.58177 1.29458 0
M  V30 8677 C 833.774 -1.91555 -0.130688 0
M  V30 8678 O 834.975 -2.6699 -0.311428 0
M  V30 8679 C 833.246 -2.83896 2.17112 0
M  V30 8680 S 834.805 -3.74344 2.28936 0
M  V30 8681 H 831.623 -0.542021 0.460146 0
M  V30 8682 H 834.225 -0.957653 1.70438 0
M  V30 8683 H 832.929 -2.57391 3.19653 0
M  V30 8684 H 832.46 -3.51297 1.7707 0
M  V30 8685 H 834.475 -4.73909 1.47054 0
M  V30 8686 N 833.648 -1.19017 -1.03309 0
M  V30 8687 C 834.895 -0.990214 -1.76638 0
M  V30 8688 C 835.223 0.479435 -1.88498 0
M  V30 8689 O 834.478 1.37223 -1.39529 0
M  V30 8690 C 834.777 -1.59927 -3.19622 0
M  V30 8691 C 834.443 -3.09632 -3.27779 0
M  V30 8692 C 833.105 -3.50491 -3.29712 0
M  V30 8693 C 835.457 -4.05644 -3.27264 0
M  V30 8694 C 832.785 -4.85921 -3.28782 0
M  V30 8695 C 835.137 -5.41 -3.27875 0
M  V30 8696 C 833.801 -5.81295 -3.28104 0
M  V30 8697 H 833.071 -0.362345 -0.646364 0
M  V30 8698 H 835.718 -1.48197 -1.21284 0
M  V30 8699 H 834.023 -1.0297 -3.78027 0
M  V30 8700 H 835.72 -1.41989 -3.7502 0
M  V30 8701 H 832.31 -2.77073 -3.26999 0
M  V30 8702 H 836.494 -3.75124 -3.24955 0
M  V30 8703 H 831.75 -5.16427 -3.27281 0
M  V30 8704 H 835.924 -6.15157 -3.26428 0
M  V30 8705 H 833.551 -6.86211 -3.27138 0
M  V30 8706 N 835.127 1.22348 -0.993418 0
M  V30 8707 C 836.376 1.90422 -0.665019 0
M  V30 8708 C 836.689 1.78199 0.806512 0
M  V30 8709 O 837.895 2.41193 1.24652 0
M  V30 8710 C 836.351 3.41403 -1.13893 0
M  V30 8711 C 835.959 3.62262 -2.63572 0
M  V30 8712 C 837.703 4.15175 -0.884884 0
M  V30 8713 C 835.61 5.06947 -3.04564 0
M  V30 8714 H 834.54 0.713073 -0.245037 0
M  V30 8715 H 837.191 1.3856 -1.20305 0
M  V30 8716 H 835.573 3.9245 -0.529027 0
M  V30 8717 H 836.747 3.21705 -3.29913 0
M  V30 8718 H 835.062 3.01824 -2.86865 0
M  V30 8719 H 837.659 5.21813 -1.16684 0
M  V30 8720 H 838.002 4.15915 0.178982 0
M  V30 8721 H 838.535 3.70157 -1.45701 0
M  V30 8722 H 835.274 5.11346 -4.10128 0
M  V30 8723 H 834.794 5.48404 -2.42927 0
M  V30 8724 H 836.473 5.75374 -2.95894 0
M  V30 8725 N 836.605 0.766683 1.37694 0
M  V30 8726 C 837.854 0.325425 1.99057 0
M  V30 8727 C 838.167 -1.10275 1.61551 0
M  V30 8728 O 839.373 -1.64513 2.1598 0
M  V30 8729 C 837.829 0.530886 3.55963 0
M  V30 8730 C 837.437 1.96899 4.02411 0
M  V30 8731 C 839.181 0.152997 4.24224 0
M  V30 8732 C 837.088 2.12232 5.52007 0
M  V30 8733 H 836.018 0.117929 0.744721 0
M  V30 8734 H 838.669 0.945091 1.5729 0
M  V30 8735 H 837.051 -0.158162 3.95684 0
M  V30 8736 H 838.225 2.69258 3.73948 0
M  V30 8737 H 836.54 2.303 3.46916 0
M  V30 8738 H 839.137 0.24614 5.34133 0
M  V30 8739 H 839.48 -0.896096 4.06541 0
M  V30 8740 H 840.013 0.794398 3.89787 0
M  V30 8741 H 836.752 3.15442 5.7461 0
M  V30 8742 H 836.272 1.4435 5.82171 0
M  V30 8743 H 837.951 1.9185 6.17902 0
M  V30 8744 N 838.083 -1.48885 0.516809 0
M  V30 8745 C 839.313 -2.06592 -0.018375 0
M  V30 8746 C 839.721 -1.37543 -1.29917 0
M  V30 8747 O 839.064 -0.452527 -1.78039 0
M  V30 8748 C 839.126 -3.58016 -0.326315 0
M  V30 8749 C 838.79 -4.48853 0.859072 0
M  V30 8750 C 839.787 -4.89422 1.75391 0
M  V30 8751 C 837.472 -4.90937 1.06235 0
M  V30 8752 C 839.466 -5.70831 2.83604 0
M  V30 8753 C 837.153 -5.72119 2.14763 0
M  V30 8754 C 838.151 -6.11972 3.03281 0
M  V30 8755 O 837.839 -6.91527 4.09934 0
M  V30 8756 H 837.571 -0.675559 0.0244023 0
M  V30 8757 H 840.125 -1.92442 0.718005 0
M  V30 8758 H 838.355 -3.70231 -1.1165 0
M  V30 8759 H 840.044 -3.97898 -0.801999 0
M  V30 8760 H 840.81 -4.57542 1.60875 0
M  V30 8761 H 836.689 -4.59409 0.382677 0
M  V30 8762 H 840.233 -6.01857 3.52724 0
M  V30 8763 H 836.13 -6.03412 2.29268 0
M  V30 8764 H 836.898 -7.0986 4.07482 0
M  V30 8765 N 839.561 -0.251338 -1.55583 0
M  V30 8766 C 840.493 0.679167 -2.18906 0
M  V30 8767 C 841.506 1.13545 -1.16667 0
M  V30 8768 O 842.695 1.06146 -1.4351 0
M  V30 8769 C 839.795 1.93544 -2.78198 0
M  V30 8770 C 838.968 1.62987 -4.05899 0
M  V30 8771 C 838.027 2.73618 -4.49466 0
M  V30 8772 O 837.053 2.40815 -5.15749 0
M  V30 8773 N 838.255 4.03204 -4.1762 0
M  V30 8774 H 841.02 0.137328 -2.99385 0
M  V30 8775 H 838.581 -0.0714754 -1.61742 0
M  V30 8776 H 840.573 2.66804 -3.04299 0
M  V30 8777 H 839.143 2.38695 -2.0185 0
M  V30 8778 H 838.363 0.732237 -3.8734 0
M  V30 8779 H 839.651 1.40041 -4.89148 0
M  V30 8780 H 839.049 4.32686 -3.64416 0
M  V30 8781 H 837.606 4.72916 -4.48547 0
M  V30 8782 N 841.039 1.57585 0.0217189 0
M  V30 8783 C 842.287 1.89231 0.709641 0
M  V30 8784 C 842.608 0.849964 1.75501 0
M  V30 8785 O 841.878 -0.115485 1.95559 0
M  V30 8786 H 840.458 0.69838 0.265092 0
M  V30 8787 H 843.12 1.94895 -0.0140688 0
M  V30 8788 H 842.216 2.88333 1.19459 0
M  V30 8789 N 842.517 -0.29412 1.54831 0
M  V30 8790 C 843.467 -1.36476 1.82643 0
M  V30 8791 C 844.451 -1.45638 0.683984 0
M  V30 8792 O 845.643 -1.49675 0.944801 0
M  V30 8793 C 842.772 -2.72865 2.08326 0
M  V30 8794 C 841.858 -2.67898 3.28773 0
M  V30 8795 N 842.249 -2.32547 4.49172 0
M  V30 8796 C 840.547 -2.98991 3.30939 0
M  V30 8797 C 841.248 -2.37048 5.31209 0
M  V30 8798 N 840.224 -2.74679 4.69097 0
M  V30 8799 H 844.026 -1.08119 2.7329 0
M  V30 8800 H 841.54 -0.502718 1.54423 0
M  V30 8801 H 843.537 -3.5007 2.264 0
M  V30 8802 H 842.197 -3.02127 1.1895 0
M  V30 8803 H 843.208 -2.04883 4.7565 0
M  V30 8804 H 839.885 -3.33104 2.51691 0
M  V30 8805 H 841.275 -2.12457 6.37426 0
M  V30 8806 N 843.995 -1.47404 -0.557645 0
M  V30 8807 C 844.945 -1.56267 -1.66026 0
M  V30 8808 C 845.929 -0.42161 -1.55278 0
M  V30 8809 O 847.121 -0.671505 -1.63768 0
M  V30 8810 C 844.25 -1.57958 -3.04802 0
M  V30 8811 C 843.336 -2.77447 -3.20755 0
M  V30 8812 N 843.727 -4.02148 -3.06775 0
M  V30 8813 C 842.025 -2.74199 -3.51754 0
M  V30 8814 C 842.726 -4.82168 -3.25406 0
M  V30 8815 N 841.702 -4.14481 -3.5172 0
M  V30 8816 H 845.504 -2.50454 -1.53785 0
M  V30 8817 H 843.018 -1.43392 -0.762388 0
M  V30 8818 H 845.015 -1.62397 -3.8397 0
M  V30 8819 H 843.675 -0.648667 -3.18155 0
M  V30 8820 H 844.686 -4.33014 -2.84111 0
M  V30 8821 H 841.363 -1.90243 -3.71637 0
M  V30 8822 H 842.753 -5.91037 -3.19569 0
M  V30 8823 N 845.473 0.80434 -1.35529 0
M  V30 8824 C 846.721 1.55845 -1.28673 0
M  V30 8825 C 847.042 1.94511 0.137976 0
M  V30 8826 O 846.312 1.63775 1.07492 0
M  V30 8827 H 844.892 0.577931 -0.473291 0
M  V30 8828 H 847.554 0.959293 -1.69657 0
M  V30 8829 H 846.65 2.47285 -1.90411 0
M  V30 8830 N 846.951 1.19563 1.02676 0
M  V30 8831 C 848.228 0.908857 1.73203 0
M  V30 8832 C 848.608 -0.584928 2.02834 0
M  V30 8833 O 847.956 -1.54372 1.68469 0
M  V30 8834 C 848.166 1.77105 3.00724 0
M  V30 8835 C 849.514 2.00667 3.7419 0
M  V30 8836 O 850.538 1.74274 3.10656 0
M  V30 8837 O 849.397 2.4518 4.88415 0
M  V30 8838 H 846.491 0.338909 0.754367 0
M  V30 8839 H 849.037 1.30387 1.08616 0
M  V30 8840 H 847.809 2.78303 2.7507 0
M  V30 8841 H 847.432 1.37546 3.73051 0
M  V30 8842 N 848.429 -1.21819 0.999893 0
M  V30 8843 C 849.675 -1.91035 0.680701 0
M  V30 8844 C 850.008 -1.77582 -0.786021 0
M  V30 8845 O 849.283 -1.14917 -1.56921 0
M  V30 8846 C 849.566 -3.43013 1.0961 0
M  V30 8847 C 849.419 -3.65481 2.6219 0
M  V30 8848 C 850.738 -4.35204 0.654616 0
M  V30 8849 H 847.857 -0.693748 0.248763 0
M  V30 8850 H 850.499 -1.43555 1.24466 0
M  V30 8851 H 848.649 -3.83581 0.616253 0
M  V30 8852 H 850.321 -3.34273 3.17899 0
M  V30 8853 H 848.564 -3.09522 3.03938 0
M  V30 8854 H 849.235 -4.71945 2.86307 0
M  V30 8855 H 851.711 -4.0219 1.06688 0
M  V30 8856 H 850.587 -5.40198 0.973492 0
M  V30 8857 H 850.848 -4.3986 -0.444458 0
M  V30 8858 N 849.908 -0.773975 -1.37286 0
M  V30 8859 C 851.156 -0.338636 -1.99243 0
M  V30 8860 C 851.477 1.08919 -1.61746 0
M  V30 8861 O 850.747 1.74822 -0.88397 0
M  V30 8862 H 849.327 -0.12222 -0.736934 0
M  V30 8863 H 851.989 -0.992595 -1.67731 0
M  V30 8864 H 851.085 -0.418055 -3.09287 0
M  V30 8865 N 851.386 1.48609 -0.524698 0
M  V30 8866 C 852.349 2.28041 0.230166 0
M  V30 8867 C 853.349 1.35065 0.872584 0
M  V30 8868 O 854.539 1.58007 0.73345 0
M  V30 8869 C 851.671 3.13778 1.33252 0
M  V30 8870 H 852.864 2.96239 -0.467161 0
M  V30 8871 H 850.417 1.53763 -0.280452 0
M  V30 8872 H 851.152 2.502 2.06327 0
M  V30 8873 H 850.937 3.82165 0.877058 0
M  V30 8874 H 852.427 3.7371 1.86362 0
M  V30 8875 N 852.864 0.259585 1.55447 0
M  V30 8876 C 854.275 -0.241165 1.85136 0
M  V30 8877 C 854.626 -1.56634 1.18153 0
M  V30 8878 O 853.751 -2.11359 0.464351 0
M  V30 8879 C 854.346 -0.444355 3.35873 0
M  V30 8880 C 852.905 -0.889354 3.65742 0
M  V30 8881 C 852.052 0.0262474 2.77288 0
M  V30 8882 H 855.003 0.481808 1.51209 0
M  V30 8883 H 855.024 -1.28517 3.58139 0
M  V30 8884 H 854.536 0.520289 3.84597 0
M  V30 8885 H 852.637 -1.86602 3.22507 0
M  V30 8886 H 852.75 -0.737432 4.73391 0
M  V30 8887 H 851.114 -0.487361 2.49994 0
M  V30 8888 H 851.897 0.986494 3.28821 0
M  V30 8889 N 854.342 -1.57594 -0.0133615 0
M  V30 8890 C 855.591 -1.8916 -0.700103 0
M  V30 8891 C 855.904 -0.860147 -1.75673 0
M  V30 8892 O 857.11 -1.06556 -2.49716 0
M  V30 8893 C 855.566 -3.35742 -1.29635 0
M  V30 8894 C 855.174 -4.47154 -0.275249 0
M  V30 8895 C 856.918 -3.76436 -1.96205 0
M  V30 8896 C 854.825 -5.84805 -0.880726 0
M  V30 8897 H 853.755 -0.705805 -0.265247 0
M  V30 8898 H 856.406 -1.83445 0.044993 0
M  V30 8899 H 854.788 -3.36252 -2.09167 0
M  V30 8900 H 855.962 -4.58139 0.494506 0
M  V30 8901 H 854.277 -4.15394 0.289256 0
M  V30 8902 H 856.874 -4.76606 -2.42386 0
M  V30 8903 H 857.217 -3.09249 -2.78695 0
M  V30 8904 H 857.75 -3.78168 -1.23426 0
M  V30 8905 H 854.489 -6.55431 -0.0949013 0
M  V30 8906 H 854.009 -5.7751 -1.61995 0
M  V30 8907 H 855.688 -6.32038 -1.38338 0
M  V30 8908 N 855.82 0.285905 -1.54985 0
M  V30 8909 C 856.783 1.33625 -1.86218 0
M  V30 8910 C 857.783 1.42971 -0.735936 0
M  V30 8911 O 858.973 1.42345 -1.00417 0
M  V30 8912 C 856.105 2.71926 -2.05595 0
M  V30 8913 H 857.298 1.07167 -2.80099 0
M  V30 8914 H 854.851 0.523335 -1.47278 0
M  V30 8915 H 855.586 3.03583 -1.14053 0
M  V30 8916 H 855.371 2.6653 -2.87583 0
M  V30 8917 H 856.861 3.47841 -2.31077 0
M  V30 8918 N 857.298 1.47698 0.54982 0
M  V30 8919 C 858.575 1.45185 1.31075 0
M  V30 8920 C 858.955 0.152768 2.10547 0
M  V30 8921 O 858.303 -0.865706 2.11466 0
M  V30 8922 C 858.513 2.70192 2.20902 0
M  V30 8923 C 859.861 3.1771 2.81683 0
M  V30 8924 O 860.885 2.70971 2.312 0
M  V30 8925 O 859.744 3.98986 3.7346 0
M  V30 8926 H 856.838 0.57892 0.590577 0
M  V30 8927 H 859.384 1.59908 0.568112 0
M  V30 8928 H 858.156 3.56269 1.61828 0
M  V30 8929 H 857.779 2.58091 3.02448 0
M  V30 8930 N 858.776 -0.797141 1.35954 0
M  V30 8931 C 860.022 -1.55698 1.29946 0
M  V30 8932 C 860.355 -1.93808 -0.123259 0
M  V30 8933 O 859.63 -1.62102 -1.07486 0
M  V30 8934 C 859.913 -2.83926 2.2149 0
M  V30 8935 C 859.766 -2.52232 3.72423 0
M  V30 8936 C 861.085 -3.85698 2.11955 0
M  V30 8937 H 858.204 -0.56488 0.47337 0
M  V30 8938 H 860.846 -0.916421 1.66438 0
M  V30 8939 H 858.996 -3.38588 1.905 0
M  V30 8940 H 860.668 -2.0368 4.13899 0
M  V30 8941 H 858.911 -1.85286 3.92239 0
M  V30 8942 H 859.582 -3.43782 4.31877 0
M  V30 8943 H 862.058 -3.40462 2.39218 0
M  V30 8944 H 860.934 -4.73182 2.78191 0
M  V30 8945 H 861.195 -4.28083 1.10442 0
M  V30 8946 N 860.254 -1.20106 -1.0204 0
M  V30 8947 C 861.503 -1.00316 -1.74985 0
M  V30 8948 C 861.816 0.465814 -1.89972 0
M  V30 8949 O 863.022 0.782749 -2.59972 0
M  V30 8950 C 861.478 -1.74608 -3.14706 0
M  V30 8951 C 861.086 -3.25573 -3.07744 0
M  V30 8952 C 862.83 -1.63172 -3.91887 0
M  V30 8953 C 860.737 -3.92419 -4.42449 0
M  V30 8954 H 859.667 -0.371728 -0.655999 0
M  V30 8955 H 862.318 -1.43688 -1.14131 0
M  V30 8956 H 860.7 -1.24021 -3.76078 0
M  V30 8957 H 861.874 -3.83345 -2.55702 0
M  V30 8958 H 860.189 -3.3738 -2.44057 0
M  V30 8959 H 862.786 -2.10457 -4.9154 0
M  V30 8960 H 863.129 -0.58728 -4.12137 0
M  V30 8961 H 863.662 -2.11152 -3.37135 0
M  V30 8962 H 860.401 -4.96998 -4.27403 0
M  V30 8963 H 859.921 -3.39436 -4.94513 0
M  V30 8964 H 861.6 -3.96453 -5.11306 0
M  V30 8965 N 861.732 1.21287 -1.00634 0
M  V30 8966 C 862.662 2.25973 -0.588089 0
M  V30 8967 C 863.643 1.65527 0.391764 0
M  V30 8968 O 864.828 1.92179 0.279452 0
M  V30 8969 C 861.958 3.47197 0.0847336 0
M  V30 8970 C 860.912 4.20168 -0.815039 0
M  V30 8971 C 860.238 5.34699 -0.00855393 0
M  V30 8972 C 861.538 4.77416 -2.11828 0
M  V30 8973 H 863.232 2.61212 -1.46317 0
M  V30 8974 H 860.778 1.25563 -0.704985 0
M  V30 8975 H 862.731 4.19602 0.388821 0
M  V30 8976 H 861.455 3.11092 0.994456 0
M  V30 8977 H 860.114 3.49614 -1.10297 0
M  V30 8978 H 859.762 4.94837 0.902499 0
M  V30 8979 H 859.462 5.84449 -0.607664 0
M  V30 8980 H 860.986 6.09914 0.289317 0
M  V30 8981 H 862.4 5.41694 -1.87725 0
M  V30 8982 H 860.797 5.37561 -2.66736 0
M  V30 8983 H 861.867 3.96724 -2.78816 0
M  V30 8984 N 863.21 0.781244 1.36873 0
M  V30 8985 C 864.621 0.414093 1.8205 0
M  V30 8986 C 864.972 -1.06098 1.65039 0
M  V30 8987 O 864.097 -1.82251 1.16677 0
M  V30 8988 C 864.692 0.744837 3.30511 0
M  V30 8989 C 863.251 0.430621 3.73929 0
M  V30 8990 C 862.398 0.983746 2.59264 0
M  V30 8991 H 865.349 0.975091 1.2521 0
M  V30 8992 H 865.37 0.032936 3.80486 0
M  V30 8993 H 864.882 1.81847 3.42861 0
M  V30 8994 H 862.983 -0.635308 3.67144 0
M  V30 8995 H 863.096 0.945514 4.69677 0
M  V30 8996 H 861.46 0.407433 2.5142 0
M  V30 8997 H 862.243 2.06297 2.74402 0
M  V30 8998 N 864.689 -1.48329 0.532571 0
M  V30 8999 C 865.937 -2.021 -0.000581206 0
M  V30 9000 C 866.258 -1.4117 -1.34522 0
M  V30 9001 O 865.528 -0.578005 -1.87179 0
M  V30 9002 H 864.108 -0.746993 -0.00320281 0
M  V30 9003 H 866.77 -1.82011 0.696991 0
M  V30 9004 H 865.866 -3.11917 -0.106991 0
M  V30 9005 N 866.167 -0.267825 -1.55308 0
M  V30 9006 C 867.13 0.60965 -2.20943 0
M  V30 9007 C 868.13 1.0869 -1.18504 0
M  V30 9008 O 869.32 0.988248 -1.43455 0
M  V30 9009 C 866.452 1.84027 -2.86961 0
M  V30 9010 H 867.645 0.0366806 -2.99878 0
M  V30 9011 H 865.198 -0.0183941 -1.56289 0
M  V30 9012 H 865.933 2.45394 -2.1202 0
M  V30 9013 H 865.718 1.50605 -3.62023 0
M  V30 9014 H 867.208 2.46442 -3.37129 0
M  V30 9015 N 867.645 1.57599 0.00500368 0
M  V30 9016 C 868.608 2.07058 0.982832 0
M  V30 9017 C 869.608 0.979045 1.27559 0
M  V30 9018 O 870.798 1.24187 1.22161 0
M  V30 9019 C 867.93 2.50782 2.30914 0
M  V30 9020 H 869.123 2.94718 0.555119 0
M  V30 9021 H 866.676 1.54249 0.25237 0
M  V30 9022 H 867.411 1.66351 2.78385 0
M  V30 9023 H 867.196 3.30495 2.10987 0
M  V30 9024 H 868.686 2.89391 3.0107 0
M  V30 9025 N 869.123 -0.277682 1.55134 0
M  V30 9026 C 870.353 -1.02677 1.79279 0
M  V30 9027 C 870.761 -1.80599 0.563962 0
M  V30 9028 O 870.104 -1.77416 -0.476378 0
M  V30 9029 C 870.166 -2.03617 2.96277 0
M  V30 9030 C 869.83 -1.44676 4.33495 0
M  V30 9031 C 870.827 -0.864811 5.12657 0
M  V30 9032 C 868.512 -1.47537 4.80144 0
M  V30 9033 C 870.506 -0.319322 6.366 0
M  V30 9034 C 868.193 -0.926016 6.04043 0
M  V30 9035 C 869.191 -0.348988 6.82108 0
M  V30 9036 O 868.879 0.191964 8.03671 0
M  V30 9037 H 868.611 -0.309232 0.601125 0
M  V30 9038 H 871.165 -0.315308 2.02965 0
M  V30 9039 H 869.395 -2.78509 2.68272 0
M  V30 9040 H 871.084 -2.64616 3.07788 0
M  V30 9041 H 871.85 -0.835438 4.7775 0
M  V30 9042 H 867.729 -1.91389 4.19394 0
M  V30 9043 H 871.273 0.131709 6.97476 0
M  V30 9044 H 867.17 -0.952613 6.38432 0
M  V30 9045 H 867.938 0.0808779 8.1846 0
M  V30 9046 N 870.601 -1.47988 -0.541979 0
M  V30 9047 C 871.829 -1.59034 -1.32347 0
M  V30 9048 C 872.244 -0.246123 -1.87189 0
M  V30 9049 O 871.601 0.762889 -1.6579 0
M  V30 9050 C 871.652 -2.62759 -2.48274 0
M  V30 9051 O 871.373 -3.91963 -1.95695 0
M  V30 9052 C 872.874 -2.84133 -3.4027 0
M  V30 9053 H 870.094 -0.536574 -0.402901 0
M  V30 9054 H 872.638 -1.93725 -0.655045 0
M  V30 9055 H 870.793 -2.3096 -3.11025 0
M  V30 9056 H 871.207 -4.48769 -2.7149 0
M  V30 9057 H 872.681 -3.60538 -4.17991 0
M  V30 9058 H 873.158 -1.92512 -3.9476 0
M  V30 9059 H 873.764 -3.17188 -2.83322 0
M  V30 9060 N 872.079 0.78992 -1.36375 0
M  V30 9061 C 872.989 1.93386 -1.32812 0
M  V30 9062 C 874.005 1.72468 -0.230377 0
M  V30 9063 O 875.181 1.96014 -0.462657 0
M  V30 9064 C 872.246 3.2824 -1.11621 0
M  V30 9065 C 871.307 3.61939 -2.30865 0
M  V30 9066 C 870.54 4.90359 -2.10675 0
M  V30 9067 O 870.763 5.6005 -1.08168 0
M  V30 9068 O 869.697 5.22702 -2.9844 0
M  V30 9069 H 873.523 1.99342 -2.29121 0
M  V30 9070 H 871.108 0.9301 -1.16917 0
M  V30 9071 H 872.99 4.08939 -1.01719 0
M  V30 9072 H 871.665 3.23178 -0.183732 0
M  V30 9073 H 870.572 2.81549 -2.46335 0
M  V30 9074 H 871.905 3.71725 -3.22617 0
M  V30 9075 N 873.557 1.20646 1.01402 0
M  V30 9076 C 874.504 0.957618 2.09996 0
M  V30 9077 C 875.474 -0.113115 1.65714 0
M  V30 9078 O 876.659 0.032142 1.90773 0
M  V30 9079 C 873.799 0.5186 3.41181 0
M  V30 9080 C 872.912 1.65777 3.98926 0
M  V30 9081 C 872.047 1.16881 5.18182 0
M  V30 9082 C 871.086 2.2809 5.68015 0
M  V30 9083 N 870.223 1.80392 6.7853 0
M  V30 9084 H 875.063 1.88732 2.30617 0
M  V30 9085 H 872.6 0.940703 1.13089 0
M  V30 9086 H 874.558 0.245367 4.16478 0
M  V30 9087 H 873.188 -0.3741 3.20625 0
M  V30 9088 H 872.24 2.04586 3.207 0
M  V30 9089 H 873.552 2.49507 4.31912 0
M  V30 9090 H 872.706 0.851694 6.00692 0
M  V30 9091 H 871.445 0.301434 4.86768 0
M  V30 9092 H 870.45 2.60614 4.84108 0
M  V30 9093 H 871.675 3.15308 6.01463 0
M  V30 9094 H 869.621 0.959856 6.4894 0
M  V30 9095 H 869.538 2.57701 7.10722 0
M  V30 9096 H 870.806 1.51688 7.64598 0
M  V30 9097 N 875.035 -1.20752 1.01276 0
M  V30 9098 C 876.26 -1.94547 0.718769 0
M  V30 9099 C 876.685 -1.7404 -0.713563 0
M  V30 9100 O 876.043 -1.03221 -1.49047 0
M  V30 9101 C 876.091 -3.44823 1.05497 0
M  V30 9102 O 875.195 -4.12072 0.164516 0
M  V30 9103 H 874.536 -0.607931 0.267051 0
M  V30 9104 H 877.066 -1.53292 1.35509 0
M  V30 9105 H 877.076 -3.95427 1.00507 0
M  V30 9106 H 875.751 -3.59072 2.09858 0
M  V30 9107 H 874.328 -3.71909 0.271615 0
M  V30 9108 N 876.513 -0.788492 -1.36457 0
M  V30 9109 C 877.476 -0.192209 -2.28393 0
M  V30 9110 C 878.476 0.609916 -1.48784 0
M  V30 9111 O 879.666 0.431046 -1.68783 0
M  V30 9112 C 876.798 0.734096 -3.32902 0
M  V30 9113 H 877.991 -1.00284 -2.82636 0
M  V30 9114 H 875.544 -0.557852 -1.46006 0
M  V30 9115 H 876.279 1.5691 -2.83813 0
M  V30 9116 H 876.064 0.160875 -3.9177 0
M  V30 9117 H 877.554 1.1462 -4.01562 0
M  V30 9118 N 877.991 1.48044 -0.54043 0
M  V30 9119 C 879.219 2.06895 -0.0145153 0
M  V30 9120 C 879.634 1.39552 1.27164 0
M  V30 9121 O 878.991 0.486454 1.75897 0
M  V30 9122 C 879.042 3.60934 0.202278 0
M  V30 9123 O 878.763 4.25749 -1.03293 0
M  V30 9124 C 880.264 4.36607 0.767387 0
M  V30 9125 H 877.484 0.66991 -0.0382368 0
M  V30 9126 H 880.028 1.90288 -0.749057 0
M  V30 9127 H 878.183 3.77111 0.886897 0
M  V30 9128 H 878.597 5.18048 -0.820167 0
M  V30 9129 H 880.071 5.45126 0.86845 0
M  V30 9130 H 880.548 4.01745 1.77477 0
M  V30 9131 H 881.154 4.25133 0.119002 0
M  V30 9132 N 879.47 0.276058 1.55163 0
M  V30 9133 C 880.7 -0.343274 2.03728 0
M  V30 9134 C 881.108 -1.49945 1.15383 0
M  V30 9135 O 880.451 -1.82942 0.166696 0
M  V30 9136 C 880.513 -0.885683 3.48419 0
M  V30 9137 C 880.177 0.141976 4.56779 0
M  V30 9138 C 881.174 0.961816 5.10926 0
M  V30 9139 C 878.859 0.276487 5.01538 0
M  V30 9140 C 880.853 1.90234 6.0835 0
M  V30 9141 C 878.54 1.22049 5.98788 0
M  V30 9142 C 879.538 2.03192 6.52075 0
M  V30 9143 O 879.226 2.95996 7.47423 0
M  V30 9144 H 878.958 -0.0822192 0.670981 0
M  V30 9145 H 881.512 0.406199 2.01343 0
M  V30 9146 H 879.742 -1.68524 3.48047 0
M  V30 9147 H 881.431 -1.4182 3.80318 0
M  V30 9148 H 882.197 0.868637 4.77158 0
M  V30 9149 H 878.076 -0.345095 4.59707 0
M  V30 9150 H 881.62 2.5361 6.49867 0
M  V30 9151 H 877.517 1.31448 6.31974 0
M  V30 9152 H 878.285 2.90688 7.65142 0
M  V30 9153 N 880.948 -1.576 0.00335426 0
M  V30 9154 C 882.194 -1.90996 -0.681799 0
M  V30 9155 C 882.527 -0.877643 -1.73237 0
M  V30 9156 O 881.802 0.103183 -1.94226 0
M  V30 9157 C 882.085 -3.34961 -1.32187 0
M  V30 9158 C 881.938 -4.48911 -0.28261 0
M  V30 9159 C 883.257 -3.78408 -2.24711 0
M  V30 9160 H 880.376 -0.694596 -0.246386 0
M  V30 9161 H 883.018 -1.89919 0.055336 0
M  V30 9162 H 881.168 -3.36008 -1.95014 0
M  V30 9163 H 882.84 -4.59999 0.346241 0
M  V30 9164 H 881.083 -4.32 0.394768 0
M  V30 9165 H 881.754 -5.46609 -0.769576 0
M  V30 9166 H 884.23 -3.78934 -1.71897 0
M  V30 9167 H 883.106 -4.79885 -2.66461 0
M  V30 9168 H 883.367 -3.12464 -3.1276 0
M  V30 9169 N 882.426 0.269451 -1.5528 0
M  V30 9170 C 883.374 1.35303 -1.89198 0
M  V30 9171 C 884.368 1.50956 -0.768671 0
M  V30 9172 O 885.574 1.52699 -0.953054 0
M  V30 9173 H 881.949 0.452591 -0.600554 0
M  V30 9174 H 883.92 1.03949 -2.79709 0
M  V30 9175 C 882.669 2.70585 -2.18356 0
M  V30 9176 H 881.992 2.59332 -3.04281 0
M  V30 9177 H 883.432 3.45335 -2.46007 0
M  V30 9178 C 881.891 3.21954 -0.992327 0
M  V30 9179 O 882.421 4.01048 -0.228769 0
M  V30 9180 N 880.627 2.79682 -0.789062 0
M  V30 9181 H 880.174 2.15475 -1.41167 0
M  V30 9182 H 880.132 3.14399 0.00634776 0
M  V30 9183 N 883.904 1.48273 0.534124 0
M  V30 9184 C 885.132 1.59734 1.31501 0
M  V30 9185 C 885.547 0.256047 1.87056 0
M  V30 9186 O 884.904 -0.754086 1.66192 0
M  V30 9187 C 884.955 2.64072 2.46877 0
M  V30 9188 O 884.676 3.92995 1.93613 0
M  V30 9189 C 886.177 2.85933 3.38758 0
M  V30 9190 H 883.397 0.538703 0.40005 0
M  V30 9191 H 885.941 1.9407 0.644762 0
M  V30 9192 H 884.096 2.32606 3.09795 0
M  V30 9193 H 884.51 4.50203 2.69106 0
M  V30 9194 H 885.984 3.62749 4.16073 0
M  V30 9195 H 886.461 1.94603 3.93734 0
M  V30 9196 H 887.067 3.18687 2.81636 0
M  V30 9197 N 885.382 -0.782676 1.36792 0
M  V30 9198 C 886.292 -1.92679 1.33835 0
M  V30 9199 C 887.308 -1.72344 0.23952 0
M  V30 9200 O 888.484 -1.95766 0.473045 0
M  V30 9201 C 885.549 -3.27644 1.1336 0
M  V30 9202 C 884.61 -3.6071 2.32781 0
M  V30 9203 C 883.843 -4.89234 2.13273 0
M  V30 9204 O 884.066 -5.59468 1.11136 0
M  V30 9205 O 883 -5.21112 3.01208 0
M  V30 9206 H 886.826 -1.98124 2.30175 0
M  V30 9207 H 884.411 -0.923887 1.17408 0
M  V30 9208 H 886.293 -4.08394 1.03886 0
M  V30 9209 H 884.968 -3.23076 0.200868 0
M  V30 9210 H 883.875 -2.80238 2.47825 0
M  V30 9211 H 885.208 -3.70008 3.24584 0
M  V30 9212 N 886.86 -1.21182 -1.00761 0
M  V30 9213 C 888.108 -1.02543 -1.74153 0
M  V30 9214 C 888.429 0.442372 -1.89916 0
M  V30 9215 O 887.699 1.31927 -1.44818 0
M  V30 9216 H 886.279 -0.37644 -0.645214 0
M  V30 9217 H 888.941 -1.52446 -1.21434 0
M  V30 9218 H 888.037 -1.49122 -2.7417 0
M  V30 9219 N 888.338 1.20213 -1.01915 0
M  V30 9220 C 889.754 1.41696 -0.734459 0
M  V30 9221 C 889.954 1.89504 0.684867 0
M  V30 9222 O 889.01 2.06556 1.45227 0
M  V30 9223 C 890.323 2.43644 -1.76233 0
M  V30 9224 C 891.871 2.57406 -1.78076 0
M  V30 9225 C 892.346 3.626 -2.79796 0
M  V30 9226 N 893.837 3.70086 -2.78551 0
M  V30 9227 C 894.572 4.51145 -3.53915 0
M  V30 9228 N 894.068 5.35988 -4.38963 0
M  V30 9229 N 895.861 4.45702 -3.425 0
M  V30 9230 H 888.012 0.874976 -1.93541 0
M  V30 9231 H 890.275 0.446647 -0.836188 0
M  V30 9232 H 889.981 2.15519 -2.77929 0
M  V30 9233 H 889.855 3.42672 -1.57657 0
M  V30 9234 H 892.242 2.8486 -0.770634 0
M  V30 9235 H 892.323 1.58565 -2.00725 0
M  V30 9236 H 891.967 3.35889 -3.80973 0
M  V30 9237 H 891.897 4.61069 -2.54407 0
M  V30 9238 H 894.388 3.09484 -2.1686 0
M  V30 9239 H 894.701 5.94932 -4.9323 0
M  V30 9240 H 893.046 5.35482 -4.4304 0
M  V30 9241 H 896.237 3.78456 -2.75478 0
M  V30 9242 H 896.41 5.08637 -4.01487 0
M  V30 9243 N 889.816 0.795718 1.36037 0
M  V30 9244 C 890.779 0.204318 2.28287 0
M  V30 9245 C 891.779 -0.602017 1.49105 0
M  V30 9246 O 892.969 -0.422089 1.69009 0
M  V30 9247 C 890.101 -0.716431 3.33287 0
M  V30 9248 H 891.294 1.01781 2.821 0
M  V30 9249 H 888.847 0.565588 1.45708 0
M  V30 9250 H 889.582 -1.55403 2.84641 0
M  V30 9251 H 889.367 -0.140096 3.9185 0
M  V30 9252 H 890.857 -1.12488 4.02164 0
M  V30 9253 N 891.294 -1.47756 0.548274 0
M  V30 9254 C 892.226 -2.27921 -0.24177 0
M  V30 9255 C 893.239 -1.36471 -0.887658 0
M  V30 9256 O 894.428 -1.6137 -0.763016 0
M  V30 9257 C 891.528 -3.10449 -1.35922 0
M  V30 9258 C 890.701 -4.298 -0.811808 0
M  V30 9259 C 889.76 -4.93994 -1.81264 0
M  V30 9260 O 888.786 -5.52657 -1.3623 0
M  V30 9261 N 889.988 -4.87882 -3.14566 0
M  V30 9262 H 892.753 -2.96365 0.445848 0
M  V30 9263 H 890.314 -1.57286 0.383769 0
M  V30 9264 H 892.306 -3.50261 -2.02729 0
M  V30 9265 H 890.876 -2.44306 -1.95021 0
M  V30 9266 H 890.096 -3.94186 0.0327929 0
M  V30 9267 H 891.384 -5.0702 -0.425272 0
M  V30 9268 H 890.782 -4.41405 -3.53805 0
M  V30 9269 H 889.339 -5.3174 -3.76956 0
M  V30 9270 N 892.772 -0.284283 -1.55015 0
M  V30 9271 C 893.704 0.63258 -2.20298 0
M  V30 9272 C 894.717 1.11045 -1.1905 0
M  V30 9273 O 895.906 1.03078 -1.4573 0
M  V30 9274 C 893.006 1.87599 -2.82241 0
M  V30 9275 C 892.179 1.5434 -4.09265 0
M  V30 9276 C 891.238 2.64023 -4.55169 0
M  V30 9277 O 890.264 2.29821 -5.20741 0
M  V30 9278 N 891.466 3.94255 -4.26079 0
M  V30 9279 H 894.231 0.0737928 -2.99609 0
M  V30 9280 H 891.792 -0.105767 -1.61554 0
M  V30 9281 H 893.784 2.60289 -3.0989 0
M  V30 9282 H 892.354 2.3436 -2.06868 0
M  V30 9283 H 891.574 0.649912 -3.88806 0
M  V30 9284 H 892.862 1.29634 -4.92009 0
M  V30 9285 H 892.26 4.24859 -3.73512 0
M  V30 9286 H 890.817 4.63295 -4.58477 0
M  V30 9287 N 894.251 1.57596 -0.0117121 0
M  V30 9288 C 895.479 1.9536 0.681334 0
M  V30 9289 C 895.894 0.887255 1.66653 0
M  V30 9290 O 895.251 -0.132692 1.82017 0
M  V30 9291 C 895.302 3.33165 1.40298 0
M  V30 9292 O 895.023 4.35707 0.45728 0
M  V30 9293 C 896.524 3.85458 2.18946 0
M  V30 9294 H 893.744 0.643826 0.189023 0
M  V30 9295 H 896.288 2.04392 -0.066311 0
M  V30 9296 H 894.443 3.25404 2.10216 0
M  V30 9297 H 894.857 5.15495 0.96773 0
M  V30 9298 H 896.331 4.84275 2.64918 0
M  V30 9299 H 896.808 3.18781 3.02118 0
M  V30 9300 H 897.414 3.96431 1.5402 0
M  V30 9301 N 895.729 -0.261212 1.5542 0
M  V30 9302 C 896.676 -1.32315 1.89107 0
M  V30 9303 C 897.646 -1.48517 0.743767 0
M  V30 9304 O 898.831 -1.62733 0.996123 0
M  V30 9305 C 895.971 -2.67626 2.17877 0
M  V30 9306 C 895.084 -2.59549 3.45338 0
M  V30 9307 C 894.219 -3.87118 3.63748 0
M  V30 9308 C 893.258 -3.736 4.8486 0
M  V30 9309 N 892.395 -4.93029 4.99867 0
M  V30 9310 H 897.235 -1.02886 2.79675 0
M  V30 9311 H 894.772 -0.496812 1.38456 0
M  V30 9312 H 896.73 -3.4637 2.32559 0
M  V30 9313 H 895.36 -2.95232 1.30529 0
M  V30 9314 H 894.412 -1.72452 3.39064 0
M  V30 9315 H 895.724 -2.45465 4.34222 0
M  V30 9316 H 894.878 -4.74305 3.78312 0
M  V30 9317 H 893.617 -4.04084 2.73071 0
M  V30 9318 H 892.622 -2.84797 4.70288 0
M  V30 9319 H 893.847 -3.58143 5.76984 0
M  V30 9320 H 891.793 -5.10383 4.12123 0
M  V30 9321 H 891.71 -4.81521 5.82815 0
M  V30 9322 H 892.978 -5.81754 5.18828 0
M  V30 9323 N 897.207 -1.48554 -0.526253 0
M  V30 9324 C 898.453 -1.56994 -1.28378 0
M  V30 9325 C 898.786 -0.244701 -1.92652 0
M  V30 9326 O 898.061 0.749636 -1.79473 0
M  V30 9327 C 898.344 -2.71092 -2.37026 0
M  V30 9328 C 898.197 -4.13331 -1.77418 0
M  V30 9329 C 899.516 -2.80934 -3.38769 0
M  V30 9330 H 896.635 -0.571466 -0.465398 0
M  V30 9331 H 899.277 -1.80742 -0.585861 0
M  V30 9332 H 897.427 -2.50973 -2.96555 0
M  V30 9333 H 899.099 -4.44899 -1.21912 0
M  V30 9334 H 897.342 -4.20158 -1.07936 0
M  V30 9335 H 898.013 -4.88994 -2.56104 0
M  V30 9336 H 900.489 -2.9917 -2.892 0
M  V30 9337 H 899.365 -3.62489 -4.12181 0
M  V30 9338 H 899.626 -1.89244 -3.99549 0
M  V30 9339 N 898.685 0.775411 -1.37205 0
M  V30 9340 C 899.648 1.8702 -1.325 0
M  V30 9341 C 900.648 1.5915 -0.229793 0
M  V30 9342 O 901.838 1.673 -0.485423 0
M  V30 9343 C 898.97 3.24085 -1.05745 0
M  V30 9344 H 900.163 1.92604 -2.29878 0
M  V30 9345 H 897.716 0.97476 -1.22181 0
M  V30 9346 H 898.451 3.24178 -0.0888371 0
M  V30 9347 H 898.236 3.45705 -1.85016 0
M  V30 9348 H 899.726 4.0416 -1.05094 0
M  V30 9349 N 900.163 1.21714 1.00117 0
M  V30 9350 C 901.409 1.03823 1.74208 0
M  V30 9351 C 901.742 -0.426733 1.89454 0
M  V30 9352 O 901.017 -1.31658 1.43166 0
M  V30 9353 C 901.3 1.74047 3.15246 0
M  V30 9354 C 901.153 3.28087 3.077 0
M  V30 9355 C 902.472 1.48614 4.14249 0
M  V30 9356 H 899.591 0.378573 0.632338 0
M  V30 9357 H 902.233 1.49942 1.16694 0
M  V30 9358 H 900.383 1.3484 3.64349 0
M  V30 9359 H 902.055 3.76686 2.6628 0
M  V30 9360 H 900.298 3.58191 2.44707 0
M  V30 9361 H 900.969 3.72392 4.07466 0
M  V30 9362 H 903.445 1.82656 3.73866 0
M  V30 9363 H 902.321 2.00257 5.11066 0
M  V30 9364 H 902.582 0.416957 4.40129 0
M  V30 9365 N 901.641 -1.19671 1.02551 0
M  V30 9366 C 902.869 -1.93233 0.739513 0
M  V30 9367 C 903.284 -1.75298 -0.701158 0
M  V30 9368 O 902.641 -1.07269 -1.47647 0
M  V30 9369 C 902.692 -3.45085 1.07697 0
M  V30 9370 O 902.413 -3.62441 2.46106 0
M  V30 9371 C 903.914 -4.35776 0.813298 0
M  V30 9372 H 901.134 -0.613905 0.270853 0
M  V30 9373 H 903.678 -1.51909 1.36909 0
M  V30 9374 H 901.833 -3.84255 0.492635 0
M  V30 9375 H 902.247 -4.56337 2.58567 0
M  V30 9376 H 903.721 -5.40941 1.09941 0
M  V30 9377 H 904.198 -4.38474 -0.252359 0
M  V30 9378 H 904.804 -4.02282 1.38021 0
M  V30 9379 N 903.119 -0.802921 -1.35613 0
M  V30 9380 C 904.53 -0.443004 -1.81368 0
M  V30 9381 C 904.881 1.03459 -1.66706 0
M  V30 9382 O 904.006 1.80372 -1.19561 0
M  V30 9383 C 904.601 -0.797324 -3.29284 0
M  V30 9384 C 903.16 -0.490055 -3.73196 0
M  V30 9385 C 902.307 -1.02487 -2.57666 0
M  V30 9386 H 905.258 -0.994888 -1.23643 0
M  V30 9387 H 905.279 -0.0934638 -3.80385 0
M  V30 9388 H 904.791 -1.87278 -3.39924 0
M  V30 9389 H 902.892 0.576818 -3.68108 0
M  V30 9390 H 903.005 -1.02012 -4.68114 0
M  V30 9391 H 901.369 -0.44738 -2.5074 0
M  V30 9392 H 902.152 -2.10636 -2.71085 0
M  V30 9393 N 904.597 1.47463 -0.556102 0
M  V30 9394 C 906.008 1.86298 -0.122429 0
M  V30 9395 C 906.359 1.46285 1.30749 0
M  V30 9396 O 905.484 0.865405 1.98342 0
M  V30 9397 C 906.079 3.38115 -0.215407 0
M  V30 9398 C 904.638 3.76046 0.163223 0
M  V30 9399 C 903.785 2.71515 -0.563466 0
M  V30 9400 H 906.736 1.38996 -0.765888 0
M  V30 9401 H 906.757 3.76263 0.566271 0
M  V30 9402 H 906.269 3.67207 -1.25622 0
M  V30 9403 H 904.37 3.5257 1.20519 0
M  V30 9404 H 904.483 4.78705 -0.194568 0
M  V30 9405 H 902.847 2.54699 -0.00667879 0
M  V30 9406 H 903.63 3.03449 -1.60542 0
M  V30 9407 N 906.075 0.2925 1.54862 0
M  V30 9408 C 907.323 -0.318633 1.99572 0
M  V30 9409 C 907.644 -1.55062 1.1824 0
M  V30 9410 O 906.914 -1.93943 0.276226 0
M  V30 9411 H 905.494 -0.120722 0.737181 0
M  V30 9412 H 908.156 0.401862 1.90712 0
M  V30 9413 H 907.252 -0.596542 3.06346 0
M  V30 9414 N 907.553 -1.57587 0.0200696 0
M  V30 9415 C 908.483 -2.12702 -0.963333 0
M  V30 9416 C 909.464 -1.04094 -1.34531 0
M  V30 9417 O 910.649 -1.31881 -1.42552 0
M  V30 9418 C 907.779 -2.64673 -2.24868 0
M  V30 9419 C 906.733 -3.77987 -2.00772 0
M  V30 9420 C 906.059 -4.16351 -3.35494 0
M  V30 9421 C 907.359 -5.0444 -1.35416 0
M  V30 9422 H 909.053 -2.95121 -0.504363 0
M  V30 9423 H 906.599 -1.41966 -0.24116 0
M  V30 9424 H 908.552 -3.01862 -2.94036 0
M  V30 9425 H 907.276 -1.79403 -2.72914 0
M  V30 9426 H 905.935 -3.41223 -1.34025 0
M  V30 9427 H 905.583 -3.28075 -3.81282 0
M  V30 9428 H 905.283 -4.92705 -3.20181 0
M  V30 9429 H 906.807 -4.56115 -4.05945 0
M  V30 9430 H 908.221 -5.39273 -1.94571 0
M  V30 9431 H 906.618 -5.85732 -1.30529 0
M  V30 9432 H 907.688 -4.83803 -0.325923 0
M  V30 9433 N 909.032 0.252966 -1.55557 0
M  V30 9434 C 909.995 1.29645 -1.8901 0
M  V30 9435 C 910.995 1.41378 -0.766096 0
M  V30 9436 O 912.185 1.40183 -1.03414 0
M  V30 9437 C 909.317 2.67504 -2.11316 0
M  V30 9438 H 910.51 1.01202 -2.82309 0
M  V30 9439 H 908.063 0.491977 -1.48355 0
M  V30 9440 H 908.798 3.01095 -1.20466 0
M  V30 9441 H 908.583 2.6037 -2.93172 0
M  V30 9442 H 910.073 3.42861 -2.38403 0
M  V30 9443 N 910.51 1.48831 0.518367 0
M  V30 9444 C 911.926 1.35209 0.847979 0
M  V30 9445 C 912.126 0.371927 1.98038 0
M  V30 9446 O 911.182 -0.202681 2.51685 0
M  V30 9447 C 912.495 2.7552 1.20455 0
M  V30 9448 C 914.043 2.84094 1.31377 0
M  V30 9449 C 914.518 4.25132 1.70372 0
M  V30 9450 N 916.009 4.27861 1.77453 0
M  V30 9451 C 916.744 5.3394 2.09035 0
M  V30 9452 N 916.24 6.50285 2.3896 0
M  V30 9453 N 918.033 5.21343 2.10139 0
M  V30 9454 H 910.184 2.11166 -0.228624 0
M  V30 9455 H 912.447 0.94717 -0.0396599 0
M  V30 9456 H 912.153 3.48861 0.445991 0
M  V30 9457 H 912.027 3.09785 2.15204 0
M  V30 9458 H 914.414 2.11001 2.06307 0
M  V30 9459 H 914.495 2.53433 0.347203 0
M  V30 9460 H 914.139 4.98745 0.959975 0
M  V30 9461 H 914.069 4.53245 2.68098 0
M  V30 9462 H 916.56 3.43945 1.56557 0
M  V30 9463 H 916.873 7.26961 2.62196 0
M  V30 9464 H 915.218 6.5354 2.36454 0
M  V30 9465 H 918.409 4.29462 1.86225 0
M  V30 9466 H 918.582 6.04112 2.34419 0
M  V30 9467 N 911.988 -0.768124 1.37614 0
M  V30 9468 C 912.898 -1.91249 1.35871 0
M  V30 9469 C 913.914 -1.7208 0.257786 0
M  V30 9470 O 915.09 -1.95253 0.493782 0
M  V30 9471 C 912.155 -3.26423 1.16829 0
M  V30 9472 C 911.216 -3.5822 2.36594 0
M  V30 9473 C 910.449 -4.86945 2.1845 0
M  V30 9474 O 910.672 -5.58258 1.17064 0
M  V30 9475 O 909.606 -5.17888 3.06718 0
M  V30 9476 H 913.432 -1.95671 2.32264 0
M  V30 9477 H 911.017 -0.911382 1.18382 0
M  V30 9478 H 912.899 -4.07269 1.08212 0
M  V30 9479 H 911.574 -3.22845 0.235123 0
M  V30 9480 H 910.481 -2.77594 2.50783 0
M  V30 9481 H 911.814 -3.66545 3.2849 0
M  V30 9482 N 913.466 -1.22244 -0.994698 0
M  V30 9483 C 914.743 -0.954459 -1.70732 0
M  V30 9484 C 915.123 0.530945 -2.04314 0
M  V30 9485 O 914.471 1.49851 -1.72502 0
M  V30 9486 C 914.681 -1.85016 -2.95922 0
M  V30 9487 C 916.029 -2.10517 -3.68738 0
M  V30 9488 O 917.053 -1.82449 -3.05926 0
M  V30 9489 O 915.912 -2.58044 -4.81742 0
M  V30 9490 H 913.006 -0.35879 -0.745116 0
M  V30 9491 H 915.552 -1.33221 -1.0512 0
M  V30 9492 H 914.324 -2.85498 -2.67594 0
M  V30 9493 H 913.947 -1.47388 -3.69273 0
M  V30 9494 N 914.944 1.19125 -1.03184 0
M  V30 9495 C 916.19 1.89428 -0.740857 0
M  V30 9496 C 916.545 1.78302 0.72291 0
M  V30 9497 O 915.838 1.16656 1.51994 0
M  V30 9498 C 916.032 3.39052 -1.13041 0
M  V30 9499 C 915.861 3.64739 -2.6305 0
M  V30 9500 C 914.631 3.82603 -3.30066 0
M  V30 9501 C 916.829 3.66052 -3.61262 0
M  V30 9502 N 914.811 3.95947 -4.69147 0
M  V30 9503 C 916.182 3.85003 -4.85976 0
M  V30 9504 C 918.237 3.49093 -3.55019 0
M  V30 9505 C 916.94 3.88753 -6.05197 0
M  V30 9506 C 918.966 3.54122 -4.73658 0
M  V30 9507 C 918.328 3.73561 -5.97187 0
M  V30 9508 H 914.427 0.71217 -0.323014 0
M  V30 9509 H 917.011 1.43146 -1.31974 0
M  V30 9510 H 915.182 3.8405 -0.579699 0
M  V30 9511 H 916.914 3.96887 -0.791369 0
M  V30 9512 H 913.669 3.81615 -2.80476 0
M  V30 9513 H 914.093 4.06461 -5.41404 0
M  V30 9514 H 918.735 3.33018 -2.60497 0
M  V30 9515 H 916.453 4.03619 -7.00084 0
M  V30 9516 H 920.039 3.42286 -4.70459 0
M  V30 9517 H 918.919 3.7733 -6.87453 0
M  V30 9518 N 916.422 0.810101 1.35185 0
M  V30 9519 C 917.369 0.220927 2.2974 0
M  V30 9520 C 918.339 -0.647024 1.5298 0
M  V30 9521 O 919.524 -0.591367 1.81404 0
M  V30 9522 C 916.664 -0.62167 3.39454 0
M  V30 9523 C 915.777 0.267104 4.31173 0
M  V30 9524 C 914.912 -0.583833 5.27982 0
M  V30 9525 C 913.951 0.305123 6.11339 0
M  V30 9526 N 913.088 -0.505992 7.00274 0
M  V30 9527 H 917.928 1.03266 2.79536 0
M  V30 9528 H 915.465 0.520768 1.37573 0
M  V30 9529 H 917.423 -1.12539 4.01735 0
M  V30 9530 H 916.053 -1.39863 2.90926 0
M  V30 9531 H 915.105 0.88895 3.69867 0
M  V30 9532 H 916.417 0.951182 4.89647 0
M  V30 9533 H 915.571 -1.15254 5.95652 0
M  V30 9534 H 914.31 -1.30146 4.70014 0
M  V30 9535 H 913.315 0.886075 5.42613 0
M  V30 9536 H 914.54 1.02067 6.71386 0
M  V30 9537 H 912.486 -1.20753 6.4479 0
M  V30 9538 H 912.403 0.119966 7.55905 0
M  V30 9539 H 913.671 -1.05787 7.72288 0
M  V30 9540 N 917.9 -1.47166 0.563914 0
M  V30 9541 C 919.149 -2.0166 0.0401871 0
M  V30 9542 C 919.462 -1.44303 -1.32046 0
M  V30 9543 O 920.668 -1.905 -1.93448 0
M  V30 9544 C 919.124 -3.59894 0.0213257 0
M  V30 9545 C 918.732 -4.26244 1.37914 0
M  V30 9546 C 920.476 -4.22114 -0.449442 0
M  V30 9547 C 918.383 -5.76503 1.31902 0
M  V30 9548 H 917.313 -0.753916 0.0112534 0
M  V30 9549 H 919.964 -1.69091 0.712766 0
M  V30 9550 H 918.346 -3.89454 -0.717038 0
M  V30 9551 H 919.52 -4.08317 2.13574 0
M  V30 9552 H 917.835 -3.76039 1.78839 0
M  V30 9553 H 920.432 -5.32234 -0.51292 0
M  V30 9554 H 920.775 -3.89749 -1.46291 0
M  V30 9555 H 921.308 -3.9711 0.23427 0
M  V30 9556 H 918.047 -6.13498 2.3087 0
M  V30 9557 H 917.567 -5.96748 0.604324 0
M  V30 9558 H 919.246 -6.38846 1.02392 0
M  V30 9559 N 919.378 -0.300708 -1.54705 0
M  V30 9560 C 920.627 0.309428 -1.99312 0
M  V30 9561 C 920.94 1.55027 -1.19272 0
M  V30 9562 O 922.146 2.23498 -1.54146 0
M  V30 9563 C 920.602 0.601856 -3.54832 0
M  V30 9564 C 920.21 -0.620636 -4.4368 0
M  V30 9565 C 921.954 1.1732 -4.07966 0
M  V30 9566 C 919.861 -0.301376 -5.90632 0
M  V30 9567 H 918.791 0.119395 -0.744487 0
M  V30 9568 H 921.442 -0.409368 -1.78875 0
M  V30 9569 H 919.824 1.38024 -3.71168 0
M  V30 9570 H 920.998 -1.39685 -4.39118 0
M  V30 9571 H 919.313 -1.1106 -4.01316 0
M  V30 9572 H 921.91 1.42631 -5.15326 0
M  V30 9573 H 922.253 2.11537 -3.5855 0
M  V30 9574 H 922.786 0.456534 -3.95172 0
M  V30 9575 H 919.525 -1.21209 -6.44196 0
M  V30 9576 H 919.045 0.437574 -5.98202 0
M  V30 9577 H 920.724 0.097164 -6.46927 0
M  V30 9578 N 920.856 1.57574 -0.0284266 0
M  V30 9579 C 922.272 1.56194 0.327958 0
M  V30 9580 C 922.472 1.03397 1.72949 0
M  V30 9581 O 921.528 0.680392 2.4316 0
M  V30 9582 C 922.841 3.00177 0.177196 0
M  V30 9583 C 924.389 3.12 0.250014 0
M  V30 9584 C 924.864 4.57821 0.128049 0
M  V30 9585 N 926.355 4.6283 0.185054 0
M  V30 9586 C 927.09 5.73286 0.114454 0
M  V30 9587 N 926.586 6.928 -0.00719225 0
M  V30 9588 N 928.379 5.61848 0.16839 0
M  V30 9589 H 920.53 1.90224 -0.944921 0
M  V30 9590 H 922.793 0.874987 -0.364832 0
M  V30 9591 H 922.499 3.42753 -0.788224 0
M  V30 9592 H 922.373 3.65101 0.94768 0
M  V30 9593 H 924.76 2.69337 1.20589 0
M  V30 9594 H 924.841 2.49799 -0.550835 0
M  V30 9595 H 924.485 5.01165 -0.824407 0
M  V30 9596 H 924.415 5.18001 0.947753 0
M  V30 9597 H 926.906 3.76867 0.279247 0
M  V30 9598 H 927.219 7.72781 -0.0543903 0
M  V30 9599 H 925.564 6.94987 -0.0419648 0
M  V30 9600 H 928.755 4.67367 0.261821 0
M  V30 9601 H 928.928 6.47907 0.109908 0
M  V30 9602 N 922.334 -0.244713 1.55689 0
M  V30 9603 C 923.297 -1.2864 1.89695 0
M  V30 9604 C 924.297 -1.40969 0.773583 0
M  V30 9605 O 925.487 -1.39632 1.04156 0
M  V30 9606 C 922.619 -2.66379 2.12732 0
M  V30 9607 H 923.812 -0.997033 2.82841 0
M  V30 9608 H 921.365 -0.484103 1.48614 0
M  V30 9609 H 922.1 -3.00452 1.22062 0
M  V30 9610 H 921.885 -2.58812 2.94549 0
M  V30 9611 H 923.375 -3.41592 2.40218 0
M  V30 9612 N 923.813 -1.49104 -0.510467 0
M  V30 9613 C 924.743 -1.67981 -1.62187 0
M  V30 9614 C 925.724 -0.528529 -1.6168 0
M  V30 9615 O 926.909 -0.763305 -1.7857 0
M  V30 9616 C 924.039 -1.73755 -3.0071 0
M  V30 9617 C 922.993 -2.88579 -3.1608 0
M  V30 9618 C 922.319 -2.79457 -4.5586 0
M  V30 9619 C 923.619 -4.29638 -2.97 0
M  V30 9620 H 925.313 -2.61029 -1.46643 0
M  V30 9621 H 922.859 -1.25615 -0.704042 0
M  V30 9622 H 924.812 -1.85548 -3.78352 0
M  V30 9623 H 923.536 -0.772996 -3.17321 0
M  V30 9624 H 922.195 -2.76372 -2.40861 0
M  V30 9625 H 921.843 -1.80929 -4.69333 0
M  V30 9626 H 921.543 -3.56518 -4.67086 0
M  V30 9627 H 923.067 -2.93245 -5.35574 0
M  V30 9628 H 924.481 -4.42575 -3.64418 0
M  V30 9629 H 922.878 -5.07847 -3.19704 0
M  V30 9630 H 923.948 -4.44741 -1.93219 0
M  V30 9631 N 925.291 0.760815 -1.38019 0
M  V30 9632 C 926.516 1.55513 -1.37224 0
M  V30 9633 C 926.941 1.88062 0.037611 0
M  V30 9634 O 926.299 1.50042 1.0177 0
M  V30 9635 C 926.347 2.83539 -2.22796 0
M  V30 9636 O 925.451 3.78384 -1.64009 0
M  V30 9637 H 924.792 0.470642 -0.468393 0
M  V30 9638 H 927.322 0.940792 -1.81687 0
M  V30 9639 H 927.332 3.32535 -2.36399 0
M  V30 9640 H 926.007 2.59178 -3.25269 0
M  V30 9641 H 924.584 3.37063 -1.59508 0
M  V30 9642 N 926.769 1.22769 0.988202 0
M  V30 9643 C 927.679 1.01844 2.11341 0
M  V30 9644 C 928.695 -0.0346937 1.73965 0
M  V30 9645 O 929.871 0.159061 2.00771 0
M  V30 9646 C 926.936 0.603837 3.41401 0
M  V30 9647 C 925.997 1.73113 3.92849 0
M  V30 9648 C 925.23 1.33621 5.16702 0
M  V30 9649 O 925.453 0.217041 5.69987 0
M  V30 9650 O 924.387 2.15444 5.62021 0
M  V30 9651 H 928.213 1.96127 2.31879 0
M  V30 9652 H 925.798 1.01405 1.09715 0
M  V30 9653 H 927.68 0.383196 4.19654 0
M  V30 9654 H 926.355 -0.310082 3.22211 0
M  V30 9655 H 925.262 2.00634 3.15748 0
M  V30 9656 H 926.595 2.62308 4.1648 0
M  V30 9657 N 928.247 -1.18576 1.03814 0
M  V30 9658 C 929.496 -1.87822 0.735235 0
M  V30 9659 C 929.809 -1.81069 -0.739819 0
M  V30 9660 O 931.015 -2.45654 -1.15614 0
M  V30 9661 C 929.471 -3.36941 1.26486 0
M  V30 9662 C 929.079 -3.5223 2.76836 0
M  V30 9663 C 930.823 -4.11604 1.03836 0
M  V30 9664 C 928.73 -4.95294 3.23169 0
M  V30 9665 H 927.66 -0.703487 0.271333 0
M  V30 9666 H 930.311 -1.34 1.25365 0
M  V30 9667 H 928.693 -3.90217 0.674318 0
M  V30 9668 H 929.867 -3.09239 3.41625 0
M  V30 9669 H 928.182 -2.90969 2.97869 0
M  V30 9670 H 930.779 -5.17123 1.3597 0
M  V30 9671 H 931.122 -4.16293 -0.0244945 0
M  V30 9672 H 931.655 -3.64494 1.59338 0
M  V30 9673 H 928.394 -4.95772 4.28824 0
M  V30 9674 H 927.914 -5.3901 2.63113 0
M  V30 9675 H 929.593 -5.63996 3.17045 0
M  V30 9676 N 929.725 -0.817259 -1.34754 0
M  V30 9677 C 930.688 -0.240611 -2.27934 0
M  V30 9678 C 931.688 0.578219 -1.50044 0
M  V30 9679 O 932.878 0.395148 -1.69659 0
M  V30 9680 C 930.01 0.663318 -3.34384 0
M  V30 9681 H 931.203 -1.06257 -2.80445 0
M  V30 9682 H 928.756 -0.588697 -1.4479 0
M  V30 9683 H 929.491 1.50855 -2.87077 0
M  V30 9684 H 929.276 0.0777388 -3.92023 0
M  V30 9685 H 930.766 1.06076 -4.03903 0
M  V30 9686 N 931.203 1.46865 -0.571711 0
M  V30 9687 C 932.451 2.0203 -0.0530022 0
M  V30 9688 C 932.772 1.44687 1.30731 0
M  V30 9689 O 932.042 0.627429 1.85581 0
M  V30 9690 H 930.622 0.746815 -0.0166035 0
M  V30 9691 H 933.284 1.80099 -0.745003 0
M  V30 9692 H 932.38 3.12091 0.0242538 0
M  V30 9693 N 932.681 0.308908 1.54543 0
M  V30 9694 C 933.614 -0.605854 2.20011 0
M  V30 9695 C 934.592 -1.1269 1.17216 0
M  V30 9696 O 935.776 -1.19363 1.45893 0
M  V30 9697 C 932.903 -1.82977 2.85021 0
M  V30 9698 C 931.949 -1.44126 4.0141 0
M  V30 9699 S 932.782 -0.490445 5.33249 0
M  V30 9700 C 933.938 -1.72198 6.01746 0
M  V30 9701 H 934.171 -0.0496911 2.97258 0
M  V30 9702 H 931.704 0.0930238 1.5412 0
M  V30 9703 H 933.662 -2.53211 3.23102 0
M  V30 9704 H 932.323 -2.35711 2.07604 0
M  V30 9705 H 931.516 -2.35288 4.45708 0
M  V30 9706 H 931.118 -0.818788 3.64927 0
M  V30 9707 H 933.41 -2.66147 6.23034 0
M  V30 9708 H 934.353 -1.32142 6.95661 0
M  V30 9709 H 934.761 -1.90229 5.31482 0
M  V30 9710 N 934.159 -1.57557 0.0367827 0
M  V30 9711 C 935.387 -1.96419 -0.650168 0
M  V30 9712 C 935.802 -0.913656 -1.6522 0
M  V30 9713 O 935.159 0.103718 -1.82205 0
M  V30 9714 C 935.21 -3.35355 -1.3498 0
M  V30 9715 O 934.931 -4.36379 -0.387905 0
M  V30 9716 C 936.432 -3.88892 -2.12786 0
M  V30 9717 H 933.652 -0.646751 -0.178756 0
M  V30 9718 H 936.196 -2.04261 0.0988197 0
M  V30 9719 H 934.351 -3.28708 -2.05012 0
M  V30 9720 H 934.765 -5.16969 -0.885596 0
M  V30 9721 H 936.239 -4.88428 -2.5718 0
M  V30 9722 H 936.716 -3.23547 -2.97008 0
M  V30 9723 H 937.322 -3.98831 -1.47694 0
M  V30 9724 N 935.637 0.236453 -1.55816 0
M  V30 9725 C 936.567 1.29639 -1.94206 0
M  V30 9726 C 937.548 1.49667 -0.808319 0
M  V30 9727 O 938.733 1.621 -1.06945 0
M  V30 9728 C 935.863 2.64914 -2.24584 0
M  V30 9729 C 934.817 2.59565 -3.40308 0
M  V30 9730 C 934.143 3.98732 -3.56254 0
M  V30 9731 C 935.443 2.15642 -4.75706 0
M  V30 9732 H 937.137 0.977552 -2.82992 0
M  V30 9733 H 934.683 0.468804 -1.36155 0
M  V30 9734 H 936.636 3.39209 -2.50031 0
M  V30 9735 H 935.36 2.98455 -1.32636 0
M  V30 9736 H 934.019 1.87728 -3.14887 0
M  V30 9737 H 933.667 4.29556 -2.61707 0
M  V30 9738 H 933.367 3.96039 -4.34082 0
M  V30 9739 H 934.891 4.74711 -3.84033 0
M  V30 9740 H 936.305 2.79673 -5.00456 0
M  V30 9741 H 934.702 2.24039 -5.56711 0
M  V30 9742 H 935.772 1.10831 -4.72064 0
M  V30 9743 N 937.115 1.49373 0.502552 0
M  V30 9744 C 938.526 1.52 1.0841 0
M  V30 9745 C 938.877 0.305317 1.9381 0
M  V30 9746 O 938.002 -0.585023 2.08342 0
M  V30 9747 C 938.597 2.75437 1.97281 0
M  V30 9748 C 937.156 2.80848 2.50602 0
M  V30 9749 C 936.303 2.45894 1.28186 0
M  V30 9750 H 939.254 1.56092 0.286533 0
M  V30 9751 H 939.275 2.55511 2.81947 0
M  V30 9752 H 938.787 3.63827 1.35098 0
M  V30 9753 H 936.888 1.96735 3.16427 0
M  V30 9754 H 937.001 3.82979 2.8786 0
M  V30 9755 H 935.365 1.97639 1.60657 0
M  V30 9756 H 936.148 3.36556 0.677139 0
M  V30 9757 N 938.594 -0.753485 1.38421 0
M  V30 9758 C 939.824 -1.54049 1.37669 0
M  V30 9759 C 940.232 -1.89167 -0.0353656 0
M  V30 9760 O 939.575 -1.53285 -1.01239 0
M  V30 9761 C 939.637 -2.86777 2.16793 0
M  V30 9762 C 939.301 -2.74196 3.65603 0
M  V30 9763 C 940.298 -2.43985 4.59094 0
M  V30 9764 C 937.983 -2.91645 4.0896 0
M  V30 9765 C 939.977 -2.31379 5.93921 0
M  V30 9766 C 937.664 -2.78658 5.43868 0
M  V30 9767 C 938.662 -2.48568 6.36163 0
M  V30 9768 O 938.35 -2.3564 7.68589 0
M  V30 9769 H 938.082 -0.483276 0.472673 0
M  V30 9770 H 940.636 -0.940267 1.82615 0
M  V30 9771 H 938.866 -3.48988 1.66565 0
M  V30 9772 H 940.555 -3.48289 2.08446 0
M  V30 9773 H 941.321 -2.30172 4.26902 0
M  V30 9774 H 937.2 -3.14063 3.37469 0
M  V30 9775 H 940.744 -2.07813 6.65927 0
M  V30 9776 H 936.641 -2.92044 5.75656 0
M  V30 9777 H 937.409 -2.50851 7.79112 0
M  V30 9778 N 940.072 -1.23292 -0.981677 0
M  V30 9779 C 941.349 -0.972514 -1.6971 0
M  V30 9780 C 941.729 0.509244 -2.04866 0
M  V30 9781 O 941.077 1.48013 -1.74082 0
M  V30 9782 C 941.287 -1.88144 -2.93943 0
M  V30 9783 C 942.635 -2.14416 -3.66485 0
M  V30 9784 O 943.659 -1.85684 -3.03974 0
M  V30 9785 O 942.518 -2.63139 -4.78978 0
M  V30 9786 H 939.612 -0.366673 -0.741269 0
M  V30 9787 H 942.158 -1.34328 -1.03701 0
M  V30 9788 H 940.93 -2.8832 -2.64551 0
M  V30 9789 H 940.553 -1.51296 -3.67689 0
M  V30 9790 N 941.55 1.18024 -1.04442 0
M  V30 9791 C 942.778 1.92032 -0.770161 0
M  V30 9792 C 943.193 1.76391 0.673181 0
M  V30 9793 O 942.55 1.09604 1.45922 0
M  V30 9794 C 942.601 3.43328 -1.13173 0
M  V30 9795 O 942.322 3.5848 -2.51841 0
M  V30 9796 C 943.823 4.34427 -0.882523 0
M  V30 9797 H 941.043 0.609518 -0.280586 0
M  V30 9798 H 943.587 1.49711 -1.39308 0
M  V30 9799 H 941.742 3.83423 -0.553704 0
M  V30 9800 H 942.156 4.52166 -2.65794 0
M  V30 9801 H 943.63 5.39123 -1.18533 0
M  V30 9802 H 944.107 4.3882 0.18257 0
M  V30 9803 H 944.713 4.00035 -1.44403 0
M  V30 9804 N 943.028 0.824394 1.34319 0
M  V30 9805 C 943.958 0.262077 2.32025 0
M  V30 9806 C 944.939 -0.622277 1.58309 0
M  V30 9807 O 946.124 -0.548848 1.86283 0
M  V30 9808 C 943.254 -0.57567 3.42496 0
M  V30 9809 C 942.208 0.21167 4.27476 0
M  V30 9810 C 941.534 -0.748913 5.29429 0
M  V30 9811 C 942.834 1.42068 5.02607 0
M  V30 9812 H 944.528 1.07842 2.79304 0
M  V30 9813 H 942.074 0.520022 1.34282 0
M  V30 9814 H 944.027 -0.979251 4.09864 0
M  V30 9815 H 942.751 -1.42508 2.93869 0
M  V30 9816 H 941.41 0.596636 3.61712 0
M  V30 9817 H 941.058 -1.59432 4.77064 0
M  V30 9818 H 940.758 -0.226313 5.87164 0
M  V30 9819 H 942.282 -1.15032 5.99667 0
M  V30 9820 H 943.696 1.09103 5.62823 0
M  V30 9821 H 942.093 1.87903 5.69923 0
M  V30 9822 H 943.163 2.1981 4.32217 0
M  V30 9823 N 944.506 -1.46559 0.579492 0
M  V30 9824 C 945.783 -1.956 -0.00287136 0
M  V30 9825 C 946.163 -1.52215 -1.46266 0
M  V30 9826 O 945.511 -0.771335 -2.15088 0
M  V30 9827 C 945.721 -3.48606 0.165824 0
M  V30 9828 C 947.069 -4.24588 0.0319807 0
M  V30 9829 O 948.093 -3.56075 0.094496 0
M  V30 9830 O 946.952 -5.46396 -0.106386 0
M  V30 9831 H 944.046 -0.825387 -0.0516274 0
M  V30 9832 H 946.592 -1.56858 0.647584 0
M  V30 9833 H 945.364 -3.7306 1.18076 0
M  V30 9834 H 944.987 -3.94169 -0.521212 0
M  V30 9835 N 945.984 -0.3171 -1.54377 0
M  V30 9836 C 946.916 0.58571 -2.2159 0
M  V30 9837 C 947.929 1.08495 -1.21378 0
M  V30 9838 O 949.118 0.999638 -1.47883 0
M  V30 9839 C 946.218 1.8157 -2.86156 0
M  V30 9840 C 945.391 1.45625 -4.12447 0
M  V30 9841 C 944.45 2.54308 -4.60667 0
M  V30 9842 O 943.476 2.18724 -5.25498 0
M  V30 9843 N 944.678 3.85129 -4.34345 0
M  V30 9844 H 947.443 0.0102247 -2.99698 0
M  V30 9845 H 945.004 -0.140011 -1.61293 0
M  V30 9846 H 946.996 2.53657 -3.15341 0
M  V30 9847 H 945.566 2.29919 -2.11793 0
M  V30 9848 H 944.786 0.567294 -3.90097 0
M  V30 9849 H 946.074 1.19169 -4.94648 0
M  V30 9850 H 945.472 4.16841 -3.8244 0
M  V30 9851 H 944.029 4.53466 -4.68201 0
M  V30 9852 N 947.462 1.57535 -0.0451378 0
M  V30 9853 C 948.708 1.92736 0.630921 0
M  V30 9854 C 949.041 0.923265 1.70849 0
M  V30 9855 O 948.316 -0.0516512 1.94431 0
M  V30 9856 C 948.599 3.38348 1.23259 0
M  V30 9857 C 948.452 4.49503 0.16349 0
M  V30 9858 C 949.771 3.84233 2.14599 0
M  V30 9859 H 946.89 0.700884 0.227883 0
M  V30 9860 H 949.532 1.89706 -0.10567 0
M  V30 9861 H 947.682 3.41061 1.86037 0
M  V30 9862 H 949.354 4.58919 -0.46808 0
M  V30 9863 H 947.597 4.30802 -0.509166 0
M  V30 9864 H 948.268 5.48457 0.624382 0
M  V30 9865 H 950.744 3.83358 1.6179 0
M  V30 9866 H 949.62 4.86781 2.53644 0
M  V30 9867 H 949.881 3.20646 3.04366 0
M  V30 9868 N 948.94 -0.228186 1.55939 0
M  V30 9869 C 950.356 -0.577583 1.48782 0
M  V30 9870 C 950.556 -1.87461 0.738972 0
M  V30 9871 O 949.612 -2.50988 0.275929 0
M  V30 9872 C 950.925 -0.662961 2.93301 0
M  V30 9873 C 952.473 -0.754035 3.03782 0
M  V30 9874 C 952.948 -0.870815 4.49645 0
M  V30 9875 N 954.439 -0.935208 4.53661 0
M  V30 9876 C 955.174 -1.04516 5.63794 0
M  V30 9877 N 954.67 -1.11948 6.83696 0
M  V30 9878 N 956.463 -1.07978 5.51631 0
M  V30 9879 H 948.614 0.623018 2.03057 0
M  V30 9880 H 950.877 0.217692 0.922667 0
M  V30 9881 H 950.583 0.220375 3.51009 0
M  V30 9882 H 950.457 -1.52876 3.44831 0
M  V30 9883 H 952.844 -1.62782 2.46143 0
M  V30 9884 H 952.925 0.137301 2.55431 0
M  V30 9885 H 952.569 -0.0015186 5.079 0
M  V30 9886 H 952.499 -1.77747 4.95695 0
M  V30 9887 H 954.99 -0.88836 3.6731 0
M  V30 9888 H 955.303 -1.20297 7.6338 0
M  V30 9889 H 953.648 -1.08873 6.8642 0
M  V30 9890 H 956.839 -1.01833 4.56889 0
M  V30 9891 H 957.012 -1.16202 6.37496 0
M  V30 9892 N 950.418 -1.49637 -0.494624 0
M  V30 9893 C 951.366 -1.6727 -1.61627 0
M  V30 9894 C 952.36 -0.538587 -1.6061 0
M  V30 9895 O 953.566 -0.718411 -1.65042 0
M  V30 9896 H 949.941 -0.527557 -0.535899 0
M  V30 9897 H 951.912 -2.61405 -1.43909 0
M  V30 9898 C 950.661 -1.7624 -2.99725 0
M  V30 9899 H 949.984 -2.62886 -3.01216 0
M  V30 9900 H 951.424 -1.92611 -3.77726 0
M  V30 9901 C 949.883 -0.508632 -3.33038 0
M  V30 9902 O 950.413 0.362828 -4.00058 0
M  V30 9903 N 948.619 -0.369667 -2.88239 0
M  V30 9904 H 948.166 -1.07984 -2.33875 0
M  V30 9905 H 948.124 0.468112 -3.10896 0
M  V30 9906 N 951.896 0.746133 -1.38819 0
M  V30 9907 C 953.312 1.0502 -1.20179 0
M  V30 9908 C 953.512 2.01423 -0.0556271 0
M  V30 9909 O 952.568 2.45359 0.59625 0
M  V30 9910 C 953.881 1.62315 -2.53129 0
M  V30 9911 C 955.429 1.74449 -2.59878 0
M  V30 9912 C 955.904 2.35155 -3.93022 0
M  V30 9913 N 957.395 2.42577 -3.94602 0
M  V30 9914 C 958.13 2.9046 -4.94389 0
M  V30 9915 N 957.626 3.38322 -6.04574 0
M  V30 9916 N 959.419 2.89568 -4.81775 0
M  V30 9917 H 951.57 0.106551 -2.12133 0
M  V30 9918 H 953.833 0.109897 -0.941609 0
M  V30 9919 H 953.539 0.98946 -3.37495 0
M  V30 9920 H 953.413 2.61276 -2.72057 0
M  V30 9921 H 955.8 2.36943 -1.75903 0
M  V30 9922 H 955.881 0.741721 -2.4481 0
M  V30 9923 H 955.525 1.73292 -4.77422 0
M  V30 9924 H 955.455 3.36088 -4.05404 0
M  V30 9925 H 957.946 2.08735 -3.15021 0
M  V30 9926 H 958.259 3.73336 -6.76639 0
M  V30 9927 H 956.604 3.3636 -6.08184 0
M  V30 9928 H 959.795 2.51492 -3.94803 0
M  V30 9929 H 959.968 3.26571 -5.59692 0
M  V30 9930 N 953.375 1.23811 0.975125 0
M  V30 9931 C 954.305 1.04846 2.08638 0
M  V30 9932 C 955.286 -0.0362859 1.70061 0
M  V30 9933 O 956.471 0.12937 1.93769 0
M  V30 9934 C 953.601 0.644534 3.41267 0
M  V30 9935 C 952.555 1.67722 3.93768 0
M  V30 9936 C 951.881 1.12857 5.22654 0
M  V30 9937 C 953.181 3.07147 4.22443 0
M  V30 9938 H 954.875 1.97795 2.24761 0
M  V30 9939 H 952.421 0.952397 1.08006 0
M  V30 9940 H 954.374 0.498887 4.18436 0
M  V30 9941 H 953.098 -0.320641 3.25022 0
M  V30 9942 H 951.757 1.81095 3.18748 0
M  V30 9943 H 951.405 0.154227 5.02764 0
M  V30 9944 H 951.105 1.81862 5.58749 0
M  V30 9945 H 952.629 0.994891 6.0244 0
M  V30 9946 H 954.043 2.97045 4.90344 0
M  V30 9947 H 952.44 3.73437 4.6975 0
M  V30 9948 H 953.51 3.55743 3.29507 0
M  V30 9949 N 954.853 -1.17469 1.05066 0
M  V30 9950 C 955.763 -2.25089 0.661222 0
M  V30 9951 C 956.779 -1.71086 -0.31712 0
M  V30 9952 O 957.955 -2.00685 -0.169534 0
M  V30 9953 C 955.02 -3.46676 0.0406415 0
M  V30 9954 C 954.081 -4.15771 1.06927 0
M  V30 9955 C 953.314 -5.31553 0.478208 0
M  V30 9956 O 953.537 -5.6593 -0.712714 0
M  V30 9957 O 952.471 -5.89574 1.21185 0
M  V30 9958 H 956.297 -2.60685 1.5581 0
M  V30 9959 H 953.882 -1.24744 0.822147 0
M  V30 9960 H 955.764 -4.203 -0.304312 0
M  V30 9961 H 954.439 -3.1288 -0.829909 0
M  V30 9962 H 953.346 -3.44171 1.46619 0
M  V30 9963 H 954.679 -4.53591 1.91092 0
M  V30 9964 N 956.331 -0.831506 -1.3388 0
M  V30 9965 C 957.241 -0.261688 -2.33136 0
M  V30 9966 C 958.257 0.608429 -1.63016 0
M  V30 9967 O 959.433 0.514297 -1.94723 0
M  V30 9968 C 956.498 0.559957 -3.42148 0
M  V30 9969 C 955.559 -0.333569 -4.28002 0
M  V30 9970 C 954.792 0.448956 -5.31808 0
M  V30 9971 O 955.015 1.6814 -5.45055 0
M  V30 9972 O 953.949 -0.173197 -6.01651 0
M  V30 9973 H 957.775 -1.08343 -2.83717 0
M  V30 9974 H 955.36 -0.593849 -1.3709 0
M  V30 9975 H 957.242 1.02712 -4.08691 0
M  V30 9976 H 955.917 1.35888 -2.93796 0
M  V30 9977 H 954.824 -0.848416 -3.64352 0
M  V30 9978 H 956.157 -1.09707 -4.79818 0
M  V30 9979 N 957.809 1.4625 -0.587256 0
M  V30 9980 C 959.055 2.02662 -0.0746851 0
M  V30 9981 C 959.388 1.45723 1.28368 0
M  V30 9982 O 958.663 0.624062 1.84216 0
M  V30 9983 C 958.946 3.60097 -0.0138109 0
M  V30 9984 C 958.799 4.27412 -1.4014 0
M  V30 9985 C 960.118 4.34744 0.684491 0
M  V30 9986 H 957.237 0.736444 -0.0286144 0
M  V30 9987 H 959.879 1.74341 -0.755328 0
M  V30 9988 H 958.029 3.84357 0.56583 0
M  V30 9989 H 959.701 4.14401 -2.02656 0
M  V30 9990 H 957.944 3.86598 -1.96785 0
M  V30 9991 H 958.615 5.362 -1.31124 0
M  V30 9992 H 961.091 4.15657 0.192023 0
M  V30 9993 H 959.967 5.44468 0.696127 0
M  V30 9994 H 960.228 4.06132 1.74669 0
M  V30 9995 N 959.287 0.325282 1.54207 0
M  V30 9996 C 960.512 -0.281418 2.05482 0
M  V30 9997 C 960.937 -1.44869 1.19977 0
M  V30 9998 O 960.295 -1.80088 0.209275 0
M  V30 9999 C 960.343 -0.692029 3.53897 0
M  V30 10000 O 959.447 -1.7942 3.71325 0
M  V30 10001 H 958.788 -0.0504872 0.662078 0
M  V30 10002 H 961.318 0.474191 1.99029 0
M  V30 10003 H 961.328 -0.974219 3.96198 0
M  V30 10004 H 960.003 0.161709 4.15586 0
M  V30 10005 H 958.58 -1.51069 3.40929 0
M  V30 10006 N 960.765 -1.57509 0.0534917 0
M  V30 10007 C 962.176 -1.80374 -0.481867 0
M  V30 10008 C 962.527 -0.965917 -1.70776 0
M  V30 10009 O 961.652 -0.183167 -2.15623 0
M  V30 10010 C 962.247 -3.27146 -0.880978 0
M  V30 10011 C 960.806 -3.50921 -1.3613 0
M  V30 10012 C 959.953 -2.75237 -0.337611 0
M  V30 10013 H 962.904 -1.56222 0.279353 0
M  V30 10014 H 962.925 -3.38193 -1.74373 0
M  V30 10015 H 962.437 -3.88098 0.011441 0
M  V30 10016 H 960.538 -2.95251 -2.27283 0
M  V30 10017 H 960.651 -4.59632 -1.35186 0
M  V30 10018 H 959.015 -2.41444 -0.810991 0
M  V30 10019 H 959.798 -3.38918 0.546763 0
M  V30 10020 N 962.243 0.219913 -1.56058 0
M  V30 10021 C 963.191 1.29215 -1.93407 0
M  V30 10022 C 964.185 1.48434 -0.816307 0
M  V30 10023 O 965.391 1.49589 -1.00115 0
M  V30 10024 H 961.766 0.433256 -0.614649 0
M  V30 10025 H 963.737 0.949977 -2.82875 0
M  V30 10026 C 962.486 2.63501 -2.26854 0
M  V30 10027 H 961.809 2.4952 -3.12377 0
M  V30 10028 H 963.249 3.37334 -2.56869 0
M  V30 10029 C 961.708 3.18634 -1.09425 0
M  V30 10030 O 962.238 4.00117 -0.356243 0
M  V30 10031 N 960.444 2.7703 -0.877642 0
M  V30 10032 H 959.991 2.10875 -1.47951 0
M  V30 10033 H 959.949 3.1426 -0.0936792 0
M  V30 10034 N 963.721 1.49897 0.486681 0
M  V30 10035 C 964.651 1.7054 1.59494 0
M  V30 10036 C 965.632 0.554184 1.60819 0
M  V30 10037 O 966.817 0.791617 1.77333 0
M  V30 10038 C 963.947 1.78517 2.97908 0
M  V30 10039 C 962.901 2.93571 3.11449 0
M  V30 10040 C 962.227 2.86674 4.51356 0
M  V30 10041 C 963.527 4.34308 2.90127 0
M  V30 10042 H 965.221 2.63329 1.42472 0
M  V30 10043 H 962.767 1.2672 0.683969 0
M  V30 10044 H 964.72 1.91544 3.75352 0
M  V30 10045 H 963.444 0.823381 3.16051 0
M  V30 10046 H 962.103 2.80169 2.36433 0
M  V30 10047 H 961.751 1.88373 4.66395 0
M  V30 10048 H 961.451 3.63903 4.61355 0
M  V30 10049 H 962.975 3.01728 5.30841 0
M  V30 10050 H 964.389 4.48317 3.57331 0
M  V30 10051 H 962.786 5.12869 3.11585 0
M  V30 10052 H 963.856 4.47759 1.86119 0
M  V30 10053 N 965.199 -0.738761 1.39212 0
M  V30 10054 C 966.445 -1.50046 1.36433 0
M  V30 10055 C 966.778 -1.94157 -0.0409474 0
M  V30 10056 O 966.053 -1.66515 -1.00514 0
M  V30 10057 C 966.336 -2.74277 2.33333 0
M  V30 10058 C 966.189 -2.36209 3.82786 0
M  V30 10059 C 967.508 -3.76361 2.28123 0
M  V30 10060 H 964.627 -0.544294 0.496903 0
M  V30 10061 H 967.269 -0.845005 1.70175 0
M  V30 10062 H 965.419 -3.30204 2.04689 0
M  V30 10063 H 967.091 -1.85942 4.22165 0
M  V30 10064 H 965.334 -1.68483 3.99745 0
M  V30 10065 H 966.005 -3.25156 4.46069 0
M  V30 10066 H 968.481 -3.30009 2.53443 0
M  V30 10067 H 967.357 -4.60957 2.9801 0
M  V30 10068 H 967.618 -4.23013 1.28499 0
M  V30 10069 N 966.677 -1.24326 -0.968545 0
M  V30 10070 C 968.093 -1.00847 -1.23701 0
M  V30 10071 C 968.293 0.283235 -1.99499 0
M  V30 10072 O 967.349 0.999607 -2.31871 0
M  V30 10073 C 968.662 -2.22295 -2.02498 0
M  V30 10074 C 970.21 -2.26911 -2.15593 0
M  V30 10075 C 970.685 -3.47978 -2.97784 0
M  V30 10076 N 972.176 -3.48289 -3.05367 0
M  V30 10077 C 972.911 -4.38625 -3.69318 0
M  V30 10078 N 972.407 -5.39213 -4.34995 0
M  V30 10079 N 974.2 -4.26339 -3.66322 0
M  V30 10080 H 966.351 -2.07335 -0.461087 0
M  V30 10081 H 968.614 -0.909805 -0.26638 0
M  V30 10082 H 968.32 -3.161 -1.54188 0
M  V30 10083 H 968.194 -2.24344 -3.03232 0
M  V30 10084 H 970.581 -1.33639 -2.63106 0
M  V30 10085 H 970.662 -2.28888 -1.14209 0
M  V30 10086 H 970.306 -4.41564 -2.50965 0
M  V30 10087 H 970.236 -3.43244 -3.99364 0
M  V30 10088 H 972.727 -2.75517 -2.58648 0
M  V30 10089 H 973.04 -6.04378 -4.81608 0
M  V30 10090 H 971.385 -5.43101 -4.33667 0
M  V30 10091 H 974.576 -3.46991 -3.14189 0
M  V30 10092 H 974.749 -4.9694 -4.15878 0
M  V30 10093 N 968.156 1.1691 -1.05688 0
M  V30 10094 C 969.386 1.90927 -0.789339 0
M  V30 10095 C 969.794 1.77339 0.659369 0
M  V30 10096 O 969.137 1.11147 1.4626 0
M  V30 10097 C 969.199 3.42361 -1.09677 0
M  V30 10098 C 968.863 3.79733 -2.54267 0
M  V30 10099 C 969.86 3.82163 -3.52487 0
M  V30 10100 C 967.545 4.10547 -2.89406 0
M  V30 10101 C 969.539 4.14884 -4.8389 0
M  V30 10102 C 967.226 4.42936 -4.21011 0
M  V30 10103 C 968.224 4.45084 -5.18063 0
M  V30 10104 O 967.912 4.76707 -6.47307 0
M  V30 10105 H 967.644 0.612466 -0.286115 0
M  V30 10106 H 970.198 1.4916 -1.4121 0
M  V30 10107 H 968.428 3.84446 -0.416924 0
M  V30 10108 H 970.117 3.97645 -0.814456 0
M  V30 10109 H 970.883 3.58476 -3.26681 0
M  V30 10110 H 966.762 4.08044 -2.14525 0
M  V30 10111 H 970.306 4.16475 -5.59638 0
M  V30 10112 H 966.203 4.66088 -4.46579 0
M  V30 10113 H 966.971 4.94544 -6.52203 0
M  V30 10114 N 969.634 0.838594 1.33437 0
M  V30 10115 C 970.911 0.356112 1.92331 0
M  V30 10116 C 971.291 -1.1585 1.76471 0
M  V30 10117 O 970.639 -1.97281 1.15293 0
M  V30 10118 C 970.849 0.802715 3.39643 0
M  V30 10119 C 972.197 0.810575 4.16791 0
M  V30 10120 O 973.221 0.746304 3.48294 0
M  V30 10121 O 972.08 0.898082 5.3907 0
M  V30 10122 H 969.174 0.100711 0.820845 0
M  V30 10123 H 971.72 0.924428 1.42311 0
M  V30 10124 H 970.492 1.84529 3.45057 0
M  V30 10125 H 970.115 0.210956 3.9704 0
M  V30 10126 N 971.112 -1.45937 0.595003 0
M  V30 10127 C 972.389 -1.95592 0.0178748 0
M  V30 10128 C 972.769 -1.53758 -1.44643 0
M  V30 10129 O 972.117 -0.794104 -2.14257 0
M  V30 10130 C 972.327 -3.4841 0.202789 0
M  V30 10131 C 973.675 -4.2453 0.0770121 0
M  V30 10132 O 974.699 -3.55954 0.132257 0
M  V30 10133 O 973.558 -5.46479 -0.0484271 0
M  V30 10134 H 970.652 -0.825888 -0.0428702 0
M  V30 10135 H 973.198 -1.56162 0.664184 0
M  V30 10136 H 971.97 -3.71787 1.22027 0
M  V30 10137 H 971.593 -3.947 -0.479376 0
M  V30 10138 N 972.59 -0.333456 -1.54032 0
M  V30 10139 C 973.839 0.267081 -1.99924 0
M  V30 10140 C 974.152 1.52463 -1.22534 0
M  V30 10141 O 975.358 2.20178 -1.58852 0
M  V30 10142 C 973.814 0.526456 -3.56029 0
M  V30 10143 C 973.422 -0.714607 -4.42264 0
M  V30 10144 C 975.166 1.0864 -4.10363 0
M  V30 10145 C 973.073 -0.42659 -5.89859 0
M  V30 10146 H 972.003 0.103577 -0.746852 0
M  V30 10147 H 974.654 -0.447218 -1.77967 0
M  V30 10148 H 973.036 1.3012 -3.74012 0
M  V30 10149 H 974.21 -1.48968 -4.36056 0
M  V30 10150 H 972.525 -1.19547 -3.9887 0
M  V30 10151 H 975.122 1.31668 -5.18235 0
M  V30 10152 H 975.465 2.03884 -3.62956 0
M  V30 10153 H 975.998 0.37261 -3.96051 0
M  V30 10154 H 972.737 -1.34847 -6.4148 0
M  V30 10155 H 972.257 0.310588 -5.98995 0
M  V30 10156 H 973.936 -0.0400807 -6.46988 0
M  V30 10157 N 974.068 1.57479 -0.061844 0
M  V30 10158 C 974.978 2.15645 0.923826 0
M  V30 10159 C 975.994 1.117 1.33413 0
M  V30 10160 O 977.17 1.4392 1.40887 0
M  V30 10161 C 974.235 2.69857 2.17665 0
M  V30 10162 C 973.296 3.88638 1.8237 0
M  V30 10163 C 972.529 4.40256 3.01679 0
M  V30 10164 O 972.752 3.90908 4.15388 0
M  V30 10165 O 971.686 5.31713 2.82073 0
M  V30 10166 H 975.512 3.0021 0.459094 0
M  V30 10167 H 973.097 1.48534 0.160665 0
M  V30 10168 H 974.979 3.04647 2.9115 0
M  V30 10169 H 973.654 1.88357 2.63255 0
M  V30 10170 H 972.561 3.58719 1.06167 0
M  V30 10171 H 973.894 4.71401 1.4157 0
M  V30 10172 N 975.546 -0.211634 1.56173 0
M  V30 10173 C 976.794 -0.932704 1.7929 0
M  V30 10174 C 977.115 -1.84472 0.632076 0
M  V30 10175 O 976.385 -1.92739 -0.350519 0
M  V30 10176 H 974.965 -0.347393 0.661307 0
M  V30 10177 H 977.627 -0.22111 1.93642 0
M  V30 10178 H 976.723 -1.53365 2.71819 0
M  V30 10179 N 977.024 -1.50153 -0.478725 0
M  V30 10180 C 977.987 -1.67916 -1.56003 0
M  V30 10181 C 978.987 -0.550111 -1.51097 0
M  V30 10182 O 980.177 -0.817001 -1.53853 0
M  V30 10183 C 977.309 -1.6973 -2.95643 0
M  V30 10184 H 978.502 -2.6438 -1.41573 0
M  V30 10185 H 976.055 -1.39519 -0.704565 0
M  V30 10186 H 976.79 -0.749306 -3.15525 0
M  V30 10187 H 976.575 -2.51745 -3.00611 0
M  V30 10188 H 978.065 -1.85453 -3.74162 0
M  V30 10189 N 978.502 0.731368 -1.39602 0
M  V30 10190 C 979.45 1.86676 -1.38761 0
M  V30 10191 C 980.444 1.6723 -0.270247 0
M  V30 10192 O 981.65 1.74528 -0.440471 0
M  V30 10193 H 978.025 0.614553 -0.433391 0
M  V30 10194 H 979.996 1.84501 -2.34525 0
M  V30 10195 C 978.745 3.24394 -1.25155 0
M  V30 10196 H 978.068 3.39955 -2.10406 0
M  V30 10197 H 979.508 4.04019 -1.28625 0
M  V30 10198 C 977.967 3.36877 0.0396976 0
M  V30 10199 O 978.497 3.88833 1.00854 0
M  V30 10200 N 976.703 2.90414 0.103965 0
M  V30 10201 H 976.25 2.48321 -0.685155 0
M  V30 10202 H 976.208 2.99146 0.967435 0
M  V30 10203 N 979.98 1.24838 0.961938 0
M  V30 10204 C 981.21 1.11709 1.73795 0
M  V30 10205 C 981.618 -0.33263 1.86253 0
M  V30 10206 O 980.961 -1.24101 1.35443 0
M  V30 10207 C 981.023 1.68959 3.17322 0
M  V30 10208 C 980.687 3.17895 3.28316 0
M  V30 10209 C 981.684 4.14975 3.13196 0
M  V30 10210 C 979.369 3.57966 3.52372 0
M  V30 10211 C 981.363 5.50107 3.21965 0
M  V30 10212 C 979.05 4.93237 3.60778 0
M  V30 10213 C 980.048 5.89116 3.45588 0
M  V30 10214 O 979.736 7.21927 3.53662 0
M  V30 10215 H 979.468 0.390726 0.551642 0
M  V30 10216 H 982.022 1.65541 1.21594 0
M  V30 10217 H 980.252 1.09567 3.70853 0
M  V30 10218 H 981.941 1.51036 3.76753 0
M  V30 10219 H 982.707 3.85359 2.94489 0
M  V30 10220 H 978.586 2.83837 3.63259 0
M  V30 10221 H 982.13 6.24924 3.10025 0
M  V30 10222 H 978.027 5.22522 3.79 0
M  V30 10223 H 978.795 7.29925 3.7034 0
M  V30 10224 N 981.458 -1.16348 1.06306 0
M  V30 10225 C 982.705 -1.86881 0.779852 0
M  V30 10226 C 983.033 -1.8171 -0.693668 0
M  V30 10227 O 982.288 -1.22769 -1.52401 0
M  V30 10228 C 982.587 -3.35936 1.21991 0
M  V30 10229 C 982.253 -3.61307 2.69756 0
M  V30 10230 C 980.915 -3.6794 3.10119 0
M  V30 10231 C 983.267 -3.71871 3.65187 0
M  V30 10232 C 980.595 -3.82639 4.44752 0
M  V30 10233 C 982.947 -3.88091 4.99568 0
M  V30 10234 C 981.611 -3.92967 5.39568 0
M  V30 10235 H 980.881 -0.683847 0.285368 0
M  V30 10236 H 983.528 -1.37569 1.33218 0
M  V30 10237 H 981.833 -3.87381 0.586774 0
M  V30 10238 H 983.53 -3.88895 0.977821 0
M  V30 10239 H 980.12 -3.56777 2.37504 0
M  V30 10240 H 984.304 -3.66057 3.35136 0
M  V30 10241 H 979.56 -3.84666 4.75228 0
M  V30 10242 H 983.734 -3.95207 5.73397 0
M  V30 10243 H 981.361 -4.04109 6.43895 0
M  V30 10244 N 982.937 -0.845659 -1.3299 0
M  V30 10245 C 983.869 -0.241097 -2.27928 0
M  V30 10246 C 984.882 0.582048 -1.5204 0
M  V30 10247 O 986.071 0.408008 -1.73774 0
M  V30 10248 C 983.171 0.678652 -3.32035 0
M  V30 10249 C 982.344 -0.106652 -4.3727 0
M  V30 10250 C 981.403 0.737478 -5.21006 0
M  V30 10251 O 980.429 0.174231 -5.68933 0
M  V30 10252 N 981.631 2.05372 -5.42957 0
M  V30 10253 H 984.396 -1.05685 -2.80448 0
M  V30 10254 H 981.957 -0.704771 -1.45755 0
M  V30 10255 H 983.949 1.24849 -3.84961 0
M  V30 10256 H 982.519 1.3951 -2.79742 0
M  V30 10257 H 981.739 -0.857897 -3.84752 0
M  V30 10258 H 983.027 -0.646386 -5.04677 0
M  V30 10259 H 982.425 2.53478 -5.05733 0
M  V30 10260 H 980.982 2.5719 -5.98913 0
M  V30 10261 N 984.415 1.45619 -0.602734 0
M  V30 10262 C 985.347 2.28662 0.157012 0
M  V30 10263 C 986.36 1.39672 0.836396 0
M  V30 10264 O 987.549 1.64091 0.702599 0
M  V30 10265 C 984.649 3.1528 1.24306 0
M  V30 10266 C 983.822 4.32517 0.651731 0
M  V30 10267 C 982.881 5.00381 1.62804 0
M  V30 10268 O 981.907 5.57333 1.15624 0
M  V30 10269 N 983.109 4.99221 2.96241 0
M  V30 10270 H 985.874 2.94506 -0.555535 0
M  V30 10271 H 983.435 1.55753 -0.441881 0
M  V30 10272 H 985.427 3.57544 1.8959 0
M  V30 10273 H 983.997 2.51376 1.85819 0
M  V30 10274 H 983.217 3.93793 -0.17907 0
M  V30 10275 H 984.505 5.08249 0.236802 0
M  V30 10276 H 983.903 4.54232 3.37179 0
M  V30 10277 H 982.46 5.45364 3.56961 0
M  V30 10278 N 985.893 0.34162 1.53853 0
M  V30 10279 C 986.856 -0.503541 2.236 0
M  V30 10280 C 987.856 -1.02912 1.23554 0
M  V30 10281 O 989.046 -0.918678 1.48007 0
M  V30 10282 C 986.178 -1.70126 2.95415 0
M  V30 10283 H 987.371 0.106437 2.99711 0
M  V30 10284 H 984.924 0.0929408 1.56023 0
M  V30 10285 H 985.659 -2.34999 2.23486 0
M  V30 10286 H 985.444 -1.33161 3.68796 0
M  V30 10287 H 986.934 -2.30077 3.48503 0
M  V30 10288 N 987.371 -1.57444 0.0701946 0
M  V30 10289 C 988.319 -2.13834 -0.915302 0
M  V30 10290 C 989.313 -1.07483 -1.30934 0
M  V30 10291 O 990.519 -1.25865 -1.28678 0
M  V30 10292 H 986.894 -0.683716 -0.313108 0
M  V30 10293 H 988.865 -2.95503 -0.414758 0
M  V30 10294 C 987.614 -2.71355 -2.17398 0
M  V30 10295 H 986.937 -3.52861 -1.87961 0
M  V30 10296 H 988.377 -3.1441 -2.84469 0
M  V30 10297 C 986.836 -1.66038 -2.93143 0
M  V30 10298 O 987.366 -1.08443 -3.86786 0
M  V30 10299 N 985.572 -1.3711 -2.56221 0
M  V30 10300 H 985.119 -1.84135 -1.80145 0
M  V30 10301 H 985.077 -0.66877 -3.07205 0
M  V30 10302 N 988.849 0.203349 -1.56283 0
M  V30 10303 C 989.759 1.27266 -1.9708 0
M  V30 10304 C 990.775 1.50268 -0.877236 0
M  V30 10305 O 991.951 1.63044 -1.18231 0
M  V30 10306 C 989.016 2.59871 -2.29495 0
M  V30 10307 C 988.077 2.45012 -3.52516 0
M  V30 10308 C 987.31 3.71293 -3.83376 0
M  V30 10309 O 987.533 4.75106 -3.15643 0
M  V30 10310 O 986.467 3.67316 -4.76826 0
M  V30 10311 H 990.293 0.956461 -2.88246 0
M  V30 10312 H 987.878 0.407688 -1.4373 0
M  V30 10313 H 989.76 3.38152 -2.51458 0
M  V30 10314 H 988.435 2.91135 -1.415 0
M  V30 10315 H 987.342 1.6487 -3.35811 0
M  V30 10316 H 988.675 2.18683 -4.40952 0
M  V30 10317 N 990.327 1.50405 0.470755 0
M  V30 10318 C 991.257 1.72222 1.57676 0
M  V30 10319 C 992.238 0.57121 1.60222 0
M  V30 10320 O 993.423 0.810381 1.76484 0
M  V30 10321 C 990.553 1.81666 2.95998 0
M  V30 10322 C 989.507 2.96857 3.08318 0
M  V30 10323 C 988.833 2.91445 4.4829 0
M  V30 10324 C 990.133 4.37361 2.85504 0
M  V30 10325 H 991.827 2.64825 1.39671 0
M  V30 10326 H 989.373 1.27438 0.67049 0
M  V30 10327 H 991.326 1.95514 3.73299 0
M  V30 10328 H 990.05 0.856856 3.1516 0
M  V30 10329 H 988.709 2.82661 2.33449 0
M  V30 10330 H 988.357 1.93309 4.64371 0
M  V30 10331 H 988.057 3.68776 4.57469 0
M  V30 10332 H 989.581 3.07341 5.27611 0
M  V30 10333 H 990.995 4.52081 3.52555 0
M  V30 10334 H 989.392 5.16145 3.06127 0
M  V30 10335 H 990.462 4.49708 1.81359 0
M  V30 10336 N 991.805 -0.723954 1.39988 0
M  V30 10337 C 993.03 -1.5182 1.41299 0
M  V30 10338 C 993.455 -1.88096 0.0122636 0
M  V30 10339 O 992.813 -1.52687 -0.977559 0
M  V30 10340 C 992.861 -2.77532 2.30235 0
M  V30 10341 O 991.965 -3.73903 1.73984 0
M  V30 10342 H 991.306 -0.458058 0.480707 0
M  V30 10343 H 993.836 -0.892291 1.84118 0
M  V30 10344 H 993.846 -3.2615 2.45132 0
M  V30 10345 H 992.521 -2.50462 3.32026 0
M  V30 10346 H 991.098 -3.32715 1.68389 0
M  V30 10347 N 993.283 -1.25346 -0.955304 0
M  V30 10348 C 994.23 -1.05672 -2.05188 0
M  V30 10349 C 995.2 0.0339217 -1.66065 0
M  V30 10350 O 996.385 -0.123126 -1.90402 0
M  V30 10351 C 993.525 -0.680791 -3.38318 0
M  V30 10352 C 992.638 -1.84622 -3.90562 0
M  V30 10353 C 991.773 -1.41471 -5.12015 0
M  V30 10354 C 990.812 -2.54931 -5.56486 0
M  V30 10355 N 989.949 -2.1256 -6.69151 0
M  V30 10356 H 994.789 -1.9952 -2.2135 0
M  V30 10357 H 992.326 -0.993588 -1.08472 0
M  V30 10358 H 994.284 -0.443794 -4.14833 0
M  V30 10359 H 992.914 0.2207 -3.22045 0
M  V30 10360 H 991.966 -2.19654 -3.10574 0
M  V30 10361 H 993.278 -2.6983 -4.19515 0
M  V30 10362 H 992.432 -1.13732 -5.95945 0
M  V30 10363 H 991.171 -0.533334 -4.84775 0
M  V30 10364 H 990.176 -2.83415 -4.71122 0
M  V30 10365 H 991.401 -3.43645 -5.85734 0
M  V30 10366 H 989.347 -1.26838 -6.43621 0
M  V30 10367 H 989.264 -2.91317 -6.97618 0
M  V30 10368 H 990.532 -1.87996 -7.5649 0
M  V30 10369 N 994.761 1.15782 -1.06922 0
M  V30 10370 C 995.691 2.22538 -0.707045 0
M  V30 10371 C 996.672 1.67371 0.303471 0
M  V30 10372 O 997.857 1.9339 0.177189 0
M  V30 10373 C 994.987 3.47158 -0.0994269 0
M  V30 10374 C 993.941 4.15257 -1.03661 0
M  V30 10375 C 993.267 5.33902 -0.291974 0
M  V30 10376 C 994.567 4.65516 -2.36837 0
M  V30 10377 H 996.261 2.53089 -1.59958 0
M  V30 10378 H 993.807 1.21649 -0.770552 0
M  V30 10379 H 995.76 4.21073 0.165852 0
M  V30 10380 H 994.484 3.15926 0.828155 0
M  V30 10381 H 993.143 3.43276 -1.28674 0
M  V30 10382 H 992.791 4.98926 0.638928 0
M  V30 10383 H 992.491 5.80407 -0.916613 0
M  V30 10384 H 994.015 6.1059 -0.0343915 0
M  V30 10385 H 995.429 5.30981 -2.16175 0
M  V30 10386 H 993.826 5.22666 -2.94856 0
M  V30 10387 H 994.896 3.81387 -2.99453 0
M  V30 10388 N 996.239 0.8527 1.3254 0
M  V30 10389 C 997.485 0.455798 1.97612 0
M  V30 10390 C 997.818 -0.985616 1.6733 0
M  V30 10391 O 997.093 -1.69129 0.960493 0
M  V30 10392 C 997.376 0.69312 3.53366 0
M  V30 10393 C 997.229 2.18281 3.93285 0
M  V30 10394 C 998.548 0.148236 4.3985 0
M  V30 10395 H 995.667 0.167078 0.717812 0
M  V30 10396 H 998.309 1.07076 1.56954 0
M  V30 10397 H 996.459 0.169677 3.88129 0
M  V30 10398 H 998.131 2.77218 3.68711 0
M  V30 10399 H 996.374 2.66206 3.42515 0
M  V30 10400 H 997.045 2.29957 5.01821 0
M  V30 10401 H 999.521 0.595834 4.11812 0
M  V30 10402 H 998.397 0.343873 5.47822 0
M  V30 10403 H 998.658 -0.948872 4.31797 0
M  V30 10404 N 997.718 -1.45297 0.610449 0
M  V30 10405 C 998.666 -2.32295 -0.119167 0
M  V30 10406 C 999.66 -1.46138 -0.856746 0
M  V30 10407 O 1000.87 -1.62605 -0.771988 0
M  V30 10408 H 997.241 -0.749815 -0.0572881 0
M  V30 10409 H 999.212 -2.91609 0.63297 0
M  V30 10410 C 997.961 -3.29802 -1.10119 0
M  V30 10411 H 997.284 -3.96095 -0.543063 0
M  V30 10412 H 998.724 -3.93398 -1.58158 0
M  V30 10413 C 997.183 -2.57185 -2.17617 0
M  V30 10414 O 997.713 -2.35535 -3.25401 0
M  V30 10415 N 995.919 -2.17272 -1.9298 0
M  V30 10416 H 995.466 -2.3508 -1.05334 0
M  V30 10417 H 995.424 -1.69009 -2.6511 0
M  V30 10418 N 999.196 -0.349774 -1.5367 0
M  V30 10419 C 1000.13 0.538575 -2.22782 0
M  V30 10420 C 1001.14 1.05896 -1.23652 0
M  V30 10421 O 1002.33 0.968045 -1.4997 0
M  V30 10422 C 999.43 1.7546 -2.89943 0
M  V30 10423 C 998.603 1.36843 -4.15443 0
M  V30 10424 C 997.662 2.4448 -4.65957 0
M  V30 10425 O 996.688 2.07528 -5.3002 0
M  V30 10426 N 997.89 3.75829 -4.42417 0
M  V30 10427 H 1000.65 -0.053348 -2.99653 0
M  V30 10428 H 998.216 -0.174193 -1.6096 0
M  V30 10429 H 1000.21 2.46911 -3.20651 0
M  V30 10430 H 998.778 2.25375 -2.16622 0
M  V30 10431 H 997.998 0.484421 -3.91212 0
M  V30 10432 H 999.286 1.0865 -4.97064 0
M  V30 10433 H 998.684 4.08635 -3.91196 0
M  V30 10434 H 997.241 4.43432 -4.77714 0
M  V30 10435 N 1000.67 1.57404 -0.0785433 0
M  V30 10436 C 1001.61 2.101 0.916013 0
M  V30 10437 C 1002.62 1.03459 1.25698 0
M  V30 10438 O 1003.81 1.30954 1.21299 0
M  V30 10439 C 1000.91 2.55202 2.22992 0
M  V30 10440 C 1000.08 3.85491 2.06678 0
M  V30 10441 C 999.14 4.16614 3.21433 0
M  V30 10442 O 998.166 4.86105 2.96126 0
M  V30 10443 N 999.368 3.70697 4.46726 0
M  V30 10444 H 1002.13 2.96054 0.466059 0
M  V30 10445 H 999.694 1.61546 0.107006 0
M  V30 10446 H 1001.69 2.7308 2.9868 0
M  V30 10447 H 1000.26 1.74348 2.59464 0
M  V30 10448 H 999.476 3.76925 1.15417 0
M  V30 10449 H 1000.76 4.70759 1.93036 0
M  V30 10450 H 1000.16 3.14571 4.70172 0
M  V30 10451 H 998.719 3.93762 5.19418 0
M  V30 10452 N 1002.15 -0.195058 1.56388 0
M  V30 10453 C 1003.08 -1.24444 1.97575 0
M  V30 10454 C 1004.06 -1.47471 0.847717 0
M  V30 10455 O 1005.25 -1.59208 1.11205 0
M  V30 10456 C 1002.38 -2.58866 2.31529 0
M  V30 10457 C 1001.33 -2.50451 3.47071 0
M  V30 10458 C 1000.66 -3.89146 3.667 0
M  V30 10459 C 1001.96 -2.02953 4.81256 0
M  V30 10460 H 1003.65 -0.902178 2.85484 0
M  V30 10461 H 1001.2 -0.43254 1.3735 0
M  V30 10462 H 1003.15 -3.3246 2.58936 0
M  V30 10463 H 1001.87 -2.94833 1.40502 0
M  V30 10464 H 1000.53 -1.79313 3.19754 0
M  V30 10465 H 1000.18 -4.22466 2.73004 0
M  V30 10466 H 999.882 -3.84391 4.44429 0
M  V30 10467 H 1001.41 -4.64363 3.96484 0
M  V30 10468 H 1002.82 -2.66306 5.07695 0
M  V30 10469 H 1001.22 -2.092 5.62455 0
M  V30 10470 H 1002.29 -0.982757 4.74837 0
M  V30 10471 N 1003.63 -1.50653 -0.462772 0
M  V30 10472 C 1004.56 -1.73056 -1.5676 0
M  V30 10473 C 1005.54 -0.579699 -1.59917 0
M  V30 10474 O 1006.73 -0.819729 -1.76051 0
M  V30 10475 C 1003.86 -1.83234 -2.9503 0
M  V30 10476 C 1002.81 -2.98488 -3.06739 0
M  V30 10477 C 1002.14 -2.93818 -4.46738 0
M  V30 10478 C 1003.44 -4.38869 -2.83181 0
M  V30 10479 H 1005.13 -2.65562 -1.38265 0
M  V30 10480 H 1002.68 -1.27792 -0.663722 0
M  V30 10481 H 1004.63 -1.97491 -3.72257 0
M  V30 10482 H 1003.35 -0.873558 -3.14701 0
M  V30 10483 H 1002.01 -2.83895 -2.31946 0
M  V30 10484 H 1001.66 -1.95769 -4.63339 0
M  V30 10485 H 1001.36 -3.71197 -4.55507 0
M  V30 10486 H 1002.88 -3.10135 -5.25974 0
M  V30 10487 H 1004.3 -4.53945 -3.50153 0
M  V30 10488 H 1002.69 -5.17762 -3.03386 0
M  V30 10489 H 1003.76 -4.50663 -1.78972 0
M  V30 10490 N 1005.11 0.71652 -1.4037 0
M  V30 10491 C 1006.07 1.81231 -1.40313 0
M  V30 10492 C 1007.07 1.58032 -0.297087 0
M  V30 10493 O 1008.26 1.65091 -0.555944 0
M  V30 10494 C 1005.39 3.19308 -1.19395 0
M  V30 10495 H 1006.59 1.8268 -2.3784 0
M  V30 10496 H 1004.14 0.922062 -1.26205 0
M  V30 10497 H 1004.87 3.2351 -0.226252 0
M  V30 10498 H 1004.66 3.37546 -1.99512 0
M  V30 10499 H 1006.15 3.99339 -1.22141 0
M  V30 10500 N 1006.59 1.25851 0.948643 0
M  V30 10501 C 1007.86 1.01717 1.67072 0
M  V30 10502 C 1008.24 -0.454749 2.06144 0
M  V30 10503 O 1007.59 -1.43345 1.77945 0
M  V30 10504 C 1007.8 1.95872 2.88852 0
M  V30 10505 C 1009.15 2.24057 3.60671 0
M  V30 10506 O 1010.17 1.93678 2.98944 0
M  V30 10507 O 1009.03 2.75745 4.71833 0
M  V30 10508 H 1006.13 0.386198 0.731287 0
M  V30 10509 H 1008.67 1.37031 1.00104 0
M  V30 10510 H 1007.44 2.95233 2.56814 0
M  V30 10511 H 1007.07 1.60992 3.63548 0
M  V30 10512 N 1008.06 -1.15214 1.07534 0
M  V30 10513 C 1009.48 -1.67628 0.822045 0
M  V30 10514 C 1009.83 -1.8503 -0.652571 0
M  V30 10515 O 1008.95 -1.55497 -1.50498 0
M  V30 10516 C 1009.55 -3.04489 1.48566 0
M  V30 10517 C 1008.11 -3.53974 1.27983 0
M  V30 10518 C 1007.25 -2.29656 1.55414 0
M  V30 10519 H 1010.2 -0.994016 1.23713 0
M  V30 10520 H 1010.22 -3.69509 0.907916 0
M  V30 10521 H 1009.74 -2.91792 2.55888 0
M  V30 10522 H 1007.84 -3.71908 0.226906 0
M  V30 10523 H 1007.95 -4.35298 2.0013 0
M  V30 10524 H 1006.31 -2.35289 0.975251 0
M  V30 10525 H 1007.1 -2.19544 2.63923 0
M  V30 10526 N 1009.54 -0.859717 -1.32086 0
M  V30 10527 C 1010.47 -0.323502 -2.31248 0
M  V30 10528 C 1011.45 0.580085 -1.59903 0
M  V30 10529 O 1012.64 0.499265 -1.87673 0
M  V30 10530 C 1009.77 0.484661 -3.43902 0
M  V30 10531 C 1008.72 -0.324933 -4.26765 0
M  V30 10532 C 1008.05 0.608281 -5.31229 0
M  V30 10533 C 1009.35 -1.55344 -4.98664 0
M  V30 10534 H 1011.04 -1.15209 -2.76346 0
M  V30 10535 H 1008.59 -0.555442 -1.32856 0
M  V30 10536 H 1010.54 0.870238 -4.12316 0
M  V30 10537 H 1009.27 1.34666 -2.97544 0
M  V30 10538 H 1007.92 -0.692328 -3.60003 0
M  V30 10539 H 1007.57 1.46727 -4.81124 0
M  V30 10540 H 1007.27 0.0705571 -5.87558 0
M  V30 10541 H 1008.8 0.990925 -6.02506 0
M  V30 10542 H 1010.21 -1.23987 -5.59732 0
M  V30 10543 H 1008.61 -2.02947 -5.64741 0
M  V30 10544 H 1009.68 -2.31192 -4.26237 0
M  V30 10545 N 1011.02 1.44971 -0.618145 0
M  V30 10546 C 1012.27 2.02458 -0.117656 0
M  V30 10547 C 1012.6 1.48413 1.25248 0
M  V30 10548 O 1011.87 0.662997 1.82851 0
M  V30 10549 C 1012.16 3.59987 -0.0901897 0
M  V30 10550 C 1012.01 4.24343 -1.49175 0
M  V30 10551 C 1013.33 4.36099 0.592121 0
M  V30 10552 H 1010.45 0.735672 -0.0442291 0
M  V30 10553 H 1013.09 1.727 -0.792138 0
M  V30 10554 H 1011.24 3.85471 0.484175 0
M  V30 10555 H 1012.91 4.10009 -2.114 0
M  V30 10556 H 1011.16 3.82337 -2.04941 0
M  V30 10557 H 1011.83 5.33298 -1.42468 0
M  V30 10558 H 1014.3 4.1597 0.103813 0
M  V30 10559 H 1013.18 5.45822 0.580481 0
M  V30 10560 H 1013.44 4.09746 1.66015 0
M  V30 10561 N 1012.5 0.357919 1.53482 0
M  V30 10562 C 1013.91 -0.122938 1.86295 0
M  V30 10563 C 1014.26 -1.48803 1.27875 0
M  V30 10564 O 1013.39 -2.07978 0.597828 0
M  V30 10565 C 1013.98 -0.229853 3.38019 0
M  V30 10566 C 1012.54 -0.654955 3.70658 0
M  V30 10567 C 1011.69 0.202539 2.76559 0
M  V30 10568 H 1014.64 0.576997 1.47839 0
M  V30 10569 H 1014.66 -1.05481 3.65587 0
M  V30 10570 H 1014.17 0.763825 3.80509 0
M  V30 10571 H 1012.27 -1.65714 3.33721 0
M  V30 10572 H 1012.38 -0.43488 4.77122 0
M  V30 10573 H 1010.75 -0.327388 2.52587 0
M  V30 10574 H 1011.53 1.19361 3.21882 0
M  V30 10575 N 1013.98 -1.5736 0.0868897 0
M  V30 10576 C 1015.39 -1.81356 -0.443499 0
M  V30 10577 C 1015.74 -1.00192 -1.68689 0
M  V30 10578 O 1014.86 -0.228863 -2.15186 0
M  V30 10579 C 1015.46 -3.28941 -0.811387 0
M  V30 10580 C 1014.02 -3.53729 -1.28656 0
M  V30 10581 C 1013.16 -2.75891 -0.279153 0
M  V30 10582 H 1016.12 -1.55594 0.312427 0
M  V30 10583 H 1016.14 -3.41815 -1.6716 0
M  V30 10584 H 1015.65 -3.87987 0.0937598 0
M  V30 10585 H 1013.75 -3.00005 -2.2097 0
M  V30 10586 H 1013.86 -4.62396 -1.25406 0
M  V30 10587 H 1012.23 -2.4311 -0.759595 0
M  V30 10588 H 1013.01 -3.37682 0.618529 0
M  V30 10589 N 1015.45 0.186762 -1.56489 0
M  V30 10590 C 1016.39 1.25565 -1.91745 0
M  V30 10591 C 1017.4 1.4128 -0.80894 0
M  V30 10592 O 1018.59 1.41558 -1.08737 0
M  V30 10593 C 1015.69 2.62662 -2.14154 0
M  V30 10594 C 1014.86 2.68448 -3.45333 0
M  V30 10595 C 1013.92 3.86798 -3.56754 0
M  V30 10596 O 1012.95 3.73514 -4.29507 0
M  V30 10597 N 1014.15 5.02607 -2.90459 0
M  V30 10598 H 1016.91 0.956351 -2.84032 0
M  V30 10599 H 1014.47 0.376631 -1.57458 0
M  V30 10600 H 1016.47 3.40277 -2.19075 0
M  V30 10601 H 1015.04 2.85046 -1.28326 0
M  V30 10602 H 1014.26 1.77044 -3.52206 0
M  V30 10603 H 1015.54 2.69311 -4.31682 0
M  V30 10604 H 1014.94 5.163 -2.31194 0
M  V30 10605 H 1013.5 5.78139 -3.00996 0
M  V30 10606 N 1016.93 1.50896 0.454776 0
M  V30 10607 C 1017.86 1.73885 1.5584 0
M  V30 10608 C 1018.84 0.588172 1.59607 0
M  V30 10609 O 1020.03 0.829054 1.75614 0
M  V30 10610 C 1017.16 1.84796 2.94054 0
M  V30 10611 C 1016.11 3.00111 3.05152 0
M  V30 10612 C 1015.44 2.96183 4.45174 0
M  V30 10613 C 1016.74 4.40365 2.80849 0
M  V30 10614 H 1018.43 2.66292 1.36854 0
M  V30 10615 H 1015.98 1.28142 0.656936 0
M  V30 10616 H 1017.93 1.99462 3.71204 0
M  V30 10617 H 1016.66 0.890235 3.14233 0
M  V30 10618 H 1015.31 2.85121 2.30438 0
M  V30 10619 H 1014.96 1.98224 4.62295 0
M  V30 10620 H 1014.66 3.73608 4.53532 0
M  V30 10621 H 1016.19 3.1292 5.24322 0
M  V30 10622 H 1017.6 4.55795 3.47741 0
M  V30 10623 H 1016 5.19363 3.00636 0
M  V30 10624 H 1017.07 4.51606 1.76579 0
M  V30 10625 N 1018.41 -0.709066 1.40748 0
M  V30 10626 C 1019.64 -1.49808 1.42707 0
M  V30 10627 C 1020.05 -1.88778 0.0285574 0
M  V30 10628 O 1019.41 -1.55883 -0.949035 0
M  V30 10629 C 1019.46 -2.76926 2.32366 0
M  V30 10630 O 1019.18 -2.39602 3.66773 0
M  V30 10631 C 1020.68 -3.70773 2.42986 0
M  V30 10632 H 1017.9 -0.462106 0.486517 0
M  V30 10633 H 1020.45 -0.874135 1.84876 0
M  V30 10634 H 1018.6 -3.3559 1.93541 0
M  V30 10635 H 1019.02 -3.21443 4.14457 0
M  V30 10636 H 1020.49 -4.56789 3.09916 0
M  V30 10637 H 1020.97 -4.14332 1.45691 0
M  V30 10638 H 1021.57 -3.18019 2.8239 0
M  V30 10639 N 1019.89 -1.26353 -0.941956 0
M  V30 10640 C 1021.14 -1.11241 -1.68251 0
M  V30 10641 C 1021.45 0.344055 -1.9255 0
M  V30 10642 O 1022.66 0.615832 -2.64423 0
M  V30 10643 C 1021.11 -1.94269 -3.02965 0
M  V30 10644 C 1020.72 -3.44485 -2.86415 0
M  V30 10645 C 1022.47 -1.87764 -3.80716 0
M  V30 10646 C 1020.37 -4.19763 -4.16597 0
M  V30 10647 H 1019.3 -0.412694 -0.63103 0
M  V30 10648 H 1021.95 -1.50656 -1.04762 0
M  V30 10649 H 1020.34 -1.47687 -3.6743 0
M  V30 10650 H 1021.51 -3.9883 -2.30805 0
M  V30 10651 H 1019.82 -3.52218 -2.22107 0
M  V30 10652 H 1022.42 -2.41292 -4.77161 0
M  V30 10653 H 1022.76 -0.848195 -4.07568 0
M  V30 10654 H 1023.3 -2.32165 -3.23024 0
M  V30 10655 H 1020.04 -5.23173 -3.9493 0
M  V30 10656 H 1019.56 -3.70198 -4.71925 0
M  V30 10657 H 1021.24 -4.28168 -4.85058 0
M  V30 10658 N 1021.37 1.14642 -1.08144 0
M  V30 10659 C 1022.31 2.1964 -0.708995 0
M  V30 10660 C 1023.28 1.63303 0.303512 0
M  V30 10661 O 1024.47 1.8987 0.18813 0
M  V30 10662 C 1021.61 3.44886 -0.121585 0
M  V30 10663 C 1020.72 4.15386 -1.18654 0
M  V30 10664 C 1019.86 5.28205 -0.56328 0
M  V30 10665 C 1018.9 5.90534 -1.61046 0
M  V30 10666 N 1018.03 6.94809 -1.00919 0
M  V30 10667 H 1022.87 2.50848 -1.6087 0
M  V30 10668 H 1020.41 1.23185 -0.803975 0
M  V30 10669 H 1022.37 4.16528 0.23668 0
M  V30 10670 H 1021 3.14169 0.741445 0
M  V30 10671 H 1020.05 3.42159 -1.66227 0
M  V30 10672 H 1021.36 4.57809 -1.9802 0
M  V30 10673 H 1020.52 6.06507 -0.153109 0
M  V30 10674 H 1019.26 4.86995 0.262066 0
M  V30 10675 H 1018.26 5.10938 -2.03033 0
M  V30 10676 H 1019.49 6.33819 -2.43824 0
M  V30 10677 H 1017.43 6.5568 -0.204894 0
M  V30 10678 H 1017.35 7.35704 -1.73999 0
M  V30 10679 H 1018.62 7.76992 -0.624792 0
M  V30 10680 N 1022.85 0.866709 1.31628 0
M  V30 10681 C 1024.12 0.396828 1.91532 0
M  V30 10682 C 1024.5 -1.12081 1.78889 0
M  V30 10683 O 1023.85 -1.94791 1.19452 0
M  V30 10684 C 1024.06 0.874578 3.37864 0
M  V30 10685 C 1025.41 0.8988 4.14978 0
M  V30 10686 O 1026.43 0.820014 3.46633 0
M  V30 10687 O 1025.29 1.01223 5.37044 0
M  V30 10688 H 1022.39 0.1181 0.818524 0
M  V30 10689 H 1024.93 0.954407 1.40318 0
M  V30 10690 H 1023.7 1.91807 3.41066 0
M  V30 10691 H 1023.33 0.295126 3.96503 0
M  V30 10692 N 1024.32 -1.44642 0.625825 0
M  V30 10693 C 1025.57 -2.02094 0.128201 0
M  V30 10694 C 1025.9 -1.49181 -1.24801 0
M  V30 10695 O 1025.15 -0.663965 -1.84092 0
M  V30 10696 C 1025.45 -3.57352 0.0584381 0
M  V30 10697 C 1025.12 -4.29496 1.37272 0
M  V30 10698 C 1023.78 -4.48922 1.7327 0
M  V30 10699 C 1026.13 -4.70586 2.2405 0
M  V30 10700 C 1023.46 -5.06697 2.95762 0
M  V30 10701 C 1025.81 -5.29717 3.45807 0
M  V30 10702 C 1024.48 -5.47363 3.82034 0
M  V30 10703 H 1023.75 -0.739514 0.0469122 0
M  V30 10704 H 1026.39 -1.73475 0.811083 0
M  V30 10705 H 1024.7 -3.85354 -0.707791 0
M  V30 10706 H 1026.4 -3.9953 -0.34303 0
M  V30 10707 H 1022.99 -4.14702 1.08258 0
M  V30 10708 H 1027.17 -4.55295 1.97535 0
M  V30 10709 H 1022.43 -5.18546 3.23913 0
M  V30 10710 H 1026.6 -5.60507 4.13286 0
M  V30 10711 H 1024.23 -5.91898 4.77033 0
M  V30 10712 N 1025.8 -0.366053 -1.5329 0
M  V30 10713 C 1027.03 0.22391 -2.05383 0
M  V30 10714 C 1027.44 1.42962 -1.23929 0
M  V30 10715 O 1026.78 1.81659 -0.273072 0
M  V30 10716 C 1026.84 0.681038 -3.5299 0
M  V30 10717 C 1026.51 -0.40805 -4.55175 0
M  V30 10718 C 1027.51 -1.25806 -5.04449 0
M  V30 10719 C 1025.19 -0.568428 -4.99073 0
M  V30 10720 C 1027.18 -2.25379 -5.96224 0
M  V30 10721 C 1024.87 -1.56752 -5.90654 0
M  V30 10722 C 1025.87 -2.40864 -6.39119 0
M  V30 10723 O 1025.56 -3.39069 -7.28895 0
M  V30 10724 H 1025.29 0.0429593 -0.674634 0
M  V30 10725 H 1027.84 -0.522897 -1.98633 0
M  V30 10726 H 1026.07 1.47945 -3.5728 0
M  V30 10727 H 1027.76 1.19406 -3.8794 0
M  V30 10728 H 1028.53 -1.14536 -4.71282 0
M  V30 10729 H 1024.41 0.0764858 -4.60937 0
M  V30 10730 H 1027.95 -2.91068 -6.33976 0
M  V30 10731 H 1023.85 -1.6807 -6.23236 0
M  V30 10732 H 1024.62 -3.34804 -7.46893 0
M  V30 10733 N 1027.28 1.57312 -0.0952337 0
M  V30 10734 C 1028.21 2.09691 0.900274 0
M  V30 10735 C 1029.19 1.0075 1.27625 0
M  V30 10736 O 1030.37 1.28249 1.38147 0
M  V30 10737 C 1027.5 2.574 2.20142 0
M  V30 10738 C 1026.55 3.78 1.9753 0
M  V30 10739 S 1027.38 5.21577 1.21318 0
M  V30 10740 C 1028.54 5.72636 2.52663 0
M  V30 10741 H 1028.77 2.93803 0.45467 0
M  V30 10742 H 1026.3 1.53948 0.118056 0
M  V30 10743 H 1028.26 2.85546 2.94914 0
M  V30 10744 H 1026.92 1.73514 2.61824 0
M  V30 10745 H 1026.11 4.09451 2.93881 0
M  V30 10746 H 1025.72 3.50349 1.30888 0
M  V30 10747 H 1028.01 5.80911 3.48638 0
M  V30 10748 H 1028.95 6.71136 2.25791 0
M  V30 10749 H 1029.36 5.00569 2.60943 0
M  V30 10750 N 1028.76 -0.17846 1.56586 0
M  V30 10751 C 1029.99 -0.911996 1.85715 0
M  V30 10752 C 1030.4 -1.76138 0.679766 0
M  V30 10753 O 1029.76 -1.79088 -0.351266 0
M  V30 10754 C 1029.81 -1.79459 3.1381 0
M  V30 10755 O 1029.53 -0.979476 4.2701 0
M  V30 10756 C 1031.03 -2.6384 3.56235 0
M  V30 10757 H 1028.25 -0.265299 0.616326 0
M  V30 10758 H 1030.79 -0.180704 2.037 0
M  V30 10759 H 1028.95 -2.4793 2.97673 0
M  V30 10760 H 1029.36 -1.58244 5.00059 0
M  V30 10761 H 1030.84 -3.21396 4.48786 0
M  V30 10762 H 1031.31 -3.38363 2.80013 0
M  V30 10763 H 1031.92 -2.00712 3.7496 0
M  V30 10764 N 1030.24 -1.51135 -0.446768 0
M  V30 10765 C 1031.51 -1.5387 -1.20762 0
M  V30 10766 C 1031.89 -0.297446 -2.08994 0
M  V30 10767 O 1031.24 0.717975 -2.16927 0
M  V30 10768 C 1031.45 -2.84767 -2.01764 0
M  V30 10769 C 1032.8 -3.3636 -2.59128 0
M  V30 10770 O 1033.82 -2.86254 -2.11984 0
M  V30 10771 O 1032.68 -4.23765 -3.45088 0
M  V30 10772 H 1029.78 -0.618228 -0.549293 0
M  V30 10773 H 1032.32 -1.63442 -0.456605 0
M  V30 10774 H 1031.09 -3.6657 -1.36901 0
M  V30 10775 H 1030.72 -2.78313 -2.8395 0
M  V30 10776 N 1031.71 0.701592 -1.41122 0
M  V30 10777 C 1032.94 1.49553 -1.43696 0
M  V30 10778 C 1033.36 1.88053 -0.0421865 0
M  V30 10779 O 1032.72 1.54223 0.953144 0
M  V30 10780 C 1032.77 2.73834 -2.34622 0
M  V30 10781 O 1031.87 3.71088 -1.7991 0
M  V30 10782 H 1031.21 0.450352 -0.487933 0
M  V30 10783 H 1033.74 0.862886 -1.85514 0
M  V30 10784 H 1033.75 3.22209 -2.5029 0
M  V30 10785 H 1032.43 2.45149 -3.35969 0
M  V30 10786 H 1031.01 3.29994 -1.73661 0
M  V30 10787 N 1033.19 1.2685 0.935242 0
M  V30 10788 C 1034.44 1.12132 1.67658 0
M  V30 10789 C 1034.75 -0.333839 1.9273 0
M  V30 10790 O 1035.96 -0.601801 2.64746 0
M  V30 10791 C 1034.42 1.95873 3.0193 0
M  V30 10792 C 1034.02 3.46 2.84584 0
M  V30 10793 C 1035.77 1.89781 3.79715 0
M  V30 10794 C 1033.67 4.21966 4.14365 0
M  V30 10795 H 1032.6 0.416035 0.628833 0
M  V30 10796 H 1035.26 1.51209 1.03962 0
M  V30 10797 H 1033.64 1.49633 3.66641 0
M  V30 10798 H 1034.81 4.00049 2.28687 0
M  V30 10799 H 1033.13 3.53391 2.20236 0
M  V30 10800 H 1035.72 2.43819 4.75875 0
M  V30 10801 H 1036.07 0.869797 4.07112 0
M  V30 10802 H 1036.6 2.33875 3.21788 0
M  V30 10803 H 1033.34 5.2526 3.9215 0
M  V30 10804 H 1032.86 3.72696 4.69955 0
M  V30 10805 H 1034.54 4.30734 4.82781 0
M  V30 10806 N 1034.67 -1.14067 1.0875 0
M  V30 10807 C 1035.9 -1.89582 0.841038 0
M  V30 10808 C 1036.32 -1.78226 -0.601436 0
M  V30 10809 O 1035.68 -1.12491 -1.42181 0
M  V30 10810 C 1035.73 -3.37415 1.27213 0
M  V30 10811 O 1034.83 -4.10191 0.426246 0
M  V30 10812 H 1034.17 -0.589716 0.305173 0
M  V30 10813 H 1036.7 -1.44364 1.44984 0
M  V30 10814 H 1036.71 -3.88234 1.25451 0
M  V30 10815 H 1035.39 -3.44999 2.32268 0
M  V30 10816 H 1033.96 -3.69429 0.507585 0
M  V30 10817 N 1036.15 -0.873678 -1.31166 0
M  V30 10818 C 1037.56 -0.566109 -1.49223 0
M  V30 10819 C 1037.76 0.898889 -1.80339 0
M  V30 10820 O 1036.82 1.68084 -1.88425 0
M  V30 10821 C 1038.13 -1.46952 -2.62346 0
M  V30 10822 C 1039.68 -1.47195 -2.76229 0
M  V30 10823 C 1040.16 -2.36102 -3.92454 0
M  V30 10824 N 1041.65 -2.34003 -3.99746 0
M  V30 10825 C 1042.38 -2.99513 -4.88958 0
M  V30 10826 N 1041.88 -3.74206 -5.83045 0
M  V30 10827 N 1043.67 -2.88802 -4.82234 0
M  V30 10828 H 1035.82 -1.82156 -1.09239 0
M  V30 10829 H 1038.09 -0.779086 -0.54012 0
M  V30 10830 H 1037.79 -2.51213 -2.4614 0
M  V30 10831 H 1037.67 -1.17077 -3.5857 0
M  V30 10832 H 1040.05 -0.436902 -2.91848 0
M  V30 10833 H 1040.13 -1.81095 -1.80661 0
M  V30 10834 H 1039.78 -3.39685 -3.77593 0
M  V30 10835 H 1039.71 -1.99524 -4.87337 0
M  V30 10836 H 1042.2 -1.79713 -3.32433 0
M  V30 10837 H 1042.51 -4.21312 -6.47855 0
M  V30 10838 H 1040.86 -3.78314 -5.83012 0
M  V30 10839 H 1044.05 -2.29984 -4.07707 0
M  V30 10840 H 1044.22 -3.40136 -5.51554 0
M  V30 10841 N 1037.63 1.44308 -0.633487 0
M  V30 10842 C 1038.59 2.2912 0.060376 0
M  V30 10843 C 1039.59 1.41166 0.769992 0
M  V30 10844 O 1040.78 1.63012 0.614224 0
M  V30 10845 C 1037.91 3.22798 1.0961 0
M  V30 10846 H 1039.1 2.91958 -0.685617 0
M  V30 10847 H 1036.66 1.51259 -0.393738 0
M  V30 10848 H 1037.39 2.64815 1.87199 0
M  V30 10849 H 1037.18 3.87618 0.591161 0
M  V30 10850 H 1038.67 3.86504 1.58127 0
M  V30 10851 N 1039.1 0.374177 1.53094 0
M  V30 10852 C 1040.33 -0.215903 2.06273 0
M  V30 10853 C 1040.75 -1.40979 1.24526 0
M  V30 10854 O 1040.11 -1.79331 0.266462 0
M  V30 10855 C 1040.16 -0.579089 3.5592 0
M  V30 10856 O 1039.26 -1.67516 3.76845 0
M  V30 10857 H 1038.61 -0.0293981 0.663349 0
M  V30 10858 H 1041.14 0.537271 1.9742 0
M  V30 10859 H 1041.15 -0.847678 3.99097 0
M  V30 10860 H 1039.82 0.293843 4.14861 0
M  V30 10861 H 1038.4 -1.40146 3.45563 0
M  V30 10862 N 1040.58 -1.57259 0.103575 0
M  V30 10863 C 1041.51 -2.1153 -0.882472 0
M  V30 10864 C 1042.53 -1.05446 -1.24036 0
M  V30 10865 O 1043.72 -1.32867 -1.192 0
M  V30 10866 C 1040.82 -2.58717 -2.18903 0
M  V30 10867 C 1039.99 -3.8873 -2.00519 0
M  V30 10868 C 1039.05 -4.21675 -3.14764 0
M  V30 10869 O 1038.07 -4.90755 -2.88355 0
M  V30 10870 N 1039.28 -3.77757 -4.40772 0
M  V30 10871 H 1042.04 -2.96758 -0.418901 0
M  V30 10872 H 1039.6 -1.61696 -0.0812921 0
M  V30 10873 H 1041.59 -2.77797 -2.94297 0
M  V30 10874 H 1040.16 -1.78454 -2.56657 0
M  V30 10875 H 1039.38 -3.78714 -1.09406 0
M  V30 10876 H 1040.67 -4.73771 -1.85522 0
M  V30 10877 H 1040.07 -3.22011 -4.65108 0
M  V30 10878 H 1038.63 -4.01975 -5.13088 0
M  V30 10879 N 1042.06 0.170153 -1.56679 0
M  V30 10880 C 1043.29 0.902134 -1.86197 0
M  V30 10881 C 1043.7 1.75775 -0.689098 0
M  V30 10882 O 1043.06 1.79271 0.341763 0
M  V30 10883 C 1043.11 1.77792 -3.14757 0
M  V30 10884 O 1042.83 0.956817 -4.27524 0
M  V30 10885 C 1044.33 2.61947 -3.57629 0
M  V30 10886 H 1041.55 0.262026 -0.617724 0
M  V30 10887 H 1044.1 0.169899 -2.03793 0
M  V30 10888 H 1042.25 2.46348 -2.98984 0
M  V30 10889 H 1042.67 1.5559 -5.00891 0
M  V30 10890 H 1044.14 3.19011 -4.50484 0
M  V30 10891 H 1044.62 3.36873 -2.81803 0
M  V30 10892 H 1045.22 1.98721 -3.76019 0
M  V30 10893 N 1043.54 1.5137 0.438746 0
M  V30 10894 C 1044.47 1.67264 1.55236 0
M  V30 10895 C 1045.45 0.520238 1.54053 0
M  V30 10896 O 1046.63 0.743897 1.73201 0
M  V30 10897 C 1043.76 1.68492 2.93816 0
M  V30 10898 C 1042.81 2.8968 3.1303 0
M  V30 10899 S 1043.64 4.50514 2.89478 0
M  V30 10900 C 1044.8 4.54485 4.30342 0
M  V30 10901 H 1045.03 2.61456 1.4152 0
M  V30 10902 H 1042.56 1.41036 0.628341 0
M  V30 10903 H 1044.52 1.69884 3.73697 0
M  V30 10904 H 1043.18 0.754787 3.04896 0
M  V30 10905 H 1042.37 2.86936 4.14347 0
M  V30 10906 H 1041.98 2.86022 2.40972 0
M  V30 10907 H 1044.27 4.30039 5.2352 0
M  V30 10908 H 1045.21 5.56288 4.3812 0
M  V30 10909 H 1045.62 3.83824 4.13931 0
M  V30 10910 N 1045.02 -0.694098 1.41492 0
M  V30 10911 C 1045.98 -1.78976 1.43179 0
M  V30 10912 C 1046.98 -1.57539 0.322191 0
M  V30 10913 O 1048.17 -1.64185 0.582138 0
M  V30 10914 C 1045.3 -3.17368 1.2446 0
M  V30 10915 H 1046.49 -1.78874 2.40716 0
M  V30 10916 H 1044.05 -0.901867 1.27656 0
M  V30 10917 H 1044.78 -3.23109 0.277691 0
M  V30 10918 H 1044.57 -3.3433 2.04856 0
M  V30 10919 H 1046.06 -3.97345 1.28479 0
M  V30 10920 N 1046.49 -1.27344 -0.928501 0
M  V30 10921 C 1047.44 -1.10001 -2.029 0
M  V30 10922 C 1048.41 -0.00131084 -1.661 0
M  V30 10923 O 1049.6 -0.163485 -1.90098 0
M  V30 10924 C 1046.74 -0.7524 -3.36798 0
M  V30 10925 C 1045.85 -1.92865 -3.86558 0
M  V30 10926 C 1044.98 -1.52299 -5.08899 0
M  V30 10927 C 1044.02 -2.66677 -5.50953 0
M  V30 10928 N 1043.16 -2.26706 -6.64491 0
M  V30 10929 H 1048 -2.0417 -2.17068 0
M  V30 10930 H 1045.54 -1.01637 -1.0634 0
M  V30 10931 H 1047.5 -0.531687 -4.13798 0
M  V30 10932 H 1046.13 0.15234 -3.2244 0
M  V30 10933 H 1045.18 -2.26192 -3.05845 0
M  V30 10934 H 1046.49 -2.78668 -4.13698 0
M  V30 10935 H 1045.64 -1.26348 -5.93398 0
M  V30 10936 H 1044.38 -0.636042 -4.83535 0
M  V30 10937 H 1043.39 -2.93344 -4.65004 0
M  V30 10938 H 1044.61 -3.55992 -5.78313 0
M  V30 10939 H 1042.56 -1.40462 -6.40786 0
M  V30 10940 H 1042.48 -3.06049 -6.91281 0
M  V30 10941 H 1043.74 -2.04 -7.52333 0
M  V30 10942 N 1047.97 1.13488 -1.09353 0
M  V30 10943 C 1049.21 1.86397 -0.83877 0
M  V30 10944 C 1049.58 1.81568 0.624259 0
M  V30 10945 O 1050.78 2.49709 0.994923 0
M  V30 10946 C 1049.05 3.30583 -1.35828 0
M  V30 10947 S 1050.61 4.20995 -1.23728 0
M  V30 10948 H 1047.43 0.643022 -0.303387 0
M  V30 10949 H 1050.03 1.36788 -1.39676 0
M  V30 10950 H 1048.73 3.31652 -2.41734 0
M  V30 10951 H 1048.26 3.85255 -0.796386 0
M  V30 10952 H 1050.28 4.95845 -0.187745 0
M  V30 10953 N 1049.45 0.880621 1.30701 0
M  V30 10954 C 1050.7 0.497611 1.966 0
M  V30 10955 C 1051.03 -0.949901 1.69383 0
M  V30 10956 O 1050.31 -1.67054 0.996152 0
M  V30 10957 C 1050.59 0.767919 3.51817 0
M  V30 10958 C 1050.44 2.26574 3.88567 0
M  V30 10959 C 1051.76 0.241502 4.39437 0
M  V30 10960 H 1048.88 0.182267 0.714106 0
M  V30 10961 H 1051.52 1.10382 1.54648 0
M  V30 10962 H 1049.67 0.251967 3.87682 0
M  V30 10963 H 1051.34 2.84977 3.62748 0
M  V30 10964 H 1049.59 2.73411 3.36792 0
M  V30 10965 H 1050.26 2.40549 4.9683 0
M  V30 10966 H 1052.73 0.683051 4.10455 0
M  V30 10967 H 1051.61 0.459997 5.46969 0
M  V30 10968 H 1051.87 -0.857068 4.33713 0
M  V30 10969 N 1050.93 -1.4397 0.641131 0
M  V30 10970 C 1051.88 -2.30728 -0.0577905 0
M  V30 10971 C 1052.85 -1.44059 -0.826819 0
M  V30 10972 O 1054.03 -1.72947 -0.805853 0
M  V30 10973 C 1051.17 -3.29478 -1.02657 0
M  V30 10974 C 1050.28 -4.31247 -0.254913 0
M  V30 10975 C 1049.42 -5.17085 -1.2164 0
M  V30 10976 C 1048.46 -6.10556 -0.434481 0
M  V30 10977 N 1047.6 -6.89059 -1.34694 0
M  V30 10978 H 1052.44 -2.8995 0.687953 0
M  V30 10979 H 1049.97 -1.4285 0.351029 0
M  V30 10980 H 1051.93 -3.85228 -1.60173 0
M  V30 10981 H 1050.56 -2.71932 -1.73933 0
M  V30 10982 H 1049.61 -3.77889 0.436338 0
M  V30 10983 H 1050.92 -4.97545 0.353642 0
M  V30 10984 H 1050.08 -5.77402 -1.86258 0
M  V30 10985 H 1048.82 -4.50885 -1.85888 0
M  V30 10986 H 1047.82 -5.49339 0.225125 0
M  V30 10987 H 1049.05 -6.78795 0.203415 0
M  V30 10988 H 1046.99 -6.25518 -1.97644 0
M  V30 10989 H 1046.91 -7.51833 -0.792657 0
M  V30 10990 H 1048.18 -7.5389 -1.98165 0
M  V30 10991 N 1052.41 -0.382291 -1.52893 0
M  V30 10992 C 1053.37 0.44408 -2.24857 0
M  V30 10993 C 1054.37 0.996004 -1.26239 0
M  V30 10994 O 1055.56 0.879114 -1.5039 0
M  V30 10995 C 1052.69 1.62234 -2.99822 0
M  V30 10996 H 1053.89 -0.185862 -2.99324 0
M  V30 10997 H 1051.44 -0.134275 -1.55722 0
M  V30 10998 H 1052.17 2.28991 -2.29638 0
M  V30 10999 H 1051.96 1.23336 -3.72197 0
M  V30 11000 H 1053.45 2.20756 -3.54481 0
M  V30 11001 N 1053.89 1.57202 -0.111913 0
M  V30 11002 C 1055.13 1.95239 0.548607 0
M  V30 11003 C 1055.46 0.994897 1.6678 0
M  V30 11004 O 1054.74 0.0308603 1.94476 0
M  V30 11005 C 1055.02 3.43271 1.08798 0
M  V30 11006 C 1054.88 4.49792 -0.0273064 0
M  V30 11007 C 1056.19 3.92989 1.98109 0
M  V30 11008 H 1053.31 0.709919 0.197951 0
M  V30 11009 H 1055.96 1.89087 -0.186036 0
M  V30 11010 H 1054.11 3.48644 1.71404 0
M  V30 11011 H 1055.78 4.56521 -0.662302 0
M  V30 11012 H 1054.02 4.28254 -0.691426 0
M  V30 11013 H 1054.69 5.50612 0.391201 0
M  V30 11014 H 1057.17 3.89875 1.45385 0
M  V30 11015 H 1056.04 4.97101 2.32769 0
M  V30 11016 H 1056.3 3.33267 2.90492 0
M  V30 11017 N 1055.36 -0.161842 1.56767 0
M  V30 11018 C 1056.59 -0.892247 1.86672 0
M  V30 11019 C 1057.01 -1.75407 0.69841 0
M  V30 11020 O 1056.36 -1.7945 -0.332251 0
M  V30 11021 C 1056.41 -1.7612 3.15696 0
M  V30 11022 O 1056.14 -0.934131 4.28025 0
M  V30 11023 C 1057.64 -2.60046 3.59014 0
M  V30 11024 H 1054.86 -0.258747 0.619105 0
M  V30 11025 H 1057.4 -0.159089 2.0388 0
M  V30 11026 H 1055.56 -2.44759 3.00286 0
M  V30 11027 H 1055.97 -1.52931 5.01709 0
M  V30 11028 H 1057.44 -3.16618 4.5217 0
M  V30 11029 H 1057.92 -3.35374 2.83586 0
M  V30 11030 H 1058.53 -1.96724 3.77067 0
M  V30 11031 N 1056.84 -1.516 -0.430713 0
M  V30 11032 C 1057.75 -1.76247 -1.54836 0
M  V30 11033 C 1058.77 -0.646985 -1.61524 0
M  V30 11034 O 1059.94 -0.929987 -1.78643 0
M  V30 11035 C 1057.01 -1.88833 -2.90763 0
M  V30 11036 C 1056.07 -3.12701 -2.94137 0
M  V30 11037 C 1055.3 -3.24676 -4.23581 0
M  V30 11038 O 1055.53 -2.42429 -5.16318 0
M  V30 11039 O 1054.46 -4.17697 -4.33374 0
M  V30 11040 H 1058.29 -2.71069 -1.3695 0
M  V30 11041 H 1055.87 -1.36182 -0.614396 0
M  V30 11042 H 1057.75 -1.99057 -3.71422 0
M  V30 11043 H 1056.43 -0.971987 -3.08762 0
M  V30 11044 H 1055.33 -3.0795 -2.1241 0
M  V30 11045 H 1056.67 -4.04045 -2.81084 0
M  V30 11046 N 1058.32 0.686584 -1.41858 0
M  V30 11047 C 1059.57 1.44379 -1.41418 0
M  V30 11048 C 1059.89 1.94981 -0.0273696 0
M  V30 11049 O 1059.16 1.72296 0.932248 0
M  V30 11050 H 1057.74 0.53574 -0.520568 0
M  V30 11051 H 1060.4 0.812056 -1.77177 0
M  V30 11052 H 1059.5 2.30258 -2.10684 0
M  V30 11053 N 1059.8 1.27835 0.921735 0
M  V30 11054 C 1060.76 1.11108 2.00469 0
M  V30 11055 C 1061.76 0.053203 1.60712 0
M  V30 11056 O 1062.95 0.298308 1.71627 0
M  V30 11057 C 1060.08 0.694269 3.33755 0
M  V30 11058 H 1061.28 2.07279 2.16738 0
M  V30 11059 H 1058.83 1.10708 1.10333 0
M  V30 11060 H 1059.56 -0.268561 3.23186 0
M  V30 11061 H 1059.35 1.45836 3.6397 0
M  V30 11062 H 1060.84 0.59965 4.13272 0
M  V30 11063 N 1061.28 -1.12907 1.09954 0
M  V30 11064 C 1062.21 -2.18194 0.701701 0
M  V30 11065 C 1063.22 -1.60724 -0.259131 0
M  V30 11066 O 1064.41 -1.78445 -0.0443549 0
M  V30 11067 C 1061.51 -3.38897 0.0140602 0
M  V30 11068 C 1060.68 -4.25867 0.997807 0
M  V30 11069 C 1059.74 -5.25084 0.34257 0
M  V30 11070 O 1058.77 -5.60492 0.991857 0
M  V30 11071 N 1059.97 -5.73464 -0.901058 0
M  V30 11072 H 1062.73 -2.52939 1.60755 0
M  V30 11073 H 1060.3 -1.28281 0.987703 0
M  V30 11074 H 1062.29 -4.02349 -0.435628 0
M  V30 11075 H 1060.86 -3.02345 -0.794118 0
M  V30 11076 H 1060.08 -3.59107 1.6259 0
M  V30 11077 H 1061.37 -4.80825 1.66388 0
M  V30 11078 H 1060.76 -5.46854 -1.44802 0
M  V30 11079 H 1059.32 -6.38827 -1.29398 0
M  V30 11080 N 1062.75 -0.88754 -1.30232 0
M  V30 11081 C 1063.72 -0.361095 -2.26338 0
M  V30 11082 C 1064.72 0.497871 -1.52898 0
M  V30 11083 O 1065.91 0.30466 -1.71515 0
M  V30 11084 C 1063.04 0.485135 -3.3743 0
M  V30 11085 H 1064.23 -1.20973 -2.74419 0
M  V30 11086 H 1061.78 -0.664619 -1.41466 0
M  V30 11087 H 1062.52 1.35425 -2.9467 0
M  V30 11088 H 1062.3 -0.130173 -3.91884 0
M  V30 11089 H 1063.79 0.845169 -4.08958 0
M  V30 11090 N 1064.23 1.43628 -0.648757 0
M  V30 11091 C 1065.48 2.02163 -0.160574 0
M  V30 11092 C 1065.81 1.51037 1.22072 0
M  V30 11093 O 1065.09 0.701633 1.81404 0
M  V30 11094 C 1065.37 3.59715 -0.166528 0
M  V30 11095 C 1065.22 4.21083 -1.58142 0
M  V30 11096 C 1066.54 4.37256 0.499485 0
M  V30 11097 H 1063.66 0.734568 -0.0598238 0
M  V30 11098 H 1066.3 1.70981 -0.828592 0
M  V30 11099 H 1064.45 3.86411 0.402302 0
M  V30 11100 H 1066.12 4.05433 -2.2005 0
M  V30 11101 H 1064.37 3.77904 -2.13005 0
M  V30 11102 H 1065.04 5.30156 -1.53748 0
M  V30 11103 H 1067.51 4.16097 0.0155561 0
M  V30 11104 H 1066.39 5.4693 0.464574 0
M  V30 11105 H 1066.65 4.13175 1.57286 0
M  V30 11106 N 1065.71 0.390394 1.52688 0
M  V30 11107 C 1066.62 -0.451543 2.30213 0
M  V30 11108 C 1067.64 -1.07051 1.37172 0
M  V30 11109 O 1068.81 -1.07609 1.70242 0
M  V30 11110 C 1065.88 -1.56299 3.0947 0
M  V30 11111 C 1064.94 -0.969017 4.18221 0
M  V30 11112 C 1064.17 -2.0275 4.93688 0
M  V30 11113 O 1064.39 -3.24273 4.69258 0
M  V30 11114 O 1063.33 -1.64418 5.79008 0
M  V30 11115 H 1067.15 0.180042 3.03166 0
M  V30 11116 H 1064.74 0.154082 1.48603 0
M  V30 11117 H 1066.62 -2.20864 3.58883 0
M  V30 11118 H 1065.3 -2.17952 2.3933 0
M  V30 11119 H 1064.2 -0.286587 3.73001 0
M  V30 11120 H 1065.54 -0.396687 4.90599 0
M  V30 11121 N 1067.19 -1.57141 0.120249 0
M  V30 11122 C 1068.1 -2.18925 -0.843155 0
M  V30 11123 C 1069.11 -1.16575 -1.29175 0
M  V30 11124 O 1070.29 -1.4905 -1.35448 0
M  V30 11125 C 1067.36 -2.7775 -2.075 0
M  V30 11126 C 1066.42 -3.95139 -1.6782 0
M  V30 11127 C 1065.65 -4.51149 -2.85132 0
M  V30 11128 O 1065.87 -4.06056 -4.00593 0
M  V30 11129 O 1064.81 -5.41815 -2.62145 0
M  V30 11130 H 1068.63 -3.01707 -0.347357 0
M  V30 11131 H 1066.22 -1.49028 -0.105427 0
M  V30 11132 H 1068.1 -3.15243 -2.79643 0
M  V30 11133 H 1066.77 -1.97998 -2.56083 0
M  V30 11134 H 1065.68 -3.62412 -0.927807 0
M  V30 11135 H 1067.01 -4.7633 -1.23977 0
M  V30 11136 N 1068.67 0.153526 -1.5685 0
M  V30 11137 C 1070.08 0.714247 -1.72498 0
M  V30 11138 C 1070.43 1.81968 -0.733621 0
M  V30 11139 O 1069.55 2.16163 0.10118 0
M  V30 11140 C 1070.15 1.30238 -3.12767 0
M  V30 11141 C 1068.71 1.80974 -3.30038 0
M  V30 11142 C 1067.85 0.695638 -2.68433 0
M  V30 11143 H 1070.81 -0.0720733 -1.58536 0
M  V30 11144 H 1070.83 2.17217 -3.12405 0
M  V30 11145 H 1070.34 0.497605 -3.84897 0
M  V30 11146 H 1068.44 2.64039 -2.62895 0
M  V30 11147 H 1068.55 1.94294 -4.37934 0
M  V30 11148 H 1066.92 1.12061 -2.28723 0
M  V30 11149 H 1067.7 -0.0975885 -3.43161 0
M  V30 11150 N 1070.14 1.51827 0.422667 0
M  V30 11151 C 1071.37 1.69337 1.19748 0
M  V30 11152 C 1071.79 0.396312 1.83878 0
M  V30 11153 O 1071.15 -0.644976 1.6944 0
M  V30 11154 C 1071.2 2.82082 2.24637 0
M  V30 11155 O 1070.3 2.46708 3.30468 0
M  V30 11156 H 1069.65 0.564154 0.35018 0
M  V30 11157 H 1072.18 1.98465 0.497289 0
M  V30 11158 H 1072.19 3.06599 2.69186 0
M  V30 11159 H 1070.86 3.76195 1.77341 0
M  V30 11160 H 1069.44 2.32815 2.91293 0
M  V30 11161 N 1071.62 -0.679052 1.4222 0
M  V30 11162 C 1072.87 -1.43485 1.41757 0
M  V30 11163 C 1073.18 -1.95567 0.0358698 0
M  V30 11164 O 1074.39 -2.71346 -0.0913713 0
M  V30 11165 C 1072.85 -2.59541 2.49332 0
M  V30 11166 C 1072.45 -2.14176 3.93488 0
M  V30 11167 C 1074.2 -3.37078 2.58029 0
M  V30 11168 C 1072.11 -3.27289 4.92581 0
M  V30 11169 H 1071.04 -0.539022 0.52723 0
M  V30 11170 H 1073.69 -0.735581 1.68111 0
M  V30 11171 H 1072.07 -3.31815 2.16135 0
M  V30 11172 H 1073.24 -1.49082 4.36017 0
M  V30 11173 H 1071.56 -1.49589 3.88603 0
M  V30 11174 H 1074.15 -4.21312 3.29242 0
M  V30 11175 H 1074.5 -3.83383 1.62245 0
M  V30 11176 H 1075.03 -2.7187 2.90399 0
M  V30 11177 H 1071.77 -2.8598 5.89827 0
M  V30 11178 H 1071.29 -3.91178 4.54687 0
M  V30 11179 H 1072.97 -3.9282 5.14103 0
M  V30 11180 N 1073.1 -1.28322 -0.914942 0
M  V30 11181 C 1074.34 -1.16657 -1.6784 0
M  V30 11182 C 1074.7 0.280473 -1.8994 0
M  V30 11183 O 1075.91 0.519801 -2.63726 0
M  V30 11184 C 1074.18 -1.94185 -3.00045 0
M  V30 11185 S 1075.74 -1.98881 -3.91141 0
M  V30 11186 H 1072.55 -0.416232 -0.57643 0
M  V30 11187 H 1075.16 -1.62405 -1.08834 0
M  V30 11188 H 1073.86 -2.98488 -2.81661 0
M  V30 11189 H 1073.39 -1.48982 -3.64099 0
M  V30 11190 H 1075.41 -1.09445 -4.8398 0
M  V30 11191 O 1074.62 1.04977 -1.22727 0
M  V30 11192 H 1075.31 1.66219 -0.994539 0
M  V30 END ATOM
M  V30 BEGIN BOND
M  V30 END BOND
M  V30 END CTAB
M  END
$$$$
