drugbank_target|Q15139 Serine/threonine-protein kinase D1 (DB11752; DB12010)
 OpenBabel12092121183D

  0  0  0     0  0            999 V3000
M  V30 BEGIN CTAB
M  V30 COUNTS 14215 14377 0 0 0
M  V30 BEGIN ATOM
M  V30 1 H -0.908 1.98254 -0.117106 0
M  V30 2 N 0 1.576 0 0
M  V30 3 C 0.933 2.03868 1.02534 0
M  V30 4 C 1.911 0.928543 1.3348 0
M  V30 5 O 3.095 1.19667 1.45644 0
M  V30 6 C 0.222 2.43627 2.35294 0
M  V30 7 C -0.732 3.65373 2.2001 0
M  V30 8 S 0.101 5.13292 1.52614 0
M  V30 9 C 1.257 5.56322 2.86805 0
M  V30 10 H 1.49 2.90518 0.631377 0
M  V30 11 H -0.977 1.52953 0.210867 0
M  V30 12 H 0.981 2.67203 3.11629 0
M  V30 13 H -0.358 1.57376 2.7183 0
M  V30 14 H -1.165 3.90944 3.18086 0
M  V30 15 H -1.563 3.418 1.51819 0
M  V30 16 H 0.729 5.58782 3.83104 0
M  V30 17 H 1.672 6.56266 2.65933 0
M  V30 18 H 2.08 4.83886 2.90714 0
M  V30 19 N 1.4781 -0.272755 1.55222 0
M  V30 20 C 2.7031 -1.02683 1.80197 0
M  V30 21 C 3.1281 -1.79142 0.573551 0
M  V30 22 O 2.4861 -1.74917 -0.476849 0
M  V30 23 C 2.5341 -1.9609 3.02624 0
M  V30 24 O 1.6381 -3.04863 2.77727 0
M  V30 25 H 0.9791 -0.293557 0.595584 0
M  V30 26 H 3.5091 -0.30159 2.02365 0
M  V30 27 H 3.5191 -2.38039 3.31363 0
M  V30 28 H 2.1941 -1.39851 3.91682 0
M  V30 29 H 0.7711 -2.67228 2.60084 0
M  V30 30 N 2.9562 -1.48159 -0.537278 0
M  V30 31 C 3.9192 -1.61665 -1.62472 0
M  V30 32 C 4.9192 -0.490395 -1.5314 0
M  V30 33 O 6.1092 -0.755998 -1.5694 0
M  V30 34 C 3.2412 -1.57997 -3.02076 0
M  V30 35 H 4.4342 -2.58621 -1.51839 0
M  V30 36 H 1.9872 -1.36647 -0.758771 0
M  V30 37 H 2.7222 -0.624913 -3.18222 0
M  V30 38 H 2.5072 -2.39755 -3.10258 0
M  V30 39 H 3.9972 -1.70627 -3.81151 0
M  V30 40 N 4.4343 0.785586 -1.36625 0
M  V30 41 C 5.8453 1.36101 -1.27803 0
M  V30 42 C 6.1963 1.96035 0.0804875 0
M  V30 43 O 5.3213 1.92834 0.982042 0
M  V30 44 C 5.9163 2.47442 -2.31426 0
M  V30 45 C 4.4753 3.00789 -2.26281 0
M  V30 46 C 3.6223 1.73896 -2.15999 0
M  V30 47 H 6.5733 0.586928 -1.47448 0
M  V30 48 H 6.5943 3.2656 -1.95291 0
M  V30 49 H 6.1063 2.03791 -3.30289 0
M  V30 50 H 4.2073 3.48851 -1.30896 0
M  V30 51 H 4.3203 3.57343 -3.19128 0
M  V30 52 H 2.6843 1.9628 -1.62316 0
M  V30 53 H 3.4673 1.32368 -3.16755 0
M  V30 54 N 5.9124 1.20967 1.01018 0
M  V30 55 C 7.3234 1.02319 1.56165 0
M  V30 56 C 7.6744 -0.418546 1.91684 0
M  V30 57 O 6.7994 -1.30096 1.72928 0
M  V30 58 C 7.3944 1.85109 2.8376 0
M  V30 59 C 5.9534 1.70809 3.35412 0
M  V30 60 C 5.1004 1.82643 2.08655 0
M  V30 61 H 8.0514 1.35065 0.833255 0
M  V30 62 H 8.0724 1.35827 3.55431 0
M  V30 63 H 7.5844 2.90035 2.57878 0
M  V30 64 H 5.6854 0.685464 3.66241 0
M  V30 65 H 5.7984 2.52467 4.07182 0
M  V30 66 H 4.1624 1.25896 2.21409 0
M  V30 67 H 4.9454 2.89066 1.85191 0
M  V30 68 N 7.3905 -1.2043 1.01659 0
M  V30 69 C 8.6365 -1.90079 0.706963 0
M  V30 70 C 8.9695 -1.78648 -0.761474 0
M  V30 71 O 8.2445 -1.17069 -1.55323 0
M  V30 72 C 8.5275 -3.41469 1.14327 0
M  V30 73 C 8.3805 -3.61833 2.67201 0
M  V30 74 C 9.6995 -4.34261 0.714529 0
M  V30 75 H 6.8185 -0.690254 0.2583 0
M  V30 76 H 9.4605 -1.41826 1.26433 0
M  V30 77 H 7.6105 -3.82696 0.669056 0
M  V30 78 H 9.2825 -3.2986 3.22475 0
M  V30 79 H 7.5255 -3.05304 3.08175 0
M  V30 80 H 8.1965 -4.67955 2.92783 0
M  V30 81 H 10.6725 -4.00682 1.12221 0
M  V30 82 H 9.5485 -5.38806 1.04784 0
M  V30 83 H 9.8095 -4.40431 -0.383799 0
M  V30 84 N 8.8686 -0.792821 -1.36206 0
M  V30 85 C 9.7986 -0.207853 -2.32573 0
M  V30 86 C 10.7796 0.659055 -1.56813 0
M  V30 87 O 11.9646 0.592176 -1.84951 0
M  V30 88 C 9.0946 0.655449 -3.41059 0
M  V30 89 C 8.0486 -0.111842 -4.27854 0
M  V30 90 C 7.3746 0.872274 -5.27537 0
M  V30 91 C 8.6746 -1.30299 -5.05786 0
M  V30 92 H 10.3686 -1.01294 -2.81744 0
M  V30 93 H 7.9146 -0.48854 -1.3546 0
M  V30 94 H 9.8676 1.07464 -4.07467 0
M  V30 95 H 8.5916 1.49328 -2.90463 0
M  V30 96 H 7.2506 -0.512053 -3.63006 0
M  V30 97 H 6.8986 1.70523 -4.73214 0
M  V30 98 H 6.5986 0.363291 -5.86476 0
M  V30 99 H 8.1226 1.28996 -5.96818 0
M  V30 100 H 9.5366 -0.959379 -5.65216 0
M  V30 101 H 7.9336 -1.7455 -5.74154 0
M  V30 102 H 9.0036 -2.09663 -4.37229 0
M  V30 103 N 10.3467 1.47872 -0.545128 0
M  V30 104 C 11.7627 1.5829 -0.204032 0
M  V30 105 C 11.9627 1.54529 1.29317 0
M  V30 106 O 11.0187 1.44232 2.07252 0
M  V30 107 C 12.3317 2.89304 -0.819987 0
M  V30 108 C 13.8797 3.02864 -0.790105 0
M  V30 109 C 14.3547 4.3656 -1.38491 0
M  V30 110 N 15.8457 4.43165 -1.34755 0
M  V30 111 C 16.5807 5.45153 -1.77753 0
M  V30 112 N 16.0767 6.54016 -2.2855 0
M  V30 113 N 17.8697 5.36125 -1.68897 0
M  V30 114 H 10.0207 1.4856 -1.51802 0
M  V30 115 H 12.2837 0.706305 -0.632327 0
M  V30 116 H 11.9897 2.97757 -1.87173 0
M  V30 117 H 11.8637 3.75957 -0.305915 0
M  V30 118 H 14.2507 2.94014 0.252913 0
M  V30 119 H 14.3317 2.17782 -1.34181 0
M  V30 120 H 13.9757 4.46164 -2.42693 0
M  V30 121 H 13.9057 5.20353 -0.808754 0
M  V30 122 H 16.3967 3.65083 -0.975855 0
M  V30 123 H 16.7097 7.27994 -2.59314 0
M  V30 124 H 15.0547 6.54938 -2.32553 0
M  V30 125 H 18.2457 4.49975 -1.28998 0
M  V30 126 H 18.4187 6.15472 -2.02726 0
M  V30 127 N 11.8248 0.280983 1.55075 0
M  V30 128 C 13.2358 -0.215629 1.85451 0
M  V30 129 C 13.5868 -1.54991 1.203 0
M  V30 130 O 12.7118 -2.10699 0.493435 0
M  V30 131 C 13.3068 -0.398026 3.36454 0
M  V30 132 C 11.8658 -0.838866 3.66933 0
M  V30 133 C 11.0128 0.064458 2.77225 0
M  V30 134 H 13.9638 0.502601 1.50531 0
M  V30 135 H 13.9848 -1.23569 3.59876 0
M  V30 136 H 13.4968 0.573241 3.83843 0
M  V30 137 H 11.5978 -1.8214 3.25048 0
M  V30 138 H 11.7108 -0.672123 4.74362 0
M  V30 139 H 10.0748 -0.452863 2.50642 0
M  V30 140 H 10.8578 1.03172 3.2743 0
M  V30 141 N 13.3029 -1.57598 0.00835791 0
M  V30 142 C 14.7139 -1.7892 -0.53333 0
M  V30 143 C 15.0649 -0.916609 -1.73473 0
M  V30 144 O 14.1899 -0.121336 -2.1606 0
M  V30 145 C 14.7849 -3.24488 -0.974313 0
M  V30 146 C 13.3439 -3.46878 -1.46125 0
M  V30 147 C 12.4909 -2.74157 -0.416302 0
M  V30 148 H 15.4419 -1.56958 0.234495 0
M  V30 149 H 15.4629 -3.3306 -1.83988 0
M  V30 150 H 14.9749 -3.87972 -0.099718 0
M  V30 151 H 13.0759 -2.8862 -2.35646 0
M  V30 152 H 13.1889 -4.55572 -1.48295 0
M  V30 153 H 11.5529 -2.39022 -0.87981 0
M  V30 154 H 12.3359 -3.40345 0.44947 0
M  V30 155 N 14.781 0.264519 -1.55364 0
M  V30 156 C 16.006 1.01726 -1.80739 0
M  V30 157 C 16.431 1.78836 -0.583044 0
M  V30 158 O 15.789 1.75167 0.467566 0
M  V30 159 C 15.837 1.94482 -3.03659 0
M  V30 160 O 14.941 3.03386 -2.7934 0
M  V30 161 H 14.282 0.290395 -0.597132 0
M  V30 162 H 16.812 0.290854 -2.02522 0
M  V30 163 H 16.822 2.36278 -3.32621 0
M  V30 164 H 15.497 1.37772 -3.92418 0
M  V30 165 H 14.074 2.65844 -2.61498 0
M  V30 166 N 16.2591 1.48442 0.529413 0
M  V30 167 C 17.6701 1.5002 1.11134 0
M  V30 168 C 18.0211 0.27031 1.94329 0
M  V30 169 O 17.1461 -0.622507 2.07253 0
M  V30 170 C 17.7411 2.71834 2.02217 0
M  V30 171 C 16.3001 2.76283 2.55627 0
M  V30 172 C 15.4471 2.43542 1.326 0
M  V30 173 H 18.3981 1.5555 0.314641 0
M  V30 174 H 18.4191 2.50384 2.8651 0
M  V30 175 H 17.9311 3.61331 1.41639 0
M  V30 176 H 16.0321 1.90995 3.19924 0
M  V30 177 H 16.1451 3.77725 2.94721 0
M  V30 178 H 14.5091 1.94709 1.64196 0
M  V30 179 H 15.2921 3.3528 0.737734 0
M  V30 180 N 17.7372 -0.778329 1.37039 0
M  V30 181 C 18.6672 -1.90546 1.34962 0
M  V30 182 C 19.6482 -1.68681 0.219274 0
M  V30 183 O 20.8332 -1.89634 0.418624 0
M  V30 184 C 17.9632 -3.27734 1.14925 0
M  V30 185 C 16.9172 -3.64147 2.24902 0
M  V30 186 C 16.2432 -4.99806 1.89996 0
M  V30 187 C 17.5432 -3.71579 3.67051 0
M  V30 188 H 19.2372 -1.92541 2.29277 0
M  V30 189 H 16.7832 -0.924948 1.10366 0
M  V30 190 H 18.7362 -4.06215 1.12104 0
M  V30 191 H 17.4602 -3.26154 0.170631 0
M  V30 192 H 16.1192 -2.8797 2.26868 0
M  V30 193 H 15.7672 -4.94759 0.906796 0
M  V30 194 H 15.4672 -5.25139 2.63634 0
M  V30 195 H 16.9912 -5.80694 1.88749 0
M  V30 196 H 18.4052 -4.40227 3.67251 0
M  V30 197 H 16.8022 -4.08405 4.39688 0
M  V30 198 H 17.8722 -2.72404 4.01154 0
M  V30 199 N 19.2153 -1.21501 -1.00376 0
M  V30 200 C 20.1453 -0.999478 -2.11028 0
M  V30 201 C 21.1263 0.0759671 -1.6993 0
M  V30 202 O 22.3113 -0.0841106 -1.94018 0
M  V30 203 C 19.4413 -0.564709 -3.42678 0
M  V30 204 C 18.3953 -1.58486 -3.97576 0
M  V30 205 C 17.7213 -1.00628 -5.25146 0
M  V30 206 C 19.0213 -2.97204 -4.29496 0
M  V30 207 H 20.7153 -1.92495 -2.29317 0
M  V30 208 H 18.2613 -0.92693 -1.102 0
M  V30 209 H 20.2143 -0.401091 -4.19487 0
M  V30 210 H 18.9383 0.396411 -3.24185 0
M  V30 211 H 17.5973 -1.73606 -3.22888 0
M  V30 212 H 17.2453 -0.0368439 -5.02987 0
M  V30 213 H 16.9453 -1.68771 -5.62841 0
M  V30 214 H 18.4693 -0.854015 -6.04598 0
M  V30 215 H 19.8833 -2.8552 -4.97143 0
M  V30 216 H 18.2803 -3.62372 -4.78338 0
M  V30 217 H 19.3503 -3.47956 -3.3772 0
M  V30 218 N 20.6934 1.19889 -1.02296 0
M  V30 219 C 22.1044 1.71124 -0.746568 0
M  V30 220 C 22.4554 1.81939 0.734335 0
M  V30 221 O 21.5804 1.48639 1.57275 0
M  V30 222 C 22.1754 3.10804 -1.34857 0
M  V30 223 C 20.7344 3.59323 -1.1209 0
M  V30 224 C 19.8814 2.3635 -1.45031 0
M  V30 225 H 22.8324 1.04813 -1.19163 0
M  V30 226 H 22.8534 3.73186 -0.742437 0
M  V30 227 H 22.3654 3.029 -2.42638 0
M  V30 228 H 20.4664 3.7255 -0.0610337 0
M  V30 229 H 20.5794 4.4378 -1.80544 0
M  V30 230 H 18.9434 2.39399 -0.869487 0
M  V30 231 H 19.7264 2.31081 -2.53883 0
M  V30 232 N 22.1715 0.800033 1.35784 0
M  V30 233 C 23.4175 0.377901 1.99248 0
M  V30 234 C 23.7505 -1.05052 1.63333 0
M  V30 235 O 23.0255 -1.72768 0.893385 0
M  V30 236 C 23.3085 0.553922 3.55814 0
M  V30 237 C 23.1615 2.0268 4.01548 0
M  V30 238 C 24.4805 -0.0244802 4.40093 0
M  V30 239 H 21.5995 0.138782 0.723815 0
M  V30 240 H 24.2415 1.00835 1.61035 0
M  V30 241 H 22.3915 0.0172398 3.88496 0
M  V30 242 H 24.0635 2.62536 3.79305 0
M  V30 243 H 22.3065 2.5256 3.52698 0
M  V30 244 H 22.9775 2.10087 5.10458 0
M  V30 245 H 25.4535 0.433775 4.13833 0
M  V30 246 H 24.3295 0.128637 5.48749 0
M  V30 247 H 24.5905 -1.11758 4.27741 0
M  V30 248 N 23.6496 -1.47581 0.552962 0
M  V30 249 C 24.6126 -2.28439 -0.186605 0
M  V30 250 C 25.6126 -1.36706 -0.84665 0
M  V30 251 O 26.8026 -1.59378 -0.703164 0
M  V30 252 C 23.9346 -3.16264 -1.2724 0
M  V30 253 H 25.1276 -2.95294 0.523609 0
M  V30 254 H 22.6806 -1.532 0.309745 0
M  V30 255 H 23.4156 -2.54091 -2.01514 0
M  V30 256 H 23.2006 -3.83769 -0.803968 0
M  V30 257 H 24.6906 -3.77198 -1.79196 0
M  V30 258 N 25.1277 -0.289203 -1.54924 0
M  V30 259 C 26.0907 0.579144 -2.21762 0
M  V30 260 C 27.0907 1.07047 -1.1999 0
M  V30 261 O 28.2807 0.968384 -1.44803 0
M  V30 262 C 25.4127 1.80055 -2.8947 0
M  V30 263 H 26.6057 -0.00464908 -2.999 0
M  V30 264 H 24.1587 -0.0399306 -1.56249 0
M  V30 265 H 24.8937 2.42449 -2.15381 0
M  V30 266 H 24.6787 1.45602 -3.64064 0
M  V30 267 H 26.1687 2.41773 -3.40493 0
M  V30 268 N 26.6058 1.57591 -0.0167156 0
M  V30 269 C 27.5688 2.08393 0.954204 0
M  V30 270 C 28.5688 0.996531 1.26198 0
M  V30 271 O 29.7588 1.25858 1.20438 0
M  V30 272 C 26.8908 2.5394 2.27436 0
M  V30 273 H 28.0838 2.95455 0.514451 0
M  V30 274 H 25.6368 1.54582 0.231089 0
M  V30 275 H 26.3718 1.70171 2.76066 0
M  V30 276 H 26.1568 3.33371 2.06412 0
M  V30 277 H 27.6468 2.93512 2.97053 0
M  V30 278 N 28.0839 -0.256276 1.55502 0
M  V30 279 C 29.0469 -1.30047 1.88734 0
M  V30 280 C 30.0469 -1.4154 0.763086 0
M  V30 281 O 31.2369 -1.40403 1.03115 0
M  V30 282 C 28.3689 -2.67953 2.10747 0
M  V30 283 H 29.5619 -1.01802 2.82093 0
M  V30 284 H 27.1149 -0.495134 1.4825 0
M  V30 285 H 27.8499 -3.01351 1.19825 0
M  V30 286 H 27.6349 -2.60993 2.92617 0
M  V30 287 H 29.1249 -3.43368 2.37673 0
M  V30 288 N 29.562 -1.4872 -0.521534 0
M  V30 289 C 30.525 -1.63379 -1.60748 0
M  V30 290 C 31.525 -0.50661 -1.52611 0
M  V30 291 O 32.715 -0.772601 -1.5613 0
M  V30 292 C 29.847 -1.61192 -3.00383 0
M  V30 293 H 31.04 -2.60217 -1.49087 0
M  V30 294 H 28.593 -1.37444 -0.744235 0
M  V30 295 H 29.328 -0.65863 -3.17541 0
M  V30 296 H 29.113 -2.43032 -3.07698 0
M  V30 297 H 30.603 -1.7466 -3.7932 0
M  V30 298 N 31.0401 0.771051 -1.3745 0
M  V30 299 C 32.0031 1.86598 -1.33093 0
M  V30 300 C 33.0031 1.59076 -0.234845 0
M  V30 301 O 34.1931 1.67145 -0.490732 0
M  V30 302 C 31.3251 3.23747 -1.06773 0
M  V30 303 H 32.5181 1.91873 -2.30488 0
M  V30 304 H 30.0711 0.970876 -1.2249 0
M  V30 305 H 30.8061 3.24148 -0.099129 0
M  V30 306 H 30.5911 3.45115 -1.86112 0
M  V30 307 H 32.0811 4.03824 -1.06377 0
M  V30 308 N 32.5182 1.22032 0.997298 0
M  V30 309 C 33.4812 0.987909 2.06816 0
M  V30 310 C 34.4812 -0.0440084 1.6074 0
M  V30 311 O 35.6712 0.194053 1.73116 0
M  V30 312 C 32.8032 0.49132 3.37341 0
M  V30 313 H 33.9962 1.93803 2.28868 0
M  V30 314 H 31.5492 1.03838 1.16822 0
M  V30 315 H 32.2842 -0.463364 3.20973 0
M  V30 316 H 32.0692 1.23575 3.72118 0
M  V30 317 H 33.5592 0.348824 4.16141 0
M  V30 318 N 33.9963 -1.19345 1.0293 0
M  V30 319 C 34.9593 -2.20793 0.615069 0
M  V30 320 C 35.9593 -1.57553 -0.321533 0
M  V30 321 O 37.1493 -1.73862 -0.108483 0
M  V30 322 C 34.2813 -3.40754 -0.0999222 0
M  V30 323 H 35.4743 -2.58955 1.51269 0
M  V30 324 H 33.0273 -1.3303 0.820534 0
M  V30 325 H 33.7623 -3.0811 -1.01187 0
M  V30 326 H 33.5473 -3.87889 0.57309 0
M  V30 327 H 35.0373 -4.15898 -0.376645 0
M  V30 328 N 35.4744 -0.807222 -1.35358 0
M  V30 329 C 36.4374 -0.223665 -2.28106 0
M  V30 330 C 37.4374 0.589354 -1.4961 0
M  V30 331 O 38.6274 0.407745 -1.69361 0
M  V30 332 C 35.7594 0.688149 -3.33882 0
M  V30 333 H 36.9524 -1.04169 -2.81227 0
M  V30 334 H 34.5054 -0.577921 -1.45223 0
M  V30 335 H 35.2404 1.52984 -2.85948 0
M  V30 336 H 35.0254 0.10687 -3.91954 0
M  V30 337 H 36.5154 1.09075 -4.03104 0
M  V30 338 N 36.9525 1.47285 -0.560781 0
M  V30 339 C 37.9155 2.28535 0.174488 0
M  V30 340 C 38.9155 1.37153 0.839388 0
M  V30 341 O 40.1055 1.59748 0.694702 0
M  V30 342 C 37.2375 3.16934 1.25561 0
M  V30 343 H 38.4305 2.95012 -0.539262 0
M  V30 344 H 35.9835 1.53034 -0.317865 0
M  V30 345 H 36.7185 2.55157 2.00164 0
M  V30 346 H 36.5035 3.8419 0.783604 0
M  V30 347 H 37.9935 3.78143 1.77193 0
M  V30 348 N 38.4306 0.297415 1.54768 0
M  V30 349 C 39.3606 -0.573494 2.26348 0
M  V30 350 C 40.3416 -1.14085 1.26169 0
M  V30 351 O 41.5266 -1.17086 1.54934 0
M  V30 352 C 38.6566 -1.74716 3.00153 0
M  V30 353 C 37.6106 -1.31032 4.07449 0
M  V30 354 C 36.9366 -2.56887 4.68949 0
M  V30 355 C 38.2366 -0.444183 5.20408 0
M  V30 356 H 39.9306 0.0235131 2.99391 0
M  V30 357 H 37.4766 0.0127488 1.43994 0
M  V30 358 H 39.4296 -2.3625 3.48947 0
M  V30 359 H 38.1536 -2.37035 2.24682 0
M  V30 360 H 36.8126 -0.718066 3.59499 0
M  V30 361 H 36.4606 -3.17512 3.90122 0
M  V30 362 H 36.1606 -2.2836 5.41411 0
M  V30 363 H 37.6846 -3.19229 5.20505 0
M  V30 364 H 39.0986 -0.9651 5.65118 0
M  V30 365 H 37.4956 -0.252846 5.99567 0
M  V30 366 H 38.5656 0.531609 4.81977 0
M  V30 367 N 39.9087 -1.5758 0.0250728 0
M  V30 368 C 41.1547 -1.91917 -0.655413 0
M  V30 369 C 41.4877 -0.901433 -1.72011 0
M  V30 370 O 40.7627 0.0764069 -1.9435 0
M  V30 371 C 41.0457 -3.36751 -1.27558 0
M  V30 372 C 40.8987 -4.49258 -0.220719 0
M  V30 373 C 42.2177 -3.81469 -2.19475 0
M  V30 374 H 39.3367 -0.697925 -0.23679 0
M  V30 375 H 41.9787 -1.89825 0.0815036 0
M  V30 376 H 40.1287 -3.38664 -1.90365 0
M  V30 377 H 41.8007 -4.59478 0.409601 0
M  V30 378 H 40.0437 -4.31415 0.454264 0
M  V30 379 H 40.7147 -5.47618 -0.694175 0
M  V30 380 H 43.1907 -3.81266 -1.66659 0
M  V30 381 H 42.0667 -4.83512 -2.59822 0
M  V30 382 H 42.3277 -3.16744 -3.08424 0
M  V30 383 N 41.3868 0.248026 -1.55636 0
M  V30 384 C 42.7978 0.817177 -1.67866 0
M  V30 385 C 43.1488 1.86069 -0.622322 0
M  V30 386 O 42.2738 2.15157 0.231618 0
M  V30 387 C 42.8688 1.489 -3.04326 0
M  V30 388 C 41.4278 2.00587 -3.185 0
M  V30 389 C 40.5748 0.856573 -2.63739 0
M  V30 390 H 43.5258 0.0238579 -1.58682 0
M  V30 391 H 43.5468 2.35698 -2.98708 0
M  V30 392 H 43.0588 0.729279 -3.81186 0
M  V30 393 H 41.1598 2.79443 -2.4646 0
M  V30 394 H 41.2728 2.20402 -4.25393 0
M  V30 395 H 39.6368 1.25678 -2.21534 0
M  V30 396 H 40.4198 0.109953 -3.43124 0
M  V30 397 N 42.8649 1.48995 0.513639 0
M  V30 398 C 44.1129 1.57531 1.26604 0
M  V30 399 C 44.4339 0.258236 1.93283 0
M  V30 400 O 43.7039 -0.721502 1.8213 0
M  V30 401 H 42.2839 0.580387 0.470276 0
M  V30 402 H 44.9459 1.85552 0.596373 0
M  V30 403 H 44.0419 2.36486 2.03669 0
M  V30 404 N 44.343 -0.763751 1.37857 0
M  V30 405 C 45.568 -1.55805 1.36893 0
M  V30 406 C 45.993 -1.88054 -0.0416135 0
M  V30 407 O 45.351 -1.49825 -1.02089 0
M  V30 408 C 45.399 -2.84012 2.22192 0
M  V30 409 O 44.503 -3.78732 1.63204 0
M  V30 410 H 43.844 -0.471638 0.46739 0
M  V30 411 H 46.374 -0.944657 1.81487 0
M  V30 412 H 46.384 -3.33037 2.35691 0
M  V30 413 H 45.059 -2.59869 3.24716 0
M  V30 414 H 43.636 -3.37402 1.58791 0
M  V30 415 N 45.8211 -1.22559 -0.990812 0
M  V30 416 C 47.0691 -1.04933 -1.72724 0
M  V30 417 C 47.3901 0.416158 -1.90508 0
M  V30 418 O 46.6601 1.29918 -1.46622 0
M  V30 419 H 45.2401 -0.385296 -0.639965 0
M  V30 420 H 47.9021 -1.54105 -1.19322 0
M  V30 421 H 46.9981 -1.52886 -2.72089 0
M  V30 422 N 47.2992 1.18797 -1.03562 0
M  V30 423 C 48.7102 1.70322 -0.764676 0
M  V30 424 C 49.0612 1.82708 0.714996 0
M  V30 425 O 48.1862 1.50299 1.55689 0
M  V30 426 C 48.7812 3.09356 -1.38145 0
M  V30 427 C 47.3402 3.58114 -1.15895 0
M  V30 428 C 46.4872 2.34798 -1.4753 0
M  V30 429 H 49.4382 1.03543 -1.20268 0
M  V30 430 H 49.4592 3.72378 -0.781977 0
M  V30 431 H 48.9712 3.00309 -2.45837 0
M  V30 432 H 47.0722 3.72464 -0.100544 0
M  V30 433 H 47.1852 4.4184 -1.8524 0
M  V30 434 H 45.5492 2.38464 -0.894829 0
M  V30 435 H 46.3322 2.28375 -2.56319 0
M  V30 436 N 48.7773 0.814389 1.34928 0
M  V30 437 C 50.0253 0.397636 1.9815 0
M  V30 438 C 50.3463 -1.04069 1.64908 0
M  V30 439 O 49.6163 -1.72121 0.93548 0
M  V30 440 H 48.1963 0.144043 0.732981 0
M  V30 441 H 50.8583 1.04195 1.6471 0
M  V30 442 H 49.9543 0.509688 3.0791 0
M  V30 443 N 50.2554 -1.46986 0.568584 0
M  V30 444 C 51.6664 -1.86188 0.138219 0
M  V30 445 C 52.0174 -1.47388 -1.29504 0
M  V30 446 O 51.1424 -0.88219 -1.97602 0
M  V30 447 C 51.7374 -3.3792 0.244065 0
M  V30 448 C 50.2964 -3.76171 -0.131335 0
M  V30 449 C 49.4434 -2.71027 0.586465 0
M  V30 450 H 52.3944 -1.38342 0.777645 0
M  V30 451 H 52.4154 -3.76729 -0.534351 0
M  V30 452 H 51.9274 -3.66128 1.28731 0
M  V30 453 H 50.0284 -3.5358 -1.17526 0
M  V30 454 H 50.1414 -4.78523 0.235146 0
M  V30 455 H 48.5054 -2.54684 0.0282722 0
M  V30 456 H 49.2884 -3.02077 1.63109 0
M  V30 457 N 51.7335 -0.305618 -1.54608 0
M  V30 458 C 52.6965 0.555591 -2.22364 0
M  V30 459 C 53.6965 1.05768 -1.21119 0
M  V30 460 O 54.8865 0.952972 -1.45822 0
M  V30 461 C 52.0185 1.76974 -2.91364 0
M  V30 462 H 53.2115 -0.0364572 -2.99878 0
M  V30 463 H 50.7645 -0.0565007 -1.56198 0
M  V30 464 H 51.4995 2.40151 -2.17941 0
M  V30 465 H 51.2845 1.41732 -3.65588 0
M  V30 466 H 52.7745 2.38148 -3.43038 0
M  V30 467 N 53.2116 1.57565 -0.0334293 0
M  V30 468 C 54.6226 1.79746 0.504798 0
M  V30 469 C 54.9736 0.944091 1.71992 0
M  V30 470 O 54.0986 0.155694 2.15839 0
M  V30 471 C 54.6936 3.25997 0.922567 0
M  V30 472 C 53.2526 3.49159 1.40588 0
M  V30 473 C 52.3996 2.74785 0.372633 0
M  V30 474 H 55.3506 1.56565 -0.259436 0
M  V30 475 H 55.3716 3.35945 1.78666 0
M  V30 476 H 54.8836 3.88081 0.0379825 0
M  V30 477 H 52.9846 2.92332 2.31025 0
M  V30 478 H 53.0976 4.57873 1.41028 0
M  V30 479 H 51.4616 2.40391 0.841672 0
M  V30 480 H 52.2446 3.39587 -0.503559 0
M  V30 481 N 54.6897 -0.239769 1.55765 0
M  V30 482 C 55.9367 -0.966801 1.7793 0
M  V30 483 C 56.2647 -1.85046 0.599015 0
M  V30 484 O 55.5197 -1.91197 -0.417395 0
M  V30 485 C 55.8187 -1.852 3.05672 0
M  V30 486 C 55.4847 -1.1231 4.36689 0
M  V30 487 C 54.1467 -0.921689 4.72291 0
M  V30 488 C 56.4987 -0.607019 5.17653 0
M  V30 489 C 53.8267 -0.191996 5.86386 0
M  V30 490 C 56.1787 0.109241 6.32506 0
M  V30 491 C 54.8427 0.322073 6.66723 0
M  V30 492 H 54.1127 -0.353778 0.651093 0
M  V30 493 H 56.7597 -0.23634 1.90036 0
M  V30 494 H 55.0647 -2.64975 2.8861 0
M  V30 495 H 56.7617 -2.41635 3.20021 0
M  V30 496 H 53.3517 -1.29004 4.08725 0
M  V30 497 H 57.5357 -0.750153 4.90598 0
M  V30 498 H 52.7917 -0.0166949 6.11398 0
M  V30 499 H 56.9657 0.516737 6.9448 0
M  V30 500 H 54.5927 0.88944 7.54979 0
M  V30 501 N 56.1678 -1.49265 -0.50573 0
M  V30 502 C 57.0978 -1.68495 -1.61653 0
M  V30 503 C 58.0788 -0.53366 -1.61512 0
M  V30 504 O 59.2638 -0.76897 -1.78327 0
M  V30 505 C 56.3938 -1.74709 -3.00157 0
M  V30 506 C 55.3478 -2.89581 -3.15162 0
M  V30 507 C 54.6738 -2.80903 -4.5497 0
M  V30 508 C 55.9738 -4.30578 -2.95634 0
M  V30 509 H 57.6678 -2.61493 -1.45814 0
M  V30 510 H 55.2138 -1.25838 -0.70005 0
M  V30 511 H 57.1668 -1.86748 -3.77761 0
M  V30 512 H 55.8908 -0.783067 -3.17074 0
M  V30 513 H 54.5498 -2.77136 -2.39982 0
M  V30 514 H 54.1978 -1.82419 -4.68756 0
M  V30 515 H 53.8978 -3.57999 -4.65951 0
M  V30 516 H 55.4218 -2.94944 -5.34641 0
M  V30 517 H 56.8358 -4.4373 -3.63011 0
M  V30 518 H 55.2328 -5.0886 -3.18091 0
M  V30 519 H 56.3028 -4.45352 -1.91806 0
M  V30 520 N 57.6459 0.756429 -1.3826 0
M  V30 521 C 58.6089 1.85176 -1.35065 0
M  V30 522 C 59.6089 1.58818 -0.251703 0
M  V30 523 O 60.7989 1.66615 -0.508433 0
M  V30 524 C 57.9309 3.22596 -1.10201 0
M  V30 525 H 59.1239 1.89417 -2.3251 0
M  V30 526 H 56.6769 0.95783 -1.23512 0
M  V30 527 H 57.4119 3.24025 -0.133504 0
M  V30 528 H 57.1969 3.43122 -1.89762 0
M  V30 529 H 58.6869 4.02673 -1.10654 0
M  V30 530 N 59.124 1.23083 0.984299 0
M  V30 531 C 60.535 1.05609 1.5396 0
M  V30 532 C 60.886 -0.377793 1.92528 0
M  V30 533 O 60.011 -1.26398 1.75649 0
M  V30 534 C 60.606 1.91087 2.7977 0
M  V30 535 C 59.165 1.77885 3.31713 0
M  V30 536 C 58.312 1.87028 2.04733 0
M  V30 537 H 61.263 1.36802 0.804419 0
M  V30 538 H 61.284 1.43336 3.5247 0
M  V30 539 H 60.796 2.9544 2.51668 0
M  V30 540 H 58.897 0.762995 3.64704 0
M  V30 541 H 59.01 2.61047 4.01735 0
M  V30 542 H 57.374 1.30565 2.18689 0
M  V30 543 H 58.157 2.92929 1.79017 0
M  V30 544 N 60.6021 -1.18246 1.0419 0
M  V30 545 C 61.8481 -1.88536 0.747122 0
M  V30 546 C 62.1811 -1.80223 -0.723409 0
M  V30 547 O 61.4561 -1.20337 -1.52804 0
M  V30 548 C 61.7391 -3.38968 1.21544 0
M  V30 549 C 61.5921 -3.56084 2.74816 0
M  V30 550 C 62.9111 -4.32648 0.806482 0
M  V30 551 H 60.0301 -0.684619 0.272883 0
M  V30 552 H 62.6721 -1.39113 1.29413 0
M  V30 553 H 60.8221 -3.8119 0.750081 0
M  V30 554 H 62.4941 -3.22946 3.29399 0
M  V30 555 H 60.7371 -2.98699 3.14582 0
M  V30 556 H 61.4081 -4.61639 3.02644 0
M  V30 557 H 63.8841 -3.98211 1.20695 0
M  V30 558 H 62.7601 -5.36462 1.1619 0
M  V30 559 H 63.0211 -4.41146 -0.29029 0
M  V30 560 N 62.0802 -0.821533 -1.34494 0
M  V30 561 C 63.0432 -0.247847 -2.27856 0
M  V30 562 C 64.0432 0.573453 -1.50227 0
M  V30 563 O 65.2332 0.389759 -1.69784 0
M  V30 564 C 62.3652 0.652698 -3.34593 0
M  V30 565 H 63.5582 -1.07146 -2.80107 0
M  V30 566 H 61.1112 -0.593291 -1.44602 0
M  V30 567 H 61.8462 1.49943 -2.87555 0
M  V30 568 H 61.6312 0.065292 -3.92046 0
M  V30 569 H 63.1212 1.04793 -4.04238 0
M  V30 570 N 63.5583 1.46682 -0.576371 0
M  V30 571 C 64.5213 2.28707 0.150239 0
M  V30 572 C 65.5213 1.38035 0.824794 0
M  V30 573 O 66.7113 1.60476 0.677719 0
M  V30 574 C 63.8433 3.18248 1.22192 0
M  V30 575 H 65.0363 2.94423 -0.570521 0
M  V30 576 H 62.5893 1.52688 -0.334078 0
M  V30 577 H 63.3243 2.57265 1.97447 0
M  V30 578 H 63.1093 3.85 0.742812 0
M  V30 579 H 64.5993 3.80001 1.73172 0
M  V30 580 N 65.0364 0.313813 1.54444 0
M  V30 581 C 66.4474 -0.176243 1.85866 0
M  V30 582 C 66.7984 -1.52405 1.23561 0
M  V30 583 O 65.9234 -2.09605 0.538016 0
M  V30 584 C 66.5184 -0.32657 3.37222 0
M  V30 585 C 65.0774 -0.760846 3.6863 0
M  V30 586 C 64.2244 0.123247 2.77026 0
M  V30 587 H 67.1754 0.534418 1.49431 0
M  V30 588 H 67.1964 -1.15908 3.62416 0
M  V30 589 H 66.7084 0.654531 3.82541 0
M  V30 590 H 64.8094 -1.75204 3.28838 0
M  V30 591 H 64.9224 -0.571353 4.75681 0
M  V30 592 H 63.2864 -0.399597 2.51546 0
M  V30 593 H 64.0694 1.10094 3.25168 0
M  V30 594 N 66.5145 -1.57545 0.0417849 0
M  V30 595 C 67.7605 -1.92601 -0.635021 0
M  V30 596 C 68.0935 -0.919627 -1.71045 0
M  V30 597 O 67.3685 0.0557892 -1.9442 0
M  V30 598 C 67.6515 -3.38085 -1.23979 0
M  V30 599 C 67.5045 -4.49467 -0.173057 0
M  V30 600 C 68.8235 -3.83776 -2.15416 0
M  V30 601 H 65.9425 -0.700397 -0.229374 0
M  V30 602 H 68.5845 -1.89728 0.101633 0
M  V30 603 H 66.7345 -3.40664 -1.86762 0
M  V30 604 H 68.4065 -4.59018 0.458312 0
M  V30 605 H 66.6495 -4.30909 0.499996 0
M  V30 606 H 67.3205 -5.48323 -0.636054 0
M  V30 607 H 69.7965 -3.83013 -1.62605 0
M  V30 608 H 68.6725 -4.8624 -2.54679 0
M  V30 609 H 68.9335 -3.19998 -3.05047 0
M  V30 610 N 67.9926 0.231505 -1.5589 0
M  V30 611 C 69.2406 0.955461 -1.78088 0
M  V30 612 C 69.5616 1.85262 -0.608533 0
M  V30 613 O 68.8316 1.92277 0.375035 0
M  V30 614 H 67.4116 0.355787 -0.656829 0
M  V30 615 H 70.0736 0.245751 -1.93344 0
M  V30 616 H 69.1696 1.56814 -2.69844 0
M  V30 617 N 69.4707 1.49531 0.497807 0
M  V30 618 C 70.7187 1.58865 1.24926 0
M  V30 619 C 71.0397 0.278721 1.92998 0
M  V30 620 O 70.3097 -0.702144 1.82885 0
M  V30 621 H 68.8897 0.585343 0.464094 0
M  V30 622 H 71.5517 1.86174 0.57666 0
M  V30 623 H 70.6477 2.38633 2.01149 0
M  V30 624 N 70.9488 -0.749086 1.3866 0
M  V30 625 C 72.1978 -1.50371 1.3443 0
M  V30 626 C 72.5108 -1.95503 -0.0616397 0
M  V30 627 O 73.7168 -2.70554 -0.226489 0
M  V30 628 C 72.1728 -2.71644 2.36088 0
M  V30 629 C 71.7808 -2.3352 3.82325 0
M  V30 630 C 73.5248 -3.49518 2.40909 0
M  V30 631 C 71.4318 -3.51431 4.75658 0
M  V30 632 H 70.3618 -0.564628 0.499712 0
M  V30 633 H 73.0128 -0.818449 1.64237 0
M  V30 634 H 71.3948 -3.42175 1.9933 0
M  V30 635 H 72.5688 -1.70627 4.28046 0
M  V30 636 H 70.8838 -1.6877 3.80665 0
M  V30 637 H 73.4808 -4.37197 3.07836 0
M  V30 638 H 73.8238 -3.90992 1.42937 0
M  V30 639 H 74.3568 -2.86005 2.76489 0
M  V30 640 H 71.0958 -3.15019 5.74842 0
M  V30 641 H 70.6158 -4.13352 4.34627 0
M  V30 642 H 72.2948 -4.17953 4.93887 0
M  V30 643 N 72.4269 -1.23603 -0.977757 0
M  V30 644 C 73.6519 -1.09735 -1.75991 0
M  V30 645 C 74.0769 0.346858 -1.84874 0
M  V30 646 O 73.4349 1.25093 -1.3123 0
M  V30 647 C 73.4829 -1.73051 -3.16363 0
M  V30 648 O 72.5869 -0.994452 -4.0023 0
M  V30 649 H 71.9279 -0.384476 -0.541364 0
M  V30 650 H 74.4579 -1.6371 -1.2272 0
M  V30 651 H 74.4679 -1.78398 -3.66931 0
M  V30 652 H 73.1429 -2.78137 -3.09213 0
M  V30 653 H 71.7199 -1.01812 -3.58732 0
M  V30 654 N 73.905 1.17692 -1.04816 0
M  V30 655 C 75.152 1.87859 -0.75599 0
M  V30 656 C 75.48 1.80812 0.716752 0
M  V30 657 O 74.735 1.20819 1.53952 0
M  V30 658 C 75.034 3.37462 -1.17703 0
M  V30 659 C 74.7 3.64713 -2.65133 0
M  V30 660 C 73.362 3.71859 -3.05408 0
M  V30 661 C 75.714 3.76492 -3.60421 0
M  V30 662 C 73.042 3.88271 -4.39843 0
M  V30 663 C 75.394 3.94421 -4.94585 0
M  V30 664 C 74.058 3.99806 -5.3452 0
M  V30 665 H 73.328 0.687425 -0.276636 0
M  V30 666 H 75.975 1.39255 -1.31455 0
M  V30 667 H 74.28 3.88097 -0.537395 0
M  V30 668 H 75.977 3.90109 -0.928218 0
M  V30 669 H 72.567 3.59772 -2.32942 0
M  V30 670 H 76.751 3.70295 -3.30447 0
M  V30 671 H 72.007 3.90687 -4.70291 0
M  V30 672 H 76.181 4.02477 -5.68318 0
M  V30 673 H 73.808 4.12276 -6.38696 0
M  V30 674 N 75.3831 0.828654 1.34056 0
M  V30 675 C 76.3331 0.226828 2.26869 0
M  V30 676 C 77.3171 -0.612243 1.48796 0
M  V30 677 O 78.5091 -0.465884 1.70759 0
M  V30 678 C 75.6381 -0.605654 3.37915 0
M  V30 679 C 74.7241 0.244361 4.23395 0
M  V30 680 N 75.1151 1.31815 4.88322 0
M  V30 681 C 73.4131 0.0296616 4.4599 0
M  V30 682 C 74.1141 1.83895 5.51867 0
M  V30 683 N 73.0901 1.14196 5.3147 0
M  V30 684 H 76.8921 1.04811 2.74576 0
M  V30 685 H 74.4061 0.67205 1.47842 0
M  V30 686 H 76.4031 -1.05302 4.03382 0
M  V30 687 H 75.0631 -1.42504 2.91758 0
M  V30 688 H 76.0741 1.70099 4.8917 0
M  V30 689 H 72.7511 -0.757097 4.10578 0
M  V30 690 H 74.1411 2.7376 6.136 0
M  V30 691 N 76.8612 -1.46375 0.584142 0
M  V30 692 C 77.7912 -2.33103 -0.136037 0
M  V30 693 C 78.7722 -1.45431 -0.882255 0
M  V30 694 O 79.9572 -1.74246 -0.857434 0
M  V30 695 C 77.0872 -3.27731 -1.14933 0
M  V30 696 C 76.0412 -4.24855 -0.517862 0
M  V30 697 C 75.3672 -5.09001 -1.63773 0
M  V30 698 C 76.6672 -5.19439 0.545886 0
M  V30 699 H 78.3612 -2.93568 0.588086 0
M  V30 700 H 75.9072 -1.41166 0.284259 0
M  V30 701 H 77.8602 -3.87261 -1.66153 0
M  V30 702 H 76.5842 -2.65377 -1.90375 0
M  V30 703 H 75.2432 -3.6659 -0.0267361 0
M  V30 704 H 74.8912 -4.43031 -2.38185 0
M  V30 705 H 74.5912 -5.74777 -1.22085 0
M  V30 706 H 76.1152 -5.71396 -2.15266 0
M  V30 707 H 77.5292 -5.73177 0.118704 0
M  V30 708 H 75.9262 -5.93566 0.88317 0
M  V30 709 H 76.9962 -4.63285 1.43162 0
M  V30 710 N 78.3393 -0.321999 -1.54275 0
M  V30 711 C 79.2713 0.578671 -2.21775 0
M  V30 712 C 80.2843 1.08109 -1.21722 0
M  V30 713 O 81.4733 0.994938 -1.482 0
M  V30 714 C 78.5733 1.80661 -2.86731 0
M  V30 715 C 77.7463 1.44314 -4.12907 0
M  V30 716 C 76.8053 2.52845 -4.61472 0
M  V30 717 O 75.8313 2.17054 -5.2619 0
M  V30 718 N 77.0333 3.83748 -4.35566 0
M  V30 719 H 79.7983 0.000709447 -2.997 0
M  V30 720 H 77.3593 -0.145132 -1.61248 0
M  V30 721 H 79.3513 2.52655 -3.16145 0
M  V30 722 H 77.9213 2.29245 -2.12521 0
M  V30 723 H 77.1413 0.554906 -3.90275 0
M  V30 724 H 78.4293 1.17598 -4.95023 0
M  V30 725 H 77.8273 4.15625 -3.83761 0
M  V30 726 H 76.3843 4.51977 -4.69638 0
M  V30 727 N 79.8174 1.5752 -0.0501392 0
M  V30 728 C 81.0664 1.91827 0.623328 0
M  V30 729 C 81.3794 0.930222 1.72065 0
M  V30 730 O 82.5854 1.1653 2.4522 0
M  V30 731 C 81.0414 3.40692 1.16003 0
M  V30 732 C 80.6494 4.479 0.0948811 0
M  V30 733 C 82.3934 3.84034 1.80881 0
M  V30 734 C 80.3004 5.87879 0.644411 0
M  V30 735 H 79.2304 0.715918 0.236596 0
M  V30 736 H 81.8814 1.83115 -0.118861 0
M  V30 737 H 80.2634 3.44405 1.9545 0
M  V30 738 H 81.4374 4.55775 -0.678675 0
M  V30 739 H 79.7524 4.13892 -0.45637 0
M  V30 740 H 82.3494 4.85984 2.22988 0
M  V30 741 H 82.6924 3.20225 2.6601 0
M  V30 742 H 83.2254 3.82833 1.0809 0
M  V30 743 H 79.9644 6.55282 -0.169229 0
M  V30 744 H 79.4844 5.83567 1.38598 0
M  V30 745 H 81.1634 6.37098 1.12763 0
M  V30 746 N 81.2955 -0.223234 1.56011 0
M  V30 747 C 82.5435 -0.946003 1.78592 0
M  V30 748 C 82.8645 -1.84936 0.618349 0
M  V30 749 O 82.1345 -1.92473 -0.364833 0
M  V30 750 H 80.7145 -0.352298 0.658707 0
M  V30 751 H 83.3765 -0.235494 1.93472 0
M  V30 752 H 82.4725 -1.55381 2.70672 0
M  V30 753 N 82.7736 -1.49793 -0.48987 0
M  V30 754 C 83.7036 -1.70201 -1.59856 0
M  V30 755 C 84.6846 -0.55076 -1.60937 0
M  V30 756 O 85.8696 -0.787841 -1.77501 0
M  V30 757 C 82.9996 -1.77882 -2.98287 0
M  V30 758 C 81.9536 -2.92907 -3.12073 0
M  V30 759 C 81.2796 -2.85712 -4.51965 0
M  V30 760 C 82.5796 -4.3369 -2.91051 0
M  V30 761 H 84.2736 -2.63025 -1.43032 0
M  V30 762 H 81.8196 -1.26574 -0.686664 0
M  V30 763 H 83.7726 -1.90744 -3.75759 0
M  V30 764 H 82.4966 -0.816653 -3.16225 0
M  V30 765 H 81.1556 -2.79665 -2.37029 0
M  V30 766 H 80.8036 -1.8738 -4.66795 0
M  V30 767 H 80.5036 -3.62921 -4.62128 0
M  V30 768 H 82.0276 -3.00598 -5.31482 0
M  V30 769 H 83.4416 -4.47555 -3.58284 0
M  V30 770 H 81.8386 -5.12205 -3.12675 0
M  V30 771 H 82.9086 -4.47362 -1.87071 0
M  V30 772 N 84.2517 0.741722 -1.39055 0
M  V30 773 C 85.4767 1.53607 -1.39354 0
M  V30 774 C 85.9017 1.88096 0.0116905 0
M  V30 775 O 85.2597 1.5143 0.996924 0
M  V30 776 C 85.3077 2.80441 -2.26682 0
M  V30 777 O 84.4117 3.76088 -1.69208 0
M  V30 778 H 83.7527 0.464142 -0.474835 0
M  V30 779 H 86.2827 0.915665 -1.82967 0
M  V30 780 H 86.2927 3.29246 -2.40959 0
M  V30 781 H 84.9677 2.5467 -3.2881 0
M  V30 782 H 83.5447 3.34833 -1.64138 0
M  V30 783 N 85.7298 1.2412 0.971189 0
M  V30 784 C 87.1458 1.00584 1.23916 0
M  V30 785 C 87.3458 -0.287481 1.99439 0
M  V30 786 O 86.4018 -1.00454 2.31658 0
M  V30 787 C 87.7148 2.21864 2.0297 0
M  V30 788 C 89.2628 2.26452 2.16076 0
M  V30 789 C 89.7378 3.47343 2.98524 0
M  V30 790 N 91.2288 3.47639 3.06107 0
M  V30 791 C 91.9638 4.37837 3.70251 0
M  V30 792 N 91.4598 5.38286 4.36142 0
M  V30 793 N 93.2528 4.25558 3.67228 0
M  V30 794 H 85.4038 2.07236 0.465499 0
M  V30 795 H 87.6668 0.909236 0.268315 0
M  V30 796 H 87.3728 3.15771 1.54861 0
M  V30 797 H 87.2468 2.23698 3.03709 0
M  V30 798 H 89.6338 1.33078 2.6339 0
M  V30 799 H 89.7148 2.28645 1.14696 0
M  V30 800 H 89.3588 4.41029 2.51905 0
M  V30 801 H 89.2888 3.42393 4.00093 0
M  V30 802 H 91.7798 2.74966 2.59233 0
M  V30 803 H 92.0928 6.03352 4.82894 0
M  V30 804 H 90.4378 5.42176 4.34822 0
M  V30 805 H 93.6288 3.46322 3.14927 0
M  V30 806 H 93.8018 4.96054 4.16935 0
M  V30 807 N 87.2079 -1.17134 1.05439 0
M  V30 808 C 88.1179 -2.24878 0.668365 0
M  V30 809 C 89.1339 -1.71186 -0.311687 0
M  V30 810 O 90.3099 -2.00738 -0.163161 0
M  V30 811 C 87.3749 -3.46662 0.051648 0
M  V30 812 C 86.4359 -4.15429 1.08246 0
M  V30 813 C 85.6689 -5.31399 0.495082 0
M  V30 814 O 85.8919 -5.66153 -0.694743 0
M  V30 815 O 84.8259 -5.89187 1.23056 0
M  V30 816 H 88.6519 -2.60189 1.56637 0
M  V30 817 H 86.2369 -1.24482 0.826104 0
M  V30 818 H 88.1189 -4.20394 -0.290966 0
M  V30 819 H 86.7939 -3.13142 -0.819971 0
M  V30 820 H 85.7009 -3.43704 1.47711 0
M  V30 821 H 87.0339 -4.52982 1.92532 0
M  V30 822 N 88.686 -0.835752 -1.33615 0
M  V30 823 C 90.097 -0.487099 -1.80234 0
M  V30 824 C 90.448 0.993627 -1.69179 0
M  V30 825 O 89.573 1.77403 -1.23924 0
M  V30 826 C 90.168 -0.877385 -3.27242 0
M  V30 827 C 88.727 -0.580915 -3.7189 0
M  V30 828 C 87.874 -1.0874 -2.5509 0
M  V30 829 H 90.825 -1.02474 -1.2118 0
M  V30 830 H 90.846 -0.186195 -3.80044 0
M  V30 831 H 90.358 -1.95512 -3.35256 0
M  V30 832 H 88.459 0.486881 -3.69405 0
M  V30 833 H 88.572 -1.13396 -4.65487 0
M  V30 834 H 86.936 -0.508392 -2.49575 0
M  V30 835 H 87.719 -2.17184 -2.65868 0
M  V30 836 N 90.1641 1.46063 -0.591896 0
M  V30 837 C 91.4101 2.02638 -0.0811191 0
M  V30 838 C 91.7431 1.4613 1.27905 0
M  V30 839 O 91.0181 0.629908 1.84017 0
M  V30 840 C 91.3011 3.60091 -0.0252436 0
M  V30 841 C 91.1541 4.26965 -1.41496 0
M  V30 842 C 92.4731 4.3496 0.670685 0
M  V30 843 H 89.5921 0.73635 -0.0309524 0
M  V30 844 H 92.2341 1.741 -0.760859 0
M  V30 845 H 90.3841 3.84535 0.553624 0
M  V30 846 H 92.0561 4.13756 -2.0397 0
M  V30 847 H 90.2991 3.85971 -1.98011 0
M  V30 848 H 90.9701 5.35781 -1.32825 0
M  V30 849 H 93.4461 4.15716 0.178825 0
M  V30 850 H 92.3221 5.44686 0.678837 0
M  V30 851 H 92.5831 4.06685 1.73379 0
M  V30 852 N 91.6422 0.330177 1.54103 0
M  V30 853 C 92.5722 -0.525353 2.27513 0
M  V30 854 C 93.5532 -1.11383 1.2856 0
M  V30 855 O 94.7382 -1.13773 1.57383 0
M  V30 856 C 91.8682 -1.6831 3.03791 0
M  V30 857 C 90.8222 -1.2236 4.10137 0
M  V30 858 C 90.1482 -2.46882 4.74293 0
M  V30 859 C 91.4482 -0.333697 5.21233 0
M  V30 860 H 93.1422 0.087013 2.99274 0
M  V30 861 H 90.6882 0.0432893 1.43935 0
M  V30 862 H 92.6412 -2.28795 3.5388 0
M  V30 863 H 91.3652 -2.32216 2.29659 0
M  V30 864 H 90.0242 -0.64165 3.60941 0
M  V30 865 H 89.6722 -3.09165 3.96769 0
M  V30 866 H 89.3722 -2.16825 5.46133 0
M  V30 867 H 90.8962 -3.08117 5.27159 0
M  V30 868 H 92.3102 -0.845013 5.67038 0
M  V30 869 H 90.7072 -0.125612 5.99969 0
M  V30 870 H 91.7772 0.633724 4.80741 0
M  V30 871 N 93.1203 -1.57491 0.0584922 0
M  V30 872 C 94.0503 -2.14988 -0.911178 0
M  V30 873 C 95.0313 -1.07343 -1.31952 0
M  V30 874 O 96.2163 -1.35318 -1.39294 0
M  V30 875 C 93.3463 -2.70078 -2.18347 0
M  V30 876 C 92.3003 -3.82771 -1.91495 0
M  V30 877 C 91.6263 -4.24408 -3.25241 0
M  V30 878 C 92.9263 -5.07592 -1.23075 0
M  V30 879 H 94.6203 -2.96263 -0.432246 0
M  V30 880 H 92.1663 -1.42512 -0.206469 0
M  V30 881 H 94.1193 -3.08943 -2.86587 0
M  V30 882 H 92.8433 -1.86005 -2.68458 0
M  V30 883 H 91.5023 -3.44389 -1.25664 0
M  V30 884 H 91.1503 -3.37275 -3.73168 0
M  V30 885 H 90.8503 -5.00366 -3.08071 0
M  V30 886 H 92.3743 -4.65879 -3.94701 0
M  V30 887 H 93.7883 -5.43857 -1.81362 0
M  V30 888 H 92.1853 -5.88741 -1.16207 0
M  V30 889 H 93.2553 -4.84454 -0.207847 0
M  V30 890 N 94.5984 0.214957 -1.56127 0
M  V30 891 C 95.5284 1.2695 -1.95974 0
M  V30 892 C 96.5094 1.48539 -0.828868 0
M  V30 893 O 97.6944 1.60611 -1.09168 0
M  V30 894 C 94.8244 2.61794 -2.28214 0
M  V30 895 C 93.7784 2.54851 -3.43853 0
M  V30 896 C 93.1044 3.93785 -3.61715 0
M  V30 897 C 94.4044 2.09065 -4.78632 0
M  V30 898 H 96.0984 0.93846 -2.84312 0
M  V30 899 H 93.6444 0.449996 -1.36788 0
M  V30 900 H 95.5974 3.35731 -2.54682 0
M  V30 901 H 94.3214 2.96599 -1.36736 0
M  V30 902 H 92.9804 1.8337 -3.17444 0
M  V30 903 H 92.6284 4.25908 -2.67602 0
M  V30 904 H 92.3284 3.90019 -4.39498 0
M  V30 905 H 93.8524 4.69374 -3.90539 0
M  V30 906 H 95.2664 2.7275 -5.04262 0
M  V30 907 H 93.6634 2.16346 -5.59745 0
M  V30 908 H 94.7334 1.04315 -4.73547 0
M  V30 909 N 96.0765 1.50051 0.48192 0
M  V30 910 C 97.0085 1.64263 1.59844 0
M  V30 911 C 98.0215 0.52451 1.54119 0
M  V30 912 O 99.2105 0.797293 1.59704 0
M  V30 913 C 96.3105 1.60102 2.98698 0
M  V30 914 C 95.4835 2.87767 3.29407 0
M  V30 915 C 94.5425 2.76397 4.47762 0
M  V30 916 O 93.5685 3.50348 4.48603 0
M  V30 917 N 94.7705 1.89222 5.48794 0
M  V30 918 H 97.5355 2.60566 1.48073 0
M  V30 919 H 95.0965 1.47379 0.670149 0
M  V30 920 H 97.0885 1.50123 3.75826 0
M  V30 921 H 95.6585 0.715798 3.04294 0
M  V30 922 H 94.8785 3.11954 2.40994 0
M  V30 923 H 96.1665 3.72365 3.4673 0
M  V30 924 H 95.5645 1.28434 5.50928 0
M  V30 925 H 94.1215 1.85154 6.24949 0
M  V30 926 N 97.5546 -0.734337 1.39446 0
M  V30 927 C 98.8316 -1.48579 1.27215 0
M  V30 928 C 99.2116 -2.1077 -0.117968 0
M  V30 929 O 98.5596 -1.98646 -1.12924 0
M  V30 930 C 98.7696 -2.53667 2.39696 0
M  V30 931 C 100.118 -3.20031 2.79044 0
M  V30 932 O 101.142 -2.6398 2.39151 0
M  V30 933 O 100.001 -4.21455 3.47905 0
M  V30 934 H 97.0946 -0.659816 0.49857 0
M  V30 935 H 99.6406 -0.768106 1.51322 0
M  V30 936 H 98.4126 -2.06096 3.32626 0
M  V30 937 H 98.0356 -3.32994 2.17258 0
M  V30 938 N 99.0327 -1.24633 -0.964593 0
M  V30 939 C 100.258 -1.11596 -1.74818 0
M  V30 940 C 100.683 0.32723 -1.85232 0
M  V30 941 O 100.041 1.23695 -1.32549 0
M  V30 942 C 100.089 -1.76397 -3.1451 0
M  V30 943 O 99.1927 -1.03685 -3.99153 0
M  V30 944 H 98.5337 -0.390196 -0.537255 0
M  V30 945 H 101.064 -1.65002 -1.20977 0
M  V30 946 H 101.074 -1.8228 -3.65018 0
M  V30 947 H 99.7487 -2.81401 -3.06246 0
M  V30 948 H 98.3257 -1.05611 -3.57632 0
M  V30 949 N 100.511 1.16574 -1.06058 0
M  V30 950 C 101.736 1.91493 -0.796562 0
M  V30 951 C 102.161 1.76773 0.642868 0
M  V30 952 O 101.519 1.09142 1.44768 0
M  V30 953 C 101.567 3.40293 -1.19303 0
M  V30 954 O 100.671 4.11074 -0.330394 0
M  V30 955 H 100.012 0.596678 -0.291326 0
M  V30 956 H 102.542 1.47708 -1.41575 0
M  V30 957 H 102.552 3.91057 -1.16356 0
M  V30 958 H 101.227 3.50326 -2.24153 0
M  V30 959 H 99.8038 3.70513 -0.421225 0
M  V30 960 N 101.989 0.842826 1.3317 0
M  V30 961 C 103.237 0.439577 1.97262 0
M  V30 962 C 103.558 -1.00548 1.67078 0
M  V30 963 O 102.828 -1.70098 0.971779 0
M  V30 964 H 101.408 0.159558 0.72976 0
M  V30 965 H 104.07 1.07665 1.62463 0
M  V30 966 H 103.166 0.574886 3.0676 0
M  V30 967 N 103.467 -1.45747 0.599634 0
M  V30 968 C 104.744 -1.95585 0.0240846 0
M  V30 969 C 105.124 -1.54217 -1.44154 0
M  V30 970 O 104.472 -0.800903 -2.14004 0
M  V30 971 C 104.682 -3.48344 0.21385 0
M  V30 972 C 106.03 -4.24504 0.0904902 0
M  V30 973 O 107.054 -3.55911 0.143558 0
M  V30 974 O 105.913 -5.46491 -0.0310766 0
M  V30 975 H 103.007 -0.82602 -0.0402478 0
M  V30 976 H 105.553 -1.55951 0.669139 0
M  V30 977 H 104.325 -3.71397 1.23206 0
M  V30 978 H 103.948 -3.9485 -0.466842 0
M  V30 979 N 104.945 -0.338344 -1.53925 0
M  V30 980 C 106.175 0.260919 -2.04946 0
M  V30 981 C 106.583 1.45174 -1.2133 0
M  V30 982 O 105.926 1.82122 -0.240262 0
M  V30 983 C 105.988 0.744596 -3.51704 0
M  V30 984 C 105.652 -0.325883 -4.55837 0
M  V30 985 C 106.649 -1.16687 -5.06636 0
M  V30 986 C 104.334 -0.478317 -5.00017 0
M  V30 987 C 106.328 -2.14588 -6.00192 0
M  V30 988 C 104.015 -1.46073 -5.93385 0
M  V30 989 C 105.013 -2.29297 -6.4336 0
M  V30 990 O 104.701 -3.25867 -7.34892 0
M  V30 991 H 104.433 0.0551207 -0.673749 0
M  V30 992 H 106.987 -0.486984 -1.99544 0
M  V30 993 H 105.217 1.54366 -3.54553 0
M  V30 994 H 106.906 1.26383 -3.85723 0
M  V30 995 H 107.672 -1.06016 -4.73271 0
M  V30 996 H 103.551 0.159613 -4.60724 0
M  V30 997 H 107.095 -2.79585 -6.39123 0
M  V30 998 H 102.992 -1.56802 -6.26166 0
M  V30 999 H 103.76 -3.21278 -7.5281 0
M  V30 1000 N 106.423 1.57458 -0.0668435 0
M  V30 1001 C 107.648 1.9804 0.616027 0
M  V30 1002 C 108.073 0.944771 1.62652 0
M  V30 1003 O 107.431 -0.0902094 1.81075 0
M  V30 1004 C 107.479 3.37665 1.26549 0
M  V30 1005 O 106.583 3.36701 2.38131 0
M  V30 1006 H 105.924 0.644719 0.158849 0
M  V30 1007 H 108.454 2.04121 -0.139891 0
M  V30 1008 H 108.464 3.7474 1.6135 0
M  V30 1009 H 107.139 4.12573 0.525016 0
M  V30 1010 H 105.716 3.1139 2.0516 0
M  V30 1011 N 107.901 -0.206675 1.56239 0
M  V30 1012 C 108.831 -1.25909 1.96645 0
M  V30 1013 C 109.812 -1.48097 0.836734 0
M  V30 1014 O 110.997 -1.6003 1.10019 0
M  V30 1015 C 108.127 -2.6058 2.29599 0
M  V30 1016 C 107.081 -2.53024 3.452 0
M  V30 1017 C 106.407 -3.91861 3.63798 0
M  V30 1018 C 107.707 -2.06524 4.79734 0
M  V30 1019 H 109.401 -0.923369 2.84806 0
M  V30 1020 H 106.947 -0.442735 1.37025 0
M  V30 1021 H 108.9 -3.34375 2.56459 0
M  V30 1022 H 107.624 -2.95869 1.38307 0
M  V30 1023 H 106.283 -1.81684 3.18412 0
M  V30 1024 H 105.931 -4.24483 2.69857 0
M  V30 1025 H 105.631 -3.87683 4.4156 0
M  V30 1026 H 107.155 -4.67296 3.93022 0
M  V30 1027 H 108.569 -2.70072 5.05702 0
M  V30 1028 H 106.966 -2.13374 5.60885 0
M  V30 1029 H 108.036 -1.01802 4.74093 0
M  V30 1030 N 109.379 -1.50304 -0.473955 0
M  V30 1031 C 110.342 -1.6841 -1.55469 0
M  V30 1032 C 111.342 -0.554905 -1.50922 0
M  V30 1033 O 112.532 -0.821882 -1.53593 0
M  V30 1034 C 109.664 -1.70667 -2.95102 0
M  V30 1035 H 110.857 -2.64828 -1.40733 0
M  V30 1036 H 108.41 -1.39742 -0.700132 0
M  V30 1037 H 109.145 -0.75932 -3.15285 0
M  V30 1038 H 108.93 -2.52698 -2.9981 0
M  V30 1039 H 110.42 -1.8664 -3.73571 0
M  V30 1040 N 110.857 0.726932 -1.39834 0
M  V30 1041 C 111.807 1.83232 -1.35683 0
M  V30 1042 C 112.791 1.59155 -0.236295 0
M  V30 1043 O 113.983 1.70522 -0.474488 0
M  V30 1044 C 111.112 3.21246 -1.21062 0
M  V30 1045 C 110.198 3.51125 -2.37849 0
M  V30 1046 N 110.589 3.51889 -3.63329 0
M  V30 1047 C 108.887 3.81527 -2.30982 0
M  V30 1048 C 109.588 3.79791 -4.40606 0
M  V30 1049 N 108.564 3.97971 -3.70297 0
M  V30 1050 H 112.366 1.8214 -2.30656 0
M  V30 1051 H 109.88 0.925545 -1.33444 0
M  V30 1052 H 111.877 4.00387 -1.16171 0
M  V30 1053 H 110.537 3.23572 -0.270458 0
M  V30 1054 H 111.548 3.33008 -3.96643 0
M  V30 1055 H 108.225 3.91411 -1.45272 0
M  V30 1056 H 109.615 3.86783 -5.49408 0
M  V30 1057 N 112.336 1.25143 0.95797 0
M  V30 1058 C 113.582 1.09855 1.70469 0
M  V30 1059 C 113.915 -0.360187 1.90831 0
M  V30 1060 O 113.19 -1.26568 1.47685 0
M  V30 1061 C 113.473 1.8497 3.08963 0
M  V30 1062 C 113.326 3.38652 2.96032 0
M  V30 1063 C 114.645 1.63016 4.08795 0
M  V30 1064 H 111.764 0.400465 0.618706 0
M  V30 1065 H 114.406 1.53933 1.11376 0
M  V30 1066 H 112.556 1.47505 3.59409 0
M  V30 1067 H 114.228 3.85772 2.52938 0
M  V30 1068 H 112.471 3.66534 2.32025 0
M  V30 1069 H 113.142 3.8642 3.94187 0
M  V30 1070 H 115.618 1.95625 3.67247 0
M  V30 1071 H 114.494 2.18015 5.03747 0
M  V30 1072 H 114.755 0.570692 4.38401 0
M  V30 1073 N 113.814 -1.1601 1.06675 0
M  V30 1074 C 115.23 -1.38622 0.790948 0
M  V30 1075 C 115.43 -1.92109 -0.607965 0
M  V30 1076 O 114.486 -2.12239 -1.36787 0
M  V30 1077 C 115.799 -2.36347 1.85905 0
M  V30 1078 C 117.347 -2.50023 1.88301 0
M  V30 1079 C 117.822 -3.51033 2.94176 0
M  V30 1080 N 119.313 -3.58563 2.93235 0
M  V30 1081 C 120.048 -4.36521 3.71803 0
M  V30 1082 N 119.544 -5.17869 4.602 0
M  V30 1083 N 121.337 -4.31541 3.60178 0
M  V30 1084 H 113.488 -0.796294 1.96908 0
M  V30 1085 H 115.751 -0.412597 0.853503 0
M  V30 1086 H 115.457 -2.04147 2.86386 0
M  V30 1087 H 115.331 -3.36042 1.71334 0
M  V30 1088 H 117.718 -2.81524 0.884769 0
M  V30 1089 H 117.799 -1.5035 2.06951 0
M  V30 1090 H 117.443 -3.20268 3.94196 0
M  V30 1091 H 117.373 -4.50445 2.72776 0
M  V30 1092 H 119.864 -3.00496 2.29152 0
M  V30 1093 H 120.177 -5.74578 5.16797 0
M  V30 1094 H 118.522 -5.17199 4.64253 0
M  V30 1095 H 121.713 -3.67051 2.90502 0
M  V30 1096 H 121.886 -4.9205 4.21653 0
M  V30 1097 N 115.292 -0.849877 -1.32721 0
M  V30 1098 C 116.202 -0.293791 -2.32753 0
M  V30 1099 C 117.218 0.585906 -1.63839 0
M  V30 1100 O 118.394 0.487413 -1.95413 0
M  V30 1101 C 115.459 0.512752 -3.42887 0
M  V30 1102 C 114.52 -0.39252 -4.27502 0
M  V30 1103 C 113.753 0.375625 -5.32377 0
M  V30 1104 O 113.976 1.60613 -5.4732 0
M  V30 1105 O 112.91 -0.256094 -6.01355 0
M  V30 1106 H 116.736 -1.12242 -2.82197 0
M  V30 1107 H 114.321 -0.612685 -1.36259 0
M  V30 1108 H 116.203 0.970704 -4.10067 0
M  V30 1109 H 114.878 1.31826 -2.95641 0
M  V30 1110 H 113.785 -0.898547 -3.63149 0
M  V30 1111 H 115.118 -1.16309 -4.7826 0
M  V30 1112 N 116.77 1.45427 -0.607355 0
M  V30 1113 C 117.703 2.27635 0.160482 0
M  V30 1114 C 118.681 1.37122 0.873857 0
M  V30 1115 O 119.865 1.66551 0.882775 0
M  V30 1116 C 116.992 3.15486 1.23231 0
M  V30 1117 C 116.038 4.21939 0.622097 0
M  V30 1118 S 116.871 5.32459 -0.569852 0
M  V30 1119 C 118.027 6.23879 0.502577 0
M  V30 1120 H 118.26 2.9241 -0.536983 0
M  V30 1121 H 115.793 1.49265 -0.394868 0
M  V30 1122 H 117.751 3.66659 1.84585 0
M  V30 1123 H 116.412 2.49977 1.90185 0
M  V30 1124 H 115.605 4.8333 1.42856 0
M  V30 1125 H 115.207 3.73906 0.0837063 0
M  V30 1126 H 117.499 6.63261 1.38171 0
M  V30 1127 H 118.442 7.0806 -0.0751759 0
M  V30 1128 H 118.85 5.58545 0.8178 0
M  V30 1129 N 118.248 0.346503 1.53744 0
M  V30 1130 C 119.211 -0.496439 2.23759 0
M  V30 1131 C 120.211 -1.0252 1.2388 0
M  V30 1132 O 121.401 -0.913974 1.48297 0
M  V30 1133 C 118.533 -1.69187 2.95954 0
M  V30 1134 H 119.726 0.115952 2.99676 0
M  V30 1135 H 117.279 0.0978939 1.55993 0
M  V30 1136 H 118.014 -2.34288 2.24231 0
M  V30 1137 H 117.799 -1.31989 3.69217 0
M  V30 1138 H 119.289 -2.28969 3.49232 0
M  V30 1139 N 119.726 -1.57421 0.075193 0
M  V30 1140 C 120.966 -1.95495 -0.596757 0
M  V30 1141 C 121.33 -0.954886 -1.66571 0
M  V30 1142 O 122.531 -1.22341 -2.39345 0
M  V30 1143 C 120.802 -3.382 -1.15566 0
M  V30 1144 S 122.361 -3.98254 -1.84226 0
M  V30 1145 H 119.179 -0.683649 -0.195307 0
M  V30 1146 H 121.781 -1.94925 0.149859 0
M  V30 1147 H 120.485 -4.08766 -0.36588 0
M  V30 1148 H 120.016 -3.42321 -1.93856 0
M  V30 1149 H 122.031 -3.85435 -3.12497 0
M  V30 1150 N 121.204 0.198386 -1.56346 0
M  V30 1151 C 122.429 0.939682 -1.84891 0
M  V30 1152 C 122.854 1.76202 -0.658369 0
M  V30 1153 O 122.212 1.76993 0.392851 0
M  V30 1154 C 122.26 1.81428 -3.11635 0
M  V30 1155 O 121.364 2.91265 -2.91956 0
M  V30 1156 H 120.705 0.264807 -0.608912 0
M  V30 1157 H 123.235 0.204695 -2.03573 0
M  V30 1158 H 123.245 2.21958 -3.42343 0
M  V30 1159 H 121.92 1.21004 -3.97908 0
M  V30 1160 H 120.497 2.54514 -2.72538 0
M  V30 1161 N 122.682 1.50554 0.465978 0
M  V30 1162 C 123.931 1.61038 1.21448 0
M  V30 1163 C 124.244 0.31865 1.92987 0
M  V30 1164 O 125.45 0.302469 2.6981 0
M  V30 1165 C 123.906 2.84283 2.20706 0
M  V30 1166 C 123.514 4.20352 1.54946 0
M  V30 1167 C 125.258 3.04115 2.96166 0
M  V30 1168 C 123.165 5.34778 2.5252 0
M  V30 1169 H 122.095 0.599718 0.457005 0
M  V30 1170 H 124.746 1.7699 0.484424 0
M  V30 1171 H 123.128 2.61901 2.97025 0
M  V30 1172 H 124.302 4.53008 0.843811 0
M  V30 1173 H 122.617 4.06167 0.917475 0
M  V30 1174 H 125.214 3.86774 3.69202 0
M  V30 1175 H 125.557 2.16045 3.55852 0
M  V30 1176 H 126.09 3.26702 2.26959 0
M  V30 1177 H 122.829 6.25018 1.97566 0
M  V30 1178 H 122.349 5.06534 3.21222 0
M  V30 1179 H 124.028 5.65561 3.14245 0
M  V30 1180 N 124.16 -0.719506 1.40217 0
M  V30 1181 C 125.406 -1.48152 1.38488 0
M  V30 1182 C 125.739 -1.94195 -0.0141867 0
M  V30 1183 O 125.014 -1.67884 -0.982096 0
M  V30 1184 C 125.297 -2.71035 2.37091 0
M  V30 1185 C 125.15 -2.30912 3.86005 0
M  V30 1186 C 126.469 -3.73182 2.33288 0
M  V30 1187 H 123.588 -0.537395 0.504357 0
M  V30 1188 H 126.23 -0.821472 1.71324 0
M  V30 1189 H 124.38 -3.27352 2.0922 0
M  V30 1190 H 126.052 -1.80107 4.24687 0
M  V30 1191 H 124.295 -1.62958 4.02029 0
M  V30 1192 H 124.966 -3.18978 4.50508 0
M  V30 1193 H 127.442 -3.26485 2.57966 0
M  V30 1194 H 126.318 -4.56806 3.04334 0
M  V30 1195 H 126.579 -4.21202 1.34317 0
M  V30 1196 N 125.638 -1.25649 -0.95132 0
M  V30 1197 C 126.915 -1.01361 -1.67288 0
M  V30 1198 C 127.295 0.459135 -2.06046 0
M  V30 1199 O 126.643 1.43723 -1.7764 0
M  V30 1200 C 126.853 -1.95256 -2.89268 0
M  V30 1201 C 128.201 -2.23289 -3.61147 0
M  V30 1202 O 129.225 -1.93041 -2.99355 0
M  V30 1203 O 128.084 -2.74741 -4.72419 0
M  V30 1204 H 125.178 -0.38464 -0.732107 0
M  V30 1205 H 127.724 -1.36817 -1.00395 0
M  V30 1206 H 126.496 -2.94685 -2.57442 0
M  V30 1207 H 126.119 -1.60218 -3.6389 0
M  V30 1208 N 127.117 1.15442 -1.07289 0
M  V30 1209 C 128.049 2.19773 -0.650585 0
M  V30 1210 C 129.062 1.60076 0.296572 0
M  V30 1211 O 130.251 1.78293 0.0859905 0
M  V30 1212 C 127.351 3.38838 0.0650398 0
M  V30 1213 C 126.524 4.2808 -0.898141 0
M  V30 1214 C 125.583 5.2574 -0.219926 0
M  V30 1215 O 124.609 5.62654 -0.860773 0
M  V30 1216 N 125.811 5.71205 1.03466 0
M  V30 1217 H 128.576 2.56622 -1.54808 0
M  V30 1218 H 126.137 1.30551 -0.957494 0
M  V30 1219 H 128.129 4.01222 0.529415 0
M  V30 1220 H 126.699 3.00409 0.864466 0
M  V30 1221 H 125.919 3.62804 -1.54165 0
M  V30 1222 H 127.207 4.84577 -1.5512 0
M  V30 1223 H 126.605 5.43325 1.57526 0
M  V30 1224 H 125.162 6.35633 1.44272 0
M  V30 1225 N 128.595 0.856903 1.32268 0
M  V30 1226 C 129.542 0.301172 2.28827 0
M  V30 1227 C 130.512 -0.593104 1.5515 0
M  V30 1228 O 131.697 -0.527537 1.83362 0
M  V30 1229 C 128.837 -0.502523 3.41422 0
M  V30 1230 C 127.95 0.417797 4.29975 0
M  V30 1231 C 127.085 -0.398749 5.29701 0
M  V30 1232 C 126.124 0.518827 6.09897 0
M  V30 1233 N 125.261 -0.260674 7.01616 0
M  V30 1234 H 130.101 1.12983 2.75751 0
M  V30 1235 H 127.638 0.568582 1.35667 0
M  V30 1236 H 129.596 -0.984141 4.05426 0
M  V30 1237 H 128.226 -1.29599 2.95642 0
M  V30 1238 H 127.278 1.01781 3.66531 0
M  V30 1239 H 128.59 1.12191 4.86019 0
M  V30 1240 H 127.744 -0.943435 5.9932 0
M  V30 1241 H 126.483 -1.13622 4.7428 0
M  V30 1242 H 125.488 1.07538 5.39181 0
M  V30 1243 H 126.713 1.25495 6.67404 0
M  V30 1244 H 124.659 -0.981198 6.4862 0
M  V30 1245 H 124.576 0.384364 7.55022 0
M  V30 1246 H 125.844 -0.787014 7.75517 0
M  V30 1247 N 130.073 -1.45103 0.615059 0
M  V30 1248 C 131.32 -2.02183 0.113179 0
M  V30 1249 C 131.648 -1.48249 -1.25906 0
M  V30 1250 O 130.903 -0.650265 -1.84581 0
M  V30 1251 C 131.202 -3.57386 0.0318797 0
M  V30 1252 C 130.868 -4.30505 1.34077 0
M  V30 1253 C 129.53 -4.50197 1.69929 0
M  V30 1254 C 131.882 -4.72238 2.20546 0
M  V30 1255 C 129.21 -5.08881 2.91988 0
M  V30 1256 C 131.562 -5.32272 3.41861 0
M  V30 1257 C 130.226 -5.50187 3.77956 0
M  V30 1258 H 129.496 -0.739842 0.0414151 0
M  V30 1259 H 132.143 -1.74073 0.798168 0
M  V30 1260 H 130.448 -3.84817 -0.736409 0
M  V30 1261 H 132.145 -3.99264 -0.372712 0
M  V30 1262 H 128.735 -4.15496 1.05173 0
M  V30 1263 H 132.919 -4.56751 1.94146 0
M  V30 1264 H 128.175 -5.20939 3.2005 0
M  V30 1265 H 132.349 -5.63563 4.09109 0
M  V30 1266 H 129.976 -5.95427 4.72622 0
M  V30 1267 N 131.551 -0.354651 -1.53558 0
M  V30 1268 C 132.962 0.126902 -1.86268 0
M  V30 1269 C 133.313 1.49075 -1.27558 0
M  V30 1270 O 132.438 2.08105 -0.5934 0
M  V30 1271 C 133.033 0.237046 -3.3797 0
M  V30 1272 C 131.592 0.662842 -3.70518 0
M  V30 1273 C 130.739 -0.196652 -2.76602 0
M  V30 1274 H 133.69 -0.573849 -1.47962 0
M  V30 1275 H 133.711 1.06259 -3.65362 0
M  V30 1276 H 133.223 -0.755725 -3.80671 0
M  V30 1277 H 131.324 1.66424 -3.33367 0
M  V30 1278 H 131.437 0.445034 -4.77029 0
M  V30 1279 H 129.801 0.332763 -2.52517 0
M  V30 1280 H 130.584 -1.18676 -3.22135 0
M  V30 1281 N 133.029 1.57378 -0.0835403 0
M  V30 1282 C 133.939 2.16897 0.894021 0
M  V30 1283 C 134.955 1.13528 1.31861 0
M  V30 1284 O 136.131 1.45848 1.3889 0
M  V30 1285 C 133.196 2.72831 2.13925 0
M  V30 1286 C 132.257 3.91115 1.76997 0
M  V30 1287 C 131.49 4.44371 2.95584 0
M  V30 1288 O 131.713 3.96596 4.09961 0
M  V30 1289 O 130.647 5.35549 2.74719 0
M  V30 1290 H 134.473 3.00814 0.417679 0
M  V30 1291 H 132.058 1.48741 0.140181 0
M  V30 1292 H 133.94 3.0863 2.86924 0
M  V30 1293 H 132.615 1.91967 2.60635 0
M  V30 1294 H 131.522 3.60148 1.01214 0
M  V30 1295 H 132.855 4.73307 1.3506 0
M  V30 1296 N 134.507 -0.190092 1.56449 0
M  V30 1297 C 135.747 -0.916414 1.82705 0
M  V30 1298 C 136.111 -1.80235 0.661763 0
M  V30 1299 O 137.312 -2.56484 0.80433 0
M  V30 1300 C 135.583 -1.70691 3.14005 0
M  V30 1301 S 137.142 -2.48457 3.61683 0
M  V30 1302 H 133.96 -0.307281 0.64117 0
M  V30 1303 H 136.562 -0.179433 1.94675 0
M  V30 1304 H 135.266 -1.04677 3.96826 0
M  V30 1305 H 134.797 -2.48562 3.04927 0
M  V30 1306 H 136.812 -3.72756 3.27517 0
M  V30 1307 N 135.985 -1.50799 -0.457987 0
M  V30 1308 C 137.233 -1.62121 -1.2067 0
M  V30 1309 C 137.554 -0.329793 -1.92191 0
M  V30 1310 O 136.824 0.653409 -1.84682 0
M  V30 1311 H 135.404 -0.597441 -0.448411 0
M  V30 1312 H 138.066 -1.87637 -0.527096 0
M  V30 1313 H 137.162 -2.43882 -1.94751 0
M  V30 1314 N 137.463 0.71206 -1.40597 0
M  V30 1315 C 138.71 1.47197 -1.39065 0
M  V30 1316 C 139.038 1.94499 0.00583891 0
M  V30 1317 O 138.293 1.68752 0.99102 0
M  V30 1318 C 138.592 2.71039 -2.32965 0
M  V30 1319 C 138.258 2.42484 -3.80148 0
M  V30 1320 C 136.92 2.34406 -4.20247 0
M  V30 1321 C 139.272 2.18598 -4.73143 0
M  V30 1322 C 136.6 2.00516 -5.51371 0
M  V30 1323 C 138.952 1.8622 -6.0457 0
M  V30 1324 C 137.616 1.76626 -6.43708 0
M  V30 1325 H 136.886 0.538634 -0.508876 0
M  V30 1326 H 139.533 0.815325 -1.73276 0
M  V30 1327 H 137.838 3.41558 -1.91951 0
M  V30 1328 H 139.535 3.29138 -2.29061 0
M  V30 1329 H 136.125 2.49659 -3.4838 0
M  V30 1330 H 140.309 2.23793 -4.42979 0
M  V30 1331 H 135.565 1.91628 -5.80593 0
M  V30 1332 H 139.739 1.66752 -6.76141 0
M  V30 1333 H 137.366 1.50133 -7.45228 0
M  V30 1334 N 138.941 1.26152 0.944643 0
M  V30 1335 C 140.171 1.14094 1.72239 0
M  V30 1336 C 140.579 -0.306931 1.86694 0
M  V30 1337 O 139.922 -1.22222 1.3714 0
M  V30 1338 C 139.984 1.73316 3.14963 0
M  V30 1339 C 139.648 3.2239 3.23904 0
M  V30 1340 C 140.645 4.19252 3.07447 0
M  V30 1341 C 138.33 3.62788 3.47405 0
M  V30 1342 C 140.324 5.54491 3.14353 0
M  V30 1343 C 138.011 4.98162 3.53947 0
M  V30 1344 C 139.009 5.93823 3.37436 0
M  V30 1345 O 138.697 7.26732 3.43679 0
M  V30 1346 H 138.429 0.398292 0.546205 0
M  V30 1347 H 140.983 1.67201 1.19301 0
M  V30 1348 H 139.213 1.14667 3.69308 0
M  V30 1349 H 140.902 1.56214 3.74636 0
M  V30 1350 H 141.668 3.8938 2.8915 0
M  V30 1351 H 137.547 2.88816 3.59313 0
M  V30 1352 H 141.091 6.29137 3.01384 0
M  V30 1353 H 136.988 5.27695 3.71763 0
M  V30 1354 H 137.756 7.3496 3.60245 0
M  V30 1355 N 140.419 -1.14872 1.07899 0
M  V30 1356 C 141.667 -1.85422 0.803941 0
M  V30 1357 C 141.988 -1.83051 -0.67211 0
M  V30 1358 O 141.258 -1.27532 -1.48703 0
M  V30 1359 H 139.838 -0.686537 0.294408 0
M  V30 1360 H 142.5 -1.39226 1.3639 0
M  V30 1361 H 141.596 -2.90399 1.14346 0
M  V30 1362 N 141.898 -0.863906 -1.31812 0
M  V30 1363 C 142.831 -0.259963 -2.26714 0
M  V30 1364 C 143.809 0.607392 -1.50829 0
M  V30 1365 O 144.993 0.562155 -1.79922 0
M  V30 1366 C 142.12 0.632456 -3.32743 0
M  V30 1367 C 141.166 -0.162743 -4.26189 0
M  V30 1368 S 141.999 -1.53726 -5.12961 0
M  V30 1369 C 143.155 -0.650803 -6.22507 0
M  V30 1370 H 143.388 -1.06445 -2.77591 0
M  V30 1371 H 140.921 -0.662071 -1.39485 0
M  V30 1372 H 142.879 1.14167 -3.94305 0
M  V30 1373 H 141.54 1.41083 -2.80632 0
M  V30 1374 H 140.733 0.517366 -5.01338 0
M  V30 1375 H 140.335 -0.60385 -3.69093 0
M  V30 1376 H 142.627 0.141134 -6.77353 0
M  V30 1377 H 143.57 -1.37322 -6.94657 0
M  V30 1378 H 143.978 -0.221041 -5.64067 0
M  V30 1379 N 143.376 1.44774 -0.622745 0
M  V30 1380 C 144.606 2.06187 -0.130532 0
M  V30 1381 C 145.014 1.46547 1.19669 0
M  V30 1382 O 144.357 0.579636 1.74316 0
M  V30 1383 C 144.419 3.59437 0.0674983 0
M  V30 1384 C 144.083 4.41496 -1.18026 0
M  V30 1385 C 145.08 4.75512 -2.102 0
M  V30 1386 C 142.765 4.82007 -1.41333 0
M  V30 1387 C 144.759 5.48912 -3.23998 0
M  V30 1388 C 142.446 5.55157 -2.55429 0
M  V30 1389 C 143.444 5.88528 -3.46589 0
M  V30 1390 O 143.132 6.60191 -4.58697 0
M  V30 1391 H 142.864 0.672045 -0.0730162 0
M  V30 1392 H 145.418 1.86768 -0.854802 0
M  V30 1393 H 143.648 3.77314 0.846825 0
M  V30 1394 H 145.337 4.02642 0.513209 0
M  V30 1395 H 146.103 4.4476 -1.93425 0
M  V30 1396 H 141.982 4.55457 -0.712709 0
M  V30 1397 H 145.526 5.74877 -3.95174 0
M  V30 1398 H 141.423 5.85324 -2.72151 0
M  V30 1399 H 142.191 6.78654 -4.57571 0
M  V30 1400 N 144.854 0.36279 1.53368 0
M  V30 1401 C 146.131 -0.284021 1.93527 0
M  V30 1402 C 146.511 -1.66628 1.29608 0
M  V30 1403 O 145.859 -2.23942 0.45413 0
M  V30 1404 C 146.069 -0.337028 3.47369 0
M  V30 1405 C 147.417 -0.578708 4.20638 0
M  V30 1406 O 148.441 -0.418352 3.53735 0
M  V30 1407 O 147.3 -0.89074 5.39192 0
M  V30 1408 H 144.394 -0.169743 0.809393 0
M  V30 1409 H 146.94 0.41537 1.64538 0
M  V30 1410 H 145.712 0.632217 3.86159 0
M  V30 1411 H 145.335 -1.08243 3.82582 0
M  V30 1412 N 146.332 -1.57332 0.0918853 0
M  V30 1413 C 147.279 -2.13847 -0.868211 0
M  V30 1414 C 148.249 -1.05618 -1.28196 0
M  V30 1415 O 149.434 -1.33387 -1.36427 0
M  V30 1416 C 146.574 -2.72062 -2.12312 0
M  V30 1417 C 145.687 -3.94514 -1.7602 0
M  V30 1418 C 144.822 -4.40903 -2.96273 0
M  V30 1419 C 143.861 -5.55953 -2.56092 0
M  V30 1420 N 142.998 -5.97209 -3.69169 0
M  V30 1421 H 147.838 -2.95575 -0.379406 0
M  V30 1422 H 145.375 -1.46048 -0.175606 0
M  V30 1423 H 147.333 -3.03931 -2.858 0
M  V30 1424 H 145.963 -1.93068 -2.58698 0
M  V30 1425 H 145.015 -3.68979 -0.925135 0
M  V30 1426 H 146.327 -4.7802 -1.42472 0
M  V30 1427 H 145.481 -4.74539 -3.78018 0
M  V30 1428 H 144.22 -3.56291 -3.33029 0
M  V30 1429 H 143.225 -5.21948 -1.72773 0
M  V30 1430 H 144.45 -6.42311 -2.20484 0
M  V30 1431 H 142.396 -5.15543 -4.05649 0
M  V30 1432 H 142.313 -6.75504 -3.39456 0
M  V30 1433 H 143.581 -6.35475 -4.51434 0
M  V30 1434 N 147.81 0.181792 -1.56548 0
M  V30 1435 C 149.059 0.898348 -1.8059 0
M  V30 1436 C 149.372 1.83862 -0.667379 0
M  V30 1437 O 150.578 2.59678 -0.792446 0
M  V30 1438 C 149.034 1.64791 -3.19956 0
M  V30 1439 C 148.642 0.751789 -4.41647 0
M  V30 1440 C 150.386 2.35331 -3.53298 0
M  V30 1441 C 148.293 1.50098 -5.72035 0
M  V30 1442 H 147.223 0.339194 -0.673397 0
M  V30 1443 H 149.874 0.151413 -1.82874 0
M  V30 1444 H 148.256 2.43921 -3.11959 0
M  V30 1445 H 149.43 -0.0018076 -4.608 0
M  V30 1446 H 147.745 0.156562 -4.16106 0
M  V30 1447 H 150.342 2.91958 -4.47956 0
M  V30 1448 H 150.685 3.10164 -2.77676 0
M  V30 1449 H 151.218 1.63154 -3.62803 0
M  V30 1450 H 147.957 0.795175 -6.50659 0
M  V30 1451 H 147.477 2.22817 -5.56878 0
M  V30 1452 H 149.156 2.05125 -6.13622 0
M  V30 1453 N 149.288 1.51039 0.449983 0
M  V30 1454 C 150.218 1.74379 1.55288 0
M  V30 1455 C 151.199 0.593236 1.5942 0
M  V30 1456 O 152.384 0.834625 1.7535 0
M  V30 1457 C 149.514 1.85728 2.93466 0
M  V30 1458 C 148.468 3.01078 3.04197 0
M  V30 1459 C 147.794 2.97595 4.44231 0
M  V30 1460 C 149.094 4.41254 2.7945 0
M  V30 1461 H 150.788 2.66725 1.36008 0
M  V30 1462 H 148.334 1.2835 0.652864 0
M  V30 1463 H 150.287 2.0064 3.70569 0
M  V30 1464 H 149.011 0.900207 3.13949 0
M  V30 1465 H 147.67 2.85851 2.29531 0
M  V30 1466 H 147.318 1.99691 4.61663 0
M  V30 1467 H 147.018 3.75046 4.52343 0
M  V30 1468 H 148.542 3.14583 5.23326 0
M  V30 1469 H 149.956 4.56897 3.46292 0
M  V30 1470 H 148.353 5.20315 2.98985 0
M  V30 1471 H 149.423 4.52164 1.75144 0
M  V30 1472 N 150.766 -0.704594 1.40972 0
M  V30 1473 C 151.696 -1.83124 1.44872 0
M  V30 1474 C 152.677 -1.67281 0.30838 0
M  V30 1475 O 153.862 -1.87149 0.518556 0
M  V30 1476 C 150.992 -3.21181 1.32136 0
M  V30 1477 C 149.946 -3.51714 2.43888 0
M  V30 1478 C 149.272 -4.89032 2.16222 0
M  V30 1479 C 150.572 -3.516 3.86232 0
M  V30 1480 H 152.266 -1.80117 2.39161 0
M  V30 1481 H 149.812 -0.865145 1.15114 0
M  V30 1482 H 151.765 -3.99702 1.33479 0
M  V30 1483 H 150.489 -3.24791 0.343279 0
M  V30 1484 H 149.148 -2.75539 2.41813 0
M  V30 1485 H 148.796 -4.89256 1.16778 0
M  V30 1486 H 148.496 -5.10426 2.911 0
M  V30 1487 H 150.02 -5.69873 2.19265 0
M  V30 1488 H 151.434 -4.2014 3.9007 0
M  V30 1489 H 149.831 -3.84523 4.60719 0
M  V30 1490 H 150.901 -2.50757 4.15029 0
M  V30 1491 N 152.244 -1.26651 -0.937939 0
M  V30 1492 C 153.491 -1.12387 -1.6845 0
M  V30 1493 C 153.819 0.332208 -1.91642 0
M  V30 1494 O 153.074 1.2602 -1.49725 0
M  V30 1495 C 153.373 -1.84168 -3.06295 0
M  V30 1496 C 153.039 -3.34056 -3.02849 0
M  V30 1497 C 151.701 -3.74942 -3.01616 0
M  V30 1498 C 154.053 -4.29741 -2.9491 0
M  V30 1499 C 151.381 -5.09894 -2.90215 0
M  V30 1500 C 153.733 -5.64738 -2.8505 0
M  V30 1501 C 152.397 -6.0493 -2.82162 0
M  V30 1502 H 151.667 -0.411252 -0.616403 0
M  V30 1503 H 154.314 -1.57134 -1.09459 0
M  V30 1504 H 152.619 -1.319 -3.6893 0
M  V30 1505 H 154.316 -1.70569 -3.62915 0
M  V30 1506 H 150.906 -3.01534 -3.0459 0
M  V30 1507 H 155.09 -3.99133 -2.94969 0
M  V30 1508 H 150.346 -5.40194 -2.86358 0
M  V30 1509 H 154.52 -6.38561 -2.77872 0
M  V30 1510 H 152.147 -7.09457 -2.73084 0
M  V30 1511 N 153.722 1.14298 -1.08507 0
M  V30 1512 C 155.138 1.37347 -0.812901 0
M  V30 1513 C 155.338 1.93052 0.577325 0
M  V30 1514 O 154.394 2.14389 1.33393 0
M  V30 1515 C 155.707 2.33359 -1.89642 0
M  V30 1516 C 157.255 2.46996 -1.92255 0
M  V30 1517 C 157.73 3.46309 -2.99724 0
M  V30 1518 N 159.221 3.53853 -2.98902 0
M  V30 1519 C 159.956 4.3055 -3.787 0
M  V30 1520 N 159.452 5.10482 -4.6838 0
M  V30 1521 N 161.245 4.25757 -3.66998 0
M  V30 1522 H 153.396 0.764867 -1.9815 0
M  V30 1523 H 155.659 0.398966 -0.859959 0
M  V30 1524 H 155.365 1.99565 -2.89597 0
M  V30 1525 H 155.239 3.33274 -1.76659 0
M  V30 1526 H 157.626 2.80081 -0.929445 0
M  V30 1527 H 157.707 1.47039 -2.09316 0
M  V30 1528 H 157.351 3.13957 -3.99241 0
M  V30 1529 H 157.281 4.46049 -2.79907 0
M  V30 1530 H 159.772 2.96812 -2.33904 0
M  V30 1531 H 160.085 5.66284 -5.25873 0
M  V30 1532 H 158.43 5.09747 -4.72422 0
M  V30 1533 H 161.621 3.62383 -2.96304 0
M  V30 1534 H 161.794 4.85279 -4.29427 0
M  V30 1535 N 155.201 0.870884 1.31352 0
M  V30 1536 C 156.151 0.298889 2.26032 0
M  V30 1537 C 157.135 -0.564595 1.50669 0
M  V30 1538 O 158.327 -0.411323 1.72154 0
M  V30 1539 C 155.456 -0.497842 3.39671 0
M  V30 1540 C 154.542 0.378937 4.22404 0
M  V30 1541 N 154.933 1.47284 4.83881 0
M  V30 1542 C 153.231 0.171535 4.4567 0
M  V30 1543 C 153.932 2.01359 5.45738 0
M  V30 1544 N 152.908 1.31047 5.27568 0
M  V30 1545 H 156.71 1.13494 2.71102 0
M  V30 1546 H 154.224 0.718745 1.45629 0
M  V30 1547 H 156.221 -0.924155 4.06528 0
M  V30 1548 H 154.881 -1.33149 2.96144 0
M  V30 1549 H 155.892 1.85575 4.8351 0
M  V30 1550 H 152.569 -0.626091 4.12779 0
M  V30 1551 H 153.959 2.93143 6.0458 0
M  V30 1552 N 156.679 -1.44442 0.630414 0
M  V30 1553 C 157.956 -1.9549 0.0655657 0
M  V30 1554 C 158.336 -1.5724 -1.40851 0
M  V30 1555 O 157.684 -0.846116 -2.12257 0
M  V30 1556 C 157.894 -3.47812 0.287691 0
M  V30 1557 C 159.242 -4.24216 0.180513 0
M  V30 1558 O 160.266 -3.55526 0.219019 0
M  V30 1559 O 159.125 -5.46434 0.0848493 0
M  V30 1560 H 156.219 -0.826688 -0.0227177 0
M  V30 1561 H 158.765 -1.54496 0.702068 0
M  V30 1562 H 157.537 -3.687 1.31056 0
M  V30 1563 H 157.16 -3.95751 -0.382984 0
M  V30 1564 N 158.157 -0.370918 -1.53173 0
M  V30 1565 C 159.568 0.107139 -1.86392 0
M  V30 1566 C 159.919 1.47714 -1.29132 0
M  V30 1567 O 159.044 2.07464 -0.615439 0
M  V30 1568 C 159.639 0.201187 -3.38202 0
M  V30 1569 C 158.198 0.623507 -3.712 0
M  V30 1570 C 157.345 -0.225978 -2.76378 0
M  V30 1571 H 160.296 -0.58951 -1.47345 0
M  V30 1572 H 160.317 1.02377 -3.66468 0
M  V30 1573 H 159.829 -0.796058 -3.79848 0
M  V30 1574 H 157.93 1.62879 -3.35114 0
M  V30 1575 H 158.043 0.394414 -4.77474 0
M  V30 1576 H 156.407 0.305962 -2.52856 0
M  V30 1577 H 157.19 -1.22086 -3.20858 0
M  V30 1578 N 159.635 1.57281 -0.100228 0
M  V30 1579 C 160.863 1.98879 0.570509 0
M  V30 1580 C 161.278 0.979476 1.61405 0
M  V30 1581 O 160.635 -0.0302288 1.82475 0
M  V30 1582 C 160.686 3.4052 1.2136 0
M  V30 1583 O 160.407 4.37588 0.211786 0
M  V30 1584 C 161.908 3.97149 1.96945 0
M  V30 1585 H 159.128 0.653428 0.152555 0
M  V30 1586 H 161.672 2.03697 -0.18103 0
M  V30 1587 H 159.827 3.367 1.91603 0
M  V30 1588 H 160.241 5.20118 0.676607 0
M  V30 1589 H 161.715 4.98393 2.37294 0
M  V30 1590 H 162.192 3.3525 2.83733 0
M  V30 1591 H 162.798 4.04458 1.31506 0
M  V30 1592 N 161.113 -0.173488 1.56642 0
M  V30 1593 C 162.338 -0.910149 1.86363 0
M  V30 1594 C 162.763 -1.75132 0.686318 0
M  V30 1595 O 162.121 -1.77595 -0.364643 0
M  V30 1596 C 162.169 -1.76447 3.14482 0
M  V30 1597 O 161.273 -2.86584 2.96553 0
M  V30 1598 H 160.614 -0.255086 0.613047 0
M  V30 1599 H 163.144 -0.172283 2.03873 0
M  V30 1600 H 163.154 -2.16483 3.45831 0
M  V30 1601 H 161.829 -1.14658 3.99783 0
M  V30 1602 H 160.406 -2.50146 2.76553 0
M  V30 1603 N 162.591 -1.51276 -0.441967 0
M  V30 1604 C 163.501 -1.75092 -1.56141 0
M  V30 1605 C 164.517 -0.634963 -1.62001 0
M  V30 1606 O 165.693 -0.916686 -1.79329 0
M  V30 1607 C 162.758 -1.86666 -2.92158 0
M  V30 1608 C 161.819 -3.10506 -2.96453 0
M  V30 1609 C 161.052 -3.21519 -4.25982 0
M  V30 1610 O 161.275 -2.38586 -5.18105 0
M  V30 1611 O 160.209 -4.14465 -4.36466 0
M  V30 1612 H 164.035 -2.70044 -1.38961 0
M  V30 1613 H 161.62 -1.35722 -0.624499 0
M  V30 1614 H 163.502 -1.96292 -3.72891 0
M  V30 1615 H 162.177 -0.949014 -3.09476 0
M  V30 1616 H 161.084 -3.06363 -2.14692 0
M  V30 1617 H 162.417 -4.01945 -2.84079 0
M  V30 1618 N 164.069 0.697108 -1.41344 0
M  V30 1619 C 165.017 1.83237 -1.43272 0
M  V30 1620 C 166.011 1.66522 -0.310947 0
M  V30 1621 O 167.217 1.73402 -0.482899 0
M  V30 1622 H 163.592 0.603802 -0.448249 0
M  V30 1623 H 165.563 1.78727 -2.38954 0
M  V30 1624 C 164.312 3.21245 -1.33029 0
M  V30 1625 H 163.635 3.34723 -2.18633 0
M  V30 1626 H 165.075 4.00763 -1.38439 0
M  V30 1627 C 163.534 3.36873 -0.0424635 0
M  V30 1628 O 164.064 3.91177 0.913421 0
M  V30 1629 N 162.27 2.90581 0.0331145 0
M  V30 1630 H 161.817 2.46577 -0.745506 0
M  V30 1631 H 161.775 3.01416 0.894199 0
M  V30 1632 N 165.547 1.27147 0.931209 0
M  V30 1633 C 166.796 1.12664 1.67302 0
M  V30 1634 C 167.109 -0.327718 1.92835 0
M  V30 1635 O 168.315 -0.593392 2.64936 0
M  V30 1636 C 166.771 1.9683 3.01307 0
M  V30 1637 C 166.379 3.46901 2.83485 0
M  V30 1638 C 168.123 1.90985 3.79111 0
M  V30 1639 C 166.03 4.23279 4.13024 0
M  V30 1640 H 164.96 0.41803 0.627509 0
M  V30 1641 H 167.611 1.51539 1.03481 0
M  V30 1642 H 165.993 1.50797 3.66164 0
M  V30 1643 H 167.167 4.00773 2.27415 0
M  V30 1644 H 165.482 3.54088 2.19113 0
M  V30 1645 H 168.079 2.45328 4.75098 0
M  V30 1646 H 168.422 0.882718 4.06834 0
M  V30 1647 H 168.955 2.34895 3.21044 0
M  V30 1648 H 165.694 5.26503 3.90481 0
M  V30 1649 H 165.214 3.74186 4.6877 0
M  V30 1650 H 166.893 4.32265 4.81411 0
M  V30 1651 N 167.025 -1.13721 1.09112 0
M  V30 1652 C 167.955 -2.21148 0.749385 0
M  V30 1653 C 168.936 -1.6792 -0.271475 0
M  V30 1654 O 170.121 -1.93693 -0.140251 0
M  V30 1655 C 167.251 -3.46905 0.165659 0
M  V30 1656 C 166.205 -4.13203 1.11567 0
M  V30 1657 C 165.531 -5.33248 0.393809 0
M  V30 1658 C 166.831 -4.60912 2.45678 0
M  V30 1659 H 168.525 -2.4999 1.64758 0
M  V30 1660 H 166.071 -1.20156 0.793626 0
M  V30 1661 H 168.024 -4.21313 -0.085466 0
M  V30 1662 H 166.748 -3.17449 -0.767714 0
M  V30 1663 H 165.407 -3.40758 1.35202 0
M  V30 1664 H 165.055 -5.00054 -0.543599 0
M  V30 1665 H 164.755 -5.78552 1.02721 0
M  V30 1666 H 166.279 -6.10413 0.150908 0
M  V30 1667 H 167.693 -5.26759 2.26269 0
M  V30 1668 H 166.09 -5.16944 3.04776 0
M  V30 1669 H 167.16 -3.75603 3.06677 0
M  V30 1670 N 168.503 -0.877838 -1.30888 0
M  V30 1671 C 169.435 -0.296607 -2.27273 0
M  V30 1672 C 170.448 0.544799 -1.53414 0
M  V30 1673 O 171.637 0.365511 -1.74718 0
M  V30 1674 C 168.737 0.597481 -3.33592 0
M  V30 1675 C 167.91 -0.213251 -4.3688 0
M  V30 1676 C 166.969 0.610208 -5.2265 0
M  V30 1677 O 165.995 0.035441 -5.69189 0
M  V30 1678 N 167.197 1.92071 -5.47804 0
M  V30 1679 H 169.962 -1.12492 -2.77787 0
M  V30 1680 H 167.523 -0.740105 -1.43993 0
M  V30 1681 H 169.515 1.15425 -3.87891 0
M  V30 1682 H 168.085 1.32647 -2.83061 0
M  V30 1683 H 167.305 -0.951466 -3.82545 0
M  V30 1684 H 168.593 -0.769262 -5.02951 0
M  V30 1685 H 167.991 2.4107 -5.11763 0
M  V30 1686 H 166.548 2.42508 -6.05007 0
M  V30 1687 N 169.982 1.44106 -0.638065 0
M  V30 1688 C 170.912 2.33448 0.0494287 0
M  V30 1689 C 171.893 1.48606 0.827672 0
M  V30 1690 O 173.078 1.77308 0.792173 0
M  V30 1691 C 170.208 3.31771 1.02691 0
M  V30 1692 C 169.162 4.26485 0.359823 0
M  V30 1693 C 168.488 5.14729 1.44769 0
M  V30 1694 C 169.788 5.17056 -0.738296 0
M  V30 1695 H 171.482 2.91183 -0.696636 0
M  V30 1696 H 169.028 1.40014 -0.336456 0
M  V30 1697 H 170.981 3.93161 1.51666 0
M  V30 1698 H 169.705 2.7226 1.80395 0
M  V30 1699 H 168.364 3.66437 -0.10934 0
M  V30 1700 H 168.012 4.51566 2.21578 0
M  V30 1701 H 167.712 5.78913 1.00668 0
M  V30 1702 H 169.236 5.78991 1.93911 0
M  V30 1703 H 170.65 5.72342 -0.331354 0
M  V30 1704 H 169.047 5.89879 -1.10286 0
M  V30 1705 H 170.117 4.57652 -1.60258 0
M  V30 1706 N 171.46 0.379036 1.52974 0
M  V30 1707 C 172.706 -0.206727 2.01744 0
M  V30 1708 C 173.039 -1.47314 1.26539 0
M  V30 1709 O 172.314 -1.91084 0.362903 0
M  V30 1710 C 172.597 -0.485066 3.56818 0
M  V30 1711 C 172.45 0.795919 4.42702 0
M  V30 1712 C 173.769 -1.28003 4.21074 0
M  V30 1713 H 170.888 -0.0736607 0.73331 0
M  V30 1714 H 173.53 0.506581 1.83122 0
M  V30 1715 H 171.68 -1.09272 3.72816 0
M  V30 1716 H 173.352 1.43307 4.38476 0
M  V30 1717 H 171.595 1.41344 4.10127 0
M  V30 1718 H 172.266 0.555947 5.49193 0
M  V30 1719 H 174.742 -0.765867 4.08991 0
M  V30 1720 H 173.618 -1.44352 5.29579 0
M  V30 1721 H 173.879 -2.29236 3.78026 0
M  V30 1722 N 172.938 -1.57226 0.108567 0
M  V30 1723 C 173.885 -2.14756 -0.845481 0
M  V30 1724 C 174.855 -1.06971 -1.27068 0
M  V30 1725 O 176.04 -1.34827 -1.35005 0
M  V30 1726 C 173.18 -2.74298 -2.09415 0
M  V30 1727 C 172.293 -3.96358 -1.71826 0
M  V30 1728 C 171.428 -4.44021 -2.9158 0
M  V30 1729 C 170.467 -5.58637 -2.50181 0
M  V30 1730 N 169.604 -6.01091 -3.62814 0
M  V30 1731 H 174.444 -2.95961 -0.348035 0
M  V30 1732 H 171.981 -1.46226 -0.160106 0
M  V30 1733 H 173.939 -3.06945 -2.82561 0
M  V30 1734 H 172.569 -1.95801 -2.56636 0
M  V30 1735 H 171.621 -3.69939 -0.885947 0
M  V30 1736 H 172.933 -4.79504 -1.37394 0
M  V30 1737 H 172.087 -4.78522 -3.72963 0
M  V30 1738 H 170.826 -3.59803 -3.29231 0
M  V30 1739 H 169.831 -5.23751 -1.67228 0
M  V30 1740 H 171.056 -6.44613 -2.13659 0
M  V30 1741 H 169.002 -5.19817 -4.00158 0
M  V30 1742 H 168.919 -6.79066 -3.32273 0
M  V30 1743 H 170.187 -6.40227 -4.44668 0
M  V30 1744 N 174.416 0.165178 -1.56732 0
M  V30 1745 C 175.379 1.18822 -1.95995 0
M  V30 1746 C 176.379 1.3685 -0.84431 0
M  V30 1747 O 177.569 1.34152 -1.11126 0
M  V30 1748 C 174.701 2.5521 -2.26011 0
M  V30 1749 H 175.894 0.851825 -2.87548 0
M  V30 1750 H 173.447 0.407857 -1.50885 0
M  V30 1751 H 174.182 2.93852 -1.37191 0
M  V30 1752 H 173.967 2.43489 -3.07336 0
M  V30 1753 H 175.457 3.28927 -2.57288 0
M  V30 1754 N 175.894 1.51508 0.433938 0
M  V30 1755 C 176.857 1.72473 1.50949 0
M  V30 1756 C 177.857 0.594725 1.49398 0
M  V30 1757 O 179.047 0.862315 1.5136 0
M  V30 1758 C 176.179 1.78431 2.90474 0
M  V30 1759 H 177.372 2.68467 1.33662 0
M  V30 1760 H 174.925 1.41549 0.662836 0
M  V30 1761 H 175.66 0.842645 3.13161 0
M  V30 1762 H 175.445 2.60558 2.93005 0
M  V30 1763 H 176.935 1.96479 3.68491 0
M  V30 1764 N 177.372 -0.689602 1.41712 0
M  V30 1765 C 178.597 -1.48329 1.44959 0
M  V30 1766 C 179.022 -1.8801 0.0581283 0
M  V30 1767 O 178.38 -1.55026 -0.940035 0
M  V30 1768 C 178.428 -2.71835 2.36935 0
M  V30 1769 O 177.532 -3.69549 1.8305 0
M  V30 1770 H 176.873 -0.446199 0.491734 0
M  V30 1771 H 179.403 -0.847127 1.86239 0
M  V30 1772 H 179.413 -3.20076 2.53013 0
M  V30 1773 H 178.088 -2.42291 3.38035 0
M  V30 1774 H 176.665 -3.2851 1.76452 0
M  V30 1775 N 178.85 -1.27639 -0.924453 0
M  V30 1776 C 180.127 -1.04887 -1.651 0
M  V30 1777 C 180.507 0.415327 -2.06974 0
M  V30 1778 O 179.855 1.39923 -1.80648 0
M  V30 1779 C 180.065 -2.01348 -2.85061 0
M  V30 1780 C 181.413 -2.30899 -3.56329 0
M  V30 1781 O 182.437 -1.99348 -2.95193 0
M  V30 1782 O 181.296 -2.84699 -4.66485 0
M  V30 1783 H 178.39 -0.400083 -0.723784 0
M  V30 1784 H 180.936 -1.38916 -0.974703 0
M  V30 1785 H 179.708 -3.0008 -2.51133 0
M  V30 1786 H 179.331 -1.679 -3.6041 0
M  V30 1787 N 180.328 1.1314 -1.09713 0
M  V30 1788 C 181.577 1.83838 -0.829851 0
M  V30 1789 C 181.89 1.84599 0.646728 0
M  V30 1790 O 183.096 2.51218 1.02965 0
M  V30 1791 C 181.552 3.30069 -1.43466 0
M  V30 1792 C 181.16 3.37688 -2.94399 0
M  V30 1793 C 182.904 4.05788 -1.24645 0
M  V30 1794 C 180.811 4.78209 -3.47952 0
M  V30 1795 H 179.741 0.68877 -0.306777 0
M  V30 1796 H 182.392 1.27448 -1.3202 0
M  V30 1797 H 180.774 3.8628 -0.871996 0
M  V30 1798 H 181.948 2.91456 -3.56918 0
M  V30 1799 H 180.263 2.75436 -3.12289 0
M  V30 1800 H 182.86 5.09535 -1.62107 0
M  V30 1801 H 183.203 4.15878 -0.187357 0
M  V30 1802 H 183.736 3.55915 -1.77678 0
M  V30 1803 H 180.475 4.73311 -4.53495 0
M  V30 1804 H 179.995 5.24924 -2.90198 0
M  V30 1805 H 181.674 5.47133 -3.45332 0
M  V30 1806 N 181.806 0.884767 1.30421 0
M  V30 1807 C 182.738 0.308655 2.27112 0
M  V30 1808 C 183.751 -0.536655 1.53701 0
M  V30 1809 O 184.94 -0.35624 1.74909 0
M  V30 1810 C 182.04 -0.579782 3.33904 0
M  V30 1811 C 181.213 0.236417 4.36761 0
M  V30 1812 C 180.272 -0.582482 5.22966 0
M  V30 1813 O 179.298 -0.00525502 5.692 0
M  V30 1814 N 180.5 -1.89163 5.48815 0
M  V30 1815 H 183.265 1.13964 2.77186 0
M  V30 1816 H 180.826 0.747731 1.43599 0
M  V30 1817 H 182.818 -1.13366 3.88497 0
M  V30 1818 H 181.388 -1.31144 2.83761 0
M  V30 1819 H 180.608 0.97174 3.82035 0
M  V30 1820 H 181.896 0.795924 5.02536 0
M  V30 1821 H 181.294 -2.38352 5.13035 0
M  V30 1822 H 179.851 -2.39296 6.06284 0
M  V30 1823 N 183.284 -1.43765 0.645699 0
M  V30 1824 C 184.194 -2.34544 -0.0512957 0
M  V30 1825 C 185.21 -1.53455 -0.82022 0
M  V30 1826 O 186.386 -1.86133 -0.769176 0
M  V30 1827 C 183.451 -3.31636 -1.01087 0
M  V30 1828 C 182.512 -4.2863 -0.239712 0
M  V30 1829 C 181.745 -5.21084 -1.15358 0
M  V30 1830 O 181.968 -5.1779 -2.39269 0
M  V30 1831 O 180.902 -5.98593 -0.630038 0
M  V30 1832 H 184.728 -2.95624 0.695718 0
M  V30 1833 H 182.313 -1.43781 0.405882 0
M  V30 1834 H 184.195 -3.9136 -1.56254 0
M  V30 1835 H 182.87 -2.73069 -1.73824 0
M  V30 1836 H 181.777 -3.72408 0.355356 0
M  V30 1837 H 183.11 -4.90157 0.447936 0
M  V30 1838 N 184.763 -0.387143 -1.52771 0
M  V30 1839 C 186.011 0.195349 -2.01154 0
M  V30 1840 C 186.332 1.475 -1.27549 0
M  V30 1841 O 185.602 1.91878 -0.394924 0
M  V30 1842 H 184.182 0.075178 -0.743207 0
M  V30 1843 H 186.844 -0.518337 -1.87881 0
M  V30 1844 H 185.94 0.407096 -3.09434 0
M  V30 1845 N 186.241 1.57166 -0.116904 0
M  V30 1846 C 187.518 1.86645 0.585049 0
M  V30 1847 C 187.898 1.0177 1.84949 0
M  V30 1848 O 187.246 0.0960379 2.28298 0
M  V30 1849 C 187.456 3.37736 0.879507 0
M  V30 1850 C 188.804 4.06289 1.23348 0
M  V30 1851 O 189.828 3.42743 0.969836 0
M  V30 1852 O 188.687 5.18455 1.7282 0
M  V30 1853 H 185.781 0.772593 0.295007 0
M  V30 1854 H 188.327 1.69025 -0.151249 0
M  V30 1855 H 187.099 3.91296 -0.0166136 0
M  V30 1856 H 186.722 3.6078 1.67103 0
M  V30 1857 N 187.719 -0.156864 1.56817 0
M  V30 1858 C 188.649 -1.19589 2.00551 0
M  V30 1859 C 189.63 -1.4536 0.883426 0
M  V30 1860 O 190.815 -1.56449 1.15054 0
M  V30 1861 C 187.945 -2.53143 2.37773 0
M  V30 1862 C 186.899 -2.41913 3.53075 0
M  V30 1863 C 186.225 -3.80088 3.76081 0
M  V30 1864 C 187.525 -1.91157 4.86062 0
M  V30 1865 H 189.219 -0.832293 2.87599 0
M  V30 1866 H 186.765 -0.398918 1.38364 0
M  V30 1867 H 188.718 -3.26047 2.66967 0
M  V30 1868 H 187.442 -2.91319 1.4765 0
M  V30 1869 H 186.101 -1.71462 3.24031 0
M  V30 1870 H 185.749 -4.15683 2.83225 0
M  V30 1871 H 185.449 -3.73439 4.53671 0
M  V30 1872 H 186.973 -4.54556 4.0769 0
M  V30 1873 H 188.387 -2.53846 5.14038 0
M  V30 1874 H 186.784 -1.95422 5.67389 0
M  V30 1875 H 187.854 -0.866673 4.77092 0
M  V30 1876 N 189.197 -1.51736 -0.425897 0
M  V30 1877 C 190.446 -1.64201 -1.17136 0
M  V30 1878 C 190.759 -0.369705 -1.92074 0
M  V30 1879 O 191.965 -0.373898 -2.68913 0
M  V30 1880 C 190.421 -2.90035 -2.13091 0
M  V30 1881 C 190.029 -4.24312 -1.43747 0
M  V30 1882 C 191.773 -3.1186 -2.87999 0
M  V30 1883 C 189.68 -5.41285 -2.38253 0
M  V30 1884 H 188.61 -0.611624 -0.440944 0
M  V30 1885 H 191.261 -1.78212 -0.437328 0
M  V30 1886 H 189.643 -2.69684 -2.89977 0
M  V30 1887 H 190.817 -4.55086 -0.723408 0
M  V30 1888 H 189.132 -4.08456 -0.809465 0
M  V30 1889 H 191.729 -3.96427 -3.58817 0
M  V30 1890 H 192.072 -2.25403 -3.49999 0
M  V30 1891 H 192.605 -3.32605 -2.18217 0
M  V30 1892 H 189.344 -6.30037 -1.80925 0
M  V30 1893 H 188.864 -5.14872 -3.0768 0
M  V30 1894 H 190.543 -5.73694 -2.99139 0
M  V30 1895 N 190.675 0.682077 -1.42076 0
M  V30 1896 C 191.585 1.82535 -1.47371 0
M  V30 1897 C 192.601 1.7017 -0.363079 0
M  V30 1898 O 193.777 1.91848 -0.612875 0
M  V30 1899 C 190.842 3.18624 -1.36674 0
M  V30 1900 C 189.903 3.42999 -2.58167 0
M  V30 1901 C 189.136 4.72595 -2.4797 0
M  V30 1902 O 189.359 5.50006 -1.5116 0
M  V30 1903 O 188.293 4.98054 -3.37974 0
M  V30 1904 H 192.119 1.81023 -2.43853 0
M  V30 1905 H 189.704 0.836887 -1.2376 0
M  V30 1906 H 191.586 3.99847 -1.33043 0
M  V30 1907 H 190.261 3.20789 -0.433138 0
M  V30 1908 H 189.168 2.61653 -2.67373 0
M  V30 1909 H 190.501 3.45659 -3.50401 0
M  V30 1910 N 192.153 1.28127 0.917671 0
M  V30 1911 C 193.399 1.15223 1.66888 0
M  V30 1912 C 193.732 -0.299293 1.9188 0
M  V30 1913 O 193.007 -1.21805 1.51637 0
M  V30 1914 C 193.29 1.94706 3.02922 0
M  V30 1915 C 193.143 3.47898 2.85109 0
M  V30 1916 C 194.462 1.75939 4.03402 0
M  V30 1917 H 191.581 0.419946 0.605652 0
M  V30 1918 H 194.223 1.57398 1.06423 0
M  V30 1919 H 192.373 1.58864 3.54534 0
M  V30 1920 H 194.045 3.93624 2.40537 0
M  V30 1921 H 192.288 3.7373 2.20246 0
M  V30 1922 H 192.959 3.98765 3.81694 0
M  V30 1923 H 195.435 2.07209 3.60837 0
M  V30 1924 H 194.311 2.33931 4.96556 0
M  V30 1925 H 194.572 0.709877 4.36364 0
M  V30 1926 N 193.631 -1.12557 1.10312 0
M  V30 1927 C 194.877 -1.84311 0.846011 0
M  V30 1928 C 195.21 -1.83805 -0.626859 0
M  V30 1929 O 194.485 -1.28268 -1.46211 0
M  V30 1930 C 194.768 -3.32048 1.39341 0
M  V30 1931 C 194.621 -3.41016 2.93305 0
M  V30 1932 C 195.94 -4.27764 1.03468 0
M  V30 1933 H 193.059 -0.669192 0.30879 0
M  V30 1934 H 195.701 -1.32057 1.36605 0
M  V30 1935 H 193.851 -3.76678 0.951087 0
M  V30 1936 H 195.523 -3.05031 3.46055 0
M  V30 1937 H 193.766 -2.81603 3.29973 0
M  V30 1938 H 194.437 -4.44948 3.26689 0
M  V30 1939 H 196.913 -3.91253 1.41633 0
M  V30 1940 H 195.789 -5.29549 1.44463 0
M  V30 1941 H 196.05 -4.42064 -0.0560404 0
M  V30 1942 N 195.109 -0.891671 -1.2995 0
M  V30 1943 C 196.039 -0.379797 -2.30391 0
M  V30 1944 C 197.02 0.540919 -1.6127 0
M  V30 1945 O 198.205 0.453352 -1.88834 0
M  V30 1946 C 195.335 0.400654 -3.44981 0
M  V30 1947 C 194.289 -0.428905 -4.25846 0
M  V30 1948 C 193.615 0.478557 -5.32554 0
M  V30 1949 C 194.915 -1.67458 -4.94727 0
M  V30 1950 H 196.609 -1.21914 -2.73454 0
M  V30 1951 H 194.155 -0.587675 -1.31462 0
M  V30 1952 H 196.108 0.769434 -4.14316 0
M  V30 1953 H 194.832 1.27371 -3.0074 0
M  V30 1954 H 193.491 -0.779911 -3.58208 0
M  V30 1955 H 193.139 1.34951 -4.84559 0
M  V30 1956 H 192.839 -0.0727433 -5.87555 0
M  V30 1957 H 194.363 0.843705 -6.04743 0
M  V30 1958 H 195.777 -1.376 -5.56542 0
M  V30 1959 H 194.174 -2.16659 -5.59624 0
M  V30 1960 H 195.244 -2.41518 -4.20473 0
M  V30 1961 N 196.587 1.43421 -0.653314 0
M  V30 1962 C 197.812 2.06678 -0.172846 0
M  V30 1963 C 198.237 1.48648 1.15262 0
M  V30 1964 O 197.595 0.596457 1.71208 0
M  V30 1965 C 197.643 3.60474 -0.0953184 0
M  V30 1966 O 196.747 4.01487 0.942442 0
M  V30 1967 H 196.088 0.657181 -0.0949155 0
M  V30 1968 H 198.618 1.83925 -0.896265 0
M  V30 1969 H 198.628 4.07905 0.0879728 0
M  V30 1970 H 197.303 4.02088 -1.06291 0
M  V30 1971 H 195.88 3.65646 0.731932 0
M  V30 1972 N 198.065 0.39524 1.52563 0
M  V30 1973 C 199.028 -0.425001 2.25225 0
M  V30 1974 C 200.028 -0.985266 1.27079 0
M  V30 1975 O 201.218 -0.866332 1.5113 0
M  V30 1976 C 198.35 -1.59686 3.01186 0
M  V30 1977 H 199.543 0.211233 2.99155 0
M  V30 1978 H 197.096 0.147472 1.55603 0
M  V30 1979 H 197.831 -2.27035 2.31572 0
M  V30 1980 H 197.616 -1.20176 3.73229 0
M  V30 1981 H 199.106 -2.17743 3.5634 0
M  V30 1982 N 199.544 -1.57102 0.125237 0
M  V30 1983 C 200.769 -2.0019 -0.542101 0
M  V30 1984 C 201.194 -1.00449 -1.59034 0
M  V30 1985 O 200.552 0.0229423 -1.81285 0
M  V30 1986 C 200.6 -3.42129 -1.13929 0
M  V30 1987 O 199.704 -3.45307 -2.2547 0
M  V30 1988 H 199.045 -0.650171 -0.134812 0
M  V30 1989 H 201.575 -2.03461 0.215553 0
M  V30 1990 H 201.585 -3.80471 -1.4733 0
M  V30 1991 H 200.26 -4.14237 -0.371531 0
M  V30 1992 H 198.837 -3.1879 -1.93462 0
M  V30 1993 N 201.022 0.148545 -1.56898 0
M  V30 1994 C 201.985 1.16736 -1.97244 0
M  V30 1995 C 202.985 1.35947 -0.858777 0
M  V30 1996 O 204.175 1.32966 -1.12542 0
M  V30 1997 C 201.307 2.52798 -2.28705 0
M  V30 1998 H 202.5 0.821279 -2.88435 0
M  V30 1999 H 200.053 0.391831 -1.51309 0
M  V30 2000 H 200.788 2.92381 -1.403 0
M  V30 2001 H 200.573 2.40216 -3.09901 0
M  V30 2002 H 202.063 3.26179 -2.60762 0
M  V30 2003 N 202.5 1.5196 0.417844 0
M  V30 2004 C 203.728 1.69426 1.18753 0
M  V30 2005 C 204.143 0.399955 1.84515 0
M  V30 2006 O 203.5 -0.623288 1.71527 0
M  V30 2007 C 203.551 2.82375 2.25714 0
M  V30 2008 O 203.272 4.06793 1.62638 0
M  V30 2009 C 204.773 3.11277 3.15628 0
M  V30 2010 H 201.993 0.568031 0.357186 0
M  V30 2011 H 204.537 1.98475 0.49273 0
M  V30 2012 H 202.692 2.5587 2.90877 0
M  V30 2013 H 203.106 4.69667 2.3348 0
M  V30 2014 H 204.58 3.93843 3.86771 0
M  V30 2015 H 205.057 2.24473 3.77503 0
M  V30 2016 H 205.663 3.39515 2.56144 0
M  V30 2017 N 203.978 -0.674533 1.42435 0
M  V30 2018 C 205.225 -1.43459 1.42919 0
M  V30 2019 C 205.553 -1.94446 0.0457312 0
M  V30 2020 O 204.808 -1.7132 -0.94593 0
M  V30 2021 C 205.107 -2.64767 2.40069 0
M  V30 2022 C 204.773 -2.3232 3.86443 0
M  V30 2023 C 203.435 -2.23182 4.26314 0
M  V30 2024 C 205.787 -2.05977 4.78773 0
M  V30 2025 C 203.115 -1.85827 5.56494 0
M  V30 2026 C 205.467 -1.70125 6.09295 0
M  V30 2027 C 204.131 -1.59498 6.48164 0
M  V30 2028 H 203.401 -0.524952 0.522978 0
M  V30 2029 H 206.048 -0.769097 1.75377 0
M  V30 2030 H 204.353 -3.36349 2.00939 0
M  V30 2031 H 206.05 -3.22949 2.37707 0
M  V30 2032 H 202.64 -2.40334 3.54877 0
M  V30 2033 H 206.824 -2.11969 4.48757 0
M  V30 2034 H 202.08 -1.76168 5.8547 0
M  V30 2035 H 206.254 -1.48767 6.80324 0
M  V30 2036 H 203.881 -1.30322 7.48946 0
M  V30 2037 N 205.456 -1.28612 -0.910864 0
M  V30 2038 C 206.366 -1.14643 -2.0468 0
M  V30 2039 C 207.382 -0.0723121 -1.7385 0
M  V30 2040 O 208.558 -0.282178 -1.99413 0
M  V30 2041 C 205.623 -0.812561 -3.37044 0
M  V30 2042 C 204.684 -1.96935 -3.81465 0
M  V30 2043 C 203.917 -1.65131 -5.07511 0
M  V30 2044 O 204.14 -0.567013 -5.67575 0
M  V30 2045 O 203.074 -2.49585 -5.47714 0
M  V30 2046 H 206.9 -2.1001 -2.19384 0
M  V30 2047 H 204.485 -1.07958 -1.03274 0
M  V30 2048 H 206.367 -0.640441 -4.16505 0
M  V30 2049 H 205.042 0.111426 -3.23508 0
M  V30 2050 H 203.949 -2.19664 -3.02818 0
M  V30 2051 H 205.282 -2.87414 -3.99567 0
M  V30 2052 N 206.934 1.1197 -1.10907 0
M  V30 2053 C 208.211 1.79959 -0.766432 0
M  V30 2054 C 208.591 1.97466 0.746363 0
M  V30 2055 O 207.939 1.55491 1.67436 0
M  V30 2056 C 208.149 3.14009 -1.52314 0
M  V30 2057 C 209.497 3.89134 -1.69883 0
M  V30 2058 O 210.521 3.2368 -1.48692 0
M  V30 2059 O 209.38 5.06572 -2.05054 0
M  V30 2060 H 206.474 0.779208 -0.277062 0
M  V30 2061 H 209.02 1.18762 -1.21217 0
M  V30 2062 H 207.792 2.96587 -2.55249 0
M  V30 2063 H 207.415 3.82915 -1.07059 0
M  V30 2064 N 208.412 0.89855 1.29475 0
M  V30 2065 C 209.659 0.523882 1.95606 0
M  V30 2066 C 209.987 -0.929608 1.70847 0
M  V30 2067 O 209.242 -1.67401 1.01367 0
M  V30 2068 C 209.541 0.761398 3.49195 0
M  V30 2069 C 209.207 2.19207 3.94029 0
M  V30 2070 C 207.869 2.58326 4.05982 0
M  V30 2071 C 210.221 3.12379 4.17216 0
M  V30 2072 C 207.549 3.898 4.38489 0
M  V30 2073 C 209.901 4.43401 4.51197 0
M  V30 2074 C 208.565 4.82394 4.61359 0
M  V30 2075 H 207.835 0.191702 0.715773 0
M  V30 2076 H 210.482 1.13699 1.54094 0
M  V30 2077 H 208.787 0.0653622 3.91745 0
M  V30 2078 H 210.484 0.450904 3.98457 0
M  V30 2079 H 207.074 1.87846 3.85242 0
M  V30 2080 H 211.258 2.83371 4.07449 0
M  V30 2081 H 206.514 4.19734 4.44559 0
M  V30 2082 H 210.688 5.15623 4.68087 0
M  V30 2083 H 208.315 5.84306 4.86303 0
M  V30 2084 N 209.89 -1.43072 0.660911 0
M  V30 2085 C 210.822 -2.29108 -0.0647641 0
M  V30 2086 C 211.835 -1.42928 -0.779448 0
M  V30 2087 O 213.024 -1.66788 -0.635921 0
M  V30 2088 C 210.124 -3.20032 -1.11503 0
M  V30 2089 C 209.297 -4.34792 -0.476955 0
M  V30 2090 C 208.356 -5.06534 -1.42513 0
M  V30 2091 O 207.382 -5.61538 -0.930771 0
M  V30 2092 N 208.584 -5.1075 -2.75889 0
M  V30 2093 H 211.349 -2.92029 0.673731 0
M  V30 2094 H 208.91 -1.53846 0.50427 0
M  V30 2095 H 210.902 -3.64892 -1.75032 0
M  V30 2096 H 209.472 -2.58658 -1.75541 0
M  V30 2097 H 208.692 -3.92752 0.337572 0
M  V30 2098 H 209.98 -5.0879 -0.0318525 0
M  V30 2099 H 209.378 -4.67447 -3.18606 0
M  V30 2100 H 207.935 -5.59302 -3.347 0
M  V30 2101 N 211.368 -0.403325 -1.52352 0
M  V30 2102 C 212.617 0.175668 -2.00934 0
M  V30 2103 C 212.93 1.46718 -1.29356 0
M  V30 2104 O 214.136 2.12708 -1.68724 0
M  V30 2105 C 212.592 0.363612 -3.58058 0
M  V30 2106 C 212.2 -0.915472 -4.38547 0
M  V30 2107 C 213.944 0.89821 -4.14888 0
M  V30 2108 C 211.851 -0.695035 -5.87302 0
M  V30 2109 H 210.781 0.0694234 -0.750797 0
M  V30 2110 H 213.432 -0.527879 -1.75743 0
M  V30 2111 H 211.814 1.12935 -3.79555 0
M  V30 2112 H 212.988 -1.68691 -4.28812 0
M  V30 2113 H 211.303 -1.37606 -3.93006 0
M  V30 2114 H 213.9 1.07907 -5.23699 0
M  V30 2115 H 214.243 1.87126 -3.71873 0
M  V30 2116 H 214.776 0.191681 -3.97338 0
M  V30 2117 H 211.515 -1.63948 -6.34666 0
M  V30 2118 H 211.035 0.0372116 -5.99788 0
M  V30 2119 H 212.714 -0.33497 -6.46132 0
M  V30 2120 N 212.846 1.57033 -0.133567 0
M  V30 2121 C 214.262 1.58035 0.222944 0
M  V30 2122 C 214.462 1.14713 1.6566 0
M  V30 2123 O 213.518 0.841218 2.38075 0
M  V30 2124 C 214.831 3.00691 -0.0236116 0
M  V30 2125 C 216.379 3.12973 0.0411512 0
M  V30 2126 C 216.854 4.57654 -0.177899 0
M  V30 2127 N 218.345 4.63033 -0.124365 0
M  V30 2128 C 219.08 5.72771 -0.268553 0
M  V30 2129 N 218.576 6.91206 -0.46972 0
M  V30 2130 N 220.369 5.61718 -0.2071 0
M  V30 2131 H 212.52 1.8349 -1.06981 0
M  V30 2132 H 214.783 0.848677 -0.422436 0
M  V30 2133 H 214.489 3.36726 -1.0153 0
M  V30 2134 H 214.363 3.70614 0.701808 0
M  V30 2135 H 216.75 2.76787 1.02338 0
M  V30 2136 H 216.831 2.45564 -0.716383 0
M  V30 2137 H 216.475 4.94542 -1.15717 0
M  V30 2138 H 216.405 5.23173 0.599797 0
M  V30 2139 H 218.896 3.7789 0.027011 0
M  V30 2140 H 219.209 7.70693 -0.570212 0
M  V30 2141 H 217.554 6.93156 -0.505876 0
M  V30 2142 H 220.745 4.68072 -0.0507986 0
M  V30 2143 H 220.918 6.47195 -0.322909 0
M  V30 2144 N 214.325 -0.140222 1.56975 0
M  V30 2145 C 215.736 -0.699596 1.73097 0
M  V30 2146 C 216.087 -1.8134 0.749022 0
M  V30 2147 O 215.212 -2.16241 -0.0828503 0
M  V30 2148 C 215.807 -1.27582 3.1386 0
M  V30 2149 C 214.366 -1.78169 3.31561 0
M  V30 2150 C 213.513 -0.672855 2.69013 0
M  V30 2151 H 216.464 0.0855115 1.58469 0
M  V30 2152 H 216.485 -2.14561 3.14235 0
M  V30 2153 H 215.997 -0.464955 3.85305 0
M  V30 2154 H 214.098 -2.61801 2.65124 0
M  V30 2155 H 214.211 -1.90574 4.39566 0
M  V30 2156 H 212.575 -1.10118 2.29665 0
M  V30 2157 H 213.358 0.126679 3.43066 0
M  V30 2158 N 215.803 -1.52179 -0.40978 0
M  V30 2159 C 216.753 -1.71857 -1.49831 0
M  V30 2160 C 217.737 -0.572469 -1.50372 0
M  V30 2161 O 218.929 -0.829509 -1.56359 0
M  V30 2162 C 216.058 -1.87206 -2.87765 0
M  V30 2163 C 215.144 -3.07685 -2.91875 0
M  V30 2164 N 215.535 -4.30403 -2.65683 0
M  V30 2165 C 213.833 -3.07505 -3.23043 0
M  V30 2166 C 214.534 -5.11868 -2.76344 0
M  V30 2167 N 213.51 -4.47101 -3.09195 0
M  V30 2168 H 217.312 -2.64381 -1.28375 0
M  V30 2169 H 214.826 -1.50203 -0.617479 0
M  V30 2170 H 216.823 -1.99419 -3.66111 0
M  V30 2171 H 215.483 -0.958814 -3.10221 0
M  V30 2172 H 216.494 -4.58887 -2.4009 0
M  V30 2173 H 213.171 -2.25915 -3.51096 0
M  V30 2174 H 214.561 -6.19634 -2.59814 0
M  V30 2175 N 217.281 0.66697 -1.42791 0
M  V30 2176 C 218.244 1.76211 -1.46568 0
M  V30 2177 C 219.244 1.56896 -0.352196 0
M  V30 2178 O 220.434 1.63044 -0.613364 0
M  V30 2179 C 217.566 3.14935 -1.30494 0
M  V30 2180 H 218.759 1.74247 -2.44086 0
M  V30 2181 H 216.312 0.877342 -1.29354 0
M  V30 2182 H 217.047 3.2252 -0.339301 0
M  V30 2183 H 216.832 3.30359 -2.11199 0
M  V30 2184 H 218.322 3.94821 -1.36038 0
M  V30 2185 N 218.759 1.29093 0.90403 0
M  V30 2186 C 219.689 1.16401 2.02418 0
M  V30 2187 C 220.67 0.0593085 1.69997 0
M  V30 2188 O 221.855 0.238021 1.92736 0
M  V30 2189 C 218.985 0.835233 3.37107 0
M  V30 2190 C 217.939 1.89578 3.83724 0
M  V30 2191 C 217.265 1.42041 5.15489 0
M  V30 2192 C 218.565 3.30394 4.04521 0
M  V30 2193 H 220.259 2.10109 2.13295 0
M  V30 2194 H 217.805 1.01157 1.02486 0
M  V30 2195 H 219.758 0.733169 4.14973 0
M  V30 2196 H 218.482 -0.137543 3.2631 0
M  V30 2197 H 217.141 1.98715 3.08071 0
M  V30 2198 H 216.789 0.436426 5.01103 0
M  V30 2199 H 216.489 2.12964 5.4765 0
M  V30 2200 H 218.013 1.33176 5.959 0
M  V30 2201 H 219.427 3.24123 4.72882 0
M  V30 2202 H 217.824 3.99237 4.48029 0
M  V30 2203 H 218.894 3.73692 3.09002 0
M  V30 2204 N 220.237 -1.11381 1.11499 0
M  V30 2205 C 221.484 -1.83132 0.864231 0
M  V30 2206 C 221.812 -1.84683 -0.610114 0
M  V30 2207 O 221.067 -1.29589 -1.46646 0
M  V30 2208 C 221.366 -3.30026 1.37177 0
M  V30 2209 C 221.032 -3.48634 2.85946 0
M  V30 2210 C 219.694 -3.53421 3.26569 0
M  V30 2211 C 222.046 -3.54837 3.81759 0
M  V30 2212 C 219.374 -3.61967 4.61733 0
M  V30 2213 C 221.726 -3.64915 5.1674 0
M  V30 2214 C 220.39 -3.67962 5.5692 0
M  V30 2215 H 219.66 -0.670127 0.316245 0
M  V30 2216 H 222.307 -1.31354 1.3935 0
M  V30 2217 H 220.612 -3.84304 0.762753 0
M  V30 2218 H 222.309 -3.84034 1.15408 0
M  V30 2219 H 218.899 -3.45579 2.53521 0
M  V30 2220 H 223.083 -3.50399 3.51474 0
M  V30 2221 H 218.339 -3.62603 4.92269 0
M  V30 2222 H 222.513 -3.68658 5.90816 0
M  V30 2223 H 220.14 -3.74336 6.61647 0
M  V30 2224 N 221.715 -0.905404 -1.28997 0
M  V30 2225 C 222.961 -0.535039 -1.95615 0
M  V30 2226 C 223.294 0.917404 -1.71165 0
M  V30 2227 O 222.569 1.65123 -1.02785 0
M  V30 2228 C 222.852 -0.834918 -3.50287 0
M  V30 2229 C 222.705 -2.33948 -3.84172 0
M  V30 2230 C 224.024 -0.325318 -4.38896 0
M  V30 2231 H 221.143 -0.195861 -0.710498 0
M  V30 2232 H 223.785 -1.13313 -1.52513 0
M  V30 2233 H 221.935 -0.325904 -3.87131 0
M  V30 2234 H 223.607 -2.91847 -3.57243 0
M  V30 2235 H 221.85 -2.79789 -3.31513 0
M  V30 2236 H 222.521 -2.49987 -4.92149 0
M  V30 2237 H 224.997 -0.761256 -4.09077 0
M  V30 2238 H 223.873 -0.564295 -5.45992 0
M  V30 2239 H 224.134 0.774144 -4.35269 0
M  V30 2240 N 223.193 1.4272 -0.668489 0
M  V30 2241 C 224.143 2.27971 0.0363806 0
M  V30 2242 C 225.127 1.40741 0.779794 0
M  V30 2243 O 226.319 1.64245 0.659745 0
M  V30 2244 C 223.448 3.28673 0.991398 0
M  V30 2245 C 222.534 4.23388 0.245658 0
M  V30 2246 N 222.925 5.00267 -0.746069 0
M  V30 2247 C 221.223 4.43355 0.484988 0
M  V30 2248 C 221.924 5.69396 -1.19009 0
M  V30 2249 N 220.9 5.41095 -0.521287 0
M  V30 2250 H 224.702 2.84833 -0.724394 0
M  V30 2251 H 222.216 1.54607 -0.497028 0
M  V30 2252 H 224.213 3.88543 1.51129 0
M  V30 2253 H 222.873 2.73373 1.75207 0
M  V30 2254 H 223.884 5.05525 -1.12537 0
M  V30 2255 H 220.561 3.99104 1.22565 0
M  V30 2256 H 221.951 6.41083 -2.01153 0
M  V30 2257 N 224.671 0.411399 1.52136 0
M  V30 2258 C 225.896 -0.165538 2.06738 0
M  V30 2259 C 226.321 -1.379 1.27926 0
M  V30 2260 O 225.679 -1.78628 0.310114 0
M  V30 2261 C 225.727 -0.492124 3.57226 0
M  V30 2262 O 224.831 -1.58276 3.80818 0
M  V30 2263 H 224.172 -0.0132132 0.663869 0
M  V30 2264 H 226.702 0.585253 1.96051 0
M  V30 2265 H 226.712 -0.750104 4.01045 0
M  V30 2266 H 225.387 0.394922 4.14021 0
M  V30 2267 H 223.964 -1.31677 3.48877 0
M  V30 2268 N 226.149 -1.5696 0.141893 0
M  V30 2269 C 227.379 -2.00031 -0.516828 0
M  V30 2270 C 227.787 -1.02091 -1.59293 0
M  V30 2271 O 227.13 -0.00909657 -1.83698 0
M  V30 2272 C 227.192 -3.39534 -1.1814 0
M  V30 2273 C 226.856 -4.56313 -0.250513 0
M  V30 2274 C 227.853 -5.17295 0.519839 0
M  V30 2275 C 225.538 -5.02061 -0.154907 0
M  V30 2276 C 227.532 -6.2243 1.3733 0
M  V30 2277 C 225.219 -6.07053 0.702161 0
M  V30 2278 C 226.217 -6.67106 1.46487 0
M  V30 2279 O 225.905 -7.70066 2.30767 0
M  V30 2280 H 225.637 -0.661451 -0.139493 0
M  V30 2281 H 228.191 -2.04086 0.231926 0
M  V30 2282 H 226.421 -3.32302 -1.97769 0
M  V30 2283 H 228.11 -3.66745 -1.73933 0
M  V30 2284 H 228.876 -4.82852 0.45598 0
M  V30 2285 H 224.755 -4.5505 -0.7383 0
M  V30 2286 H 228.299 -6.69233 1.96909 0
M  V30 2287 H 224.196 -6.40923 0.76733 0
M  V30 2288 H 224.964 -7.87264 2.23959 0
M  V30 2289 N 227.627 0.131896 -1.57047 0
M  V30 2290 C 229.043 0.485031 -1.52051 0
M  V30 2291 C 229.243 1.82563 -0.85281 0
M  V30 2292 O 228.299 2.48817 -0.429694 0
M  V30 2293 C 229.612 0.481409 -2.96821 0
M  V30 2294 C 231.16 0.565868 -3.07842 0
M  V30 2295 C 231.635 0.592762 -4.54148 0
M  V30 2296 N 233.126 0.654564 -4.58552 0
M  V30 2297 C 233.861 0.696608 -5.69153 0
M  V30 2298 N 233.357 0.697078 -6.89284 0
M  V30 2299 N 235.15 0.738639 -5.57226 0
M  V30 2300 H 227.301 -0.746664 -1.98843 0
M  V30 2301 H 229.564 -0.273999 -0.90754 0
M  V30 2302 H 229.27 -0.435731 -3.4899 0
M  V30 2303 H 229.144 1.3139 -3.53577 0
M  V30 2304 H 231.531 1.47343 -2.55684 0
M  V30 2305 H 231.612 -0.29406 -2.54104 0
M  V30 2306 H 231.256 -0.310701 -5.06949 0
M  V30 2307 H 231.186 1.46939 -5.05684 0
M  V30 2308 H 233.677 0.660887 -3.72076 0
M  V30 2309 H 233.99 0.731426 -7.69331 0
M  V30 2310 H 232.335 0.66471 -6.91814 0
M  V30 2311 H 235.526 0.735545 -4.62285 0
M  V30 2312 H 235.699 0.767938 -6.43434 0
M  V30 2313 N 229.106 1.52395 0.401703 0
M  V30 2314 C 230.069 1.75636 1.47257 0
M  V30 2315 C 231.069 0.62628 1.48103 0
M  V30 2316 O 232.259 0.894227 1.49497 0
M  V30 2317 C 229.391 1.84553 2.86624 0
M  V30 2318 H 230.584 2.71241 1.27938 0
M  V30 2319 H 228.137 1.42923 0.632662 0
M  V30 2320 H 228.872 0.908882 3.11303 0
M  V30 2321 H 228.657 2.66715 2.87412 0
M  V30 2322 H 230.147 2.04251 3.64241 0
M  V30 2323 N 230.584 -0.659388 1.43143 0
M  V30 2324 C 231.995 -1.24041 1.39537 0
M  V30 2325 C 232.346 -1.95963 0.0963364 0
M  V30 2326 O 231.471 -2.00892 -0.804438 0
M  V30 2327 C 232.066 -2.25601 2.52764 0
M  V30 2328 C 230.625 -2.79195 2.52443 0
M  V30 2329 C 229.772 -1.53743 2.30778 0
M  V30 2330 H 232.723 -0.451792 1.52133 0
M  V30 2331 H 232.744 -3.07651 2.23899 0
M  V30 2332 H 232.256 -1.73226 3.47296 0
M  V30 2333 H 230.357 -3.35649 1.61773 0
M  V30 2334 H 230.47 -3.2716 3.50004 0
M  V30 2335 H 228.834 -1.80869 1.79328 0
M  V30 2336 H 229.617 -1.03312 3.27386 0
M  V30 2337 N 232.062 -1.29571 -0.897171 0
M  V30 2338 C 233.025 -1.14913 -1.98312 0
M  V30 2339 C 234.025 -0.0838629 -1.60581 0
M  V30 2340 O 235.215 -0.331006 -1.71026 0
M  V30 2341 C 232.347 -0.757835 -3.3237 0
M  V30 2342 H 233.54 -2.11377 -2.12743 0
M  V30 2343 H 231.093 -1.12793 -1.08201 0
M  V30 2344 H 231.828 0.206837 -3.2364 0
M  V30 2345 H 231.613 -1.52755 -3.61121 0
M  V30 2346 H 233.103 -0.678408 -4.12053 0
M  V30 2347 N 233.54 1.10788 -1.12088 0
M  V30 2348 C 234.787 1.82671 -0.873931 0
M  V30 2349 C 235.115 1.85004 0.600311 0
M  V30 2350 O 234.37 1.30365 1.45957 0
M  V30 2351 C 234.669 3.29294 -1.38926 0
M  V30 2352 C 234.335 3.47113 -2.87791 0
M  V30 2353 C 232.997 3.51684 -3.28439 0
M  V30 2354 C 235.349 3.52808 -3.83635 0
M  V30 2355 C 232.677 3.59513 -4.63646 0
M  V30 2356 C 235.029 3.62169 -5.18668 0
M  V30 2357 C 233.693 3.65003 -5.58864 0
M  V30 2358 H 232.963 0.668441 -0.319794 0
M  V30 2359 H 235.61 1.30613 -1.40045 0
M  V30 2360 H 233.915 3.83894 -0.783122 0
M  V30 2361 H 235.612 3.83416 -1.17443 0
M  V30 2362 H 232.202 3.4423 -2.5535 0
M  V30 2363 H 236.386 3.4853 -3.53328 0
M  V30 2364 H 231.642 3.59987 -4.94185 0
M  V30 2365 H 235.816 3.6552 -5.92763 0
M  V30 2366 H 233.443 3.70822 -6.63623 0
M  V30 2367 N 235.018 0.912232 1.28515 0
M  V30 2368 C 236.258 0.551677 1.96814 0
M  V30 2369 C 236.622 -0.887825 1.7024 0
M  V30 2370 O 237.823 -1.35588 2.32098 0
M  V30 2371 C 236.094 0.850555 3.47132 0
M  V30 2372 S 237.653 0.59619 4.34731 0
M  V30 2373 H 234.471 0.204191 0.681049 0
M  V30 2374 H 237.073 1.17736 1.56072 0
M  V30 2375 H 235.777 1.8962 3.63968 0
M  V30 2376 H 235.308 0.213471 3.9282 0
M  V30 2377 H 237.323 -0.553154 4.93107 0
M  V30 2378 N 236.496 -1.42363 0.676048 0
M  V30 2379 C 237.773 -1.95183 0.127726 0
M  V30 2380 C 238.153 -1.61641 -1.35777 0
M  V30 2381 O 237.501 -0.913216 -2.09458 0
M  V30 2382 C 237.711 -3.46721 0.398199 0
M  V30 2383 C 239.059 -4.23427 0.315383 0
M  V30 2384 O 240.083 -3.54649 0.332016 0
M  V30 2385 O 238.942 -5.45888 0.25865 0
M  V30 2386 H 236.036 -0.826992 0.00359427 0
M  V30 2387 H 238.582 -1.52184 0.750864 0
M  V30 2388 H 237.354 -3.64344 1.4272 0
M  V30 2389 H 236.977 -3.96769 -0.256885 0
M  V30 2390 N 237.974 -0.419461 -1.51915 0
M  V30 2391 C 238.924 0.418496 -2.24126 0
M  V30 2392 C 239.908 1.00495 -1.25656 0
M  V30 2393 O 241.1 0.926058 -1.50842 0
M  V30 2394 C 238.229 1.52899 -3.07371 0
M  V30 2395 C 237.315 0.952797 -4.13258 0
M  V30 2396 N 237.706 0.104175 -5.05693 0
M  V30 2397 C 236.004 1.22224 -4.28926 0
M  V30 2398 C 236.705 -0.21752 -5.81293 0
M  V30 2399 N 235.681 0.394293 -5.42168 0
M  V30 2400 H 239.483 -0.236048 -2.92951 0
M  V30 2401 H 236.997 -0.230481 -1.60756 0
M  V30 2402 H 238.994 2.14199 -3.57665 0
M  V30 2403 H 237.654 2.18605 -2.40088 0
M  V30 2404 H 238.665 -0.260924 -5.17242 0
M  V30 2405 H 235.342 1.87812 -3.72871 0
M  V30 2406 H 236.732 -0.906992 -6.6575 0
M  V30 2407 N 239.452 1.56882 -0.150215 0
M  V30 2408 C 240.692 1.98119 0.502804 0
M  V30 2409 C 241.056 1.03327 1.61826 0
M  V30 2410 O 242.257 1.33621 2.33236 0
M  V30 2411 C 240.528 3.43329 0.992988 0
M  V30 2412 S 242.087 4.0659 1.65015 0
M  V30 2413 H 238.905 0.692189 0.162467 0
M  V30 2414 H 241.507 1.93988 -0.242689 0
M  V30 2415 H 240.211 4.10046 0.170436 0
M  V30 2416 H 239.742 3.5118 1.77303 0
M  V30 2417 H 241.757 3.99906 2.93752 0
M  V30 2418 N 240.93 -0.123565 1.57115 0
M  V30 2419 C 242.178 -0.83051 1.84247 0
M  V30 2420 C 242.499 -1.80629 0.73471 0
M  V30 2421 O 241.769 -1.94403 -0.241688 0
M  V30 2422 H 240.349 -0.309694 0.679778 0
M  V30 2423 H 243.011 -0.111976 1.94578 0
M  V30 2424 H 242.107 -1.37852 2.80006 0
M  V30 2425 N 242.408 -1.52605 -0.393616 0
M  V30 2426 C 243.318 -1.79971 -1.50492 0
M  V30 2427 C 244.334 -0.686181 -1.59899 0
M  V30 2428 O 245.51 -0.973274 -1.76322 0
M  V30 2429 C 242.575 -1.95867 -2.86072 0
M  V30 2430 C 241.636 -3.19781 -2.86424 0
M  V30 2431 C 240.869 -3.34909 -4.15538 0
M  V30 2432 O 241.092 -2.54948 -5.10253 0
M  V30 2433 O 240.026 -4.28141 -4.23059 0
M  V30 2434 H 243.852 -2.74328 -1.30299 0
M  V30 2435 H 241.437 -1.3764 -0.581005 0
M  V30 2436 H 243.319 -2.08056 -3.66457 0
M  V30 2437 H 241.994 -1.04699 -3.063 0
M  V30 2438 H 240.901 -3.13038 -2.04837 0
M  V30 2439 H 242.234 -4.1078 -2.71147 0
M  V30 2440 N 243.887 0.651787 -1.4349 0
M  V30 2441 C 244.82 1.77668 -1.43211 0
M  V30 2442 C 245.798 1.59931 -0.29338 0
M  V30 2443 O 246.982 1.82095 -0.487191 0
M  V30 2444 C 244.109 3.14986 -1.24505 0
M  V30 2445 C 243.155 3.51421 -2.41673 0
M  V30 2446 S 243.988 3.51234 -4.04222 0
M  V30 2447 C 245.144 4.91206 -3.87902 0
M  V30 2448 H 245.377 1.77635 -2.38397 0
M  V30 2449 H 242.91 0.824558 -1.30539 0
M  V30 2450 H 244.868 3.94237 -1.144 0
M  V30 2451 H 243.529 3.1258 -0.308651 0
M  V30 2452 H 242.722 4.51291 -2.24393 0
M  V30 2453 H 242.324 2.79585 -2.48411 0
M  V30 2454 H 244.616 5.79902 -3.50315 0
M  V30 2455 H 245.559 5.13537 -4.8753 0
M  V30 2456 H 245.967 4.64808 -3.20334 0
M  V30 2457 N 245.365 1.30045 0.890287 0
M  V30 2458 C 246.295 1.18541 2.01172 0
M  V30 2459 C 247.276 0.0773356 1.69924 0
M  V30 2460 O 248.461 0.25845 1.92473 0
M  V30 2461 C 245.591 0.870941 3.36202 0
M  V30 2462 C 244.545 1.93637 3.81692 0
M  V30 2463 C 243.871 1.475 5.13953 0
M  V30 2464 C 245.171 3.34666 4.00994 0
M  V30 2465 H 246.865 2.12359 2.11054 0
M  V30 2466 H 244.411 1.02238 1.01407 0
M  V30 2467 H 246.364 0.777141 4.14172 0
M  V30 2468 H 245.088 -0.102926 3.26438 0
M  V30 2469 H 243.747 2.01972 3.05946 0
M  V30 2470 H 243.395 0.489551 5.00612 0
M  V30 2471 H 243.095 2.1876 5.4536 0
M  V30 2472 H 244.619 1.39489 5.94454 0
M  V30 2473 H 246.033 3.2912 4.69417 0
M  V30 2474 H 244.43 4.03966 4.43769 0
M  V30 2475 H 245.5 3.76949 3.05021 0
M  V30 2476 N 246.843 -1.10192 1.12674 0
M  V30 2477 C 248.089 -1.82658 0.894847 0
M  V30 2478 C 248.444 -1.83666 -0.573107 0
M  V30 2479 O 247.737 -1.28816 -1.41835 0
M  V30 2480 C 247.931 -3.28552 1.4067 0
M  V30 2481 C 247.76 -3.41756 2.92289 0
M  V30 2482 C 246.53 -3.54021 3.60551 0
M  V30 2483 C 248.728 -3.34949 3.90274 0
M  V30 2484 N 246.71 -3.55827 5.0026 0
M  V30 2485 C 248.081 -3.43531 5.16127 0
M  V30 2486 C 250.136 -3.18565 3.8265 0
M  V30 2487 C 248.839 -3.37416 6.3525 0
M  V30 2488 C 250.865 -3.13772 5.01299 0
M  V30 2489 C 250.227 -3.22938 6.26012 0
M  V30 2490 H 246.326 -0.683044 0.380756 0
M  V30 2491 H 248.91 -1.31752 1.43351 0
M  V30 2492 H 247.081 -3.77946 0.895055 0
M  V30 2493 H 248.813 -3.88991 1.11661 0
M  V30 2494 H 245.568 -3.57135 3.1105 0
M  V30 2495 H 245.992 -3.60335 5.73138 0
M  V30 2496 H 250.634 -3.10354 2.87124 0
M  V30 2497 H 248.352 -3.44391 7.3104 0
M  V30 2498 H 251.938 -3.02242 4.97133 0
M  V30 2499 H 250.818 -3.19235 7.16281 0
M  V30 2500 N 248.321 -0.919034 -1.28029 0
M  V30 2501 C 249.569 -0.553838 -1.94363 0
M  V30 2502 C 249.89 0.906357 -1.72656 0
M  V30 2503 O 249.16 1.64143 -1.0693 0
M  V30 2504 H 247.74 -0.201834 -0.719216 0
M  V30 2505 H 250.402 -1.16954 -1.55909 0
M  V30 2506 H 249.498 -0.752758 -3.02886 0
M  V30 2507 N 249.799 1.42003 -0.683588 0
M  V30 2508 C 250.729 2.33487 -0.024866 0
M  V30 2509 C 251.71 1.51163 0.779975 0
M  V30 2510 O 252.895 1.79739 0.735362 0
M  V30 2511 C 250.025 3.3487 0.920836 0
M  V30 2512 C 248.979 4.27414 0.223958 0
M  V30 2513 C 248.305 5.19074 1.2832 0
M  V30 2514 C 249.605 5.14445 -0.90242 0
M  V30 2515 H 251.299 2.88819 -0.788921 0
M  V30 2516 H 248.845 1.38873 -0.38083 0
M  V30 2517 H 250.798 3.97787 1.39081 0
M  V30 2518 H 249.522 2.77861 1.71642 0
M  V30 2519 H 248.181 3.65904 -0.225864 0
M  V30 2520 H 247.829 4.58387 2.071 0
M  V30 2521 H 247.529 5.81822 0.821995 0
M  V30 2522 H 249.053 5.84867 1.75392 0
M  V30 2523 H 250.467 5.70998 -0.513272 0
M  V30 2524 H 248.864 5.86072 -1.28997 0
M  V30 2525 H 249.934 4.52322 -1.74737 0
M  V30 2526 N 251.277 0.427512 1.51691 0
M  V30 2527 C 252.523 -0.142439 2.02299 0
M  V30 2528 C 252.856 -1.43214 1.31162 0
M  V30 2529 O 252.131 -1.89833 0.423511 0
M  V30 2530 C 252.414 -0.371301 3.58181 0
M  V30 2531 C 252.267 0.936358 4.39946 0
M  V30 2532 C 253.586 -1.14542 4.24933 0
M  V30 2533 H 250.705 -0.0502937 0.735282 0
M  V30 2534 H 253.347 0.564584 1.81418 0
M  V30 2535 H 251.497 -0.973559 3.76104 0
M  V30 2536 H 253.169 1.57184 4.33694 0
M  V30 2537 H 251.412 1.5432 4.05423 0
M  V30 2538 H 252.083 0.730388 5.47147 0
M  V30 2539 H 254.559 -0.635362 4.11221 0
M  V30 2540 H 253.435 -1.27431 5.33903 0
M  V30 2541 H 253.696 -2.17093 3.85127 0
M  V30 2542 N 252.755 -1.56801 0.158532 0
M  V30 2543 C 254.171 -1.5837 -0.197774 0
M  V30 2544 C 254.371 -1.17334 -1.63814 0
M  V30 2545 O 253.427 -0.878988 -2.36707 0
M  V30 2546 C 254.74 -3.00615 0.0714459 0
M  V30 2547 C 256.288 -3.12999 0.00864533 0
M  V30 2548 C 256.763 -4.57313 0.250685 0
M  V30 2549 N 258.254 -4.62777 0.198014 0
M  V30 2550 C 258.989 -5.72271 0.359642 0
M  V30 2551 N 258.485 -6.90371 0.579625 0
M  V30 2552 N 260.278 -5.61318 0.296438 0
M  V30 2553 H 252.429 -1.81765 1.09887 0
M  V30 2554 H 254.692 -0.841849 0.435884 0
M  V30 2555 H 254.398 -3.35068 1.06874 0
M  V30 2556 H 254.272 -3.71683 -0.642757 0
M  V30 2557 H 256.659 -2.7838 -0.979217 0
M  V30 2558 H 256.74 -2.44393 0.755359 0
M  V30 2559 H 256.384 -4.92639 1.2357 0
M  V30 2560 H 256.314 -5.24061 -0.516489 0
M  V30 2561 H 258.805 -3.77885 0.0331115 0
M  V30 2562 H 259.118 -7.69689 0.69275 0
M  V30 2563 H 257.463 -6.92264 0.616087 0
M  V30 2564 H 260.654 -4.67932 0.125258 0
M  V30 2565 H 260.827 -6.46599 0.425831 0
M  V30 2566 N 254.233 0.115231 -1.57178 0
M  V30 2567 C 255.165 1.16694 -1.97269 0
M  V30 2568 C 256.178 1.37445 -0.872502 0
M  V30 2569 O 257.367 1.36454 -1.15077 0
M  V30 2570 C 254.467 2.52627 -2.25905 0
M  V30 2571 C 253.64 2.52427 -3.57211 0
M  V30 2572 C 252.699 3.70134 -3.74016 0
M  V30 2573 O 251.725 3.53546 -4.46087 0
M  V30 2574 N 252.927 4.88844 -3.13068 0
M  V30 2575 H 255.692 0.82588 -2.88096 0
M  V30 2576 H 253.253 0.304461 -1.59011 0
M  V30 2577 H 255.245 3.29937 -2.34359 0
M  V30 2578 H 253.815 2.789 -1.41186 0
M  V30 2579 H 253.035 1.60805 -3.5991 0
M  V30 2580 H 254.323 2.49353 -4.43509 0
M  V30 2581 H 253.721 5.05225 -2.54489 0
M  V30 2582 H 252.278 5.63817 -3.27037 0
M  V30 2583 N 255.711 1.52812 0.385517 0
M  V30 2584 C 256.959 1.67694 1.12797 0
M  V30 2585 C 257.28 0.421115 1.90399 0
M  V30 2586 O 256.55 -0.564551 1.87589 0
M  V30 2587 H 255.13 0.618155 0.419396 0
M  V30 2588 H 257.792 1.89938 0.436972 0
M  V30 2589 H 256.888 2.52896 1.82894 0
M  V30 2590 N 257.189 -0.644168 1.43834 0
M  V30 2591 C 258.119 -1.76814 1.52509 0
M  V30 2592 C 259.1 -1.65823 0.379052 0
M  V30 2593 O 260.285 -1.84781 0.597466 0
M  V30 2594 C 257.415 -3.15288 1.4564 0
M  V30 2595 C 256.369 -3.41053 2.58586 0
M  V30 2596 C 255.695 -4.79421 2.36769 0
M  V30 2597 C 256.995 -3.34902 4.00797 0
M  V30 2598 H 258.689 -1.69812 2.46586 0
M  V30 2599 H 256.235 -0.815542 1.1868 0
M  V30 2600 H 258.188 -3.93681 1.50311 0
M  V30 2601 H 256.912 -3.23043 0.480725 0
M  V30 2602 H 255.571 -2.65035 2.53282 0
M  V30 2603 H 255.219 -4.83863 1.37424 0
M  V30 2604 H 254.919 -4.9762 3.12487 0
M  V30 2605 H 256.443 -5.6006 2.43238 0
M  V30 2606 H 257.857 -4.03218 4.07539 0
M  V30 2607 H 256.254 -3.64637 4.76613 0
M  V30 2608 H 257.324 -2.32928 4.25291 0
M  V30 2609 N 258.668 -1.30515 -0.883378 0
M  V30 2610 C 259.615 -1.17032 -1.98927 0
M  V30 2611 C 260.585 -0.0594241 -1.65994 0
M  V30 2612 O 261.77 -0.229895 -1.8941 0
M  V30 2613 C 258.91 -0.869777 -3.33959 0
M  V30 2614 C 258.023 -2.06271 -3.79574 0
M  V30 2615 C 257.158 -1.70011 -5.03259 0
M  V30 2616 C 256.197 -2.8579 -5.41286 0
M  V30 2617 N 255.334 -2.49816 -6.56153 0
M  V30 2618 H 260.174 -2.1164 -2.09792 0
M  V30 2619 H 257.711 -1.05296 -1.02719 0
M  V30 2620 H 259.669 -0.676138 -4.11685 0
M  V30 2621 H 258.299 0.0394332 -3.22776 0
M  V30 2622 H 257.351 -2.36755 -2.97744 0
M  V30 2623 H 258.663 -2.92971 -4.03694 0
M  V30 2624 H 257.817 -1.47032 -5.88614 0
M  V30 2625 H 256.556 -0.804829 -4.81013 0
M  V30 2626 H 255.561 -3.09434 -4.54456 0
M  V30 2627 H 256.786 -3.76008 -5.65504 0
M  V30 2628 H 254.732 -1.62795 -6.35479 0
M  V30 2629 H 254.649 -3.30048 -6.8015 0
M  V30 2630 H 255.917 -2.30197 -7.44735 0
M  V30 2631 N 260.146 1.09593 -1.13257 0
M  V30 2632 C 261.386 1.83349 -0.903472 0
M  V30 2633 C 261.75 1.83641 0.560351 0
M  V30 2634 O 262.951 2.53037 0.906947 0
M  V30 2635 C 261.222 3.25629 -1.47311 0
M  V30 2636 S 262.781 4.16408 -1.38382 0
M  V30 2637 H 259.599 0.632014 -0.325699 0
M  V30 2638 H 262.201 1.31817 -1.44376 0
M  V30 2639 H 260.905 3.22991 -2.53189 0
M  V30 2640 H 260.436 3.82233 -0.930689 0
M  V30 2641 H 262.451 4.94884 -0.361113 0
M  V30 2642 N 261.624 0.925811 1.2754 0
M  V30 2643 C 262.534 0.428993 2.30644 0
M  V30 2644 C 263.55 -0.489387 1.66976 0
M  V30 2645 O 264.726 -0.372653 1.97922 0
M  V30 2646 C 261.791 -0.311967 3.45294 0
M  V30 2647 C 260.852 0.641098 4.24486 0
M  V30 2648 C 260.085 -0.0645955 5.33661 0
M  V30 2649 O 260.308 -1.28429 5.55754 0
M  V30 2650 O 259.242 0.606265 5.98839 0
M  V30 2651 H 263.068 1.28504 2.75173 0
M  V30 2652 H 260.653 0.691086 1.32455 0
M  V30 2653 H 262.535 -0.729972 4.15029 0
M  V30 2654 H 261.21 -1.14365 3.02824 0
M  V30 2655 H 260.117 1.10874 3.57292 0
M  V30 2656 H 261.45 1.43995 4.70666 0
M  V30 2657 N 263.102 -1.41638 0.69111 0
M  V30 2658 C 264.35 -2.00902 0.219758 0
M  V30 2659 C 264.671 -1.54994 -1.18329 0
M  V30 2660 O 263.941 -0.778628 -1.79762 0
M  V30 2661 H 262.521 -0.74289 0.0782558 0
M  V30 2662 H 265.183 -1.73327 0.891271 0
M  V30 2663 H 264.279 -3.11224 0.233708 0
M  V30 2664 N 264.58 -0.43555 -1.51462 0
M  V30 2665 C 265.82 0.130708 -2.03982 0
M  V30 2666 C 266.184 1.40117 -1.31268 0
M  V30 2667 O 267.385 2.04755 -1.74152 0
M  V30 2668 C 265.656 0.346102 -3.5572 0
M  V30 2669 S 267.215 0.876022 -4.29967 0
M  V30 2670 H 264.033 0.0326881 -0.710248 0
M  V30 2671 H 266.635 -0.594544 -1.8624 0
M  V30 2672 H 265.339 -0.584911 -4.0621 0
M  V30 2673 H 264.87 1.09849 -3.77752 0
M  V30 2674 H 266.885 2.15379 -4.47019 0
M  V30 2675 N 266.058 1.56714 -0.166846 0
M  V30 2676 C 267.306 1.96358 0.478305 0
M  V30 2677 C 267.627 1.0537 1.6408 0
M  V30 2678 O 266.897 0.119154 1.95537 0
M  V30 2679 H 265.477 0.725065 0.179692 0
M  V30 2680 H 268.139 1.93329 -0.246985 0
M  V30 2681 H 267.235 3.00547 0.841292 0
M  V30 2682 N 267.536 -0.106894 1.57237 0
M  V30 2683 C 268.466 -1.13148 2.04254 0
M  V30 2684 C 269.447 -1.42476 0.929224 0
M  V30 2685 O 270.632 -1.52709 1.19973 0
M  V30 2686 C 267.762 -2.4545 2.45706 0
M  V30 2687 C 266.716 -2.30558 3.60592 0
M  V30 2688 C 266.042 -3.67931 3.87983 0
M  V30 2689 C 267.342 -1.75597 4.91897 0
M  V30 2690 H 269.036 -0.740374 2.90101 0
M  V30 2691 H 266.582 -0.354696 1.39563 0
M  V30 2692 H 268.535 -3.17389 2.77205 0
M  V30 2693 H 267.259 -2.86475 1.56843 0
M  V30 2694 H 265.918 -1.61067 3.29322 0
M  V30 2695 H 265.566 -4.06462 2.96306 0
M  V30 2696 H 265.266 -3.58817 4.65322 0
M  V30 2697 H 266.79 -4.41356 4.21945 0
M  V30 2698 H 268.204 -2.37364 5.21854 0
M  V30 2699 H 266.601 -1.77272 5.73319 0
M  V30 2700 H 267.671 -0.714451 4.79608 0
M  V30 2701 N 269.014 -1.53014 -0.377408 0
M  V30 2702 C 269.962 -1.7927 -1.48206 0
M  V30 2703 C 270.956 -0.661195 -1.55963 0
M  V30 2704 O 272.162 -0.843908 -1.58991 0
M  V30 2705 H 268.537 -0.567425 -0.493491 0
M  V30 2706 H 270.508 -2.71753 -1.2326 0
M  V30 2707 C 269.257 -1.98894 -2.85196 0
M  V30 2708 H 268.58 -2.85395 -2.79981 0
M  V30 2709 H 270.02 -2.21249 -3.61698 0
M  V30 2710 C 268.479 -0.764691 -3.28107 0
M  V30 2711 O 269.009 0.0523226 -4.01666 0
M  V30 2712 N 267.215 -0.591493 -2.84517 0
M  V30 2713 H 266.762 -1.25749 -2.24822 0
M  V30 2714 H 266.72 0.226253 -3.13585 0
M  V30 2715 N 270.492 0.636531 -1.44174 0
M  V30 2716 C 271.722 1.42146 -1.49927 0
M  V30 2717 C 272.13 1.88812 -0.121063 0
M  V30 2718 O 271.473 1.61126 0.882267 0
M  V30 2719 C 271.535 2.67883 -2.39748 0
M  V30 2720 C 271.199 2.43048 -3.8701 0
M  V30 2721 C 272.196 2.05216 -4.77684 0
M  V30 2722 C 269.881 2.56856 -4.3166 0
M  V30 2723 C 271.875 1.81512 -6.11009 0
M  V30 2724 C 269.562 2.32766 -5.65034 0
M  V30 2725 C 270.56 1.95152 -6.54526 0
M  V30 2726 O 270.248 1.71326 -7.85431 0
M  V30 2727 H 269.98 0.442567 -0.51099 0
M  V30 2728 H 272.534 0.786158 -1.8976 0
M  V30 2729 H 270.764 3.34032 -1.94832 0
M  V30 2730 H 272.453 3.29874 -2.36513 0
M  V30 2731 H 273.219 1.94111 -4.44462 0
M  V30 2732 H 269.098 2.85104 -3.62266 0
M  V30 2733 H 272.642 1.52077 -6.80822 0
M  V30 2734 H 268.539 2.43479 -5.97819 0
M  V30 2735 H 269.307 1.85616 -7.97176 0
M  V30 2736 N 271.97 1.30982 0.876444 0
M  V30 2737 C 272.92 1.14688 1.97055 0
M  V30 2738 C 273.904 0.0596593 1.60789 0
M  V30 2739 O 275.096 0.283892 1.74708 0
M  V30 2740 C 272.225 0.849627 3.3262 0
M  V30 2741 C 271.311 1.97752 3.75173 0
M  V30 2742 N 271.702 3.22384 3.89746 0
M  V30 2743 C 270 1.8758 4.04635 0
M  V30 2744 C 270.701 3.96121 4.25985 0
M  V30 2745 N 269.677 3.24237 4.36315 0
M  V30 2746 H 273.479 2.09204 2.06424 0
M  V30 2747 H 270.993 1.22445 1.06682 0
M  V30 2748 H 272.99 0.713895 4.10742 0
M  V30 2749 H 271.65 -0.087376 3.24582 0
M  V30 2750 H 272.661 3.57575 3.74647 0
M  V30 2751 H 269.338 1.01303 4.05024 0
M  V30 2752 H 270.728 5.03491 4.44911 0
M  V30 2753 N 273.449 -1.08991 1.13837 0
M  V30 2754 C 274.396 -2.15748 0.819835 0
M  V30 2755 C 275.366 -1.64636 -0.220026 0
M  V30 2756 O 276.551 -1.90582 -0.0912757 0
M  V30 2757 C 273.691 -3.4382 0.296913 0
M  V30 2758 C 272.804 -4.0881 1.39636 0
M  V30 2759 C 271.939 -5.24655 0.831314 0
M  V30 2760 C 270.978 -5.81575 1.90886 0
M  V30 2761 N 270.115 -6.88774 1.36142 0
M  V30 2762 H 274.955 -2.42338 1.73426 0
M  V30 2763 H 272.492 -1.18935 0.865613 0
M  V30 2764 H 274.45 -4.17193 -0.0244339 0
M  V30 2765 H 273.08 -3.17535 -0.580628 0
M  V30 2766 H 272.132 -3.33258 1.83422 0
M  V30 2767 H 273.444 -4.47141 2.21058 0
M  V30 2768 H 272.598 -6.04942 0.461515 0
M  V30 2769 H 271.337 -4.87698 -0.013932 0
M  V30 2770 H 270.342 -4.99946 2.28767 0
M  V30 2771 H 271.567 -6.20592 2.75758 0
M  V30 2772 H 269.513 -6.53788 0.538254 0
M  V30 2773 H 269.43 -7.25898 2.11208 0
M  V30 2774 H 270.698 -7.72806 1.01933 0
M  V30 2775 N 274.927 -0.932562 -1.27047 0
M  V30 2776 C 276.343 -0.633544 -1.46487 0
M  V30 2777 C 276.543 0.815746 -1.84249 0
M  V30 2778 O 275.599 1.59319 -1.95892 0
M  V30 2779 C 276.912 -1.58758 -2.55375 0
M  V30 2780 C 278.46 -1.59634 -2.69232 0
M  V30 2781 C 278.935 -2.53747 -3.81283 0
M  V30 2782 N 280.426 -2.51982 -3.88664 0
M  V30 2783 C 281.161 -3.21491 -4.74796 0
M  V30 2784 N 280.657 -4.00395 -5.65381 0
M  V30 2785 N 282.45 -3.10485 -4.68568 0
M  V30 2786 H 274.601 -1.86946 -1.00821 0
M  V30 2787 H 276.864 -0.802897 -0.504044 0
M  V30 2788 H 276.57 -2.62172 -2.34432 0
M  V30 2789 H 276.444 -1.33301 -3.52861 0
M  V30 2790 H 278.831 -0.569488 -2.89553 0
M  V30 2791 H 278.912 -1.89142 -1.72218 0
M  V30 2792 H 278.556 -3.56545 -3.61715 0
M  V30 2793 H 278.486 -2.21532 -4.77735 0
M  V30 2794 H 280.977 -1.94681 -3.23895 0
M  V30 2795 H 281.29 -4.50406 -6.27976 0
M  V30 2796 H 279.635 -4.04498 -5.65161 0
M  V30 2797 H 282.826 -2.48331 -3.96799 0
M  V30 2798 H 282.999 -3.64925 -5.35475 0
M  V30 2799 N 276.405 1.4127 -0.698611 0
M  V30 2800 C 277.645 2.03044 -0.235062 0
M  V30 2801 C 278.009 1.54146 1.14468 0
M  V30 2802 O 279.21 2.07867 1.70425 0
M  V30 2803 C 277.481 3.56192 -0.293651 0
M  V30 2804 S 279.04 4.38696 0.0954053 0
M  V30 2805 H 275.858 0.704697 -0.0944648 0
M  V30 2806 H 278.46 1.72656 -0.917064 0
M  V30 2807 H 277.164 3.89274 -1.29977 0
M  V30 2808 H 276.695 3.91285 0.407397 0
M  V30 2809 H 278.71 4.78257 1.3223 0
M  V30 2810 N 277.883 0.443576 1.51229 0
M  V30 2811 C 278.846 -0.353132 2.26463 0
M  V30 2812 C 279.846 -0.944338 1.3015 0
M  V30 2813 O 281.036 -0.817813 1.5381 0
M  V30 2814 C 278.168 -1.50023 3.06114 0
M  V30 2815 H 279.361 0.3063 2.98332 0
M  V30 2816 H 276.914 0.196902 1.55055 0
M  V30 2817 H 277.649 -2.19553 2.38677 0
M  V30 2818 H 277.434 -1.08241 3.76864 0
M  V30 2819 H 278.924 -2.06296 3.63087 0
M  V30 2820 N 279.361 -1.56624 0.175154 0
M  V30 2821 C 280.608 -1.96999 -0.468811 0
M  V30 2822 C 280.936 -1.06129 -1.62994 0
M  V30 2823 O 280.191 -0.0961771 -1.95464 0
M  V30 2824 C 280.49 -3.43419 -0.989864 0
M  V30 2825 C 280.156 -4.50866 0.0557687 0
M  V30 2826 C 278.818 -4.79975 0.343134 0
M  V30 2827 C 281.17 -5.15551 0.765308 0
M  V30 2828 C 278.498 -5.71066 1.34536 0
M  V30 2829 C 280.85 -6.07724 1.75654 0
M  V30 2830 C 279.514 -6.35199 2.05132 0
M  V30 2831 H 278.784 -0.720869 -0.17155 0
M  V30 2832 H 281.431 -1.89616 0.267924 0
M  V30 2833 H 279.736 -3.47772 -1.80449 0
M  V30 2834 H 281.433 -3.72002 -1.49719 0
M  V30 2835 H 278.023 -4.28229 -0.178381 0
M  V30 2836 H 282.207 -4.9317 0.556513 0
M  V30 2837 H 277.463 -5.90635 1.57988 0
M  V30 2838 H 281.637 -6.56912 2.31169 0
M  V30 2839 H 279.264 -7.05584 2.8294 0
M  V30 2840 N 280.839 0.0985539 -1.57292 0
M  V30 2841 C 281.786 1.11981 -2.01814 0
M  V30 2842 C 282.756 1.39999 -0.89384 0
M  V30 2843 O 283.941 1.5152 -1.15958 0
M  V30 2844 C 281.081 2.43577 -2.44467 0
M  V30 2845 C 280.194 2.2232 -3.70402 0
M  V30 2846 C 279.329 3.4729 -4.01949 0
M  V30 2847 C 278.368 3.2128 -5.21005 0
M  V30 2848 N 277.505 4.38507 -5.48321 0
M  V30 2849 H 282.345 0.733149 -2.88841 0
M  V30 2850 H 279.882 0.350482 -1.42864 0
M  V30 2851 H 281.84 3.20373 -2.6724 0
M  V30 2852 H 280.47 2.80097 -1.60455 0
M  V30 2853 H 279.522 1.36343 -3.55126 0
M  V30 2854 H 280.834 1.99089 -4.57345 0
M  V30 2855 H 279.988 4.32495 -4.25479 0
M  V30 2856 H 278.727 3.73572 -3.13521 0
M  V30 2857 H 277.732 2.34468 -4.97298 0
M  V30 2858 H 278.957 2.96348 -6.11028 0
M  V30 2859 H 276.903 4.64871 -4.62851 0
M  V30 2860 H 276.82 4.18455 -6.29628 0
M  V30 2861 H 278.088 5.24787 -5.76385 0
M  V30 2862 N 282.317 1.53212 0.369288 0
M  V30 2863 C 283.566 1.68436 1.10961 0
M  V30 2864 C 283.879 0.440738 1.9057 0
M  V30 2865 O 285.085 0.473446 2.6734 0
M  V30 2866 C 283.541 2.97744 2.0218 0
M  V30 2867 C 283.149 4.29355 1.279 0
M  V30 2868 C 284.893 3.22334 2.76226 0
M  V30 2869 C 282.8 5.49755 2.17999 0
M  V30 2870 H 281.73 0.627568 0.41794 0
M  V30 2871 H 284.381 1.79713 0.370884 0
M  V30 2872 H 282.763 2.8026 2.79768 0
M  V30 2873 H 283.937 4.57458 0.554007 0
M  V30 2874 H 282.252 4.11179 0.657311 0
M  V30 2875 H 284.849 4.09471 3.43857 0
M  V30 2876 H 285.192 2.38238 3.41392 0
M  V30 2877 H 285.725 3.40475 2.05723 0
M  V30 2878 H 282.464 6.36318 1.57417 0
M  V30 2879 H 281.984 5.25937 2.88359 0
M  V30 2880 H 283.663 5.84401 2.77641 0
M  V30 2881 N 283.795 -0.628877 1.44509 0
M  V30 2882 C 285.206 -1.21054 1.42137 0
M  V30 2883 C 285.557 -1.95715 0.137881 0
M  V30 2884 O 284.682 -2.02554 -0.761645 0
M  V30 2885 C 285.277 -2.20189 2.57493 0
M  V30 2886 C 283.836 -2.73777 2.58308 0
M  V30 2887 C 282.983 -1.48813 2.33987 0
M  V30 2888 H 285.934 -0.41942 1.53057 0
M  V30 2889 H 285.955 -3.02833 2.30375 0
M  V30 2890 H 285.467 -1.6582 3.50892 0
M  V30 2891 H 283.568 -3.32142 1.68856 0
M  V30 2892 H 283.681 -3.19662 3.56865 0
M  V30 2893 H 282.045 -1.77024 1.83124 0
M  V30 2894 H 282.828 -0.963442 3.29504 0
M  V30 2895 N 285.273 -1.31445 -0.869486 0
M  V30 2896 C 286.221 -1.19067 -1.99814 0
M  V30 2897 C 287.215 -0.0988569 -1.69111 0
M  V30 2898 O 288.421 -0.260781 -1.78101 0
M  V30 2899 H 284.796 -0.368677 -0.655425 0
M  V30 2900 H 286.767 -2.14555 -2.07385 0
M  V30 2901 C 285.516 -0.915323 -3.35436 0
M  V30 2902 H 284.839 -1.74759 -3.59582 0
M  V30 2903 H 286.279 -0.868895 -4.15001 0
M  V30 2904 C 284.738 0.381928 -3.34728 0
M  V30 2905 O 285.268 1.39857 -3.76567 0
M  V30 2906 N 283.474 0.398633 -2.87853 0
M  V30 2907 H 283.021 -0.429186 -2.54 0
M  V30 2908 H 282.979 1.26651 -2.87762 0
M  V30 2909 N 286.751 1.08385 -1.14413 0
M  V30 2910 C 287.699 2.17406 -0.826888 0
M  V30 2911 C 288.693 1.6827 0.195312 0
M  V30 2912 O 289.899 1.79927 0.0513892 0
M  V30 2913 H 286.274 0.70934 -0.249681 0
M  V30 2914 H 288.245 2.41388 -1.75426 0
M  V30 2915 C 286.994 3.46215 -0.320979 0
M  V30 2916 H 286.317 3.84401 -1.0989 0
M  V30 2917 H 287.757 4.23777 -0.137549 0
M  V30 2918 C 286.216 3.23067 0.955472 0
M  V30 2919 O 286.746 3.4668 2.02918 0
M  V30 2920 N 284.952 2.7661 0.890798 0
M  V30 2921 H 284.499 2.57594 0.0168815 0
M  V30 2922 H 284.457 2.61501 1.74542 0
M  V30 2923 N 288.23 0.939286 1.26551 0
M  V30 2924 C 289.47 0.5933 1.956 0
M  V30 2925 C 289.834 -0.851515 1.72085 0
M  V30 2926 O 291.035 -1.30634 2.34921 0
M  V30 2927 C 289.306 0.923996 3.45249 0
M  V30 2928 S 290.865 0.688269 4.33369 0
M  V30 2929 H 287.683 0.218591 0.676564 0
M  V30 2930 H 290.285 1.2102 1.5354 0
M  V30 2931 H 288.989 1.97297 3.59864 0
M  V30 2932 H 288.52 0.296746 3.92279 0
M  V30 2933 H 290.535 -0.448434 4.9417 0
M  V30 2934 N 289.708 -1.40897 0.706093 0
M  V30 2935 C 290.933 -2.05895 0.249435 0
M  V30 2936 C 291.358 -1.52823 -1.09666 0
M  V30 2937 O 290.716 -0.659589 -1.68876 0
M  V30 2938 C 290.764 -3.59872 0.22904 0
M  V30 2939 O 289.868 -4.04708 -0.792784 0
M  V30 2940 H 289.209 -0.653206 0.119241 0
M  V30 2941 H 291.739 -1.80471 0.96391 0
M  V30 2942 H 291.749 -4.07951 0.0634791 0
M  V30 2943 H 290.424 -3.97866 1.21141 0
M  V30 2944 H 289.001 -3.68111 -0.59572 0
M  V30 2945 N 291.186 -0.45159 -1.50991 0
M  V30 2946 C 292.434 0.109857 -2.01801 0
M  V30 2947 C 292.755 1.41958 -1.3369 0
M  V30 2948 O 292.025 1.9003 -0.475951 0
M  V30 2949 H 290.605 0.0435884 -0.745727 0
M  V30 2950 H 293.267 -0.597557 -1.85514 0
M  V30 2951 H 292.363 0.275489 -3.10882 0
M  V30 2952 N 292.664 1.56529 -0.183458 0
M  V30 2953 C 293.91 1.97537 0.459036 0
M  V30 2954 C 294.243 1.06989 1.62071 0
M  V30 2955 O 293.518 0.11948 1.94133 0
M  V30 2956 C 293.801 3.47874 0.930368 0
M  V30 2957 C 293.654 4.492 -0.232317 0
M  V30 2958 C 294.973 4.01612 1.79989 0
M  V30 2959 H 292.092 0.718204 0.165383 0
M  V30 2960 H 294.734 1.88042 -0.272038 0
M  V30 2961 H 292.884 3.56095 1.55333 0
M  V30 2962 H 294.556 4.53027 -0.86972 0
M  V30 2963 H 292.799 4.24657 -0.885928 0
M  V30 2964 H 293.47 5.51823 0.139796 0
M  V30 2965 H 295.946 3.96097 1.27461 0
M  V30 2966 H 294.822 5.07195 2.09867 0
M  V30 2967 H 295.083 3.46163 2.74998 0
M  V30 2968 N 294.142 -0.090211 1.57342 0
M  V30 2969 C 295.558 -0.444547 1.53284 0
M  V30 2970 C 295.758 -1.80238 0.900914 0
M  V30 2971 O 294.814 -2.4759 0.495513 0
M  V30 2972 C 296.127 -0.402543 2.97993 0
M  V30 2973 C 297.675 -0.48405 3.09234 0
M  V30 2974 C 298.15 -0.472144 4.5556 0
M  V30 2975 N 299.641 -0.532757 4.60126 0
M  V30 2976 C 300.376 -0.545462 5.708 0
M  V30 2977 N 299.872 -0.514082 6.9089 0
M  V30 2978 N 301.665 -0.59064 5.58988 0
M  V30 2979 H 293.816 0.799121 1.96794 0
M  V30 2980 H 296.079 0.297965 0.899956 0
M  V30 2981 H 295.785 0.528106 3.47712 0
M  V30 2982 H 295.659 -1.21969 3.56936 0
M  V30 2983 H 298.046 -1.40512 2.595 0
M  V30 2984 H 298.127 0.361328 2.53235 0
M  V30 2985 H 297.771 0.445 5.05947 0
M  V30 2986 H 297.701 -1.3348 5.09402 0
M  V30 2987 H 300.192 -0.562006 3.73698 0
M  V30 2988 H 300.505 -0.527195 7.71 0
M  V30 2989 H 298.85 -0.481054 6.93333 0
M  V30 2990 H 302.041 -0.61272 4.64073 0
M  V30 2991 H 302.214 -0.597073 6.45243 0
M  V30 2992 N 295.62 -1.53406 -0.361157 0
M  V30 2993 C 297.036 -1.43277 -0.703124 0
M  V30 2994 C 297.236 -0.575384 -1.9311 0
M  V30 2995 O 296.292 -0.0595362 -2.5243 0
M  V30 2996 C 297.605 -2.8653 -0.9122 0
M  V30 2997 C 299.153 -2.96191 -1.01193 0
M  V30 2998 C 299.628 -4.40514 -1.25345 0
M  V30 2999 N 301.119 -4.43962 -1.32105 0
M  V30 3000 C 301.854 -5.52746 -1.5251 0
M  V30 3001 N 301.35 -6.71567 -1.70203 0
M  V30 3002 N 303.143 -5.40331 -1.54916 0
M  V30 3003 H 295.294 -2.07654 0.446475 0
M  V30 3004 H 297.557 -0.937944 0.137715 0
M  V30 3005 H 297.263 -3.51605 -0.0816414 0
M  V30 3006 H 297.137 -3.30441 -1.81903 0
M  V30 3007 H 299.524 -2.31266 -1.83303 0
M  V30 3008 H 299.605 -2.55667 -0.0823929 0
M  V30 3009 H 299.249 -5.06014 -0.437346 0
M  V30 3010 H 299.179 -4.78614 -2.19627 0
M  V30 3011 H 301.67 -3.58332 -1.20028 0
M  V30 3012 H 301.983 -7.50241 -1.85359 0
M  V30 3013 H 300.328 -6.74545 -1.67373 0
M  V30 3014 H 303.519 -4.46465 -1.40663 0
M  V30 3015 H 303.692 -6.25173 -1.70477 0
M  V30 3016 N 297.098 0.621204 -1.44841 0
M  V30 3017 C 298.514 0.94048 -1.28946 0
M  V30 3018 C 298.714 2.00154 -0.23249 0
M  V30 3019 O 297.77 2.49651 0.378237 0
M  V30 3020 C 299.083 1.39433 -2.66419 0
M  V30 3021 C 300.631 1.50927 -2.74208 0
M  V30 3022 C 301.106 1.99692 -4.12174 0
M  V30 3023 N 302.597 2.06947 -4.144 0
M  V30 3024 C 303.332 2.45871 -5.1801 0
M  V30 3025 N 302.828 2.83862 -6.31977 0
M  V30 3026 N 304.621 2.46092 -5.05366 0
M  V30 3027 H 296.772 -0.0803548 -2.12248 0
M  V30 3028 H 299.035 0.0266913 -0.947624 0
M  V30 3029 H 298.741 0.688925 -3.44887 0
M  V30 3030 H 298.615 2.36347 -2.93973 0
M  V30 3031 H 301.002 2.20561 -1.96053 0
M  V30 3032 H 301.083 0.523627 -2.50383 0
M  V30 3033 H 300.727 1.30649 -4.90809 0
M  V30 3034 H 300.657 2.99146 -4.33381 0
M  V30 3035 H 303.148 1.80232 -3.32152 0
M  V30 3036 H 303.461 3.12405 -7.0684 0
M  V30 3037 H 301.806 2.8159 -6.35399 0
M  V30 3038 H 304.997 2.1581 -4.15384 0
M  V30 3039 H 305.17 2.76102 -5.86235 0
M  V30 3040 N 298.576 1.31904 0.862503 0
M  V30 3041 C 299.992 1.10724 1.14945 0
M  V30 3042 C 300.192 -0.117421 2.01158 0
M  V30 3043 O 299.248 -0.804595 2.39338 0
M  V30 3044 C 300.561 2.38267 1.83437 0
M  V30 3045 C 302.109 2.43949 1.96106 0
M  V30 3046 C 302.584 3.71394 2.68013 0
M  V30 3047 N 304.075 3.72331 2.75543 0
M  V30 3048 C 304.81 4.67641 3.31812 0
M  V30 3049 N 304.306 5.73313 3.88953 0
M  V30 3050 N 306.099 4.5515 3.29841 0
M  V30 3051 H 298.25 2.10436 0.288191 0
M  V30 3052 H 300.513 0.928705 0.190292 0
M  V30 3053 H 300.219 3.27759 1.27542 0
M  V30 3054 H 300.093 2.48633 2.83657 0
M  V30 3055 H 302.48 1.54922 2.51164 0
M  V30 3056 H 302.561 2.37543 0.949059 0
M  V30 3057 H 302.205 4.60791 2.13621 0
M  V30 3058 H 302.135 3.75069 3.69636 0
M  V30 3059 H 304.626 2.95947 2.34997 0
M  V30 3060 H 304.939 6.42107 4.30022 0
M  V30 3061 H 303.284 5.77077 3.87308 0
M  V30 3062 H 306.475 3.71766 2.84443 0
M  V30 3063 H 306.648 5.29604 3.73394 0
M  V30 3064 N 300.054 -1.07777 1.14986 0
M  V30 3065 C 300.984 -2.16865 0.865557 0
M  V30 3066 C 301.965 -1.69123 -0.182083 0
M  V30 3067 O 303.15 -1.94164 -0.0373815 0
M  V30 3068 C 300.28 -3.45539 0.349313 0
M  V30 3069 C 299.234 -4.06708 1.33313 0
M  V30 3070 C 298.56 -5.30411 0.675918 0
M  V30 3071 C 299.86 -4.47241 2.69764 0
M  V30 3072 H 301.554 -2.40905 1.77778 0
M  V30 3073 H 299.1 -1.15781 0.856203 0
M  V30 3074 H 301.053 -4.21174 0.137983 0
M  V30 3075 H 299.777 -3.21072 -0.598362 0
M  V30 3076 H 298.436 -3.33112 1.53075 0
M  V30 3077 H 298.084 -5.02232 -0.277767 0
M  V30 3078 H 297.784 -5.72293 1.33244 0
M  V30 3079 H 299.308 -6.08755 0.474262 0
M  V30 3080 H 300.722 -5.14025 2.53873 0
M  V30 3081 H 299.119 -5.00062 3.3175 0
M  V30 3082 H 300.189 -3.58818 3.26156 0
M  V30 3083 N 301.532 -0.945985 -1.26051 0
M  V30 3084 C 302.757 -0.612525 -1.98149 0
M  V30 3085 C 303.182 0.806623 -1.69927 0
M  V30 3086 O 302.54 1.54411 -0.950108 0
M  V30 3087 C 302.588 -0.866981 -3.50023 0
M  V30 3088 O 301.692 0.0585333 -4.12358 0
M  V30 3089 H 301.033 -0.23379 -0.621481 0
M  V30 3090 H 303.563 -1.27023 -1.60395 0
M  V30 3091 H 303.573 -0.789792 -4.00283 0
M  V30 3092 H 302.248 -1.90135 -3.69894 0
M  V30 3093 H 300.825 -0.0701241 -3.72834 0
M  V30 3094 N 303.011 1.40521 -0.713556 0
M  V30 3095 C 303.959 2.32549 -0.0485227 0
M  V30 3096 C 304.953 1.51931 0.74922 0
M  V30 3097 O 306.159 1.67745 0.652816 0
M  V30 3098 H 302.534 0.751994 0.00311138 0
M  V30 3099 H 304.505 2.86291 -0.841443 0
M  V30 3100 C 303.254 3.36879 0.860687 0
M  V30 3101 H 302.577 3.98978 0.256246 0
M  V30 3102 H 304.017 4.03772 1.294 0
M  V30 3103 C 302.476 2.72197 1.9852 0
M  V30 3104 O 303.006 2.5837 3.07584 0
M  V30 3105 N 301.212 2.30612 1.76823 0
M  V30 3106 H 300.759 2.42059 0.881217 0
M  V30 3107 H 300.717 1.87672 2.52243 0
M  V30 3108 N 304.489 0.459591 1.5075 0
M  V30 3109 C 305.735 -0.0994966 2.02556 0
M  V30 3110 C 306.068 -1.40399 1.3417 0
M  V30 3111 O 305.343 -1.88892 0.463683 0
M  V30 3112 C 305.626 -0.295242 3.58888 0
M  V30 3113 C 305.479 1.02947 4.37861 0
M  V30 3114 C 306.798 -1.05502 4.27267 0
M  V30 3115 H 303.917 -0.034686 0.736183 0
M  V30 3116 H 306.559 0.602938 1.8018 0
M  V30 3117 H 304.709 -0.893563 3.78084 0
M  V30 3118 H 306.381 1.66348 4.30263 0
M  V30 3119 H 304.624 1.62885 4.02058 0
M  V30 3120 H 305.295 0.846281 5.45474 0
M  V30 3121 H 307.771 -0.547993 4.12476 0
M  V30 3122 H 306.647 -1.16077 5.36486 0
M  V30 3123 H 306.908 -2.08875 3.89645 0
M  V30 3124 N 305.967 -1.56429 0.191757 0
M  V30 3125 C 307.192 -2.02309 -0.456706 0
M  V30 3126 C 307.617 -1.07103 -1.5463 0
M  V30 3127 O 306.975 -0.0539677 -1.8122 0
M  V30 3128 C 307.023 -3.46654 -0.993159 0
M  V30 3129 O 306.127 -3.54559 -2.10622 0
M  V30 3130 H 305.468 -0.655303 -0.107114 0
M  V30 3131 H 307.998 -2.02364 0.301653 0
M  V30 3132 H 308.008 -3.86377 -1.31061 0
M  V30 3133 H 306.683 -4.1544 -0.195504 0
M  V30 3134 H 305.26 -3.26708 -1.79767 0
M  V30 3135 N 307.445 0.0818655 -1.57387 0
M  V30 3136 C 308.375 1.09885 -2.06028 0
M  V30 3137 C 309.356 1.4098 -0.951774 0
M  V30 3138 O 310.541 1.50781 -1.22387 0
M  V30 3139 C 307.671 2.4151 -2.4958 0
M  V30 3140 C 306.625 2.24792 -3.64215 0
M  V30 3141 C 305.951 3.61712 -3.93787 0
M  V30 3142 C 307.251 1.67749 -4.94629 0
M  V30 3143 H 308.945 0.694128 -2.91243 0
M  V30 3144 H 306.491 0.332448 -1.4011 0
M  V30 3145 H 308.444 3.12939 -2.82219 0
M  V30 3146 H 307.168 2.83943 -1.61381 0
M  V30 3147 H 305.827 1.55807 -3.31843 0
M  V30 3148 H 305.475 4.01697 -3.02735 0
M  V30 3149 H 305.175 3.51368 -4.70971 0
M  V30 3150 H 306.699 4.34587 -4.28913 0
M  V30 3151 H 308.113 2.29032 -5.25564 0
M  V30 3152 H 306.51 1.68128 -5.76067 0
M  V30 3153 H 307.58 0.638059 -4.80684 0
M  V30 3154 N 308.923 1.53595 0.353017 0
M  V30 3155 C 310.151 1.74311 1.1146 0
M  V30 3156 C 310.566 0.477854 1.82653 0
M  V30 3157 O 309.923 -0.549977 1.74016 0
M  V30 3158 C 309.974 2.91694 2.13534 0
M  V30 3159 O 309.695 4.13325 1.45238 0
M  V30 3160 C 311.196 3.24384 3.02142 0
M  V30 3161 H 308.416 0.582669 0.332773 0
M  V30 3162 H 310.96 2.00386 0.408107 0
M  V30 3163 H 309.115 2.67977 2.79763 0
M  V30 3164 H 309.529 4.79148 2.13349 0
M  V30 3165 H 311.003 4.09893 3.69718 0
M  V30 3166 H 311.48 2.40282 3.67643 0
M  V30 3167 H 312.086 3.50073 2.41514 0
M  V30 3168 N 310.401 -0.613514 1.45168 0
M  V30 3169 C 311.649 -1.36997 1.48581 0
M  V30 3170 C 311.97 -1.94589 0.126545 0
M  V30 3171 O 311.24 -1.76816 -0.843372 0
M  V30 3172 H 309.82 -0.508558 0.547154 0
M  V30 3173 H 312.482 -0.720853 1.81079 0
M  V30 3174 H 311.578 -2.1924 2.22127 0
M  V30 3175 N 311.879 -1.3236 -0.855495 0
M  V30 3176 C 313.125 -1.23054 -1.612 0
M  V30 3177 C 313.458 0.207404 -1.93089 0
M  V30 3178 O 312.733 1.14432 -1.57275 0
M  V30 3179 C 313.016 -2.08937 -2.93287 0
M  V30 3180 C 312.869 -3.61105 -2.68185 0
M  V30 3181 C 314.188 -1.94986 -3.94549 0
M  V30 3182 H 311.307 -0.448364 -0.584926 0
M  V30 3183 H 313.949 -1.62297 -0.987917 0
M  V30 3184 H 312.099 -1.75599 -3.46551 0
M  V30 3185 H 313.771 -4.04652 -2.21483 0
M  V30 3186 H 312.014 -3.83813 -2.02164 0
M  V30 3187 H 312.685 -4.16522 -3.62234 0
M  V30 3188 H 315.161 -2.24189 -3.5054 0
M  V30 3189 H 314.037 -2.57356 -4.84829 0
M  V30 3190 H 314.298 -0.917263 -4.3248 0
M  V30 3191 N 313.357 1.07166 -1.15556 0
M  V30 3192 C 314.582 1.84053 -0.955988 0
M  V30 3193 C 315.007 1.81586 0.490739 0
M  V30 3194 O 314.365 1.21018 1.34997 0
M  V30 3195 C 314.413 3.28957 -1.47714 0
M  V30 3196 O 313.517 4.06795 -0.677593 0
M  V30 3197 H 312.858 0.569842 -0.340847 0
M  V30 3198 H 315.388 1.35178 -1.53584 0
M  V30 3199 H 315.398 3.79788 -1.4908 0
M  V30 3200 H 314.073 3.30068 -2.53037 0
M  V30 3201 H 312.65 3.6561 -0.733721 0
M  V30 3202 N 314.835 0.952656 1.25548 0
M  V30 3203 C 316.063 0.623496 1.97282 0
M  V30 3204 C 316.478 -0.803987 1.70826 0
M  V30 3205 O 315.835 -1.53755 0.983147 0
M  V30 3206 C 315.886 0.870209 3.5087 0
M  V30 3207 O 315.607 2.24156 3.76412 0
M  V30 3208 C 317.108 0.553164 4.39835 0
M  V30 3209 H 314.328 0.233931 0.628902 0
M  V30 3210 H 316.872 1.27649 1.59768 0
M  V30 3211 H 315.027 0.263652 3.86502 0
M  V30 3212 H 315.441 2.31021 4.70882 0
M  V30 3213 H 316.915 0.776342 5.46513 0
M  V30 3214 H 317.392 -0.512215 4.36203 0
M  V30 3215 H 317.998 1.13896 4.09766 0
M  V30 3216 N 316.313 -1.40141 0.720998 0
M  V30 3217 C 317.562 -2.0002 0.259804 0
M  V30 3218 C 317.875 -1.57839 -1.15526 0
M  V30 3219 O 319.081 -2.10455 -1.71525 0
M  V30 3220 C 317.537 -3.57516 0.413566 0
M  V30 3221 C 317.145 -4.08667 1.83562 0
M  V30 3222 C 318.889 -4.24498 0.0134387 0
M  V30 3223 C 316.796 -5.58686 1.93968 0
M  V30 3224 H 315.726 -0.748195 0.0933806 0
M  V30 3225 H 318.377 -1.60313 0.892866 0
M  V30 3226 H 316.759 -3.9495 -0.288169 0
M  V30 3227 H 317.933 -3.82598 2.56817 0
M  V30 3228 H 316.248 -3.543 2.1877 0
M  V30 3229 H 318.845 -5.34654 0.0703954 0
M  V30 3230 H 319.188 -4.03375 -1.02927 0
M  V30 3231 H 319.721 -3.92188 0.665815 0
M  V30 3232 H 316.46 -5.8467 2.96379 0
M  V30 3233 H 315.98 -5.86602 1.25131 0
M  V30 3234 H 317.659 -6.23875 1.71431 0
M  V30 3235 N 317.792 -0.46758 -1.50504 0
M  V30 3236 C 319.208 -0.121533 -1.59137 0
M  V30 3237 C 319.408 1.3717 -1.47603 0
M  V30 3238 O 318.464 2.14464 -1.33272 0
M  V30 3239 C 319.777 -0.6686 -2.93173 0
M  V30 3240 C 321.325 -0.631716 -3.06559 0
M  V30 3241 C 321.8 -1.15627 -4.43164 0
M  V30 3242 N 323.291 -1.11553 -4.49567 0
M  V30 3243 C 324.026 -1.49195 -5.5365 0
M  V30 3244 N 323.522 -1.94269 -6.65005 0
M  V30 3245 N 325.315 -1.4082 -5.44175 0
M  V30 3246 H 317.466 -1.4388 -1.56245 0
M  V30 3247 H 319.729 -0.594784 -0.738198 0
M  V30 3248 H 319.435 -1.71453 -3.07078 0
M  V30 3249 H 319.309 -0.11021 -3.77039 0
M  V30 3250 H 321.696 0.405297 -2.92304 0
M  V30 3251 H 321.777 -1.22687 -2.24458 0
M  V30 3252 H 321.421 -2.1919 -4.58168 0
M  V30 3253 H 321.351 -0.537365 -5.23851 0
M  V30 3254 H 323.842 -0.784895 -3.69659 0
M  V30 3255 H 324.155 -2.21148 -7.40482 0
M  V30 3256 H 322.5 -1.98219 -6.66134 0
M  V30 3257 H 325.691 -1.0545 -4.56068 0
M  V30 3258 H 325.864 -1.70481 -6.25172 0
M  V30 3259 N 319.27 1.56325 -0.20005 0
M  V30 3260 C 320.498 2.02105 0.442874 0
M  V30 3261 C 320.913 1.08014 1.5485 0
M  V30 3262 O 320.27 0.0858797 1.82298 0
M  V30 3263 C 320.321 3.47549 0.994583 0
M  V30 3264 O 320.042 4.38049 -0.0669322 0
M  V30 3265 C 321.543 4.0887 1.7129 0
M  V30 3266 H 318.763 0.661807 0.110691 0
M  V30 3267 H 321.307 2.02134 -0.310207 0
M  V30 3268 H 319.462 3.48204 1.69803 0
M  V30 3269 H 319.876 5.23368 0.344462 0
M  V30 3270 H 321.35 5.12475 2.05118 0
M  V30 3271 H 321.827 3.52615 2.61838 0
M  V30 3272 H 322.433 4.12002 1.05518 0
M  V30 3273 N 320.748 -0.0735177 1.57428 0
M  V30 3274 C 321.973 -0.789787 1.91774 0
M  V30 3275 C 322.398 -1.70413 0.796306 0
M  V30 3276 O 321.756 -1.79555 -0.250961 0
M  V30 3277 C 321.804 -1.5609 3.25067 0
M  V30 3278 O 320.908 -2.67144 3.14178 0
M  V30 3279 H 320.249 -0.215582 0.628029 0
M  V30 3280 H 322.779 -0.0422781 2.04556 0
M  V30 3281 H 322.789 -1.94052 3.58898 0
M  V30 3282 H 321.464 -0.890015 4.06265 0
M  V30 3283 H 320.041 -2.32052 2.91901 0
M  V30 3284 N 322.226 -1.5378 -0.344866 0
M  V30 3285 C 323.451 -1.75211 -1.10977 0
M  V30 3286 C 323.876 -0.48936 -1.81623 0
M  V30 3287 O 323.234 0.557925 -1.72502 0
M  V30 3288 C 323.282 -2.93147 -2.09993 0
M  V30 3289 O 322.386 -2.63203 -3.17487 0
M  V30 3290 H 321.727 -0.581241 -0.321021 0
M  V30 3291 H 324.257 -2.00738 -0.395661 0
M  V30 3292 H 324.267 -3.19898 -2.53237 0
M  V30 3293 H 322.942 -3.84731 -1.5797 0
M  V30 3294 H 321.519 -2.47336 -2.79069 0
M  V30 3295 N 323.704 0.605807 -1.45491 0
M  V30 3296 C 324.667 1.69836 -1.5391 0
M  V30 3297 C 325.667 1.55261 -0.418424 0
M  V30 3298 O 326.857 1.60296 -0.681965 0
M  V30 3299 C 323.989 3.09117 -1.43734 0
M  V30 3300 H 325.182 1.63738 -2.51257 0
M  V30 3301 H 322.735 0.821689 -1.32959 0
M  V30 3302 H 323.47 3.20791 -0.475788 0
M  V30 3303 H 323.255 3.21104 -2.25021 0
M  V30 3304 H 324.745 3.88696 -1.52661 0
M  V30 3305 N 325.182 1.32811 0.848464 0
M  V30 3306 C 326.092 1.24278 1.98978 0
M  V30 3307 C 327.108 0.155176 1.73307 0
M  V30 3308 O 328.284 0.376999 1.9784 0
M  V30 3309 C 325.349 0.972444 3.32783 0
M  V30 3310 C 324.41 2.14911 3.71634 0
M  V30 3311 C 323.643 1.89157 4.99054 0
M  V30 3312 O 323.866 0.837165 5.64223 0
M  V30 3313 O 322.8 2.75433 5.35183 0
M  V30 3314 H 326.626 2.20238 2.09115 0
M  V30 3315 H 324.211 1.12762 0.980052 0
M  V30 3316 H 326.093 0.838432 4.12975 0
M  V30 3317 H 324.768 0.043051 3.23671 0
M  V30 3318 H 323.675 2.33862 2.91992 0
M  V30 3319 H 325.008 3.06151 3.85399 0
M  V30 3320 N 326.66 -1.06551 1.16123 0
M  V30 3321 C 327.59 -2.15935 0.88851 0
M  V30 3322 C 328.571 -1.69306 -0.164135 0
M  V30 3323 O 329.756 -1.94193 -0.0167857 0
M  V30 3324 C 326.886 -3.45149 0.385942 0
M  V30 3325 C 325.84 -4.05271 1.3762 0
M  V30 3326 C 325.166 -5.29664 0.732137 0
M  V30 3327 C 326.466 -4.44355 2.74493 0
M  V30 3328 H 328.16 -2.39006 1.80323 0
M  V30 3329 H 325.706 -1.14866 0.868435 0
M  V30 3330 H 327.659 -4.21004 0.182647 0
M  V30 3331 H 326.383 -3.21689 -0.564274 0
M  V30 3332 H 325.042 -3.3147 1.56599 0
M  V30 3333 H 324.69 -5.02499 -0.224483 0
M  V30 3334 H 324.39 -5.70848 1.39307 0
M  V30 3335 H 325.914 -6.08218 0.538802 0
M  V30 3336 H 327.328 -5.11303 2.59311 0
M  V30 3337 H 325.725 -4.96515 3.37035 0
M  V30 3338 H 326.795 -3.55339 3.29943 0
M  V30 3339 N 328.138 -0.959301 -1.25041 0
M  V30 3340 C 329.363 -0.633507 -1.97488 0
M  V30 3341 C 329.788 0.788555 -1.70773 0
M  V30 3342 O 329.146 1.53394 -0.966431 0
M  V30 3343 C 329.194 -0.904057 -3.49083 0
M  V30 3344 O 328.298 0.0147939 -4.12397 0
M  V30 3345 H 327.639 -0.240368 -0.618966 0
M  V30 3346 H 330.169 -1.28717 -1.59038 0
M  V30 3347 H 330.179 -0.832203 -3.99423 0
M  V30 3348 H 328.854 -1.94048 -3.67856 0
M  V30 3349 H 327.431 -0.109664 -3.72739 0
M  V30 3350 N 329.616 1.39756 -0.72842 0
M  V30 3351 C 330.844 2.04948 -0.283528 0
M  V30 3352 C 331.259 1.54908 1.0793 0
M  V30 3353 O 330.616 0.711135 1.68075 0
M  V30 3354 C 330.667 3.60498 -0.268957 0
M  V30 3355 O 330.388 4.08695 -1.57798 0
M  V30 3356 C 331.889 4.4288 0.192912 0
M  V30 3357 H 329.109 0.659243 -0.125056 0
M  V30 3358 H 331.653 1.78927 -0.990226 0
M  V30 3359 H 329.808 3.85444 0.388801 0
M  V30 3360 H 330.222 5.02977 -1.48709 0
M  V30 3361 H 331.696 5.51791 0.151952 0
M  V30 3362 H 332.173 4.21418 1.23708 0
M  V30 3363 H 332.779 4.23069 -0.435039 0
M  V30 3364 N 331.094 0.475555 1.50254 0
M  V30 3365 C 332.319 -0.0777042 2.07254 0
M  V30 3366 C 332.744 -1.3235 1.3366 0
M  V30 3367 O 332.102 -1.77152 0.385597 0
M  V30 3368 C 332.15 -0.340169 3.58992 0
M  V30 3369 O 331.254 -1.41982 3.87188 0
M  V30 3370 H 330.595 0.0149556 0.663832 0
M  V30 3371 H 333.125 0.667878 1.93392 0
M  V30 3372 H 333.135 -0.579332 4.03866 0
M  V30 3373 H 331.81 0.570167 4.11973 0
M  V30 3374 H 330.387 -1.16762 3.54148 0
M  V30 3375 N 332.573 -1.56217 0.208337 0
M  V30 3376 C 333.536 -2.18455 -0.693557 0
M  V30 3377 C 334.536 -1.14268 -1.13135 0
M  V30 3378 O 335.726 -1.39577 -1.0423 0
M  V30 3379 C 332.858 -2.79727 -1.94848 0
M  V30 3380 H 334.051 -2.99519 -0.15114 0
M  V30 3381 H 331.604 -1.56245 -0.041287 0
M  V30 3382 H 332.339 -2.02497 -2.53309 0
M  V30 3383 H 332.124 -3.56009 -1.64316 0
M  V30 3384 H 333.614 -3.27475 -2.59133 0
M  V30 3385 N 334.051 0.0651679 -1.57465 0
M  V30 3386 C 335.462 0.616213 -1.76238 0
M  V30 3387 C 335.813 1.7756 -0.834689 0
M  V30 3388 O 334.938 2.1639 -0.0204156 0
M  V30 3389 C 335.533 1.12462 -3.1959 0
M  V30 3390 C 334.092 1.62147 -3.39684 0
M  V30 3391 C 333.239 0.543739 -2.71917 0
M  V30 3392 H 336.19 -0.161022 -1.57881 0
M  V30 3393 H 336.211 1.99324 -3.24114 0
M  V30 3394 H 335.723 0.280592 -3.87084 0
M  V30 3395 H 333.824 2.48854 -2.77313 0
M  V30 3396 H 333.937 1.69385 -4.48158 0
M  V30 3397 H 332.301 0.990352 -2.34657 0
M  V30 3398 H 333.084 -0.290216 -3.42071 0
M  V30 3399 N 335.529 1.53961 0.336706 0
M  V30 3400 C 336.806 1.62171 1.09361 0
M  V30 3401 C 337.186 0.447263 2.06307 0
M  V30 3402 O 336.534 -0.559802 2.21537 0
M  V30 3403 C 336.744 2.98565 1.80721 0
M  V30 3404 C 338.092 3.54157 2.34218 0
M  V30 3405 O 339.116 3.00784 1.90807 0
M  V30 3406 O 337.975 4.47528 3.13657 0
M  V30 3407 H 335.069 0.6562 0.503319 0
M  V30 3408 H 337.615 1.66307 0.33765 0
M  V30 3409 H 336.387 3.75482 1.10132 0
M  V30 3410 H 336.01 2.9805 2.63158 0
M  V30 3411 N 337.007 -0.598083 1.45811 0
M  V30 3412 C 337.917 -1.73632 1.57763 0
M  V30 3413 C 338.933 -1.67763 0.461676 0
M  V30 3414 O 340.109 -1.87949 0.723685 0
M  V30 3415 C 337.174 -3.10114 1.55018 0
M  V30 3416 C 336.235 -3.27364 2.77726 0
M  V30 3417 C 335.468 -4.57334 2.75102 0
M  V30 3418 O 335.691 -5.40258 1.8297 0
M  V30 3419 O 334.625 -4.77502 3.66437 0
M  V30 3420 H 338.451 -1.66498 2.53992 0
M  V30 3421 H 336.036 -0.763308 1.28429 0
M  V30 3422 H 337.918 -3.9141 1.56129 0
M  V30 3423 H 336.593 -3.17718 0.619431 0
M  V30 3424 H 335.5 -2.45619 2.82174 0
M  V30 3425 H 336.833 -3.24641 3.69958 0
M  V30 3426 N 338.485 -1.33259 -0.841409 0
M  V30 3427 C 339.896 -1.22066 -1.41269 0
M  V30 3428 C 340.247 0.161479 -1.95534 0
M  V30 3429 O 339.372 1.06094 -1.88608 0
M  V30 3430 C 339.967 -2.20996 -2.568 0
M  V30 3431 C 338.526 -2.13649 -3.09888 0
M  V30 3432 C 337.673 -2.08623 -1.82679 0
M  V30 3433 H 340.624 -1.44895 -0.647395 0
M  V30 3434 H 340.645 -1.81621 -3.34356 0
M  V30 3435 H 340.157 -3.2158 -2.17274 0
M  V30 3436 H 338.258 -1.16359 -3.53965 0
M  V30 3437 H 338.371 -3.04079 -3.70234 0
M  V30 3438 H 336.735 -1.54061 -2.02824 0
M  V30 3439 H 337.518 -3.1101 -1.45353 0
M  V30 3440 N 339.963 1.05934 -1.16686 0
M  V30 3441 C 340.893 2.1546 -0.899949 0
M  V30 3442 C 341.874 1.69391 0.155154 0
M  V30 3443 O 343.059 1.94199 0.00648693 0
M  V30 3444 C 340.189 3.44939 -0.404241 0
M  V30 3445 C 339.143 4.04536 -1.39767 0
M  V30 3446 C 338.469 5.29268 -0.760216 0
M  V30 3447 C 339.769 4.42893 -2.76845 0
M  V30 3448 H 341.463 2.38046 -1.81588 0
M  V30 3449 H 339.009 1.14404 -0.874514 0
M  V30 3450 H 340.962 4.20901 -0.204971 0
M  V30 3451 H 339.686 3.21983 0.547206 0
M  V30 3452 H 338.345 3.30635 -1.58355 0
M  V30 3453 H 337.993 5.02611 0.197831 0
M  V30 3454 H 337.693 5.70101 -1.42332 0
M  V30 3455 H 339.217 6.07924 -0.57105 0
M  V30 3456 H 340.631 5.09921 -2.62019 0
M  V30 3457 H 339.028 4.94721 -3.39663 0
M  V30 3458 H 340.098 3.53584 -3.31823 0
M  V30 3459 N 341.441 0.965919 1.2453 0
M  V30 3460 C 342.371 0.513476 2.27784 0
M  V30 3461 C 343.352 -0.445974 1.6415 0
M  V30 3462 O 344.537 -0.342485 1.91156 0
M  V30 3463 C 341.667 -0.198839 3.4673 0
M  V30 3464 C 340.621 0.676456 4.2262 0
M  V30 3465 C 339.947 -0.167248 5.34438 0
M  V30 3466 C 341.247 1.96017 4.84123 0
M  V30 3467 H 342.941 1.3765 2.65881 0
M  V30 3468 H 340.487 0.663321 1.27813 0
M  V30 3469 H 342.44 -0.526567 4.18097 0
M  V30 3470 H 341.164 -1.0962 3.07654 0
M  V30 3471 H 339.823 0.98743 3.53052 0
M  V30 3472 H 339.471 -1.0647 4.91603 0
M  V30 3473 H 339.171 0.415181 5.86131 0
M  V30 3474 H 340.695 -0.489688 6.08633 0
M  V30 3475 H 342.109 1.69814 5.47573 0
M  V30 3476 H 340.506 2.48918 5.4604 0
M  V30 3477 H 341.576 2.65622 4.05676 0
M  V30 3478 N 342.919 -1.39368 0.735821 0
M  V30 3479 C 343.851 -2.2913 0.0567723 0
M  V30 3480 C 344.864 -1.46859 -0.702589 0
M  V30 3481 O 346.053 -1.69925 -0.546616 0
M  V30 3482 C 343.153 -3.25492 -0.943823 0
M  V30 3483 C 342.326 -4.36709 -0.24581 0
M  V30 3484 C 341.385 -5.13376 -1.15463 0
M  V30 3485 O 340.411 -5.65683 -0.631803 0
M  V30 3486 N 341.613 -5.24656 -2.48427 0
M  V30 3487 H 344.378 -2.88047 0.827582 0
M  V30 3488 H 341.939 -1.50957 0.585112 0
M  V30 3489 H 343.931 -3.73657 -1.55443 0
M  V30 3490 H 342.501 -2.676 -1.61583 0
M  V30 3491 H 341.721 -3.9041 0.545286 0
M  V30 3492 H 343.009 -5.08244 0.237891 0
M  V30 3493 H 342.407 -4.83679 -2.93379 0
M  V30 3494 H 340.964 -5.76258 -3.04582 0
M  V30 3495 N 344.397 -0.483516 -1.5 0
M  V30 3496 C 345.344 0.304164 -2.28787 0
M  V30 3497 C 346.314 0.976114 -1.34392 0
M  V30 3498 O 347.499 0.986156 -1.63339 0
M  V30 3499 C 344.639 1.37298 -3.16612 0
M  V30 3500 C 343.752 0.714561 -4.26049 0
M  V30 3501 C 342.887 1.76232 -5.01114 0
M  V30 3502 C 341.926 1.08483 -6.0241 0
M  V30 3503 N 341.063 2.076 -6.70706 0
M  V30 3504 H 345.903 -0.373981 -2.95644 0
M  V30 3505 H 343.44 -0.196275 -1.45785 0
M  V30 3506 H 345.398 2.00445 -3.65893 0
M  V30 3507 H 344.028 2.02012 -2.51776 0
M  V30 3508 H 343.08 -0.0297798 -3.80388 0
M  V30 3509 H 344.392 0.180383 -4.98474 0
M  V30 3510 H 343.546 2.46929 -5.54176 0
M  V30 3511 H 342.285 2.33033 -4.28424 0
M  V30 3512 H 341.29 0.363545 -5.48597 0
M  V30 3513 H 342.515 0.523551 -6.77079 0
M  V30 3514 H 340.461 2.63394 -6.00799 0
M  V30 3515 H 340.378 1.59201 -7.39047 0
M  V30 3516 H 341.646 2.77639 -7.2838 0
M  V30 3517 N 345.875 1.56104 -0.216619 0
M  V30 3518 C 347.1 2.0301 0.424462 0
M  V30 3519 C 347.525 1.0955 1.52907 0
M  V30 3520 O 346.883 0.0827914 1.81111 0
M  V30 3521 C 346.931 3.4819 0.937883 0
M  V30 3522 O 346.035 3.57865 2.04955 0
M  V30 3523 H 345.376 0.656925 0.0966755 0
M  V30 3524 H 347.906 2.01859 -0.33381 0
M  V30 3525 H 347.916 3.88413 1.24897 0
M  V30 3526 H 346.591 4.15699 0.129387 0
M  V30 3527 H 345.168 3.29527 1.74546 0
M  V30 3528 N 347.353 -0.0568162 1.57498 0
M  V30 3529 C 348.764 -0.606858 1.76562 0
M  V30 3530 C 349.115 -1.77114 0.844094 0
M  V30 3531 O 348.24 -2.16376 0.0318911 0
M  V30 3532 C 348.835 -1.10766 3.20182 0
M  V30 3533 C 347.394 -1.60344 3.40539 0
M  V30 3534 C 346.541 -0.529311 2.72201 0
M  V30 3535 H 349.492 0.169393 1.57793 0
M  V30 3536 H 349.513 -1.97602 3.25167 0
M  V30 3537 H 349.025 -0.26006 3.87228 0
M  V30 3538 H 347.126 -2.47379 2.78629 0
M  V30 3539 H 347.239 -1.67006 4.4905 0
M  V30 3540 H 345.603 -0.977893 2.35179 0
M  V30 3541 H 346.386 0.308352 3.41912 0
M  V30 3542 N 348.832 -1.54138 -0.328536 0
M  V30 3543 C 350.057 -1.76378 -1.09112 0
M  V30 3544 C 350.482 -0.508596 -1.81094 0
M  V30 3545 O 349.84 0.539598 -1.73084 0
M  V30 3546 C 349.888 -2.95358 -2.06872 0
M  V30 3547 O 348.992 -2.66556 -3.14677 0
M  V30 3548 H 348.333 -0.584614 -0.314838 0
M  V30 3549 H 350.863 -2.01146 -0.374348 0
M  V30 3550 H 350.873 -3.22566 -2.4983 0
M  V30 3551 H 349.548 -3.86385 -1.5388 0
M  V30 3552 H 348.125 -2.50282 -2.7643 0
M  V30 3553 N 350.31 0.590341 -1.46126 0
M  V30 3554 C 351.22 1.72793 -1.58681 0
M  V30 3555 C 352.236 1.67516 -0.470566 0
M  V30 3556 O 353.412 1.87562 -0.733642 0
M  V30 3557 C 350.477 3.09287 -1.5666 0
M  V30 3558 C 349.538 3.25886 -2.79458 0
M  V30 3559 C 348.771 4.55869 -2.77524 0
M  V30 3560 O 348.994 5.3928 -1.85832 0
M  V30 3561 O 347.928 4.75552 -3.68964 0
M  V30 3562 H 351.754 1.65149 -2.54872 0
M  V30 3563 H 349.339 0.756486 -1.28832 0
M  V30 3564 H 351.221 3.90577 -1.58202 0
M  V30 3565 H 349.896 3.17385 -0.636271 0
M  V30 3566 H 348.803 2.44119 -2.83472 0
M  V30 3567 H 350.136 3.22675 -3.71674 0
M  V30 3568 N 351.788 1.33704 0.83433 0
M  V30 3569 C 353.013 1.28615 1.62705 0
M  V30 3570 C 353.438 -0.139242 1.87584 0
M  V30 3571 O 352.796 -1.09734 1.4432 0
M  V30 3572 C 352.844 2.07139 2.95171 0
M  V30 3573 O 351.948 1.4331 3.86699 0
M  V30 3574 H 351.289 0.44226 0.49528 0
M  V30 3575 H 353.819 1.76335 1.03766 0
M  V30 3576 H 353.829 2.18073 3.44831 0
M  V30 3577 H 352.504 3.10779 2.76386 0
M  V30 3578 H 351.081 1.4105 3.45195 0
M  V30 3579 N 353.266 -1.05314 1.17247 0
M  V30 3580 C 354.513 -1.78293 0.960091 0
M  V30 3581 C 354.841 -1.87658 -0.51136 0
M  V30 3582 O 354.096 -1.3718 -1.39571 0
M  V30 3583 C 354.395 -3.2229 1.54479 0
M  V30 3584 C 354.061 -3.32987 3.04024 0
M  V30 3585 C 352.723 -3.35613 3.44844 0
M  V30 3586 C 355.075 -3.34102 4.00031 0
M  V30 3587 C 352.403 -3.36982 4.8027 0
M  V30 3588 C 354.755 -3.3701 5.35357 0
M  V30 3589 C 353.419 -3.37923 5.75642 0
M  V30 3590 H 352.689 -0.652422 0.351322 0
M  V30 3591 H 355.336 -1.23782 1.46117 0
M  V30 3592 H 353.641 -3.7972 0.965391 0
M  V30 3593 H 355.338 -3.77376 1.35603 0
M  V30 3594 H 351.928 -3.31655 2.71483 0
M  V30 3595 H 356.112 -3.31276 3.69554 0
M  V30 3596 H 351.368 -3.35999 5.10798 0
M  V30 3597 H 355.542 -3.36822 6.09528 0
M  V30 3598 H 353.169 -3.38738 6.80559 0
M  V30 3599 N 354.744 -0.972509 -1.24016 0
M  V30 3600 C 355.993 -0.632603 -1.91523 0
M  V30 3601 C 356.306 0.836641 -1.76804 0
M  V30 3602 O 357.512 1.28728 -2.39043 0
M  V30 3603 C 355.968 -1.08082 -3.43287 0
M  V30 3604 C 355.576 -2.57386 -3.66683 0
M  V30 3605 C 357.32 -0.814288 -4.16617 0
M  V30 3606 C 355.227 -2.95915 -5.12043 0
M  V30 3607 H 354.157 -0.232898 -0.717129 0
M  V30 3608 H 356.808 -1.17936 -1.40582 0
M  V30 3609 H 355.19 -0.462339 -3.93292 0
M  V30 3610 H 356.364 -3.24405 -3.27258 0
M  V30 3611 H 354.679 -2.81701 -3.06649 0
M  V30 3612 H 357.276 -1.0781 -5.23718 0
M  V30 3613 H 357.619 0.24955 -4.15551 0
M  V30 3614 H 358.152 -1.39397 -3.72577 0
M  V30 3615 H 354.891 -4.0139 -5.18234 0
M  V30 3616 H 354.411 -2.33584 -5.52448 0
M  V30 3617 H 356.09 -2.86086 -5.80314 0
M  V30 3618 N 356.222 1.38976 -0.743202 0
M  V30 3619 C 357.47 1.99948 -0.29417 0
M  V30 3620 C 357.791 1.59279 1.12495 0
M  V30 3621 O 357.061 0.844808 1.76748 0
M  V30 3622 H 355.641 0.739473 -0.105774 0
M  V30 3623 H 358.303 1.699 -0.954986 0
M  V30 3624 H 357.399 3.10142 -0.349056 0
M  V30 3625 N 357.7 0.491464 1.49741 0
M  V30 3626 C 359.116 0.146835 1.58923 0
M  V30 3627 C 359.316 -1.34804 1.49767 0
M  V30 3628 O 358.372 -2.12317 1.36667 0
M  V30 3629 C 359.685 0.715157 2.92072 0
M  V30 3630 C 361.233 0.680407 3.05515 0
M  V30 3631 C 361.708 1.22663 4.41269 0
M  V30 3632 N 363.199 1.18691 4.47735 0
M  V30 3633 C 363.934 1.57984 5.51207 0
M  V30 3634 N 363.43 2.04824 6.6183 0
M  V30 3635 N 365.223 1.49459 5.41866 0
M  V30 3636 H 357.374 1.46347 1.53936 0
M  V30 3637 H 359.637 0.606453 0.728642 0
M  V30 3638 H 359.343 1.76317 3.04311 0
M  V30 3639 H 359.217 0.17018 3.76816 0
M  V30 3640 H 361.604 -0.358743 2.92911 0
M  V30 3641 H 361.685 1.26242 2.22478 0
M  V30 3642 H 361.329 2.26451 4.54623 0
M  V30 3643 H 361.259 0.620637 5.2293 0
M  V30 3644 H 363.75 0.843605 3.68364 0
M  V30 3645 H 364.063 2.32901 7.3687 0
M  V30 3646 H 362.408 2.08791 6.62896 0
M  V30 3647 H 365.599 1.12692 4.54333 0
M  V30 3648 H 365.772 1.80406 6.22381 0
M  V30 3649 N 359.178 -1.55987 0.224894 0
M  V30 3650 C 360.088 -2.24066 -0.69511 0
M  V30 3651 C 361.104 -1.24939 -1.21104 0
M  V30 3652 O 362.28 -1.5776 -1.25195 0
M  V30 3653 C 359.345 -2.90983 -1.88493 0
M  V30 3654 C 358.406 -4.05462 -1.41064 0
M  V30 3655 C 357.639 -4.69179 -2.54375 0
M  V30 3656 O 357.862 -4.31895 -3.72589 0
M  V30 3657 O 356.796 -5.58108 -2.25386 0
M  V30 3658 H 360.622 -3.03353 -0.145149 0
M  V30 3659 H 358.207 -1.49399 -0.00569476 0
M  V30 3660 H 360.089 -3.33209 -2.57972 0
M  V30 3661 H 358.764 -2.14653 -2.42293 0
M  V30 3662 H 357.671 -3.67798 -0.683774 0
M  V30 3663 H 359.004 -4.83545 -0.918985 0
M  V30 3664 N 360.656 0.0484629 -1.57525 0
M  V30 3665 C 361.603 1.05504 -2.05275 0
M  V30 3666 C 362.573 1.37084 -0.937927 0
M  V30 3667 O 363.758 1.47754 -1.2072 0
M  V30 3668 C 360.898 2.35676 -2.52093 0
M  V30 3669 C 360.011 2.10423 -3.77288 0
M  V30 3670 C 359.146 3.34327 -4.12794 0
M  V30 3671 C 358.185 3.04542 -5.30962 0
M  V30 3672 N 357.322 4.20841 -5.61994 0
M  V30 3673 H 362.162 0.640885 -2.91027 0
M  V30 3674 H 359.699 0.304854 -1.43906 0
M  V30 3675 H 361.657 3.11709 -2.77297 0
M  V30 3676 H 360.287 2.7485 -1.69285 0
M  V30 3677 H 359.339 1.24976 -3.59284 0
M  V30 3678 H 360.651 1.84438 -4.63448 0
M  V30 3679 H 359.805 4.1874 -4.39024 0
M  V30 3680 H 358.544 3.63408 -3.25247 0
M  V30 3681 H 357.549 2.18528 -5.04505 0
M  V30 3682 H 358.774 2.76758 -6.20146 0
M  V30 3683 H 356.72 4.4991 -4.77406 0
M  V30 3684 H 356.637 3.98212 -6.42622 0
M  V30 3685 H 357.905 5.06184 -5.92789 0
M  V30 3686 N 362.134 1.5431 0.320358 0
M  V30 3687 C 363.55 1.45091 0.664889 0
M  V30 3688 C 363.75 0.626382 1.91517 0
M  V30 3689 O 362.806 0.126443 2.52183 0
M  V30 3690 C 364.119 2.88848 0.83591 0
M  V30 3691 C 365.667 2.9877 0.933046 0
M  V30 3692 C 366.142 4.43683 1.13621 0
M  V30 3693 N 367.633 4.47309 1.20287 0
M  V30 3694 C 368.368 5.56595 1.37801 0
M  V30 3695 N 367.864 6.75844 1.52338 0
M  V30 3696 N 369.657 5.44248 1.40535 0
M  V30 3697 H 361.808 2.06398 -0.501374 0
M  V30 3698 H 364.071 0.933963 -0.162534 0
M  V30 3699 H 363.777 3.51698 -0.0116092 0
M  V30 3700 H 363.651 3.35148 1.73078 0
M  V30 3701 H 366.038 2.36045 1.77107 0
M  V30 3702 H 366.119 2.55796 0.0145782 0
M  V30 3703 H 365.763 5.06995 0.303032 0
M  V30 3704 H 365.693 4.84269 2.0686 0
M  V30 3705 H 368.184 3.61388 1.10485 0
M  V30 3706 H 368.497 7.54892 1.65403 0
M  V30 3707 H 366.842 6.78746 1.4943 0
M  V30 3708 H 370.033 4.50038 1.28777 0
M  V30 3709 H 370.206 6.29473 1.53842 0
M  V30 3710 N 363.613 -0.582584 1.46437 0
M  V30 3711 C 364.838 -1.37168 1.55563 0
M  V30 3712 C 365.263 -1.87061 0.19743 0
M  V30 3713 O 364.621 -1.61572 -0.822451 0
M  V30 3714 C 364.669 -2.53511 2.56446 0
M  V30 3715 O 363.773 -3.54953 2.09958 0
M  V30 3716 H 363.114 -0.408494 0.523477 0
M  V30 3717 H 365.644 -0.706646 1.9201 0
M  V30 3718 H 365.654 -3.00426 2.76058 0
M  V30 3719 H 364.329 -2.16549 3.55076 0
M  V30 3720 H 362.906 -3.14516 2.00334 0
M  V30 3721 N 365.091 -1.34144 -0.827227 0
M  V30 3722 C 366.039 -1.25364 -1.95925 0
M  V30 3723 C 367.033 -0.152608 -1.68711 0
M  V30 3724 O 368.239 -0.317311 -1.77181 0
M  V30 3725 H 364.614 -0.389342 -0.643364 0
M  V30 3726 H 366.585 -2.21045 -2.00454 0
M  V30 3727 C 365.334 -1.02158 -3.32354 0
M  V30 3728 H 364.657 -1.86111 -3.5384 0
M  V30 3729 H 366.097 -1.00048 -4.12027 0
M  V30 3730 C 364.556 0.275244 -3.35774 0
M  V30 3731 O 365.086 1.27806 -3.80826 0
M  V30 3732 N 363.292 0.306853 -2.88975 0
M  V30 3733 H 362.839 -0.509777 -2.52506 0
M  V30 3734 H 362.797 1.17432 -2.91646 0
M  V30 3735 N 366.569 1.04691 -1.17803 0
M  V30 3736 C 367.794 1.81984 -0.994813 0
M  V30 3737 C 368.219 1.82586 0.452112 0
M  V30 3738 O 367.577 1.23854 1.324 0
M  V30 3739 C 367.625 3.2575 -1.54659 0
M  V30 3740 O 366.729 4.05267 -0.763728 0
M  V30 3741 H 366.07 0.562483 -0.352857 0
M  V30 3742 H 368.6 1.3189 -1.56417 0
M  V30 3743 H 368.61 3.76541 -1.57102 0
M  V30 3744 H 367.285 3.24627 -2.59981 0
M  V30 3745 H 365.862 3.63972 -0.811108 0
M  V30 3746 N 368.047 0.979072 1.23499 0
M  V30 3747 C 368.979 0.476271 2.24197 0
M  V30 3748 C 369.992 -0.421166 1.57258 0
M  V30 3749 O 371.181 -0.225515 1.7707 0
M  V30 3750 C 368.281 -0.330503 3.37285 0
M  V30 3751 C 367.454 0.559744 4.33804 0
M  V30 3752 C 366.513 -0.192954 5.25846 0
M  V30 3753 O 365.539 0.416978 5.67671 0
M  V30 3754 N 366.741 -1.47932 5.61334 0
M  V30 3755 H 369.506 1.34211 2.67969 0
M  V30 3756 H 367.067 0.852189 1.37657 0
M  V30 3757 H 369.059 -0.842361 3.95836 0
M  V30 3758 H 367.629 -1.09734 2.92707 0
M  V30 3759 H 366.849 1.25245 3.73775 0
M  V30 3760 H 368.137 1.1665 4.95248 0
M  V30 3761 H 367.535 -1.9964 5.29302 0
M  V30 3762 H 366.092 -1.93664 6.22364 0
M  V30 3763 N 369.525 -1.3858 0.750561 0
M  V30 3764 C 370.75 -2.04997 0.314812 0
M  V30 3765 C 371.175 -1.56235 -1.04749 0
M  V30 3766 O 370.533 -0.712981 -1.66692 0
M  V30 3767 C 370.581 -3.58961 0.343415 0
M  V30 3768 O 369.685 -4.07025 -0.663628 0
M  V30 3769 H 369.026 -0.649081 0.139962 0
M  V30 3770 H 371.556 -1.77313 1.02084 0
M  V30 3771 H 371.566 -4.07542 0.193233 0
M  V30 3772 H 370.241 -3.93811 1.33738 0
M  V30 3773 H 368.818 -3.6982 -0.478307 0
M  V30 3774 N 371.003 -0.499398 -1.49478 0
M  V30 3775 C 372.233 0.0424839 -2.06556 0
M  V30 3776 C 372.641 1.31514 -1.36018 0
M  V30 3777 O 371.984 1.78555 -0.431718 0
M  V30 3778 C 372.046 0.368074 -3.57611 0
M  V30 3779 C 371.71 -0.806631 -4.49825 0
M  V30 3780 C 372.707 -1.69667 -4.91436 0
M  V30 3781 C 370.392 -1.00498 -4.92144 0
M  V30 3782 C 372.386 -2.76923 -5.74101 0
M  V30 3783 C 370.073 -2.08072 -5.74586 0
M  V30 3784 C 371.071 -2.96119 -6.15469 0
M  V30 3785 O 370.759 -4.01836 -6.96264 0
M  V30 3786 H 370.491 -0.0165165 -0.675798 0
M  V30 3787 H 373.045 -0.695497 -1.93267 0
M  V30 3788 H 371.275 1.15963 -3.68903 0
M  V30 3789 H 372.964 0.848381 -3.96935 0
M  V30 3790 H 373.73 -1.55524 -4.59388 0
M  V30 3791 H 369.609 -0.329036 -4.59824 0
M  V30 3792 H 373.153 -3.45676 -6.05932 0
M  V30 3793 H 369.05 -2.22211 -6.06047 0
M  V30 3794 H 369.818 -3.9917 -7.14567 0
M  V30 3795 N 372.481 1.55866 -0.233164 0
M  V30 3796 C 373.73 1.97779 0.39579 0
M  V30 3797 C 374.043 1.12419 1.60066 0
M  V30 3798 O 375.249 1.44283 2.29988 0
M  V30 3799 C 373.705 3.5188 0.755556 0
M  V30 3800 C 373.313 4.45959 -0.427152 0
M  V30 3801 C 375.057 4.02479 1.34946 0
M  V30 3802 C 372.964 5.91383 -0.0443043 0
M  V30 3803 H 371.894 0.738592 0.15165 0
M  V30 3804 H 374.545 1.80486 -0.331212 0
M  V30 3805 H 372.927 3.64816 1.5403 0
M  V30 3806 H 374.101 4.44776 -1.20462 0
M  V30 3807 H 372.416 4.05765 -0.935068 0
M  V30 3808 H 375.013 5.08637 1.649 0
M  V30 3809 H 375.356 3.49014 2.26925 0
M  V30 3810 H 375.889 3.92813 0.62791 0
M  V30 3811 H 372.628 6.48857 -0.930874 0
M  V30 3812 H 372.148 5.95734 0.697238 0
M  V30 3813 H 373.827 6.45893 0.378334 0
M  V30 3814 N 373.959 -0.0401083 1.57549 0
M  V30 3815 C 375.207 -0.731677 1.8839 0
M  V30 3816 C 375.528 -1.76481 0.829425 0
M  V30 3817 O 374.798 -1.95411 -0.1383 0
M  V30 3818 H 373.378 -0.273225 0.695239 0
M  V30 3819 H 376.04 -0.00867725 1.94898 0
M  V30 3820 H 375.136 -1.22816 2.86919 0
M  V30 3821 N 375.437 -1.54477 -0.31217 0
M  V30 3822 C 376.853 -1.45442 -0.657185 0
M  V30 3823 C 377.053 -0.63653 -1.91182 0
M  V30 3824 O 376.109 -0.139815 -2.52113 0
M  V30 3825 C 377.422 -2.89287 -0.82058 0
M  V30 3826 C 378.97 -2.9926 -0.917188 0
M  V30 3827 C 379.445 -4.44279 -1.11267 0
M  V30 3828 N 380.936 -4.4794 -1.17914 0
M  V30 3829 C 381.671 -5.57318 -1.34848 0
M  V30 3830 N 381.167 -6.76642 -1.48752 0
M  V30 3831 N 382.96 -5.44986 -1.37647 0
M  V30 3832 H 375.111 -2.06129 0.512313 0
M  V30 3833 H 377.374 -0.933088 0.167485 0
M  V30 3834 H 377.08 -3.51687 0.0302604 0
M  V30 3835 H 376.954 -3.36061 -1.71298 0
M  V30 3836 H 379.341 -2.36981 -1.75852 0
M  V30 3837 H 379.422 -2.558 -0.00101257 0
M  V30 3838 H 379.066 -5.07149 -0.27614 0
M  V30 3839 H 378.996 -4.85359 -2.04289 0
M  V30 3840 H 381.487 -3.61969 -1.08567 0
M  V30 3841 H 381.8 -7.55758 -1.61397 0
M  V30 3842 H 380.145 -6.79529 -1.45828 0
M  V30 3843 H 383.336 -4.50715 -1.26388 0
M  V30 3844 H 383.509 -6.3028 -1.50501 0
M  V30 3845 N 376.915 0.57481 -1.46744 0
M  V30 3846 C 378.326 1.15695 -1.46532 0
M  V30 3847 C 378.677 1.95068 -0.210425 0
M  V30 3848 O 377.802 2.05241 0.685944 0
M  V30 3849 C 378.397 2.1048 -2.65487 0
M  V30 3850 C 376.956 2.64002 -2.68291 0
M  V30 3851 C 376.103 1.40026 -2.39349 0
M  V30 3852 H 379.054 0.362325 -1.54509 0
M  V30 3853 H 379.075 2.94074 -2.41455 0
M  V30 3854 H 378.587 1.52683 -3.56805 0
M  V30 3855 H 376.688 3.25646 -1.81067 0
M  V30 3856 H 376.801 3.06197 -3.68483 0
M  V30 3857 H 375.165 1.70106 -1.89568 0
M  V30 3858 H 375.948 0.840485 -3.32852 0
M  V30 3859 N 378.394 1.34581 0.820102 0
M  V30 3860 C 379.643 1.26437 1.57151 0
M  V30 3861 C 379.956 -0.163111 1.94919 0
M  V30 3862 O 381.162 -0.366722 2.69012 0
M  V30 3863 C 379.618 2.21658 2.83541 0
M  V30 3864 C 379.226 3.69679 2.53065 0
M  V30 3865 C 380.97 2.22428 3.61561 0
M  V30 3866 C 378.877 4.56761 3.75664 0
M  V30 3867 H 377.807 0.469707 0.589823 0
M  V30 3868 H 380.458 1.59763 0.902656 0
M  V30 3869 H 378.84 1.81287 3.52067 0
M  V30 3870 H 380.014 4.18605 1.92631 0
M  V30 3871 H 378.329 3.71384 1.88316 0
M  V30 3872 H 380.926 2.8471 4.52597 0
M  V30 3873 H 381.269 1.22434 3.97889 0
M  V30 3874 H 381.802 2.61259 2.99981 0
M  V30 3875 H 378.541 5.57702 3.44454 0
M  V30 3876 H 378.061 4.12568 4.35371 0
M  V30 3877 H 379.74 4.71509 4.43044 0
M  V30 3878 N 379.872 -1.04064 1.18357 0
M  V30 3879 C 380.822 -2.10393 0.878561 0
M  V30 3880 C 381.806 -1.60183 -0.151713 0
M  V30 3881 O 382.998 -1.76923 0.0523303 0
M  V30 3882 C 380.127 -3.4089 0.406096 0
M  V30 3883 C 379.213 -3.97866 1.46844 0
M  V30 3884 N 379.604 -4.28657 2.68489 0
M  V30 3885 C 377.902 -4.2574 1.32896 0
M  V30 3886 C 378.603 -4.74253 3.36836 0
M  V30 3887 N 377.579 -4.75068 2.64219 0
M  V30 3888 H 381.381 -2.32076 1.80327 0
M  V30 3889 H 378.895 -1.21818 1.07397 0
M  V30 3890 H 380.892 -4.16557 0.169088 0
M  V30 3891 H 379.552 -3.20633 -0.512275 0
M  V30 3892 H 380.563 -4.18304 3.05356 0
M  V30 3893 H 377.24 -4.1481 0.473134 0
M  V30 3894 H 378.63 -5.07096 4.40798 0
M  V30 3895 N 381.35 -0.985608 -1.22978 0
M  V30 3896 C 382.28 -0.549649 -2.26939 0
M  V30 3897 C 383.261 0.419803 -1.64838 0
M  V30 3898 O 384.446 0.31203 -1.91677 0
M  V30 3899 C 381.576 0.143652 -3.47003 0
M  V30 3900 C 380.53 -0.743606 -4.21491 0
M  V30 3901 C 379.856 0.0822027 -5.34637 0
M  V30 3902 C 381.156 -2.03694 -4.80943 0
M  V30 3903 H 382.85 -1.41862 -2.63658 0
M  V30 3904 H 380.396 -0.683571 -1.26741 0
M  V30 3905 H 382.349 0.459985 -4.18882 0
M  V30 3906 H 381.073 1.04711 -3.09359 0
M  V30 3907 H 379.732 -1.04347 -3.51436 0
M  V30 3908 H 379.38 0.986359 -4.93234 0
M  V30 3909 H 379.08 -0.508377 -5.85397 0
M  V30 3910 H 380.604 0.392797 -6.09335 0
M  V30 3911 H 382.018 -1.78504 -5.44802 0
M  V30 3912 H 380.415 -2.57573 -5.42011 0
M  V30 3913 H 381.485 -2.72042 -4.01399 0
M  V30 3914 N 382.828 1.3818 -0.7579 0
M  V30 3915 C 384.105 1.94106 -0.241306 0
M  V30 3916 C 384.485 1.69282 1.26122 0
M  V30 3917 O 383.833 1.03378 2.03777 0
M  V30 3918 C 384.043 3.43809 -0.59967 0
M  V30 3919 C 385.391 4.20868 -0.561717 0
M  V30 3920 O 386.415 3.5211 -0.538222 0
M  V30 3921 O 385.274 5.43451 -0.576478 0
M  V30 3922 H 382.368 0.825376 -0.0518042 0
M  V30 3923 H 384.914 1.47548 -0.838315 0
M  V30 3924 H 383.686 3.55403 -1.6372 0
M  V30 3925 H 383.309 3.97592 0.0251197 0
M  V30 3926 N 384.306 0.507319 1.49211 0
M  V30 3927 C 385.253 -0.267728 2.29242 0
M  V30 3928 C 386.223 -0.954609 1.35928 0
M  V30 3929 O 387.408 -0.960046 1.64887 0
M  V30 3930 C 384.548 -1.32243 3.18756 0
M  V30 3931 C 383.661 -0.64669 4.27132 0
M  V30 3932 C 382.796 -1.68238 5.03855 0
M  V30 3933 C 381.835 -0.98885 6.0406 0
M  V30 3934 N 380.972 -1.96903 6.73924 0
M  V30 3935 H 385.812 0.420968 2.95012 0
M  V30 3936 H 383.349 0.219443 1.45454 0
M  V30 3937 H 385.307 -1.94599 3.69036 0
M  V30 3938 H 383.937 -1.97981 2.54958 0
M  V30 3939 H 382.989 0.0902926 3.80293 0
M  V30 3940 H 384.301 -0.101058 4.98698 0
M  V30 3941 H 383.455 -2.38081 5.58034 0
M  V30 3942 H 382.194 -2.26187 4.32077 0
M  V30 3943 H 381.199 -0.276222 5.49106 0
M  V30 3944 H 382.424 -0.415767 6.77826 0
M  V30 3945 H 380.37 -2.53803 6.04913 0
M  V30 3946 H 380.287 -1.47423 7.41487 0
M  V30 3947 H 381.555 -2.66015 7.32705 0
M  V30 3948 N 385.784 -1.5574 0.241426 0
M  V30 3949 C 387.033 -1.97986 -0.385295 0
M  V30 3950 C 387.346 -1.13267 -1.59468 0
M  V30 3951 O 388.552 -1.45501 -2.2922 0
M  V30 3952 C 387.008 -3.52275 -0.736884 0
M  V30 3953 C 386.616 -4.45726 0.450796 0
M  V30 3954 C 388.36 -4.03189 -1.3281 0
M  V30 3955 C 386.267 -5.91352 0.0756662 0
M  V30 3956 H 385.197 -0.739386 -0.147731 0
M  V30 3957 H 387.848 -1.80308 0.340779 0
M  V30 3958 H 386.23 -3.65628 -1.52094 0
M  V30 3959 H 387.404 -4.44131 1.22819 0
M  V30 3960 H 385.719 -4.05264 0.956573 0
M  V30 3961 H 388.316 -5.09505 -1.62201 0
M  V30 3962 H 388.659 -3.50212 -2.25071 0
M  V30 3963 H 389.192 -3.93141 -0.607069 0
M  V30 3964 H 385.931 -6.48354 0.965272 0
M  V30 3965 H 385.451 -5.96095 -0.665635 0
M  V30 3966 H 387.13 -6.46084 -0.344075 0
M  V30 3967 N 387.262 0.0317525 -1.57568 0
M  V30 3968 C 388.192 1.03274 -2.0942 0
M  V30 3969 C 389.173 1.3788 -0.996143 0
M  V30 3970 O 390.358 1.46811 -1.27122 0
M  V30 3971 C 387.488 2.33448 -2.57137 0
M  V30 3972 C 386.442 2.13091 -3.71182 0
M  V30 3973 C 385.768 3.49001 -4.05095 0
M  V30 3974 C 387.068 1.51928 -4.99715 0
M  V30 3975 H 388.762 0.60112 -2.93303 0
M  V30 3976 H 386.308 0.287705 -1.41097 0
M  V30 3977 H 388.261 3.03802 -2.92032 0
M  V30 3978 H 386.985 2.78665 -1.70333 0
M  V30 3979 H 385.644 1.45171 -3.36632 0
M  V30 3980 H 385.292 3.91862 -3.15362 0
M  V30 3981 H 384.992 3.36207 -4.81911 0
M  V30 3982 H 386.516 4.20721 -4.42522 0
M  V30 3983 H 387.93 2.12196 -5.32584 0
M  V30 3984 H 386.327 1.49716 -5.81124 0
M  V30 3985 H 387.397 0.484811 -4.8247 0
M  V30 3986 N 388.74 1.54641 0.303973 0
M  V30 3987 C 389.673 1.80263 1.3993 0
M  V30 3988 C 390.651 0.653657 1.48883 0
M  V30 3989 O 391.835 0.893284 1.6599 0
M  V30 3990 C 388.962 1.9367 2.77866 0
M  V30 3991 C 388.008 3.16078 2.86351 0
M  V30 3992 S 388.841 4.74219 2.4875 0
M  V30 3993 C 389.997 4.90558 3.88721 0
M  V30 3994 H 390.23 2.72886 1.17986 0
M  V30 3995 H 387.763 1.46014 0.501918 0
M  V30 3996 H 389.721 2.0208 3.57315 0
M  V30 3997 H 388.382 1.01991 2.9708 0
M  V30 3998 H 387.575 3.22252 3.87517 0
M  V30 3999 H 387.177 3.06099 2.14893 0
M  V30 4000 H 389.469 4.74398 4.83687 0
M  V30 4001 H 390.412 5.92651 3.87518 0
M  V30 4002 H 390.82 4.18728 3.78585 0
M  V30 4003 N 390.218 -0.567019 1.47046 0
M  V30 4004 C 391.443 -1.3551 1.57009 0
M  V30 4005 C 391.868 -1.86841 0.217259 0
M  V30 4006 O 391.226 -1.62435 -0.805268 0
M  V30 4007 C 391.274 -2.50777 2.5912 0
M  V30 4008 O 390.378 -3.52706 2.13711 0
M  V30 4009 H 389.719 -0.402919 0.52778 0
M  V30 4010 H 392.249 -0.686241 1.92748 0
M  V30 4011 H 392.259 -2.97481 2.79229 0
M  V30 4012 H 390.934 -2.12771 3.57353 0
M  V30 4013 H 389.511 -3.12374 2.03659 0
M  V30 4014 N 391.696 -1.35014 -0.812953 0
M  V30 4015 C 392.643 -1.27412 -1.92444 0
M  V30 4016 C 393.613 -0.14733 -1.65445 0
M  V30 4017 O 394.798 -0.329974 -1.87925 0
M  V30 4018 C 391.938 -1.04558 -3.28879 0
M  V30 4019 C 391.051 -2.26101 -3.68106 0
M  V30 4020 C 390.186 -1.96449 -4.9354 0
M  V30 4021 C 389.225 -3.14081 -5.25376 0
M  V30 4022 N 388.362 -2.84246 -6.41988 0
M  V30 4023 H 393.202 -2.22463 -1.98278 0
M  V30 4024 H 390.739 -1.10593 -0.969933 0
M  V30 4025 H 392.697 -0.893413 -4.07522 0
M  V30 4026 H 391.327 -0.131719 -3.22531 0
M  V30 4027 H 390.379 -2.52204 -2.84775 0
M  V30 4028 H 391.691 -3.13959 -3.87597 0
M  V30 4029 H 390.845 -1.78026 -5.79993 0
M  V30 4030 H 389.584 -1.05867 -4.76071 0
M  V30 4031 H 388.589 -3.33089 -4.37415 0
M  V30 4032 H 389.814 -4.05455 -5.44778 0
M  V30 4033 H 387.76 -1.96252 -6.25956 0
M  V30 4034 H 387.677 -3.65637 -6.61699 0
M  V30 4035 H 388.945 -2.6935 -7.31485 0
M  V30 4036 N 393.175 1.03435 -1.18907 0
M  V30 4037 C 394.421 1.77005 -0.989798 0
M  V30 4038 C 394.754 1.88205 0.478816 0
M  V30 4039 O 394.029 1.39481 1.35556 0
M  V30 4040 C 394.312 3.19925 -1.65287 0
M  V30 4041 C 394.165 3.1663 -3.19477 0
M  V30 4042 C 395.484 4.18189 -1.37134 0
M  V30 4043 H 392.603 0.642538 -0.360991 0
M  V30 4044 H 395.245 1.20784 -1.46667 0
M  V30 4045 H 393.395 3.67929 -1.24741 0
M  V30 4046 H 395.067 2.76567 -3.692 0
M  V30 4047 H 393.31 2.54491 -3.51307 0
M  V30 4048 H 393.981 4.1758 -3.61013 0
M  V30 4049 H 396.457 3.78761 -1.72276 0
M  V30 4050 H 395.333 5.16394 -1.86087 0
M  V30 4051 H 395.594 4.41112 -0.295424 0
M  V30 4052 N 394.653 0.992116 1.22453 0
M  V30 4053 C 395.6 0.541731 2.24352 0
M  V30 4054 C 396.57 -0.425519 1.60557 0
M  V30 4055 O 397.755 -0.330453 1.87917 0
M  V30 4056 C 394.895 -0.138248 3.44823 0
M  V30 4057 C 394.008 0.870649 4.23136 0
M  V30 4058 C 393.143 0.164269 5.30946 0
M  V30 4059 C 392.182 1.16159 6.00977 0
M  V30 4060 N 391.319 0.483568 7.00433 0
M  V30 4061 H 396.159 1.41541 2.62241 0
M  V30 4062 H 393.696 0.709013 1.28885 0
M  V30 4063 H 395.654 -0.5494 4.13567 0
M  V30 4064 H 394.284 -0.975721 3.077 0
M  V30 4065 H 393.336 1.40013 3.53696 0
M  V30 4066 H 394.648 1.63014 4.7141 0
M  V30 4067 H 393.802 -0.303653 6.0594 0
M  V30 4068 H 392.541 -0.627733 4.83643 0
M  V30 4069 H 391.546 1.64015 5.24766 0
M  V30 4070 H 392.771 1.95445 6.50368 0
M  V30 4071 H 390.717 -0.289012 6.55363 0
M  V30 4072 H 390.634 1.18152 7.4671 0
M  V30 4073 H 391.902 0.0384219 7.79491 0
M  V30 4074 N 396.131 -1.37776 0.765217 0
M  V30 4075 C 397.377 -2.00145 0.327072 0
M  V30 4076 C 397.71 -1.60607 -1.09175 0
M  V30 4077 O 396.985 -0.849127 -1.74986 0
M  V30 4078 C 397.268 -3.57109 0.46319 0
M  V30 4079 C 397.121 -4.06576 1.92395 0
M  V30 4080 C 398.44 -4.39888 -0.136473 0
M  V30 4081 H 395.559 -0.727113 0.120316 0
M  V30 4082 H 398.201 -1.63549 0.967039 0
M  V30 4083 H 396.351 -3.88414 -0.0816358 0
M  V30 4084 H 398.023 -3.85864 2.52798 0
M  V30 4085 H 396.266 -3.59011 2.43503 0
M  V30 4086 H 396.937 -5.15639 1.97028 0
M  V30 4087 H 399.413 -4.14803 0.328317 0
M  V30 4088 H 398.289 -5.48899 -0.0110582 0
M  V30 4089 H 398.55 -4.24758 -1.22608 0
M  V30 4090 N 397.609 -0.515225 -1.4894 0
M  V30 4091 C 399.02 -0.0710067 -1.86565 0
M  V30 4092 C 399.371 1.34733 -1.42623 0
M  V30 4093 O 398.496 2.00653 -0.810379 0
M  V30 4094 C 399.091 -0.122083 -3.3858 0
M  V30 4095 C 397.65 0.266863 -3.75453 0
M  V30 4096 C 396.797 -0.488376 -2.72966 0
M  V30 4097 H 399.748 -0.727266 -1.41055 0
M  V30 4098 H 399.769 0.669818 -3.74558 0
M  V30 4099 H 399.281 -1.15448 -3.70531 0
M  V30 4100 H 397.382 1.30196 -3.49113 0
M  V30 4101 H 397.495 -0.0624811 -4.79059 0
M  V30 4102 H 395.859 0.0635622 -2.54621 0
M  V30 4103 H 396.642 -1.52113 -3.07761 0
M  V30 4104 N 399.087 1.5561 -0.249682 0
M  V30 4105 C 400.037 2.18157 0.662673 0
M  V30 4106 C 401.021 1.1383 1.13717 0
M  V30 4107 O 402.213 1.39731 1.08648 0
M  V30 4108 C 399.342 2.88672 1.85805 0
M  V30 4109 C 398.428 4.00258 1.40193 0
M  V30 4110 N 398.819 5.01473 0.660213 0
M  V30 4111 C 397.117 4.12864 1.68698 0
M  V30 4112 C 397.818 5.80155 0.423695 0
M  V30 4113 N 396.794 5.34533 0.988721 0
M  V30 4114 H 400.596 2.93769 0.0878688 0
M  V30 4115 H 398.11 1.62316 -0.0521183 0
M  V30 4116 H 400.107 3.31912 2.5227 0
M  V30 4117 H 398.767 2.14564 2.43705 0
M  V30 4118 H 399.778 5.16971 0.310047 0
M  V30 4119 H 396.455 3.4993 2.27717 0
M  V30 4120 H 397.845 6.71688 -0.168616 0
M  V30 4121 N 400.565 -0.0233959 1.57583 0
M  V30 4122 C 401.793 -0.724682 1.93794 0
M  V30 4123 C 402.208 -1.68588 0.849912 0
M  V30 4124 O 401.565 -1.81676 -0.173204 0
M  V30 4125 C 401.616 -1.47684 3.29957 0
M  V30 4126 O 401.337 -0.554222 4.3458 0
M  V30 4127 C 402.838 -2.27477 3.80485 0
M  V30 4128 H 400.058 -0.203317 0.639455 0
M  V30 4129 H 402.602 0.0207653 2.04489 0
M  V30 4130 H 400.757 -2.17412 3.20641 0
M  V30 4131 H 401.171 -1.08232 5.13212 0
M  V30 4132 H 402.645 -2.7564 4.78254 0
M  V30 4133 H 403.122 -3.09144 3.11972 0
M  V30 4134 H 403.728 -1.62813 3.92902 0
M  V30 4135 N 402.043 -1.548 -0.295768 0
M  V30 4136 C 403.29 -1.74329 -1.03032 0
M  V30 4137 C 403.618 -0.531915 -1.87085 0
M  V30 4138 O 402.873 0.486052 -1.89568 0
M  V30 4139 C 403.172 -2.98797 -1.961 0
M  V30 4140 C 402.838 -4.32356 -1.2798 0
M  V30 4141 C 401.5 -4.68661 -1.09135 0
M  V30 4142 C 403.852 -5.15128 -0.793243 0
M  V30 4143 C 401.18 -5.85312 -0.403269 0
M  V30 4144 C 403.532 -6.32488 -0.118854 0
M  V30 4145 C 402.196 -6.6745 0.0815043 0
M  V30 4146 H 401.466 -0.637916 -0.37702 0
M  V30 4147 H 404.113 -1.8906 -0.304696 0
M  V30 4148 H 402.418 -2.78869 -2.75207 0
M  V30 4149 H 404.115 -3.11102 -2.53015 0
M  V30 4150 H 400.705 -4.03808 -1.43655 0
M  V30 4151 H 404.889 -4.87575 -0.92653 0
M  V30 4152 H 400.145 -6.1094 -0.237098 0
M  V30 4153 H 404.319 -6.95892 0.266035 0
M  V30 4154 H 401.946 -7.57695 0.616685 0
M  V30 4155 N 403.521 0.559213 -1.47345 0
M  V30 4156 C 404.767 1.31843 -1.54095 0
M  V30 4157 C 405.1 1.93149 -0.201726 0
M  V30 4158 O 404.375 1.77759 0.789428 0
M  V30 4159 C 404.658 2.43006 -2.65744 0
M  V30 4160 C 404.511 1.86581 -4.09277 0
M  V30 4161 C 405.83 3.44943 -2.73318 0
M  V30 4162 H 402.949 0.478012 -0.560957 0
M  V30 4163 H 405.591 0.625977 -1.79392 0
M  V30 4164 H 403.741 3.02072 -2.44305 0
M  V30 4165 H 405.413 1.31792 -4.42073 0
M  V30 4166 H 403.656 1.17268 -4.17649 0
M  V30 4167 H 404.327 2.66933 -4.83168 0
M  V30 4168 H 406.803 2.95793 -2.92653 0
M  V30 4169 H 405.679 4.20153 -3.53218 0
M  V30 4170 H 405.94 4.03665 -1.80296 0
M  V30 4171 N 404.999 1.35443 0.805782 0
M  V30 4172 C 406.248 1.28097 1.55801 0
M  V30 4173 C 406.561 -0.142428 1.95081 0
M  V30 4174 O 407.767 -0.33817 2.69386 0
M  V30 4175 C 406.223 2.24653 2.81174 0
M  V30 4176 C 405.831 3.72342 2.49129 0
M  V30 4177 C 407.575 2.2625 3.59181 0
M  V30 4178 C 405.482 4.60719 3.70799 0
M  V30 4179 H 404.412 0.475937 0.584808 0
M  V30 4180 H 407.063 1.60712 0.885661 0
M  V30 4181 H 405.445 1.85011 3.50124 0
M  V30 4182 H 406.619 4.20624 1.88181 0
M  V30 4183 H 404.934 3.73361 1.84366 0
M  V30 4184 H 407.531 2.89495 4.49552 0
M  V30 4185 H 407.874 1.26647 3.96568 0
M  V30 4186 H 408.407 2.64426 2.97193 0
M  V30 4187 H 405.146 5.61324 3.3852 0
M  V30 4188 H 404.666 4.17163 4.3097 0
M  V30 4189 H 406.345 4.76182 4.38018 0
M  V30 4190 N 406.477 -1.02803 1.19454 0
M  V30 4191 C 407.427 -2.0945 0.900827 0
M  V30 4192 C 408.411 -1.60335 -0.134715 0
M  V30 4193 O 409.603 -1.76857 0.0710924 0
M  V30 4194 C 406.732 -3.4044 0.442229 0
M  V30 4195 C 405.818 -3.96286 1.51056 0
M  V30 4196 N 406.209 -4.25785 2.73021 0
M  V30 4197 C 404.507 -4.24307 1.37404 0
M  V30 4198 C 405.208 -4.70654 3.41848 0
M  V30 4199 N 404.184 -4.72238 2.69243 0
M  V30 4200 H 407.986 -2.3015 1.82779 0
M  V30 4201 H 405.5 -1.20672 1.08683 0
M  V30 4202 H 407.497 -4.16354 0.21326 0
M  V30 4203 H 406.157 -3.21159 -0.478238 0
M  V30 4204 H 407.168 -4.15041 3.09776 0
M  V30 4205 H 403.845 -4.14285 0.517103 0
M  V30 4206 H 405.235 -5.02392 4.46152 0
M  V30 4207 N 407.956 -0.998596 -1.21925 0
M  V30 4208 C 409.181 -0.696015 -1.95372 0
M  V30 4209 C 409.606 0.733826 -1.73195 0
M  V30 4210 O 408.964 1.50242 -1.01474 0
M  V30 4211 C 409.012 -1.01466 -3.4603 0
M  V30 4212 O 408.116 -0.116415 -4.12236 0
M  V30 4213 H 407.457 -0.259938 -0.611006 0
M  V30 4214 H 409.987 -1.33711 -1.54863 0
M  V30 4215 H 409.997 -0.958855 -3.96573 0
M  V30 4216 H 408.672 -2.05653 -3.61497 0
M  V30 4217 H 407.249 -0.228193 -3.72201 0
M  V30 4218 N 409.434 1.37368 -0.772513 0
M  V30 4219 C 410.664 2.03647 -0.348082 0
M  V30 4220 C 411.072 1.58392 1.03482 0
M  V30 4221 O 410.415 0.760921 1.672 0
M  V30 4222 C 410.477 3.58131 -0.313404 0
M  V30 4223 C 410.141 4.2652 -1.64102 0
M  V30 4224 C 411.138 4.50587 -2.5936 0
M  V30 4225 C 408.823 4.64335 -1.91567 0
M  V30 4226 C 410.817 5.11526 -3.80289 0
M  V30 4227 C 408.504 5.24996 -3.12766 0
M  V30 4228 C 409.502 5.48529 -4.06946 0
M  V30 4229 O 409.19 6.07921 -5.26011 0
M  V30 4230 H 408.922 0.660538 -0.143753 0
M  V30 4231 H 411.476 1.76669 -1.04772 0
M  V30 4232 H 409.706 3.84159 0.442617 0
M  V30 4233 H 411.395 4.05813 0.0840613 0
M  V30 4234 H 412.161 4.21784 -2.39423 0
M  V30 4235 H 408.04 4.45353 -1.19088 0
M  V30 4236 H 411.584 5.29811 -4.53813 0
M  V30 4237 H 407.481 5.53223 -3.32588 0
M  V30 4238 H 408.249 6.26398 -5.26847 0
M  V30 4239 N 410.912 0.523116 1.48665 0
M  V30 4240 C 412.14 -0.0096312 2.06898 0
M  V30 4241 C 412.555 -1.28784 1.38059 0
M  V30 4242 O 411.912 -1.76453 0.465893 0
M  V30 4243 C 411.963 -0.244386 3.60673 0
M  V30 4244 O 411.684 0.983172 4.26925 0
M  V30 4245 C 413.185 -0.818289 4.35682 0
M  V30 4246 H 410.405 0.0304161 0.67031 0
M  V30 4247 H 412.949 0.726799 1.91149 0
M  V30 4248 H 411.104 -0.930847 3.76051 0
M  V30 4249 H 411.518 0.759653 5.1897 0
M  V30 4250 H 412.992 -0.93201 5.44075 0
M  V30 4251 H 413.469 -1.82153 3.99646 0
M  V30 4252 H 414.075 -0.168609 4.24966 0
M  V30 4253 N 412.39 -1.55475 0.257931 0
M  V30 4254 C 413.806 -1.59307 -0.0966563 0
M  V30 4255 C 414.006 -1.27514 -1.5602 0
M  V30 4256 O 413.062 -1.02774 -2.30637 0
M  V30 4257 C 414.375 -2.99552 0.262481 0
M  V30 4258 C 415.923 -3.1231 0.207683 0
M  V30 4259 C 416.398 -4.54793 0.541012 0
M  V30 4260 N 417.889 -4.6058 0.491921 0
M  V30 4261 C 418.624 -5.68825 0.722857 0
M  V30 4262 N 418.12 -6.85287 1.0175 0
M  V30 4263 N 419.913 -5.58296 0.652815 0
M  V30 4264 H 412.064 -1.74409 1.21224 0
M  V30 4265 H 414.327 -0.812424 0.48854 0
M  V30 4266 H 414.033 -3.27593 1.27967 0
M  V30 4267 H 413.907 -3.75019 -0.40508 0
M  V30 4268 H 416.294 -2.84044 -0.800195 0
M  V30 4269 H 416.375 -2.39095 0.909255 0
M  V30 4270 H 416.019 -4.83783 1.5465 0
M  V30 4271 H 415.949 -5.26285 -0.18216 0
M  V30 4272 H 418.44 -3.7691 0.273366 0
M  V30 4273 H 418.753 -7.63725 1.18084 0
M  V30 4274 H 417.098 -6.86945 1.05509 0
M  V30 4275 H 420.289 -4.66189 0.422592 0
M  V30 4276 H 420.462 -6.42582 0.836182 0
M  V30 4277 N 413.868 0.0150385 -1.57593 0
M  V30 4278 C 415.279 0.559832 -1.78109 0
M  V30 4279 C 415.63 1.74814 -0.890756 0
M  V30 4280 O 414.755 2.16216 -0.0892482 0
M  V30 4281 C 415.35 1.02238 -3.23006 0
M  V30 4282 C 413.909 1.51258 -3.44671 0
M  V30 4283 C 413.056 0.456955 -2.73509 0
M  V30 4284 H 416.007 -0.211169 -1.57289 0
M  V30 4285 H 416.028 1.88912 -3.30292 0
M  V30 4286 H 415.54 0.157302 -3.87781 0
M  V30 4287 H 413.641 2.39905 -2.8509 0
M  V30 4288 H 413.754 1.55042 -4.5332 0
M  V30 4289 H 412.118 0.915196 -2.37689 0
M  V30 4290 H 412.901 -0.398896 -3.40975 0
M  V30 4291 N 415.346 1.54954 0.287554 0
M  V30 4292 C 416.574 1.78881 1.03967 0
M  V30 4293 C 416.989 0.554894 1.80462 0
M  V30 4294 O 416.346 -0.475676 1.76192 0
M  V30 4295 C 416.397 3.00488 2.0097 0
M  V30 4296 O 416.118 4.19113 1.27577 0
M  V30 4297 C 417.619 3.36907 2.88112 0
M  V30 4298 H 414.839 0.596259 0.307761 0
M  V30 4299 H 417.383 2.01937 0.322749 0
M  V30 4300 H 415.538 2.79601 2.68145 0
M  V30 4301 H 415.952 4.87765 1.92835 0
M  V30 4302 H 417.426 4.25205 3.52001 0
M  V30 4303 H 417.903 2.55659 3.57121 0
M  V30 4304 H 418.509 3.60001 2.26449 0
M  V30 4305 N 416.824 -0.551391 1.4764 0
M  V30 4306 C 418.07 -1.31024 1.54792 0
M  V30 4307 C 418.403 -1.9304 0.211967 0
M  V30 4308 O 417.678 -1.78175 -0.77999 0
M  V30 4309 C 417.961 -2.41593 2.67029 0
M  V30 4310 C 417.814 -1.84408 4.10261 0
M  V30 4311 C 419.133 -3.43488 2.75143 0
M  V30 4312 H 416.252 -0.475031 0.563485 0
M  V30 4313 H 418.894 -0.616454 1.79722 0
M  V30 4314 H 417.044 -3.00772 2.45904 0
M  V30 4315 H 418.716 -1.29445 4.42766 0
M  V30 4316 H 416.959 -1.15051 4.18265 0
M  V30 4317 H 417.63 -2.64367 4.84576 0
M  V30 4318 H 420.106 -2.94236 2.94218 0
M  V30 4319 H 418.982 -4.18274 3.55441 0
M  V30 4320 H 419.243 -4.02703 1.82435 0
M  V30 4321 N 418.302 -1.35869 -0.798587 0
M  V30 4322 C 419.542 -1.30961 -1.56935 0
M  V30 4323 C 419.906 0.112404 -1.91671 0
M  V30 4324 O 421.107 0.285937 -2.67275 0
M  V30 4325 C 419.378 -2.19811 -2.81811 0
M  V30 4326 S 420.937 -2.32498 -3.72143 0
M  V30 4327 H 417.755 -0.465297 -0.537606 0
M  V30 4328 H 420.357 -1.71344 -0.941346 0
M  V30 4329 H 419.061 -3.22095 -2.54329 0
M  V30 4330 H 418.592 -1.80415 -3.49591 0
M  V30 4331 H 420.607 -1.5157 -4.72484 0
M  V30 4332 N 419.78 1.02168 -1.19998 0
M  V30 4333 C 420.712 2.10705 -0.901994 0
M  V30 4334 C 421.725 1.6244 0.108216 0
M  V30 4335 O 422.914 1.78082 -0.12214 0
M  V30 4336 C 420.014 3.37291 -0.329834 0
M  V30 4337 C 419.187 4.14714 -1.39035 0
M  V30 4338 C 418.246 5.19606 -0.830432 0
M  V30 4339 O 417.272 5.48809 -1.50989 0
M  V30 4340 N 418.474 5.79366 0.362696 0
M  V30 4341 H 421.239 2.36856 -1.83628 0
M  V30 4342 H 418.8 1.18518 -1.10296 0
M  V30 4343 H 420.792 4.04657 0.0587633 0
M  V30 4344 H 419.362 3.0843 0.508891 0
M  V30 4345 H 418.582 3.42392 -1.9535 0
M  V30 4346 H 419.87 4.63226 -2.10474 0
M  V30 4347 H 419.268 5.57968 0.932081 0
M  V30 4348 H 417.825 6.48106 0.69299 0
M  V30 4349 N 421.258 1.00505 1.21394 0
M  V30 4350 C 422.488 0.705584 1.94178 0
M  V30 4351 C 422.896 -0.735846 1.74304 0
M  V30 4352 O 422.239 -1.50954 1.04683 0
M  V30 4353 C 422.301 0.94689 3.46806 0
M  V30 4354 C 421.965 2.37517 3.90429 0
M  V30 4355 C 422.962 3.35539 3.97127 0
M  V30 4356 C 420.647 2.71284 4.22742 0
M  V30 4357 C 422.641 4.65395 4.3553 0
M  V30 4358 C 420.328 4.01356 4.60822 0
M  V30 4359 C 421.326 4.98223 4.67186 0
M  V30 4360 O 421.014 6.25969 5.04399 0
M  V30 4361 H 420.746 0.259216 0.624326 0
M  V30 4362 H 423.3 1.34592 1.55159 0
M  V30 4363 H 421.53 0.249386 3.85895 0
M  V30 4364 H 423.219 0.640804 4.0081 0
M  V30 4365 H 423.985 3.10786 3.7234 0
M  V30 4366 H 419.864 1.96581 4.16985 0
M  V30 4367 H 423.408 5.41002 4.40412 0
M  V30 4368 H 419.305 4.25893 4.85063 0
M  V30 4369 H 420.073 6.30085 5.22431 0
M  V30 4370 N 422.737 -1.36956 0.779787 0
M  V30 4371 C 423.977 -2.01328 0.353043 0
M  V30 4372 C 424.341 -1.60558 -1.05286 0
M  V30 4373 O 425.542 -2.1745 -1.58016 0
M  V30 4374 C 423.813 -3.53874 0.500822 0
M  V30 4375 S 425.372 -4.38506 0.16053 0
M  V30 4376 H 422.19 -0.69799 0.13539 0
M  V30 4377 H 424.792 -1.67016 1.01617 0
M  V30 4378 H 423.496 -3.81034 1.52451 0
M  V30 4379 H 423.027 -3.92994 -0.178574 0
M  V30 4380 H 425.042 -4.85153 -1.04121 0
M  V30 4381 N 424.215 -0.530993 -1.48385 0
M  V30 4382 C 425.162 0.231223 -2.29639 0
M  V30 4383 C 426.132 0.932864 -1.37429 0
M  V30 4384 O 427.317 0.933692 -1.66394 0
M  V30 4385 C 424.457 1.27155 -3.2082 0
M  V30 4386 C 423.57 0.578655 -4.28107 0
M  V30 4387 C 422.705 1.602 -5.06467 0
M  V30 4388 C 421.744 0.892625 -6.05556 0
M  V30 4389 N 420.881 1.86157 -6.76971 0
M  V30 4390 H 425.721 -0.467848 -2.94305 0
M  V30 4391 H 423.258 -0.242556 -1.45086 0
M  V30 4392 H 425.216 1.88703 -3.72085 0
M  V30 4393 H 423.846 1.939 -2.58075 0
M  V30 4394 H 422.898 -0.150782 -3.80101 0
M  V30 4395 H 424.21 0.0217065 -4.98795 0
M  V30 4396 H 423.364 2.29173 -5.61751 0
M  V30 4397 H 422.103 2.19285 -4.35621 0
M  V30 4398 H 421.108 0.188829 -5.49476 0
M  V30 4399 H 422.333 0.307878 -6.78402 0
M  V30 4400 H 420.279 2.44147 -6.08875 0
M  V30 4401 H 420.196 1.35608 -7.43738 0
M  V30 4402 H 421.464 2.54325 -7.36844 0
M  V30 4403 N 425.693 1.55336 -0.266172 0
M  V30 4404 C 426.64 2.22172 0.625165 0
M  V30 4405 C 427.61 1.19211 1.15663 0
M  V30 4406 O 428.795 1.47723 1.20758 0
M  V30 4407 C 425.935 2.93972 1.8076 0
M  V30 4408 C 425.048 4.11632 1.31084 0
M  V30 4409 C 424.183 4.71099 2.45436 0
M  V30 4410 C 423.222 5.8097 1.92718 0
M  V30 4411 N 422.359 6.34538 3.00509 0
M  V30 4412 H 427.199 2.9796 0.0485582 0
M  V30 4413 H 424.736 1.47095 0.0122024 0
M  V30 4414 H 426.694 3.33811 2.50251 0
M  V30 4415 H 425.324 2.20623 2.35638 0
M  V30 4416 H 424.376 3.76975 0.509326 0
M  V30 4417 H 425.688 4.90893 0.884633 0
M  V30 4418 H 424.842 5.13612 3.22936 0
M  V30 4419 H 423.581 3.91096 2.91368 0
M  V30 4420 H 422.586 5.37916 1.13695 0
M  V30 4421 H 423.811 6.62836 1.47733 0
M  V30 4422 H 421.757 5.57433 3.45839 0
M  V30 4423 H 421.674 7.09046 2.62279 0
M  V30 4424 H 422.942 6.81709 3.78011 0
M  V30 4425 N 427.171 -0.0066808 1.57599 0
M  V30 4426 C 428.101 -0.999296 2.11036 0
M  V30 4427 C 429.082 -1.36278 1.01795 0
M  V30 4428 O 430.267 -1.4477 1.29442 0
M  V30 4429 C 427.397 -2.29328 2.60818 0
M  V30 4430 C 426.351 -2.07159 3.74525 0
M  V30 4431 C 425.677 -3.42512 4.10596 0
M  V30 4432 C 426.977 -1.43959 5.02069 0
M  V30 4433 H 428.671 -0.554382 2.94223 0
M  V30 4434 H 426.217 -0.265221 1.41536 0
M  V30 4435 H 428.17 -2.99117 2.96828 0
M  V30 4436 H 426.894 -2.7592 1.74745 0
M  V30 4437 H 425.553 -1.39797 3.38899 0
M  V30 4438 H 425.201 -3.86795 3.21556 0
M  V30 4439 H 424.901 -3.28498 4.87199 0
M  V30 4440 H 426.425 -4.13628 4.4916 0
M  V30 4441 H 427.839 -2.03696 5.35893 0
M  V30 4442 H 426.236 -1.40452 5.83432 0
M  V30 4443 H 427.306 -0.407992 4.83181 0
M  V30 4444 N 428.649 -1.55105 -0.279332 0
M  V30 4445 C 429.579 -1.90557 -1.34945 0
M  V30 4446 C 430.56 -0.766738 -1.51839 0
M  V30 4447 O 431.745 -1.02434 -1.64988 0
M  V30 4448 C 428.875 -2.17193 -2.71006 0
M  V30 4449 C 427.829 -3.33021 -2.68851 0
M  V30 4450 C 427.155 -3.45123 -4.08405 0
M  V30 4451 C 428.455 -4.69578 -2.28678 0
M  V30 4452 H 430.149 -2.80188 -1.05522 0
M  V30 4453 H 427.695 -1.34811 -0.506173 0
M  V30 4454 H 429.648 -2.40581 -3.45975 0
M  V30 4455 H 428.372 -1.24355 -3.01999 0
M  V30 4456 H 427.031 -3.0959 -1.9634 0
M  V30 4457 H 426.679 -2.49762 -4.3661 0
M  V30 4458 H 426.379 -4.22995 -4.07859 0
M  V30 4459 H 427.903 -3.70796 -4.85121 0
M  V30 4460 H 429.317 -4.92553 -2.93368 0
M  V30 4461 H 427.714 -5.5032 -2.39306 0
M  V30 4462 H 428.784 -4.68828 -1.23807 0
M  V30 4463 N 430.127 0.543554 -1.4793 0
M  V30 4464 C 431.074 1.64942 -1.6144 0
M  V30 4465 C 432.044 1.59692 -0.456903 0
M  V30 4466 O 433.229 1.78321 -0.678688 0
M  V30 4467 C 430.369 3.03238 -1.64744 0
M  V30 4468 C 429.482 3.18823 -2.91506 0
M  V30 4469 C 428.617 4.47599 -2.86057 0
M  V30 4470 C 427.656 4.56664 -4.07584 0
M  V30 4471 N 426.793 5.76811 -4.00292 0
M  V30 4472 H 431.633 1.52733 -2.55884 0
M  V30 4473 H 429.17 0.7438 -1.2691 0
M  V30 4474 H 431.128 3.83339 -1.64641 0
M  V30 4475 H 429.758 3.1425 -0.738017 0
M  V30 4476 H 428.81 2.32064 -3.01414 0
M  V30 4477 H 430.122 3.21384 -3.81463 0
M  V30 4478 H 429.276 5.35975 -2.84281 0
M  V30 4479 H 428.015 4.47538 -1.93807 0
M  V30 4480 H 427.02 3.66697 -4.09651 0
M  V30 4481 H 428.245 4.58474 -5.00978 0
M  V30 4482 H 426.191 5.77673 -3.10853 0
M  V30 4483 H 426.108 5.80808 -4.8394 0
M  V30 4484 H 427.376 6.67512 -4.02553 0
M  V30 4485 N 431.605 1.3629 0.791371 0
M  V30 4486 C 432.853 1.30154 1.5461 0
M  V30 4487 C 433.174 -0.119409 1.94634 0
M  V30 4488 O 432.444 -1.05924 1.64794 0
M  V30 4489 H 431.024 0.478784 0.573389 0
M  V30 4490 H 433.686 1.70565 0.94306 0
M  V30 4491 H 432.782 1.92762 2.45457 0
M  V30 4492 N 433.083 -1.0153 1.20538 0
M  V30 4493 C 434.013 -2.11972 0.979295 0
M  V30 4494 C 434.994 -1.6985 -0.0921787 0
M  V30 4495 O 436.179 -1.94089 0.0655932 0
M  V30 4496 C 433.309 -3.43201 0.531984 0
M  V30 4497 C 432.263 -3.9907 1.54685 0
M  V30 4498 C 431.589 -5.26082 0.956127 0
M  V30 4499 C 432.889 -4.32313 2.93092 0
M  V30 4500 H 434.583 -2.31143 1.90298 0
M  V30 4501 H 432.129 -1.11079 0.916372 0
M  V30 4502 H 434.082 -4.1985 0.361044 0
M  V30 4503 H 432.806 -3.23792 -0.427327 0
M  V30 4504 H 431.465 -3.2453 1.70517 0
M  V30 4505 H 431.113 -5.02999 -0.0111538 0
M  V30 4506 H 430.813 -5.64426 1.63393 0
M  V30 4507 H 432.337 -6.05386 0.796284 0
M  V30 4508 H 433.751 -4.99845 2.80763 0
M  V30 4509 H 432.148 -4.81774 3.57791 0
M  V30 4510 H 433.218 -3.41025 3.44717 0
M  V30 4511 N 434.561 -1.01147 -1.20859 0
M  V30 4512 C 435.808 -0.697865 -1.90095 0
M  V30 4513 C 436.136 0.772014 -1.78522 0
M  V30 4514 O 435.391 1.57595 -1.16027 0
M  V30 4515 C 435.69 -1.0727 -3.40922 0
M  V30 4516 C 435.356 -2.53792 -3.72693 0
M  V30 4517 C 434.018 -2.93829 -3.81075 0
M  V30 4518 C 436.37 -3.48674 -3.87397 0
M  V30 4519 C 433.698 -4.27696 -4.01613 0
M  V30 4520 C 436.05 -4.82223 -4.09444 0
M  V30 4521 C 434.714 -5.21973 -4.16054 0
M  V30 4522 H 433.984 -0.255367 -0.695607 0
M  V30 4523 H 436.631 -1.27111 -1.43231 0
M  V30 4524 H 434.936 -0.417799 -3.89566 0
M  V30 4525 H 436.633 -0.807818 -3.92779 0
M  V30 4526 H 433.223 -2.21768 -3.66765 0
M  V30 4527 H 437.407 -3.18904 -3.80281 0
M  V30 4528 H 432.663 -4.58055 -4.04964 0
M  V30 4529 H 436.837 -5.55672 -4.19763 0
M  V30 4530 H 434.464 -6.25717 -4.31721 0
M  V30 4531 N 436.039 1.36541 -0.78704 0
M  V30 4532 C 437.455 1.52571 -0.46844 0
M  V30 4533 C 437.655 1.7415 1.01361 0
M  V30 4534 O 436.711 1.77163 1.79915 0
M  V30 4535 C 438.024 2.71299 -1.29682 0
M  V30 4536 C 439.572 2.85169 -1.29027 0
M  V30 4537 C 440.047 4.06898 -2.10233 0
M  V30 4538 N 441.538 4.1404 -2.07666 0
M  V30 4539 C 442.273 5.07301 -2.67271 0
M  V30 4540 N 441.769 6.06021 -3.35724 0
M  V30 4541 N 443.562 4.99898 -2.57018 0
M  V30 4542 H 435.713 1.20788 -1.74711 0
M  V30 4543 H 437.976 0.589364 -0.742532 0
M  V30 4544 H 437.682 2.61868 -2.34773 0
M  V30 4545 H 437.556 3.6539 -0.936479 0
M  V30 4546 H 439.943 2.94062 -0.247284 0
M  V30 4547 H 440.024 1.91992 -1.69035 0
M  V30 4548 H 439.668 3.98766 -3.1456 0
M  V30 4549 H 439.598 4.99218 -1.67597 0
M  V30 4550 H 442.089 3.43357 -1.57843 0
M  V30 4551 H 442.402 6.73741 -3.78541 0
M  V30 4552 H 440.747 6.06253 -3.39826 0
M  V30 4553 H 443.938 4.21724 -2.03142 0
M  V30 4554 H 444.111 5.72392 -3.03761 0
M  V30 4555 N 437.518 0.538854 1.48102 0
M  V30 4556 C 438.45 -0.256278 2.27763 0
M  V30 4557 C 439.463 -0.89633 1.35904 0
M  V30 4558 O 440.652 -0.773275 1.60881 0
M  V30 4559 C 437.752 -1.37896 3.09577 0
M  V30 4560 C 436.925 -0.839159 4.29275 0
M  V30 4561 C 435.984 -1.84405 4.9283 0
M  V30 4562 O 435.01 -1.39746 5.51779 0
M  V30 4563 N 436.212 -3.17666 4.85869 0
M  V30 4564 H 438.977 0.426968 2.96643 0
M  V30 4565 H 436.538 0.373747 1.57527 0
M  V30 4566 H 438.53 -2.04955 3.48963 0
M  V30 4567 H 437.1 -1.96572 2.4306 0
M  V30 4568 H 436.32 0.00769287 3.94199 0
M  V30 4569 H 437.608 -0.457548 5.06739 0
M  V30 4570 H 437.006 -3.56609 4.39143 0
M  V30 4571 H 435.563 -3.80334 5.29329 0
M  V30 4572 N 438.996 -1.55193 0.274407 0
M  V30 4573 C 440.244 -1.99187 -0.341902 0
M  V30 4574 C 440.565 -1.16422 -1.56431 0
M  V30 4575 O 439.835 -0.253573 -1.94252 0
M  V30 4576 H 438.415 -0.735721 -0.129317 0
M  V30 4577 H 441.077 -1.91168 0.379578 0
M  V30 4578 H 440.173 -3.05629 -0.632253 0
M  V30 4579 N 440.474 -0.00167713 -1.576 0
M  V30 4580 C 441.404 0.988091 -2.11563 0
M  V30 4581 C 442.385 1.35736 -1.02517 0
M  V30 4582 O 443.57 1.44082 -1.30208 0
M  V30 4583 C 440.7 2.27941 -2.62031 0
M  V30 4584 C 439.654 2.0517 -3.75619 0
M  V30 4585 C 438.98 3.4033 -4.12407 0
M  V30 4586 C 440.28 1.41294 -5.02825 0
M  V30 4587 H 441.974 0.538771 -2.94513 0
M  V30 4588 H 439.52 0.257712 -1.41675 0
M  V30 4589 H 441.473 2.97539 -2.9841 0
M  V30 4590 H 440.197 2.74989 -1.76205 0
M  V30 4591 H 438.856 1.37998 -3.39635 0
M  V30 4592 H 438.504 3.85085 -3.23603 0
M  V30 4593 H 438.204 3.25909 -4.88935 0
M  V30 4594 H 439.728 4.1124 -4.51347 0
M  V30 4595 H 441.142 2.00851 -5.36965 0
M  V30 4596 H 439.539 1.37356 -5.84169 0
M  V30 4597 H 440.609 0.382362 -4.8339 0
M  V30 4598 N 441.952 1.55251 0.271103 0
M  V30 4599 C 442.884 1.84675 1.35749 0
M  V30 4600 C 443.897 0.731366 1.45447 0
M  V30 4601 O 445.086 1.00924 1.4723 0
M  V30 4602 C 442.186 1.99638 2.73857 0
M  V30 4603 C 441.359 3.30312 2.86727 0
M  V30 4604 C 440.418 3.35318 4.05522 0
M  V30 4605 O 439.444 4.08682 3.96191 0
M  V30 4606 N 440.646 2.62857 5.17577 0
M  V30 4607 H 443.411 2.78445 1.10853 0
M  V30 4608 H 440.972 1.55191 0.461218 0
M  V30 4609 H 442.964 2.00355 3.51625 0
M  V30 4610 H 441.534 1.12725 2.91568 0
M  V30 4611 H 440.754 3.42118 1.95829 0
M  V30 4612 H 442.042 4.16488 2.92258 0
M  V30 4613 H 441.44 2.02939 5.28046 0
M  V30 4614 H 439.997 2.69295 5.93568 0
M  V30 4615 N 443.43 -0.535701 1.48216 0
M  V30 4616 C 444.67 -1.30238 1.57536 0
M  V30 4617 C 445.034 -1.90479 0.241229 0
M  V30 4618 O 446.235 -2.67983 0.20938 0
M  V30 4619 C 444.506 -2.3669 2.67792 0
M  V30 4620 S 446.065 -3.23159 2.9684 0
M  V30 4621 H 442.883 -0.443093 0.556048 0
M  V30 4622 H 445.485 -0.610937 1.85709 0
M  V30 4623 H 444.189 -1.90905 3.63296 0
M  V30 4624 H 443.72 -3.10548 2.41502 0
M  V30 4625 H 445.735 -4.36647 2.35699 0
M  V30 4626 N 444.908 -1.36708 -0.784132 0
M  V30 4627 C 445.855 -1.31466 -1.89698 0
M  V30 4628 C 446.825 -0.18239 -1.65096 0
M  V30 4629 O 448.01 -0.369762 -1.87183 0
M  V30 4630 C 445.15 -1.1151 -3.26588 0
M  V30 4631 C 444.263 -2.33859 -3.63227 0
M  V30 4632 C 443.398 -2.06873 -4.89262 0
M  V30 4633 C 442.437 -3.25154 -5.18595 0
M  V30 4634 N 441.574 -2.978 -6.35814 0
M  V30 4635 H 446.414 -2.26619 -1.93515 0
M  V30 4636 H 443.951 -1.12625 -0.946256 0
M  V30 4637 H 445.909 -0.979653 -4.05535 0
M  V30 4638 H 444.539 -0.200103 -3.22179 0
M  V30 4639 H 443.591 -2.58188 -2.79362 0
M  V30 4640 H 444.903 -3.22109 -3.8085 0
M  V30 4641 H 444.057 -1.90289 -5.76086 0
M  V30 4642 H 442.796 -1.15942 -4.73718 0
M  V30 4643 H 441.801 -3.42292 -4.30251 0
M  V30 4644 H 443.026 -4.1692 -5.36055 0
M  V30 4645 H 440.972 -2.09485 -6.21653 0
M  V30 4646 H 440.889 -3.7959 -6.53794 0
M  V30 4647 H 442.157 -2.84805 -7.25607 0
M  V30 4648 N 446.386 1.0089 -1.21074 0
M  V30 4649 C 447.663 1.71834 -0.934469 0
M  V30 4650 C 448.043 2.0368 0.554753 0
M  V30 4651 O 447.391 1.70742 1.51854 0
M  V30 4652 C 447.601 2.98061 -1.8155 0
M  V30 4653 C 448.949 3.7117 -2.06199 0
M  V30 4654 O 449.973 3.08034 -1.78867 0
M  V30 4655 O 448.832 4.84721 -2.52404 0
M  V30 4656 H 445.926 0.749253 -0.35007 0
M  V30 4657 H 448.472 1.06668 -1.31985 0
M  V30 4658 H 447.244 2.70908 -2.82355 0
M  V30 4659 H 446.867 3.70968 -1.43068 0
M  V30 4660 N 447.864 1.01787 1.20321 0
M  V30 4661 C 449.104 0.716493 1.91431 0
M  V30 4662 C 449.468 -0.740352 1.77152 0
M  V30 4663 O 450.669 -1.1543 2.42754 0
M  V30 4664 C 448.94 1.14169 3.38674 0
M  V30 4665 S 450.499 0.962482 4.28114 0
M  V30 4666 H 447.317 0.261175 0.661293 0
M  V30 4667 H 449.919 1.30539 1.45533 0
M  V30 4668 H 448.623 2.19784 3.46588 0
M  V30 4669 H 448.154 0.545621 3.89598 0
M  V30 4670 H 450.169 -0.133253 4.96021 0
M  V30 4671 N 449.342 -1.36122 0.79427 0
M  V30 4672 C 450.758 -1.5232 0.476525 0
M  V30 4673 C 450.958 -1.74685 -1.00436 0
M  V30 4674 O 450.014 -1.78115 -1.78973 0
M  V30 4675 C 451.327 -2.70607 1.31119 0
M  V30 4676 C 452.875 -2.8448 1.30537 0
M  V30 4677 C 453.35 -4.05778 2.12387 0
M  V30 4678 N 454.841 -4.12933 2.09859 0
M  V30 4679 C 455.576 -5.05876 2.69957 0
M  V30 4680 N 455.072 -6.04232 3.38934 0
M  V30 4681 N 456.865 -4.98528 2.59665 0
M  V30 4682 H 449.016 -1.1986 1.75349 0
M  V30 4683 H 451.279 -0.585418 0.745647 0
M  V30 4684 H 450.985 -2.60619 2.36158 0
M  V30 4685 H 450.859 -3.64888 0.955843 0
M  V30 4686 H 453.246 -2.93927 0.262876 0
M  V30 4687 H 453.327 -1.91093 1.70051 0
M  V30 4688 H 452.971 -3.97092 3.1667 0
M  V30 4689 H 452.901 -4.98323 1.70242 0
M  V30 4690 H 455.392 -3.42515 1.59662 0
M  V30 4691 H 455.705 -6.71724 3.82109 0
M  V30 4692 H 454.05 -6.04443 3.43036 0
M  V30 4693 H 457.241 -4.20641 2.05375 0
M  V30 4694 H 457.414 -5.70773 3.06793 0
M  V30 4695 N 450.82 -0.546701 -1.47814 0
M  V30 4696 C 452.067 -0.0187407 -2.02491 0
M  V30 4697 C 452.395 1.32685 -1.42215 0
M  V30 4698 O 451.65 1.87413 -0.563454 0
M  V30 4699 C 451.949 0.134869 -3.57145 0
M  V30 4700 C 451.615 -1.13849 -4.3629 0
M  V30 4701 C 450.277 -1.48743 -4.57634 0
M  V30 4702 C 452.629 -1.98277 -4.82012 0
M  V30 4703 C 449.957 -2.67932 -5.21948 0
M  V30 4704 C 452.309 -3.16659 -5.4764 0
M  V30 4705 C 450.973 -3.51879 -5.67219 0
M  V30 4706 H 450.243 -0.0068577 -0.740968 0
M  V30 4707 H 452.89 -0.716097 -1.77607 0
M  V30 4708 H 451.195 0.915118 -3.80963 0
M  V30 4709 H 452.892 0.558556 -3.97091 0
M  V30 4710 H 449.482 -0.856767 -4.19949 0
M  V30 4711 H 453.666 -1.72628 -4.6531 0
M  V30 4712 H 448.922 -2.95401 -5.35302 0
M  V30 4713 H 453.096 -3.82374 -5.82033 0
M  V30 4714 H 450.723 -4.44331 -6.16825 0
M  V30 4715 N 452.299 1.55045 -0.282633 0
M  V30 4716 C 453.247 2.24254 0.617478 0
M  V30 4717 C 454.241 1.24215 1.15183 0
M  V30 4718 O 455.447 1.42123 1.10459 0
M  V30 4719 H 451.822 0.719801 0.217693 0
M  V30 4720 H 453.793 2.98398 0.0110076 0
M  V30 4721 C 452.542 2.98281 1.78672 0
M  V30 4722 H 451.865 3.75053 1.38475 0
M  V30 4723 H 453.305 3.50017 2.393 0
M  V30 4724 C 451.764 2.04184 2.67975 0
M  V30 4725 O 452.294 1.59792 3.6855 0
M  V30 4726 N 450.5 1.70526 2.35307 0
M  V30 4727 H 450.047 2.06821 1.53567 0
M  V30 4728 H 450.005 1.07839 2.95327 0
M  V30 4729 N 453.777 0.010035 1.57597 0
M  V30 4730 C 455.017 -0.677084 1.9286 0
M  V30 4731 C 455.381 -1.70377 0.885192 0
M  V30 4732 O 456.582 -2.44199 1.12339 0
M  V30 4733 C 454.853 -1.29452 3.33132 0
M  V30 4734 S 456.412 -2.00537 3.90295 0
M  V30 4735 H 453.23 -0.223409 0.674989 0
M  V30 4736 H 455.832 0.0691289 1.95378 0
M  V30 4737 H 454.536 -0.534593 4.06903 0
M  V30 4738 H 454.067 -2.07845 3.34012 0
M  V30 4739 H 456.082 -3.28168 3.72183 0
M  V30 4740 N 455.255 -1.55392 -0.262866 0
M  V30 4741 C 456.205 -1.85355 -1.32768 0
M  V30 4742 C 457.189 -0.713188 -1.44231 0
M  V30 4743 O 458.381 -0.974765 -1.47741 0
M  V30 4744 C 455.51 -2.13781 -2.68612 0
M  V30 4745 C 454.596 -3.34104 -2.61219 0
M  V30 4746 N 454.987 -4.53766 -2.2345 0
M  V30 4747 C 453.285 -3.36895 -2.92263 0
M  V30 4748 C 453.986 -5.35877 -2.26298 0
M  V30 4749 N 452.962 -4.74536 -2.65172 0
M  V30 4750 H 456.764 -2.75413 -1.02591 0
M  V30 4751 H 454.278 -1.55405 -0.471503 0
M  V30 4752 H 456.275 -2.33407 -3.45437 0
M  V30 4753 H 454.935 -1.25013 -2.99669 0
M  V30 4754 H 455.946 -4.79682 -1.95258 0
M  V30 4755 H 452.623 -2.58351 -3.27965 0
M  V30 4756 H 454.013 -6.41577 -1.99572 0
M  V30 4757 N 456.733 0.527833 -1.48498 0
M  V30 4758 C 457.68 1.6322 -1.6318 0
M  V30 4759 C 458.65 1.59199 -0.473815 0
M  V30 4760 O 459.835 1.77591 -0.697563 0
M  V30 4761 C 456.975 3.01474 -1.67951 0
M  V30 4762 C 456.088 3.15713 -2.94871 0
M  V30 4763 C 455.223 4.44539 -2.90789 0
M  V30 4764 C 454.262 4.52315 -4.12404 0
M  V30 4765 N 453.399 5.72533 -4.06387 0
M  V30 4766 H 458.239 1.50011 -2.57489 0
M  V30 4767 H 455.776 0.730298 -1.27691 0
M  V30 4768 H 457.734 3.81572 -1.68698 0
M  V30 4769 H 456.364 3.1345 -0.771306 0
M  V30 4770 H 455.416 2.28854 -3.03859 0
M  V30 4771 H 456.728 3.1732 -3.8485 0
M  V30 4772 H 455.882 5.3293 -2.89949 0
M  V30 4773 H 454.621 4.45457 -1.98542 0
M  V30 4774 H 453.626 3.62331 -4.13517 0
M  V30 4775 H 454.851 4.53134 -5.05812 0
M  V30 4776 H 452.797 5.74344 -3.16962 0
M  V30 4777 H 452.714 5.75643 -4.90073 0
M  V30 4778 H 453.982 6.63204 -4.0961 0
M  V30 4779 N 458.211 1.37122 0.776871 0
M  V30 4780 C 459.627 1.1781 1.07671 0
M  V30 4781 C 459.827 0.0107454 2.01497 0
M  V30 4782 O 458.883 -0.650756 2.4397 0
M  V30 4783 C 460.196 2.49451 1.67913 0
M  V30 4784 C 461.744 2.55927 1.80195 0
M  V30 4785 C 462.219 3.87686 2.43851 0
M  V30 4786 N 463.71 3.891 2.51307 0
M  V30 4787 C 464.445 4.87797 3.014 0
M  V30 4788 N 463.941 5.96888 3.51705 0
M  V30 4789 N 465.734 4.75205 3.00227 0
M  V30 4790 H 457.885 2.11843 0.153778 0
M  V30 4791 H 460.148 0.938927 0.130844 0
M  V30 4792 H 459.854 3.35207 1.06439 0
M  V30 4793 H 459.728 2.66169 2.67271 0
M  V30 4794 H 462.115 1.70582 2.40803 0
M  V30 4795 H 462.196 2.43097 0.796069 0
M  V30 4796 H 461.84 4.73444 1.83884 0
M  V30 4797 H 461.77 3.97817 3.45035 0
M  V30 4798 H 464.261 3.10293 2.157 0
M  V30 4799 H 464.574 6.68155 3.88316 0
M  V30 4800 H 462.919 6.0054 3.49824 0
M  V30 4801 H 466.11 3.89103 2.60224 0
M  V30 4802 H 466.283 5.52279 3.38957 0
M  V30 4803 N 459.689 -1.00246 1.21608 0
M  V30 4804 C 460.929 -1.75589 1.04631 0
M  V30 4805 C 461.293 -1.87513 -0.412648 0
M  V30 4806 O 462.494 -2.59444 -0.703003 0
M  V30 4807 C 460.765 -3.12893 1.72722 0
M  V30 4808 S 462.324 -4.04095 1.71034 0
M  V30 4809 H 459.142 -0.604133 0.374892 0
M  V30 4810 H 461.744 -1.19927 1.54395 0
M  V30 4811 H 460.448 -3.0185 2.78055 0
M  V30 4812 H 459.979 -3.73628 1.23149 0
M  V30 4813 H 461.994 -4.9045 0.753231 0
M  V30 4814 N 461.167 -1.02423 -1.1978 0
M  V30 4815 C 462.13 -0.605703 -2.21052 0
M  V30 4816 C 463.13 0.328209 -1.57415 0
M  V30 4817 O 464.32 0.115853 -1.73814 0
M  V30 4818 C 461.452 0.114366 -3.40708 0
M  V30 4819 H 462.645 -1.5017 -2.59594 0
M  V30 4820 H 460.198 -0.814888 -1.33376 0
M  V30 4821 H 460.933 1.02492 -3.07678 0
M  V30 4822 H 460.718 -0.556641 -3.88129 0
M  V30 4823 H 462.208 0.394272 -4.15735 0
M  V30 4824 N 462.645 1.35699 -0.801477 0
M  V30 4825 C 464.056 1.81415 -0.441073 0
M  V30 4826 C 464.407 1.66595 1.03636 0
M  V30 4827 O 463.532 1.19369 1.80499 0
M  V30 4828 C 464.127 3.29369 -0.793819 0
M  V30 4829 C 462.686 3.73248 -0.486083 0
M  V30 4830 C 461.833 2.57775 -1.02213 0
M  V30 4831 H 464.784 1.23749 -0.993572 0
M  V30 4832 H 464.805 3.80395 -0.0894158 0
M  V30 4833 H 464.317 3.40123 -1.86917 0
M  V30 4834 H 462.418 3.68046 0.580735 0
M  V30 4835 H 462.531 4.68222 -1.01513 0
M  V30 4836 H 460.895 2.50788 -0.444712 0
M  V30 4837 H 461.678 2.71309 -2.10348 0
M  V30 4838 N 464.123 0.554532 1.47522 0
M  V30 4839 C 465.07 -0.19466 2.29978 0
M  V30 4840 C 466.04 -0.910882 1.38896 0
M  V30 4841 O 467.225 -0.907102 1.67858 0
M  V30 4842 C 464.365 -1.22035 3.22802 0
M  V30 4843 C 463.478 -0.510474 4.28973 0
M  V30 4844 C 462.613 -1.52123 5.08952 0
M  V30 4845 C 461.652 -0.796173 6.069 0
M  V30 4846 N 460.789 -1.75363 6.79847 0
M  V30 4847 H 465.629 0.51461 2.93523 0
M  V30 4848 H 463.166 0.265607 1.44682 0
M  V30 4849 H 465.124 -1.8276 3.7504 0
M  V30 4850 H 463.754 -1.89769 2.61127 0
M  V30 4851 H 462.806 0.211234 3.79813 0
M  V30 4852 H 464.118 0.0576503 4.98767 0
M  V30 4853 H 463.272 -2.20207 5.65326 0
M  V30 4854 H 462.011 -2.12327 4.39054 0
M  V30 4855 H 461.016 -0.101388 5.49707 0
M  V30 4856 H 462.241 -0.199911 6.78806 0
M  V30 4857 H 460.187 -2.3443 6.12682 0
M  V30 4858 H 460.104 -1.23759 7.45801 0
M  V30 4859 H 461.372 -2.4257 7.40797 0
M  V30 4860 N 465.601 -1.54893 0.290851 0
M  V30 4861 C 466.847 -2.0023 -0.321867 0
M  V30 4862 C 467.18 -1.179 -1.54316 0
M  V30 4863 O 466.455 -0.25293 -1.92848 0
M  V30 4864 C 466.738 -3.53456 -0.688515 0
M  V30 4865 C 466.591 -4.46532 0.541209 0
M  V30 4866 C 467.91 -4.13057 -1.51895 0
M  V30 4867 H 465.029 -0.727891 -0.115515 0
M  V30 4868 H 467.671 -1.85722 0.400931 0
M  V30 4869 H 465.821 -3.6595 -1.30433 0
M  V30 4870 H 467.493 -4.4596 1.17973 0
M  V30 4871 H 465.736 -4.17545 1.17636 0
M  V30 4872 H 466.407 -5.51475 0.240675 0
M  V30 4873 H 468.883 -4.03937 -0.99872 0
M  V30 4874 H 467.759 -5.20448 -1.74429 0
M  V30 4875 H 468.02 -3.64284 -2.50498 0
M  V30 4876 N 467.08 -0.0183926 -1.57589 0
M  V30 4877 C 468.491 0.521927 -1.79256 0
M  V30 4878 C 468.842 1.72885 -0.927636 0
M  V30 4879 O 467.967 2.15978 -0.135091 0
M  V30 4880 C 468.562 0.953632 -3.25102 0
M  V30 4881 C 467.121 1.43913 -3.47801 0
M  V30 4882 C 466.268 0.398837 -2.74417 0
M  V30 4883 H 469.219 -0.244485 -1.56805 0
M  V30 4884 H 469.24 1.81863 -3.34224 0
M  V30 4885 H 468.752 0.0750123 -3.88028 0
M  V30 4886 H 466.853 2.33804 -2.90115 0
M  V30 4887 H 466.966 1.45391 -4.56507 0
M  V30 4888 H 465.33 0.864572 -2.39577 0
M  V30 4889 H 466.113 -0.471132 -3.40052 0
M  V30 4890 N 468.558 1.5553 0.254621 0
M  V30 4891 C 469.506 1.9048 1.33492 0
M  V30 4892 C 470.5 0.78304 1.50216 0
M  V30 4893 O 471.706 0.967582 1.51782 0
M  V30 4894 H 468.081 0.604846 0.44684 0
M  V30 4895 H 470.052 2.80688 1.01275 0
M  V30 4896 C 468.801 2.20928 2.68489 0
M  V30 4897 H 468.124 3.06742 2.56417 0
M  V30 4898 H 469.564 2.49291 3.42972 0
M  V30 4899 C 468.023 1.023 3.20993 0
M  V30 4900 O 468.553 0.267027 4.00811 0
M  V30 4901 N 466.759 0.815714 2.78917 0
M  V30 4902 H 466.306 1.43217 2.14119 0
M  V30 4903 H 466.264 0.0236532 3.14391 0
M  V30 4904 N 470.036 -0.519951 1.48776 0
M  V30 4905 C 470.984 -1.64443 1.64503 0
M  V30 4906 C 471.978 -1.61501 0.511248 0
M  V30 4907 O 473.184 -1.66238 0.690294 0
M  V30 4908 H 469.559 -0.544776 0.518385 0
M  V30 4909 H 471.53 -1.48325 2.58925 0
M  V30 4910 C 470.279 -3.02673 1.71127 0
M  V30 4911 H 469.602 -3.05635 2.57735 0
M  V30 4912 H 471.042 -3.80941 1.86172 0
M  V30 4913 C 469.501 -3.33854 0.452032 0
M  V30 4914 O 470.031 -3.99385 -0.430678 0
M  V30 4915 N 468.237 -2.88825 0.32069 0
M  V30 4916 H 467.784 -2.35674 1.03998 0
M  V30 4917 H 467.742 -3.10056 -0.520814 0
M  V30 4918 N 471.514 -1.37532 -0.769588 0
M  V30 4919 C 472.754 -1.34261 -1.54122 0
M  V30 4920 C 473.118 0.0717222 -1.91866 0
M  V30 4921 O 474.319 0.22918 -2.67821 0
M  V30 4922 C 472.59 -2.2574 -2.77086 0
M  V30 4923 S 474.149 -2.40339 -3.67127 0
M  V30 4924 H 470.967 -0.476595 -0.527615 0
M  V30 4925 H 473.569 -1.73303 -0.90479 0
M  V30 4926 H 472.273 -3.27417 -2.4744 0
M  V30 4927 H 471.804 -1.87789 -3.45686 0
M  V30 4928 H 473.819 -1.61558 -4.69163 0
M  V30 4929 N 472.992 0.995999 -1.22138 0
M  V30 4930 C 473.922 2.10387 -1.01289 0
M  V30 4931 C 474.903 1.69975 0.0651454 0
M  V30 4932 O 476.088 1.9396 -0.0964628 0
M  V30 4933 C 473.218 3.42312 -0.586517 0
M  V30 4934 C 472.172 3.96558 -1.61014 0
M  V30 4935 C 471.498 5.24494 -1.0397 0
M  V30 4936 C 472.798 4.27595 -2.99933 0
M  V30 4937 H 474.492 2.28086 -1.93951 0
M  V30 4938 H 472.038 1.09607 -0.933928 0
M  V30 4939 H 473.991 4.19223 -0.427793 0
M  V30 4940 H 472.715 3.24431 0.375761 0
M  V30 4941 H 471.374 3.21776 -1.75658 0
M  V30 4942 H 471.022 5.02953 -0.0688703 0
M  V30 4943 H 470.722 5.61755 -1.72352 0
M  V30 4944 H 472.246 6.04042 -0.892494 0
M  V30 4945 H 473.66 4.95315 -2.8868 0
M  V30 4946 H 472.057 4.76021 -3.6541 0
M  V30 4947 H 473.127 3.35498 -3.50099 0
M  V30 4948 N 474.47 1.03057 1.19235 0
M  V30 4949 C 475.718 0.726581 1.88587 0
M  V30 4950 C 476.039 -0.747227 1.80115 0
M  V30 4951 O 475.309 -1.53849 1.21274 0
M  V30 4952 H 473.889 0.265768 0.698124 0
M  V30 4953 H 476.551 1.30516 1.44746 0
M  V30 4954 H 475.647 1.0224 2.94879 0
M  V30 4955 N 475.948 -1.35272 0.808662 0
M  V30 4956 C 476.858 -2.33546 0.222079 0
M  V30 4957 C 477.874 -1.6196 -0.636011 0
M  V30 4958 O 479.05 -1.93822 -0.547274 0
M  V30 4959 C 476.115 -3.41148 -0.61795 0
M  V30 4960 C 475.176 -4.28507 0.260875 0
M  V30 4961 C 474.409 -5.3097 -0.539156 0
M  V30 4962 O 474.632 -5.42123 -1.77367 0
M  V30 4963 O 473.566 -6.01858 0.0710526 0
M  V30 4964 H 477.392 -2.85515 1.03512 0
M  V30 4965 H 474.977 -1.38079 0.570495 0
M  V30 4966 H 476.859 -4.06889 -1.09634 0
M  V30 4967 H 475.534 -2.91447 -1.40855 0
M  V30 4968 H 474.441 -3.6574 0.786451 0
M  V30 4969 H 475.774 -4.81611 1.01547 0
M  V30 4970 N 477.426 -0.562348 -1.47226 0
M  V30 4971 C 478.672 -0.0402761 -2.0276 0
M  V30 4972 C 479.005 1.30823 -1.43523 0
M  V30 4973 O 478.28 1.85249 -0.592705 0
M  V30 4974 C 478.563 0.047311 -3.60069 0
M  V30 4975 C 478.416 -1.32865 -4.29729 0
M  V30 4976 C 479.735 0.758182 -4.3352 0
M  V30 4977 H 476.854 -0.0161105 -0.736824 0
M  V30 4978 H 479.496 -0.725628 -1.75598 0
M  V30 4979 H 477.646 0.630986 -3.83342 0
M  V30 4980 H 479.318 -1.95593 -4.17781 0
M  V30 4981 H 477.561 -1.90195 -3.89882 0
M  V30 4982 H 478.232 -1.22004 -5.38349 0
M  V30 4983 H 480.708 0.262546 -4.15271 0
M  V30 4984 H 479.584 0.78844 -5.43208 0
M  V30 4985 H 479.845 1.81537 -4.03109 0
M  V30 4986 N 478.904 1.54736 -0.299062 0
M  V30 4987 C 480.132 2.04512 0.313447 0
M  V30 4988 C 480.547 1.17643 1.47667 0
M  V30 4989 O 479.904 0.20164 1.81383 0
M  V30 4990 C 479.955 3.53171 0.771542 0
M  V30 4991 O 479.676 4.36736 -0.345379 0
M  V30 4992 C 481.177 4.18936 1.4494 0
M  V30 4993 H 478.397 0.667507 0.0683784 0
M  V30 4994 H 480.941 1.99752 -0.438129 0
M  V30 4995 H 479.096 3.58298 1.47314 0
M  V30 4996 H 479.51 5.24499 0.0109219 0
M  V30 4997 H 480.984 5.24482 1.72111 0
M  V30 4998 H 481.461 3.68554 2.38883 0
M  V30 4999 H 482.067 4.17879 0.791028 0
M  V30 5000 N 480.382 0.0267497 1.57577 0
M  V30 5001 C 481.631 -0.651736 1.9088 0
M  V30 5002 C 481.944 -1.73427 0.904576 0
M  V30 5003 O 483.15 -2.46923 1.12877 0
M  V30 5004 C 481.606 -1.21048 3.38933 0
M  V30 5005 C 481.214 -0.161362 4.47709 0
M  V30 5006 C 482.958 -1.86562 3.81307 0
M  V30 5007 C 480.865 -0.731611 5.86857 0
M  V30 5008 H 479.795 -0.247198 0.712326 0
M  V30 5009 H 482.446 0.0916641 1.83271 0
M  V30 5010 H 480.828 -2.00542 3.41466 0
M  V30 5011 H 482.002 0.61094 4.56732 0
M  V30 5012 H 480.317 0.394877 4.14523 0
M  V30 5013 H 482.914 -2.30178 4.8262 0
M  V30 5014 H 483.257 -2.70735 3.16241 0
M  V30 5015 H 483.79 -1.13762 3.81186 0
M  V30 5016 H 480.529 0.0719329 6.55461 0
M  V30 5017 H 480.049 -1.47245 5.81445 0
M  V30 5018 H 481.728 -1.22208 6.35354 0
M  V30 5019 N 481.861 -1.55662 -0.24637 0
M  V30 5020 C 482.809 -1.91186 -1.3248 0
M  V30 5021 C 483.803 -0.790996 -1.49799 0
M  V30 5022 O 485.009 -0.975617 -1.51267 0
M  V30 5023 H 481.384 -0.607207 -0.443626 0
M  V30 5024 H 483.355 -2.81221 -0.997853 0
M  V30 5025 C 482.104 -2.22349 -2.67313 0
M  V30 5026 H 481.427 -3.08097 -2.54786 0
M  V30 5027 H 482.867 -2.51107 -3.41645 0
M  V30 5028 C 481.326 -1.04001 -3.20446 0
M  V30 5029 O 481.856 -0.28828 -4.00664 0
M  V30 5030 N 480.062 -0.830494 -2.7848 0
M  V30 5031 H 479.609 -1.4435 -2.13356 0
M  V30 5032 H 479.567 -0.0403258 -3.14374 0
M  V30 5033 N 483.339 0.512053 -1.4905 0
M  V30 5034 C 484.587 1.26436 -1.57665 0
M  V30 5035 C 484.908 1.93255 -0.260293 0
M  V30 5036 O 484.178 1.82206 0.719564 0
M  V30 5037 H 482.758 0.469658 -0.580888 0
M  V30 5038 H 485.42 0.594398 -1.85615 0
M  V30 5039 H 484.516 2.03417 -2.36702 0
M  V30 5040 N 484.817 1.37938 0.762283 0
M  V30 5041 C 486.094 1.24196 1.51112 0
M  V30 5042 C 486.474 -0.160409 2.1049 0
M  V30 5043 O 485.822 -1.16904 1.96331 0
M  V30 5044 C 486.032 2.34537 2.58445 0
M  V30 5045 C 487.38 2.7254 3.25588 0
M  V30 5046 O 488.404 2.33783 2.68745 0
M  V30 5047 O 487.263 3.39343 4.28379 0
M  V30 5048 H 484.357 0.485175 0.669727 0
M  V30 5049 H 486.903 1.49743 0.798438 0
M  V30 5050 H 485.675 3.28406 2.12756 0
M  V30 5051 H 485.298 2.10505 3.37303 0
M  V30 5052 N 486.295 -0.989507 1.22664 0
M  V30 5053 C 487.225 -2.09847 1.02404 0
M  V30 5054 C 488.206 -1.70007 -0.0561303 0
M  V30 5055 O 489.391 -1.93906 0.106748 0
M  V30 5056 C 486.521 -3.41996 0.604663 0
M  V30 5057 C 485.475 -3.95699 1.63115 0
M  V30 5058 C 484.801 -5.23936 1.0675 0
M  V30 5059 C 486.101 -4.25999 3.02196 0
M  V30 5060 H 487.795 -2.27054 1.95158 0
M  V30 5061 H 485.341 -1.09111 0.939727 0
M  V30 5062 H 487.294 -4.1899 0.45002 0
M  V30 5063 H 486.018 -3.24626 -0.35855 0
M  V30 5064 H 484.677 -3.2084 1.77362 0
M  V30 5065 H 484.325 -5.02909 0.0955422 0
M  V30 5066 H 484.025 -5.60833 1.75328 0
M  V30 5067 H 485.549 -6.0356 0.924516 0
M  V30 5068 H 486.963 -4.93777 2.91303 0
M  V30 5069 H 485.36 -4.74076 3.67929 0
M  V30 5070 H 486.43 -3.33636 3.51873 0
M  V30 5071 N 487.773 -1.03688 -1.18687 0
M  V30 5072 C 488.703 -0.645407 -2.24403 0
M  V30 5073 C 489.684 0.349511 -1.66471 0
M  V30 5074 O 490.869 0.230453 -1.92828 0
M  V30 5075 C 487.999 -0.00365337 -3.473 0
M  V30 5076 C 486.953 -0.921705 -4.17958 0
M  V30 5077 C 486.279 -0.144629 -5.34504 0
M  V30 5078 C 487.579 -2.23909 -4.71871 0
M  V30 5079 H 489.273 -1.52917 -2.57404 0
M  V30 5080 H 486.819 -0.736711 -1.23728 0
M  V30 5081 H 488.772 0.281908 -4.20456 0
M  V30 5082 H 487.496 0.914963 -3.13522 0
M  V30 5083 H 486.155 -1.19159 -3.46694 0
M  V30 5084 H 485.803 0.776274 -4.96974 0
M  V30 5085 H 485.503 -0.756206 -5.82714 0
M  V30 5086 H 487.027 0.134004 -6.10453 0
M  V30 5087 H 488.441 -2.0145 -5.36741 0
M  V30 5088 H 486.838 -2.8033 -5.30599 0
M  V30 5089 H 487.908 -2.88822 -3.895 0
M  V30 5090 N 489.251 1.34841 -0.815825 0
M  V30 5091 C 490.476 2.03261 -0.41226 0
M  V30 5092 C 490.901 1.61055 0.971751 0
M  V30 5093 O 490.259 0.7917 1.63101 0
M  V30 5094 C 490.307 3.56914 -0.514289 0
M  V30 5095 O 489.411 4.09728 0.468675 0
M  V30 5096 H 488.752 0.641664 -0.170771 0
M  V30 5097 H 491.282 1.72241 -1.10427 0
M  V30 5098 H 491.292 4.06156 -0.387457 0
M  V30 5099 H 489.967 3.86982 -1.52375 0
M  V30 5100 H 488.544 3.71681 0.301316 0
M  V30 5101 N 490.729 0.570148 1.46925 0
M  V30 5102 C 492.14 0.1402 1.86173 0
M  V30 5103 C 492.491 -1.29347 1.47526 0
M  V30 5104 O 491.616 -1.97508 0.884292 0
M  V30 5105 C 492.211 0.247661 3.37894 0
M  V30 5106 C 490.77 -0.127332 3.76185 0
M  V30 5107 C 489.917 0.589349 2.70965 0
M  V30 5108 H 492.868 0.779117 1.38259 0
M  V30 5109 H 492.889 -0.530341 3.76786 0
M  V30 5110 H 492.401 1.29121 3.65991 0
M  V30 5111 H 490.502 -1.17149 3.53704 0
M  V30 5112 H 490.615 0.240238 4.78497 0
M  V30 5113 H 488.979 0.0309824 2.54681 0
M  V30 5114 H 489.762 1.6343 3.01903 0
M  V30 5115 N 492.207 -1.54576 0.307264 0
M  V30 5116 C 493.455 -1.99867 -0.299574 0
M  V30 5117 C 493.776 -1.19714 -1.53927 0
M  V30 5118 O 493.046 -0.29472 -1.9367 0
M  V30 5119 H 491.626 -0.738299 -0.113683 0
M  V30 5120 H 494.288 -1.9032 0.420042 0
M  V30 5121 H 493.384 -3.06901 -0.567283 0
M  V30 5122 N 493.685 -0.035106 -1.57561 0
M  V30 5123 C 494.648 0.929819 -2.09492 0
M  V30 5124 C 495.648 1.25026 -1.01119 0
M  V30 5125 O 496.838 1.18961 -1.27255 0
M  V30 5126 C 493.97 2.24457 -2.56577 0
M  V30 5127 H 495.163 0.479935 -2.96035 0
M  V30 5128 H 492.716 0.213033 -1.54841 0
M  V30 5129 H 493.451 2.74061 -1.73382 0
M  V30 5130 H 493.236 2.02508 -3.35757 0
M  V30 5131 H 494.726 2.93607 -2.96959 0
M  V30 5132 N 495.163 1.55791 0.238111 0
M  V30 5133 C 496.073 1.94196 1.31625 0
M  V30 5134 C 497.089 0.843545 1.52185 0
M  V30 5135 O 498.265 1.1457 1.65637 0
M  V30 5136 C 495.33 2.2365 2.64918 0
M  V30 5137 C 494.391 3.46971 2.52804 0
M  V30 5138 C 493.624 3.7501 3.79741 0
M  V30 5139 O 493.847 3.04982 4.82019 0
M  V30 5140 O 492.781 4.68525 3.77846 0
M  V30 5141 H 496.607 2.86044 1.02043 0
M  V30 5142 H 494.192 1.42786 0.439603 0
M  V30 5143 H 496.074 2.43863 3.4367 0
M  V30 5144 H 494.749 1.34979 2.94215 0
M  V30 5145 H 493.656 3.32055 1.72309 0
M  V30 5146 H 494.989 4.35971 2.28451 0
M  V30 5147 N 496.642 -0.504142 1.49319 0
M  V30 5148 C 497.867 -1.28729 1.62615 0
M  V30 5149 C 498.292 -1.85752 0.296309 0
M  V30 5150 O 497.65 -1.65704 -0.735649 0
M  V30 5151 C 497.698 -2.39561 2.69524 0
M  V30 5152 O 496.802 -3.43324 2.28478 0
M  V30 5153 H 496.143 -0.380172 0.544395 0
M  V30 5154 H 498.673 -0.603872 1.95485 0
M  V30 5155 H 498.683 -2.8537 2.91595 0
M  V30 5156 H 497.358 -1.97423 3.66056 0
M  V30 5157 H 495.935 -3.03455 2.16725 0
M  V30 5158 N 498.12 -1.38341 -0.754957 0
M  V30 5159 C 499.397 -1.24995 -1.50451 0
M  V30 5160 C 499.777 0.149244 -2.10572 0
M  V30 5161 O 499.125 1.15861 -1.96948 0
M  V30 5162 C 499.335 -2.35904 -2.57197 0
M  V30 5163 C 500.683 -2.74262 -3.24138 0
M  V30 5164 O 501.707 -2.35205 -2.67501 0
M  V30 5165 O 500.566 -3.4161 -4.26574 0
M  V30 5166 H 497.66 -0.48872 -0.667144 0
M  V30 5167 H 500.206 -1.50165 -0.790486 0
M  V30 5168 H 498.978 -3.2953 -2.11011 0
M  V30 5169 H 498.601 -2.12291 -3.36182 0
M  V30 5170 N 499.598 0.982988 -1.23187 0
M  V30 5171 C 500.844 1.72648 -1.06398 0
M  V30 5172 C 501.177 1.90066 0.398561 0
M  V30 5173 O 500.452 1.45105 1.29518 0
M  V30 5174 C 500.735 3.12627 -1.78707 0
M  V30 5175 C 500.588 3.02795 -3.32618 0
M  V30 5176 C 501.907 4.11997 -1.54747 0
M  V30 5177 H 499.026 0.626649 -0.387918 0
M  V30 5178 H 501.668 1.14455 -1.51658 0
M  V30 5179 H 499.818 3.62308 -1.40234 0
M  V30 5180 H 501.49 2.60659 -3.80598 0
M  V30 5181 H 499.733 2.39362 -3.61785 0
M  V30 5182 H 500.404 4.01893 -3.78399 0
M  V30 5183 H 502.88 3.71114 -1.88186 0
M  V30 5184 H 501.756 5.08037 -2.07821 0
M  V30 5185 H 502.017 4.39462 -0.482249 0
M  V30 5186 N 501.076 1.04316 1.18135 0
M  V30 5187 C 502.322 0.749128 1.88457 0
M  V30 5188 C 502.655 -0.72149 1.803 0
M  V30 5189 O 501.93 -1.52676 1.205 0
M  V30 5190 C 502.213 1.21905 3.38838 0
M  V30 5191 C 502.066 2.75195 3.55792 0
M  V30 5192 C 503.385 0.811085 4.32561 0
M  V30 5193 H 500.504 0.273611 0.684329 0
M  V30 5194 H 503.146 1.29561 1.38975 0
M  V30 5195 H 501.296 0.754137 3.8111 0
M  V30 5196 H 502.968 3.29743 3.22595 0
M  V30 5197 H 501.211 3.14899 2.98364 0
M  V30 5198 H 501.882 3.03135 4.61317 0
M  V30 5199 H 504.358 1.21118 3.98082 0
M  V30 5200 H 503.234 1.16761 5.36338 0
M  V30 5201 H 503.495 -0.285596 4.41177 0
M  V30 5202 N 502.554 -1.34406 0.822964 0
M  V30 5203 C 503.487 -2.27407 0.190124 0
M  V30 5204 C 504.465 -1.4889 -0.653486 0
M  V30 5205 O 505.649 -1.78109 -0.617216 0
M  V30 5206 C 502.776 -3.3064 -0.734477 0
M  V30 5207 C 501.822 -4.26488 0.0316099 0
M  V30 5208 S 502.655 -5.17445 1.3788 0
M  V30 5209 C 503.811 -6.24214 0.45907 0
M  V30 5210 H 504.044 -2.80733 0.978586 0
M  V30 5211 H 501.577 -1.41455 0.618866 0
M  V30 5212 H 503.535 -3.90607 -1.26238 0
M  V30 5213 H 502.196 -2.76161 -1.49646 0
M  V30 5214 H 501.389 -4.9951 -0.671285 0
M  V30 5215 H 500.991 -3.70775 0.490066 0
M  V30 5216 H 503.283 -6.76599 -0.349357 0
M  V30 5217 H 504.226 -6.98551 1.15896 0
M  V30 5218 H 504.634 -5.6448 0.0474825 0
M  V30 5219 N 504.032 -0.577932 -1.46621 0
M  V30 5220 C 504.942 0.160651 -2.34049 0
M  V30 5221 C 505.958 0.890911 -1.49462 0
M  V30 5222 O 507.134 0.855166 -1.82343 0
M  V30 5223 C 504.199 1.16447 -3.26559 0
M  V30 5224 C 503.26 0.4394 -4.27045 0
M  V30 5225 C 502.493 1.3954 -5.15135 0
M  V30 5226 O 502.716 2.63162 -5.06065 0
M  V30 5227 O 501.65 0.908585 -5.95003 0
M  V30 5228 H 505.476 -0.557057 -2.98547 0
M  V30 5229 H 503.061 -0.338369 -1.45518 0
M  V30 5230 H 504.943 1.7434 -3.83645 0
M  V30 5231 H 503.618 1.86373 -2.64663 0
M  V30 5232 H 502.525 -0.181247 -3.73661 0
M  V30 5233 H 503.858 -0.218799 -4.91713 0
M  V30 5234 N 505.51 1.54411 -0.315457 0
M  V30 5235 C 506.42 2.27737 0.56329 0
M  V30 5236 C 507.436 1.31787 1.13614 0
M  V30 5237 O 508.612 1.64791 1.15784 0
M  V30 5238 C 505.677 3.01478 1.71207 0
M  V30 5239 C 504.738 4.12997 1.17185 0
M  V30 5240 C 503.971 4.83212 2.26588 0
M  V30 5241 O 504.194 4.52884 3.46775 0
M  V30 5242 O 503.128 5.70299 1.92463 0
M  V30 5243 H 506.954 3.03683 -0.0319614 0
M  V30 5244 H 504.539 1.49178 -0.0814188 0
M  V30 5245 H 506.421 3.47683 2.38106 0
M  V30 5246 H 505.096 2.28414 2.29366 0
M  V30 5247 H 504.003 3.71159 0.468174 0
M  V30 5248 H 505.336 4.8808 0.635501 0
M  V30 5249 N 506.988 0.0434614 1.5754 0
M  V30 5250 C 508.236 -0.630786 1.92004 0
M  V30 5251 C 508.557 -1.71836 0.921807 0
M  V30 5252 O 507.827 -1.9587 -0.034522 0
M  V30 5253 H 506.407 -0.235988 0.708745 0
M  V30 5254 H 509.069 0.0946462 1.9467 0
M  V30 5255 H 508.165 -1.07434 2.93026 0
M  V30 5256 N 508.466 -1.55915 -0.229846 0
M  V30 5257 C 509.691 -1.8296 -0.976743 0
M  V30 5258 C 510.116 -0.622735 -1.77493 0
M  V30 5259 O 509.474 0.428431 -1.76165 0
M  V30 5260 C 509.522 -3.07916 -1.8767 0
M  V30 5261 O 508.626 -2.86028 -2.97088 0
M  V30 5262 H 507.967 -0.603453 -0.277021 0
M  V30 5263 H 510.497 -2.0312 -0.245669 0
M  V30 5264 H 510.507 -3.37802 -2.2881 0
M  V30 5265 H 509.182 -3.95389 -1.28996 0
M  V30 5266 H 507.759 -2.67355 -2.59954 0
M  V30 5267 N 509.944 0.496216 -1.49584 0
M  V30 5268 C 511.221 1.25755 -1.49816 0
M  V30 5269 C 511.601 2.09859 -0.228572 0
M  V30 5270 O 510.949 2.14449 0.788908 0
M  V30 5271 C 511.159 2.11017 -2.7798 0
M  V30 5272 C 512.507 2.70047 -3.27658 0
M  V30 5273 O 513.531 2.21281 -2.79129 0
M  V30 5274 O 512.39 3.58834 -4.1219 0
M  V30 5275 H 509.484 0.569322 -0.599834 0
M  V30 5276 H 512.03 0.510094 -1.61852 0
M  V30 5277 H 510.802 1.48879 -3.61871 0
M  V30 5278 H 510.425 2.92947 -2.68827 0
M  V30 5279 N 511.423 1.38739 0.74761 0
M  V30 5280 C 512.7 1.25791 1.49786 0
M  V30 5281 C 513.08 -0.138075 2.10648 0
M  V30 5282 O 512.428 -1.14815 1.9756 0
M  V30 5283 C 512.638 2.37265 2.55942 0
M  V30 5284 C 513.986 2.75978 3.22679 0
M  V30 5285 O 515.01 2.36621 2.6625 0
M  V30 5286 O 513.869 3.43867 4.24756 0
M  V30 5287 H 510.963 0.492251 0.664543 0
M  V30 5288 H 513.509 1.50582 0.782511 0
M  V30 5289 H 512.281 3.30644 2.0926 0
M  V30 5290 H 511.904 2.14071 3.35051 0
M  V30 5291 N 512.901 -0.976442 1.23707 0
M  V30 5292 C 513.849 -2.09078 1.01927 0
M  V30 5293 C 514.843 -1.69345 -0.0430193 0
M  V30 5294 O 516.049 -1.79659 0.110814 0
M  V30 5295 H 512.424 -0.68398 0.312531 0
M  V30 5296 H 514.395 -2.24614 1.96447 0
M  V30 5297 C 513.144 -3.41919 0.631385 0
M  V30 5298 H 512.467 -3.72946 1.44053 0
M  V30 5299 H 513.907 -4.20817 0.518532 0
M  V30 5300 C 512.366 -3.30357 -0.660723 0
M  V30 5301 O 512.896 -3.63542 -1.70881 0
M  V30 5302 N 511.102 -2.83507 -0.638139 0
M  V30 5303 H 510.649 -2.567 0.215108 0
M  V30 5304 H 510.607 -2.76153 -1.50289 0
M  V30 5305 N 514.379 -1.04941 -1.1758 0
M  V30 5306 C 515.656 -0.671918 -1.83697 0
M  V30 5307 C 516.036 0.847929 -1.93322 0
M  V30 5308 O 515.384 1.75287 -1.46583 0
M  V30 5309 C 515.594 -1.35797 -3.21497 0
M  V30 5310 C 516.942 -1.4944 -3.97433 0
M  V30 5311 O 517.966 -1.31678 -3.30967 0
M  V30 5312 O 516.825 -1.78463 -5.1654 0
M  V30 5313 H 513.919 -0.236212 -0.792548 0
M  V30 5314 H 516.465 -1.14884 -1.24899 0
M  V30 5315 H 515.237 -2.39498 -3.09446 0
M  V30 5316 H 514.86 -0.870236 -3.8796 0
M  V30 5317 N 515.857 1.33968 -0.830081 0
M  V30 5318 C 517.082 2.02813 -0.433796 0
M  V30 5319 C 517.507 1.62076 0.954614 0
M  V30 5320 O 516.865 0.808955 1.62252 0
M  V30 5321 C 516.913 3.56348 -0.552115 0
M  V30 5322 O 516.017 4.10202 0.425191 0
M  V30 5323 H 515.358 0.639817 -0.177567 0
M  V30 5324 H 517.888 1.7106 -1.12248 0
M  V30 5325 H 517.898 4.05722 -0.430513 0
M  V30 5326 H 516.573 3.85344 -1.56471 0
M  V30 5327 H 515.15 3.71979 0.261878 0
M  V30 5328 N 517.335 0.585699 1.46312 0
M  V30 5329 C 518.245 -0.148236 2.34131 0
M  V30 5330 C 519.261 -0.882972 1.49932 0
M  V30 5331 O 520.437 -0.845484 1.82794 0
M  V30 5332 C 517.502 -1.14714 3.27172 0
M  V30 5333 C 516.563 -0.416746 4.27272 0
M  V30 5334 C 515.796 -1.36806 5.15868 0
M  V30 5335 O 516.019 -2.60475 5.07454 0
M  V30 5336 O 514.953 -0.877018 5.95476 0
M  V30 5337 H 518.779 0.572882 2.98248 0
M  V30 5338 H 516.364 0.346082 1.45336 0
M  V30 5339 H 518.246 -1.72303 3.84564 0
M  V30 5340 H 516.921 -1.84967 2.65648 0
M  V30 5341 H 515.828 0.201061 3.73559 0
M  V30 5342 H 517.161 0.244872 4.9159 0
M  V30 5343 N 518.813 -1.54241 0.323641 0
M  V30 5344 C 520.229 -1.59574 -0.0290018 0
M  V30 5345 C 520.429 -1.34017 -1.50472 0
M  V30 5346 O 519.485 -1.12464 -2.26071 0
M  V30 5347 C 520.798 -2.98169 0.389295 0
M  V30 5348 C 522.346 -3.11148 0.339958 0
M  V30 5349 C 522.821 -4.5209 0.733418 0
M  V30 5350 N 524.312 -4.5808 0.686827 0
M  V30 5351 C 525.047 -5.65248 0.963464 0
M  V30 5352 N 524.543 -6.80355 1.30724 0
M  V30 5353 N 526.336 -5.55025 0.88902 0
M  V30 5354 H 518.487 -1.6911 1.28512 0
M  V30 5355 H 520.75 -0.790972 0.522558 0
M  V30 5356 H 520.456 -3.21871 1.41746 0
M  V30 5357 H 520.33 -3.76399 -0.245657 0
M  V30 5358 H 522.717 -2.87182 -0.679002 0
M  V30 5359 H 522.798 -2.35023 1.00985 0
M  V30 5360 H 522.442 -4.76788 1.75029 0
M  V30 5361 H 522.372 -5.26584 0.0412189 0
M  V30 5362 H 524.863 -3.75411 0.43298 0
M  V30 5363 H 525.176 -7.58029 1.5037 0
M  V30 5364 H 523.521 -6.81851 1.3455 0
M  V30 5365 H 526.712 -4.63977 0.619939 0
M  V30 5366 H 526.885 -6.38458 1.10797 0
M  V30 5367 N 520.291 -0.0518155 -1.57515 0
M  V30 5368 C 521.239 0.940195 -2.12751 0
M  V30 5369 C 522.233 1.3218 -1.05948 0
M  V30 5370 O 523.439 1.30138 -1.24355 0
M  V30 5371 H 519.814 0.321066 -0.680015 0
M  V30 5372 H 521.785 0.449217 -2.94999 0
M  V30 5373 C 520.534 2.2055 -2.68799 0
M  V30 5374 H 519.857 1.92066 -3.50643 0
M  V30 5375 H 521.297 2.88119 -3.11068 0
M  V30 5376 C 519.756 2.95061 -1.62605 0
M  V30 5377 O 520.286 3.88025 -1.03921 0
M  V30 5378 N 518.492 2.57804 -1.34111 0
M  V30 5379 H 518.039 1.82281 -1.8202 0
M  V30 5380 H 517.997 3.07964 -0.632872 0
M  V30 5381 N 521.769 1.56035 0.221574 0
M  V30 5382 C 522.994 1.83476 0.967026 0
M  V30 5383 C 523.419 0.632139 1.7716 0
M  V30 5384 O 522.777 -0.419082 1.7639 0
M  V30 5385 C 522.825 3.08907 1.86034 0
M  V30 5386 O 521.929 2.876 2.95567 0
M  V30 5387 H 521.27 0.604913 0.273817 0
M  V30 5388 H 523.8 2.03247 0.234893 0
M  V30 5389 H 523.81 3.3901 2.27016 0
M  V30 5390 H 522.485 3.96068 1.26898 0
M  V30 5391 H 521.062 2.6873 2.58532 0
M  V30 5392 N 523.247 -0.488276 1.49845 0
M  V30 5393 C 524.495 -1.23911 1.59657 0
M  V30 5394 C 524.816 -1.92816 0.291005 0
M  V30 5395 O 524.086 -1.83328 -0.690485 0
M  V30 5396 H 522.666 -0.460357 0.588286 0
M  V30 5397 H 525.328 -0.564794 1.86537 0
M  V30 5398 H 524.424 -1.99625 2.39909 0
M  V30 5399 N 524.725 -1.39134 -0.740242 0
M  V30 5400 C 525.655 -1.40165 -1.86751 0
M  V30 5401 C 526.636 -0.265708 -1.68012 0
M  V30 5402 O 527.821 -0.47076 -1.88408 0
M  V30 5403 C 524.951 -1.2392 -3.2444 0
M  V30 5404 C 523.905 -2.34858 -3.57807 0
M  V30 5405 C 523.231 -2.03707 -4.94376 0
M  V30 5406 C 524.531 -3.77159 -3.61315 0
M  V30 5407 H 526.225 -2.345 -1.86145 0
M  V30 5408 H 523.771 -1.12875 -0.89416 0
M  V30 5409 H 525.724 -1.23263 -4.02969 0
M  V30 5410 H 524.448 -0.26051 -3.25559 0
M  V30 5411 H 523.107 -2.34723 -2.81604 0
M  V30 5412 H 522.755 -1.04289 -4.9207 0
M  V30 5413 H 522.455 -2.78016 -5.17669 0
M  V30 5414 H 523.979 -2.04691 -5.75268 0
M  V30 5415 H 525.393 -3.79252 -4.29931 0
M  V30 5416 H 523.79 -4.50784 -3.96124 0
M  V30 5417 H 524.86 -4.08513 -2.61238 0
M  V30 5418 N 526.204 0.969867 -1.24223 0
M  V30 5419 C 527.137 2.06279 -0.975926 0
M  V30 5420 C 528.115 1.62353 0.0895385 0
M  V30 5421 O 529.299 1.88442 -0.0469418 0
M  V30 5422 C 526.426 3.35391 -0.472315 0
M  V30 5423 C 525.472 3.98266 -1.526 0
M  V30 5424 S 526.305 4.36172 -3.10667 0
M  V30 5425 C 527.461 5.68423 -2.62003 0
M  V30 5426 H 527.694 2.28551 -1.90137 0
M  V30 5427 H 525.227 1.10748 -1.07584 0
M  V30 5428 H 527.185 4.10068 -0.188376 0
M  V30 5429 H 525.846 3.1111 0.432378 0
M  V30 5430 H 525.039 4.91307 -1.12399 0
M  V30 5431 H 524.641 3.30009 -1.75983 0
M  V30 5432 H 526.933 6.45842 -2.0468 0
M  V30 5433 H 527.876 6.13478 -3.53625 0
M  V30 5434 H 528.284 5.26928 -2.02502 0
M  V30 5435 N 527.682 1.05563 1.17022 0
M  V30 5436 C 528.959 0.68165 1.83338 0
M  V30 5437 C 529.339 -0.837665 1.93769 0
M  V30 5438 O 528.687 -1.74507 1.47511 0
M  V30 5439 C 528.897 1.375 3.20772 0
M  V30 5440 C 530.245 1.51545 3.96635 0
M  V30 5441 O 531.269 1.33431 3.30264 0
M  V30 5442 O 530.128 1.812 5.15586 0
M  V30 5443 H 527.222 0.240412 0.791285 0
M  V30 5444 H 529.768 1.15545 1.24288 0
M  V30 5445 H 528.54 2.41135 3.08171 0
M  V30 5446 H 528.163 0.890798 3.87493 0
M  V30 5447 N 529.16 -1.33526 0.837174 0
M  V30 5448 C 530.437 -1.92369 0.354065 0
M  V30 5449 C 530.817 -1.76348 -1.16038 0
M  V30 5450 O 530.165 -1.15083 -1.97403 0
M  V30 5451 C 530.375 -3.39728 0.799101 0
M  V30 5452 C 531.723 -4.16877 0.806139 0
M  V30 5453 O 532.747 -3.48373 0.742597 0
M  V30 5454 O 531.606 -5.39166 0.892345 0
M  V30 5455 H 528.7 -0.820952 0.0998378 0
M  V30 5456 H 531.246 -1.42409 0.922913 0
M  V30 5457 H 530.018 -3.45254 1.84162 0
M  V30 5458 H 529.641 -3.97062 0.206731 0
M  V30 5459 N 530.638 -0.59345 -1.46 0
M  V30 5460 C 531.571 0.182196 -2.27472 0
M  V30 5461 C 532.549 0.886901 -1.36282 0
M  V30 5462 O 533.733 0.898627 -1.65701 0
M  V30 5463 C 530.86 1.26236 -3.14296 0
M  V30 5464 C 529.906 0.662331 -4.21326 0
M  V30 5465 S 530.739 -0.519017 -5.32979 0
M  V30 5466 C 531.895 0.562086 -6.23371 0
M  V30 5467 H 532.128 -0.509056 -2.92909 0
M  V30 5468 H 529.661 -0.380607 -1.49635 0
M  V30 5469 H 531.619 1.88075 -3.64881 0
M  V30 5470 H 530.28 1.92562 -2.48151 0
M  V30 5471 H 529.473 1.47461 -4.81945 0
M  V30 5472 H 529.075 0.119381 -3.73809 0
M  V30 5473 H 531.367 1.44494 -6.61912 0
M  V30 5474 H 532.31 -0.00760776 -7.081 0
M  V30 5475 H 532.718 0.871061 -5.57739 0
M  V30 5476 N 532.116 1.54067 -0.331816 0
M  V30 5477 C 533.026 2.28322 0.539104 0
M  V30 5478 C 534.042 1.32985 1.1221 0
M  V30 5479 O 535.218 1.6601 1.1403 0
M  V30 5480 C 532.283 3.03277 1.68 0
M  V30 5481 C 531.344 4.14216 1.12798 0
M  V30 5482 C 530.577 4.85588 2.2145 0
M  V30 5483 O 530.8 4.56536 3.41952 0
M  V30 5484 O 529.734 5.72309 1.86404 0
M  V30 5485 H 533.56 3.03632 -0.0641692 0
M  V30 5486 H 531.145 1.49083 -0.0972365 0
M  V30 5487 H 533.027 3.50189 2.34405 0
M  V30 5488 H 531.702 2.30834 2.2693 0
M  V30 5489 H 530.609 3.71635 0.428782 0
M  V30 5490 H 531.942 4.88727 0.583698 0
M  V30 5491 N 533.594 0.0601682 1.57485 0
M  V30 5492 C 534.504 -0.926121 2.15546 0
M  V30 5493 C 535.52 -1.33532 1.11558 0
M  V30 5494 O 536.696 -1.4104 1.4377 0
M  V30 5495 C 533.761 -2.17952 2.69625 0
M  V30 5496 C 532.822 -1.82783 3.88444 0
M  V30 5497 C 532.055 -3.02148 4.39935 0
M  V30 5498 O 532.278 -4.15803 3.90466 0
M  V30 5499 O 531.212 -2.82639 5.31412 0
M  V30 5500 H 535.038 -0.462289 3.00161 0
M  V30 5501 H 532.623 -0.162246 1.48516 0
M  V30 5502 H 534.505 -2.91474 3.04337 0
M  V30 5503 H 533.18 -2.63456 1.88077 0
M  V30 5504 H 532.087 -1.06549 3.58606 0
M  V30 5505 H 533.42 -1.42072 4.7125 0
M  V30 5506 N 535.072 -1.5615 -0.213296 0
M  V30 5507 C 536.035 -1.92249 -1.24792 0
M  V30 5508 C 537.035 -0.801828 -1.39382 0
M  V30 5509 O 538.225 -1.06948 -1.37506 0
M  V30 5510 C 535.357 -2.18056 -2.62039 0
M  V30 5511 H 536.55 -2.84793 -0.939845 0
M  V30 5512 H 534.103 -1.49559 -0.454062 0
M  V30 5513 H 534.838 -1.2809 -2.97932 0
M  V30 5514 H 534.623 -2.99703 -2.52825 0
M  V30 5515 H 536.113 -2.47051 -3.36683 0
M  V30 5516 N 536.55 0.480323 -1.50102 0
M  V30 5517 C 537.483 1.59789 -1.62919 0
M  V30 5518 C 538.461 1.55429 -0.477557 0
M  V30 5519 O 539.645 1.75186 -0.695851 0
M  V30 5520 C 536.772 2.98351 -1.60325 0
M  V30 5521 C 535.818 3.20899 -2.80938 0
M  V30 5522 S 536.651 3.01791 -4.4236 0
M  V30 5523 C 537.807 4.42712 -4.42444 0
M  V30 5524 H 538.04 1.48676 -2.57454 0
M  V30 5525 H 535.573 0.666996 -1.3925 0
M  V30 5526 H 537.531 3.7824 -1.59514 0
M  V30 5527 H 536.192 3.06862 -0.670419 0
M  V30 5528 H 535.385 4.22102 -2.75401 0
M  V30 5529 H 534.987 2.48768 -2.79268 0
M  V30 5530 H 537.279 5.3518 -4.15438 0
M  V30 5531 H 538.222 4.53294 -5.43995 0
M  V30 5532 H 538.63 4.24359 -3.72263 0
M  V30 5533 N 538.028 1.39524 0.732853 0
M  V30 5534 C 539.274 1.37068 1.49467 0
M  V30 5535 C 539.607 -0.0327166 1.94172 0
M  V30 5536 O 538.882 -0.998071 1.66939 0
M  V30 5537 C 539.165 2.34494 2.73285 0
M  V30 5538 C 539.018 3.83784 2.34585 0
M  V30 5539 C 540.337 2.29717 3.75391 0
M  V30 5540 H 537.456 0.499206 0.542183 0
M  V30 5541 H 540.098 1.70532 0.837783 0
M  V30 5542 H 538.248 2.06087 3.29333 0
M  V30 5543 H 539.92 4.22949 1.84151 0
M  V30 5544 H 538.163 4.00455 1.66787 0
M  V30 5545 H 538.834 4.47444 3.23262 0
M  V30 5546 H 541.31 2.54839 3.28932 0
M  V30 5547 H 540.186 2.99962 4.59689 0
M  V30 5548 H 540.447 1.30291 4.22465 0
M  V30 5549 N 539.506 -0.963266 1.24736 0
M  V30 5550 C 540.438 -2.06162 1.0015 0
M  V30 5551 C 541.451 -1.62771 -0.0305905 0
M  V30 5552 O 542.64 -1.77296 0.206966 0
M  V30 5553 C 539.74 -3.35333 0.490385 0
M  V30 5554 C 538.913 -4.07609 1.58663 0
M  V30 5555 C 537.972 -5.15052 1.0774 0
M  V30 5556 O 536.998 -5.4098 1.77002 0
M  V30 5557 N 538.2 -5.80436 -0.0858605 0
M  V30 5558 H 540.965 -2.27825 1.94719 0
M  V30 5559 H 538.526 -1.13121 1.15825 0
M  V30 5560 H 540.518 -4.04477 0.134371 0
M  V30 5561 H 539.088 -3.10507 -0.361155 0
M  V30 5562 H 538.308 -3.32681 2.11463 0
M  V30 5563 H 539.596 -4.52656 2.32336 0
M  V30 5564 H 538.994 -5.6178 -0.664806 0
M  V30 5565 H 537.551 -6.50674 -0.382981 0
M  V30 5566 N 540.985 -1.06182 -1.16461 0
M  V30 5567 C 542.262 -0.691364 -1.82974 0
M  V30 5568 C 542.642 0.827377 -1.9421 0
M  V30 5569 O 541.99 1.73723 -1.48434 0
M  V30 5570 C 542.2 -1.39199 -3.20038 0
M  V30 5571 C 543.548 -1.53647 -3.95825 0
M  V30 5572 O 544.572 -1.35181 -3.29552 0
M  V30 5573 O 543.431 -1.83932 -5.14618 0
M  V30 5574 H 540.525 -0.244605 -0.789998 0
M  V30 5575 H 543.071 -1.16203 -1.23673 0
M  V30 5576 H 541.843 -2.42766 -3.06888 0
M  V30 5577 H 541.466 -0.911335 -3.87015 0
M  V30 5578 N 542.463 1.3308 -0.844243 0
M  V30 5579 C 543.426 2.27403 -0.286485 0
M  V30 5580 C 544.426 1.51179 0.547872 0
M  V30 5581 O 545.616 1.70421 0.360886 0
M  V30 5582 C 542.748 3.35653 0.595813 0
M  V30 5583 H 543.941 2.78248 -1.11885 0
M  V30 5584 H 541.494 1.43574 -0.617749 0
M  V30 5585 H 542.229 2.90058 1.4504 0
M  V30 5586 H 542.014 3.921 -0.00125994 0
M  V30 5587 H 543.504 4.05958 0.979168 0
M  V30 5588 N 543.941 0.601185 1.45683 0
M  V30 5589 C 544.851 -0.123395 2.34275 0
M  V30 5590 C 545.867 -0.86702 1.5086 0
M  V30 5591 O 547.043 -0.826049 1.8368 0
M  V30 5592 C 544.108 -1.11237 3.2837 0
M  V30 5593 C 543.169 -0.371405 4.2769 0
M  V30 5594 C 542.402 -1.31327 5.1729 0
M  V30 5595 O 542.625 -2.55078 5.10188 0
M  V30 5596 O 541.559 -0.813811 5.96373 0
M  V30 5597 H 545.385 0.604483 2.97623 0
M  V30 5598 H 542.97 0.361477 1.44961 0
M  V30 5599 H 544.852 -1.68214 3.8637 0
M  V30 5600 H 543.527 -1.82139 2.67595 0
M  V30 5601 H 542.434 0.24067 3.73325 0
M  V30 5602 H 543.767 0.296998 4.91303 0
M  V30 5603 N 545.419 -1.53889 0.339982 0
M  V30 5604 C 546.352 -2.21187 -0.561405 0
M  V30 5605 C 547.33 -1.19463 -1.10306 0
M  V30 5606 O 548.514 -1.48268 -1.164 0
M  V30 5607 C 545.641 -2.8865 -1.77198 0
M  V30 5608 C 544.687 -4.04232 -1.3601 0
M  V30 5609 S 545.52 -5.34129 -0.382909 0
M  V30 5610 C 546.676 -6.05094 -1.60039 0
M  V30 5611 H 546.909 -2.97298 0.0102092 0
M  V30 5612 H 544.442 -1.53901 0.124056 0
M  V30 5613 H 546.4 -3.28138 -2.4665 0
M  V30 5614 H 545.061 -2.12311 -2.3148 0
M  V30 5615 H 544.254 -4.50358 -2.2626 0
M  V30 5616 H 543.856 -3.66503 -0.745098 0
M  V30 5617 H 546.148 -6.2827 -2.53541 0
M  V30 5618 H 547.091 -6.98182 -1.18099 0
M  V30 5619 H 547.499 -5.35207 -1.79483 0
M  V30 5620 N 546.897 -0.0685191 -1.57451 0
M  V30 5621 C 547.86 0.885173 -2.11417 0
M  V30 5622 C 548.86 1.22853 -1.03748 0
M  V30 5623 O 550.05 1.16235 -1.2975 0
M  V30 5624 C 547.182 2.18964 -2.61281 0
M  V30 5625 H 548.375 0.417034 -2.96986 0
M  V30 5626 H 545.928 0.18014 -1.55258 0
M  V30 5627 H 546.663 2.70321 -1.79156 0
M  V30 5628 H 546.448 1.9534 -3.39977 0
M  V30 5629 H 547.938 2.87242 -3.0312 0
M  V30 5630 N 548.375 1.56261 0.205012 0
M  V30 5631 C 549.308 1.88797 1.28183 0
M  V30 5632 C 550.286 0.747018 1.44424 0
M  V30 5633 O 551.47 0.997039 1.59973 0
M  V30 5634 C 548.597 2.10949 2.64987 0
M  V30 5635 C 547.643 3.33649 2.6567 0
M  V30 5636 S 548.476 4.89078 2.18088 0
M  V30 5637 C 549.632 5.14286 3.56736 0
M  V30 5638 H 549.865 2.79837 1.00393 0
M  V30 5639 H 547.398 1.48911 0.408042 0
M  V30 5640 H 549.356 2.24395 3.4374 0
M  V30 5641 H 548.017 1.20678 2.89993 0
M  V30 5642 H 547.21 3.46245 3.66239 0
M  V30 5643 H 546.812 3.19146 1.94992 0
M  V30 5644 H 549.104 5.04198 4.52537 0
M  V30 5645 H 550.047 6.16096 3.49043 0
M  V30 5646 H 550.455 4.41957 3.51189 0
M  V30 5647 N 549.853 -0.472356 1.50355 0
M  V30 5648 C 550.816 -1.5529 1.68576 0
M  V30 5649 C 551.816 -1.50863 0.556511 0
M  V30 5650 O 553.006 -1.53505 0.823516 0
M  V30 5651 C 550.138 -2.94921 1.70981 0
M  V30 5652 H 551.331 -1.40451 2.64978 0
M  V30 5653 H 548.884 -0.698645 1.39816 0
M  V30 5654 H 549.619 -3.15204 0.762675 0
M  V30 5655 H 549.404 -2.99541 2.53017 0
M  V30 5656 H 550.894 -3.73372 1.87037 0
M  V30 5657 N 551.331 -1.39911 -0.725443 0
M  V30 5658 C 552.241 -1.41688 -1.8698 0
M  V30 5659 C 553.257 -0.310579 -1.71206 0
M  V30 5660 O 554.433 -0.55359 -1.93642 0
M  V30 5661 C 551.498 -1.26811 -3.22676 0
M  V30 5662 C 550.559 -2.47497 -3.50776 0
M  V30 5663 C 549.792 -2.3332 -4.79997 0
M  V30 5664 O 550.015 -1.34175 -5.54394 0
M  V30 5665 O 548.949 -3.22498 -5.08211 0
M  V30 5666 H 552.775 -2.38171 -1.88436 0
M  V30 5667 H 550.36 -1.21128 -0.874548 0
M  V30 5668 H 552.242 -1.20684 -4.03749 0
M  V30 5669 H 550.917 -0.334289 -3.21969 0
M  V30 5670 H 549.824 -2.59201 -2.69751 0
M  V30 5671 H 551.157 -3.39606 -3.5627 0
M  V30 5672 N 552.809 0.956637 -1.25245 0
M  V30 5673 C 554.049 1.71585 -1.11076 0
M  V30 5674 C 554.413 1.88916 0.34277 0
M  V30 5675 O 555.614 2.61875 0.606227 0
M  V30 5676 C 553.885 3.06267 -1.84215 0
M  V30 5677 S 555.444 3.97469 -1.85914 0
M  V30 5678 H 552.262 0.589803 -0.397055 0
M  V30 5679 H 554.864 1.14114 -1.58739 0
M  V30 5680 H 553.568 2.91322 -2.89067 0
M  V30 5681 H 553.099 3.688 -1.36931 0
M  V30 5682 H 555.114 4.87316 -0.93474 0
M  V30 5683 N 554.287 1.06798 1.15896 0
M  V30 5684 C 555.219 0.641263 2.20046 0
M  V30 5685 C 556.232 -0.303355 1.59949 0
M  V30 5686 O 557.421 -0.0935478 1.78255 0
M  V30 5687 C 554.521 -0.0794029 3.38807 0
M  V30 5688 C 553.694 0.879986 4.28457 0
M  V30 5689 C 552.753 0.197638 5.25829 0
M  V30 5690 O 551.779 0.836913 5.63014 0
M  V30 5691 N 552.981 -1.05886 5.70761 0
M  V30 5692 H 555.746 1.53718 2.57276 0
M  V30 5693 H 553.307 0.951951 1.30956 0
M  V30 5694 H 555.299 -0.546418 4.00994 0
M  V30 5695 H 553.869 -0.877193 3.0004 0
M  V30 5696 H 553.089 1.52625 3.63454 0
M  V30 5697 H 554.377 1.53065 4.8523 0
M  V30 5698 H 553.775 -1.59828 5.42652 0
M  V30 5699 H 552.332 -1.46965 6.35015 0
M  V30 5700 N 555.766 -1.3263 0.851289 0
M  V30 5701 C 556.714 -2.30882 0.282202 0
M  V30 5702 C 557.708 -1.58697 -0.592589 0
M  V30 5703 O 558.914 -1.73461 -0.480768 0
M  V30 5704 H 555.289 -0.748492 0.0725487 0
M  V30 5705 H 557.26 -2.76374 1.12516 0
M  V30 5706 C 556.009 -3.43828 -0.517449 0
M  V30 5707 H 555.332 -3.99532 0.146392 0
M  V30 5708 H 556.772 -4.1474 -0.88128 0
M  V30 5709 C 555.231 -2.90786 -1.70133 0
M  V30 5710 O 555.761 -2.88 -2.80034 0
M  V30 5711 N 553.967 -2.4723 -1.52728 0
M  V30 5712 H 553.514 -2.49695 -0.633257 0
M  V30 5713 H 553.472 -2.12094 -2.32085 0
M  V30 5714 N 557.244 -0.608902 -1.45362 0
M  V30 5715 C 558.521 -0.0365378 -1.95566 0
M  V30 5716 C 558.901 1.43169 -1.55131 0
M  V30 5717 O 558.249 2.1349 -0.814513 0
M  V30 5718 C 558.459 -0.236026 -3.48201 0
M  V30 5719 C 559.807 -0.117518 -4.24437 0
M  V30 5720 O 560.831 -0.166217 -3.55812 0
M  V30 5721 O 559.69 -0.00372127 -5.465 0
M  V30 5722 H 556.784 0.0349874 -0.82626 0
M  V30 5723 H 559.33 -0.679055 -1.55521 0
M  V30 5724 H 558.102 -1.25569 -3.70605 0
M  V30 5725 H 557.725 0.441691 -3.95139 0
M  V30 5726 N 558.722 1.53707 -0.348139 0
M  V30 5727 C 559.947 2.05877 0.250883 0
M  V30 5728 C 560.372 1.22115 1.43072 0
M  V30 5729 O 559.73 0.235986 1.79758 0
M  V30 5730 C 559.778 3.54886 0.639416 0
M  V30 5731 O 558.882 3.73948 1.73888 0
M  V30 5732 H 558.223 0.662754 0.040653 0
M  V30 5733 H 560.753 1.98303 -0.503685 0
M  V30 5734 H 560.763 3.97601 0.915295 0
M  V30 5735 H 559.438 4.153 -0.223386 0
M  V30 5736 H 558.015 3.43134 1.45991 0
M  V30 5737 N 560.2 0.0768682 1.57412 0
M  V30 5738 C 561.448 -0.589918 1.93299 0
M  V30 5739 C 561.769 -1.69842 0.958049 0
M  V30 5740 O 561.039 -1.95899 0.00703261 0
M  V30 5741 H 559.619 -0.220901 0.713591 0
M  V30 5742 H 562.281 0.135917 1.94425 0
M  V30 5743 H 561.377 -1.01195 2.95239 0
M  V30 5744 N 561.678 -1.56367 -0.196722 0
M  V30 5745 C 562.588 -1.97617 -1.2643 0
M  V30 5746 C 563.604 -0.883598 -1.49895 0
M  V30 5747 O 564.78 -1.18921 -1.62541 0
M  V30 5748 C 561.845 -2.30595 -2.58895 0
M  V30 5749 C 560.906 -3.53551 -2.43516 0
M  V30 5750 C 560.139 -3.84946 -3.69665 0
M  V30 5751 O 560.362 -3.17655 -4.73763 0
M  V30 5752 O 559.296 -4.78379 -3.65291 0
M  V30 5753 H 563.122 -2.88648 -0.944233 0
M  V30 5754 H 560.707 -1.43901 -0.401592 0
M  V30 5755 H 562.589 -2.52889 -3.37083 0
M  V30 5756 H 561.264 -1.42732 -2.90533 0
M  V30 5757 H 560.171 -3.36507 -1.63445 0
M  V30 5758 H 561.504 -4.41875 -2.16812 0
M  V30 5759 N 563.156 0.464375 -1.50603 0
M  V30 5760 C 564.089 1.58052 -1.64605 0
M  V30 5761 C 565.067 1.54914 -0.494016 0
M  V30 5762 O 566.251 1.74438 -0.714393 0
M  V30 5763 C 563.378 2.96634 -1.63481 0
M  V30 5764 C 562.424 3.17901 -2.84325 0
M  V30 5765 S 563.257 2.97083 -4.45536 0
M  V30 5766 C 564.413 4.37994 -4.47115 0
M  V30 5767 H 564.646 1.45937 -2.59017 0
M  V30 5768 H 562.179 0.652189 -1.39949 0
M  V30 5769 H 564.137 3.76527 -1.63517 0
M  V30 5770 H 562.798 3.06134 -0.702928 0
M  V30 5771 H 561.991 4.19158 -2.79862 0
M  V30 5772 H 561.593 2.45792 -2.81891 0
M  V30 5773 H 563.885 5.30743 -4.21091 0
M  V30 5774 H 564.828 4.47499 -5.48772 0
M  V30 5775 H 565.236 4.20386 -3.76743 0
M  V30 5776 N 564.634 1.40294 0.718013 0
M  V30 5777 C 565.566 1.36281 1.84283 0
M  V30 5778 C 566.579 0.268621 1.60569 0
M  V30 5779 O 567.768 0.528798 1.70487 0
M  V30 5780 C 564.868 1.09741 3.2064 0
M  V30 5781 C 564.041 2.30767 3.71571 0
M  V30 5782 C 563.1 2.00424 4.86535 0
M  V30 5783 O 562.126 2.73268 4.99313 0
M  V30 5784 N 563.328 0.980724 5.72156 0
M  V30 5785 H 566.093 2.3322 1.88225 0
M  V30 5786 H 563.654 1.34616 0.899453 0
M  V30 5787 H 565.646 0.874322 3.95143 0
M  V30 5788 H 564.216 0.214771 3.11861 0
M  V30 5789 H 563.436 2.68921 2.88228 0
M  V30 5790 H 564.724 3.11455 4.02335 0
M  V30 5791 H 564.122 0.377375 5.6444 0
M  V30 5792 H 562.679 0.817538 6.46653 0
M  V30 5793 N 566.112 -0.949982 1.2575 0
M  V30 5794 C 567.389 -1.6718 1.01539 0
M  V30 5795 C 567.769 -2.06095 -0.456942 0
M  V30 5796 O 567.117 -1.77792 -1.43534 0
M  V30 5797 C 567.327 -2.8906 1.95564 0
M  V30 5798 C 568.675 -3.60909 2.23673 0
M  V30 5799 O 569.699 -2.9915 1.9336 0
M  V30 5800 O 568.558 -4.72127 2.75243 0
M  V30 5801 H 565.652 -0.731697 0.385419 0
M  V30 5802 H 568.198 -1.00249 1.36924 0
M  V30 5803 H 566.97 -2.57128 2.94959 0
M  V30 5804 H 566.593 -3.63719 1.60605 0
M  V30 5805 N 567.59 -1.07411 -1.15328 0
M  V30 5806 C 569.001 -0.820261 -1.67716 0
M  V30 5807 C 569.352 0.654539 -1.8496 0
M  V30 5808 O 568.477 1.50664 -1.55337 0
M  V30 5809 C 569.072 -1.48242 -3.04647 0
M  V30 5810 C 567.631 -1.27606 -3.5411 0
M  V30 5811 C 566.778 -1.5517 -2.29821 0
M  V30 5812 H 569.729 -1.23608 -0.995332 0
M  V30 5813 H 569.75 -0.903984 -3.69606 0
M  V30 5814 H 569.262 -2.55578 -2.92064 0
M  V30 5815 H 567.363 -0.222948 -3.71932 0
M  V30 5816 H 567.476 -1.99667 -4.35511 0
M  V30 5817 H 565.84 -0.972747 -2.35393 0
M  V30 5818 H 566.623 -2.63689 -2.19824 0
M  V30 5819 N 569.068 1.32177 -0.85831 0
M  V30 5820 C 570.345 1.91781 -0.384624 0
M  V30 5821 C 570.725 1.78171 1.13217 0
M  V30 5822 O 570.073 1.18209 1.95548 0
M  V30 5823 C 570.283 3.38414 -0.853047 0
M  V30 5824 C 571.631 4.15542 -0.872359 0
M  V30 5825 O 572.655 3.47148 -0.797926 0
M  V30 5826 O 571.514 5.37678 -0.978009 0
M  V30 5827 H 568.608 0.819259 -0.112886 0
M  V30 5828 H 571.154 1.40923 -0.945453 0
M  V30 5829 H 569.926 3.4228 -1.89632 0
M  V30 5830 H 569.549 3.96683 -0.269874 0
M  V30 5831 N 570.547 0.616602 1.45037 0
M  V30 5832 C 571.958 0.199359 1.85633 0
M  V30 5833 C 572.309 -1.24588 1.51566 0
M  V30 5834 O 571.434 -1.94594 0.94668 0
M  V30 5835 C 572.029 0.355033 3.36935 0
M  V30 5836 C 570.588 -0.00758748 3.76399 0
M  V30 5837 C 569.735 0.675256 2.68953 0
M  V30 5838 H 572.686 0.822708 1.3571 0
M  V30 5839 H 572.707 -0.410201 3.78282 0
M  V30 5840 H 572.219 1.40699 3.61698 0
M  V30 5841 H 570.32 -1.05837 3.57252 0
M  V30 5842 H 570.433 0.392346 4.77491 0
M  V30 5843 H 568.797 0.111992 2.54454 0
M  V30 5844 H 569.58 1.72952 2.96551 0
M  V30 5845 N 572.025 -1.5352 0.356285 0
M  V30 5846 C 573.302 -1.93405 -0.292223 0
M  V30 5847 C 573.682 -1.28901 -1.67176 0
M  V30 5848 O 573.03 -0.444632 -2.24132 0
M  V30 5849 C 573.24 -3.47223 -0.35175 0
M  V30 5850 C 574.588 -4.20389 -0.596534 0
M  V30 5851 O 575.612 -3.53554 -0.433344 0
M  V30 5852 O 574.471 -5.3881 -0.913589 0
M  V30 5853 H 571.565 -0.808666 -0.173172 0
M  V30 5854 H 574.111 -1.64713 0.408391 0
M  V30 5855 H 572.883 -3.86423 0.615841 0
M  V30 5856 H 572.506 -3.8212 -1.09864 0
M  V30 5857 N 573.503 -0.0852151 -1.57369 0
M  V30 5858 C 574.453 0.88767 -2.10011 0
M  V30 5859 C 575.437 1.25021 -1.01285 0
M  V30 5860 O 576.629 1.22694 -1.27574 0
M  V30 5861 C 573.758 2.15037 -2.67608 0
M  V30 5862 C 572.844 1.81371 -3.83361 0
M  V30 5863 N 573.235 1.18216 -4.91791 0
M  V30 5864 C 571.533 2.11041 -3.92909 0
M  V30 5865 C 572.234 1.02941 -5.72519 0
M  V30 5866 N 571.21 1.54351 -5.21226 0
M  V30 5867 H 575.012 0.395279 -2.9123 0
M  V30 5868 H 572.526 0.11829 -1.61969 0
M  V30 5869 H 574.523 2.85667 -3.03644 0
M  V30 5870 H 573.183 2.64851 -1.8784 0
M  V30 5871 H 574.194 0.850168 -5.10874 0
M  V30 5872 H 570.871 2.63138 -3.24136 0
M  V30 5873 H 572.261 0.536298 -6.69756 0
M  V30 5874 N 574.981 1.5647 0.188427 0
M  V30 5875 C 575.891 1.98285 1.2538 0
M  V30 5876 C 576.907 0.891535 1.49424 0
M  V30 5877 O 578.083 1.19782 1.61908 0
M  V30 5878 C 575.148 2.31965 2.57669 0
M  V30 5879 C 574.209 3.54838 2.41638 0
M  V30 5880 C 573.442 3.86901 3.67618 0
M  V30 5881 O 573.665 3.20163 4.72072 0
M  V30 5882 O 572.599 4.80309 3.62749 0
M  V30 5883 H 576.425 2.89145 0.928912 0
M  V30 5884 H 574.01 1.44112 0.393955 0
M  V30 5885 H 575.892 2.54673 3.35737 0
M  V30 5886 H 574.567 1.44271 2.89771 0
M  V30 5887 H 573.474 3.37369 1.61658 0
M  V30 5888 H 574.807 4.43019 2.14465 0
M  V30 5889 N 576.459 -0.456382 1.50847 0
M  V30 5890 C 577.736 -1.21739 1.53098 0
M  V30 5891 C 578.116 -2.09179 0.284132 0
M  V30 5892 O 577.464 -2.16466 -0.731773 0
M  V30 5893 C 577.674 -2.03573 2.83477 0
M  V30 5894 C 579.022 -2.61264 3.34703 0
M  V30 5895 O 580.046 -2.13802 2.84898 0
M  V30 5896 O 578.905 -3.47779 4.21559 0
M  V30 5897 H 575.999 -0.553219 0.614718 0
M  V30 5898 H 578.545 -0.467003 1.63148 0
M  V30 5899 H 577.317 -1.39232 3.65691 0
M  V30 5900 H 576.94 -2.85716 2.76499 0
M  V30 5901 N 577.937 -1.40673 -0.710563 0
M  V30 5902 C 578.9 -1.4108 -1.80635 0
M  V30 5903 C 579.9 -0.303783 -1.57904 0
M  V30 5904 O 581.09 -0.562937 -1.64853 0
M  V30 5905 C 578.222 -1.20748 -3.18799 0
M  V30 5906 H 579.415 -2.38612 -1.81671 0
M  V30 5907 H 576.968 -1.26595 -0.916704 0
M  V30 5908 H 577.703 -0.239964 -3.23411 0
M  V30 5909 H 577.488 -2.00941 -3.36698 0
M  V30 5910 H 578.978 -1.23833 -3.98817 0
M  V30 5911 N 579.415 0.9433 -1.26252 0
M  V30 5912 C 580.363 2.06302 -1.07434 0
M  V30 5913 C 581.357 1.694 -0.00189471 0
M  V30 5914 O 582.563 1.79302 -0.158408 0
M  V30 5915 H 578.938 0.675453 -0.330556 0
M  V30 5916 H 580.909 2.19326 -2.02333 0
M  V30 5917 C 579.658 3.40125 -0.721817 0
M  V30 5918 H 578.981 3.68996 -1.5389 0
M  V30 5919 H 580.421 4.19295 -0.629922 0
M  V30 5920 C 578.88 3.31993 0.572902 0
M  V30 5921 O 579.41 3.67945 1.61182 0
M  V30 5922 N 577.616 2.85099 0.562748 0
M  V30 5923 H 577.163 2.5604 -0.283092 0
M  V30 5924 H 577.121 2.80041 1.42915 0
M  V30 5925 N 580.893 1.08022 1.14757 0
M  V30 5926 C 582.309 0.807072 1.3769 0
M  V30 5927 C 582.509 -0.585504 1.92806 0
M  V30 5928 O 581.565 -1.34301 2.13821 0
M  V30 5929 C 582.878 1.88651 2.34161 0
M  V30 5930 C 584.426 1.91206 2.47809 0
M  V30 5931 C 584.901 2.98253 3.47576 0
M  V30 5932 N 586.392 2.974 3.55117 0
M  V30 5933 C 587.127 3.76872 4.32152 0
M  V30 5934 N 586.623 4.66212 5.12463 0
M  V30 5935 N 588.416 3.6519 4.27309 0
M  V30 5936 H 580.567 1.97824 0.77326 0
M  V30 5937 H 582.83 0.85826 0.402608 0
M  V30 5938 H 582.536 2.88749 2.00791 0
M  V30 5939 H 582.41 1.75244 3.3402 0
M  V30 5940 H 584.797 0.917564 2.80472 0
M  V30 5941 H 584.878 2.08691 1.47925 0
M  V30 5942 H 584.522 3.97907 3.15646 0
M  V30 5943 H 584.452 2.78014 4.47231 0
M  V30 5944 H 586.943 2.32643 2.97801 0
M  V30 5945 H 587.256 5.23468 5.68508 0
M  V30 5946 H 585.601 4.70257 5.11745 0
M  V30 5947 H 588.792 2.94765 3.63636 0
M  V30 5948 H 588.965 4.27366 4.87095 0
M  V30 5949 N 582.371 -1.3172 0.865308 0
M  V30 5950 C 583.599 -2.01057 0.488251 0
M  V30 5951 C 584.014 -1.64979 -0.918 0
M  V30 5952 O 583.371 -0.876597 -1.60069 0
M  V30 5953 C 583.422 -3.55964 0.630224 0
M  V30 5954 O 583.143 -3.90749 1.98109 0
M  V30 5955 C 584.644 -4.42574 0.253567 0
M  V30 5956 H 581.864 -0.64332 0.190736 0
M  V30 5957 H 584.408 -1.68058 1.16519 0
M  V30 5958 H 582.563 -3.874 0.000895422 0
M  V30 5959 H 582.977 -4.85467 1.9855 0
M  V30 5960 H 584.451 -5.50521 0.403875 0
M  V30 5961 H 584.928 -4.31724 -0.806895 0
M  V30 5962 H 585.534 -4.16547 0.858404 0
M  V30 5963 N 583.85 -0.624285 -1.44708 0
M  V30 5964 C 585.099 -0.123539 -2.01321 0
M  V30 5965 C 585.412 1.25966 -1.49639 0
M  V30 5966 O 586.618 1.85405 -1.98336 0
M  V30 5967 C 585.074 -0.170124 -3.59498 0
M  V30 5968 C 584.682 -1.55421 -4.20176 0
M  V30 5969 C 586.426 0.274513 -4.23611 0
M  V30 5970 C 584.332 -1.55628 -5.70556 0
M  V30 5971 H 583.263 -0.0424183 -0.752806 0
M  V30 5972 H 585.913 -0.782076 -1.65999 0
M  V30 5973 H 584.296 0.555385 -3.92086 0
M  V30 5974 H 585.47 -2.30276 -3.99136 0
M  V30 5975 H 583.784 -1.94235 -3.68323 0
M  V30 5976 H 586.382 0.292402 -5.339 0
M  V30 5977 H 586.725 1.3005 -3.95465 0
M  V30 5978 H 587.258 -0.398275 -3.95801 0
M  V30 5979 H 583.997 -2.56041 -6.03426 0
M  V30 5980 H 583.517 -0.850563 -5.93739 0
M  V30 5981 H 585.196 -1.28721 -6.34066 0
M  V30 5982 N 585.328 1.53329 -0.364422 0
M  V30 5983 C 586.553 2.06132 0.229033 0
M  V30 5984 C 586.978 1.23625 1.41769 0
M  V30 5985 O 586.336 0.255038 1.79497 0
M  V30 5986 C 586.384 3.55544 0.60174 0
M  V30 5987 O 585.488 3.75771 1.69912 0
M  V30 5988 H 584.829 0.663148 0.0336213 0
M  V30 5989 H 587.359 1.97758 -0.524689 0
M  V30 5990 H 587.369 3.98549 0.873073 0
M  V30 5991 H 586.044 4.15039 -0.267421 0
M  V30 5992 H 584.621 3.44663 1.42343 0
M  V30 5993 N 586.806 0.0935595 1.57322 0
M  V30 5994 C 588.217 -0.435807 1.81542 0
M  V30 5995 C 588.568 -1.68263 1.00907 0
M  V30 5996 O 587.693 -2.15087 0.237983 0
M  V30 5997 C 588.288 -0.797436 3.29282 0
M  V30 5998 C 586.847 -1.27155 3.54272 0
M  V30 5999 C 585.994 -0.267455 2.76007 0
M  V30 6000 H 588.945 0.31902 1.5546 0
M  V30 6001 H 588.966 -1.6571 3.42521 0
M  V30 6002 H 588.478 0.110206 3.87943 0
M  V30 6003 H 586.579 -2.19696 3.00939 0
M  V30 6004 H 586.692 -1.23445 4.62923 0
M  V30 6005 H 585.056 -0.749282 2.43429 0
M  V30 6006 H 585.839 0.632839 3.37417 0
M  V30 6007 N 588.284 -1.56567 -0.180126 0
M  V30 6008 C 589.509 -1.85975 -0.918041 0
M  V30 6009 C 589.934 -0.678888 -1.75422 0
M  V30 6010 O 589.292 0.372168 -1.77439 0
M  V30 6011 C 589.34 -3.13731 -1.77779 0
M  V30 6012 O 588.444 -2.95335 -2.87838 0
M  V30 6013 H 587.785 -0.61196 -0.257683 0
M  V30 6014 H 590.315 -2.03798 -0.180923 0
M  V30 6015 H 590.325 -3.4491 -2.17948 0
M  V30 6016 H 589 -3.99293 -1.16352 0
M  V30 6017 H 587.577 -2.7549 -2.51316 0
M  V30 6018 N 589.762 0.448376 -1.51087 0
M  V30 6019 C 590.99 1.22143 -1.66999 0
M  V30 6020 C 591.405 1.85283 -0.362699 0
M  V30 6021 O 590.762 1.70236 0.65772 0
M  V30 6022 C 590.813 2.31357 -2.7777 0
M  V30 6023 O 590.534 1.70801 -4.03434 0
M  V30 6024 C 592.035 3.21836 -3.04855 0
M  V30 6025 H 589.255 0.368558 -0.560719 0
M  V30 6026 H 591.799 0.532618 -1.97442 0
M  V30 6027 H 589.954 2.95973 -2.49958 0
M  V30 6028 H 590.368 2.42895 -4.64868 0
M  V30 6029 H 591.842 3.94627 -3.85971 0
M  V30 6030 H 592.319 3.81949 -2.16821 0
M  V30 6031 H 592.925 2.62933 -3.34285 0
M  V30 6032 N 591.24 1.41047 0.703093 0
M  V30 6033 C 592.465 1.43537 1.49706 0
M  V30 6034 C 592.89 0.0401853 1.88057 0
M  V30 6035 O 592.248 -0.954785 1.54122 0
M  V30 6036 C 592.296 2.3433 2.74084 0
M  V30 6037 O 591.4 1.79515 3.71279 0
M  V30 6038 H 590.741 0.487454 0.450871 0
M  V30 6039 H 593.271 1.85422 0.86486 0
M  V30 6040 H 593.281 2.49947 3.22476 0
M  V30 6041 H 591.956 3.35708 2.45506 0
M  V30 6042 H 590.533 1.7331 3.30179 0
M  V30 6043 N 592.718 -0.936591 1.26751 0
M  V30 6044 C 593.666 -2.0573 1.08527 0
M  V30 6045 C 594.66 -1.69397 0.0108784 0
M  V30 6046 O 595.866 -1.79215 0.167915 0
M  V30 6047 H 592.241 -0.673691 0.334133 0
M  V30 6048 H 594.212 -2.1825 2.03493 0
M  V30 6049 C 592.961 -3.39738 0.739845 0
M  V30 6050 H 592.284 -3.68174 1.55845 0
M  V30 6051 H 593.724 -4.18955 0.652149 0
M  V30 6052 C 592.183 -3.32292 -0.555288 0
M  V30 6053 O 592.713 -3.68794 -1.59229 0
M  V30 6054 N 590.919 -2.85394 -0.54762 0
M  V30 6055 H 590.466 -2.55886 0.296667 0
M  V30 6056 H 590.424 -2.80795 -1.41427 0
M  V30 6057 N 594.196 -1.08629 -1.14182 0
M  V30 6058 C 595.144 -0.71284 -2.21408 0
M  V30 6059 C 596.138 0.282457 -1.67029 0
M  V30 6060 O 597.344 0.144783 -1.79417 0
M  V30 6061 H 593.719 -0.212497 -0.721352 0
M  V30 6062 H 595.69 -1.6265 -2.50175 0
M  V30 6063 C 594.439 -0.140704 -3.47415 0
M  V30 6064 H 593.762 -0.897739 -3.8959 0
M  V30 6065 H 595.202 0.0827677 -4.23919 0
M  V30 6066 C 593.661 1.122 -3.17668 0
M  V30 6067 O 594.191 2.20652 -3.35672 0
M  V30 6068 N 592.397 1.03328 -2.71609 0
M  V30 6069 H 591.944 0.150666 -2.57159 0
M  V30 6070 H 591.902 1.8789 -2.52081 0
M  V30 6071 N 595.674 1.31259 -0.872281 0
M  V30 6072 C 596.923 1.95893 -0.480493 0
M  V30 6073 C 597.236 1.697 0.972688 0
M  V30 6074 O 598.442 2.28214 1.47073 0
M  V30 6075 C 596.898 3.50705 -0.808342 0
M  V30 6076 C 596.506 3.85735 -2.27844 0
M  V30 6077 C 598.25 4.21719 -0.485136 0
M  V30 6078 C 596.157 5.33668 -2.54858 0
M  V30 6079 H 595.087 0.733182 -0.175955 0
M  V30 6080 H 597.738 1.49396 -1.0655 0
M  V30 6081 H 596.12 3.95706 -0.152558 0
M  V30 6082 H 597.294 3.51686 -2.97748 0
M  V30 6083 H 595.609 3.27792 -2.56791 0
M  V30 6084 H 598.206 5.30559 -0.664166 0
M  V30 6085 H 598.549 4.12316 0.574592 0
M  V30 6086 H 599.082 3.82359 -1.09756 0
M  V30 6087 H 595.821 5.48109 -3.59523 0
M  V30 6088 H 595.341 5.69061 -1.8955 0
M  V30 6089 H 597.02 6.00958 -2.39706 0
M  V30 6090 N 597.152 0.631951 1.44375 0
M  V30 6091 C 598.563 0.219036 1.85411 0
M  V30 6092 C 598.914 -1.22974 1.52879 0
M  V30 6093 O 598.039 -1.93579 0.967266 0
M  V30 6094 C 598.634 0.39075 3.36539 0
M  V30 6095 C 597.193 0.0323351 3.76386 0
M  V30 6096 C 596.34 0.703744 2.68221 0
M  V30 6097 H 599.291 0.837056 1.3483 0
M  V30 6098 H 599.312 -0.370056 3.78696 0
M  V30 6099 H 598.824 1.44527 3.60185 0
M  V30 6100 H 596.925 -1.02042 3.58355 0
M  V30 6101 H 597.038 0.442969 4.77048 0
M  V30 6102 H 595.402 0.138974 2.54321 0
M  V30 6103 H 596.185 1.76088 2.947 0
M  V30 6104 N 598.631 -1.53133 0.372548 0
M  V30 6105 C 599.561 -2.28876 -0.462412 0
M  V30 6106 C 600.542 -1.31583 -1.07796 0
M  V30 6107 O 601.727 -1.60461 -1.09389 0
M  V30 6108 C 598.857 -3.08317 -1.59868 0
M  V30 6109 C 597.811 -4.13355 -1.11003 0
M  V30 6110 C 597.137 -4.8092 -2.33708 0
M  V30 6111 C 598.437 -5.21955 -0.18983 0
M  V30 6112 H 600.131 -2.9892 0.169511 0
M  V30 6113 H 597.677 -1.43761 0.0829658 0
M  V30 6114 H 599.63 -3.60055 -2.18949 0
M  V30 6115 H 598.354 -2.35976 -2.25794 0
M  V30 6116 H 597.013 -3.62573 -0.541869 0
M  V30 6117 H 596.661 -4.05144 -2.98106 0
M  V30 6118 H 596.361 -5.51904 -2.01682 0
M  V30 6119 H 597.885 -5.35455 -2.93462 0
M  V30 6120 H 599.299 -5.69153 -0.688319 0
M  V30 6121 H 597.696 -6.00087 0.0398887 0
M  V30 6122 H 598.766 -4.78811 0.766057 0
M  V30 6123 N 600.109 -0.101901 -1.5727 0
M  V30 6124 C 601.042 0.891377 -2.10071 0
M  V30 6125 C 602.02 1.27197 -1.01291 0
M  V30 6126 O 603.204 1.37602 -1.28833 0
M  V30 6127 C 600.331 2.19049 -2.58331 0
M  V30 6128 C 599.377 1.95925 -3.78834 0
M  V30 6129 S 600.21 1.19106 -5.22086 0
M  V30 6130 C 601.366 2.50234 -5.73702 0
M  V30 6131 H 601.599 0.442212 -2.93993 0
M  V30 6132 H 599.132 0.111529 -1.53997 0
M  V30 6133 H 601.09 2.937 -2.86793 0
M  V30 6134 H 599.751 2.61086 -1.74622 0
M  V30 6135 H 598.944 2.92143 -4.10693 0
M  V30 6136 H 598.546 1.29401 -3.50901 0
M  V30 6137 H 600.838 3.46173 -5.82384 0
M  V30 6138 H 601.781 2.22944 -6.72088 0
M  V30 6139 H 602.189 2.58818 -5.01671 0
M  V30 6140 N 601.587 1.56661 0.17182 0
M  V30 6141 C 603.003 1.50768 0.52357 0
M  V30 6142 C 603.203 0.806072 1.84675 0
M  V30 6143 O 602.259 0.366233 2.4983 0
M  V30 6144 C 603.572 2.955 0.556793 0
M  V30 6145 C 605.12 3.06303 0.644029 0
M  V30 6146 C 605.595 4.52492 0.708148 0
M  V30 6147 N 607.086 4.56737 0.771051 0
M  V30 6148 C 607.821 5.67196 0.841229 0
M  V30 6149 N 607.317 6.87287 0.872272 0
M  V30 6150 N 609.11 5.55165 0.88021 0
M  V30 6151 H 601.261 2.00679 -0.695817 0
M  V30 6152 H 603.524 0.914219 -0.250814 0
M  V30 6153 H 603.23 3.49986 -0.346774 0
M  V30 6154 H 603.104 3.50119 1.40346 0
M  V30 6155 H 605.491 2.51851 1.53802 0
M  V30 6156 H 605.572 2.5477 -0.229297 0
M  V30 6157 H 605.216 5.07575 -0.181585 0
M  V30 6158 H 605.146 5.01781 1.59761 0
M  V30 6159 H 607.637 3.70274 0.755364 0
M  V30 6160 H 607.95 7.6722 0.92698 0
M  V30 6161 H 606.295 6.89898 0.840557 0
M  V30 6162 H 609.486 4.60263 0.852956 0
M  V30 6163 H 609.659 6.41271 0.931439 0
M  V30 6164 N 603.065 -0.440357 1.51323 0
M  V30 6165 C 604.311 -1.19181 1.64085 0
M  V30 6166 C 604.644 -1.90936 0.354575 0
M  V30 6167 O 603.919 -1.8347 -0.645675 0
M  V30 6168 C 604.202 -2.2112 2.84215 0
M  V30 6169 C 604.055 -1.53468 4.22809 0
M  V30 6170 C 605.374 -3.22133 2.99864 0
M  V30 6171 H 602.493 -0.431924 0.597169 0
M  V30 6172 H 605.135 -0.481443 1.83799 0
M  V30 6173 H 603.285 -2.81703 2.67537 0
M  V30 6174 H 604.957 -0.962455 4.51148 0
M  V30 6175 H 603.2 -0.837086 4.25647 0
M  V30 6176 H 603.871 -2.27694 5.02852 0
M  V30 6177 H 606.347 -2.71601 3.15233 0
M  V30 6178 H 605.223 -3.90756 3.85488 0
M  V30 6179 H 605.484 -3.88061 2.11804 0
M  V30 6180 N 604.543 -1.41418 -0.695603 0
M  V30 6181 C 605.789 -1.40982 -1.4578 0
M  V30 6182 C 606.122 -0.0187763 -1.94191 0
M  V30 6183 O 605.397 0.95346 -1.69527 0
M  V30 6184 C 605.68 -2.41657 -2.66972 0
M  V30 6185 C 605.533 -3.89869 -2.24327 0
M  V30 6186 C 606.852 -2.39589 -3.69168 0
M  V30 6187 H 603.971 -0.513405 -0.528757 0
M  V30 6188 H 606.613 -1.72693 -0.792275 0
M  V30 6189 H 604.763 -2.14746 -3.23754 0
M  V30 6190 H 606.435 -4.27683 -1.72872 0
M  V30 6191 H 604.678 -4.04737 -1.56111 0
M  V30 6192 H 605.349 -4.55857 -3.11285 0
M  V30 6193 H 607.825 -2.63471 -3.2206 0
M  V30 6194 H 606.701 -3.12044 -4.51575 0
M  V30 6195 H 606.962 -1.41447 -4.18862 0
M  V30 6196 N 606.021 0.929856 -1.27246 0
M  V30 6197 C 606.953 2.03434 -1.0558 0
M  V30 6198 C 607.966 1.62795 -0.0125762 0
M  V30 6199 O 609.155 1.76685 -0.2539 0
M  V30 6200 C 606.255 3.33915 -0.57912 0
M  V30 6201 C 605.428 4.03259 -1.69415 0
M  V30 6202 C 604.487 5.12014 -1.21357 0
M  V30 6203 O 603.513 5.36097 -1.91282 0
M  V30 6204 N 604.715 5.8046 -0.0680622 0
M  V30 6205 H 607.48 2.22583 -2.00691 0
M  V30 6206 H 605.041 1.1001 -1.18783 0
M  V30 6207 H 607.033 4.03978 -0.241563 0
M  V30 6208 H 605.603 3.11355 0.278703 0
M  V30 6209 H 604.823 3.26958 -2.20209 0
M  V30 6210 H 606.111 4.46337 -2.44255 0
M  V30 6211 H 605.509 5.63345 0.515626 0
M  V30 6212 H 604.066 6.51461 0.210332 0
M  V30 6213 N 607.499 1.09233 1.13605 0
M  V30 6214 C 608.724 0.849067 1.89224 0
M  V30 6215 C 609.149 -0.593875 1.78479 0
M  V30 6216 O 608.507 -1.41703 1.13092 0
M  V30 6217 C 608.555 1.28642 3.36873 0
M  V30 6218 O 607.659 0.44363 4.10007 0
M  V30 6219 H 607 0.30767 0.588417 0
M  V30 6220 H 609.53 1.45595 1.43748 0
M  V30 6221 H 609.54 1.27096 3.87699 0
M  V30 6222 H 608.215 2.33729 3.44011 0
M  V30 6223 H 606.792 0.523241 3.69211 0
M  V30 6224 N 608.977 -1.30795 0.87923 0
M  V30 6225 C 610.223 -1.96653 0.495519 0
M  V30 6226 C 610.556 -1.69282 -0.951703 0
M  V30 6227 O 609.831 -0.994374 -1.6716 0
M  V30 6228 C 610.114 -3.51898 0.764174 0
M  V30 6229 C 609.967 -3.88808 2.2616 0
M  V30 6230 C 611.286 -4.39462 0.236825 0
M  V30 6231 H 608.405 -0.7143 0.181507 0
M  V30 6232 H 611.047 -1.54765 1.10217 0
M  V30 6233 H 609.197 -3.87709 0.247841 0
M  V30 6234 H 610.869 -3.63051 2.8459 0
M  V30 6235 H 609.112 -3.37082 2.73053 0
M  V30 6236 H 609.783 -4.97086 2.4002 0
M  V30 6237 H 612.259 -4.10528 0.678683 0
M  V30 6238 H 611.135 -5.47018 0.454176 0
M  V30 6239 H 611.396 -4.33621 -0.861683 0
M  V30 6240 N 610.455 -0.639598 -1.44038 0
M  V30 6241 C 611.402 0.0602458 -2.30721 0
M  V30 6242 C 612.372 0.828352 -1.43971 0
M  V30 6243 O 613.557 0.807693 -1.72861 0
M  V30 6244 C 610.697 1.03008 -3.29368 0
M  V30 6245 C 609.81 0.259502 -4.3122 0
M  V30 6246 C 608.945 1.22191 -5.16955 0
M  V30 6247 C 607.984 0.440978 -6.10509 0
M  V30 6248 N 607.121 1.35428 -6.88915 0
M  V30 6249 H 611.961 -0.684867 -2.90023 0
M  V30 6250 H 609.498 -0.349509 -1.42888 0
M  V30 6251 H 611.456 1.60583 -3.85057 0
M  V30 6252 H 610.086 1.74222 -2.71747 0
M  V30 6253 H 609.138 -0.432317 -3.77935 0
M  V30 6254 H 610.45 -0.348347 -4.97582 0
M  V30 6255 H 609.604 1.86873 -5.77203 0
M  V30 6256 H 608.343 1.86367 -4.50687 0
M  V30 6257 H 607.348 -0.219279 -5.49363 0
M  V30 6258 H 608.573 -0.196192 -6.78817 0
M  V30 6259 H 606.519 1.9831 -6.25307 0
M  V30 6260 H 606.436 0.800657 -7.51748 0
M  V30 6261 H 607.704 1.98967 -7.53679 0
M  V30 6262 N 611.933 1.52934 -0.380664 0
M  V30 6263 C 612.883 2.22989 0.475399 0
M  V30 6264 C 613.867 1.23058 1.03661 0
M  V30 6265 O 615.059 1.48436 0.964146 0
M  V30 6266 C 612.188 3.0338 1.60671 0
M  V30 6267 C 611.274 4.107 1.05766 0
M  V30 6268 N 611.665 5.05264 0.232837 0
M  V30 6269 C 609.963 4.25676 1.33101 0
M  V30 6270 C 610.664 5.81658 -0.0695134 0
M  V30 6271 N 609.64 5.40989 0.532144 0
M  V30 6272 H 613.442 2.93456 -0.161418 0
M  V30 6273 H 610.956 1.61291 -0.189495 0
M  V30 6274 H 612.953 3.52098 2.23232 0
M  V30 6275 H 611.613 2.34446 2.24644 0
M  V30 6276 H 612.624 5.17739 -0.129204 0
M  V30 6277 H 609.301 3.6797 1.97241 0
M  V30 6278 H 610.691 6.67843 -0.737269 0
M  V30 6279 N 613.412 0.11024 1.57214 0
M  V30 6280 C 614.64 -0.557834 1.99238 0
M  V30 6281 C 615.055 -1.60778 0.989734 0
M  V30 6282 O 614.412 -1.82491 -0.0186092 0
M  V30 6283 C 614.463 -1.19189 3.41286 0
M  V30 6284 O 614.184 -0.183919 4.37714 0
M  V30 6285 C 615.685 -1.94413 3.98395 0
M  V30 6286 H 612.905 -0.148392 0.654386 0
M  V30 6287 H 615.449 0.193996 2.03578 0
M  V30 6288 H 613.604 -1.89456 3.37913 0
M  V30 6289 H 614.018 -0.643475 5.20538 0
M  V30 6290 H 615.492 -2.34116 4.99894 0
M  V30 6291 H 615.969 -2.81592 3.3705 0
M  V30 6292 H 616.575 -1.28928 4.05287 0
M  V30 6293 N 614.89 -1.56749 -0.16351 0
M  V30 6294 C 615.837 -1.97011 -1.2023 0
M  V30 6295 C 616.807 -0.835186 -1.43575 0
M  V30 6296 O 617.992 -1.09594 -1.56185 0
M  V30 6297 C 615.132 -2.34186 -2.53478 0
M  V30 6298 C 614.245 -3.60893 -2.37446 0
M  V30 6299 C 613.38 -3.87245 -3.63614 0
M  V30 6300 C 612.419 -5.07274 -3.42548 0
M  V30 6301 N 611.556 -5.29719 -4.60806 0
M  V30 6302 H 616.396 -2.85562 -0.851958 0
M  V30 6303 H 613.933 -1.41292 -0.409257 0
M  V30 6304 H 615.891 -2.53764 -3.31149 0
M  V30 6305 H 614.521 -1.48736 -2.86492 0
M  V30 6306 H 613.573 -3.49185 -1.50911 0
M  V30 6307 H 614.885 -4.48722 -2.1783 0
M  V30 6308 H 614.039 -4.07232 -4.49719 0
M  V30 6309 H 612.778 -2.97806 -3.86216 0
M  V30 6310 H 611.783 -4.87177 -2.5483 0
M  V30 6311 H 613.008 -5.98251 -3.2136 0
M  V30 6312 H 610.954 -4.43233 -4.83612 0
M  V30 6313 H 610.871 -6.11786 -4.44132 0
M  V30 6314 H 612.139 -5.54192 -5.48171 0
M  V30 6315 N 616.368 0.432326 -1.51554 0
M  V30 6316 C 617.784 0.769195 -1.39841 0
M  V30 6317 C 617.984 1.95584 -0.484675 0
M  V30 6318 O 617.04 2.52433 0.0582829 0
M  V30 6319 C 618.353 1.04487 -2.81963 0
M  V30 6320 C 619.901 1.149 -2.91148 0
M  V30 6321 C 620.376 1.45758 -4.34187 0
M  V30 6322 N 621.867 1.52671 -4.37317 0
M  V30 6323 C 622.602 1.78129 -5.4503 0
M  V30 6324 N 622.098 2.01345 -6.62897 0
M  V30 6325 N 623.891 1.79953 -5.32516 0
M  V30 6326 H 616.042 -0.349122 -2.09511 0
M  V30 6327 H 618.305 -0.0938113 -0.943347 0
M  V30 6328 H 618.011 0.24557 -3.50842 0
M  V30 6329 H 617.885 1.97119 -3.21596 0
M  V30 6330 H 620.272 1.93891 -2.22464 0
M  V30 6331 H 620.353 0.201568 -2.55005 0
M  V30 6332 H 619.997 0.672917 -5.03423 0
M  V30 6333 H 619.927 2.41715 -4.67848 0
M  V30 6334 H 622.418 1.36612 -3.52343 0
M  V30 6335 H 622.731 2.20155 -7.40778 0
M  V30 6336 H 621.076 1.98657 -6.66003 0
M  V30 6337 H 624.267 1.61337 -4.39418 0
M  V30 6338 H 624.44 1.99455 -6.1654 0
M  V30 6339 N 617.846 1.41785 0.688094 0
M  V30 6340 C 618.793 1.44221 1.80191 0
M  V30 6341 C 619.763 0.295688 1.63447 0
M  V30 6342 O 620.948 0.49783 1.84191 0
M  V30 6343 C 618.088 1.33743 3.1813 0
M  V30 6344 C 617.201 2.58325 3.46254 0
M  V30 6345 C 616.336 2.40086 4.73848 0
M  V30 6346 C 615.375 3.60107 4.94964 0
M  V30 6347 N 614.512 3.40892 6.13789 0
M  V30 6348 H 619.352 2.39411 1.77444 0
M  V30 6349 H 616.889 1.18876 0.866423 0
M  V30 6350 H 618.847 1.25669 3.97823 0
M  V30 6351 H 617.477 0.42157 3.20035 0
M  V30 6352 H 616.529 2.7682 2.60912 0
M  V30 6353 H 617.841 3.4758 3.57756 0
M  V30 6354 H 616.995 2.29522 5.61609 0
M  V30 6355 H 615.734 1.483 4.64606 0
M  V30 6356 H 614.739 3.71118 4.05649 0
M  V30 6357 H 615.964 4.52857 5.06061 0
M  V30 6358 H 613.91 2.51812 6.05745 0
M  V30 6359 H 613.827 4.23727 6.26092 0
M  V30 6360 H 615.095 3.34114 7.04264 0
M  V30 6361 N 619.324 -0.923095 1.27737 0
M  V30 6362 C 620.549 -1.71054 1.17283 0
M  V30 6363 C 620.974 -1.86208 -0.266153 0
M  V30 6364 O 620.332 -1.36545 -1.1927 0
M  V30 6365 C 620.38 -3.0854 1.86642 0
M  V30 6366 O 619.484 -3.95528 1.16752 0
M  V30 6367 H 618.825 -0.524136 0.407649 0
M  V30 6368 H 621.355 -1.15487 1.6889 0
M  V30 6369 H 621.365 -3.58828 1.94182 0
M  V30 6370 H 620.04 -2.96828 2.91317 0
M  V30 6371 H 618.617 -3.53967 1.17312 0
M  V30 6372 N 620.802 -1.09834 -1.13024 0
M  V30 6373 C 622.027 -0.85909 -1.88771 0
M  V30 6374 C 622.452 0.584402 -1.78791 0
M  V30 6375 O 621.81 1.41101 -1.13842 0
M  V30 6376 C 621.858 -1.30427 -3.36186 0
M  V30 6377 O 620.962 -0.465368 -4.09766 0
M  V30 6378 H 620.303 -0.310786 -0.586778 0
M  V30 6379 H 622.833 -1.46355 -1.42973 0
M  V30 6380 H 622.843 -1.2915 -3.8702 0
M  V30 6381 H 621.518 -2.3555 -3.42767 0
M  V30 6382 H 620.095 -0.542814 -3.68928 0
M  V30 6383 N 622.28 1.30327 -0.886154 0
M  V30 6384 C 623.508 2.00254 -0.520176 0
M  V30 6385 C 623.923 1.66419 0.891637 0
M  V30 6386 O 623.28 0.901951 1.58654 0
M  V30 6387 C 623.331 3.54916 -0.686775 0
M  V30 6388 O 623.052 3.87547 -2.04301 0
M  V30 6389 C 624.553 4.42115 -0.323945 0
M  V30 6390 H 621.773 0.640204 -0.200947 0
M  V30 6391 H 624.317 1.66183 -1.19178 0
M  V30 6392 H 622.472 3.8735 -0.0625273 0
M  V30 6393 H 622.886 4.82247 -2.06249 0
M  V30 6394 H 624.36 5.49808 -0.491407 0
M  V30 6395 H 624.837 4.32953 0.73811 0
M  V30 6396 H 625.443 4.15129 -0.924565 0
M  V30 6397 N 623.758 0.647228 1.43697 0
M  V30 6398 C 625.004 0.158422 2.0218 0
M  V30 6399 C 625.337 -1.22233 1.50907 0
M  V30 6400 O 624.612 -1.81478 0.699702 0
M  V30 6401 C 624.895 0.1627 3.59732 0
M  V30 6402 C 624.748 1.57694 4.21251 0
M  V30 6403 C 626.067 -0.504138 4.37203 0
M  V30 6404 H 623.186 0.059042 0.734631 0
M  V30 6405 H 625.828 0.826772 1.71069 0
M  V30 6406 H 623.978 -0.406414 3.86368 0
M  V30 6407 H 625.65 2.19618 4.05667 0
M  V30 6408 H 623.893 2.12603 3.7813 0
M  V30 6409 H 624.564 1.53183 5.3032 0
M  V30 6410 H 627.04 -0.0199841 4.16095 0
M  V30 6411 H 625.916 -0.470394 5.46881 0
M  V30 6412 H 626.177 -1.57726 4.13007 0
M  V30 6413 N 625.236 -1.5273 0.388769 0
M  V30 6414 C 626.169 -2.22861 -0.490752 0
M  V30 6415 C 627.147 -1.22912 -1.06449 0
M  V30 6416 O 628.331 -1.51896 -1.11624 0
M  V30 6417 C 625.458 -2.94141 -1.67925 0
M  V30 6418 C 624.504 -4.08355 -1.23081 0
M  V30 6419 S 625.337 -5.35077 -0.212786 0
M  V30 6420 C 626.493 -6.09879 -1.40708 0
M  V30 6421 H 626.726 -2.97115 0.104787 0
M  V30 6422 H 624.259 -1.53428 0.172956 0
M  V30 6423 H 626.217 -3.35818 -2.36085 0
M  V30 6424 H 624.878 -2.19568 -2.24608 0
M  V30 6425 H 624.071 -4.57328 -2.11818 0
M  V30 6426 H 623.673 -3.68688 -0.628121 0
M  V30 6427 H 625.965 -6.36018 -2.33424 0
M  V30 6428 H 626.908 -7.01586 -0.958271 0
M  V30 6429 H 627.316 -5.40646 -1.62364 0
M  V30 6430 N 626.714 -0.118576 -1.57153 0
M  V30 6431 C 627.661 0.831789 -2.1529 0
M  V30 6432 C 628.631 1.26385 -1.07778 0
M  V30 6433 O 629.816 1.34144 -1.35684 0
M  V30 6434 C 626.956 2.07664 -2.75626 0
M  V30 6435 C 626.069 1.69298 -3.97444 0
M  V30 6436 C 625.204 2.88747 -4.45868 0
M  V30 6437 C 624.243 2.46619 -5.60219 0
M  V30 6438 N 623.38 3.5898 -6.03389 0
M  V30 6439 H 628.22 0.329183 -2.96176 0
M  V30 6440 H 625.757 0.150792 -1.46325 0
M  V30 6441 H 627.715 2.80601 -3.08738 0
M  V30 6442 H 626.345 2.55384 -1.97431 0
M  V30 6443 H 625.397 0.862374 -3.70496 0
M  V30 6444 H 626.709 1.34338 -4.80369 0
M  V30 6445 H 625.863 3.69909 -4.80887 0
M  V30 6446 H 624.602 3.26933 -3.61892 0
M  V30 6447 H 623.607 1.63889 -5.24805 0
M  V30 6448 H 624.832 2.0955 -6.45961 0
M  V30 6449 H 622.778 3.9684 -5.22354 0
M  V30 6450 H 622.695 3.27942 -6.81168 0
M  V30 6451 H 623.963 4.40583 -6.43045 0
M  V30 6452 N 628.193 1.56834 0.155195 0
M  V30 6453 C 629.103 2.009 1.21146 0
M  V30 6454 C 630.119 0.923029 1.475 0
M  V30 6455 O 631.295 1.23189 1.59331 0
M  V30 6456 C 628.36 2.37378 2.52691 0
M  V30 6457 C 627.421 3.59883 2.34057 0
M  V30 6458 C 626.654 3.94612 3.59329 0
M  V30 6459 O 626.877 3.30104 4.65175 0
M  V30 6460 O 625.811 4.87895 3.52479 0
M  V30 6461 H 629.637 2.9105 0.867371 0
M  V30 6462 H 627.222 1.44916 0.363298 0
M  V30 6463 H 629.104 2.61737 3.3026 0
M  V30 6464 H 627.779 1.50385 2.86646 0
M  V30 6465 H 626.686 3.40722 1.54465 0
M  V30 6466 H 628.019 4.47468 2.0502 0
M  V30 6467 N 629.671 -0.424282 1.51781 0
M  V30 6468 C 630.919 -1.17028 1.64769 0
M  V30 6469 C 631.24 -1.91409 0.372523 0
M  V30 6470 O 630.51 -1.86091 -0.612108 0
M  V30 6471 H 629.09 -0.434992 0.607282 0
M  V30 6472 H 631.752 -0.485169 1.88765 0
M  V30 6473 H 630.848 -1.8927 2.4816 0
M  V30 6474 N 631.149 -1.42148 -0.680565 0
M  V30 6475 C 632.395 -1.4352 -1.44131 0
M  V30 6476 C 632.75 -0.0486244 -1.92339 0
M  V30 6477 O 632.043 0.92819 -1.67616 0
M  V30 6478 C 632.237 -2.38945 -2.65782 0
M  V30 6479 C 632.066 -3.86743 -2.29477 0
M  V30 6480 C 630.836 -4.5532 -2.19115 0
M  V30 6481 C 633.034 -4.77321 -1.91491 0
M  V30 6482 N 631.016 -5.88174 -1.75853 0
M  V30 6483 C 632.387 -5.99238 -1.59103 0
M  V30 6484 C 634.442 -4.64829 -1.78432 0
M  V30 6485 C 633.145 -7.10053 -1.14968 0
M  V30 6486 C 635.171 -5.75621 -1.35702 0
M  V30 6487 C 634.533 -6.96645 -1.04234 0
M  V30 6488 H 630.632 -0.580363 -0.524121 0
M  V30 6489 H 633.216 -1.78132 -0.785939 0
M  V30 6490 H 631.387 -2.06403 -3.29017 0
M  V30 6491 H 633.119 -2.30935 -3.32342 0
M  V30 6492 H 629.874 -4.09456 -2.37998 0
M  V30 6493 H 630.298 -6.58625 -1.56661 0
M  V30 6494 H 634.94 -3.71745 -2.01409 0
M  V30 6495 H 632.658 -8.0299 -0.907365 0
M  V30 6496 H 636.244 -5.67964 -1.26126 0
M  V30 6497 H 635.124 -7.80918 -0.716707 0
M  V30 6498 N 632.627 0.916307 -1.28225 0
M  V30 6499 C 633.56 2.01954 -1.06254 0
M  V30 6500 C 634.538 1.62587 0.0205983 0
M  V30 6501 O 635.722 1.88073 -0.126824 0
M  V30 6502 C 632.849 3.33086 -0.614141 0
M  V30 6503 C 631.895 3.91435 -1.69354 0
M  V30 6504 S 632.728 4.22603 -3.28887 0
M  V30 6505 C 633.884 5.568 -2.85876 0
M  V30 6506 H 634.117 2.20281 -1.99659 0
M  V30 6507 H 631.65 1.06085 -1.12184 0
M  V30 6508 H 633.608 4.089 -0.36213 0
M  V30 6509 H 632.269 3.12664 0.300036 0
M  V30 6510 H 631.462 4.86098 -1.33136 0
M  V30 6511 H 631.064 3.22248 -1.89821 0
M  V30 6512 H 633.356 6.3658 -2.31888 0
M  V30 6513 H 634.299 5.97927 -3.79326 0
M  V30 6514 H 634.707 5.17865 -2.24669 0
M  V30 6515 N 634.105 1.10431 1.1244 0
M  V30 6516 C 635.351 0.847972 1.84221 0
M  V30 6517 C 635.684 -0.624903 1.83871 0
M  V30 6518 O 634.959 -1.46074 1.28423 0
M  V30 6519 C 635.242 1.39695 3.319 0
M  V30 6520 C 635.095 2.93668 3.40704 0
M  V30 6521 C 636.414 1.03924 4.27654 0
M  V30 6522 H 633.533 0.309502 0.668863 0
M  V30 6523 H 636.175 1.36745 1.31912 0
M  V30 6524 H 634.325 0.955095 3.76577 0
M  V30 6525 H 635.997 3.46379 3.04662 0
M  V30 6526 H 634.24 3.30272 2.81252 0
M  V30 6527 H 634.911 3.27162 4.446 0
M  V30 6528 H 637.387 1.42049 3.91102 0
M  V30 6529 H 636.263 1.45027 5.29394 0
M  V30 6530 H 636.524 -0.051336 4.4207 0
M  V30 6531 N 635.583 -1.29855 0.893053 0
M  V30 6532 C 636.533 -2.25493 0.337211 0
M  V30 6533 C 637.517 -1.51606 -0.53894 0
M  V30 6534 O 638.709 -1.72828 -0.382043 0
M  V30 6535 C 635.838 -3.40467 -0.440117 0
M  V30 6536 C 634.924 -4.217 0.450578 0
M  V30 6537 N 635.315 -4.81312 1.55476 0
M  V30 6538 C 633.613 -4.45315 0.247154 0
M  V30 6539 C 634.314 -5.42241 2.10593 0
M  V30 6540 N 633.29 -5.25267 1.39982 0
M  V30 6541 H 637.092 -2.69137 1.18079 0
M  V30 6542 H 634.606 -1.44388 0.743359 0
M  V30 6543 H 636.603 -4.08038 -0.855021 0
M  V30 6544 H 635.263 -2.98361 -1.28104 0
M  V30 6545 H 636.274 -4.80291 1.93755 0
M  V30 6546 H 632.951 -4.13782 -0.555939 0
M  V30 6547 H 634.341 -5.99517 3.03362 0
M  V30 6548 N 637.061 -0.65484 -1.43351 0
M  V30 6549 C 638.291 -0.176429 -2.05845 0
M  V30 6550 C 638.699 1.16375 -1.49176 0
M  V30 6551 O 638.042 1.72981 -0.618322 0
M  V30 6552 C 638.104 -0.0125844 -3.59498 0
M  V30 6553 C 637.768 -1.27831 -4.38758 0
M  V30 6554 C 638.765 -2.2074 -4.70712 0
M  V30 6555 C 636.45 -1.52035 -4.78739 0
M  V30 6556 C 638.444 -3.36145 -5.41558 0
M  V30 6557 C 636.131 -2.67732 -5.49329 0
M  V30 6558 C 637.129 -3.59612 -5.80662 0
M  V30 6559 O 636.817 -4.73289 -6.4981 0
M  V30 6560 H 636.549 -0.0879682 -0.670252 0
M  V30 6561 H 639.103 -0.896193 -1.84818 0
M  V30 6562 H 637.333 0.762567 -3.79107 0
M  V30 6563 H 639.022 0.423392 -4.03686 0
M  V30 6564 H 639.788 -2.03284 -4.40341 0
M  V30 6565 H 635.667 -0.813987 -4.53757 0
M  V30 6566 H 639.211 -4.07881 -5.65932 0
M  V30 6567 H 635.108 -2.85122 -5.79116 0
M  V30 6568 H 635.876 -4.72575 -6.68293 0
M  V30 6569 N 638.539 1.52521 -0.396863 0
M  V30 6570 C 639.767 2.06091 0.18275 0
M  V30 6571 C 640.182 1.26796 1.39886 0
M  V30 6572 O 639.539 0.316585 1.79733 0
M  V30 6573 C 639.59 3.57362 0.545377 0
M  V30 6574 O 639.311 4.33656 -0.622428 0
M  V30 6575 C 640.812 4.27305 1.18004 0
M  V30 6576 H 638.032 0.670504 0.025789 0
M  V30 6577 H 640.576 1.96561 -0.564276 0
M  V30 6578 H 638.731 3.66941 1.2423 0
M  V30 6579 H 639.145 5.23507 -0.322662 0
M  V30 6580 H 640.619 5.34366 1.38408 0
M  V30 6581 H 641.096 3.83 2.1496 0
M  V30 6582 H 641.702 4.22064 0.523671 0
M  V30 6583 N 640.017 0.126909 1.57088 0
M  V30 6584 C 641.242 -0.53997 2.00248 0
M  V30 6585 C 641.667 -1.58927 1.00618 0
M  V30 6586 O 641.025 -1.81288 -0.0210131 0
M  V30 6587 C 641.073 -1.13565 3.4225 0
M  V30 6588 O 640.177 -2.25103 3.45547 0
M  V30 6589 H 639.518 -0.13412 0.650314 0
M  V30 6590 H 642.048 0.217718 2.03438 0
M  V30 6591 H 642.058 -1.46925 3.80627 0
M  V30 6592 H 640.733 -0.367122 4.14277 0
M  V30 6593 H 639.31 -1.93123 3.18995 0
M  V30 6594 N 641.495 -1.56914 -0.146875 0
M  V30 6595 C 642.442 -1.98275 -1.18134 0
M  V30 6596 C 643.412 -0.850367 -1.42681 0
M  V30 6597 O 644.597 -1.11244 -1.55014 0
M  V30 6598 C 641.737 -2.36861 -2.5098 0
M  V30 6599 C 640.85 -3.63391 -2.33605 0
M  V30 6600 C 639.985 -3.91079 -3.59486 0
M  V30 6601 C 639.024 -5.10879 -3.37149 0
M  V30 6602 N 638.161 -5.34577 -4.55161 0
M  V30 6603 H 643.001 -2.8645 -0.821622 0
M  V30 6604 H 640.538 -1.41718 -0.394248 0
M  V30 6605 H 642.496 -2.57262 -3.28439 0
M  V30 6606 H 641.126 -1.51766 -2.84898 0
M  V30 6607 H 640.178 -3.50766 -1.47199 0
M  V30 6608 H 641.49 -4.51007 -2.13059 0
M  V30 6609 H 640.644 -4.11979 -4.45374 0
M  V30 6610 H 639.383 -3.01885 -3.83036 0
M  V30 6611 H 638.388 -4.89853 -2.49649 0
M  V30 6612 H 639.613 -6.01626 -3.14997 0
M  V30 6613 H 637.559 -4.48337 -4.78884 0
M  V30 6614 H 637.476 -6.16463 -4.37618 0
M  V30 6615 H 638.744 -5.59975 -5.42263 0
M  V30 6616 N 642.974 0.416227 -1.52004 0
M  V30 6617 C 644.251 1.17637 -1.56272 0
M  V30 6618 C 644.631 2.08352 -0.339493 0
M  V30 6619 O 643.979 2.1833 0.674124 0
M  V30 6620 C 644.189 1.95986 -2.88774 0
M  V30 6621 C 645.537 2.52299 -3.41512 0
M  V30 6622 O 646.561 2.06174 -2.90467 0
M  V30 6623 O 645.42 3.3648 -4.30631 0
M  V30 6624 H 642.514 0.536726 -0.629169 0
M  V30 6625 H 645.06 0.423583 -1.64329 0
M  V30 6626 H 643.832 1.29487 -3.69254 0
M  V30 6627 H 643.455 2.78285 -2.83978 0
M  V30 6628 N 644.452 1.42507 0.673017 0
M  V30 6629 C 645.68 1.46473 1.46128 0
M  V30 6630 C 646.095 0.0765912 1.88645 0
M  V30 6631 O 645.452 -0.909057 1.58248 0
M  V30 6632 C 645.503 2.39339 2.70923 0
M  V30 6633 O 645.224 3.72752 2.3019 0
M  V30 6634 C 646.725 2.52343 3.64469 0
M  V30 6635 H 643.945 0.49812 0.449575 0
M  V30 6636 H 646.489 1.87041 0.826802 0
M  V30 6637 H 644.644 2.02019 3.30556 0
M  V30 6638 H 645.058 4.22503 3.10791 0
M  V30 6639 H 646.532 3.2144 4.48754 0
M  V30 6640 H 647.009 1.56189 4.1049 0
M  V30 6641 H 647.615 2.90392 3.10729 0
M  V30 6642 N 645.93 -0.909495 1.28709 0
M  V30 6643 C 646.86 -2.0291 1.15542 0
M  V30 6644 C 647.841 -1.7002 0.0521017 0
M  V30 6645 O 649.026 -1.92835 0.229849 0
M  V30 6646 C 646.156 -3.37458 0.820935 0
M  V30 6647 C 645.11 -3.84524 1.87949 0
M  V30 6648 C 644.436 -5.16086 1.39854 0
M  V30 6649 C 645.736 -4.05918 3.28676 0
M  V30 6650 H 647.43 -2.14183 2.09203 0
M  V30 6651 H 644.976 -1.02913 1.00722 0
M  V30 6652 H 646.929 -4.1528 0.715571 0
M  V30 6653 H 645.653 -3.26249 -0.151374 0
M  V30 6654 H 644.312 -3.08911 1.97408 0
M  V30 6655 H 643.96 -5.01284 0.41518 0
M  V30 6656 H 643.66 -5.48547 2.1064 0
M  V30 6657 H 645.184 -5.96459 1.30649 0
M  V30 6658 H 646.598 -4.74252 3.22115 0
M  V30 6659 H 644.995 -4.49717 3.97334 0
M  V30 6660 H 646.065 -3.10583 3.72379 0
M  V30 6661 N 647.408 -1.11026 -1.11852 0
M  V30 6662 C 648.824 -0.843294 -1.35502 0
M  V30 6663 C 649.024 0.534179 -1.9429 0
M  V30 6664 O 648.08 1.28585 -2.17307 0
M  V30 6665 C 649.393 -1.94793 -2.29077 0
M  V30 6666 C 650.941 -1.97709 -2.42652 0
M  V30 6667 C 651.416 -3.07364 -3.39546 0
M  V30 6668 N 652.907 -3.0671 -3.47107 0
M  V30 6669 C 653.642 -3.88197 -4.22008 0
M  V30 6670 N 653.138 -4.79635 -4.99922 0
M  V30 6671 N 654.931 -3.76391 -4.17476 0
M  V30 6672 H 647.082 -1.99805 -0.720538 0
M  V30 6673 H 649.345 -0.868633 -0.379711 0
M  V30 6674 H 649.051 -2.93971 -1.93065 0
M  V30 6675 H 648.925 -1.84039 -3.29256 0
M  V30 6676 H 651.312 -0.991604 -2.77941 0
M  V30 6677 H 651.393 -2.1254 -1.4234 0
M  V30 6678 H 651.037 -4.06136 -3.04985 0
M  V30 6679 H 650.967 -2.89774 -4.39703 0
M  V30 6680 H 653.458 -2.40457 -2.91528 0
M  V30 6681 H 653.771 -5.38357 -5.54429 0
M  V30 6682 H 652.116 -4.8366 -4.99097 0
M  V30 6683 H 655.307 -3.04303 -3.55693 0
M  V30 6684 H 655.48 -4.40131 -4.75593 0
M  V30 6685 N 648.886 1.2938 -0.899927 0
M  V30 6686 C 649.833 2.27713 -0.376243 0
M  V30 6687 C 650.803 1.57016 0.541774 0
M  V30 6688 O 651.988 1.84997 0.466966 0
M  V30 6689 C 649.128 3.42889 0.39 0
M  V30 6690 C 648.241 4.28369 -0.558938 0
M  V30 6691 C 647.376 5.30726 0.224379 0
M  V30 6692 C 646.415 6.07862 -0.719068 0
M  V30 6693 N 645.552 7.02094 0.0298569 0
M  V30 6694 H 650.392 2.71888 -1.21988 0
M  V30 6695 H 647.929 1.33724 -0.612879 0
M  V30 6696 H 649.887 4.08443 0.850314 0
M  V30 6697 H 648.517 2.99743 1.19809 0
M  V30 6698 H 647.569 3.62986 -1.13777 0
M  V30 6699 H 648.881 4.82068 -1.2811 0
M  V30 6700 H 648.035 6.02098 0.745881 0
M  V30 6701 H 646.774 4.77759 0.979674 0
M  V30 6702 H 645.779 5.35353 -1.25207 0
M  V30 6703 H 647.004 6.62917 -1.4737 0
M  V30 6704 H 644.95 6.51496 0.767415 0
M  V30 6705 H 644.867 7.5335 -0.632391 0
M  V30 6706 H 646.135 7.77685 0.531615 0
M  V30 6707 N 650.364 0.662433 1.43002 0
M  V30 6708 C 651.78 0.330835 1.56133 0
M  V30 6709 C 651.98 -1.16454 1.64441 0
M  V30 6710 O 651.036 -1.94964 1.60453 0
M  V30 6711 C 652.349 1.05029 2.81761 0
M  V30 6712 C 653.897 1.03142 2.95518 0
M  V30 6713 C 654.372 1.73196 4.2399 0
M  V30 6714 N 655.863 1.70004 4.30875 0
M  V30 6715 C 656.598 2.21074 5.29069 0
M  V30 6716 N 656.094 2.80473 6.33488 0
M  V30 6717 N 657.887 2.1152 5.20784 0
M  V30 6718 H 650.038 1.63272 1.35853 0
M  V30 6719 H 652.301 0.687149 0.653092 0
M  V30 6720 H 652.007 2.10542 2.81718 0
M  V30 6721 H 651.881 0.607664 3.72273 0
M  V30 6722 H 654.268 -0.0153339 2.95096 0
M  V30 6723 H 654.349 1.51282 2.0627 0
M  V30 6724 H 653.993 2.77833 4.25172 0
M  V30 6725 H 653.923 1.22515 5.1215 0
M  V30 6726 H 656.414 1.26667 3.56039 0
M  V30 6727 H 656.727 3.17094 7.04749 0
M  V30 6728 H 655.072 2.84538 6.34085 0
M  V30 6729 H 658.263 1.64814 4.38126 0
M  V30 6730 H 658.436 2.51629 5.97149 0
M  V30 6731 N 651.842 -1.52309 0.404946 0
M  V30 6732 C 652.792 -2.23717 -0.439864 0
M  V30 6733 C 653.776 -1.24692 -1.0169 0
M  V30 6734 O 654.968 -1.49951 -0.940409 0
M  V30 6735 C 652.097 -3.05898 -1.55825 0
M  V30 6736 C 651.183 -4.12331 -0.992188 0
M  V30 6737 N 651.574 -5.0557 -0.152424 0
M  V30 6738 C 649.872 -4.2774 -1.26312 0
M  V30 6739 C 650.573 -5.81474 0.162041 0
M  V30 6740 N 649.549 -5.41767 -0.44601 0
M  V30 6741 H 653.351 -2.93162 0.208084 0
M  V30 6742 H 650.865 -1.60969 0.215131 0
M  V30 6743 H 652.862 -3.55605 -2.17603 0
M  V30 6744 H 651.522 -2.37991 -2.20886 0
M  V30 6745 H 652.533 -5.17468 0.211556 0
M  V30 6746 H 649.21 -3.71062 -1.91362 0
M  V30 6747 H 650.6 -6.66585 0.843423 0
M  V30 6748 N 653.32 -0.135238 -1.57019 0
M  V30 6749 C 654.55 0.525303 -1.9981 0
M  V30 6750 C 654.958 1.59724 -1.01415 0
M  V30 6751 O 654.301 1.837 -0.00130938 0
M  V30 6752 C 654.363 1.19578 -3.3903 0
M  V30 6753 C 654.027 0.269855 -4.56203 0
M  V30 6754 C 655.024 -0.497905 -5.1751 0
M  V30 6755 C 652.709 0.176188 -5.01991 0
M  V30 6756 C 654.703 -1.3469 -6.23007 0
M  V30 6757 C 652.39 -0.676422 -6.07345 0
M  V30 6758 C 653.388 -1.43658 -6.67721 0
M  V30 6759 O 653.076 -2.27501 -7.71037 0
M  V30 6760 H 652.808 0.142296 -0.660854 0
M  V30 6761 H 655.362 -0.223272 -2.04183 0
M  V30 6762 H 653.592 1.99176 -3.3146 0
M  V30 6763 H 655.281 1.75486 -3.66005 0
M  V30 6764 H 656.047 -0.435507 -4.83041 0
M  V30 6765 H 651.926 0.757583 -4.54733 0
M  V30 6766 H 655.47 -1.9407 -6.70062 0
M  V30 6767 H 651.367 -0.740154 -6.41243 0
M  V30 6768 H 652.135 -2.20619 -7.88206 0
M  V30 6769 N 654.798 1.5699 0.138552 0
M  V30 6770 C 656.044 1.84966 0.846116 0
M  V30 6771 C 656.399 0.72038 1.78405 0
M  V30 6772 O 655.692 -0.281076 1.89527 0
M  V30 6773 C 655.886 3.17007 1.65049 0
M  V30 6774 C 655.715 4.42672 0.79194 0
M  V30 6775 C 654.485 5.03254 0.454293 0
M  V30 6776 C 656.683 5.14164 0.118419 0
M  V30 6777 N 654.665 6.12482 -0.416964 0
M  V30 6778 C 656.036 6.16966 -0.61263 0
M  V30 6779 C 658.091 4.97884 0.0399671 0
M  V30 6780 C 656.794 7.0525 -1.41473 0
M  V30 6781 C 658.82 5.86639 -0.748901 0
M  V30 6782 C 658.182 6.88929 -1.4682 0
M  V30 6783 H 654.281 0.727362 0.287172 0
M  V30 6784 H 656.865 1.94383 0.110972 0
M  V30 6785 H 655.036 3.08722 2.35681 0
M  V30 6786 H 656.768 3.3286 2.30187 0
M  V30 6787 H 653.523 4.6693 0.792038 0
M  V30 6788 H 653.947 6.7172 -0.843865 0
M  V30 6789 H 658.589 4.18779 0.581728 0
M  V30 6790 H 656.307 7.83777 -1.96772 0
M  V30 6791 H 659.893 5.7611 -0.811705 0
M  V30 6792 H 658.773 7.56419 -2.06882 0
M  V30 6793 N 656.276 -0.40816 1.52223 0
M  V30 6794 C 657.692 -0.74685 1.41047 0
M  V30 6795 C 657.892 -1.94788 0.51573 0
M  V30 6796 O 656.948 -2.52494 -0.0181156 0
M  V30 6797 C 658.261 -0.999878 2.83589 0
M  V30 6798 C 659.809 -1.10253 2.92939 0
M  V30 6799 C 660.284 -1.38832 4.36451 0
M  V30 6800 N 661.775 -1.45694 4.3969 0
M  V30 6801 C 662.51 -1.69435 5.47795 0
M  V30 6802 N 662.006 -1.90774 6.66016 0
M  V30 6803 N 663.799 -1.71458 5.35312 0
M  V30 6804 H 655.95 0.382409 2.08929 0
M  V30 6805 H 658.213 0.108807 0.941735 0
M  V30 6806 H 657.919 -0.189723 3.51188 0
M  V30 6807 H 657.793 -1.91978 3.24691 0
M  V30 6808 H 660.18 -1.90328 2.2552 0
M  V30 6809 H 660.261 -0.160973 2.55293 0
M  V30 6810 H 659.905 -0.592741 5.04429 0
M  V30 6811 H 659.835 -2.34241 4.71634 0
M  V30 6812 H 662.326 -1.3099 3.54472 0
M  V30 6813 H 662.639 -2.08342 7.44186 0
M  V30 6814 H 660.984 -1.88037 6.69079 0
M  V30 6815 H 664.175 -1.54326 4.41929 0
M  V30 6816 H 664.348 -1.89621 6.19635 0
M  V30 6817 N 657.755 -1.42862 -0.66545 0
M  V30 6818 C 658.685 -1.49867 -1.79059 0
M  V30 6819 C 659.666 -0.354394 -1.66367 0
M  V30 6820 O 660.851 -0.569969 -1.85647 0
M  V30 6821 C 657.981 -1.40943 -3.17415 0
M  V30 6822 C 656.935 -2.53495 -3.44854 0
M  V30 6823 C 656.261 -2.29626 -4.82883 0
M  V30 6824 C 657.561 -3.95781 -3.40815 0
M  V30 6825 H 659.255 -2.44037 -1.73453 0
M  V30 6826 H 656.801 -1.17456 -0.833071 0
M  V30 6827 H 658.754 -1.4445 -3.95869 0
M  V30 6828 H 657.478 -0.432716 -3.23721 0
M  V30 6829 H 656.137 -2.4932 -2.68766 0
M  V30 6830 H 655.785 -1.30226 -4.8585 0
M  V30 6831 H 655.485 -3.05065 -5.02204 0
M  V30 6832 H 657.009 -2.34897 -5.63609 0
M  V30 6833 H 658.423 -4.01508 -4.09224 0
M  V30 6834 H 656.82 -4.71148 -3.71672 0
M  V30 6835 H 657.89 -4.21786 -2.39216 0
M  V30 6836 N 659.233 0.902656 -1.29189 0
M  V30 6837 C 660.51 1.63296 -1.07674 0
M  V30 6838 C 660.89 2.07649 0.380137 0
M  V30 6839 O 660.238 1.82997 1.36837 0
M  V30 6840 C 660.448 2.81603 -2.06158 0
M  V30 6841 C 661.796 3.52359 -2.36914 0
M  V30 6842 O 662.82 2.91767 -2.04329 0
M  V30 6843 O 661.679 4.61586 -2.92576 0
M  V30 6844 H 658.773 0.716889 -0.41231 0
M  V30 6845 H 661.319 0.950984 -1.4055 0
M  V30 6846 H 660.091 2.46004 -3.04299 0
M  V30 6847 H 659.714 3.57508 -1.73993 0
M  V30 6848 N 660.711 1.11618 1.11262 0
M  V30 6849 C 661.936 0.889013 1.8738 0
M  V30 6850 C 662.361 -0.555884 1.79698 0
M  V30 6851 O 661.719 -1.39272 1.16073 0
M  V30 6852 C 661.767 1.35759 3.34069 0
M  V30 6853 O 660.871 0.530499 4.08974 0
M  V30 6854 H 660.212 0.320082 0.581759 0
M  V30 6855 H 662.742 1.48611 1.40627 0
M  V30 6856 H 662.752 1.35291 3.84916 0
M  V30 6857 H 661.427 2.40973 3.38976 0
M  V30 6858 H 660.004 0.601439 3.68018 0
M  V30 6859 N 662.189 -1.289 0.906776 0
M  V30 6860 C 663.136 -2.2751 0.388313 0
M  V30 6861 C 664.106 -1.57301 -0.533439 0
M  V30 6862 O 665.291 -1.85243 -0.457148 0
M  V30 6863 C 662.431 -3.43091 -0.37181 0
M  V30 6864 C 661.544 -4.28066 0.581647 0
M  V30 6865 C 660.679 -5.30837 -0.19623 0
M  V30 6866 C 659.718 -6.07472 0.751294 0
M  V30 6867 N 658.855 -7.021 0.00737727 0
M  V30 6868 H 663.695 -2.71237 1.23428 0
M  V30 6869 H 661.232 -1.33397 0.619962 0
M  V30 6870 H 663.19 -4.08888 -0.828641 0
M  V30 6871 H 661.82 -3.00374 -1.18218 0
M  V30 6872 H 660.872 -3.62378 1.157 0
M  V30 6873 H 662.184 -4.81382 1.30665 0
M  V30 6874 H 661.338 -6.02485 -0.71394 0
M  V30 6875 H 660.077 -4.78272 -0.954324 0
M  V30 6876 H 659.082 -5.34682 1.28044 0
M  V30 6877 H 660.307 -6.62126 1.50883 0
M  V30 6878 H 658.253 -6.51894 -0.732854 0
M  V30 6879 H 658.17 -7.53004 0.672334 0
M  V30 6880 H 659.438 -7.77956 -0.490365 0
M  V30 6881 N 663.667 -0.670007 -1.42649 0
M  V30 6882 C 664.907 -0.194106 -2.03476 0
M  V30 6883 C 665.271 1.1755 -1.51809 0
M  V30 6884 O 666.472 1.74579 -2.04391 0
M  V30 6885 C 664.743 -0.221828 -3.56711 0
M  V30 6886 S 666.302 0.183772 -4.38415 0
M  V30 6887 H 663.12 -0.0802478 -0.706457 0
M  V30 6888 H 665.722 -0.882092 -1.74469 0
M  V30 6889 H 664.426 -1.22107 -3.91814 0
M  V30 6890 H 663.957 0.486149 -3.90385 0
M  V30 6891 H 665.972 1.41839 -4.75496 0
M  V30 6892 N 665.145 1.52092 -0.413018 0
M  V30 6893 C 666.394 2.01041 0.16287 0
M  V30 6894 C 666.707 1.30288 1.45892 0
M  V30 6895 O 667.913 1.70075 2.11629 0
M  V30 6896 C 666.369 3.58283 0.340806 0
M  V30 6897 C 665.977 4.37955 -0.943377 0
M  V30 6898 C 667.721 4.15452 0.871774 0
M  V30 6899 C 665.628 5.86847 -0.732417 0
M  V30 6900 H 664.558 0.751224 0.0646414 0
M  V30 6901 H 667.209 1.75404 -0.539059 0
M  V30 6902 H 665.591 3.80266 1.10516 0
M  V30 6903 H 666.765 4.2773 -1.71418 0
M  V30 6904 H 665.08 3.92122 -1.40105 0
M  V30 6905 H 667.677 5.24375 1.0457 0
M  V30 6906 H 668.02 3.73057 1.84755 0
M  V30 6907 H 668.553 3.97452 0.166377 0
M  V30 6908 H 665.292 6.33609 -1.67986 0
M  V30 6909 H 664.812 5.998 -0.000980058 0
M  V30 6910 H 666.491 6.45906 -0.376105 0
M  V30 6911 N 666.623 0.143563 1.56945 0
M  V30 6912 C 667.851 -0.515447 2.00377 0
M  V30 6913 C 668.266 -1.58643 1.02361 0
M  V30 6914 O 667.623 -1.82489 0.0201039 0
M  V30 6915 C 667.674 -1.11923 3.43737 0
M  V30 6916 O 667.395 -0.0910318 4.38005 0
M  V30 6917 C 668.896 -1.85918 4.02429 0
M  V30 6918 H 666.116 -0.134478 0.657386 0
M  V30 6919 H 668.66 0.237135 2.0312 0
M  V30 6920 H 666.815 -1.82245 3.41856 0
M  V30 6921 H 667.229 -0.532916 5.21786 0
M  V30 6922 H 668.703 -2.2346 5.04747 0
M  V30 6923 H 669.18 -2.7438 3.42947 0
M  V30 6924 H 669.786 -1.20303 4.07931 0
M  V30 6925 N 668.101 -1.57061 -0.130224 0
M  V30 6926 C 669.031 -2.02552 -1.16168 0
M  V30 6927 C 670.012 -0.907971 -1.4384 0
M  V30 6928 O 671.197 -1.17693 -1.54473 0
M  V30 6929 C 668.327 -2.42035 -2.49071 0
M  V30 6930 C 667.281 -3.5713 -2.35886 0
M  V30 6931 C 666.607 -3.82478 -3.7365 0
M  V30 6932 C 667.907 -4.89236 -1.8288 0
M  V30 6933 H 669.601 -2.8897 -0.783359 0
M  V30 6934 H 667.147 -1.39021 -0.375376 0
M  V30 6935 H 669.1 -2.72462 -3.21469 0
M  V30 6936 H 667.824 -1.52573 -2.88771 0
M  V30 6937 H 666.483 -3.26895 -1.65938 0
M  V30 6938 H 666.131 -2.9024 -4.10816 0
M  V30 6939 H 665.831 -4.59944 -3.65685 0
M  V30 6940 H 667.355 -4.15347 -4.47571 0
M  V30 6941 H 668.769 -5.18272 -2.45085 0
M  V30 6942 H 667.166 -5.70624 -1.85763 0
M  V30 6943 H 668.236 -4.78494 -0.785571 0
M  V30 6944 N 669.579 0.400081 -1.52437 0
M  V30 6945 C 670.826 1.14619 -1.6694 0
M  V30 6946 C 671.154 1.90262 -0.403797 0
M  V30 6947 O 670.409 1.85835 0.61351 0
M  V30 6948 C 670.708 2.15914 -2.84808 0
M  V30 6949 C 670.374 1.57011 -4.2268 0
M  V30 6950 C 669.036 1.40672 -4.60179 0
M  V30 6951 C 671.388 1.14081 -5.08562 0
M  V30 6952 C 668.716 0.799335 -5.81229 0
M  V30 6953 C 671.068 0.547573 -6.30226 0
M  V30 6954 C 669.732 0.371389 -6.66466 0
M  V30 6955 H 669.002 0.419419 -0.610875 0
M  V30 6956 H 671.649 0.432227 -1.86558 0
M  V30 6957 H 669.954 2.93488 -2.59561 0
M  V30 6958 H 671.651 2.73533 -2.93225 0
M  V30 6959 H 668.241 1.70713 -3.93135 0
M  V30 6960 H 672.425 1.2551 -4.80168 0
M  V30 6961 H 667.681 0.65093 -6.07925 0
M  V30 6962 H 671.855 0.206575 -6.96094 0
M  V30 6963 H 669.482 -0.10135 -7.60132 0
M  V30 6964 N 671.057 1.43213 0.657864 0
M  V30 6965 C 671.989 1.43974 1.78337 0
M  V30 6966 C 673.002 0.336482 1.59285 0
M  V30 6967 O 674.191 0.600631 1.68091 0
M  V30 6968 C 671.291 1.23242 3.15697 0
M  V30 6969 C 670.464 2.46319 3.61449 0
M  V30 6970 C 669.523 2.2088 4.77597 0
M  V30 6971 O 668.549 2.942 4.87273 0
M  V30 6972 N 669.751 1.22251 5.67481 0
M  V30 6973 H 672.516 2.40993 1.78164 0
M  V30 6974 H 670.077 1.3831 0.841549 0
M  V30 6975 H 672.069 1.04113 3.91079 0
M  V30 6976 H 670.639 0.346849 3.1067 0
M  V30 6977 H 669.859 2.80904 2.76563 0
M  V30 6978 H 671.147 3.28239 3.88763 0
M  V30 6979 H 670.545 0.616433 5.62331 0
M  V30 6980 H 669.102 1.09107 6.42603 0
M  V30 6981 N 672.536 -0.895792 1.29666 0
M  V30 6982 C 673.484 -2.02173 1.15017 0
M  V30 6983 C 674.478 -1.69276 0.0647651 0
M  V30 6984 O 675.684 -1.7859 0.224846 0
M  V30 6985 H 672.059 -0.662719 0.355397 0
M  V30 6986 H 674.03 -2.11666 2.10334 0
M  V30 6987 C 672.779 -3.37212 0.847555 0
M  V30 6988 H 672.102 -3.6303 1.67479 0
M  V30 6989 H 673.542 -4.16668 0.785106 0
M  V30 6990 C 672.001 -3.33891 -0.44929 0
M  V30 6991 O 672.531 -3.73673 -1.47415 0
M  V30 6992 N 670.737 -2.86991 -0.456547 0
M  V30 6993 H 670.284 -2.54813 0.377925 0
M  V30 6994 H 670.242 -2.85152 -1.32423 0
M  V30 6995 N 674.014 -1.12206 -1.10668 0
M  V30 6996 C 675.291 -0.787382 -1.79052 0
M  V30 6997 C 675.671 0.723267 -1.98323 0
M  V30 6998 O 675.019 1.6561 -1.57434 0
M  V30 6999 C 675.229 -1.55968 -3.1221 0
M  V30 7000 C 676.577 -1.74413 -3.87125 0
M  V30 7001 O 677.601 -1.5246 -3.21923 0
M  V30 7002 O 676.46 -2.10952 -5.04144 0
M  V30 7003 H 673.554 -0.286137 -0.775922 0
M  V30 7004 H 676.1 -1.22595 -1.1734 0
M  V30 7005 H 674.872 -2.58692 -2.93588 0
M  V30 7006 H 674.495 -1.1152 -3.8164 0
M  V30 7007 N 675.492 1.28418 -0.913599 0
M  V30 7008 C 676.72 1.99106 -0.562536 0
M  V30 7009 C 677.135 1.68273 0.856137 0
M  V30 7010 O 676.492 0.935401 1.56705 0
M  V30 7011 C 676.543 3.5338 -0.761903 0
M  V30 7012 O 676.264 3.83127 -2.12475 0
M  V30 7013 C 677.765 4.41328 -0.417651 0
M  V30 7014 H 674.985 0.635798 -0.214481 0
M  V30 7015 H 677.529 1.63618 -1.22676 0
M  V30 7016 H 675.684 3.8713 -0.144676 0
M  V30 7017 H 676.098 4.77763 -2.16431 0
M  V30 7018 H 677.572 5.48642 -0.607919 0
M  V30 7019 H 678.049 4.34422 0.646108 0
M  V30 7020 H 678.655 4.13074 -1.01241 0
M  V30 7021 N 676.97 0.677563 1.42291 0
M  V30 7022 C 678.218 0.200578 2.01102 0
M  V30 7023 C 678.539 -1.19803 1.53858 0
M  V30 7024 O 677.809 -1.80496 0.761439 0
M  V30 7025 H 676.389 0.0711634 0.743603 0
M  V30 7026 H 679.051 0.874691 1.7417 0
M  V30 7027 H 678.147 0.204 3.11433 0
M  V30 7028 N 678.448 -1.51871 0.421078 0
M  V30 7029 C 679.673 -2.0684 -0.152371 0
M  V30 7030 C 680.098 -1.28802 -1.37083 0
M  V30 7031 O 679.456 -0.321482 -1.78427 0
M  V30 7032 C 679.504 -3.57532 -0.469368 0
M  V30 7033 O 678.608 -3.81818 -1.55848 0
M  V30 7034 H 677.949 -0.663939 -0.00898586 0
M  V30 7035 H 680.479 -1.95674 0.597724 0
M  V30 7036 H 680.489 -4.01515 -0.724553 0
M  V30 7037 H 679.164 -4.13761 0.421276 0
M  V30 7038 H 677.741 -3.49709 -1.29453 0
M  V30 7039 N 679.926 -0.151884 -1.56866 0
M  V30 7040 C 681.342 0.204486 -1.58285 0
M  V30 7041 C 681.542 1.6431 -1.16639 0
M  V30 7042 O 680.598 2.37077 -0.868946 0
M  V30 7043 C 681.911 -0.0587019 -3.00643 0
M  V30 7044 C 683.459 0.00462303 -3.13 0
M  V30 7045 C 683.934 -0.231297 -4.57416 0
M  V30 7046 N 685.425 -0.178394 -4.62856 0
M  V30 7047 C 686.16 -0.335379 -5.72418 0
M  V30 7048 N 685.656 -0.550355 -6.90611 0
M  V30 7049 N 687.449 -0.272641 -5.61438 0
M  V30 7050 H 679.6 -1.09116 -1.82229 0
M  V30 7051 H 681.863 -0.432311 -0.843689 0
M  V30 7052 H 681.569 -1.05453 -3.35518 0
M  V30 7053 H 681.443 0.658508 -3.71407 0
M  V30 7054 H 683.83 0.991009 -2.77962 0
M  V30 7055 H 683.911 -0.744992 -2.44711 0
M  V30 7056 H 683.555 -1.2148 -4.93158 0
M  V30 7057 H 683.485 0.5387 -5.23837 0
M  V30 7058 H 685.976 -0.0170923 -3.77896 0
M  V30 7059 H 686.289 -0.660116 -7.69976 0
M  V30 7060 H 684.634 -0.586736 -6.92519 0
M  V30 7061 H 687.825 -0.105421 -4.67981 0
M  V30 7062 H 687.998 -0.398418 -6.46774 0
M  V30 7063 N 681.404 1.57128 0.121893 0
M  V30 7064 C 682.634 1.88609 0.843227 0
M  V30 7065 C 683.042 0.740917 1.74089 0
M  V30 7066 O 682.385 -0.297426 1.81276 0
M  V30 7067 C 682.447 3.15073 1.73117 0
M  V30 7068 C 682.111 4.45742 1.0081 0
M  V30 7069 C 683.108 5.18719 0.350255 0
M  V30 7070 C 680.793 4.92444 0.99014 0
M  V30 7071 C 682.787 6.36617 -0.315889 0
M  V30 7072 C 680.474 6.10261 0.320196 0
M  V30 7073 C 681.472 6.82194 -0.331666 0
M  V30 7074 O 681.16 7.97769 -0.990927 0
M  V30 7075 H 680.892 0.628919 0.247865 0
M  V30 7076 H 683.446 2.05096 0.111725 0
M  V30 7077 H 681.676 2.9466 2.50424 0
M  V30 7078 H 683.365 3.32597 2.32667 0
M  V30 7079 H 684.131 4.83693 0.35577 0
M  V30 7080 H 680.01 4.36361 1.48695 0
M  V30 7081 H 683.554 6.92701 -0.825272 0
M  V30 7082 H 679.451 6.44743 0.312433 0
M  V30 7083 H 680.219 8.13591 -0.895113 0
M  V30 7084 N 682.882 -0.391992 1.52647 0
M  V30 7085 C 684.112 -1.15692 1.71169 0
M  V30 7086 C 684.52 -1.84285 0.428444 0
M  V30 7087 O 683.863 -1.73393 -0.606669 0
M  V30 7088 C 683.925 -2.25033 2.80357 0
M  V30 7089 C 683.589 -1.76433 4.21569 0
M  V30 7090 C 684.586 -1.2427 5.0483 0
M  V30 7091 C 682.271 -1.82746 4.67877 0
M  V30 7092 C 684.265 -0.790657 6.32477 0
M  V30 7093 C 681.952 -1.37153 5.9551 0
M  V30 7094 C 682.95 -0.853997 6.7764 0
M  V30 7095 O 682.638 -0.404708 8.02881 0
M  V30 7096 H 682.37 -0.35297 0.576531 0
M  V30 7097 H 684.924 -0.464994 2.00067 0
M  V30 7098 H 683.154 -2.97641 2.46874 0
M  V30 7099 H 684.843 -2.86718 2.87311 0
M  V30 7100 H 685.609 -1.18752 4.70237 0
M  V30 7101 H 681.488 -2.21971 4.04042 0
M  V30 7102 H 685.032 -0.386024 6.96531 0
M  V30 7103 H 680.929 -1.42356 6.29607 0
M  V30 7104 H 681.697 -0.526459 8.16805 0
M  V30 7105 N 684.36 -1.4356 -0.65026 0
M  V30 7106 C 685.307 -1.48948 -1.76304 0
M  V30 7107 C 686.277 -0.338919 -1.62605 0
M  V30 7108 O 687.462 -0.54649 -1.82806 0
M  V30 7109 C 684.602 -1.42131 -3.14472 0
M  V30 7110 C 683.715 -2.67415 -3.39284 0
M  V30 7111 C 682.85 -2.52565 -4.67316 0
M  V30 7112 C 681.889 -3.73103 -4.85243 0
M  V30 7113 N 681.026 -3.57046 -6.04535 0
M  V30 7114 H 685.866 -2.44032 -1.71034 0
M  V30 7115 H 683.403 -1.21131 -0.834601 0
M  V30 7116 H 685.361 -1.36172 -3.94351 0
M  V30 7117 H 683.991 -0.506273 -3.18805 0
M  V30 7118 H 683.043 -2.8364 -2.53481 0
M  V30 7119 H 684.355 -3.56943 -3.48415 0
M  V30 7120 H 683.509 -2.44331 -5.55326 0
M  V30 7121 H 682.248 -1.60566 -4.60511 0
M  V30 7122 H 681.253 -3.81743 -3.95667 0
M  V30 7123 H 682.478 -4.66115 -4.93876 0
M  V30 7124 H 680.424 -2.67783 -5.98856 0
M  V30 7125 H 680.341 -4.40178 -6.14638 0
M  V30 7126 H 681.609 -3.52669 -6.95158 0
M  V30 7127 N 685.838 0.888903 -1.30139 0
M  V30 7128 C 686.748 2.02705 -1.18101 0
M  V30 7129 C 687.764 1.73702 -0.101809 0
M  V30 7130 O 688.94 1.98906 -0.315984 0
M  V30 7131 C 686.005 3.35616 -0.869651 0
M  V30 7132 C 685.066 3.78067 -2.03381 0
M  V30 7133 C 684.299 5.04635 -1.73721 0
M  V30 7134 O 684.522 5.66531 -0.663267 0
M  V30 7135 O 683.456 5.43399 -2.58845 0
M  V30 7136 H 687.282 2.15788 -2.13704 0
M  V30 7137 H 684.867 1.01426 -1.09695 0
M  V30 7138 H 686.749 4.15358 -0.711043 0
M  V30 7139 H 685.424 3.23651 0.0565002 0
M  V30 7140 H 684.331 2.99046 -2.24772 0
M  V30 7141 H 685.664 3.94631 -2.94155 0
M  V30 7142 N 687.317 1.12792 1.10072 0
M  V30 7143 C 688.566 0.880232 1.81479 0
M  V30 7144 C 688.879 -0.595575 1.86312 0
M  V30 7145 O 690.085 -0.959979 2.53962 0
M  V30 7146 C 688.541 1.52514 3.25987 0
M  V30 7147 C 688.149 3.036 3.29441 0
M  V30 7148 C 689.893 1.35788 4.02196 0
M  V30 7149 C 687.8 3.61007 4.68431 0
M  V30 7150 H 686.73 0.325654 0.680048 0
M  V30 7151 H 689.381 1.35485 1.23758 0
M  V30 7152 H 687.763 0.978188 3.83728 0
M  V30 7153 H 688.937 3.64819 2.81502 0
M  V30 7154 H 687.252 3.19765 2.66719 0
M  V30 7155 H 689.849 1.76096 5.0487 0
M  V30 7156 H 690.192 0.301972 4.15203 0
M  V30 7157 H 690.725 1.87426 3.50879 0
M  V30 7158 H 687.464 4.66375 4.60625 0
M  V30 7159 H 686.984 3.04564 5.16721 0
M  V30 7160 H 688.663 3.60289 5.37402 0
M  V30 7161 N 688.795 -1.27931 0.920396 0
M  V30 7162 C 690.206 -1.76707 0.602616 0
M  V30 7163 C 690.557 -1.75249 -0.882159 0
M  V30 7164 O 689.682 -1.35135 -1.69019 0
M  V30 7165 C 690.277 -3.20884 1.08714 0
M  V30 7166 C 688.836 -3.67356 0.820157 0
M  V30 7167 C 687.983 -2.47525 1.25006 0
M  V30 7168 H 690.934 -1.14301 1.10095 0
M  V30 7169 H 690.955 -3.78045 0.431535 0
M  V30 7170 H 690.467 -3.21913 2.1678 0
M  V30 7171 H 688.568 -3.7178 -0.247012 0
M  V30 7172 H 688.681 -4.57181 1.43257 0
M  V30 7173 H 687.045 -2.45765 0.668698 0
M  V30 7174 H 687.828 -2.51269 2.3392 0
M  V30 7175 N 690.273 -0.685099 -1.4193 0
M  V30 7176 C 691.203 -0.0273506 -2.33484 0
M  V30 7177 C 692.184 0.778366 -1.51246 0
M  V30 7178 O 693.369 0.733449 -1.79817 0
M  V30 7179 C 690.499 0.917272 -3.34968 0
M  V30 7180 C 689.453 0.21941 -4.27437 0
M  V30 7181 C 688.779 1.27768 -5.1921 0
M  V30 7182 C 690.079 -0.907894 -5.14349 0
M  V30 7183 H 691.773 -0.791994 -2.88735 0
M  V30 7184 H 689.319 -0.382308 -1.38832 0
M  V30 7185 H 691.272 1.38657 -3.97935 0
M  V30 7186 H 689.996 1.71346 -2.78043 0
M  V30 7187 H 688.655 -0.229757 -3.65879 0
M  V30 7188 H 688.303 2.06612 -4.58607 0
M  V30 7189 H 688.003 0.815803 -5.81909 0
M  V30 7190 H 689.527 1.7477 -5.85054 0
M  V30 7191 H 690.941 -0.519348 -5.70943 0
M  V30 7192 H 689.338 -1.2962 -5.85934 0
M  V30 7193 H 690.408 -1.75218 -4.52136 0
M  V30 7194 N 691.751 1.51645 -0.429126 0
M  V30 7195 C 692.976 2.06917 0.141399 0
M  V30 7196 C 693.401 1.29527 1.36398 0
M  V30 7197 O 692.759 0.33094 1.78254 0
M  V30 7198 C 692.807 3.57776 0.4504 0
M  V30 7199 O 691.911 3.82639 1.53821 0
M  V30 7200 H 691.252 0.663978 0.0054647 0
M  V30 7201 H 693.782 1.95355 -0.608093 0
M  V30 7202 H 693.792 4.01894 0.703249 0
M  V30 7203 H 692.467 4.13532 -0.443213 0
M  V30 7204 H 691.044 3.5039 1.27597 0
M  V30 7205 N 693.229 0.160201 1.56784 0
M  V30 7206 C 694.139 -0.787167 2.21 0
M  V30 7207 C 695.155 -1.26167 1.19825 0
M  V30 7208 O 696.331 -1.31611 1.52448 0
M  V30 7209 C 693.396 -2.00364 2.8294 0
M  V30 7210 C 692.457 -1.5771 3.99282 0
M  V30 7211 C 691.69 -2.73558 4.58259 0
M  V30 7212 O 691.913 -3.90129 4.16119 0
M  V30 7213 O 690.847 -2.48271 5.48311 0
M  V30 7214 H 694.673 -0.270462 3.02493 0
M  V30 7215 H 692.258 -0.0674666 1.49248 0
M  V30 7216 H 694.14 -2.71529 3.22257 0
M  V30 7217 H 692.815 -2.50961 2.04451 0
M  V30 7218 H 691.722 -0.835274 3.64656 0
M  V30 7219 H 693.055 -1.11815 4.79331 0
M  V30 7220 N 694.707 -1.5719 -0.113559 0
M  V30 7221 C 695.956 -1.84325 -0.818984 0
M  V30 7222 C 696.269 -0.746685 -1.80787 0
M  V30 7223 O 697.475 -0.904596 -2.55987 0
M  V30 7224 C 695.931 -3.26818 -1.50724 0
M  V30 7225 C 695.539 -4.44498 -0.559065 0
M  V30 7226 C 697.283 -3.63196 -2.19748 0
M  V30 7227 C 695.19 -5.7802 -1.25086 0
M  V30 7228 H 694.12 -0.687507 -0.309596 0
M  V30 7229 H 696.771 -1.8336 -0.0717621 0
M  V30 7230 H 695.153 -3.22269 -2.30128 0
M  V30 7231 H 696.327 -4.60356 0.202146 0
M  V30 7232 H 694.642 -4.16393 0.024495 0
M  V30 7233 H 697.239 -4.60226 -2.72206 0
M  V30 7234 H 697.582 -2.90899 -2.97798 0
M  V30 7235 H 698.115 -3.69553 -1.47226 0
M  V30 7236 H 694.854 -6.53501 -0.511539 0
M  V30 7237 H 694.374 -5.66038 -1.98395 0
M  V30 7238 H 696.053 -6.2196 -1.78253 0
M  V30 7239 N 696.185 0.383891 -1.52853 0
M  V30 7240 C 697.115 1.47559 -1.80965 0
M  V30 7241 C 698.096 1.5669 -0.661986 0
M  V30 7242 O 699.281 1.71556 -0.910072 0
M  V30 7243 C 696.411 2.85114 -1.98312 0
M  V30 7244 C 695.365 2.9082 -3.14019 0
M  V30 7245 C 694.691 4.30873 -3.16627 0
M  V30 7246 C 695.991 2.60001 -4.52986 0
M  V30 7247 H 697.685 1.24283 -2.72386 0
M  V30 7248 H 695.231 0.596445 -1.31067 0
M  V30 7249 H 697.184 3.61496 -2.16561 0
M  V30 7250 H 695.908 3.09738 -1.03585 0
M  V30 7251 H 694.567 2.16886 -2.9556 0
M  V30 7252 H 694.215 4.52545 -2.19573 0
M  V30 7253 H 693.915 4.3561 -3.94357 0
M  V30 7254 H 695.439 5.09154 -3.37038 0
M  V30 7255 H 696.853 3.261 -4.71521 0
M  V30 7256 H 695.25 2.76081 -5.32822 0
M  V30 7257 H 696.32 1.5532 -4.59351 0
M  V30 7258 N 697.663 1.43903 0.642637 0
M  V30 7259 C 698.888 1.49758 1.43483 0
M  V30 7260 C 699.313 0.119911 1.87717 0
M  V30 7261 O 698.671 -0.888558 1.58033 0
M  V30 7262 C 698.719 2.45744 2.63898 0
M  V30 7263 O 697.823 1.95101 3.63331 0
M  V30 7264 H 697.164 0.506138 0.429791 0
M  V30 7265 H 699.694 1.88923 0.785438 0
M  V30 7266 H 699.704 2.63399 3.11584 0
M  V30 7267 H 698.379 3.45818 2.31046 0
M  V30 7268 H 696.956 1.87158 3.22531 0
M  V30 7269 N 699.141 -0.881989 1.30609 0
M  V30 7270 C 700.071 -2.00413 1.1982 0
M  V30 7271 C 701.052 -1.69871 0.0881538 0
M  V30 7272 O 702.237 -1.92304 0.2707 0
M  V30 7273 C 699.367 -3.35641 0.89233 0
M  V30 7274 C 698.321 -3.80451 1.96064 0
M  V30 7275 C 697.647 -5.13003 1.5077 0
M  V30 7276 C 698.947 -3.98855 3.37213 0
M  V30 7277 H 700.641 -2.09698 2.13699 0
M  V30 7278 H 698.187 -1.00754 1.02882 0
M  V30 7279 H 700.14 -4.13669 0.803497 0
M  V30 7280 H 698.864 -3.26497 -0.0821381 0
M  V30 7281 H 697.523 -3.04654 2.03916 0
M  V30 7282 H 697.171 -5.0029 0.521417 0
M  V30 7283 H 696.871 -5.43956 2.22229 0
M  V30 7284 H 698.395 -5.93554 1.43271 0
M  V30 7285 H 699.809 -4.67312 3.32103 0
M  V30 7286 H 698.206 -4.41188 4.06784 0
M  V30 7287 H 699.276 -3.02614 3.78883 0
M  V30 7288 N 700.619 -1.13374 -1.09472 0
M  V30 7289 C 701.529 -0.824029 -2.19652 0
M  V30 7290 C 702.545 0.19118 -1.72947 0
M  V30 7291 O 703.721 0.0223464 -2.01388 0
M  V30 7292 C 700.786 -0.294009 -3.45451 0
M  V30 7293 C 699.847 -1.3704 -4.0684 0
M  V30 7294 C 699.08 -0.86558 -5.26634 0
M  V30 7295 O 699.303 0.29702 -5.69626 0
M  V30 7296 O 698.237 -1.63968 -5.79136 0
M  V30 7297 H 702.063 -1.74454 -2.48595 0
M  V30 7298 H 699.648 -0.911155 -1.18399 0
M  V30 7299 H 701.53 -0.00381039 -4.214 0
M  V30 7300 H 700.205 0.598921 -3.18111 0
M  V30 7301 H 699.112 -1.71391 -3.3253 0
M  V30 7302 H 700.445 -2.23746 -4.38405 0
M  V30 7303 N 702.098 1.27442 -0.927168 0
M  V30 7304 C 703.509 1.76385 -0.611979 0
M  V30 7305 C 703.86 1.75715 0.872853 0
M  V30 7306 O 702.985 1.3603 1.683 0
M  V30 7307 C 703.58 3.20303 -1.10414 0
M  V30 7308 C 702.139 3.66916 -0.839628 0
M  V30 7309 C 701.286 2.46859 -1.26317 0
M  V30 7310 H 704.237 1.13716 -1.107 0
M  V30 7311 H 704.258 3.77811 -0.451578 0
M  V30 7312 H 703.77 3.20759 -2.18484 0
M  V30 7313 H 701.871 3.71906 0.227292 0
M  V30 7314 H 701.984 4.56415 -1.45679 0
M  V30 7315 H 700.348 2.45407 -0.681723 0
M  V30 7316 H 701.131 2.50025 -2.3525 0
M  V30 7317 N 703.576 0.692616 1.41565 0
M  V30 7318 C 704.822 0.222664 2.01574 0
M  V30 7319 C 705.155 -1.1737 1.54719 0
M  V30 7320 O 704.43 -1.79161 0.757084 0
M  V30 7321 C 704.713 0.277064 3.59033 0
M  V30 7322 C 704.566 1.71016 4.16021 0
M  V30 7323 C 705.885 -0.36479 4.38586 0
M  V30 7324 H 703.004 0.0823839 0.732381 0
M  V30 7325 H 705.646 0.880778 1.68352 0
M  V30 7326 H 703.796 -0.283288 3.87466 0
M  V30 7327 H 705.468 2.32413 3.98475 0
M  V30 7328 H 703.711 2.24525 3.71175 0
M  V30 7329 H 704.382 1.69978 5.25178 0
M  V30 7330 H 706.858 0.112404 4.15948 0
M  V30 7331 H 705.734 -0.296169 5.481 0
M  V30 7332 H 705.995 -1.44506 4.17816 0
M  V30 7333 N 705.054 -1.51416 0.437162 0
M  V30 7334 C 706.001 -2.27743 -0.374374 0
M  V30 7335 C 706.971 -1.31327 -1.01698 0
M  V30 7336 O 708.156 -1.60229 -1.03592 0
M  V30 7337 C 705.296 -3.12241 -1.46969 0
M  V30 7338 C 704.409 -4.23651 -0.845236 0
M  V30 7339 C 703.544 -4.95458 -1.91559 0
M  V30 7340 C 702.583 -5.98789 -1.26956 0
M  V30 7341 N 701.72 -6.64005 -2.28126 0
M  V30 7342 H 706.56 -2.96654 0.282892 0
M  V30 7343 H 704.097 -1.46319 0.151352 0
M  V30 7344 H 706.055 -3.59556 -2.11602 0
M  V30 7345 H 704.685 -2.45445 -2.09659 0
M  V30 7346 H 703.737 -3.803 -0.0872059 0
M  V30 7347 H 705.049 -4.97683 -0.333582 0
M  V30 7348 H 704.203 -5.46321 -2.63854 0
M  V30 7349 H 702.942 -4.21055 -2.46097 0
M  V30 7350 H 701.947 -5.47219 -0.53207 0
M  V30 7351 H 703.172 -6.75149 -0.731509 0
M  V30 7352 H 701.118 -5.92415 -2.81745 0
M  V30 7353 H 701.035 -7.33802 -1.81852 0
M  V30 7354 H 702.303 -7.19498 -2.99905 0
M  V30 7355 N 706.532 -0.168513 -1.56696 0
M  V30 7356 C 707.76 0.483503 -2.01171 0
M  V30 7357 C 708.175 1.56994 -1.04872 0
M  V30 7358 O 707.532 1.82434 -0.0491337 0
M  V30 7359 C 707.583 1.0644 -3.45475 0
M  V30 7360 O 707.304 0.0213375 -4.38095 0
M  V30 7361 C 708.805 1.79493 -4.05336 0
M  V30 7362 H 706.025 0.124002 -0.659443 0
M  V30 7363 H 708.569 -0.269419 -2.02717 0
M  V30 7364 H 706.724 1.76784 -3.44712 0
M  V30 7365 H 707.138 0.449837 -5.22567 0
M  V30 7366 H 708.612 2.15401 -5.08238 0
M  V30 7367 H 709.089 2.68889 -3.47269 0
M  V30 7368 H 709.695 1.13798 -4.09793 0
M  V30 7369 N 708.01 1.57248 0.105221 0
M  V30 7370 C 709.235 1.90143 0.828264 0
M  V30 7371 C 709.66 0.761811 1.71983 0
M  V30 7372 O 709.018 -0.287086 1.79013 0
M  V30 7373 C 709.066 3.21856 1.62608 0
M  V30 7374 O 708.17 3.08732 2.7342 0
M  V30 7375 H 707.511 0.623558 0.228192 0
M  V30 7376 H 710.041 2.0443 0.0834826 0
M  V30 7377 H 710.051 3.54916 2.01243 0
M  V30 7378 H 708.726 4.0439 0.971687 0
M  V30 7379 H 707.303 2.87167 2.37886 0
M  V30 7380 N 709.488 -0.375779 1.53054 0
M  V30 7381 C 710.451 -1.44254 1.7811 0
M  V30 7382 C 711.451 -1.47018 0.651328 0
M  V30 7383 O 712.641 -1.47957 0.919472 0
M  V30 7384 C 709.773 -2.8345 1.89391 0
M  V30 7385 H 710.966 -1.23316 2.73374 0
M  V30 7386 H 708.519 -0.608312 1.43977 0
M  V30 7387 H 709.254 -3.09716 0.961589 0
M  V30 7388 H 709.039 -2.82844 2.71555 0
M  V30 7389 H 710.529 -3.60722 2.10404 0
M  V30 7390 N 710.966 -1.44241 -0.634997 0
M  V30 7391 C 711.896 -1.53632 -1.7584 0
M  V30 7392 C 712.877 -0.389603 -1.65578 0
M  V30 7393 O 714.062 -0.609219 -1.84397 0
M  V30 7394 C 711.192 -1.47644 -3.14354 0
M  V30 7395 C 710.146 -2.60752 -3.394 0
M  V30 7396 C 709.472 -2.39817 -4.77904 0
M  V30 7397 C 710.772 -4.02921 -3.32343 0
M  V30 7398 H 712.466 -2.47662 -1.68238 0
M  V30 7399 H 710.012 -1.19197 -0.807969 0
M  V30 7400 H 711.965 -1.52815 -3.92716 0
M  V30 7401 H 710.689 -0.501284 -3.2273 0
M  V30 7402 H 709.348 -2.54965 -2.63417 0
M  V30 7403 H 708.996 -1.40502 -4.82978 0
M  V30 7404 H 708.696 -3.15649 -4.9562 0
M  V30 7405 H 710.22 -2.46799 -5.585 0
M  V30 7406 H 711.634 -4.10098 -4.00615 0
M  V30 7407 H 710.031 -4.78925 -3.61595 0
M  V30 7408 H 711.101 -4.26766 -2.30215 0
M  V30 7409 N 712.444 0.87505 -1.31075 0
M  V30 7410 C 713.693 1.62245 -1.19831 0
M  V30 7411 C 714.006 1.94078 0.24357 0
M  V30 7412 O 715.212 2.67265 0.477646 0
M  V30 7413 C 713.668 2.92464 -2.09744 0
M  V30 7414 C 713.276 2.68134 -3.58898 0
M  V30 7415 C 715.02 3.70449 -2.07287 0
M  V30 7416 C 712.927 3.9423 -4.40836 0
M  V30 7417 H 711.857 0.608741 -0.444916 0
M  V30 7418 H 714.508 0.967947 -1.55894 0
M  V30 7419 H 712.89 3.59262 -1.66574 0
M  V30 7420 H 714.064 2.09776 -4.10281 0
M  V30 7421 H 712.379 2.03511 -3.6328 0
M  V30 7422 H 714.976 4.63983 -2.65752 0
M  V30 7423 H 715.319 4.02611 -1.05876 0
M  V30 7424 H 715.852 3.10528 -2.48631 0
M  V30 7425 H 712.591 3.67221 -5.42982 0
M  V30 7426 H 712.111 4.52058 -3.94213 0
M  V30 7427 H 713.79 4.62162 -4.52786 0
M  V30 7428 N 713.922 1.13953 1.08869 0
M  V30 7429 C 715.333 0.916649 1.62648 0
M  V30 7430 C 715.684 -0.545589 1.88462 0
M  V30 7431 O 714.809 -1.41351 1.63856 0
M  V30 7432 C 715.404 1.65751 2.95486 0
M  V30 7433 C 713.963 1.48034 3.46068 0
M  V30 7434 C 713.11 1.68305 2.20383 0
M  V30 7435 H 716.061 1.292 0.921572 0
M  V30 7436 H 716.082 1.11794 3.63707 0
M  V30 7437 H 715.594 2.72171 2.76667 0
M  V30 7438 H 713.695 0.439416 3.7 0
M  V30 7439 H 713.808 2.24719 4.23129 0
M  V30 7440 H 712.172 1.10833 2.29321 0
M  V30 7441 H 712.955 2.76057 2.04077 0
M  V30 7442 N 715.4 -1.26948 0.933913 0
M  V30 7443 C 716.348 -2.2862 0.428463 0
M  V30 7444 C 717.342 -1.62144 -0.490464 0
M  V30 7445 O 718.548 -1.76167 -0.36948 0
M  V30 7446 H 714.923 -0.742363 0.120003 0
M  V30 7447 H 716.894 -2.68659 1.29865 0
M  V30 7448 C 715.643 -3.46423 -0.29774 0
M  V30 7449 H 714.966 -3.97792 0.400183 0
M  V30 7450 H 716.406 -4.19505 -0.615736 0
M  V30 7451 C 714.865 -3.01017 -1.51295 0
M  V30 7452 O 715.395 -3.05226 -2.61151 0
M  V30 7453 N 713.601 -2.56442 -1.36696 0
M  V30 7454 H 713.148 -2.53217 -0.473178 0
M  V30 7455 H 713.106 -2.26424 -2.18127 0
M  V30 7456 N 716.879 -0.700114 -1.41195 0
M  V30 7457 C 718.127 -0.232546 -2.00758 0
M  V30 7458 C 718.448 1.1734 -1.55745 0
M  V30 7459 O 717.718 1.79262 -0.790058 0
M  V30 7460 H 716.298 -0.0829845 -0.742376 0
M  V30 7461 H 718.96 -0.902289 -1.72756 0
M  V30 7462 H 718.056 -0.253521 -3.11069 0
M  V30 7463 N 718.357 1.51182 -0.445186 0
M  V30 7464 C 719.32 2.26501 0.350722 0
M  V30 7465 C 720.32 1.3025 0.942952 0
M  V30 7466 O 721.51 1.53897 0.816175 0
M  V30 7467 C 718.642 3.06274 1.49697 0
M  V30 7468 H 719.835 2.98299 -0.309474 0
M  V30 7469 H 717.388 1.55034 -0.198551 0
M  V30 7470 H 718.123 2.38911 2.19299 0
M  V30 7471 H 717.908 3.76979 1.0784 0
M  V30 7472 H 719.398 3.63306 2.05909 0
M  V30 7473 N 719.835 0.176821 1.56605 0
M  V30 7474 C 720.783 -0.768159 2.1955 0
M  V30 7475 C 721.777 -1.23343 1.16116 0
M  V30 7476 O 722.983 -1.19844 1.34303 0
M  V30 7477 H 719.358 -0.266013 0.703378 0
M  V30 7478 H 721.329 -0.213374 2.97636 0
M  V30 7479 C 720.078 -1.98492 2.85475 0
M  V30 7480 H 719.401 -1.63595 3.64797 0
M  V30 7481 H 720.841 -2.62489 3.3298 0
M  V30 7482 C 719.3 -2.81207 1.85538 0
M  V30 7483 O 719.83 -3.7854 1.34427 0
M  V30 7484 N 718.036 -2.46331 1.54173 0
M  V30 7485 H 717.583 -1.67241 1.95929 0
M  V30 7486 H 717.541 -3.01961 0.875595 0
M  V30 7487 N 721.313 -1.57302 -0.09688 0
M  V30 7488 C 722.724 -1.7496 -0.651595 0
M  V30 7489 C 723.075 -0.798746 -1.79205 0
M  V30 7490 O 722.2 0.0231858 -2.16388 0
M  V30 7491 C 722.795 -3.17259 -1.18878 0
M  V30 7492 C 721.354 -3.36348 -1.68958 0
M  V30 7493 C 720.501 -2.70766 -0.598413 0
M  V30 7494 H 723.452 -1.58173 0.12918 0
M  V30 7495 H 723.473 -3.20033 -2.05814 0
M  V30 7496 H 722.985 -3.8644 -0.358523 0
M  V30 7497 H 721.086 -2.72243 -2.5439 0
M  V30 7498 H 721.199 -4.44654 -1.7838 0
M  V30 7499 H 719.563 -2.32615 -1.03743 0
M  V30 7500 H 720.346 -3.42586 0.221238 0
M  V30 7501 N 722.791 0.367657 -1.53252 0
M  V30 7502 C 723.741 1.45035 -1.75923 0
M  V30 7503 C 724.725 1.48736 -0.613719 0
M  V30 7504 O 725.917 1.54012 -0.872313 0
M  V30 7505 C 723.046 2.82493 -1.9507 0
M  V30 7506 C 722.132 2.83279 -3.15617 0
M  V30 7507 N 722.523 2.53712 -4.37566 0
M  V30 7508 C 720.821 3.1444 -3.16297 0
M  V30 7509 C 721.522 2.62123 -5.19294 0
M  V30 7510 N 720.498 2.96747 -4.55458 0
M  V30 7511 H 724.3 1.21035 -2.6782 0
M  V30 7512 H 721.814 0.575822 -1.51849 0
M  V30 7513 H 723.811 3.60473 -2.0944 0
M  V30 7514 H 722.471 3.07459 -1.044 0
M  V30 7515 H 723.482 2.27344 -4.65333 0
M  V30 7516 H 720.159 3.44733 -2.35511 0
M  V30 7517 H 721.549 2.42628 -6.26563 0
M  V30 7518 N 724.269 1.44576 0.627338 0
M  V30 7519 C 725.509 1.49083 1.39834 0
M  V30 7520 C 725.873 0.121643 1.91614 0
M  V30 7521 O 727.074 0.0413885 2.68768 0
M  V30 7522 C 725.345 2.52467 2.52973 0
M  V30 7523 S 726.904 2.7605 3.41089 0
M  V30 7524 H 723.722 0.527252 0.476997 0
M  V30 7525 H 726.324 1.81525 0.725872 0
M  V30 7526 H 725.028 3.50646 2.13249 0
M  V30 7527 H 724.559 2.2161 3.25042 0
M  V30 7528 H 726.574 2.07932 4.50531 0
M  V30 7529 N 725.747 -0.868086 1.31537 0
M  V30 7530 C 726.994 -1.62127 1.2133 0
M  V30 7531 C 727.322 -1.93158 -0.2281 0
M  V30 7532 O 726.577 -1.5632 -1.1774 0
M  V30 7533 C 726.876 -2.95889 2.0046 0
M  V30 7534 C 726.542 -2.84343 3.49943 0
M  V30 7535 C 725.204 -2.80901 3.90702 0
M  V30 7536 C 727.556 -2.71243 4.45058 0
M  V30 7537 C 724.884 -2.6222 5.24841 0
M  V30 7538 C 727.236 -2.54098 5.79325 0
M  V30 7539 C 725.9 -2.4904 6.19302 0
M  V30 7540 H 725.17 -0.593265 0.443979 0
M  V30 7541 H 727.817 -1.00803 1.62822 0
M  V30 7542 H 726.122 -3.61259 1.51655 0
M  V30 7543 H 727.819 -3.53161 1.89942 0
M  V30 7544 H 724.409 -2.8784 3.17563 0
M  V30 7545 H 728.593 -2.72956 4.14498 0
M  V30 7546 H 723.849 -2.56731 5.54887 0
M  V30 7547 H 728.023 -2.42938 6.52652 0
M  V30 7548 H 725.65 -2.34324 7.23185 0
M  V30 7549 N 727.225 -1.14528 -1.08264 0
M  V30 7550 C 728.135 -0.84728 -2.18765 0
M  V30 7551 C 729.151 0.172826 -1.7314 0
M  V30 7552 O 730.327 0.000985336 -2.014 0
M  V30 7553 C 727.392 -0.330633 -3.4512 0
M  V30 7554 C 726.453 -1.41348 -4.05363 0
M  V30 7555 C 725.686 -0.921387 -5.25686 0
M  V30 7556 O 725.909 0.236587 -5.69909 0
M  V30 7557 O 724.843 -1.70101 -5.77364 0
M  V30 7558 H 728.669 -1.7708 -2.46731 0
M  V30 7559 H 726.254 -0.923661 -1.17426 0
M  V30 7560 H 728.136 -0.0485053 -4.21372 0
M  V30 7561 H 726.811 0.565147 -3.18728 0
M  V30 7562 H 725.718 -1.74908 -3.30693 0
M  V30 7563 H 727.051 -2.28383 -4.36007 0
M  V30 7564 N 728.703 1.26451 -0.940633 0
M  V30 7565 C 729.952 1.93071 -0.583656 0
M  V30 7566 C 730.265 1.74618 0.881366 0
M  V30 7567 O 731.471 2.35689 1.34769 0
M  V30 7568 C 729.927 3.45927 -0.993106 0
M  V30 7569 C 729.535 3.73115 -2.4797 0
M  V30 7570 C 731.279 4.18554 -0.707998 0
M  V30 7571 C 729.186 5.19408 -2.82788 0
M  V30 7572 H 728.116 0.722824 -0.214572 0
M  V30 7573 H 730.767 1.43538 -1.1432 0
M  V30 7574 H 729.149 3.94341 -0.362099 0
M  V30 7575 H 730.323 3.35408 -3.15971 0
M  V30 7576 H 728.638 3.13719 -2.73805 0
M  V30 7577 H 731.235 5.26293 -0.94447 0
M  V30 7578 H 731.578 4.14782 0.355225 0
M  V30 7579 H 732.111 3.76003 -1.2987 0
M  V30 7580 H 728.85 5.28281 -3.88071 0
M  V30 7581 H 728.37 5.58214 -2.19449 0
M  V30 7582 H 730.049 5.87407 -2.71224 0
M  V30 7583 N 730.181 0.707592 1.40822 0
M  V30 7584 C 731.409 0.253073 2.05346 0
M  V30 7585 C 731.824 -1.10218 1.53289 0
M  V30 7586 O 731.181 -1.69112 0.686105 0
M  V30 7587 C 731.232 0.215411 3.60858 0
M  V30 7588 O 730.953 1.51714 4.10992 0
M  V30 7589 C 732.454 -0.258636 4.42545 0
M  V30 7590 H 729.674 0.115256 0.661027 0
M  V30 7591 H 732.218 0.963555 1.80377 0
M  V30 7592 H 730.373 -0.445978 3.84824 0
M  V30 7593 H 730.787 1.41226 5.05129 0
M  V30 7594 H 732.261 -0.233849 5.51504 0
M  V30 7595 H 732.738 -1.2995 4.19535 0
M  V30 7596 H 733.344 0.372186 4.23668 0
M  V30 7597 N 731.66 -1.50943 0.453197 0
M  V30 7598 C 732.888 -2.06628 -0.106135 0
M  V30 7599 C 733.303 -1.31901 -1.35084 0
M  V30 7600 O 732.66 -0.383074 -1.78434 0
M  V30 7601 C 732.711 -3.5914 -0.412368 0
M  V30 7602 O 732.432 -4.31047 0.782948 0
M  V30 7603 C 733.933 -4.31391 -1.02064 0
M  V30 7604 H 731.153 -0.670999 -0.000885896 0
M  V30 7605 H 733.697 -1.94331 0.63684 0
M  V30 7606 H 731.852 -3.71299 -1.10526 0
M  V30 7607 H 732.266 -5.21948 0.516736 0
M  V30 7608 H 733.74 -5.39135 -1.1848 0
M  V30 7609 H 734.217 -3.90714 -2.00598 0
M  V30 7610 H 734.823 -4.23716 -0.366664 0
M  V30 7611 N 733.138 -0.185124 -1.56509 0
M  V30 7612 C 734.101 0.72591 -2.17401 0
M  V30 7613 C 735.101 1.14819 -1.12575 0
M  V30 7614 O 736.291 1.0629 -1.38015 0
M  V30 7615 C 733.423 1.98979 -2.76803 0
M  V30 7616 H 734.616 0.195588 -2.99262 0
M  V30 7617 H 732.169 0.0644772 -1.56167 0
M  V30 7618 H 732.904 2.56287 -1.98714 0
M  V30 7619 H 732.689 1.69583 -3.53531 0
M  V30 7620 H 734.179 2.63966 -3.23592 0
M  V30 7621 N 734.616 1.57351 0.0885366 0
M  V30 7622 C 735.564 2.03542 1.12576 0
M  V30 7623 C 736.558 0.937668 1.41082 0
M  V30 7624 O 737.764 1.12283 1.40686 0
M  V30 7625 H 734.139 0.648752 0.380296 0
M  V30 7626 H 736.11 2.89833 0.709906 0
M  V30 7627 C 734.859 2.4811 2.43591 0
M  V30 7628 H 734.182 3.32164 2.22502 0
M  V30 7629 H 735.622 2.842 3.14653 0
M  V30 7630 C 734.081 1.35708 3.08359 0
M  V30 7631 O 734.611 0.689852 3.95732 0
M  V30 7632 N 732.817 1.10641 2.68713 0
M  V30 7633 H 732.364 1.6508 1.97753 0
M  V30 7634 H 732.322 0.356355 3.12374 0
M  V30 7635 N 736.094 -0.359525 1.53444 0
M  V30 7636 C 737.34 -1.10315 1.70172 0
M  V30 7637 C 737.673 -1.88788 0.455287 0
M  V30 7638 O 736.948 -1.86635 -0.547514 0
M  V30 7639 C 737.231 -2.05744 2.95536 0
M  V30 7640 C 737.084 -1.3084 4.3035 0
M  V30 7641 C 738.403 -3.05784 3.16518 0
M  V30 7642 H 735.522 -0.399662 0.619225 0
M  V30 7643 H 738.164 -0.383338 1.86093 0
M  V30 7644 H 736.314 -2.67125 2.82093 0
M  V30 7645 H 737.986 -0.721959 4.55615 0
M  V30 7646 H 736.229 -0.610283 4.29486 0
M  V30 7647 H 736.9 -2.00718 5.14214 0
M  V30 7648 H 739.376 -2.5451 3.29187 0
M  V30 7649 H 738.252 -3.69772 4.05659 0
M  V30 7650 H 738.513 -3.76289 2.32076 0
M  V30 7651 N 737.572 -1.44907 -0.619662 0
M  V30 7652 C 738.818 -1.48512 -1.38102 0
M  V30 7653 C 739.151 -0.121686 -1.93818 0
M  V30 7654 O 738.426 0.862256 -1.74343 0
M  V30 7655 C 738.709 -2.55469 -2.53787 0
M  V30 7656 C 738.562 -4.01212 -2.03345 0
M  V30 7657 C 739.881 -2.58821 -3.55949 0
M  V30 7658 H 737 -0.540712 -0.500799 0
M  V30 7659 H 739.642 -1.7665 -0.69962 0
M  V30 7660 H 737.792 -2.31606 -3.11915 0
M  V30 7661 H 739.464 -4.36245 -1.49959 0
M  V30 7662 H 737.707 -4.12443 -1.34438 0
M  V30 7663 H 738.378 -4.71717 -2.86683 0
M  V30 7664 H 740.854 -2.80172 -3.07641 0
M  V30 7665 H 739.73 -3.35542 -4.34399 0
M  V30 7666 H 739.991 -1.63451 -4.10775 0
M  V30 7667 N 739.05 0.861098 -1.31996 0
M  V30 7668 C 740.28 1.64501 -1.24992 0
M  V30 7669 C 740.688 1.88288 0.185576 0
M  V30 7670 O 740.031 1.44756 1.131 0
M  V30 7671 C 740.093 3.03098 -1.93319 0
M  V30 7672 C 739.757 3.02381 -3.42658 0
M  V30 7673 C 740.754 2.79696 -4.38254 0
M  V30 7674 C 738.439 3.23221 -3.84491 0
M  V30 7675 C 740.433 2.77843 -5.73657 0
M  V30 7676 C 738.12 3.20996 -5.20005 0
M  V30 7677 C 739.118 2.98335 -6.14398 0
M  V30 7678 O 738.806 2.95971 -7.47433 0
M  V30 7679 H 738.538 0.519309 -0.432775 0
M  V30 7680 H 741.092 1.08241 -1.74565 0
M  V30 7681 H 739.322 3.61121 -1.38306 0
M  V30 7682 H 741.011 3.63751 -1.8011 0
M  V30 7683 H 741.777 2.63368 -4.07262 0
M  V30 7684 H 737.656 3.39887 -3.11445 0
M  V30 7685 H 741.2 2.60074 -6.47308 0
M  V30 7686 H 737.097 3.36865 -5.50629 0
M  V30 7687 H 737.865 3.1197 -7.56714 0
M  V30 7688 N 740.528 1.15101 1.07655 0
M  V30 7689 C 741.758 0.946357 1.83651 0
M  V30 7690 C 742.166 -0.508641 1.82235 0
M  V30 7691 O 741.509 -1.36445 1.22997 0
M  V30 7692 C 741.571 1.37945 3.31981 0
M  V30 7693 C 741.235 2.85155 3.57122 0
M  V30 7694 C 742.232 3.83234 3.51323 0
M  V30 7695 C 739.917 3.2275 3.84887 0
M  V30 7696 C 741.911 5.16914 3.72932 0
M  V30 7697 C 739.598 4.56604 4.06148 0
M  V30 7698 C 740.596 5.53495 4.00165 0
M  V30 7699 O 740.284 6.84931 4.20861 0
M  V30 7700 H 740.016 0.336368 0.586372 0
M  V30 7701 H 742.57 1.53198 1.36819 0
M  V30 7702 H 740.8 0.737205 3.79608 0
M  V30 7703 H 742.489 1.14439 3.89434 0
M  V30 7704 H 743.255 3.55535 3.29878 0
M  V30 7705 H 739.134 2.47921 3.88659 0
M  V30 7706 H 742.678 5.92529 3.68178 0
M  V30 7707 H 738.575 4.84019 4.27078 0
M  V30 7708 H 739.343 6.91304 4.38226 0
M  V30 7709 N 742.006 -1.2595 0.947325 0
M  V30 7710 C 743.252 -1.9375 0.599064 0
M  V30 7711 C 743.585 -1.74088 -0.860632 0
M  V30 7712 O 742.86 -1.08158 -1.61654 0
M  V30 7713 C 743.143 -3.47353 0.949634 0
M  V30 7714 C 742.996 -3.76273 2.46452 0
M  V30 7715 C 744.315 -4.37589 0.469442 0
M  V30 7716 H 741.434 -0.703674 0.219115 0
M  V30 7717 H 744.076 -1.48705 1.18266 0
M  V30 7718 H 742.226 -3.8585 0.453008 0
M  V30 7719 H 743.898 -3.47455 3.03435 0
M  V30 7720 H 742.141 -3.22135 2.90537 0
M  V30 7721 H 742.812 -4.83664 2.66032 0
M  V30 7722 H 745.288 -4.06353 0.89534 0
M  V30 7723 H 744.164 -5.43841 0.7435 0
M  V30 7724 H 744.425 -4.37579 -0.630618 0
M  V30 7725 N 743.484 -0.715051 -1.40445 0
M  V30 7726 C 744.732 -0.253826 -2.005 0
M  V30 7727 C 745.053 1.15681 -1.5698 0
M  V30 7728 O 744.323 1.78414 -0.809027 0
M  V30 7729 H 742.903 -0.0908537 -0.741454 0
M  V30 7730 H 745.565 -0.920561 -1.7179 0
M  V30 7731 H 744.661 -0.286499 -3.10782 0
M  V30 7732 N 744.962 1.50701 -0.461195 0
M  V30 7733 C 745.872 2.32069 0.343661 0
M  V30 7734 C 746.888 1.42016 1.00535 0
M  V30 7735 O 748.064 1.75077 0.995498 0
M  V30 7736 C 745.129 3.16424 1.41692 0
M  V30 7737 C 744.19 4.22286 0.772869 0
M  V30 7738 C 743.423 5.02609 1.79499 0
M  V30 7739 O 743.646 4.83874 3.0203 0
M  V30 7740 O 742.58 5.86047 1.3723 0
M  V30 7741 H 746.406 3.01996 -0.321268 0
M  V30 7742 H 743.991 1.47723 -0.223235 0
M  V30 7743 H 745.873 3.68795 2.03883 0
M  V30 7744 H 744.548 2.49236 2.0655 0
M  V30 7745 H 743.455 3.73931 0.112277 0
M  V30 7746 H 744.788 4.91915 0.167399 0
M  V30 7747 N 746.441 0.193421 1.56409 0
M  V30 7748 C 747.389 -0.744829 2.20352 0
M  V30 7749 C 748.383 -1.22104 1.17418 0
M  V30 7750 O 749.589 -1.18413 1.35567 0
M  V30 7751 H 745.964 -0.258538 0.70616 0
M  V30 7752 H 747.935 -0.181794 2.97846 0
M  V30 7753 C 746.684 -1.95453 2.87565 0
M  V30 7754 H 746.007 -1.59716 3.66512 0
M  V30 7755 H 747.447 -2.58942 3.35745 0
M  V30 7756 C 745.906 -2.79223 1.8851 0
M  V30 7757 O 746.436 -3.77093 1.38434 0
M  V30 7758 N 744.642 -2.44682 1.56777 0
M  V30 7759 H 744.189 -1.65153 1.97692 0
M  V30 7760 H 744.147 -3.01016 0.907573 0
M  V30 7761 N 747.919 -1.57396 -0.0801906 0
M  V30 7762 C 749.165 -1.87113 -0.782083 0
M  V30 7763 C 749.498 -0.78458 -1.77646 0
M  V30 7764 O 748.773 0.205993 -1.93406 0
M  V30 7765 C 749.056 -3.27483 -1.49756 0
M  V30 7766 C 748.909 -4.46782 -0.520171 0
M  V30 7767 C 750.228 -3.65965 -2.44454 0
M  V30 7768 H 747.347 -0.680559 -0.282858 0
M  V30 7769 H 749.989 -1.89946 -0.0454139 0
M  V30 7770 H 748.139 -3.25199 -2.12551 0
M  V30 7771 H 749.811 -4.61187 0.101919 0
M  V30 7772 H 748.054 -4.33485 0.165219 0
M  V30 7773 H 748.725 -5.41761 -1.05824 0
M  V30 7774 H 751.201 -3.69289 -1.91742 0
M  V30 7775 H 750.077 -4.65086 -2.91524 0
M  V30 7776 H 750.338 -2.95446 -3.28883 0
M  V30 7777 N 749.397 0.351382 -1.53633 0
M  V30 7778 C 750.643 1.09411 -1.70754 0
M  V30 7779 C 750.976 1.88544 -0.465293 0
M  V30 7780 O 750.251 1.86923 0.537608 0
M  V30 7781 C 750.534 2.04173 -2.96623 0
M  V30 7782 C 750.387 1.28556 -4.31038 0
M  V30 7783 C 751.706 3.04102 -3.18136 0
M  V30 7784 H 748.825 0.396373 -0.621335 0
M  V30 7785 H 751.467 0.373464 -1.86293 0
M  V30 7786 H 749.617 2.65625 -2.83506 0
M  V30 7787 H 751.289 0.697786 -4.55992 0
M  V30 7788 H 749.532 0.587498 -4.29803 0
M  V30 7789 H 750.203 1.97989 -5.15271 0
M  V30 7790 H 752.679 2.5276 -3.30532 0
M  V30 7791 H 751.555 3.67616 -4.07615 0
M  V30 7792 H 751.816 3.75053 -2.34068 0
M  V30 7793 N 750.875 1.45233 0.611969 0
M  V30 7794 C 751.823 1.53898 1.74408 0
M  V30 7795 C 752.817 0.409254 1.64382 0
M  V30 7796 O 754.023 0.584988 1.70229 0
M  V30 7797 H 750.398 0.483303 0.576127 0
M  V30 7798 H 752.369 2.49143 1.64227 0
M  V30 7799 C 751.118 1.51865 3.12782 0
M  V30 7800 H 750.441 2.38118 3.21154 0
M  V30 7801 H 751.881 1.61986 3.91838 0
M  V30 7802 C 750.34 0.242374 3.36027 0
M  V30 7803 O 750.87 -0.679587 3.9591 0
M  V30 7804 N 749.076 0.139448 2.90265 0
M  V30 7805 H 748.623 0.890571 2.41716 0
M  V30 7806 H 748.581 -0.713686 3.06193 0
M  V30 7807 N 752.353 -0.854086 1.3245 0
M  V30 7808 C 753.764 -1.42427 1.20712 0
M  V30 7809 C 754.115 -1.95371 -0.18013 0
M  V30 7810 O 753.24 -1.87587 -1.07889 0
M  V30 7811 C 753.835 -2.58897 2.18536 0
M  V30 7812 C 752.394 -3.11913 2.10683 0
M  V30 7813 C 751.541 -1.84661 2.06871 0
M  V30 7814 H 754.492 -0.661192 1.4427 0
M  V30 7815 H 754.513 -3.36074 1.78422 0
M  V30 7816 H 754.025 -2.20333 3.19492 0
M  V30 7817 H 752.126 -3.55059 1.12977 0
M  V30 7818 H 752.239 -3.73119 3.00532 0
M  V30 7819 H 750.603 -2.04285 1.52118 0
M  V30 7820 H 751.386 -1.48314 3.09609 0
M  V30 7821 N 753.831 -1.1567 -1.07043 0
M  V30 7822 C 755.056 -0.957946 -1.83952 0
M  V30 7823 C 755.481 0.488807 -1.81638 0
M  V30 7824 O 754.839 1.34869 -1.21162 0
M  V30 7825 C 754.887 -1.48064 -3.288 0
M  V30 7826 O 753.991 -0.681921 -4.06723 0
M  V30 7827 H 753.332 -0.341453 -0.569479 0
M  V30 7828 H 755.862 -1.53728 -1.35015 0
M  V30 7829 H 755.872 -1.49484 -3.7963 0
M  V30 7830 H 754.547 -2.53388 -3.29799 0
M  V30 7831 H 753.124 -0.737612 -3.65532 0
M  V30 7832 N 755.309 1.25446 -0.953992 0
M  V30 7833 C 756.534 1.97755 -0.625129 0
M  V30 7834 C 756.959 1.70437 0.795787 0
M  V30 7835 O 756.317 0.95992 1.53803 0
M  V30 7836 C 756.365 3.49463 -0.889251 0
M  V30 7837 O 755.469 4.12387 0.0322757 0
M  V30 7838 H 754.81 0.61998 -0.237742 0
M  V30 7839 H 757.34 1.59582 -1.28041 0
M  V30 7840 H 757.35 3.99772 -0.815263 0
M  V30 7841 H 756.025 3.68676 -1.92487 0
M  V30 7842 H 754.602 3.72782 -0.0938625 0
M  V30 7843 N 756.787 0.722489 1.40064 0
M  V30 7844 C 758.198 0.336507 1.83642 0
M  V30 7845 C 758.549 -1.13002 1.6039 0
M  V30 7846 O 757.674 -1.87036 1.08842 0
M  V30 7847 C 758.269 0.603985 3.33373 0
M  V30 7848 C 756.828 0.271637 3.75419 0
M  V30 7849 C 755.975 0.872898 2.63203 0
M  V30 7850 H 758.926 0.921108 1.29233 0
M  V30 7851 H 758.947 -0.128471 3.80283 0
M  V30 7852 H 758.459 1.67141 3.50265 0
M  V30 7853 H 756.56 -0.790455 3.64119 0
M  V30 7854 H 756.673 0.745457 4.73265 0
M  V30 7855 H 755.037 0.300431 2.52922 0
M  V30 7856 H 755.82 1.94473 2.82905 0
M  V30 7857 N 758.265 -1.50454 0.469181 0
M  V30 7858 C 759.49 -2.0722 -0.0864892 0
M  V30 7859 C 759.915 -1.33098 -1.32916 0
M  V30 7860 O 759.273 -0.378084 -1.77314 0
M  V30 7861 C 759.321 -3.58845 -0.355384 0
M  V30 7862 O 758.425 -3.86583 -1.43622 0
M  V30 7863 H 757.766 -0.663889 0.0121414 0
M  V30 7864 H 760.296 -1.93674 0.659674 0
M  V30 7865 H 760.306 -4.03617 -0.596447 0
M  V30 7866 H 758.981 -4.12211 0.552698 0
M  V30 7867 H 757.558 -3.5365 -1.18262 0
M  V30 7868 N 759.743 -0.201713 -1.56304 0
M  V30 7869 C 761.154 0.309711 -1.84113 0
M  V30 7870 C 761.505 1.60912 -1.12258 0
M  V30 7871 O 760.63 2.12937 -0.385587 0
M  V30 7872 C 761.225 0.568706 -3.33993 0
M  V30 7873 C 759.784 1.02448 -3.6219 0
M  V30 7874 C 758.931 0.0766842 -2.77194 0
M  V30 7875 H 761.882 -0.425356 -1.52893 0
M  V30 7876 H 761.903 1.41721 -3.53122 0
M  V30 7877 H 761.415 -0.37719 -3.86263 0
M  V30 7878 H 759.516 1.98443 -3.15359 0
M  V30 7879 H 759.629 0.912619 -4.70328 0
M  V30 7880 H 757.993 0.579809 -2.48013 0
M  V30 7881 H 758.776 -0.863774 -3.32256 0
M  V30 7882 N 761.222 1.57436 0.0718424 0
M  V30 7883 C 762.17 2.04725 1.10411 0
M  V30 7884 C 763.164 0.952579 1.4008 0
M  V30 7885 O 764.37 1.13769 1.39487 0
M  V30 7886 H 760.745 0.652749 0.373393 0
M  V30 7887 H 762.716 2.90569 0.679126 0
M  V30 7888 C 761.465 2.5068 2.40946 0
M  V30 7889 H 760.788 3.34505 2.18967 0
M  V30 7890 H 762.228 2.87521 3.11621 0
M  V30 7891 C 760.687 1.38971 3.06902 0
M  V30 7892 O 761.217 0.731786 3.94978 0
M  V30 7893 N 759.423 1.13485 2.67525 0
M  V30 7894 H 758.97 1.67168 1.95991 0
M  V30 7895 H 758.928 0.389467 3.11978 0
M  V30 7896 N 762.7 -0.34323 1.53817 0
M  V30 7897 C 763.648 -1.44176 1.82527 0
M  V30 7898 C 764.642 -1.54452 0.695772 0
M  V30 7899 O 765.848 -1.57072 0.879114 0
M  V30 7900 H 762.223 -0.480729 0.578277 0
M  V30 7901 H 764.194 -1.17176 2.74431 0
M  V30 7902 C 762.943 -2.80695 2.05197 0
M  V30 7903 H 762.266 -2.73554 2.91561 0
M  V30 7904 H 763.706 -3.56679 2.29251 0
M  V30 7905 C 762.165 -3.26322 0.837589 0
M  V30 7906 O 762.695 -4.01683 0.0371631 0
M  V30 7907 N 760.901 -2.83128 0.654724 0
M  V30 7908 H 760.448 -2.21965 1.30725 0
M  V30 7909 H 760.406 -3.14011 -0.156345 0
M  V30 7910 N 764.178 -1.45556 -0.604258 0
M  V30 7911 C 765.403 -1.53509 -1.39462 0
M  V30 7912 C 765.828 -0.169638 -1.87333 0
M  V30 7913 O 765.186 0.846346 -1.60333 0
M  V30 7914 C 765.234 -2.52654 -2.5729 0
M  V30 7915 O 764.338 -2.04666 -3.5803 0
M  V30 7916 H 763.679 -0.517355 -0.416221 0
M  V30 7917 H 766.209 -1.90939 -0.735072 0
M  V30 7918 H 766.219 -2.71568 -3.04491 0
M  V30 7919 H 764.894 -3.51823 -2.21797 0
M  V30 7920 H 763.471 -1.95643 -3.17456 0
M  V30 7921 N 765.656 0.84705 -1.32902 0
M  V30 7922 C 766.902 1.60414 -1.24078 0
M  V30 7923 C 767.235 1.93217 0.195105 0
M  V30 7924 O 766.51 1.58001 1.13428 0
M  V30 7925 C 766.793 2.91951 -2.108 0
M  V30 7926 C 766.646 2.6588 -3.62805 0
M  V30 7927 C 767.965 3.93299 -1.97494 0
M  V30 7928 H 765.084 0.58206 -0.452079 0
M  V30 7929 H 767.726 0.977562 -1.62922 0
M  V30 7930 H 765.876 3.45425 -1.77802 0
M  V30 7931 H 767.548 2.18902 -4.06054 0
M  V30 7932 H 765.791 1.99716 -3.85092 0
M  V30 7933 H 766.462 3.59574 -4.1882 0
M  V30 7934 H 768.938 3.49105 -2.26417 0
M  V30 7935 H 767.814 4.8318 -2.60438 0
M  V30 7936 H 768.075 4.31887 -0.944782 0
M  V30 7937 N 767.134 1.16236 1.06428 0
M  V30 7938 C 768.064 0.890807 2.1584 0
M  V30 7939 C 769.045 -0.162333 1.69324 0
M  V30 7940 O 770.23 -0.0147191 1.94194 0
M  V30 7941 C 767.36 0.389615 3.45108 0
M  V30 7942 C 766.314 1.38051 4.05125 0
M  V30 7943 C 765.64 0.737773 5.29586 0
M  V30 7944 C 766.94 2.74965 4.44062 0
M  V30 7945 H 768.634 1.80577 2.38814 0
M  V30 7946 H 766.18 0.869657 1.14774 0
M  V30 7947 H 768.133 0.187127 4.20984 0
M  V30 7948 H 766.857 -0.560851 3.21748 0
M  V30 7949 H 765.516 1.56952 3.31303 0
M  V30 7950 H 765.164 -0.219135 5.02522 0
M  V30 7951 H 764.864 1.39914 5.70699 0
M  V30 7952 H 766.388 0.545275 6.0816 0
M  V30 7953 H 767.802 2.59855 5.11027 0
M  V30 7954 H 766.199 3.37563 4.96156 0
M  V30 7955 H 767.269 3.30321 3.54987 0
M  V30 7956 N 768.612 -1.24939 0.960631 0
M  V30 7957 C 769.84 -1.96881 0.636045 0
M  V30 7958 C 770.255 -1.71334 -0.793093 0
M  V30 7959 O 769.612 -0.992917 -1.53125 0
M  V30 7960 C 769.663 -3.50309 0.892533 0
M  V30 7961 O 769.384 -3.74977 2.26548 0
M  V30 7962 C 770.885 -4.39474 0.581159 0
M  V30 7963 H 768.105 -0.627399 0.237931 0
M  V30 7964 H 770.649 -1.58952 1.28664 0
M  V30 7965 H 768.804 -3.86326 0.288257 0
M  V30 7966 H 769.218 -4.69401 2.34014 0
M  V30 7967 H 770.692 -5.46008 0.811125 0
M  V30 7968 H 771.169 -4.3652 -0.48443 0
M  V30 7969 H 771.775 -4.09032 1.16502 0
M  V30 7970 N 770.09 -0.729906 -1.39679 0
M  V30 7971 C 771.315 -0.284345 -2.05442 0
M  V30 7972 C 771.74 1.07056 -1.54663 0
M  V30 7973 O 771.098 1.67732 -0.688157 0
M  V30 7974 C 771.146 -0.290089 -3.59431 0
M  V30 7975 O 770.25 0.723978 -4.05995 0
M  V30 7976 H 769.591 -0.130311 -0.651088 0
M  V30 7977 H 772.121 -0.994403 -1.78809 0
M  V30 7978 H 772.131 -0.132712 -4.07784 0
M  V30 7979 H 770.806 -1.27877 -3.95753 0
M  V30 7980 H 769.383 0.533154 -3.69069 0
M  V30 7981 N 771.568 1.50203 -0.477153 0
M  V30 7982 C 772.816 2.01959 0.0755889 0
M  V30 7983 C 773.137 1.3608 1.39668 0
M  V30 7984 O 772.407 0.508136 1.89195 0
M  V30 7985 H 770.987 0.74636 0.0309248 0
M  V30 7986 H 773.649 1.84473 -0.628959 0
M  V30 7987 H 772.745 3.11305 0.222683 0
M  V30 7988 N 773.046 0.209999 1.56195 0
M  V30 7989 C 774.292 -0.425442 1.98287 0
M  V30 7990 C 774.625 -1.60232 1.09724 0
M  V30 7991 O 773.9 -1.93902 0.152414 0
M  V30 7992 C 774.183 -0.871189 3.49403 0
M  V30 7993 C 774.036 0.308527 4.48741 0
M  V30 7994 C 775.355 -1.73146 4.04609 0
M  V30 7995 H 772.474 -0.153169 0.720908 0
M  V30 7996 H 775.116 0.303916 1.87554 0
M  V30 7997 H 773.266 -1.49266 3.58681 0
M  V30 7998 H 774.938 0.946487 4.51486 0
M  V30 7999 H 773.181 0.957878 4.23092 0
M  V30 8000 H 773.852 -0.0461143 5.51981 0
M  V30 8001 H 776.328 -1.2072 3.98203 0
M  V30 8002 H 775.204 -2.01228 5.10684 0
M  V30 8003 H 775.465 -2.69083 3.5078 0
M  V30 8004 N 774.524 -1.57472 -0.0634922 0
M  V30 8005 C 775.772 -1.87283 -0.759563 0
M  V30 8006 C 776.093 -0.803135 -1.77693 0
M  V30 8007 O 775.363 0.167293 -1.95184 0
M  V30 8008 H 773.943 -0.691106 -0.283516 0
M  V30 8009 H 776.605 -1.94864 -0.0376091 0
M  V30 8010 H 775.701 -2.85064 -1.27062 0
M  V30 8011 N 776.003 0.335068 -1.53997 0
M  V30 8012 C 776.966 1.39481 -1.81872 0
M  V30 8013 C 777.966 1.4524 -0.690078 0
M  V30 8014 O 779.156 1.45467 -0.958377 0
M  V30 8015 C 776.288 2.78329 -1.9684 0
M  V30 8016 H 777.481 1.16024 -2.76547 0
M  V30 8017 H 775.034 0.569926 -1.45539 0
M  V30 8018 H 775.769 3.07058 -1.04337 0
M  V30 8019 H 775.554 2.75544 -2.78958 0
M  V30 8020 H 777.044 3.55016 -2.19894 0
M  V30 8021 N 777.481 1.45874 0.596531 0
M  V30 8022 C 778.758 1.40942 1.35627 0
M  V30 8023 C 779.138 0.0857066 2.10926 0
M  V30 8024 O 778.486 -0.932544 2.08605 0
M  V30 8025 C 778.696 2.63027 2.29386 0
M  V30 8026 C 780.044 3.08588 2.91649 0
M  V30 8027 O 781.068 2.63478 2.39704 0
M  V30 8028 O 779.927 3.86902 3.85965 0
M  V30 8029 H 777.021 0.559838 0.608696 0
M  V30 8030 H 779.567 1.5802 0.618698 0
M  V30 8031 H 778.339 3.5094 1.7308 0
M  V30 8032 H 777.962 2.48338 3.10506 0
M  V30 8033 N 778.959 -0.83999 1.33349 0
M  V30 8034 C 780.205 -1.59753 1.24927 0
M  V30 8035 C 780.538 -1.93318 -0.184855 0
M  V30 8036 O 779.813 -1.586 -1.12589 0
M  V30 8037 C 780.096 -2.90829 2.12345 0
M  V30 8038 C 779.949 -2.63953 3.6421 0
M  V30 8039 C 781.268 -3.92246 1.99577 0
M  V30 8040 H 778.387 -0.579654 0.45516 0
M  V30 8041 H 781.029 -0.968909 1.63439 0
M  V30 8042 H 779.179 -3.44478 1.79631 0
M  V30 8043 H 780.851 -2.16745 4.07209 0
M  V30 8044 H 779.094 -1.97671 3.86146 0
M  V30 8045 H 779.765 -3.57348 4.20721 0
M  V30 8046 H 782.241 -3.479 2.28265 0
M  V30 8047 H 781.117 -4.81793 2.62996 0
M  V30 8048 H 781.378 -4.3138 0.967673 0
M  V30 8049 N 780.437 -1.16799 -1.0581 0
M  V30 8050 C 781.4 -0.881396 -2.11575 0
M  V30 8051 C 782.4 0.12574 -1.60308 0
M  V30 8052 O 783.59 -0.105716 -1.73879 0
M  V30 8053 C 780.722 -0.319037 -3.39404 0
M  V30 8054 H 781.915 -1.81907 -2.38432 0
M  V30 8055 H 779.468 -0.977597 -1.21954 0
M  V30 8056 H 780.203 0.626082 -3.18199 0
M  V30 8057 H 779.988 -1.04481 -3.77923 0
M  V30 8058 H 781.478 -0.13663 -4.17376 0
M  V30 8059 N 781.915 1.24427 -0.967243 0
M  V30 8060 C 783.331 1.44684 -0.6737 0
M  V30 8061 C 783.531 1.86429 0.764625 0
M  V30 8062 O 782.587 2.00211 1.53857 0
M  V30 8063 C 783.9 2.509 -1.6574 0
M  V30 8064 C 785.448 2.64728 -1.66998 0
M  V30 8065 C 785.923 3.7414 -2.64165 0
M  V30 8066 N 787.414 3.81567 -2.62604 0
M  V30 8067 C 788.149 4.6575 -3.34462 0
M  V30 8068 N 787.645 5.54124 -4.15835 0
M  V30 8069 N 789.438 4.59827 -3.23288 0
M  V30 8070 H 781.589 0.956276 -1.89655 0
M  V30 8071 H 783.852 0.48171 -0.816492 0
M  V30 8072 H 783.558 2.27113 -2.68538 0
M  V30 8073 H 783.432 3.4905 -1.42981 0
M  V30 8074 H 785.819 2.87872 -0.649121 0
M  V30 8075 H 785.9 1.66936 -1.93819 0
M  V30 8076 H 785.544 3.51745 -3.66384 0
M  V30 8077 H 785.474 4.71444 -2.34623 0
M  V30 8078 H 787.965 3.18403 -2.03539 0
M  V30 8079 H 788.278 6.15316 -4.67553 0
M  V30 8080 H 786.623 5.53791 -4.19929 0
M  V30 8081 H 789.814 3.898 -2.59179 0
M  V30 8082 H 789.987 5.25208 -3.79553 0
M  V30 8083 N 783.393 0.737304 1.3929 0
M  V30 8084 C 784.326 0.0475454 2.2815 0
M  V30 8085 C 785.304 -0.745314 1.44512 0
M  V30 8086 O 786.488 -0.727387 1.739 0
M  V30 8087 C 783.615 -0.939803 3.254 0
M  V30 8088 C 782.661 -0.235153 4.25851 0
M  V30 8089 S 783.494 1.05252 5.25055 0
M  V30 8090 C 784.65 0.0678242 6.25863 0
M  V30 8091 H 784.883 0.801117 2.86303 0
M  V30 8092 H 782.416 0.529197 1.45048 0
M  V30 8093 H 784.374 -1.50417 3.81949 0
M  V30 8094 H 783.035 -1.66623 2.66262 0
M  V30 8095 H 782.228 -0.982336 4.94334 0
M  V30 8096 H 781.83 0.257245 3.73114 0
M  V30 8097 H 784.122 -0.771779 6.7309 0
M  V30 8098 H 785.065 0.719858 7.04431 0
M  V30 8099 H 785.473 -0.305604 5.63672 0
M  V30 8100 N 784.871 -1.49948 0.485112 0
M  V30 8101 C 786.117 -2.0332 -0.0571625 0
M  V30 8102 C 786.472 -1.35951 -1.36144 0
M  V30 8103 O 785.765 -0.480871 -1.85467 0
M  V30 8104 C 785.959 -3.56282 -0.282434 0
M  V30 8105 C 785.788 -4.38476 0.998455 0
M  V30 8106 C 784.558 -4.81076 1.54576 0
M  V30 8107 C 786.756 -4.78013 1.89758 0
M  V30 8108 N 784.738 -5.47641 2.77421 0
M  V30 8109 C 786.109 -5.44133 2.97186 0
M  V30 8110 C 788.164 -4.59963 1.90627 0
M  V30 8111 C 786.867 -5.94113 4.0549 0
M  V30 8112 C 788.893 -5.10893 2.97897 0
M  V30 8113 C 788.255 -5.77 4.04043 0
M  V30 8114 H 784.354 -0.781758 0.0194642 0
M  V30 8115 H 786.938 -1.833 0.65644 0
M  V30 8116 H 785.109 -3.76219 -0.965083 0
M  V30 8117 H 786.841 -3.96299 -0.820298 0
M  V30 8118 H 783.596 -4.60814 1.09304 0
M  V30 8119 H 784.02 -5.85521 3.39844 0
M  V30 8120 H 788.662 -4.08274 1.09875 0
M  V30 8121 H 786.38 -6.44832 4.8705 0
M  V30 8122 H 789.966 -4.98748 2.9957 0
M  V30 8123 H 788.846 -6.15698 4.85681 0
M  V30 8124 N 786.349 -0.21828 -1.56081 0
M  V30 8125 C 787.259 0.704602 -2.23769 0
M  V30 8126 C 788.275 1.21633 -1.24425 0
M  V30 8127 O 789.451 1.25862 -1.57228 0
M  V30 8128 C 786.516 1.89725 -2.90182 0
M  V30 8129 C 785.577 1.42782 -4.0486 0
M  V30 8130 C 784.81 2.56361 -4.68097 0
M  V30 8131 O 785.033 3.74417 -4.30312 0
M  V30 8132 O 783.967 2.2775 -5.57148 0
M  V30 8133 H 787.793 0.158007 -3.03289 0
M  V30 8134 H 785.378 0.0120279 -1.49395 0
M  V30 8135 H 787.26 2.59382 -3.32113 0
M  V30 8136 H 785.935 2.432 -2.13624 0
M  V30 8137 H 784.842 0.699359 -3.67505 0
M  V30 8138 H 786.175 0.939474 -4.83151 0
M  V30 8139 N 787.827 1.57504 0.0551401 0
M  V30 8140 C 789.076 1.87237 0.750009 0
M  V30 8141 C 789.389 0.813268 1.77891 0
M  V30 8142 O 790.595 0.99898 2.52453 0
M  V30 8143 C 789.051 3.32187 1.38491 0
M  V30 8144 C 788.659 4.46267 0.393707 0
M  V30 8145 C 790.403 3.71101 2.06117 0
M  V30 8146 C 788.31 5.82265 1.03547 0
M  V30 8147 H 787.24 0.698524 0.283866 0
M  V30 8148 H 789.891 1.835 0.00365997 0
M  V30 8149 H 788.273 3.30588 2.18008 0
M  V30 8150 H 789.447 4.59289 -0.372865 0
M  V30 8151 H 787.762 4.16015 -0.17902 0
M  V30 8152 H 790.359 4.70012 2.54937 0
M  V30 8153 H 790.702 3.01751 2.86796 0
M  V30 8154 H 791.235 3.74762 1.33409 0
M  V30 8155 H 787.974 6.54949 0.268644 0
M  V30 8156 H 787.494 5.73012 1.7725 0
M  V30 8157 H 789.173 6.28148 1.55047 0
M  V30 8158 N 789.305 -0.326896 1.54172 0
M  V30 8159 C 790.268 -1.38515 1.8261 0
M  V30 8160 C 791.268 -1.44872 0.697771 0
M  V30 8161 O 792.458 -1.44957 0.966078 0
M  V30 8162 C 789.59 -2.77281 1.98313 0
M  V30 8163 H 790.783 -1.14556 2.77159 0
M  V30 8164 H 788.336 -0.562199 1.45839 0
M  V30 8165 H 789.071 -3.065 1.05964 0
M  V30 8166 H 788.856 -2.74061 2.80416 0
M  V30 8167 H 790.346 -3.53845 2.21773 0
M  V30 8168 N 790.784 -1.46188 -0.588786 0
M  V30 8169 C 792.033 -1.50452 -1.34339 0
M  V30 8170 C 792.346 -0.158096 -1.9496 0
M  V30 8171 O 793.552 -0.0784918 -2.71387 0
M  V30 8172 C 792.008 -2.65074 -2.43441 0
M  V30 8173 C 791.616 -4.06111 -1.8915 0
M  V30 8174 C 793.36 -2.78603 -3.20282 0
M  V30 8175 C 791.267 -5.12084 -2.95845 0
M  V30 8176 H 790.197 -0.559905 -0.504997 0
M  V30 8177 H 792.848 -1.72382 -0.629014 0
M  V30 8178 H 791.23 -2.36462 -3.1765 0
M  V30 8179 H 792.404 -4.44487 -1.21524 0
M  V30 8180 H 790.719 -3.97197 -1.24995 0
M  V30 8181 H 793.316 -3.54944 -3.99898 0
M  V30 8182 H 793.659 -1.85902 -3.72486 0
M  V30 8183 H 794.192 -3.06832 -2.53178 0
M  V30 8184 H 790.931 -6.06556 -2.48535 0
M  V30 8185 H 790.451 -4.78259 -3.61979 0
M  V30 8186 H 792.13 -5.37661 -3.59902 0
M  V30 8187 N 792.262 0.832906 -1.33792 0
M  V30 8188 C 793.194 1.95042 -1.2038 0
M  V30 8189 C 794.207 1.62253 -0.133299 0
M  V30 8190 O 795.396 1.74315 -0.384261 0
M  V30 8191 C 792.496 3.287 -0.825215 0
M  V30 8192 C 791.669 3.89581 -1.98861 0
M  V30 8193 C 790.728 5.01602 -1.59003 0
M  V30 8194 O 789.754 5.20431 -2.30522 0
M  V30 8195 N 790.956 5.78356 -0.498446 0
M  V30 8196 H 793.721 2.07083 -2.16649 0
M  V30 8197 H 791.282 1.00896 -1.26616 0
M  V30 8198 H 793.274 4.01074 -0.540559 0
M  V30 8199 H 791.844 3.12565 0.0469796 0
M  V30 8200 H 791.064 3.09723 -2.43856 0
M  V30 8201 H 792.352 4.26989 -2.76691 0
M  V30 8202 H 791.75 5.65618 0.0963297 0
M  V30 8203 H 790.307 6.51226 -0.273485 0
M  V30 8204 N 793.74 1.17359 1.05189 0
M  V30 8205 C 794.69 0.858445 2.11222 0
M  V30 8206 C 795.674 -0.166991 1.60031 0
M  V30 8207 O 796.866 0.0354456 1.76965 0
M  V30 8208 C 793.995 0.373549 3.41262 0
M  V30 8209 C 793.081 1.43041 3.99249 0
M  V30 8210 N 793.472 2.64387 4.312 0
M  V30 8211 C 791.77 1.28828 4.26989 0
M  V30 8212 C 792.471 3.32296 4.77446 0
M  V30 8213 N 791.447 2.59674 4.77567 0
M  V30 8214 H 795.249 1.78104 2.33786 0
M  V30 8215 H 792.763 1.0623 1.22837 0
M  V30 8216 H 794.76 0.129331 4.16699 0
M  V30 8217 H 793.42 -0.542847 3.2013 0
M  V30 8218 H 794.431 3.01351 4.21198 0
M  V30 8219 H 791.108 0.43353 4.15243 0
M  V30 8220 H 792.498 4.35939 5.11279 0
M  V30 8221 N 795.218 -1.23913 0.973828 0
M  V30 8222 C 796.181 -2.23367 0.51378 0
M  V30 8223 C 797.181 -1.55923 -0.39302 0
M  V30 8224 O 798.371 -1.73187 -0.187626 0
M  V30 8225 C 795.503 -3.39944 -0.255152 0
M  V30 8226 H 796.696 -2.65581 1.39307 0
M  V30 8227 H 794.249 -1.36632 0.759039 0
M  V30 8228 H 794.984 -3.03177 -1.15127 0
M  V30 8229 H 794.769 -3.90098 0.395673 0
M  V30 8230 H 796.259 -4.13749 -0.565842 0
M  V30 8231 N 796.696 -0.74468 -1.38897 0
M  V30 8232 C 797.626 -0.126355 -2.33158 0
M  V30 8233 C 798.607 0.713517 -1.54412 0
M  V30 8234 O 799.792 0.656523 -1.82766 0
M  V30 8235 C 796.922 0.774375 -3.38557 0
M  V30 8236 C 795.876 0.0379214 -4.27983 0
M  V30 8237 C 795.202 1.05631 -5.24162 0
M  V30 8238 C 796.502 -1.12523 -5.10035 0
M  V30 8239 H 798.196 -0.913744 -2.85116 0
M  V30 8240 H 795.742 -0.440847 -1.37086 0
M  V30 8241 H 797.695 1.21655 -4.03458 0
M  V30 8242 H 796.419 1.59399 -2.85061 0
M  V30 8243 H 795.078 -0.384733 -3.64576 0
M  V30 8244 H 794.726 1.86975 -4.66958 0
M  V30 8245 H 794.426 0.568261 -5.84846 0
M  V30 8246 H 795.95 1.49799 -5.9194 0
M  V30 8247 H 797.364 -0.761037 -5.68226 0
M  V30 8248 H 795.761 -1.54355 -5.79909 0
M  V30 8249 H 796.831 -1.94237 -4.44297 0
M  V30 8250 N 798.174 1.49689 -0.493057 0
M  V30 8251 C 799.107 2.25712 0.336062 0
M  V30 8252 C 800.085 1.29953 0.977294 0
M  V30 8253 O 801.269 1.59225 1.00895 0
M  V30 8254 C 798.396 3.0501 1.47263 0
M  V30 8255 C 797.442 4.15863 0.946575 0
M  V30 8256 S 798.275 5.35272 -0.156323 0
M  V30 8257 C 799.431 6.18123 0.983601 0
M  V30 8258 H 799.664 2.95688 -0.309215 0
M  V30 8259 H 797.197 1.51872 -0.278238 0
M  V30 8260 H 799.155 3.51284 2.12391 0
M  V30 8261 H 797.816 2.34519 2.08949 0
M  V30 8262 H 797.009 4.70834 1.7981 0
M  V30 8263 H 796.611 3.72139 0.372647 0
M  V30 8264 H 798.903 6.50588 1.89056 0
M  V30 8265 H 799.846 7.06521 0.472687 0
M  V30 8266 H 800.254 5.50547 1.24735 0
M  V30 8267 N 799.652 0.226554 1.55963 0
M  V30 8268 C 801.063 -0.280381 1.84583 0
M  V30 8269 C 801.414 -1.59105 1.14804 0
M  V30 8270 O 800.539 -2.12297 0.419414 0
M  V30 8271 C 801.134 -0.515499 3.34855 0
M  V30 8272 C 799.693 -0.966733 3.63774 0
M  V30 8273 C 798.84 -0.0325753 2.77281 0
M  V30 8274 H 801.791 0.449626 1.52197 0
M  V30 8275 H 801.812 -1.36085 3.55332 0
M  V30 8276 H 801.324 0.438594 3.85614 0
M  V30 8277 H 799.425 -1.93401 3.18476 0
M  V30 8278 H 799.538 -0.837679 4.7172 0
M  V30 8279 H 797.902 -0.540279 2.48904 0
M  V30 8280 H 798.685 0.916524 3.30839 0
M  V30 8281 N 801.13 -1.57531 -0.0467866 0
M  V30 8282 C 802.376 -1.8873 -0.742218 0
M  V30 8283 C 802.709 -0.822084 -1.75941 0
M  V30 8284 O 801.984 0.164922 -1.938 0
M  V30 8285 C 802.267 -3.30586 -1.42776 0
M  V30 8286 C 802.12 -4.47785 -0.425285 0
M  V30 8287 C 803.439 -3.71068 -2.36636 0
M  V30 8288 H 800.558 -0.686406 -0.268359 0
M  V30 8289 H 803.2 -1.89999 -0.00511341 0
M  V30 8290 H 801.35 -3.29634 -2.05605 0
M  V30 8291 H 803.022 -4.60867 0.199721 0
M  V30 8292 H 801.265 -4.33037 0.25713 0
M  V30 8293 H 801.936 -5.43884 -0.943086 0
M  V30 8294 H 804.412 -3.73273 -1.83866 0
M  V30 8295 H 803.288 -4.71165 -2.81593 0
M  V30 8296 H 803.549 -3.02355 -3.22542 0
M  V30 8297 N 802.608 0.318715 -1.54344 0
M  V30 8298 C 803.857 1.05363 -1.71993 0
M  V30 8299 C 804.17 1.89018 -0.503155 0
M  V30 8300 O 805.376 2.65639 -0.561085 0
M  V30 8301 C 803.832 1.92281 -3.0423 0
M  V30 8302 C 803.44 1.13715 -4.33328 0
M  V30 8303 C 805.184 2.65479 -3.31242 0
M  V30 8304 C 803.091 1.99806 -5.56625 0
M  V30 8305 H 802.021 0.397081 -0.64097 0
M  V30 8306 H 804.672 0.311598 -1.80835 0
M  V30 8307 H 803.054 2.70402 -2.89307 0
M  V30 8308 H 804.228 0.403305 -4.59032 0
M  V30 8309 H 802.543 0.521769 -4.13118 0
M  V30 8310 H 805.14 3.30209 -4.20555 0
M  V30 8311 H 805.483 3.33374 -2.49334 0
M  V30 8312 H 806.016 1.94417 -3.47054 0
M  V30 8313 H 802.755 1.36411 -6.41149 0
M  V30 8314 H 802.275 2.70911 -5.35133 0
M  V30 8315 H 803.954 2.58277 -5.93213 0
M  V30 8316 N 804.086 1.46499 0.581025 0
M  V30 8317 C 805.497 1.4604 1.16315 0
M  V30 8318 C 805.848 0.202154 1.95156 0
M  V30 8319 O 804.973 -0.694638 2.04948 0
M  V30 8320 C 805.568 2.64593 2.11604 0
M  V30 8321 C 804.127 2.6717 2.65136 0
M  V30 8322 C 803.274 2.38753 1.4104 0
M  V30 8323 H 806.225 1.54354 0.368871 0
M  V30 8324 H 806.246 2.40207 2.95095 0
M  V30 8325 H 805.758 3.56154 1.54194 0
M  V30 8326 H 803.859 1.79685 3.26411 0
M  V30 8327 H 803.972 3.67182 3.07757 0
M  V30 8328 H 802.336 1.88845 1.70908 0
M  V30 8329 H 803.119 3.32493 0.854588 0
M  V30 8330 N 805.565 -0.825799 1.34232 0
M  V30 8331 C 806.512 -1.93651 1.2557 0
M  V30 8332 C 807.482 -1.65578 0.131536 0
M  V30 8333 O 808.667 -1.88231 0.312027 0
M  V30 8334 C 805.807 -3.29862 1.01415 0
M  V30 8335 C 804.92 -3.70247 2.22579 0
M  V30 8336 C 804.055 -4.95392 1.91731 0
M  V30 8337 C 803.094 -5.28349 3.09053 0
M  V30 8338 N 802.231 -6.44671 2.78107 0
M  V30 8339 H 807.071 -2.00392 2.20561 0
M  V30 8340 H 804.608 -0.980441 1.09662 0
M  V30 8341 H 806.566 -4.08356 0.854485 0
M  V30 8342 H 805.196 -3.22642 0.100936 0
M  V30 8343 H 804.248 -2.87169 2.49476 0
M  V30 8344 H 805.56 -3.90575 3.10246 0
M  V30 8345 H 804.714 -5.81665 1.72484 0
M  V30 8346 H 803.453 -4.77059 1.0132 0
M  V30 8347 H 802.458 -4.40574 3.289 0
M  V30 8348 H 803.683 -5.48622 4.00239 0
M  V30 8349 H 801.629 -6.278 1.9027 0
M  V30 8350 H 801.546 -6.65158 3.59306 0
M  V30 8351 H 802.814 -7.34022 2.62358 0
M  V30 8352 N 807.043 -1.17915 -1.04565 0
M  V30 8353 C 808.291 -0.969505 -1.77327 0
M  V30 8354 C 808.612 0.502569 -1.88412 0
M  V30 8355 O 807.882 1.36467 -1.40547 0
M  V30 8356 H 806.462 -0.355723 -0.656864 0
M  V30 8357 H 809.124 -1.48506 -1.26223 0
M  V30 8358 H 808.22 -1.40324 -2.78775 0
M  V30 8359 N 808.521 1.23394 -0.980386 0
M  V30 8360 C 809.746 1.96384 -0.666935 0
M  V30 8361 C 810.171 1.72087 0.759456 0
M  V30 8362 O 809.529 0.992328 1.51732 0
M  V30 8363 C 809.577 3.47499 -0.963177 0
M  V30 8364 O 808.681 4.12363 -0.0552051 0
M  V30 8365 H 808.022 0.614797 -0.250839 0
M  V30 8366 H 810.552 1.56831 -1.31398 0
M  V30 8367 H 810.562 3.97953 -0.899877 0
M  V30 8368 H 809.237 3.6451 -2.00264 0
M  V30 8369 H 807.814 3.72499 -0.172914 0
M  V30 8370 N 809.999 0.752036 1.385 0
M  V30 8371 C 811.224 0.316993 2.04963 0
M  V30 8372 C 811.649 -1.04582 1.56346 0
M  V30 8373 O 811.007 -1.66616 0.714755 0
M  V30 8374 C 811.055 0.347235 3.58924 0
M  V30 8375 O 810.159 -0.659296 4.07096 0
M  V30 8376 H 809.5 0.140652 0.648932 0
M  V30 8377 H 812.03 1.02272 1.77205 0
M  V30 8378 H 812.04 0.19757 4.07521 0
M  V30 8379 H 810.715 1.34157 3.93668 0
M  V30 8380 H 809.292 -0.474371 3.6987 0
M  V30 8381 N 811.477 -1.49425 0.500989 0
M  V30 8382 C 812.723 -2.02753 -0.0436 0
M  V30 8383 C 813.056 -1.37991 -1.36646 0
M  V30 8384 O 812.331 -0.515597 -1.87542 0
M  V30 8385 C 812.614 -3.59565 -0.19616 0
M  V30 8386 C 812.467 -4.34855 1.14982 0
M  V30 8387 C 813.786 -4.30014 -0.936795 0
M  V30 8388 H 810.905 -0.73686 -0.0143711 0
M  V30 8389 H 813.547 -1.78448 0.652397 0
M  V30 8390 H 811.697 -3.80405 -0.788959 0
M  V30 8391 H 813.369 -4.25512 1.7815 0
M  V30 8392 H 811.612 -3.97414 1.73911 0
M  V30 8393 H 812.283 -5.42933 0.996385 0
M  V30 8394 H 814.759 -4.1383 -0.434036 0
M  V30 8395 H 813.635 -5.39483 -1.01238 0
M  V30 8396 H 813.896 -3.95257 -1.9805 0
M  V30 8397 N 812.955 -0.234822 -1.55841 0
M  V30 8398 C 814.203 0.392483 -1.98252 0
M  V30 8399 C 814.524 1.59344 -1.12404 0
M  V30 8400 O 813.794 1.94834 -0.204055 0
M  V30 8401 H 812.374 0.147999 -0.732192 0
M  V30 8402 H 815.036 -0.330804 -1.92072 0
M  V30 8403 H 814.132 0.709829 -3.03921 0
M  V30 8404 N 814.433 1.57553 0.0384317 0
M  V30 8405 C 815.661 1.93093 0.743141 0
M  V30 8406 C 816.076 0.833787 1.69391 0
M  V30 8407 O 815.433 -0.190532 1.81503 0
M  V30 8408 C 815.484 3.28533 1.50826 0
M  V30 8409 O 815.205 4.34032 0.595665 0
M  V30 8410 C 816.706 3.78297 2.31098 0
M  V30 8411 H 813.926 0.637486 0.20941 0
M  V30 8412 H 816.47 2.045 -0.00125154 0
M  V30 8413 H 814.625 3.18552 2.20462 0
M  V30 8414 H 815.039 5.12155 1.13124 0
M  V30 8415 H 816.513 4.75602 2.80191 0
M  V30 8416 H 816.99 3.09008 3.12107 0
M  V30 8417 H 817.596 3.91331 1.66555 0
M  V30 8418 N 815.911 -0.310526 1.54511 0
M  V30 8419 C 817.159 -1.04484 1.72996 0
M  V30 8420 C 817.48 -1.88118 0.513479 0
M  V30 8421 O 816.75 -1.90119 -0.472384 0
M  V30 8422 H 815.33 -0.388747 0.637875 0
M  V30 8423 H 817.992 -0.343811 1.91844 0
M  V30 8424 H 817.088 -1.70341 2.61515 0
M  V30 8425 N 817.389 -1.46805 -0.573248 0
M  V30 8426 C 818.617 -1.56191 -1.3569 0
M  V30 8427 C 819.032 -0.206362 -1.87669 0
M  V30 8428 O 818.389 0.797883 -1.64134 0
M  V30 8429 C 818.44 -2.57433 -2.53792 0
M  V30 8430 O 818.161 -3.87724 -2.03965 0
M  V30 8431 C 819.662 -2.76851 -3.4622 0
M  V30 8432 H 816.882 -0.527907 -0.414192 0
M  V30 8433 H 819.426 -1.92292 -0.695989 0
M  V30 8434 H 817.581 -2.24311 -3.15854 0
M  V30 8435 H 817.995 -4.42909 -2.80948 0
M  V30 8436 H 819.469 -3.5159 -4.25545 0
M  V30 8437 H 819.946 -1.84095 -3.98755 0
M  V30 8438 H 820.552 -3.11107 -2.89987 0
M  V30 8439 N 818.867 0.818669 -1.34668 0
M  V30 8440 C 819.815 1.95123 -1.26609 0
M  V30 8441 C 820.809 1.68611 -0.163348 0
M  V30 8442 O 822.015 1.76975 -0.328586 0
M  V30 8443 H 818.39 0.640871 -0.393431 0
M  V30 8444 H 820.361 1.99043 -2.22316 0
M  V30 8445 C 819.11 3.31697 -1.04272 0
M  V30 8446 H 818.433 3.52648 -1.8836 0
M  V30 8447 H 819.873 4.11382 -1.0267 0
M  V30 8448 C 818.332 3.35942 0.253858 0
M  V30 8449 O 818.862 3.81632 1.25378 0
M  V30 8450 N 817.068 2.89165 0.288447 0
M  V30 8451 H 816.615 2.52176 -0.525845 0
M  V30 8452 H 816.573 2.92387 1.15572 0
M  V30 8453 N 820.346 1.18468 1.03938 0
M  V30 8454 C 821.276 0.936389 2.13902 0
M  V30 8455 C 822.257 -0.126381 1.6963 0
M  V30 8456 O 823.442 0.0264757 1.94182 0
M  V30 8457 C 820.572 0.462729 3.44204 0
M  V30 8458 C 819.526 1.46613 4.02105 0
M  V30 8459 C 818.852 0.84994 5.27902 0
M  V30 8460 C 820.152 2.84323 4.3813 0
M  V30 8461 H 821.846 1.85602 2.3493 0
M  V30 8462 H 819.392 0.893806 1.12903 0
M  V30 8463 H 821.345 0.276382 4.20493 0
M  V30 8464 H 820.069 -0.492477 3.22866 0
M  V30 8465 H 818.728 1.63944 3.27899 0
M  V30 8466 H 818.376 -0.112493 5.02874 0
M  V30 8467 H 818.076 1.51988 5.67603 0
M  V30 8468 H 819.6 0.674152 6.06867 0
M  V30 8469 H 821.014 2.70636 5.054 0
M  V30 8470 H 819.411 3.48012 4.88884 0
M  V30 8471 H 820.481 3.37776 3.47901 0
M  V30 8472 N 821.824 -1.22873 0.986916 0
M  V30 8473 C 822.774 -2.2237 0.503547 0
M  V30 8474 C 823.758 -1.55186 -0.424998 0
M  V30 8475 O 824.95 -1.75186 -0.252791 0
M  V30 8476 C 822.079 -3.42794 -0.186355 0
M  V30 8477 C 821.165 -4.17196 0.762143 0
M  V30 8478 N 821.556 -4.68453 1.9075 0
M  V30 8479 C 819.854 -4.42255 0.576797 0
M  V30 8480 C 820.555 -5.25126 2.50235 0
M  V30 8481 N 819.531 -5.13437 1.7856 0
M  V30 8482 H 823.333 -2.59636 1.37718 0
M  V30 8483 H 820.847 -1.38476 0.848415 0
M  V30 8484 H 822.844 -4.13256 -0.549993 0
M  V30 8485 H 821.504 -3.07042 -1.05619 0
M  V30 8486 H 822.515 -4.64595 2.28848 0
M  V30 8487 H 819.192 -4.16766 -0.247474 0
M  V30 8488 H 820.582 -5.75363 3.46997 0
M  V30 8489 N 823.302 -0.75937 -1.38099 0
M  V30 8490 C 824.718 -0.437606 -1.53483 0
M  V30 8491 C 824.918 1.04849 -1.72072 0
M  V30 8492 O 823.974 1.83448 -1.73502 0
M  V30 8493 C 825.287 -1.24189 -2.73857 0
M  V30 8494 C 826.835 -1.23255 -2.8771 0
M  V30 8495 C 827.31 -2.01992 -4.11051 0
M  V30 8496 N 828.801 -1.99282 -4.1814 0
M  V30 8497 C 829.536 -2.56996 -5.12583 0
M  V30 8498 N 829.032 -3.23446 -6.12662 0
M  V30 8499 N 830.825 -2.46894 -5.04975 0
M  V30 8500 H 822.976 -1.72242 -1.24283 0
M  V30 8501 H 825.239 -0.730507 -0.604205 0
M  V30 8502 H 824.945 -2.29449 -2.66545 0
M  V30 8503 H 824.819 -0.862672 -3.67203 0
M  V30 8504 H 827.206 -0.187988 -2.94501 0
M  V30 8505 H 827.287 -1.65132 -1.95359 0
M  V30 8506 H 826.931 -3.06462 -4.05023 0
M  V30 8507 H 826.861 -1.57505 -5.02494 0
M  V30 8508 H 829.352 -1.50893 -3.46467 0
M  V30 8509 H 829.665 -3.6489 -6.81231 0
M  V30 8510 H 828.01 -3.27543 -6.12977 0
M  V30 8511 H 831.201 -1.94604 -4.25731 0
M  V30 8512 H 831.374 -2.92168 -5.78396 0
M  V30 8513 N 824.78 1.49157 -0.508906 0
M  V30 8514 C 826.057 1.95363 0.0961913 0
M  V30 8515 C 826.437 1.45064 1.53362 0
M  V30 8516 O 825.785 0.667835 2.18523 0
M  V30 8517 C 825.995 3.49 0.000688881 0
M  V30 8518 C 827.343 4.24257 0.170632 0
M  V30 8519 O 828.367 3.5612 0.0754994 0
M  V30 8520 O 827.226 5.45267 0.366957 0
M  V30 8521 H 824.32 0.821984 0.0909489 0
M  V30 8522 H 826.866 1.59769 -0.572007 0
M  V30 8523 H 825.638 3.78269 -1.00143 0
M  V30 8524 H 825.261 3.91233 0.708682 0
M  V30 8525 N 826.258 0.243083 1.55714 0
M  V30 8526 C 827.507 -0.383188 1.98027 0
M  V30 8527 C 827.82 -1.59347 1.13436 0
M  V30 8528 O 829.026 -2.29065 1.45745 0
M  V30 8529 C 827.482 -0.733135 3.52354 0
M  V30 8530 C 827.09 0.455539 4.45678 0
M  V30 8531 C 828.834 -1.32381 4.03331 0
M  V30 8532 C 826.741 0.0819591 5.91343 0
M  V30 8533 H 825.671 -0.146944 0.739543 0
M  V30 8534 H 828.322 0.342697 1.80272 0
M  V30 8535 H 826.704 -1.51704 3.65789 0
M  V30 8536 H 827.878 1.23291 4.44 0
M  V30 8537 H 826.193 0.960886 4.05162 0
M  V30 8538 H 828.79 -1.61658 5.09677 0
M  V30 8539 H 829.133 -2.24698 3.50452 0
M  V30 8540 H 829.666 -0.602885 3.93205 0
M  V30 8541 H 826.405 0.972171 6.48251 0
M  V30 8542 H 825.925 -0.659291 5.96166 0
M  V30 8543 H 827.604 -0.3372 6.46121 0
M  V30 8544 N 827.736 -1.57571 -0.0300757 0
M  V30 8545 C 828.961 -1.93879 -0.736601 0
M  V30 8546 C 829.386 -0.842998 -1.68152 0
M  V30 8547 O 828.744 0.20135 -1.80178 0
M  V30 8548 C 828.792 -3.29247 -1.47066 0
M  V30 8549 O 827.896 -3.21426 -2.58378 0
M  V30 8550 H 827.237 -0.633735 -0.198181 0
M  V30 8551 H 829.767 -2.04595 0.0141485 0
M  V30 8552 H 829.777 -3.64113 -1.84081 0
M  V30 8553 H 828.452 -4.08565 -0.77764 0
M  V30 8554 H 827.029 -2.98189 -2.23914 0
M  V30 8555 N 829.214 0.302327 -1.54673 0
M  V30 8556 C 830.46 1.03924 -1.74149 0
M  V30 8557 C 830.793 1.86968 -0.525041 0
M  V30 8558 O 830.068 1.88538 0.477868 0
M  V30 8559 C 830.351 1.94633 -3.02969 0
M  V30 8560 C 830.204 1.14778 -4.34909 0
M  V30 8561 C 831.523 2.93826 -3.27649 0
M  V30 8562 H 828.642 0.376405 -0.633631 0
M  V30 8563 H 831.284 0.314007 -1.87387 0
M  V30 8564 H 829.434 2.56471 -2.91813 0
M  V30 8565 H 831.106 0.552363 -4.57981 0
M  V30 8566 H 829.349 0.450462 -4.31455 0
M  V30 8567 H 830.02 1.81495 -5.21309 0
M  V30 8568 H 832.496 2.42117 -3.38406 0
M  V30 8569 H 831.372 3.54462 -4.19104 0
M  V30 8570 H 831.633 3.67416 -2.45882 0
M  V30 8571 N 830.692 1.47107 0.565454 0
M  V30 8572 C 831.917 1.57153 1.35343 0
M  V30 8573 C 832.342 0.219247 1.86818 0
M  V30 8574 O 831.7 -0.803539 1.62521 0
M  V30 8575 C 831.748 2.59387 2.50501 0
M  V30 8576 O 830.852 2.14086 3.52478 0
M  V30 8577 H 830.193 0.528209 0.402357 0
M  V30 8578 H 832.723 1.92821 0.684189 0
M  V30 8579 H 832.733 2.79546 2.97184 0
M  V30 8580 H 831.408 3.57579 2.12391 0
M  V30 8581 H 829.985 2.03991 3.12157 0
M  V30 8582 N 832.17 -0.811516 1.35101 0
M  V30 8583 C 833.419 -1.56343 1.27435 0
M  V30 8584 C 833.732 -1.95019 -0.150696 0
M  V30 8585 O 834.938 -2.6924 -0.349586 0
M  V30 8586 C 833.394 -2.82124 2.23459 0
M  V30 8587 C 833.002 -2.50706 3.71283 0
M  V30 8588 C 834.746 -3.60137 2.24726 0
M  V30 8589 C 832.653 -3.72748 4.59143 0
M  V30 8590 H 831.583 -0.58682 0.473453 0
M  V30 8591 H 834.234 -0.892465 1.60335 0
M  V30 8592 H 832.616 -3.50905 1.83525 0
M  V30 8593 H 833.79 -1.89962 4.19823 0
M  V30 8594 H 832.105 -1.85947 3.72576 0
M  V30 8595 H 834.702 -4.50775 2.87587 0
M  V30 8596 H 835.045 -3.97101 1.24965 0
M  V30 8597 H 835.578 -2.98311 2.63164 0
M  V30 8598 H 832.317 -3.40896 5.59884 0
M  V30 8599 H 831.837 -4.32735 4.15332 0
M  V30 8600 H 833.516 -4.40033 4.74321 0
M  V30 8601 N 833.648 -1.19017 -1.03309 0
M  V30 8602 C 834.873 -1.01598 -1.80811 0
M  V30 8603 C 835.298 0.430773 -1.83101 0
M  V30 8604 O 834.656 1.30946 -1.25391 0
M  V30 8605 C 834.704 -1.5845 -3.23923 0
M  V30 8606 O 833.808 -0.810972 -4.04348 0
M  V30 8607 H 833.149 -0.359398 -0.558327 0
M  V30 8608 H 835.679 -1.57945 -1.30055 0
M  V30 8609 H 835.689 -1.61486 -3.74682 0
M  V30 8610 H 834.364 -2.63752 -3.21571 0
M  V30 8611 H 832.941 -0.85353 -3.63 0
M  V30 8612 N 835.127 1.22348 -0.993418 0
M  V30 8613 C 836.373 1.91393 -0.67056 0
M  V30 8614 C 836.706 1.77163 0.795428 0
M  V30 8615 O 835.981 1.14084 1.57528 0
M  V30 8616 C 836.264 3.43589 -1.0779 0
M  V30 8617 C 836.117 3.66867 -2.60248 0
M  V30 8618 C 837.436 4.35545 -0.631527 0
M  V30 8619 H 834.555 0.695057 -0.24508 0
M  V30 8620 H 837.197 1.44213 -1.23703 0
M  V30 8621 H 835.347 3.83903 -0.595902 0
M  V30 8622 H 837.019 3.35954 -3.16121 0
M  V30 8623 H 835.262 3.1113 -3.02293 0
M  V30 8624 H 835.933 4.73457 -2.838 0
M  V30 8625 H 838.409 4.0275 -1.04554 0
M  V30 8626 H 837.285 5.40707 -0.944831 0
M  V30 8627 H 837.546 4.39618 0.467779 0
M  V30 8628 N 836.605 0.766683 1.37694 0
M  V30 8629 C 837.83 0.338715 2.04615 0
M  V30 8630 C 838.255 -1.02918 1.57447 0
M  V30 8631 O 837.613 -1.65849 0.732386 0
M  V30 8632 C 837.661 0.385284 3.58536 0
M  V30 8633 O 836.765 -0.616081 4.07772 0
M  V30 8634 H 836.106 0.147527 0.647404 0
M  V30 8635 H 838.636 1.04146 1.7611 0
M  V30 8636 H 838.646 0.240782 4.07289 0
M  V30 8637 H 837.321 1.38325 3.92223 0
M  V30 8638 H 835.898 -0.435115 3.70353 0
M  V30 8639 N 838.083 -1.48885 0.516809 0
M  V30 8640 C 839.031 -2.31066 -0.266656 0
M  V30 8641 C 840.025 -1.40393 -0.94795 0
M  V30 8642 O 841.231 -1.57366 -0.873836 0
M  V30 8643 H 837.606 -0.744654 -0.104858 0
M  V30 8644 H 839.577 -2.95045 0.446236 0
M  V30 8645 C 838.326 -3.22131 -1.3087 0
M  V30 8646 H 837.649 -3.91839 -0.793865 0
M  V30 8647 H 839.089 -3.82544 -1.82856 0
M  V30 8648 C 837.548 -2.42825 -2.33533 0
M  V30 8649 O 838.078 -2.14364 -3.39722 0
M  V30 8650 N 836.284 -2.04559 -2.06407 0
M  V30 8651 H 835.831 -2.27905 -1.20071 0
M  V30 8652 H 835.789 -1.51807 -2.75322 0
M  V30 8653 N 839.561 -0.251338 -1.55583 0
M  V30 8654 C 840.801 0.373651 -2.00956 0
M  V30 8655 C 841.165 1.54806 -1.13574 0
M  V30 8656 O 842.366 2.24108 -1.48422 0
M  V30 8657 C 840.637 0.768919 -3.49031 0
M  V30 8658 S 842.196 1.38381 -4.16409 0
M  V30 8659 H 839.014 0.117371 -0.701245 0
M  V30 8660 H 841.616 -0.367611 -1.92013 0
M  V30 8661 H 840.32 -0.0950492 -4.1029 0
M  V30 8662 H 839.851 1.54225 -3.61909 0
M  V30 8663 H 841.866 2.6728 -4.18062 0
M  V30 8664 N 841.039 1.57585 0.0217189 0
M  V30 8665 C 841.971 2.03849 1.04777 0
M  V30 8666 C 842.984 0.952558 1.32023 0
M  V30 8667 O 844.173 1.22974 1.29381 0
M  V30 8668 C 841.273 2.40504 2.3877 0
M  V30 8669 C 840.446 3.71566 2.30775 0
M  V30 8670 C 839.505 3.95329 3.47277 0
M  V30 8671 O 838.531 4.66289 3.26441 0
M  V30 8672 N 839.733 3.41536 4.69397 0
M  V30 8673 H 842.498 2.92491 0.653395 0
M  V30 8674 H 840.059 1.60538 0.209527 0
M  V30 8675 H 842.051 2.53532 3.15442 0
M  V30 8676 H 840.621 1.57494 2.70027 0
M  V30 8677 H 839.841 3.68822 1.39155 0
M  V30 8678 H 841.129 4.5753 2.22584 0
M  V30 8679 H 840.527 2.84033 4.89226 0
M  V30 8680 H 839.084 3.59932 5.43408 0
M  V30 8681 N 842.517 -0.29412 1.54831 0
M  V30 8682 C 843.766 -1.02614 1.73647 0
M  V30 8683 C 844.079 -1.88193 0.533162 0
M  V30 8684 O 845.285 -2.64713 0.603275 0
M  V30 8685 C 843.741 -1.87417 3.07251 0
M  V30 8686 C 843.349 -1.06806 4.35082 0
M  V30 8687 C 845.093 -2.60176 3.35423 0
M  V30 8688 C 843 -1.90926 5.59733 0
M  V30 8689 H 841.93 -0.386834 0.647206 0
M  V30 8690 H 844.581 -0.282789 1.81308 0
M  V30 8691 H 842.963 -2.65765 2.93572 0
M  V30 8692 H 844.137 -0.330226 4.59615 0
M  V30 8693 H 842.452 -0.455979 4.13896 0
M  V30 8694 H 845.049 -3.23476 4.25755 0
M  V30 8695 H 845.392 -3.29365 2.54606 0
M  V30 8696 H 845.925 -1.88871 3.50103 0
M  V30 8697 H 842.664 -1.26194 6.43238 0
M  V30 8698 H 842.184 -2.62363 5.39375 0
M  V30 8699 H 843.863 -2.48807 5.97247 0
M  V30 8700 N 843.995 -1.47404 -0.557645 0
M  V30 8701 C 844.927 -1.55917 -1.67995 0
M  V30 8702 C 845.94 -0.445411 -1.56588 0
M  V30 8703 O 847.129 -0.714999 -1.63554 0
M  V30 8704 C 844.229 -1.44697 -3.06457 0
M  V30 8705 C 843.402 -2.70633 -3.43622 0
M  V30 8706 C 842.461 -2.53256 -4.61246 0
M  V30 8707 O 841.487 -3.27068 -4.65849 0
M  V30 8708 N 842.689 -1.61053 -5.57711 0
M  V30 8709 H 845.454 -2.52694 -1.61139 0
M  V30 8710 H 843.015 -1.43778 -0.744271 0
M  V30 8711 H 845.007 -1.30806 -3.82978 0
M  V30 8712 H 843.577 -0.560039 -3.07542 0
M  V30 8713 H 842.797 -2.99288 -2.56555 0
M  V30 8714 H 844.085 -3.5424 -3.65228 0
M  V30 8715 H 843.483 -1.00235 -5.56749 0
M  V30 8716 H 842.04 -1.53115 -6.33561 0
M  V30 8717 N 845.473 0.80434 -1.35529 0
M  V30 8718 C 846.383 1.94784 -1.30753 0
M  V30 8719 C 847.399 1.72703 -0.212071 0
M  V30 8720 O 848.575 1.96494 -0.441841 0
M  V30 8721 C 845.64 3.29406 -1.08133 0
M  V30 8722 C 844.701 3.64367 -2.27013 0
M  V30 8723 C 843.934 4.92566 -2.05463 0
M  V30 8724 O 844.157 5.61166 -1.02222 0
M  V30 8725 O 843.091 5.25838 -2.92879 0
M  V30 8726 H 846.917 2.01761 -2.26994 0
M  V30 8727 H 844.502 0.942448 -1.15924 0
M  V30 8728 H 846.384 4.09995 -0.973756 0
M  V30 8729 H 845.059 3.23355 -0.149444 0
M  V30 8730 H 843.966 2.84146 -2.43335 0
M  V30 8731 H 845.299 3.75125 -3.18656 0
M  V30 8732 N 846.951 1.19563 1.02676 0
M  V30 8733 C 847.899 0.931942 2.13114 0
M  V30 8734 C 848.893 -0.113007 1.69023 0
M  V30 8735 O 850.099 0.0364298 1.79963 0
M  V30 8736 H 846.474 0.283981 0.696318 0
M  V30 8737 H 848.445 1.86991 2.32545 0
M  V30 8738 C 847.194 0.489461 3.44238 0
M  V30 8739 H 846.517 1.28508 3.78584 0
M  V30 8740 H 847.957 0.34408 4.22602 0
M  V30 8741 C 846.416 -0.796761 3.27343 0
M  V30 8742 O 846.946 -1.85767 3.56165 0
M  V30 8743 N 845.152 -0.754824 2.80626 0
M  V30 8744 H 844.699 0.108778 2.5737 0
M  V30 8745 H 844.657 -1.6158 2.69702 0
M  V30 8746 N 848.429 -1.21819 0.999893 0
M  V30 8747 C 849.675 -1.91035 0.680701 0
M  V30 8748 C 850.008 -1.77582 -0.786021 0
M  V30 8749 O 849.283 -1.14917 -1.56921 0
M  V30 8750 C 849.566 -3.43013 1.0961 0
M  V30 8751 C 849.419 -3.65481 2.6219 0
M  V30 8752 C 850.738 -4.35204 0.654616 0
M  V30 8753 H 847.857 -0.693748 0.248763 0
M  V30 8754 H 850.499 -1.43555 1.24466 0
M  V30 8755 H 848.649 -3.83581 0.616253 0
M  V30 8756 H 850.321 -3.34273 3.17899 0
M  V30 8757 H 848.564 -3.09522 3.03938 0
M  V30 8758 H 849.235 -4.71945 2.86307 0
M  V30 8759 H 851.711 -4.0219 1.06688 0
M  V30 8760 H 850.587 -5.40198 0.973492 0
M  V30 8761 H 850.848 -4.3986 -0.444458 0
M  V30 8762 N 849.908 -0.773975 -1.37286 0
M  V30 8763 C 851.185 -0.263942 -1.93811 0
M  V30 8764 C 851.565 1.24138 -1.70743 0
M  V30 8765 O 850.913 2.02557 -1.05749 0
M  V30 8766 C 851.123 -0.639753 -3.43086 0
M  V30 8767 C 852.471 -0.610796 -4.20184 0
M  V30 8768 O 853.495 -0.579278 -3.51458 0
M  V30 8769 O 852.354 -0.639862 -5.42741 0
M  V30 8770 H 849.448 -0.0614331 -0.824715 0
M  V30 8771 H 851.994 -0.855477 -1.46559 0
M  V30 8772 H 850.766 -1.67856 -3.53469 0
M  V30 8773 H 850.389 -0.0212827 -3.97594 0
M  V30 8774 N 851.386 1.48609 -0.524698 0
M  V30 8775 C 852.635 2.01696 0.0132937 0
M  V30 8776 C 852.948 1.40751 1.35825 0
M  V30 8777 O 854.154 1.85304 1.9843 0
M  V30 8778 C 852.61 3.59824 0.0741012 0
M  V30 8779 C 852.218 4.2975 -1.26564 0
M  V30 8780 C 853.962 4.20774 0.5612 0
M  V30 8781 C 851.869 5.79798 -1.16571 0
M  V30 8782 H 850.799 0.753949 0.00873931 0
M  V30 8783 H 853.45 1.70922 -0.667684 0
M  V30 8784 H 851.832 3.87416 0.820043 0
M  V30 8785 H 853.006 4.13836 -2.02674 0
M  V30 8786 H 851.321 3.80649 -1.68806 0
M  V30 8787 H 853.918 5.30687 0.653853 0
M  V30 8788 H 854.261 3.85734 1.56573 0
M  V30 8789 H 854.794 3.97591 -0.128901 0
M  V30 8790 H 851.533 6.19403 -2.14523 0
M  V30 8791 H 851.053 5.9814 -0.445894 0
M  V30 8792 H 852.732 6.41337 -0.854186 0
M  V30 8793 N 852.864 0.259585 1.55447 0
M  V30 8794 C 854.089 -0.368317 2.04103 0
M  V30 8795 C 854.514 -1.49827 1.13725 0
M  V30 8796 O 853.872 -1.80814 0.132705 0
M  V30 8797 C 853.92 -0.841506 3.50644 0
M  V30 8798 O 853.024 -1.95008 3.63381 0
M  V30 8799 H 852.365 -0.0785227 0.659341 0
M  V30 8800 H 854.895 0.389349 2.00861 0
M  V30 8801 H 854.905 -1.14138 3.9171 0
M  V30 8802 H 853.58 -0.0147001 4.15897 0
M  V30 8803 H 852.157 -1.65393 3.34215 0
M  V30 8804 N 854.342 -1.57594 -0.0133615 0
M  V30 8805 C 855.57 -1.94251 -0.712328 0
M  V30 8806 C 855.985 -0.86063 -1.68043 0
M  V30 8807 O 855.342 0.161632 -1.81783 0
M  V30 8808 C 855.393 -3.30891 -1.45581 0
M  V30 8809 O 855.114 -4.34924 -0.526539 0
M  V30 8810 C 856.615 -3.81926 -2.2505 0
M  V30 8811 H 853.835 -0.640737 -0.199241 0
M  V30 8812 H 856.379 -2.04472 0.0337855 0
M  V30 8813 H 854.534 -3.22019 -2.15366 0
M  V30 8814 H 854.948 -5.1389 -1.04962 0
M  V30 8815 H 856.422 -4.79999 -2.72589 0
M  V30 8816 H 856.899 -3.13934 -3.07152 0
M  V30 8817 H 857.505 -3.93931 -1.60308 0
M  V30 8818 N 855.82 0.285905 -1.54985 0
M  V30 8819 C 857.066 1.02071 -1.75241 0
M  V30 8820 C 857.399 1.864 -0.544842 0
M  V30 8821 O 856.674 1.89034 0.457844 0
M  V30 8822 C 856.957 1.91409 -3.05016 0
M  V30 8823 C 856.81 1.10158 -4.36102 0
M  V30 8824 C 858.129 2.90335 -3.30747 0
M  V30 8825 H 855.248 0.369663 -0.637588 0
M  V30 8826 H 857.89 0.294114 -1.8771 0
M  V30 8827 H 856.04 2.53362 -2.94517 0
M  V30 8828 H 857.712 0.503756 -4.58541 0
M  V30 8829 H 855.955 0.404675 -4.31908 0
M  V30 8830 H 856.626 1.75956 -5.23205 0
M  V30 8831 H 859.102 2.38514 -3.40955 0
M  V30 8832 H 857.978 3.49997 -4.2284 0
M  V30 8833 H 858.239 3.64787 -2.49765 0
M  V30 8834 N 857.298 1.47698 0.54982 0
M  V30 8835 C 858.528 1.58101 1.32995 0
M  V30 8836 C 858.936 0.232939 1.87761 0
M  V30 8837 O 858.279 -0.785058 1.6608 0
M  V30 8838 C 858.341 2.55228 2.53178 0
M  V30 8839 C 858.005 4.00756 2.19645 0
M  V30 8840 C 859.002 4.89025 1.76496 0
M  V30 8841 C 856.687 4.46147 2.30777 0
M  V30 8842 C 858.681 6.20707 1.44919 0
M  V30 8843 C 856.368 5.77856 1.98812 0
M  V30 8844 C 857.366 6.64957 1.55952 0
M  V30 8845 O 857.054 7.94217 1.24396 0
M  V30 8846 H 856.786 0.536362 0.411451 0
M  V30 8847 H 859.34 1.94092 0.67212 0
M  V30 8848 H 857.57 2.14319 3.21876 0
M  V30 8849 H 859.259 2.55678 3.15251 0
M  V30 8850 H 860.025 4.55201 1.67383 0
M  V30 8851 H 855.904 3.78552 2.63096 0
M  V30 8852 H 859.448 6.88649 1.11392 0
M  V30 8853 H 855.345 6.11219 2.0756 0
M  V30 8854 H 856.113 8.06789 1.37964 0
M  V30 8855 N 858.776 -0.797141 1.35954 0
M  V30 8856 C 859.708 -1.91782 1.25509 0
M  V30 8857 C 860.721 -1.61843 0.176271 0
M  V30 8858 O 861.91 -1.73235 0.430343 0
M  V30 8859 C 859.01 -3.26396 0.912073 0
M  V30 8860 C 858.183 -3.84171 2.0912 0
M  V30 8861 C 857.242 -4.9721 1.72246 0
M  V30 8862 O 856.268 -5.14136 2.44239 0
M  V30 8863 N 857.47 -5.76831 0.651611 0
M  V30 8864 H 860.235 -2.01266 2.22063 0
M  V30 8865 H 857.796 -0.975033 1.29247 0
M  V30 8866 H 859.788 -3.99499 0.646707 0
M  V30 8867 H 858.358 -3.12579 0.0359079 0
M  V30 8868 H 857.578 -3.03148 2.51982 0
M  V30 8869 H 858.866 -4.19503 2.87914 0
M  V30 8870 H 858.264 -5.65675 0.0536678 0
M  V30 8871 H 856.821 -6.50272 0.44605 0
M  V30 8872 N 860.254 -1.20106 -1.0204 0
M  V30 8873 C 861.503 -1.00316 -1.74985 0
M  V30 8874 C 861.816 0.465814 -1.89972 0
M  V30 8875 O 863.022 0.782749 -2.59972 0
M  V30 8876 C 861.478 -1.74608 -3.14706 0
M  V30 8877 C 861.086 -3.25573 -3.07744 0
M  V30 8878 C 862.83 -1.63172 -3.91887 0
M  V30 8879 C 860.737 -3.92419 -4.42449 0
M  V30 8880 H 859.667 -0.371728 -0.655999 0
M  V30 8881 H 862.318 -1.43688 -1.14131 0
M  V30 8882 H 860.7 -1.24021 -3.76078 0
M  V30 8883 H 861.874 -3.83345 -2.55702 0
M  V30 8884 H 860.189 -3.3738 -2.44057 0
M  V30 8885 H 862.786 -2.10457 -4.9154 0
M  V30 8886 H 863.129 -0.58728 -4.12137 0
M  V30 8887 H 863.662 -2.11152 -3.37135 0
M  V30 8888 H 860.401 -4.96998 -4.27403 0
M  V30 8889 H 859.921 -3.39436 -4.94513 0
M  V30 8890 H 861.6 -3.96453 -5.11306 0
M  V30 8891 N 861.732 1.21287 -1.00634 0
M  V30 8892 C 862.979 1.90389 -0.6898 0
M  V30 8893 C 863.307 1.78193 0.779574 0
M  V30 8894 O 862.562 1.15358 1.58085 0
M  V30 8895 C 862.861 3.41374 -1.05824 0
M  V30 8896 C 862.527 3.73766 -2.5221 0
M  V30 8897 C 861.189 3.82317 -2.92211 0
M  V30 8898 C 863.541 3.88871 -3.47028 0
M  V30 8899 C 860.869 4.03423 -4.2599 0
M  V30 8900 C 863.221 4.11484 -4.80483 0
M  V30 8901 C 861.885 4.18263 -5.20204 0
M  V30 8902 H 861.155 0.696683 -0.252416 0
M  V30 8903 H 863.802 1.43769 -1.26502 0
M  V30 8904 H 862.107 3.8974 -0.401281 0
M  V30 8905 H 863.804 3.93118 -0.79116 0
M  V30 8906 H 860.394 3.67702 -2.20212 0
M  V30 8907 H 864.578 3.8163 -3.17289 0
M  V30 8908 H 859.834 4.06902 -4.56334 0
M  V30 8909 H 864.008 4.22115 -5.53888 0
M  V30 8910 H 861.635 4.34369 -6.23881 0
M  V30 8911 N 863.21 0.781244 1.36873 0
M  V30 8912 C 864.621 0.414093 1.8205 0
M  V30 8913 C 864.972 -1.06098 1.65039 0
M  V30 8914 O 864.097 -1.82251 1.16677 0
M  V30 8915 C 864.692 0.744837 3.30511 0
M  V30 8916 C 863.251 0.430621 3.73929 0
M  V30 8917 C 862.398 0.983746 2.59264 0
M  V30 8918 H 865.349 0.975091 1.2521 0
M  V30 8919 H 865.37 0.032936 3.80486 0
M  V30 8920 H 864.882 1.81847 3.42861 0
M  V30 8921 H 862.983 -0.635308 3.67144 0
M  V30 8922 H 863.096 0.945514 4.69677 0
M  V30 8923 H 861.46 0.407433 2.5142 0
M  V30 8924 H 862.243 2.06297 2.74402 0
M  V30 8925 N 864.689 -1.48329 0.532571 0
M  V30 8926 C 865.966 -1.95492 -0.0650985 0
M  V30 8927 C 866.346 -1.47485 -1.51034 0
M  V30 8928 O 865.694 -0.702516 -2.17433 0
M  V30 8929 C 865.904 -3.48957 0.0548341 0
M  V30 8930 C 867.252 -4.24475 -0.103115 0
M  V30 8931 O 868.276 -3.56195 -0.0188343 0
M  V30 8932 O 867.135 -5.45781 -0.280164 0
M  V30 8933 H 864.229 -0.823327 -0.0778603 0
M  V30 8934 H 866.775 -1.58839 0.597353 0
M  V30 8935 H 865.547 -3.76628 1.06148 0
M  V30 8936 H 865.17 -3.92311 -0.64635 0
M  V30 8937 N 866.167 -0.267825 -1.55308 0
M  V30 8938 C 867.077 0.633055 -2.25897 0
M  V30 8939 C 868.093 1.17613 -1.28231 0
M  V30 8940 O 869.269 1.20797 -1.61153 0
M  V30 8941 C 866.334 1.80397 -2.96071 0
M  V30 8942 C 865.395 1.29829 -4.09198 0
M  V30 8943 C 864.628 2.4134 -4.76016 0
M  V30 8944 O 864.851 3.60537 -4.42006 0
M  V30 8945 O 863.785 2.09909 -5.64111 0
M  V30 8946 H 867.611 0.0614381 -3.03638 0
M  V30 8947 H 865.196 -0.0355072 -1.49358 0
M  V30 8948 H 867.078 2.48685 -3.40197 0
M  V30 8949 H 865.753 2.36281 -2.21253 0
M  V30 8950 H 864.66 0.582086 -3.69544 0
M  V30 8951 H 865.993 0.785288 -4.85895 0
M  V30 8952 N 867.645 1.57599 0.00500368 0
M  V30 8953 C 868.891 1.90631 0.691919 0
M  V30 8954 C 869.224 0.868443 1.737 0
M  V30 8955 O 868.499 -0.113482 1.94169 0
M  V30 8956 C 868.782 3.34255 1.33961 0
M  V30 8957 C 868.635 4.48755 0.306413 0
M  V30 8958 C 869.954 3.77211 2.26715 0
M  V30 8959 H 867.073 0.693279 0.250066 0
M  V30 8960 H 869.715 1.89946 -0.0452634 0
M  V30 8961 H 867.865 3.3497 1.96793 0
M  V30 8962 H 869.537 4.60176 -0.321841 0
M  V30 8963 H 867.78 4.32203 -0.371852 0
M  V30 8964 H 868.451 5.46193 0.798554 0
M  V30 8965 H 870.927 3.78017 1.73904 0
M  V30 8966 H 869.803 4.78466 2.69002 0
M  V30 8967 H 870.064 3.10801 3.14413 0
M  V30 8968 N 869.123 -0.277682 1.55134 0
M  V30 8969 C 870.053 -1.34742 1.90701 0
M  V30 8970 C 871.034 -1.51757 0.768354 0
M  V30 8971 O 872.219 -1.64879 1.02609 0
M  V30 8972 C 869.349 -2.70775 2.17481 0
M  V30 8973 C 868.303 -2.68497 3.33307 0
M  V30 8974 C 867.629 -4.08037 3.45557 0
M  V30 8975 C 868.929 -2.28178 4.69821 0
M  V30 8976 H 870.623 -1.05224 2.803 0
M  V30 8977 H 868.169 -0.504738 1.34864 0
M  V30 8978 H 870.122 -3.45719 2.40949 0
M  V30 8979 H 868.846 -3.01867 1.24676 0
M  V30 8980 H 867.505 -1.9601 3.09799 0
M  V30 8981 H 867.153 -4.36344 2.50226 0
M  V30 8982 H 866.853 -4.07409 4.23429 0
M  V30 8983 H 868.377 -4.84726 3.71312 0
M  V30 8984 H 869.791 -2.92843 4.92865 0
M  V30 8985 H 868.188 -2.3872 5.50575 0
M  V30 8986 H 869.258 -1.23308 4.6896 0
M  V30 8987 N 870.601 -1.47988 -0.541979 0
M  V30 8988 C 871.849 -1.55086 -1.29587 0
M  V30 8989 C 872.17 -0.221304 -1.9374 0
M  V30 8990 O 871.44 0.756128 -1.80719 0
M  V30 8991 H 870.02 -0.571307 -0.481266 0
M  V30 8992 H 872.682 -1.8438 -0.631675 0
M  V30 8993 H 871.778 -2.32556 -2.08144 0
M  V30 8994 N 872.079 0.78992 -1.36375 0
M  V30 8995 C 873.304 1.58389 -1.33895 0
M  V30 8996 C 873.729 1.8794 0.0774934 0
M  V30 8997 O 873.087 1.4785 1.0493 0
M  V30 8998 C 873.135 2.88201 -2.16732 0
M  V30 8999 O 872.239 3.81778 -1.55946 0
M  V30 9000 H 871.58 0.480471 -0.458305 0
M  V30 9001 H 874.11 0.979119 -1.79651 0
M  V30 9002 H 874.12 3.37475 -2.29292 0
M  V30 9003 H 872.795 2.66019 -3.19698 0
M  V30 9004 H 871.372 3.40371 -1.52323 0
M  V30 9005 N 873.557 1.20646 1.01402 0
M  V30 9006 C 874.805 1.01618 1.74695 0
M  V30 9007 C 875.126 -0.452438 1.89679 0
M  V30 9008 O 874.396 -1.32693 1.44116 0
M  V30 9009 H 872.976 0.373013 0.647202 0
M  V30 9010 H 875.638 1.518 1.22241 0
M  V30 9011 H 874.734 1.47666 2.74957 0
M  V30 9012 N 875.035 -1.20752 1.01276 0
M  V30 9013 C 875.967 -2.22798 0.537917 0
M  V30 9014 C 876.98 -1.5836 -0.377638 0
M  V30 9015 O 878.169 -1.77624 -0.176599 0
M  V30 9016 C 875.269 -3.38068 -0.237364 0
M  V30 9017 C 874.442 -4.32095 0.679161 0
M  V30 9018 C 873.501 -5.26178 -0.0478676 0
M  V30 9019 O 872.527 -5.66305 0.573366 0
M  V30 9020 N 873.729 -5.65201 -1.32396 0
M  V30 9021 H 876.494 -2.64166 1.4155 0
M  V30 9022 H 874.055 -1.35254 0.889826 0
M  V30 9023 H 876.047 -3.98009 -0.73288 0
M  V30 9024 H 874.617 -2.95622 -1.0162 0
M  V30 9025 H 873.837 -3.70179 1.35505 0
M  V30 9026 H 875.125 -4.91842 1.30263 0
M  V30 9027 H 874.523 -5.34606 -1.84968 0
M  V30 9028 H 873.08 -6.27468 -1.76428 0
M  V30 9029 N 876.513 -0.788492 -1.36457 0
M  V30 9030 C 877.76 -0.360461 -1.99266 0
M  V30 9031 C 878.088 1.0676 -1.62581 0
M  V30 9032 O 877.343 1.75205 -0.871884 0
M  V30 9033 C 877.642 -0.470255 -3.54293 0
M  V30 9034 C 877.308 -1.85899 -4.10795 0
M  V30 9035 C 875.97 -2.23896 -4.25939 0
M  V30 9036 C 878.322 -2.76836 -4.41601 0
M  V30 9037 C 875.65 -3.52235 -4.69199 0
M  V30 9038 C 878.002 -4.04602 -4.86292 0
M  V30 9039 C 876.666 -4.42623 -4.99641 0
M  V30 9040 H 875.936 -0.131902 -0.729166 0
M  V30 9041 H 878.583 -1.00577 -1.62962 0
M  V30 9042 H 876.888 0.258559 -3.90946 0
M  V30 9043 H 878.585 -0.120119 -4.0082 0
M  V30 9044 H 875.175 -1.55372 -3.99447 0
M  V30 9045 H 879.359 -2.48735 -4.2947 0
M  V30 9046 H 874.615 -3.81565 -4.77722 0
M  V30 9047 H 878.789 -4.75182 -5.09092 0
M  V30 9048 H 876.416 -5.42125 -5.32921 0
M  V30 9049 N 877.991 1.48044 -0.54043 0
M  V30 9050 C 879.239 2.02097 -0.0101367 0
M  V30 9051 C 879.56 1.41881 1.33771 0
M  V30 9052 O 878.83 0.587923 1.8687 0
M  V30 9053 H 877.41 0.747 -0.000758716 0
M  V30 9054 H 880.072 1.81639 -0.706634 0
M  V30 9055 H 879.168 3.11969 0.0904474 0
M  V30 9056 N 879.47 0.276058 1.55163 0
M  V30 9057 C 880.719 -0.341098 1.98795 0
M  V30 9058 C 881.032 -1.56905 1.16791 0
M  V30 9059 O 882.238 -2.25922 1.50571 0
M  V30 9060 C 880.694 -0.658231 3.5383 0
M  V30 9061 C 880.302 0.549972 4.44611 0
M  V30 9062 C 882.046 -1.23796 4.06048 0
M  V30 9063 C 879.953 0.207373 5.91036 0
M  V30 9064 H 878.883 -0.131224 0.742493 0
M  V30 9065 H 881.534 0.380858 1.79504 0
M  V30 9066 H 879.916 -1.43911 3.68925 0
M  V30 9067 H 881.09 1.32681 4.41285 0
M  V30 9068 H 879.405 1.04661 4.03032 0
M  V30 9069 H 882.002 -1.50811 5.12991 0
M  V30 9070 H 882.345 -2.17214 3.55139 0
M  V30 9071 H 882.878 -0.519345 3.94395 0
M  V30 9072 H 879.617 1.10946 6.46043 0
M  V30 9073 H 879.137 -0.532687 5.9743 0
M  V30 9074 H 880.816 -0.200072 6.46691 0
M  V30 9075 N 880.948 -1.576 0.00335426 0
M  V30 9076 C 882.194 -1.90996 -0.681799 0
M  V30 9077 C 882.527 -0.877643 -1.73237 0
M  V30 9078 O 881.802 0.103183 -1.94226 0
M  V30 9079 C 882.085 -3.34961 -1.32187 0
M  V30 9080 C 881.938 -4.48911 -0.28261 0
M  V30 9081 C 883.257 -3.78408 -2.24711 0
M  V30 9082 H 880.376 -0.694596 -0.246386 0
M  V30 9083 H 883.018 -1.89919 0.055336 0
M  V30 9084 H 881.168 -3.36008 -1.95014 0
M  V30 9085 H 882.84 -4.59999 0.346241 0
M  V30 9086 H 881.083 -4.32 0.394768 0
M  V30 9087 H 881.754 -5.46609 -0.769576 0
M  V30 9088 H 884.23 -3.78934 -1.71897 0
M  V30 9089 H 883.106 -4.79885 -2.66461 0
M  V30 9090 H 883.367 -3.12464 -3.1276 0
M  V30 9091 N 882.426 0.269451 -1.5528 0
M  V30 9092 C 883.656 1.01724 -1.79821 0
M  V30 9093 C 884.064 1.80298 -0.573532 0
M  V30 9094 O 883.407 1.77666 0.466963 0
M  V30 9095 C 883.469 2.02043 -2.97353 0
M  V30 9096 C 883.133 1.42375 -4.34256 0
M  V30 9097 C 884.13 0.837611 -5.13108 0
M  V30 9098 C 881.815 1.44988 -4.8092 0
M  V30 9099 C 883.809 0.285557 -6.3676 0
M  V30 9100 C 881.496 0.893969 -6.04526 0
M  V30 9101 C 882.494 0.312809 -6.82283 0
M  V30 9102 O 882.182 -0.234582 -8.03558 0
M  V30 9103 H 881.914 0.30604 -0.602757 0
M  V30 9104 H 884.468 0.30454 -2.0313 0
M  V30 9105 H 882.698 2.77082 -2.69745 0
M  V30 9106 H 884.387 2.6298 -3.09187 0
M  V30 9107 H 885.153 0.81009 -4.78187 0
M  V30 9108 H 881.032 1.89162 -4.20403 0
M  V30 9109 H 884.576 -0.168696 -6.97396 0
M  V30 9110 H 880.473 0.918742 -6.38928 0
M  V30 9111 H 881.241 -0.124282 -8.18406 0
M  V30 9112 N 883.904 1.48273 0.534124 0
M  V30 9113 C 885.152 1.55771 1.28762 0
M  V30 9114 C 885.473 0.231575 1.9362 0
M  V30 9115 O 884.743 -0.746533 1.81118 0
M  V30 9116 H 883.323 0.573851 0.47823 0
M  V30 9117 H 885.985 1.84712 0.621888 0
M  V30 9118 H 885.081 2.33657 2.06908 0
M  V30 9119 N 885.382 -0.782676 1.36792 0
M  V30 9120 C 886.63 -1.53778 1.31136 0
M  V30 9121 C 886.951 -1.94706 -0.107014 0
M  V30 9122 O 886.221 -1.65465 -1.04872 0
M  V30 9123 H 884.801 -0.570328 0.482426 0
M  V30 9124 H 887.463 -0.932181 1.71162 0
M  V30 9125 H 886.559 -2.44224 1.94321 0
M  V30 9126 N 886.86 -1.21182 -1.00761 0
M  V30 9127 C 887.807 -0.968741 -2.09485 0
M  V30 9128 C 888.777 0.104325 -1.65772 0
M  V30 9129 O 889.962 -0.0422587 -1.90753 0
M  V30 9130 C 887.102 -0.536686 -3.40901 0
M  V30 9131 C 886.215 -1.6789 -3.98041 0
M  V30 9132 C 885.35 -1.19627 -5.17555 0
M  V30 9133 C 884.389 -2.31099 -5.66798 0
M  V30 9134 N 883.526 -1.83988 -6.77564 0
M  V30 9135 H 888.366 -1.89952 -2.29613 0
M  V30 9136 H 885.903 -0.946688 -1.12589 0
M  V30 9137 H 887.861 -0.26745 -4.16342 0
M  V30 9138 H 886.491 0.357092 -3.20819 0
M  V30 9139 H 885.543 -2.06284 -3.19611 0
M  V30 9140 H 886.855 -2.51794 -4.30582 0
M  V30 9141 H 886.009 -0.883539 -6.00232 0
M  V30 9142 H 884.748 -0.327244 -4.86601 0
M  V30 9143 H 883.753 -2.63178 -4.82719 0
M  V30 9144 H 884.978 -3.18493 -5.99782 0
M  V30 9145 H 882.924 -0.994257 -6.48422 0
M  V30 9146 H 882.841 -2.61466 -7.09346 0
M  V30 9147 H 884.109 -1.55741 -7.63783 0
M  V30 9148 N 888.338 1.20213 -1.01915 0
M  V30 9149 C 889.288 2.20957 -0.562327 0
M  V30 9150 C 890.272 1.56258 0.383704 0
M  V30 9151 O 891.464 1.75794 0.206255 0
M  V30 9152 C 888.593 3.43167 0.0954035 0
M  V30 9153 C 887.679 4.15028 -0.872487 0
M  V30 9154 N 888.07 4.63231 -2.03103 0
M  V30 9155 C 886.368 4.4057 -0.69385 0
M  V30 9156 C 887.069 5.18307 -2.64069 0
M  V30 9157 N 886.045 5.08522 -1.9211 0
M  V30 9158 H 889.847 2.55894 -1.44553 0
M  V30 9159 H 887.361 1.36178 -0.884831 0
M  V30 9160 H 889.358 4.14569 0.440232 0
M  V30 9161 H 888.018 3.09734 0.974413 0
M  V30 9162 H 889.029 4.58365 -2.41086 0
M  V30 9163 H 885.706 4.17276 0.136889 0
M  V30 9164 H 887.096 5.65961 -3.6213 0
M  V30 9165 N 889.816 0.795718 1.36037 0
M  V30 9166 C 891.232 0.478145 1.52269 0
M  V30 9167 C 891.432 -1.0025 1.74792 0
M  V30 9168 O 890.488 -1.78783 1.78305 0
M  V30 9169 C 891.801 1.31406 2.70468 0
M  V30 9170 C 893.349 1.3084 2.84341 0
M  V30 9171 C 893.824 2.12819 4.05551 0
M  V30 9172 N 895.315 2.10298 4.12709 0
M  V30 9173 C 896.05 2.70495 5.05589 0
M  V30 9174 N 895.546 3.39576 6.03871 0
M  V30 9175 N 897.339 2.60195 4.98252 0
M  V30 9176 H 889.49 1.75477 1.19673 0
M  V30 9177 H 891.753 0.74627 0.584624 0
M  V30 9178 H 891.459 2.36435 2.60368 0
M  V30 9179 H 891.333 0.959726 3.64786 0
M  V30 9180 H 893.72 0.266003 2.93899 0
M  V30 9181 H 893.801 1.70254 1.90912 0
M  V30 9182 H 893.445 3.17093 3.96755 0
M  V30 9183 H 893.375 1.70772 4.98141 0
M  V30 9184 H 895.866 1.60026 3.42345 0
M  V30 9185 H 896.179 3.82823 6.71317 0
M  V30 9186 H 894.524 3.43679 6.04077 0
M  V30 9187 H 897.715 2.05823 4.20422 0
M  V30 9188 H 897.888 3.074 5.70447 0
M  V30 9189 N 891.294 -1.47756 0.548274 0
M  V30 9190 C 892.241 -2.29893 -0.204408 0
M  V30 9191 C 893.211 -1.38509 -0.916761 0
M  V30 9192 O 894.396 -1.67472 -0.91421 0
M  V30 9193 C 891.536 -3.22282 -1.23403 0
M  V30 9194 C 890.649 -4.28753 -0.528654 0
M  V30 9195 C 889.784 -5.08303 -1.54279 0
M  V30 9196 C 888.823 -6.06557 -0.821893 0
M  V30 9197 N 887.96 -6.79098 -1.78243 0
M  V30 9198 H 892.8 -2.93739 0.502163 0
M  V30 9199 H 890.337 -1.44793 0.259471 0
M  V30 9200 H 892.295 -3.74262 -1.84348 0
M  V30 9201 H 890.925 -2.6032 -1.90875 0
M  V30 9202 H 889.977 -3.79899 0.195132 0
M  V30 9203 H 891.289 -4.98787 0.0365066 0
M  V30 9204 H 890.443 -5.64388 -2.22602 0
M  V30 9205 H 889.182 -4.3815 -2.14186 0
M  V30 9206 H 888.187 -5.49659 -0.12469 0
M  V30 9207 H 889.412 -6.78715 -0.228685 0
M  V30 9208 H 887.358 -6.11682 -2.37025 0
M  V30 9209 H 887.275 -7.4527 -1.26919 0
M  V30 9210 H 888.543 -7.39762 -2.45709 0
M  V30 9211 N 892.772 -0.284283 -1.55015 0
M  V30 9212 C 894 0.332948 -2.04203 0
M  V30 9213 C 894.415 1.48783 -1.16229 0
M  V30 9214 O 893.772 1.81567 -0.184323 0
M  V30 9215 C 893.823 0.805207 -3.52418 0
M  V30 9216 O 893.544 -0.303689 -4.37046 0
M  V30 9217 C 895.045 1.48931 -4.17534 0
M  V30 9218 H 892.265 0.0747447 -0.666824 0
M  V30 9219 H 894.809 -0.419048 -2.00161 0
M  V30 9220 H 892.964 1.50727 -3.56876 0
M  V30 9221 H 893.378 0.0609703 -5.24465 0
M  V30 9222 H 894.852 1.77108 -5.22816 0
M  V30 9223 H 895.329 2.42389 -3.66257 0
M  V30 9224 H 895.935 0.830867 -4.17105 0
M  V30 9225 N 894.251 1.57596 -0.0117121 0
M  V30 9226 C 895.499 1.90694 0.669342 0
M  V30 9227 C 895.82 0.886999 1.73659 0
M  V30 9228 O 895.09 -0.0739779 1.9576 0
M  V30 9229 H 893.67 0.703846 0.250219 0
M  V30 9230 H 896.332 1.94821 -0.0554057 0
M  V30 9231 H 895.428 2.90802 1.13316 0
M  V30 9232 N 895.729 -0.261212 1.5542 0
M  V30 9233 C 897.145 -0.609012 1.47524 0
M  V30 9234 C 897.345 -1.88986 0.699042 0
M  V30 9235 O 896.401 -2.51517 0.222628 0
M  V30 9236 C 897.714 -0.725025 2.91828 0
M  V30 9237 C 899.262 -0.818302 3.02114 0
M  V30 9238 C 899.737 -0.965996 4.47697 0
M  V30 9239 N 901.228 -1.03123 4.51575 0
M  V30 9240 C 901.963 -1.16451 5.6145 0
M  V30 9241 N 901.459 -1.26425 6.81167 0
M  V30 9242 N 903.252 -1.19655 5.49217 0
M  V30 9243 H 895.403 0.579807 2.04333 0
M  V30 9244 H 897.666 0.198072 0.927077 0
M  V30 9245 H 897.372 0.145871 3.51397 0
M  V30 9246 H 897.246 -1.60156 3.41511 0
M  V30 9247 H 899.633 -1.67966 2.42634 0
M  V30 9248 H 899.714 0.0830895 2.55665 0
M  V30 9249 H 899.358 -0.109251 5.07782 0
M  V30 9250 H 899.288 -1.88221 4.91813 0
M  V30 9251 H 901.779 -0.966072 3.65343 0
M  V30 9252 H 902.092 -1.36462 7.60656 0
M  V30 9253 H 900.437 -1.23408 6.83956 0
M  V30 9254 H 903.628 -1.11501 4.54626 0
M  V30 9255 H 903.801 -1.29698 6.34888 0
M  V30 9256 N 897.207 -1.48554 -0.526253 0
M  V30 9257 C 898.484 -1.47252 -1.28748 0
M  V30 9258 C 898.864 -0.186245 -2.10277 0
M  V30 9259 O 898.212 0.831954 -2.12816 0
M  V30 9260 C 898.422 -2.73672 -2.16575 0
M  V30 9261 C 899.77 -3.22151 -2.76593 0
M  V30 9262 O 900.794 -2.74614 -2.2686 0
M  V30 9263 O 899.653 -4.04877 -3.67066 0
M  V30 9264 H 896.747 -0.588242 -0.581292 0
M  V30 9265 H 899.293 -1.60792 -0.5426 0
M  V30 9266 H 898.065 -3.58798 -1.56139 0
M  V30 9267 H 897.688 -2.6287 -2.98304 0
M  V30 9268 N 898.685 0.775411 -1.37205 0
M  V30 9269 C 899.931 1.53611 -1.32407 0
M  V30 9270 C 900.264 1.9398 0.0924103 0
M  V30 9271 O 899.539 1.63791 1.04893 0
M  V30 9272 C 899.822 2.80367 -2.25979 0
M  V30 9273 C 899.675 2.46275 -3.76389 0
M  V30 9274 C 900.994 3.82277 -2.18064 0
M  V30 9275 H 898.113 0.557278 -0.482297 0
M  V30 9276 H 900.755 0.889826 -1.67875 0
M  V30 9277 H 898.905 3.35515 -1.95862 0
M  V30 9278 H 900.577 1.9707 -4.17087 0
M  V30 9279 H 898.82 1.79023 -3.95137 0
M  V30 9280 H 899.491 3.36868 -4.37291 0
M  V30 9281 H 901.967 3.36613 -2.44604 0
M  V30 9282 H 900.843 4.68696 -2.85684 0
M  V30 9283 H 901.104 4.26272 -1.17239 0
M  V30 9284 N 900.163 1.21714 1.00117 0
M  V30 9285 C 901.126 0.981338 2.07129 0
M  V30 9286 C 902.126 -0.0491116 1.60725 0
M  V30 9287 O 903.316 0.188555 1.73177 0
M  V30 9288 C 900.448 0.480608 3.37495 0
M  V30 9289 H 901.641 1.93075 2.29482 0
M  V30 9290 H 899.194 1.03467 1.17151 0
M  V30 9291 H 899.929 -0.473552 3.20824 0
M  V30 9292 H 899.714 1.22393 3.72508 0
M  V30 9293 H 901.204 0.33561 4.16249 0
M  V30 9294 N 901.641 -1.19671 1.02551 0
M  V30 9295 C 902.89 -1.88591 0.715272 0
M  V30 9296 C 903.203 -1.80274 -0.758982 0
M  V30 9297 O 904.409 -2.44413 -1.18213 0
M  V30 9298 C 902.865 -3.38264 1.22905 0
M  V30 9299 C 902.473 -3.55146 2.73084 0
M  V30 9300 C 904.217 -4.12683 0.994649 0
M  V30 9301 C 902.124 -4.98693 3.17897 0
M  V30 9302 H 901.054 -0.706326 0.263857 0
M  V30 9303 H 903.705 -1.35322 1.23936 0
M  V30 9304 H 902.087 -3.9091 0.632892 0
M  V30 9305 H 903.261 -3.12845 3.38326 0
M  V30 9306 H 901.576 -2.94112 2.94766 0
M  V30 9307 H 904.173 -5.18536 1.30478 0
M  V30 9308 H 904.516 -4.16243 -0.0686466 0
M  V30 9309 H 905.049 -3.66164 1.55464 0
M  V30 9310 H 901.788 -5.00293 4.23542 0
M  V30 9311 H 901.308 -5.4177 2.57381 0
M  V30 9312 H 902.987 -5.67327 3.11045 0
M  V30 9313 N 903.119 -0.802921 -1.35613 0
M  V30 9314 C 904.066 -0.20874 -2.29854 0
M  V30 9315 C 905.036 0.655128 -1.52634 0
M  V30 9316 O 906.221 0.600979 -1.81088 0
M  V30 9317 C 903.361 0.639663 -3.3912 0
M  V30 9318 C 902.474 -0.244234 -4.31309 0
M  V30 9319 C 901.609 0.611825 -5.27665 0
M  V30 9320 C 900.648 -0.272698 -6.11492 0
M  V30 9321 N 899.785 0.543122 -6.99996 0
M  V30 9322 H 904.625 -1.01782 -2.80079 0
M  V30 9323 H 902.162 -0.513465 -1.37848 0
M  V30 9324 H 904.12 1.14668 -4.01132 0
M  V30 9325 H 902.75 1.41404 -2.9018 0
M  V30 9326 H 901.802 -0.869322 -3.70334 0
M  V30 9327 H 903.114 -0.925202 -4.90144 0
M  V30 9328 H 902.268 1.18412 -5.95032 0
M  V30 9329 H 901.007 1.32637 -4.69317 0
M  V30 9330 H 900.012 -0.857287 -5.43075 0
M  V30 9331 H 901.237 -0.985051 -6.71918 0
M  V30 9332 H 899.183 1.24171 -6.44141 0
M  V30 9333 H 899.1 -0.0798767 -7.55958 0
M  V30 9334 H 900.368 1.09881 -7.71717 0
M  V30 9335 N 904.597 1.47463 -0.556102 0
M  V30 9336 C 905.846 2.01678 -0.029492 0
M  V30 9337 C 906.159 1.436 1.32809 0
M  V30 9338 O 907.365 1.89472 1.94455 0
M  V30 9339 C 905.821 3.599 -0.00223937 0
M  V30 9340 C 905.429 4.26969 -1.35651 0
M  V30 9341 C 907.173 4.2187 0.471822 0
M  V30 9342 C 905.08 5.77194 -1.28843 0
M  V30 9343 H 904.01 0.753965 -0.00725504 0
M  V30 9344 H 906.661 1.69467 -0.703789 0
M  V30 9345 H 905.043 3.89068 0.737682 0
M  V30 9346 H 906.217 4.09444 -2.11406 0
M  V30 9347 H 904.532 3.76983 -1.76842 0
M  V30 9348 H 907.129 5.31955 0.541139 0
M  V30 9349 H 907.472 3.88968 1.48356 0
M  V30 9350 H 908.005 3.97228 -0.213207 0
M  V30 9351 H 904.744 6.14713 -2.27613 0
M  V30 9352 H 904.264 5.9706 -0.572668 0
M  V30 9353 H 905.943 6.3938 -0.990031 0
M  V30 9354 N 906.075 0.2925 1.54862 0
M  V30 9355 C 907.324 -0.319994 1.99146 0
M  V30 9356 C 907.637 -1.55658 1.18448 0
M  V30 9357 O 908.843 -2.24312 1.52959 0
M  V30 9358 C 907.299 -0.620665 3.54508 0
M  V30 9359 C 906.907 0.597098 4.44003 0
M  V30 9360 C 908.651 -1.19482 4.07338 0
M  V30 9361 C 906.558 0.270049 5.90783 0
M  V30 9362 H 905.488 -0.123342 0.743843 0
M  V30 9363 H 908.139 0.399876 1.7909 0
M  V30 9364 H 906.521 -1.3999 3.7043 0
M  V30 9365 H 907.695 1.37354 4.39853 0
M  V30 9366 H 906.01 1.0893 4.019 0
M  V30 9367 H 908.607 -1.45362 5.14562 0
M  V30 9368 H 908.95 -2.13435 3.57423 0
M  V30 9369 H 909.483 -0.477485 3.94924 0
M  V30 9370 H 906.222 1.17791 6.4483 0
M  V30 9371 H 905.742 -0.469292 5.97961 0
M  V30 9372 H 907.421 -0.131471 6.46866 0
M  V30 9373 N 907.553 -1.57587 0.0200696 0
M  V30 9374 C 908.83 -1.82696 -0.698677 0
M  V30 9375 C 909.21 -0.902082 -1.90855 0
M  V30 9376 O 908.558 0.0444834 -2.28457 0
M  V30 9377 C 908.768 -3.31691 -1.08546 0
M  V30 9378 C 910.116 -3.97938 -1.4809 0
M  V30 9379 O 911.14 -3.36133 -1.17869 0
M  V30 9380 O 909.999 -5.06851 -2.04364 0
M  V30 9381 H 907.093 -0.752997 -0.341942 0
M  V30 9382 H 909.639 -1.69635 0.04706 0
M  V30 9383 H 908.411 -3.90659 -0.223956 0
M  V30 9384 H 908.034 -3.49825 -1.88965 0
M  V30 9385 N 909.032 0.252966 -1.55557 0
M  V30 9386 C 909.979 1.3131 -1.89806 0
M  V30 9387 C 910.949 1.48121 -0.751633 0
M  V30 9388 O 912.134 1.62202 -1.00474 0
M  V30 9389 C 909.274 2.66467 -2.19293 0
M  V30 9390 C 908.387 2.57714 -3.46709 0
M  V30 9391 C 907.522 3.85184 -3.65796 0
M  V30 9392 C 906.561 3.71023 -4.86835 0
M  V30 9393 N 905.698 4.90371 -5.02474 0
M  V30 9394 H 910.538 1.01402 -2.80217 0
M  V30 9395 H 908.075 0.489462 -1.38718 0
M  V30 9396 H 910.033 3.45132 -2.34392 0
M  V30 9397 H 908.663 2.94536 -1.32093 0
M  V30 9398 H 907.715 1.70651 -3.39974 0
M  V30 9399 H 909.027 2.43158 -4.35517 0
M  V30 9400 H 908.181 4.72292 -3.80822 0
M  V30 9401 H 906.92 4.0263 -2.7521 0
M  V30 9402 H 905.925 2.82299 -4.71792 0
M  V30 9403 H 907.15 3.55078 -5.78875 0
M  V30 9404 H 905.096 5.0819 -4.14824 0
M  V30 9405 H 905.013 4.78423 -5.85361 0
M  V30 9406 H 906.281 5.78995 -5.21905 0
M  V30 9407 N 910.51 1.48831 0.518367 0
M  V30 9408 C 911.44 1.67119 1.63075 0
M  V30 9409 C 912.421 0.519948 1.61958 0
M  V30 9410 O 913.606 0.753824 1.78972 0
M  V30 9411 C 910.736 1.72158 3.01627 0
M  V30 9412 C 909.69 2.86898 3.17606 0
M  V30 9413 C 909.016 2.77035 4.57335 0
M  V30 9414 C 910.316 4.28057 2.99274 0
M  V30 9415 H 912.01 2.60248 1.48025 0
M  V30 9416 H 909.556 1.2524 0.710694 0
M  V30 9417 H 911.509 1.83539 3.7933 0
M  V30 9418 H 910.233 0.756157 3.17726 0
M  V30 9419 H 908.892 2.75091 2.42323 0
M  V30 9420 H 908.54 1.78438 4.70286 0
M  V30 9421 H 908.24 3.54036 4.6897 0
M  V30 9422 H 909.764 2.904 5.37122 0
M  V30 9423 H 911.178 4.40636 3.6676 0
M  V30 9424 H 909.575 5.06145 3.22393 0
M  V30 9425 H 910.645 4.4371 1.95574 0
M  V30 9426 N 911.988 -0.768124 1.37614 0
M  V30 9427 C 913.404 -1.06919 1.18493 0
M  V30 9428 C 913.604 -2.01486 0.0235753 0
M  V30 9429 O 912.66 -2.4438 -0.635209 0
M  V30 9430 C 913.973 -1.66321 2.50515 0
M  V30 9431 C 915.521 -1.78562 2.57069 0
M  V30 9432 C 915.996 -2.41377 3.89231 0
M  V30 9433 N 917.487 -2.48824 3.90693 0
M  V30 9434 C 918.222 -2.98288 4.89706 0
M  V30 9435 N 917.718 -3.47897 5.99115 0
M  V30 9436 N 919.511 -2.97196 4.77107 0
M  V30 9437 H 911.662 -0.140286 2.11936 0
M  V30 9438 H 913.925 -0.124863 0.939741 0
M  V30 9439 H 913.631 -1.04303 3.35878 0
M  V30 9440 H 913.505 -2.65571 2.67866 0
M  V30 9441 H 915.892 -2.39712 1.72111 0
M  V30 9442 H 915.973 -0.780574 2.43599 0
M  V30 9443 H 915.617 -1.80866 4.74605 0
M  V30 9444 H 915.547 -3.42495 4.00006 0
M  V30 9445 H 918.038 -2.1372 3.1166 0
M  V30 9446 H 918.351 -3.84053 6.70614 0
M  V30 9447 H 916.696 -3.45993 6.02755 0
M  V30 9448 H 919.887 -2.57741 3.90752 0
M  V30 9449 H 920.06 -3.35434 5.54426 0
M  V30 9450 N 913.466 -1.22244 -0.994698 0
M  V30 9451 C 914.713 -1.04591 -1.73398 0
M  V30 9452 C 915.041 0.419223 -1.89928 0
M  V30 9453 O 914.296 1.32714 -1.43824 0
M  V30 9454 C 914.595 -1.70014 -3.14372 0
M  V30 9455 C 914.261 -3.19903 -3.17762 0
M  V30 9456 C 912.923 -3.60803 -3.18394 0
M  V30 9457 C 915.275 -4.15851 -3.14194 0
M  V30 9458 C 912.603 -4.96135 -3.13157 0
M  V30 9459 C 914.955 -5.51157 -3.10498 0
M  V30 9460 C 913.619 -5.91439 -3.09445 0
M  V30 9461 H 912.889 -0.382725 -0.63451 0
M  V30 9462 H 915.536 -1.51981 -1.16508 0
M  V30 9463 H 913.841 -1.14945 -3.7456 0
M  V30 9464 H 915.538 -1.53848 -3.70313 0
M  V30 9465 H 912.128 -2.87336 -3.18019 0
M  V30 9466 H 916.312 -3.85272 -3.12857 0
M  V30 9467 H 911.568 -5.26578 -3.10685 0
M  V30 9468 H 915.742 -6.2523 -3.06692 0
M  V30 9469 H 913.369 -6.96271 -3.05141 0
M  V30 9470 N 914.944 1.19125 -1.03184 0
M  V30 9471 C 916.355 1.70564 -0.759264 0
M  V30 9472 C 916.706 1.8248 0.720794 0
M  V30 9473 O 915.831 1.49804 1.56166 0
M  V30 9474 C 916.426 3.09793 -1.37163 0
M  V30 9475 C 914.985 3.5848 -1.14757 0
M  V30 9476 C 914.132 2.35265 -1.46784 0
M  V30 9477 H 917.083 1.03925 -1.19939 0
M  V30 9478 H 917.104 3.72624 -0.77015 0
M  V30 9479 H 916.616 3.01088 -2.44882 0
M  V30 9480 H 914.717 3.72494 -0.0887182 0
M  V30 9481 H 914.83 4.42426 -1.83836 0
M  V30 9482 H 913.194 2.38747 -0.887254 0
M  V30 9483 H 913.977 2.29188 -2.55593 0
M  V30 9484 N 916.422 0.810101 1.35185 0
M  V30 9485 C 917.65 0.404696 2.02903 0
M  V30 9486 C 918.065 -0.985434 1.61042 0
M  V30 9487 O 917.422 -1.63557 0.809658 0
M  V30 9488 C 917.473 0.482493 3.58266 0
M  V30 9489 O 917.194 1.81782 3.98606 0
M  V30 9490 C 918.695 0.070345 4.43244 0
M  V30 9491 H 915.915 0.163972 0.650657 0
M  V30 9492 H 918.459 1.0947 1.72733 0
M  V30 9493 H 916.614 -0.159296 3.87072 0
M  V30 9494 H 917.028 1.78306 4.93262 0
M  V30 9495 H 918.502 0.175888 5.5172 0
M  V30 9496 H 918.979 -0.984724 4.28018 0
M  V30 9497 H 919.585 0.685427 4.1974 0
M  V30 9498 N 917.9 -1.47166 0.563914 0
M  V30 9499 C 918.847 -2.30097 -0.180013 0
M  V30 9500 C 919.817 -1.39473 -0.902019 0
M  V30 9501 O 921.002 -1.68432 -0.896396 0
M  V30 9502 C 918.142 -3.23573 -1.19978 0
M  V30 9503 C 917.255 -4.2929 -0.483149 0
M  V30 9504 C 916.39 -5.0991 -1.48879 0
M  V30 9505 C 915.429 -6.07395 -0.757513 0
M  V30 9506 N 914.566 -6.8095 -1.71031 0
M  V30 9507 H 919.406 -2.93189 0.53329 0
M  V30 9508 H 916.943 -1.4451 0.274814 0
M  V30 9509 H 918.901 -3.76196 -1.80368 0
M  V30 9510 H 917.531 -2.6233 -1.88103 0
M  V30 9511 H 916.583 -3.79671 0.235414 0
M  V30 9512 H 917.895 -4.9872 0.0894075 0
M  V30 9513 H 917.049 -5.66717 -2.16603 0
M  V30 9514 H 915.788 -4.40397 -2.09527 0
M  V30 9515 H 914.793 -5.4976 -0.0663841 0
M  V30 9516 H 916.018 -6.78919 -0.156685 0
M  V30 9517 H 913.964 -6.14162 -2.30524 0
M  V30 9518 H 913.881 -7.46574 -1.19007 0
M  V30 9519 H 915.149 -7.42326 -2.37849 0
M  V30 9520 N 919.378 -0.300708 -1.54705 0
M  V30 9521 C 920.31 0.609179 -2.20956 0
M  V30 9522 C 921.323 1.09776 -1.20221 0
M  V30 9523 O 922.512 1.01527 -1.46815 0
M  V30 9524 C 919.612 1.84595 -2.84214 0
M  V30 9525 C 918.785 1.49991 -4.10879 0
M  V30 9526 C 917.844 2.5918 -4.57943 0
M  V30 9527 O 916.87 2.24285 -5.23149 0
M  V30 9528 N 918.072 3.89714 -4.30236 0
M  V30 9529 H 920.837 0.0420111 -2.99671 0
M  V30 9530 H 918.398 -0.122896 -1.61433 0
M  V30 9531 H 920.39 2.56988 -3.12633 0
M  V30 9532 H 918.96 2.32152 -2.09342 0
M  V30 9533 H 918.18 0.608637 -3.89473 0
M  V30 9534 H 919.468 1.24409 -4.93356 0
M  V30 9535 H 918.866 4.20874 -3.77997 0
M  V30 9536 H 917.423 4.58406 -4.63365 0
M  V30 9537 N 920.856 1.57574 -0.0284266 0
M  V30 9538 C 921.766 2.13637 0.96936 0
M  V30 9539 C 922.782 1.08845 1.35752 0
M  V30 9540 O 923.958 1.40899 1.43908 0
M  V30 9541 C 921.023 2.65179 2.2334 0
M  V30 9542 C 920.084 3.84683 1.90572 0
M  V30 9543 C 919.317 4.33758 3.1095 0
M  V30 9544 O 919.54 3.82009 4.23586 0
M  V30 9545 O 918.474 5.2561 2.93288 0
M  V30 9546 H 922.3 2.99169 0.52267 0
M  V30 9547 H 919.885 1.48159 0.192135 0
M  V30 9548 H 921.767 2.98402 2.97547 0
M  V30 9549 H 920.442 1.82731 2.67191 0
M  V30 9550 H 919.349 3.56386 1.13753 0
M  V30 9551 H 920.682 4.68292 1.51538 0
M  V30 9552 N 922.334 -0.244713 1.55689 0
M  V30 9553 C 923.559 -0.994157 1.8202 0
M  V30 9554 C 923.984 -1.78079 0.60577 0
M  V30 9555 O 923.342 -1.75748 -0.445221 0
M  V30 9556 C 923.39 -1.90599 3.06111 0
M  V30 9557 O 922.494 -2.99804 2.8318 0
M  V30 9558 H 921.835 -0.282767 0.600782 0
M  V30 9559 H 924.365 -0.26504 2.02876 0
M  V30 9560 H 924.375 -2.32023 3.35603 0
M  V30 9561 H 923.05 -1.32763 3.9414 0
M  V30 9562 H 921.627 -2.62493 2.64862 0
M  V30 9563 N 923.813 -1.49104 -0.510467 0
M  V30 9564 C 924.745 -1.61183 -1.6295 0
M  V30 9565 C 925.758 -0.495003 -1.55092 0
M  V30 9566 O 926.947 -0.766671 -1.61197 0
M  V30 9567 C 924.047 -1.54373 -3.01699 0
M  V30 9568 C 923.22 -2.81428 -3.34838 0
M  V30 9569 C 922.279 -2.67802 -4.52956 0
M  V30 9570 O 921.305 -3.41723 -4.55208 0
M  V30 9571 N 922.507 -1.78715 -5.52305 0
M  V30 9572 H 925.272 -2.57693 -1.53018 0
M  V30 9573 H 922.833 -1.46073 -0.698152 0
M  V30 9574 H 924.825 -1.42924 -3.78622 0
M  V30 9575 H 923.395 -0.657597 -3.05605 0
M  V30 9576 H 922.615 -3.07299 -2.46903 0
M  V30 9577 H 923.903 -3.6568 -3.53773 0
M  V30 9578 H 923.301 -1.17897 -5.53278 0
M  V30 9579 H 921.858 -1.73194 -6.28369 0
M  V30 9580 N 925.291 0.760815 -1.38019 0
M  V30 9581 C 926.221 1.88811 -1.37377 0
M  V30 9582 C 927.202 1.68388 -0.240737 0
M  V30 9583 O 928.387 1.89086 -0.442739 0
M  V30 9584 C 925.517 3.26244 -1.1909 0
M  V30 9585 C 924.471 3.61254 -2.29521 0
M  V30 9586 C 923.797 4.97346 -1.96345 0
M  V30 9587 C 925.097 3.66874 -3.71753 0
M  V30 9588 H 926.791 1.89606 -2.31711 0
M  V30 9589 H 924.337 0.910818 -1.11535 0
M  V30 9590 H 926.29 4.04755 -1.17267 0
M  V30 9591 H 925.014 3.2591 -0.212152 0
M  V30 9592 H 923.673 2.85057 -2.30517 0
M  V30 9593 H 923.321 4.93564 -0.969728 0
M  V30 9594 H 923.021 5.21739 -2.703 0
M  V30 9595 H 924.545 5.78244 -1.96129 0
M  V30 9596 H 925.959 4.35514 -3.72828 0
M  V30 9597 H 924.356 4.02772 -4.44853 0
M  V30 9598 H 925.426 2.67273 -4.0459 0
M  V30 9599 N 926.769 1.22769 0.988202 0
M  V30 9600 C 928.185 0.988665 1.2529 0
M  V30 9601 C 928.385 -0.314938 1.99024 0
M  V30 9602 O 927.441 -1.03637 2.30251 0
M  V30 9603 C 928.754 2.19046 2.06009 0
M  V30 9604 C 930.302 2.23452 2.19176 0
M  V30 9605 C 930.777 3.43196 3.03283 0
M  V30 9606 N 932.268 3.43387 3.10869 0
M  V30 9607 C 933.003 4.32693 3.7625 0
M  V30 9608 N 932.499 5.32224 4.43519 0
M  V30 9609 N 934.292 4.20457 3.73058 0
M  V30 9610 H 926.443 2.06575 0.494014 0
M  V30 9611 H 928.706 0.905452 0.28082 0
M  V30 9612 H 928.412 3.13607 1.59197 0
M  V30 9613 H 928.286 2.19492 3.06763 0
M  V30 9614 H 930.673 1.29436 2.65199 0
M  V30 9615 H 930.754 2.27042 1.17836 0
M  V30 9616 H 930.398 4.37515 2.57959 0
M  V30 9617 H 930.328 3.36847 4.04774 0
M  V30 9618 H 932.819 2.71368 2.62998 0
M  V30 9619 H 933.132 5.9664 4.91163 0
M  V30 9620 H 931.477 5.36133 4.42252 0
M  V30 9621 H 934.668 3.41949 3.19669 0
M  V30 9622 H 934.841 4.90261 4.23731 0
M  V30 9623 N 928.247 -1.18576 1.03814 0
M  V30 9624 C 929.195 -2.24166 0.620678 0
M  V30 9625 C 930.189 -1.65718 -0.351282 0
M  V30 9626 O 931.395 -1.78665 -0.218848 0
M  V30 9627 H 927.77 -0.729522 0.182487 0
M  V30 9628 H 929.741 -2.56686 1.52166 0
M  V30 9629 C 928.49 -3.477 -0.00307331 0
M  V30 9630 H 927.813 -3.92969 0.735874 0
M  V30 9631 H 929.253 -4.23214 -0.257988 0
M  V30 9632 C 927.712 -3.12757 -1.2524 0
M  V30 9633 O 928.242 -3.26261 -2.34344 0
M  V30 9634 N 926.448 -2.67104 -1.14471 0
M  V30 9635 H 925.995 -2.56316 -0.256873 0
M  V30 9636 H 925.953 -2.44096 -1.98153 0
M  V30 9637 N 929.725 -0.817259 -1.34754 0
M  V30 9638 C 930.635 -0.236946 -2.334 0
M  V30 9639 C 931.651 0.625685 -1.62361 0
M  V30 9640 O 932.827 0.534921 -1.94166 0
M  V30 9641 C 929.892 0.596215 -3.41535 0
M  V30 9642 C 928.953 -0.288154 -4.28332 0
M  V30 9643 C 928.186 0.505337 -5.31302 0
M  V30 9644 O 928.409 1.73912 -5.43241 0
M  V30 9645 O 927.343 -0.109374 -6.01801 0
M  V30 9646 H 931.169 -1.05327 -2.84851 0
M  V30 9647 H 928.754 -0.579275 -1.37713 0
M  V30 9648 H 930.636 1.07041 -4.07578 0
M  V30 9649 H 929.311 1.38997 -2.92338 0
M  V30 9650 H 928.218 -0.809724 -3.65232 0
M  V30 9651 H 929.551 -1.04612 -4.80955 0
M  V30 9652 N 931.203 1.46865 -0.571711 0
M  V30 9653 C 932.449 2.0273 -0.0531858 0
M  V30 9654 C 932.782 1.44353 1.29907 0
M  V30 9655 O 932.057 0.604488 1.84868 0
M  V30 9656 C 932.34 3.60092 0.0243831 0
M  V30 9657 C 932.193 4.28874 -1.35599 0
M  V30 9658 C 933.512 4.33994 0.730563 0
M  V30 9659 H 930.631 0.736706 -0.0208018 0
M  V30 9660 H 933.273 1.75132 -0.736794 0
M  V30 9661 H 931.423 3.83736 0.606565 0
M  V30 9662 H 933.095 4.16527 -1.98249 0
M  V30 9663 H 931.338 3.88664 -1.92674 0
M  V30 9664 H 932.009 5.37561 -1.25429 0
M  V30 9665 H 934.485 4.1543 0.236098 0
M  V30 9666 H 933.361 5.43699 0.753836 0
M  V30 9667 H 933.622 4.04257 1.78967 0
M  V30 9668 N 932.681 0.308908 1.54543 0
M  V30 9669 C 933.644 -0.550857 2.22482 0
M  V30 9670 C 934.644 -1.0551 1.21344 0
M  V30 9671 O 935.834 -0.949866 1.46025 0
M  V30 9672 C 932.966 -1.76354 2.9174 0
M  V30 9673 H 934.159 0.0428395 2.99869 0
M  V30 9674 H 931.712 0.059825 1.56185 0
M  V30 9675 H 932.447 -2.39686 2.18451 0
M  V30 9676 H 932.232 -1.40954 3.65889 0
M  V30 9677 H 933.722 -2.37417 3.43545 0
M  V30 9678 N 934.159 -1.57557 0.0367827 0
M  V30 9679 C 935.408 -1.91291 -0.639569 0
M  V30 9680 C 935.721 -0.915601 -1.72847 0
M  V30 9681 O 936.927 -1.14447 -2.46199 0
M  V30 9682 C 935.383 -3.39697 -1.18888 0
M  V30 9683 C 934.991 -4.47803 -0.132851 0
M  V30 9684 C 936.735 -3.82487 -1.8413 0
M  V30 9685 C 934.642 -5.87311 -0.694229 0
M  V30 9686 H 933.572 -0.713886 -0.242658 0
M  V30 9687 H 936.223 -1.83209 0.103332 0
M  V30 9688 H 934.605 -3.42736 -1.98363 0
M  V30 9689 H 935.779 -4.56334 0.640009 0
M  V30 9690 H 934.094 -4.14264 0.421264 0
M  V30 9691 H 936.691 -4.84076 -2.27101 0
M  V30 9692 H 937.034 -3.17959 -2.68716 0
M  V30 9693 H 937.567 -3.81903 -1.11332 0
M  V30 9694 H 934.306 -6.55401 0.113667 0
M  V30 9695 H 933.826 -5.82371 -1.4354 0
M  V30 9696 H 935.505 -6.36119 -1.1816 0
M  V30 9697 N 935.637 0.236453 -1.55816 0
M  V30 9698 C 936.567 1.29639 -1.94206 0
M  V30 9699 C 937.548 1.49667 -0.808319 0
M  V30 9700 O 938.733 1.621 -1.06945 0
M  V30 9701 C 935.863 2.64914 -2.24584 0
M  V30 9702 C 934.817 2.59565 -3.40308 0
M  V30 9703 C 934.143 3.98732 -3.56254 0
M  V30 9704 C 935.443 2.15642 -4.75706 0
M  V30 9705 H 937.137 0.977552 -2.82992 0
M  V30 9706 H 934.683 0.468804 -1.36155 0
M  V30 9707 H 936.636 3.39209 -2.50031 0
M  V30 9708 H 935.36 2.98455 -1.32636 0
M  V30 9709 H 934.019 1.87728 -3.14887 0
M  V30 9710 H 933.667 4.29556 -2.61707 0
M  V30 9711 H 933.367 3.96039 -4.34082 0
M  V30 9712 H 934.891 4.74711 -3.84033 0
M  V30 9713 H 936.305 2.79673 -5.00456 0
M  V30 9714 H 934.702 2.24039 -5.56711 0
M  V30 9715 H 935.772 1.10831 -4.72064 0
M  V30 9716 N 937.115 1.49373 0.502552 0
M  V30 9717 C 938.047 1.62045 1.62093 0
M  V30 9718 C 939.06 0.503221 1.54827 0
M  V30 9719 O 940.249 0.775208 1.60788 0
M  V30 9720 C 937.349 1.55971 3.00876 0
M  V30 9721 C 936.522 2.832 3.33341 0
M  V30 9722 C 935.581 2.702 4.51529 0
M  V30 9723 O 934.607 3.44132 4.53389 0
M  V30 9724 N 935.809 1.81642 5.5135 0
M  V30 9725 H 938.574 2.58501 1.51649 0
M  V30 9726 H 936.135 1.46442 0.690396 0
M  V30 9727 H 938.127 1.4493 3.77859 0
M  V30 9728 H 936.697 0.673795 3.05252 0
M  V30 9729 H 935.917 3.08604 2.4527 0
M  V30 9730 H 937.205 3.67551 3.51829 0
M  V30 9731 H 936.603 1.20829 5.52645 0
M  V30 9732 H 935.16 1.76524 6.27441 0
M  V30 9733 N 938.594 -0.753485 1.38421 0
M  V30 9734 C 939.542 -1.8886 1.35774 0
M  V30 9735 C 940.536 -1.67639 0.243608 0
M  V30 9736 O 941.742 -1.75206 0.412649 0
M  V30 9737 H 938.117 -0.62137 0.42356 0
M  V30 9738 H 940.088 -1.88209 2.3156 0
M  V30 9739 C 938.837 -3.26344 1.19979 0
M  V30 9740 H 938.16 -3.43259 2.04971 0
M  V30 9741 H 939.6 -4.06015 1.22181 0
M  V30 9742 C 938.059 -3.36771 -0.0932867 0
M  V30 9743 O 938.589 -3.8718 -1.07027 0
M  V30 9744 N 936.795 -2.90212 -0.150154 0
M  V30 9745 H 936.342 -2.4938 0.645562 0
M  V30 9746 H 936.3 -2.97569 -1.0149 0
M  V30 9747 N 940.072 -1.23292 -0.981677 0
M  V30 9748 C 941.002 -1.03738 -2.09191 0
M  V30 9749 C 941.983 0.0453041 -1.7004 0
M  V30 9750 O 943.168 -0.119092 -1.93834 0
M  V30 9751 C 940.298 -0.626426 -3.41604 0
M  V30 9752 C 939.252 -1.65631 -3.94652 0
M  V30 9753 C 938.578 -1.10084 -5.23245 0
M  V30 9754 C 939.878 -3.04903 -4.24066 0
M  V30 9755 H 941.572 -1.966 -2.25807 0
M  V30 9756 H 939.118 -0.946656 -1.0851 0
M  V30 9757 H 941.071 -0.476689 -4.18695 0
M  V30 9758 H 939.795 0.337873 -3.24848 0
M  V30 9759 H 938.454 -1.79402 -3.19704 0
M  V30 9760 H 938.102 -0.127562 -5.02838 0
M  V30 9761 H 937.802 -1.78896 -5.59705 0
M  V30 9762 H 939.326 -0.962928 -6.02959 0
M  V30 9763 H 940.74 -2.94441 -4.91912 0
M  V30 9764 H 939.137 -3.70941 -4.71724 0
M  V30 9765 H 940.207 -3.53991 -3.31389 0
M  V30 9766 N 941.55 1.18024 -1.04442 0
M  V30 9767 C 942.5 2.19714 -0.609069 0
M  V30 9768 C 943.484 1.57037 0.350473 0
M  V30 9769 O 944.676 1.76192 0.16892 0
M  V30 9770 C 941.805 3.43293 0.0225911 0
M  V30 9771 C 940.891 4.13084 -0.960325 0
M  V30 9772 N 941.282 4.58819 -2.12883 0
M  V30 9773 C 939.58 4.38999 -0.787146 0
M  V30 9774 C 940.281 5.12589 -2.75004 0
M  V30 9775 N 939.257 5.04333 -2.02853 0
M  V30 9776 H 943.059 2.5277 -1.49948 0
M  V30 9777 H 940.573 1.34271 -0.913517 0
M  V30 9778 H 942.57 4.1541 0.352196 0
M  V30 9779 H 941.23 3.11731 0.908495 0
M  V30 9780 H 942.241 4.53148 -2.50754 0
M  V30 9781 H 938.918 4.17472 0.048348 0
M  V30 9782 H 940.308 5.58152 -3.74053 0
M  V30 9783 N 943.028 0.824394 1.34319 0
M  V30 9784 C 943.978 0.219624 2.2694 0
M  V30 9785 C 944.962 -0.616964 1.48601 0
M  V30 9786 O 946.154 -0.471303 1.7061 0
M  V30 9787 C 943.283 -0.616379 3.37721 0
M  V30 9788 C 942.369 0.230917 4.23471 0
M  V30 9789 N 942.76 1.30264 4.88738 0
M  V30 9790 C 941.058 0.0155016 4.45997 0
M  V30 9791 C 941.759 1.82141 5.52449 0
M  V30 9792 N 940.735 1.12508 5.3183 0
M  V30 9793 H 944.537 1.03939 2.74907 0
M  V30 9794 H 942.051 0.667353 1.48055 0
M  V30 9795 H 944.048 -1.06582 4.03046 0
M  V30 9796 H 942.708 -1.43429 2.91304 0
M  V30 9797 H 943.719 1.68545 4.89707 0
M  V30 9798 H 940.396 -0.770128 4.10336 0
M  V30 9799 H 941.786 2.7181 6.14466 0
M  V30 9800 N 944.506 -1.46559 0.579492 0
M  V30 9801 C 945.917 -1.8608 0.152052 0
M  V30 9802 C 946.268 -1.48346 -1.28405 0
M  V30 9803 O 945.393 -0.89685 -1.9694 0
M  V30 9804 C 945.988 -3.37729 0.269171 0
M  V30 9805 C 944.547 -3.76258 -0.103376 0
M  V30 9806 C 943.694 -2.70584 0.60659 0
M  V30 9807 H 946.645 -1.3776 0.787904 0
M  V30 9808 H 946.666 -3.77116 -0.506339 0
M  V30 9809 H 946.178 -3.65162 1.31448 0
M  V30 9810 H 944.279 -3.54443 -1.14895 0
M  V30 9811 H 944.392 -4.78335 0.270701 0
M  V30 9812 H 942.756 -2.54656 0.0471984 0
M  V30 9813 H 943.539 -3.00856 1.65349 0
M  V30 9814 N 945.984 -0.3171 -1.54377 0
M  V30 9815 C 947.232 0.286842 -2.00054 0
M  V30 9816 C 947.553 1.53161 -1.20692 0
M  V30 9817 O 946.823 1.93479 -0.307045 0
M  V30 9818 H 945.403 0.108979 -0.739008 0
M  V30 9819 H 948.065 -0.432152 -1.90049 0
M  V30 9820 H 947.161 0.547729 -3.07256 0
M  V30 9821 N 947.462 1.57535 -0.0451378 0
M  V30 9822 C 948.708 1.92736 0.630921 0
M  V30 9823 C 949.041 0.923265 1.70849 0
M  V30 9824 O 948.316 -0.0516512 1.94431 0
M  V30 9825 C 948.599 3.38348 1.23259 0
M  V30 9826 C 948.452 4.49503 0.16349 0
M  V30 9827 C 949.771 3.84233 2.14599 0
M  V30 9828 H 946.89 0.700884 0.227883 0
M  V30 9829 H 949.532 1.89706 -0.10567 0
M  V30 9830 H 947.682 3.41061 1.86037 0
M  V30 9831 H 949.354 4.58919 -0.46808 0
M  V30 9832 H 947.597 4.30802 -0.509166 0
M  V30 9833 H 948.268 5.48457 0.624382 0
M  V30 9834 H 950.744 3.83358 1.6179 0
M  V30 9835 H 949.62 4.86781 2.53644 0
M  V30 9836 H 949.881 3.20646 3.04366 0
M  V30 9837 N 948.94 -0.228186 1.55939 0
M  V30 9838 C 950.186 -0.954964 1.78909 0
M  V30 9839 C 950.519 -1.8425 0.613648 0
M  V30 9840 O 949.794 -1.90604 -0.38737 0
M  V30 9841 C 950.077 -1.79957 3.1191 0
M  V30 9842 C 949.93 -0.938968 4.3989 0
M  V30 9843 C 951.249 -2.77859 3.41295 0
M  V30 9844 H 948.368 -0.345745 0.650868 0
M  V30 9845 H 951.01 -0.224244 1.88672 0
M  V30 9846 H 949.16 -2.42256 3.03717 0
M  V30 9847 H 950.832 -0.333225 4.60095 0
M  V30 9848 H 949.075 -0.244096 4.33113 0
M  V30 9849 H 949.746 -1.56416 5.29375 0
M  V30 9850 H 952.222 -2.25695 3.49572 0
M  V30 9851 H 951.098 -3.34062 4.35538 0
M  V30 9852 H 951.359 -3.55266 2.63132 0
M  V30 9853 N 950.418 -1.49637 -0.494624 0
M  V30 9854 C 951.366 -1.6727 -1.61627 0
M  V30 9855 C 952.36 -0.538587 -1.6061 0
M  V30 9856 O 953.566 -0.718411 -1.65042 0
M  V30 9857 H 949.941 -0.527557 -0.535899 0
M  V30 9858 H 951.912 -2.61405 -1.43909 0
M  V30 9859 C 950.661 -1.7624 -2.99725 0
M  V30 9860 H 949.984 -2.62886 -3.01216 0
M  V30 9861 H 951.424 -1.92611 -3.77726 0
M  V30 9862 C 949.883 -0.508632 -3.33038 0
M  V30 9863 O 950.413 0.362828 -4.00058 0
M  V30 9864 N 948.619 -0.369667 -2.88239 0
M  V30 9865 H 948.166 -1.07984 -2.33875 0
M  V30 9866 H 948.124 0.468112 -3.10896 0
M  V30 9867 N 951.896 0.746133 -1.38819 0
M  V30 9868 C 952.826 1.87344 -1.39372 0
M  V30 9869 C 953.807 1.68123 -0.258583 0
M  V30 9870 O 954.992 1.88606 -0.462769 0
M  V30 9871 C 952.122 3.24962 -1.22543 0
M  V30 9872 C 951.076 3.58799 -2.33339 0
M  V30 9873 C 950.402 4.95235 -2.01609 0
M  V30 9874 C 951.702 3.62911 -3.75624 0
M  V30 9875 H 953.396 1.87138 -2.33709 0
M  V30 9876 H 950.942 0.898937 -1.12495 0
M  V30 9877 H 952.895 4.03488 -1.21554 0
M  V30 9878 H 951.619 3.25667 -0.246707 0
M  V30 9879 H 950.278 2.82596 -2.33527 0
M  V30 9880 H 949.926 4.92508 -1.02202 0
M  V30 9881 H 949.626 5.18843 -2.75819 0
M  V30 9882 H 951.15 5.76131 -2.02251 0
M  V30 9883 H 952.564 4.31535 -3.77426 0
M  V30 9884 H 950.961 3.98031 -4.491 0
M  V30 9885 H 952.031 2.62967 -4.07402 0
M  V30 9886 N 953.375 1.23811 0.975125 0
M  V30 9887 C 954.285 1.0408 2.10249 0
M  V30 9888 C 955.301 -0.0162404 1.73992 0
M  V30 9889 O 956.477 0.180346 2.00591 0
M  V30 9890 C 953.542 0.640013 3.40741 0
M  V30 9891 C 952.603 1.7727 3.90991 0
M  V30 9892 C 951.836 1.39094 5.15256 0
M  V30 9893 O 952.059 0.277483 5.69725 0
M  V30 9894 O 950.993 2.21392 5.59704 0
M  V30 9895 H 954.819 1.98575 2.29786 0
M  V30 9896 H 952.404 1.02563 1.08633 0
M  V30 9897 H 954.286 0.427684 4.19224 0
M  V30 9898 H 952.961 -0.27589 3.22522 0
M  V30 9899 H 951.868 2.03971 3.13602 0
M  V30 9900 H 953.201 2.66711 4.13674 0
M  V30 9901 N 954.853 -1.17469 1.05066 0
M  V30 9902 C 956.093 -1.89382 0.769012 0
M  V30 9903 C 956.457 -1.79126 -0.691217 0
M  V30 9904 O 957.658 -2.45845 -1.08692 0
M  V30 9905 C 955.929 -3.35397 1.23465 0
M  V30 9906 S 957.488 -4.25297 1.08018 0
M  V30 9907 H 954.306 -0.653839 0.279312 0
M  V30 9908 H 956.908 -1.41877 1.34503 0
M  V30 9909 H 955.612 -3.40395 2.29258 0
M  V30 9910 H 955.143 -3.87945 0.652853 0
M  V30 9911 H 957.158 -4.962 0.00358573 0
M  V30 9912 N 956.331 -0.831506 -1.3388 0
M  V30 9913 C 957.264 -0.2046 -2.27281 0
M  V30 9914 C 958.242 0.643992 -1.49303 0
M  V30 9915 O 959.426 0.605863 -1.78498 0
M  V30 9916 C 956.553 0.713409 -3.31101 0
M  V30 9917 C 955.599 -0.0587654 -4.2646 0
M  V30 9918 S 956.432 -1.41172 -5.16557 0
M  V30 9919 C 957.588 -0.498807 -6.23909 0
M  V30 9920 H 957.821 -0.996442 -2.80104 0
M  V30 9921 H 955.354 -0.62786 -1.41058 0
M  V30 9922 H 957.312 1.23748 -3.91403 0
M  V30 9923 H 955.973 1.47885 -2.77108 0
M  V30 9924 H 955.166 0.639466 -4.99927 0
M  V30 9925 H 954.768 -0.513665 -3.70456 0
M  V30 9926 H 957.06 0.306268 -6.76807 0
M  V30 9927 H 958.003 -1.20342 -6.97799 0
M  V30 9928 H 958.411 -0.0834242 -5.64438 0
M  V30 9929 N 957.809 1.4625 -0.587256 0
M  V30 9930 C 959.056 2.02363 -0.0745746 0
M  V30 9931 C 959.384 1.4582 1.28712 0
M  V30 9932 O 958.639 0.614922 1.85788 0
M  V30 9933 C 958.938 3.57382 0.036328 0
M  V30 9934 C 958.604 4.32985 -1.25837 0
M  V30 9935 C 957.266 4.53358 -1.61306 0
M  V30 9936 C 959.618 4.76361 -2.11494 0
M  V30 9937 C 956.946 5.14361 -2.82223 0
M  V30 9938 C 959.298 5.38699 -3.31641 0
M  V30 9939 C 957.962 5.57299 -3.67388 0
M  V30 9940 H 957.232 0.740497 -0.0272888 0
M  V30 9941 H 959.879 1.75565 -0.764804 0
M  V30 9942 H 958.184 3.83342 0.809712 0
M  V30 9943 H 959.881 3.9848 0.448838 0
M  V30 9944 H 956.471 4.17427 -0.972251 0
M  V30 9945 H 960.655 4.60372 -1.85394 0
M  V30 9946 H 955.911 5.26952 -3.10051 0
M  V30 9947 H 960.085 5.71267 -3.9828 0
M  V30 9948 H 957.712 6.04338 -4.61173 0
M  V30 9949 N 959.287 0.325282 1.54207 0
M  V30 9950 C 960.197 -0.548778 2.28091 0
M  V30 9951 C 961.213 -1.12772 1.32508 0
M  V30 9952 O 962.389 -1.14732 1.65525 0
M  V30 9953 C 959.454 -1.69284 3.02562 0
M  V30 9954 C 958.515 -1.14553 4.13734 0
M  V30 9955 C 957.748 -2.23506 4.84645 0
M  V30 9956 O 957.971 -3.43884 4.55082 0
M  V30 9957 O 956.905 -1.88828 5.71513 0
M  V30 9958 H 960.731 0.0512974 3.03657 0
M  V30 9959 H 958.316 0.0909159 1.49123 0
M  V30 9960 H 960.198 -2.35887 3.49192 0
M  V30 9961 H 958.873 -2.27906 2.2987 0
M  V30 9962 H 957.78 -0.444532 3.71449 0
M  V30 9963 H 959.113 -0.60441 4.88475 0
M  V30 9964 N 960.765 -1.57509 0.0534917 0
M  V30 9965 C 961.993 -1.97098 -0.629298 0
M  V30 9966 C 962.408 -0.931128 -1.64242 0
M  V30 9967 O 961.765 0.0843866 -1.82305 0
M  V30 9968 C 961.816 -3.36767 -1.31415 0
M  V30 9969 O 961.537 -4.36766 -0.341599 0
M  V30 9970 C 963.038 -3.91127 -2.08649 0
M  V30 9971 H 960.258 -0.648611 -0.171886 0
M  V30 9972 H 962.802 -2.04145 0.120479 0
M  V30 9973 H 960.957 -3.30863 -2.01515 0
M  V30 9974 H 961.371 -5.1788 -0.830715 0
M  V30 9975 H 962.845 -4.91129 -2.51985 0
M  V30 9976 H 963.322 -3.26679 -2.9356 0
M  V30 9977 H 963.928 -4.00376 -1.43456 0
M  V30 9978 N 962.243 0.219913 -1.56058 0
M  V30 9979 C 963.654 0.786766 -1.69313 0
M  V30 9980 C 964.005 1.84916 -0.655782 0
M  V30 9981 O 963.13 2.1554 0.192772 0
M  V30 9982 C 963.725 1.43387 -3.06962 0
M  V30 9983 C 962.284 1.94809 -3.22066 0
M  V30 9984 C 961.431 0.808863 -2.65241 0
M  V30 9985 H 964.382 -0.00476777 -1.58699 0
M  V30 9986 H 964.403 2.30272 -3.02911 0
M  V30 9987 H 963.915 0.660405 -3.8244 0
M  V30 9988 H 962.016 2.74952 -2.5146 0
M  V30 9989 H 962.129 2.12694 -4.293 0
M  V30 9990 H 960.493 1.21661 -2.23765 0
M  V30 9991 H 961.276 0.0480458 -3.43266 0
M  V30 9992 N 963.721 1.49897 0.486681 0
M  V30 9993 C 964.631 1.70379 1.6127 0
M  V30 9994 C 965.647 0.58659 1.63814 0
M  V30 9995 O 966.823 0.863044 1.81971 0
M  V30 9996 C 963.888 1.77911 2.97571 0
M  V30 9997 C 962.949 3.01569 3.0554 0
M  V30 9998 C 962.182 3.08732 4.35339 0
M  V30 9999 O 962.405 2.23099 5.2496 0
M  V30 10000 O 961.339 4.01325 4.48578 0
M  V30 10001 H 965.165 2.65799 1.46916 0
M  V30 10002 H 962.75 1.33808 0.664516 0
M  V30 10003 H 964.632 1.85135 3.78554 0
M  V30 10004 H 963.307 0.856722 3.12157 0
M  V30 10005 H 962.214 2.99854 2.23693 0
M  V30 10006 H 963.547 3.93335 2.95886 0
M  V30 10007 N 965.199 -0.738761 1.39212 0
M  V30 10008 C 966.615 -1.04381 1.20734 0
M  V30 10009 C 966.815 -2.01391 0.0663082 0
M  V30 10010 O 965.871 -2.45672 -0.583229 0
M  V30 10011 C 967.184 -1.6097 2.53987 0
M  V30 10012 C 968.732 -1.73069 2.60799 0
M  V30 10013 C 969.207 -2.33067 3.94264 0
M  V30 10014 N 970.698 -2.40481 3.95883 0
M  V30 10015 C 971.433 -2.87834 4.95923 0
M  V30 10016 N 970.929 -3.35111 6.0636 0
M  V30 10017 N 972.722 -2.87009 4.83304 0
M  V30 10018 H 964.873 -0.0952996 2.12186 0
M  V30 10019 H 967.136 -0.104902 0.942178 0
M  V30 10020 H 966.842 -0.971548 3.38015 0
M  V30 10021 H 966.716 -2.59829 2.73439 0
M  V30 10022 H 969.103 -2.36007 1.77157 0
M  V30 10023 H 969.184 -0.728728 2.452 0
M  V30 10024 H 968.828 -1.70758 4.78335 0
M  V30 10025 H 968.758 -3.33933 4.07181 0
M  V30 10026 H 971.249 -2.07061 3.16123 0
M  V30 10027 H 971.562 -3.69742 6.78609 0
M  V30 10028 H 969.907 -3.33129 6.09959 0
M  V30 10029 H 973.098 -2.49395 3.96131 0
M  V30 10030 H 973.271 -3.23598 5.61416 0
M  V30 10031 N 966.677 -1.24326 -0.968545 0
M  V30 10032 C 967.923 -1.08406 -1.71394 0
M  V30 10033 C 968.256 0.376353 -1.90518 0
M  V30 10034 O 967.531 1.27816 -1.46606 0
M  V30 10035 C 967.814 -1.82344 -3.1052 0
M  V30 10036 C 967.667 -3.3613 -2.98893 0
M  V30 10037 C 968.986 -1.59545 -4.10163 0
M  V30 10038 H 966.105 -0.395205 -0.622079 0
M  V30 10039 H 968.747 -1.52983 -1.12677 0
M  V30 10040 H 966.897 -1.44452 -3.60646 0
M  V30 10041 H 968.569 -3.83614 -2.56199 0
M  V30 10042 H 966.812 -3.64553 -2.35124 0
M  V30 10043 H 967.483 -3.83064 -3.97449 0
M  V30 10044 H 969.959 -1.92504 -3.68892 0
M  V30 10045 H 968.835 -2.13736 -5.05577 0
M  V30 10046 H 969.096 -0.533503 -4.38869 0
M  V30 10047 N 968.156 1.1691 -1.05688 0
M  V30 10048 C 969.403 1.87292 -0.76993 0
M  V30 10049 C 969.731 1.81339 0.703295 0
M  V30 10050 O 968.986 1.21959 1.5305 0
M  V30 10051 C 969.285 3.36578 -1.20207 0
M  V30 10052 C 968.951 3.62732 -2.67836 0
M  V30 10053 C 967.613 3.69579 -3.08163 0
M  V30 10054 C 969.965 3.73803 -3.63209 0
M  V30 10055 C 967.293 3.84992 -4.42717 0
M  V30 10056 C 969.645 3.90735 -4.97503 0
M  V30 10057 C 968.309 3.95823 -5.37476 0
M  V30 10058 H 967.579 0.68535 -0.281737 0
M  V30 10059 H 970.226 1.38274 -1.32486 0
M  V30 10060 H 968.531 3.87687 -0.566222 0
M  V30 10061 H 970.228 3.89409 -0.957183 0
M  V30 10062 H 966.818 3.58031 -2.35609 0
M  V30 10063 H 971.002 3.67829 -3.3319 0
M  V30 10064 H 966.258 3.87181 -4.73182 0
M  V30 10065 H 970.432 3.98243 -5.71293 0
M  V30 10066 H 968.059 4.07518 -6.41742 0
M  V30 10067 N 969.634 0.838594 1.33437 0
M  V30 10068 C 970.88 0.434813 1.98084 0
M  V30 10069 C 971.213 -1.00331 1.66275 0
M  V30 10070 O 970.488 -1.70139 0.942501 0
M  V30 10071 C 970.771 0.655602 3.54082 0
M  V30 10072 C 970.624 2.14097 3.95578 0
M  V30 10073 C 971.943 0.101576 4.39983 0
M  V30 10074 H 969.062 0.159456 0.719544 0
M  V30 10075 H 971.704 1.05406 1.58081 0
M  V30 10076 H 969.854 0.128501 3.88287 0
M  V30 10077 H 971.526 2.73292 3.71631 0
M  V30 10078 H 969.769 2.62558 3.4532 0
M  V30 10079 H 970.44 2.24621 5.04231 0
M  V30 10080 H 972.916 0.552122 4.12421 0
M  V30 10081 H 971.792 0.28575 5.48156 0
M  V30 10082 H 972.053 -0.994616 4.30767 0
M  V30 10083 N 971.112 -1.45937 0.595003 0
M  V30 10084 C 972.358 -2.0262 0.0854317 0
M  V30 10085 C 972.691 -1.46402 -1.27594 0
M  V30 10086 O 971.966 -0.633823 -1.83883 0
M  V30 10087 C 972.249 -3.60085 0.0329075 0
M  V30 10088 C 972.102 -4.26663 1.42405 0
M  V30 10089 C 973.421 -4.35101 -0.661426 0
M  V30 10090 H 970.54 -0.736282 0.0325196 0
M  V30 10091 H 973.182 -1.73938 0.764563 0
M  V30 10092 H 971.332 -3.84652 -0.545439 0
M  V30 10093 H 973.004 -4.13321 2.04851 0
M  V30 10094 H 971.247 -3.85549 1.98833 0
M  V30 10095 H 971.918 -5.35497 1.33965 0
M  V30 10096 H 974.394 -4.15753 -0.169977 0
M  V30 10097 H 973.27 -5.44829 -0.667243 0
M  V30 10098 H 973.531 -4.07053 -1.72513 0
M  V30 10099 N 972.59 -0.333456 -1.54032 0
M  V30 10100 C 973.523 0.570776 -2.20947 0
M  V30 10101 C 974.501 1.10811 -1.18994 0
M  V30 10102 O 975.685 1.17027 -1.47773 0
M  V30 10103 C 972.812 1.7842 -2.87896 0
M  V30 10104 C 971.858 1.37722 -4.03652 0
M  V30 10105 S 972.691 0.405548 -5.33962 0
M  V30 10106 C 973.847 1.62603 -6.0441 0
M  V30 10107 H 974.08 0.0023936 -2.973 0
M  V30 10108 H 971.613 -0.117531 -1.53952 0
M  V30 10109 H 973.571 2.48038 -3.27089 0
M  V30 10110 H 972.232 2.32378 -2.11327 0
M  V30 10111 H 971.425 2.28167 -4.49395 0
M  V30 10112 H 971.027 0.760628 -3.66184 0
M  V30 10113 H 973.319 2.56202 -6.2719 0
M  V30 10114 H 974.262 1.21058 -6.97675 0
M  V30 10115 H 974.67 1.8175 -5.34441 0
M  V30 10116 N 974.068 1.57479 -0.061844 0
M  V30 10117 C 974.978 2.15645 0.923826 0
M  V30 10118 C 975.994 1.117 1.33413 0
M  V30 10119 O 977.17 1.4392 1.40887 0
M  V30 10120 C 974.235 2.69857 2.17665 0
M  V30 10121 C 973.296 3.88638 1.8237 0
M  V30 10122 C 972.529 4.40256 3.01679 0
M  V30 10123 O 972.752 3.90908 4.15388 0
M  V30 10124 O 971.686 5.31713 2.82073 0
M  V30 10125 H 975.512 3.0021 0.459094 0
M  V30 10126 H 973.097 1.48534 0.160665 0
M  V30 10127 H 974.979 3.04647 2.9115 0
M  V30 10128 H 973.654 1.88357 2.63255 0
M  V30 10129 H 972.561 3.58719 1.06167 0
M  V30 10130 H 973.894 4.71401 1.4157 0
M  V30 10131 N 975.546 -0.211634 1.56173 0
M  V30 10132 C 976.493 -1.26231 1.93221 0
M  V30 10133 C 977.463 -1.46076 0.790641 0
M  V30 10134 O 978.648 -1.59482 1.04739 0
M  V30 10135 C 975.788 -2.60559 2.26281 0
M  V30 10136 C 974.901 -2.48431 3.5342 0
M  V30 10137 C 974.036 -3.7535 3.7588 0
M  V30 10138 C 973.075 -3.57985 4.96501 0
M  V30 10139 N 972.212 -4.76877 5.15299 0
M  V30 10140 H 977.052 -0.939367 2.82807 0
M  V30 10141 H 974.589 -0.452511 1.39967 0
M  V30 10142 H 976.547 -3.38796 2.43461 0
M  V30 10143 H 975.177 -2.9093 1.39855 0
M  V30 10144 H 974.229 -1.61577 3.44379 0
M  V30 10145 H 975.541 -2.31526 4.41811 0
M  V30 10146 H 974.695 -4.62029 3.9321 0
M  V30 10147 H 973.434 -3.95191 2.85788 0
M  V30 10148 H 972.439 -2.69691 4.79111 0
M  V30 10149 H 973.664 -3.39605 5.88086 0
M  V30 10150 H 971.61 -4.97013 4.28152 0
M  V30 10151 H 971.527 -4.62735 5.9784 0
M  V30 10152 H 972.795 -5.64954 5.37073 0
M  V30 10153 N 977.024 -1.50153 -0.478725 0
M  V30 10154 C 977.954 -1.71384 -1.58587 0
M  V30 10155 C 978.935 -0.562705 -1.60523 0
M  V30 10156 O 980.12 -0.80101 -1.76911 0
M  V30 10157 C 977.25 -1.80094 -2.96957 0
M  V30 10158 C 976.204 -2.95218 -3.09888 0
M  V30 10159 C 975.53 -2.89063 -4.49829 0
M  V30 10160 C 976.83 -4.35841 -2.8782 0
M  V30 10161 H 978.524 -2.64081 -1.41073 0
M  V30 10162 H 976.07 -1.27081 -0.677239 0
M  V30 10163 H 978.023 -1.93531 -3.74331 0
M  V30 10164 H 976.747 -0.840131 -3.1561 0
M  V30 10165 H 975.406 -2.81419 -2.34944 0
M  V30 10166 H 975.054 -1.90844 -4.6539 0
M  V30 10167 H 974.754 -3.66345 -4.59418 0
M  V30 10168 H 976.278 -3.04539 -5.29234 0
M  V30 10169 H 977.692 -4.50205 -3.54948 0
M  V30 10170 H 976.089 -5.14515 -3.0886 0
M  V30 10171 H 977.159 -4.48739 -1.83742 0
M  V30 10172 N 978.502 0.731368 -1.39602 0
M  V30 10173 C 979.452 1.83662 -1.35101 0
M  V30 10174 C 980.436 1.5923 -0.231241 0
M  V30 10175 O 981.628 1.70671 -0.469072 0
M  V30 10176 C 978.757 3.21629 -1.20041 0
M  V30 10177 C 977.843 3.51878 -2.36733 0
M  V30 10178 N 978.234 3.53041 -3.6221 0
M  V30 10179 C 976.532 3.82259 -2.2977 0
M  V30 10180 C 977.233 3.81188 -4.39398 0
M  V30 10181 N 976.209 3.99145 -3.69031 0
M  V30 10182 H 980.011 1.82871 -2.30077 0
M  V30 10183 H 977.525 0.929777 -1.3315 0
M  V30 10184 H 979.522 4.00754 -1.14899 0
M  V30 10185 H 978.182 3.23656 -0.260184 0
M  V30 10186 H 979.193 3.34266 -3.95584 0
M  V30 10187 H 975.87 3.9187 -1.44029 0
M  V30 10188 H 977.26 3.88525 -5.48177 0
M  V30 10189 N 979.98 1.24838 0.961938 0
M  V30 10190 C 981.228 1.08936 1.70227 0
M  V30 10191 C 981.549 -0.371582 1.91427 0
M  V30 10192 O 980.819 -1.26461 1.49614 0
M  V30 10193 H 979.399 0.400128 0.630799 0
M  V30 10194 H 982.061 1.56848 1.15692 0
M  V30 10195 H 981.157 1.59195 2.68446 0
M  V30 10196 N 981.458 -1.16348 1.06306 0
M  V30 10197 C 982.735 -1.829 0.69331 0
M  V30 10198 C 983.115 -1.94298 -0.82531 0
M  V30 10199 O 982.463 -1.48619 -1.73565 0
M  V30 10200 C 982.673 -3.1989 1.3954 0
M  V30 10201 C 984.021 -3.95662 1.54068 0
M  V30 10202 O 985.045 -3.29408 1.35532 0
M  V30 10203 O 983.904 -5.14422 1.84479 0
M  V30 10204 H 980.998 -0.789738 0.245445 0
M  V30 10205 H 983.544 -1.23549 1.16334 0
M  V30 10206 H 982.316 -3.06629 2.43093 0
M  V30 10207 H 981.939 -3.86918 0.915453 0
M  V30 10208 N 982.937 -0.845659 -1.3299 0
M  V30 10209 C 983.87 -0.228695 -2.27051 0
M  V30 10210 C 984.848 0.62812 -1.49978 0
M  V30 10211 O 986.032 0.586897 -1.79131 0
M  V30 10212 C 983.159 0.678251 -3.31839 0
M  V30 10213 C 982.205 -0.103994 -4.26373 0
M  V30 10214 S 983.038 -1.46642 -5.1503 0
M  V30 10215 C 984.194 -0.564953 -6.23345 0
M  V30 10216 H 984.427 -1.02609 -2.79032 0
M  V30 10217 H 981.96 -0.642786 -1.40384 0
M  V30 10218 H 983.918 1.1959 -3.92694 0
M  V30 10219 H 982.579 1.44937 -2.78661 0
M  V30 10220 H 981.772 0.586406 -5.00577 0
M  V30 10221 H 981.374 -0.552927 -3.6989 0
M  V30 10222 H 983.666 0.234466 -6.77094 0
M  V30 10223 H 984.609 -1.27736 -6.96483 0
M  V30 10224 H 985.017 -0.143286 -5.64318 0
M  V30 10225 N 984.415 1.45619 -0.602734 0
M  V30 10226 C 985.345 2.33258 0.106342 0
M  V30 10227 C 986.326 1.46543 0.863664 0
M  V30 10228 O 987.511 1.75324 0.835175 0
M  V30 10229 C 984.641 3.29168 1.10751 0
M  V30 10230 C 983.595 4.25481 0.463717 0
M  V30 10231 C 982.921 5.11046 1.57278 0
M  V30 10232 C 984.221 5.18702 -0.61199 0
M  V30 10233 H 985.915 2.92795 -0.625423 0
M  V30 10234 H 983.461 1.40793 -0.302213 0
M  V30 10235 H 985.414 3.89346 1.61208 0
M  V30 10236 H 984.138 2.6778 1.8698 0
M  V30 10237 H 982.797 3.66595 -0.0199496 0
M  V30 10238 H 982.445 4.46029 2.32524 0
M  V30 10239 H 982.145 5.76286 1.14755 0
M  V30 10240 H 983.669 5.74091 2.07972 0
M  V30 10241 H 985.083 5.72979 -0.191686 0
M  V30 10242 H 983.48 5.92393 -0.958686 0
M  V30 10243 H 984.55 4.61424 -1.4905 0
M  V30 10244 N 985.893 0.34162 1.53853 0
M  V30 10245 C 986.803 -0.524555 2.2866 0
M  V30 10246 C 987.819 -1.1136 1.33697 0
M  V30 10247 O 988.995 -1.1297 1.66732 0
M  V30 10248 C 986.06 -1.66065 3.04341 0
M  V30 10249 C 985.121 -1.10158 4.14926 0
M  V30 10250 C 984.354 -2.18353 4.86988 0
M  V30 10251 O 984.577 -3.39038 4.58704 0
M  V30 10252 O 983.511 -1.82756 5.73484 0
M  V30 10253 H 987.337 0.0835014 3.03585 0
M  V30 10254 H 984.922 0.106727 1.49018 0
M  V30 10255 H 986.804 -2.3217 3.51674 0
M  V30 10256 H 985.479 -2.25456 2.32275 0
M  V30 10257 H 984.386 -0.405109 3.719 0
M  V30 10258 H 985.719 -0.552567 4.89088 0
M  V30 10259 N 987.371 -1.57444 0.0701946 0
M  V30 10260 C 988.304 -2.08232 -0.93352 0
M  V30 10261 C 989.282 -0.987073 -1.29212 0
M  V30 10262 O 990.466 -1.26035 -1.40169 0
M  V30 10263 C 987.593 -2.53866 -2.2421 0
M  V30 10264 C 986.639 -3.7481 -2.03518 0
M  V30 10265 S 987.472 -5.1958 -1.29601 0
M  V30 10266 C 988.628 -5.68544 -2.61742 0
M  V30 10267 H 988.861 -2.93042 -0.501354 0
M  V30 10268 H 986.394 -1.53741 -0.142533 0
M  V30 10269 H 988.352 -2.80818 -2.99419 0
M  V30 10270 H 987.013 -1.69327 -2.64551 0
M  V30 10271 H 986.206 -4.04724 -3.00358 0
M  V30 10272 H 985.808 -3.48222 -1.36445 0
M  V30 10273 H 988.1 -5.75291 -3.57836 0
M  V30 10274 H 989.043 -6.67459 -2.3644 0
M  V30 10275 H 989.451 -4.96354 -2.68873 0
M  V30 10276 N 988.849 0.203349 -1.56283 0
M  V30 10277 C 990.098 0.92315 -1.79334 0
M  V30 10278 C 990.411 1.84765 -0.641977 0
M  V30 10279 O 991.617 2.60745 -0.756584 0
M  V30 10280 C 990.073 1.69184 -3.17655 0
M  V30 10281 C 989.681 0.812581 -4.40569 0
M  V30 10282 C 991.425 2.40177 -3.50022 0
M  V30 10283 C 989.332 1.57967 -5.69913 0
M  V30 10284 H 988.262 0.348442 -0.668659 0
M  V30 10285 H 990.913 0.1766 -1.82648 0
M  V30 10286 H 989.295 2.48197 -3.08568 0
M  V30 10287 H 990.469 0.0616956 -4.60759 0
M  V30 10288 H 988.784 0.21389 -4.1585 0
M  V30 10289 H 991.381 2.98103 -4.4389 0
M  V30 10290 H 991.724 3.13961 -2.73376 0
M  V30 10291 H 992.257 1.68138 -3.6052 0
M  V30 10292 H 988.996 0.884767 -6.49501 0
M  V30 10293 H 988.516 2.3047 -5.53754 0
M  V30 10294 H 990.195 2.13562 -6.10737 0
M  V30 10295 N 990.327 1.50405 0.470755 0
M  V30 10296 C 991.257 1.72222 1.57676 0
M  V30 10297 C 992.238 0.57121 1.60222 0
M  V30 10298 O 993.423 0.810381 1.76484 0
M  V30 10299 C 990.553 1.81666 2.95998 0
M  V30 10300 C 989.507 2.96857 3.08318 0
M  V30 10301 C 988.833 2.91445 4.4829 0
M  V30 10302 C 990.133 4.37361 2.85504 0
M  V30 10303 H 991.827 2.64825 1.39671 0
M  V30 10304 H 989.373 1.27438 0.67049 0
M  V30 10305 H 991.326 1.95514 3.73299 0
M  V30 10306 H 990.05 0.856856 3.1516 0
M  V30 10307 H 988.709 2.82661 2.33449 0
M  V30 10308 H 988.357 1.93309 4.64371 0
M  V30 10309 H 988.057 3.68776 4.57469 0
M  V30 10310 H 989.581 3.07341 5.27611 0
M  V30 10311 H 990.995 4.52081 3.52555 0
M  V30 10312 H 989.392 5.16145 3.06127 0
M  V30 10313 H 990.462 4.49708 1.81359 0
M  V30 10314 N 991.805 -0.723954 1.39988 0
M  V30 10315 C 993.03 -1.5182 1.41299 0
M  V30 10316 C 993.455 -1.88096 0.0122636 0
M  V30 10317 O 992.813 -1.52687 -0.977559 0
M  V30 10318 C 992.861 -2.77532 2.30235 0
M  V30 10319 O 991.965 -3.73903 1.73984 0
M  V30 10320 H 991.306 -0.458058 0.480707 0
M  V30 10321 H 993.836 -0.892291 1.84118 0
M  V30 10322 H 993.846 -3.2615 2.45132 0
M  V30 10323 H 992.521 -2.50462 3.32026 0
M  V30 10324 H 991.098 -3.32715 1.68389 0
M  V30 10325 N 993.283 -1.25346 -0.955304 0
M  V30 10326 C 994.508 -1.12892 -1.73983 0
M  V30 10327 C 994.933 0.313455 -1.8547 0
M  V30 10328 O 994.291 1.22706 -1.33465 0
M  V30 10329 C 994.339 -1.78729 -3.1319 0
M  V30 10330 O 993.443 -1.06648 -3.98372 0
M  V30 10331 H 992.784 -0.394178 -0.534341 0
M  V30 10332 H 995.314 -1.65897 -1.19747 0
M  V30 10333 H 995.324 -1.84987 -3.63653 0
M  V30 10334 H 993.999 -2.83669 -3.04146 0
M  V30 10335 H 992.576 -1.08266 -3.56837 0
M  V30 10336 N 994.761 1.15782 -1.06922 0
M  V30 10337 C 995.671 2.24008 -0.696948 0
M  V30 10338 C 996.687 1.71569 0.289862 0
M  V30 10339 O 997.863 2.00929 0.137585 0
M  V30 10340 C 994.928 3.46568 -0.0957895 0
M  V30 10341 C 993.989 4.14017 -1.13528 0
M  V30 10342 C 993.222 5.30725 -0.562713 0
M  V30 10343 O 993.445 5.66992 0.62259 0
M  V30 10344 O 992.379 5.87572 -1.30549 0
M  V30 10345 H 996.205 2.58174 -1.59938 0
M  V30 10346 H 993.79 1.2342 -0.841889 0
M  V30 10347 H 995.672 4.20731 0.237407 0
M  V30 10348 H 994.347 3.14161 0.780027 0
M  V30 10349 H 993.254 3.41795 -1.52076 0
M  V30 10350 H 994.587 4.50493 -1.98285 0
M  V30 10351 N 996.239 0.8527 1.3254 0
M  V30 10352 C 997.186 0.293905 2.28921 0
M  V30 10353 C 998.156 -0.598027 1.54961 0
M  V30 10354 O 999.341 -0.533355 1.83194 0
M  V30 10355 C 996.481 -0.513361 3.4126 0
M  V30 10356 C 995.594 0.404144 4.30105 0
M  V30 10357 C 994.729 -0.415564 5.29572 0
M  V30 10358 C 993.768 0.499461 6.10059 0
M  V30 10359 N 992.905 -0.282949 7.0153 0
M  V30 10360 H 997.745 1.12107 2.76109 0
M  V30 10361 H 995.282 0.564272 1.35847 0
M  V30 10362 H 997.24 -0.997008 4.05112 0
M  V30 10363 H 995.87 -1.30537 2.95229 0
M  V30 10364 H 994.922 1.00617 3.66852 0
M  V30 10365 H 996.234 1.10648 4.86373 0
M  V30 10366 H 995.388 -0.962458 5.99017 0
M  V30 10367 H 994.127 -1.15127 4.73917 0
M  V30 10368 H 993.132 1.05825 5.39519 0
M  V30 10369 H 994.357 1.23375 6.67799 0
M  V30 10370 H 992.303 -1.00179 6.48306 0
M  V30 10371 H 992.22 0.36039 7.55141 0
M  V30 10372 H 993.488 -0.811632 7.75263 0
M  V30 10373 N 997.718 -1.45297 0.610449 0
M  V30 10374 C 998.966 -2.01819 0.106548 0
M  V30 10375 C 999.287 -1.48102 -1.26849 0
M  V30 10376 O 998.557 -0.676411 -1.83852 0
M  V30 10377 H 997.137 -0.746113 0.0363982 0
M  V30 10378 H 999.799 -1.78061 0.792491 0
M  V30 10379 H 998.895 -3.12045 0.0585 0
M  V30 10380 N 999.196 -0.349774 -1.5367 0
M  V30 10381 C 1000.61 0.00191293 -1.596 0
M  V30 10382 C 1000.81 1.48175 -1.36552 0
M  V30 10383 O 999.868 2.24129 -1.16285 0
M  V30 10384 C 1001.18 -0.439848 -2.97466 0
M  V30 10385 C 1002.73 -0.392721 -3.10526 0
M  V30 10386 C 1003.2 -0.810047 -4.5078 0
M  V30 10387 N 1004.69 -0.764478 -4.56848 0
M  V30 10388 C 1005.43 -1.05927 -5.63531 0
M  V30 10389 N 1004.93 -1.42253 -6.78038 0
M  V30 10390 N 1006.72 -0.983098 -5.53436 0
M  V30 10391 H 998.87 -1.31364 -1.66905 0
M  V30 10392 H 1001.13 -0.535908 -0.781989 0
M  V30 10393 H 1000.84 -1.47189 -3.19419 0
M  V30 10394 H 1000.71 0.181735 -3.76762 0
M  V30 10395 H 1003.1 0.630161 -2.88293 0
M  V30 10396 H 1003.18 -1.04959 -2.33275 0
M  V30 10397 H 1002.82 -1.83097 -4.73749 0
M  V30 10398 H 1002.75 -0.130591 -5.26438 0
M  V30 10399 H 1005.25 -0.496637 -3.74622 0
M  V30 10400 H 1005.56 -1.63215 -7.55368 0
M  V30 10401 H 1003.9 -1.46104 -6.79469 0
M  V30 10402 H 1007.09 -0.698601 -4.62858 0
M  V30 10403 H 1007.27 -1.21618 -6.36485 0
M  V30 10404 N 1000.67 1.57404 -0.0785433 0
M  V30 10405 C 1001.6 2.16131 0.883726 0
M  V30 10406 C 1002.58 1.09015 1.30575 0
M  V30 10407 O 1003.77 1.3708 1.37559 0
M  V30 10408 C 1000.9 2.72836 2.1489 0
M  V30 10409 C 999.854 3.85178 1.86605 0
M  V30 10410 C 999.18 4.28516 3.1981 0
M  V30 10411 C 1000.48 5.09118 1.16601 0
M  V30 10412 H 1002.17 2.9679 0.394484 0
M  V30 10413 H 999.72 1.42763 0.188304 0
M  V30 10414 H 1001.67 3.12567 2.8263 0
M  V30 10415 H 1000.4 1.89408 2.66068 0
M  V30 10416 H 999.056 3.45962 1.21268 0
M  V30 10417 H 998.704 3.42 3.68843 0
M  V30 10418 H 998.404 5.04249 3.01674 0
M  V30 10419 H 999.928 4.70868 3.88737 0
M  V30 10420 H 1001.34 5.46123 1.74422 0
M  V30 10421 H 999.739 5.90173 1.087 0
M  V30 10422 H 1000.81 4.8468 0.146138 0
M  V30 10423 N 1002.15 -0.195058 1.56388 0
M  V30 10424 C 1003.56 -0.75973 1.70543 0
M  V30 10425 C 1003.91 -1.83849 0.685118 0
M  V30 10426 O 1003.04 -2.15819 -0.158457 0
M  V30 10427 C 1003.63 -1.38485 3.09204 0
M  V30 10428 C 1002.19 -1.89661 3.25124 0
M  V30 10429 C 1001.34 -0.766563 2.66494 0
M  V30 10430 H 1004.29 0.0300148 1.58672 0
M  V30 10431 H 1004.31 -2.25424 3.06536 0
M  V30 10432 H 1003.82 -0.599479 3.83442 0
M  V30 10433 H 1001.92 -2.70917 2.55802 0
M  V30 10434 H 1002.04 -2.05837 4.32629 0
M  V30 10435 H 1000.4 -1.18086 2.25672 0
M  V30 10436 H 1001.18 0.00657102 3.43299 0
M  V30 10437 N 1003.63 -1.50653 -0.462772 0
M  V30 10438 C 1004.54 -1.72923 -1.58539 0
M  V30 10439 C 1005.56 -0.612577 -1.6286 0
M  V30 10440 O 1006.73 -0.891885 -1.80575 0
M  V30 10441 C 1003.8 -1.82623 -2.94703 0
M  V30 10442 C 1002.86 -3.06392 -3.00704 0
M  V30 10443 C 1002.09 -3.15618 -4.30373 0
M  V30 10444 O 1002.31 -2.31423 -5.21344 0
M  V30 10445 O 1001.25 -4.0841 -4.42136 0
M  V30 10446 H 1005.07 -2.68103 -1.42669 0
M  V30 10447 H 1002.66 -1.34848 -0.643144 0
M  V30 10448 H 1004.54 -1.91134 -3.7556 0
M  V30 10449 H 1003.22 -0.906275 -3.10754 0
M  V30 10450 H 1002.12 -3.03375 -2.18894 0
M  V30 10451 H 1003.46 -3.97992 -2.89591 0
M  V30 10452 N 1005.11 0.71652 -1.4037 0
M  V30 10453 C 1006.06 1.82219 -1.37041 0
M  V30 10454 C 1007.04 1.58975 -0.248116 0
M  V30 10455 O 1008.23 1.70164 -0.487147 0
M  V30 10456 C 1005.36 3.20337 -1.23446 0
M  V30 10457 C 1004.45 3.49347 -2.40452 0
M  V30 10458 N 1004.84 3.49179 -3.65934 0
M  V30 10459 C 1003.14 3.798 -2.33811 0
M  V30 10460 C 1003.84 3.76506 -4.43416 0
M  V30 10461 N 1002.82 3.95209 -3.73244 0
M  V30 10462 H 1006.62 1.80421 -2.32003 0
M  V30 10463 H 1004.13 0.915603 -1.34129 0
M  V30 10464 H 1006.13 3.99513 -1.19143 0
M  V30 10465 H 1004.79 3.23362 -0.294497 0
M  V30 10466 H 1005.8 3.30051 -3.99107 0
M  V30 10467 H 1002.48 3.9032 -1.48177 0
M  V30 10468 H 1003.87 3.82689 -5.52267 0
M  V30 10469 N 1006.59 1.25851 0.948643 0
M  V30 10470 C 1007.84 1.10347 1.68838 0
M  V30 10471 C 1008.15 -0.354262 1.92365 0
M  V30 10472 O 1009.35 -0.629847 2.64093 0
M  V30 10473 C 1007.81 1.92659 3.03991 0
M  V30 10474 C 1007.42 3.42962 2.88238 0
M  V30 10475 C 1009.16 1.85743 3.81707 0
M  V30 10476 C 1007.07 4.17547 4.18818 0
M  V30 10477 H 1006 0.409342 0.63321 0
M  V30 10478 H 1008.65 1.50098 1.05559 0
M  V30 10479 H 1007.03 1.45736 3.68208 0
M  V30 10480 H 1008.21 3.97601 2.32917 0
M  V30 10481 H 1006.52 3.51035 2.23972 0
M  V30 10482 H 1009.12 2.38758 4.78434 0
M  V30 10483 H 1009.46 0.826568 4.08012 0
M  V30 10484 H 1009.99 2.30449 3.2425 0
M  V30 10485 H 1006.73 5.21072 3.97699 0
M  V30 10486 H 1006.25 3.6769 4.73882 0
M  V30 10487 H 1007.93 4.25589 4.87322 0
M  V30 10488 N 1008.06 -1.15214 1.07534 0
M  V30 10489 C 1009.29 -1.89922 0.820804 0
M  V30 10490 C 1009.71 -1.78114 -0.626177 0
M  V30 10491 O 1009.06 -1.13435 -1.42964 0
M  V30 10492 C 1009.12 -3.40207 1.22236 0
M  V30 10493 O 1008.84 -3.51676 2.61257 0
M  V30 10494 C 1010.34 -4.31934 0.997393 0
M  V30 10495 H 1007.56 -0.601865 0.296647 0
M  V30 10496 H 1010.1 -1.45965 1.43229 0
M  V30 10497 H 1008.26 -3.8182 0.655167 0
M  V30 10498 H 1008.67 -4.44959 2.77689 0
M  V30 10499 H 1010.14 -5.35791 1.32785 0
M  V30 10500 H 1010.62 -4.3915 -0.0661599 0
M  V30 10501 H 1011.23 -3.96066 1.54958 0
M  V30 10502 N 1009.54 -0.859717 -1.32086 0
M  V30 10503 C 1010.49 -0.306042 -2.28762 0
M  V30 10504 C 1011.46 0.589801 -1.55276 0
M  V30 10505 O 1012.64 0.523633 -1.83474 0
M  V30 10506 C 1009.78 0.495256 -3.41528 0
M  V30 10507 C 1008.9 -0.426947 -4.29885 0
M  V30 10508 C 1008.03 0.387474 -5.29785 0
M  V30 10509 C 1007.07 -0.531807 -6.09785 0
M  V30 10510 N 1006.21 0.245741 -7.0167 0
M  V30 10511 H 1011.05 -1.1357 -2.7551 0
M  V30 10512 H 1008.59 -0.571468 -1.35546 0
M  V30 10513 H 1010.54 0.97551 -4.05635 0
M  V30 10514 H 1009.17 1.28969 -2.95917 0
M  V30 10515 H 1008.23 -1.02561 -3.66313 0
M  V30 10516 H 1009.54 -1.13226 -4.85779 0
M  V30 10517 H 1008.69 0.930677 -5.99519 0
M  V30 10518 H 1007.43 1.12612 -4.74521 0
M  V30 10519 H 1006.44 -1.08685 -5.3895 0
M  V30 10520 H 1007.66 -1.26915 -6.67135 0
M  V30 10521 H 1005.61 0.967391 -6.48828 0
M  V30 10522 H 1005.52 -0.400432 -7.54939 0
M  V30 10523 H 1006.79 0.770507 -7.75683 0
M  V30 10524 N 1011.02 1.44971 -0.618145 0
M  V30 10525 C 1012.27 2.02159 -0.117482 0
M  V30 10526 C 1012.6 1.48517 1.2559 0
M  V30 10527 O 1011.85 0.654192 1.84442 0
M  V30 10528 C 1012.15 3.57378 -0.0394861 0
M  V30 10529 C 1011.82 4.30218 -1.34993 0
M  V30 10530 C 1010.48 4.49835 -1.70886 0
M  V30 10531 C 1012.83 4.71768 -2.21551 0
M  V30 10532 C 1010.16 5.08258 -2.9307 0
M  V30 10533 C 1012.51 5.31543 -3.42993 0
M  V30 10534 C 1011.17 5.49381 -3.79126 0
M  V30 10535 H 1010.44 0.739752 -0.0429897 0
M  V30 10536 H 1013.09 1.73903 -0.801871 0
M  V30 10537 H 1011.4 3.84973 0.728217 0
M  V30 10538 H 1013.09 3.99343 0.364213 0
M  V30 10539 H 1009.68 4.15271 -1.06057 0
M  V30 10540 H 1013.87 4.56336 -1.95117 0
M  V30 10541 H 1009.12 5.20257 -3.21158 0
M  V30 10542 H 1013.3 5.62691 -4.10308 0
M  V30 10543 H 1010.92 5.94419 -4.73888 0
M  V30 10544 N 1012.5 0.357919 1.53482 0
M  V30 10545 C 1013.43 -0.484231 2.28424 0
M  V30 10546 C 1014.41 -1.09046 1.30548 0
M  V30 10547 O 1015.59 -1.10916 1.59409 0
M  V30 10548 C 1012.72 -1.62803 3.06778 0
M  V30 10549 C 1011.68 -1.14943 4.12277 0
M  V30 10550 C 1011 -2.38287 4.78669 0
M  V30 10551 C 1012.3 -0.239627 5.2175 0
M  V30 10552 H 1014 0.140979 2.99068 0
M  V30 10553 H 1011.54 0.069244 1.43833 0
M  V30 10554 H 1013.5 -2.22374 3.57949 0
M  V30 10555 H 1012.22 -2.28036 2.3381 0
M  V30 10556 H 1010.88 -0.576442 3.6204 0
M  V30 10557 H 1010.53 -3.01959 4.02281 0
M  V30 10558 H 1010.23 -2.06939 5.49955 0
M  V30 10559 H 1011.75 -2.98558 5.32631 0
M  V30 10560 H 1013.17 -0.742597 5.6847 0
M  V30 10561 H 1011.56 -0.0173747 6.00097 0
M  V30 10562 H 1012.63 0.720333 4.7952 0
M  V30 10563 N 1013.98 -1.5736 0.0868897 0
M  V30 10564 C 1015.23 -1.93229 -0.578387 0
M  V30 10565 C 1015.54 -0.970127 -1.69847 0
M  V30 10566 O 1016.74 -1.22222 -2.42434 0
M  V30 10567 C 1015.2 -3.43307 -1.0802 0
M  V30 10568 C 1014.81 -4.47999 0.00968135 0
M  V30 10569 C 1016.55 -3.88151 -1.71868 0
M  V30 10570 C 1014.46 -5.89223 -0.507029 0
M  V30 10571 H 1013.39 -0.721245 -0.219823 0
M  V30 10572 H 1016.04 -1.82787 0.161566 0
M  V30 10573 H 1014.42 -3.48873 -1.87359 0
M  V30 10574 H 1015.6 -4.54067 0.784865 0
M  V30 10575 H 1013.91 -4.12714 0.552845 0
M  V30 10576 H 1016.51 -4.91056 -2.11585 0
M  V30 10577 H 1016.85 -3.26347 -2.58464 0
M  V30 10578 H 1017.38 -3.85252 -0.991259 0
M  V30 10579 H 1014.12 -6.54708 0.322121 0
M  V30 10580 H 1013.64 -5.86643 -1.2494 0
M  V30 10581 H 1015.32 -6.39556 -0.978628 0
M  V30 10582 N 1015.45 0.186762 -1.56489 0
M  V30 10583 C 1016.68 0.921832 -1.85229 0
M  V30 10584 C 1017.1 1.76496 -0.670416 0
M  V30 10585 O 1016.45 1.78899 0.360758 0
M  V30 10586 C 1016.51 1.81121 -3.12854 0
M  V30 10587 O 1016.23 1.00211 -4.26485 0
M  V30 10588 C 1017.73 2.65725 -3.54831 0
M  V30 10589 H 1014.95 0.268563 -0.61491 0
M  V30 10590 H 1017.49 0.191505 -2.03601 0
M  V30 10591 H 1015.65 2.49506 -2.96354 0
M  V30 10592 H 1016.06 1.60893 -4.99213 0
M  V30 10593 H 1017.53 3.23771 -4.47075 0
M  V30 10594 H 1018.01 3.39843 -2.78215 0
M  V30 10595 H 1018.62 2.02698 -3.7389 0
M  V30 10596 N 1016.93 1.50896 0.454776 0
M  V30 10597 C 1017.86 1.6712 1.56855 0
M  V30 10598 C 1018.88 0.552223 1.53148 0
M  V30 10599 O 1020.07 0.825969 1.5824 0
M  V30 10600 C 1017.17 1.65464 2.95762 0
M  V30 10601 C 1016.34 2.93662 3.24163 0
M  V30 10602 C 1015.4 2.84428 4.42704 0
M  V30 10603 O 1014.42 3.58382 4.42211 0
M  V30 10604 N 1015.63 1.9909 5.45292 0
M  V30 10605 H 1018.39 2.63194 1.43349 0
M  V30 10606 H 1015.95 1.48564 0.643457 0
M  V30 10607 H 1017.94 1.56878 3.73057 0
M  V30 10608 H 1016.51 0.770568 3.02954 0
M  V30 10609 H 1015.73 3.16251 2.35328 0
M  V30 10610 H 1017.02 3.78558 3.39957 0
M  V30 10611 H 1016.42 1.3835 5.48521 0
M  V30 10612 H 1014.98 1.96396 6.21508 0
M  V30 10613 N 1018.41 -0.709066 1.40748 0
M  V30 10614 C 1019.66 -1.4646 1.38681 0
M  V30 10615 C 1019.97 -1.95599 -0.0056209 0
M  V30 10616 O 1021.18 -2.71091 -0.148907 0
M  V30 10617 C 1019.63 -2.64771 2.43771 0
M  V30 10618 C 1019.24 -2.22474 3.88856 0
M  V30 10619 C 1020.99 -3.42475 2.50821 0
M  V30 10620 C 1018.89 -3.37663 4.85528 0
M  V30 10621 H 1017.82 -0.550084 0.515678 0
M  V30 10622 H 1020.47 -0.771074 1.66513 0
M  V30 10623 H 1018.86 -3.36325 2.09048 0
M  V30 10624 H 1020.03 -1.58297 4.32757 0
M  V30 10625 H 1018.35 -1.57798 3.85342 0
M  V30 10626 H 1020.94 -4.28201 3.20232 0
M  V30 10627 H 1021.29 -3.86738 1.54076 0
M  V30 10628 H 1021.82 -2.77969 2.84567 0
M  V30 10629 H 1018.56 -2.98426 5.83628 0
M  V30 10630 H 1018.08 -4.00734 4.46287 0
M  V30 10631 H 1019.76 -4.03636 5.05655 0
M  V30 10632 N 1019.89 -1.26353 -0.941956 0
M  V30 10633 C 1020.82 -1.10341 -2.05784 0
M  V30 10634 C 1021.8 -0.00881565 -1.70098 0
M  V30 10635 O 1022.99 -0.180699 -1.93357 0
M  V30 10636 C 1020.12 -0.734788 -3.39438 0
M  V30 10637 C 1019.07 -1.78103 -3.89183 0
M  V30 10638 C 1018.4 -1.26675 -5.19478 0
M  V30 10639 C 1019.7 -3.1824 -4.14151 0
M  V30 10640 H 1021.39 -2.03684 -2.19438 0
M  V30 10641 H 1018.94 -0.980698 -1.05443 0
M  V30 10642 H 1020.89 -0.609653 -4.16967 0
M  V30 10643 H 1019.61 0.234354 -3.25758 0
M  V30 10644 H 1018.27 -1.89482 -3.13835 0
M  V30 10645 H 1017.92 -0.287472 -5.02178 0
M  V30 10646 H 1017.62 -1.96612 -5.53731 0
M  V30 10647 H 1019.14 -1.15427 -5.99591 0
M  V30 10648 H 1020.56 -3.09942 -4.82296 0
M  V30 10649 H 1018.95 -3.8576 -4.59684 0
M  V30 10650 H 1020.02 -3.64354 -3.19959 0
M  V30 10651 N 1021.37 1.14642 -1.08144 0
M  V30 10652 C 1022.61 1.85892 -0.810683 0
M  V30 10653 C 1022.95 1.82575 0.661821 0
M  V30 10654 O 1022.22 1.25454 1.48632 0
M  V30 10655 C 1022.5 3.34647 -1.32979 0
M  V30 10656 C 1022.36 3.46551 -2.86744 0
M  V30 10657 C 1023.68 4.29661 -0.952864 0
M  V30 10658 H 1020.8 0.674963 -0.295963 0
M  V30 10659 H 1023.44 1.3464 -1.3406 0
M  V30 10660 H 1021.59 3.78425 -0.87903 0
M  V30 10661 H 1023.26 3.11579 -3.40171 0
M  V30 10662 H 1021.5 2.87849 -3.24539 0
M  V30 10663 H 1022.17 4.51101 -3.18138 0
M  V30 10664 H 1024.65 3.93885 -1.34141 0
M  V30 10665 H 1023.53 5.32209 -1.34331 0
M  V30 10666 H 1023.79 4.41877 0.140392 0
M  V30 10667 N 1022.85 0.866709 1.31628 0
M  V30 10668 C 1023.81 0.325041 2.26883 0
M  V30 10669 C 1024.81 -0.522133 1.52087 0
M  V30 10670 O 1026 -0.331908 1.71009 0
M  V30 10671 C 1023.13 -0.538756 3.36616 0
M  V30 10672 H 1024.32 1.16592 2.76308 0
M  V30 10673 H 1021.88 0.642029 1.42505 0
M  V30 10674 H 1022.61 -1.40096 2.92478 0
M  V30 10675 H 1022.4 0.0678115 3.92041 0
M  V30 10676 H 1023.89 -0.910123 4.07562 0
M  V30 10677 N 1024.32 -1.44642 0.625825 0
M  V30 10678 C 1025.25 -2.33397 -0.0692188 0
M  V30 10679 C 1026.23 -1.47898 -0.840241 0
M  V30 10680 O 1027.42 -1.7663 -0.807176 0
M  V30 10681 C 1024.55 -3.30888 -1.055 0
M  V30 10682 C 1023.5 -4.26164 -0.395968 0
M  V30 10683 C 1022.83 -5.13483 -1.49128 0
M  V30 10684 C 1024.13 -5.17663 0.694433 0
M  V30 10685 H 1025.82 -2.91763 0.671925 0
M  V30 10686 H 1023.37 -1.40294 0.324573 0
M  V30 10687 H 1025.32 -3.91861 -1.54993 0
M  V30 10688 H 1024.05 -2.7072 -1.82696 0
M  V30 10689 H 1022.71 -3.66516 0.0782691 0
M  V30 10690 H 1022.35 -4.49672 -2.25399 0
M  V30 10691 H 1022.05 -5.78038 -1.05573 0
M  V30 10692 H 1023.58 -5.77327 -1.98813 0
M  V30 10693 H 1024.99 -5.72602 0.282818 0
M  V30 10694 H 1023.39 -5.90793 1.05281 0
M  V30 10695 H 1024.46 -4.58994 1.56372 0
M  V30 10696 N 1025.8 -0.366053 -1.5329 0
M  V30 10697 C 1027.22 -0.0150149 -1.59593 0
M  V30 10698 C 1027.42 1.46719 -1.38116 0
M  V30 10699 O 1026.47 2.22884 -1.18656 0
M  V30 10700 C 1027.79 -0.471374 -2.96982 0
M  V30 10701 C 1029.33 -0.425634 -3.10092 0
M  V30 10702 C 1029.81 -0.857812 -4.49895 0
M  V30 10703 N 1031.3 -0.81289 -4.56011 0
M  V30 10704 C 1032.04 -1.11898 -5.62376 0
M  V30 10705 N 1031.53 -1.49436 -6.76491 0
M  V30 10706 N 1033.32 -1.04174 -5.52362 0
M  V30 10707 H 1025.48 -1.33127 -1.65502 0
M  V30 10708 H 1027.74 -0.544172 -0.776261 0
M  V30 10709 H 1027.44 -1.50569 -3.1784 0
M  V30 10710 H 1027.32 0.141764 -3.76934 0
M  V30 10711 H 1029.71 0.599548 -2.88945 0
M  V30 10712 H 1029.79 -1.07427 -2.32149 0
M  V30 10713 H 1029.43 -1.88111 -4.7178 0
M  V30 10714 H 1029.36 -0.186419 -5.2627 0
M  V30 10715 H 1031.85 -0.536343 -3.74075 0
M  V30 10716 H 1032.16 -1.71217 -7.53594 0
M  V30 10717 H 1030.51 -1.53302 -6.77882 0
M  V30 10718 H 1033.7 -0.747654 -4.62091 0
M  V30 10719 H 1033.87 -1.28362 -6.35159 0
M  V30 10720 N 1027.28 1.57312 -0.0952337 0
M  V30 10721 C 1028.23 2.10571 0.87428 0
M  V30 10722 C 1029.21 1.02079 1.24374 0
M  V30 10723 O 1030.41 1.28353 1.2188 0
M  V30 10724 C 1027.53 2.68972 2.13329 0
M  V30 10725 C 1026.62 3.84508 1.78926 0
M  V30 10726 N 1027.01 4.92534 1.15082 0
M  V30 10727 C 1025.31 3.94245 2.08535 0
M  V30 10728 C 1026.01 5.73163 0.992937 0
M  V30 10729 N 1024.99 5.22198 1.51029 0
M  V30 10730 H 1028.79 2.91476 0.376727 0
M  V30 10731 H 1026.3 1.62041 0.107974 0
M  V30 10732 H 1028.3 3.05457 2.83728 0
M  V30 10733 H 1026.96 1.89523 2.6365 0
M  V30 10734 H 1027.97 5.11405 0.817621 0
M  V30 10735 H 1024.65 3.25805 2.61069 0
M  V30 10736 H 1026.04 6.70084 0.493641 0
M  V30 10737 N 1028.76 -0.17846 1.56586 0
M  V30 10738 C 1029.69 -1.22342 1.98884 0
M  V30 10739 C 1030.67 -1.46564 0.86331 0
M  V30 10740 O 1031.85 -1.58019 1.12887 0
M  V30 10741 C 1028.98 -2.56396 2.34261 0
M  V30 10742 C 1027.94 -2.46756 3.49708 0
M  V30 10743 C 1027.26 -3.85235 3.70807 0
M  V30 10744 C 1028.56 -1.97838 4.83381 0
M  V30 10745 H 1030.26 -0.871848 2.86425 0
M  V30 10746 H 1027.8 -0.417948 1.37801 0
M  V30 10747 H 1029.76 -3.29695 2.62448 0
M  V30 10748 H 1028.48 -2.93327 1.43621 0
M  V30 10749 H 1027.14 -1.75912 3.21637 0
M  V30 10750 H 1026.79 -4.19547 2.7747 0
M  V30 10751 H 1026.49 -3.79655 4.48481 0
M  V30 10752 H 1028.01 -4.60131 4.01387 0
M  V30 10753 H 1029.43 -2.60906 5.10491 0
M  V30 10754 H 1027.82 -2.03223 5.64642 0
M  V30 10755 H 1028.89 -0.932339 4.75852 0
M  V30 10756 N 1030.24 -1.51135 -0.446768 0
M  V30 10757 C 1031.19 -1.68152 -1.53977 0
M  V30 10758 C 1032.17 -0.53563 -1.51723 0
M  V30 10759 O 1033.36 -0.791134 -1.58335 0
M  V30 10760 C 1030.49 -1.80133 -2.92245 0
M  V30 10761 C 1029.58 -3.00476 -2.99291 0
M  V30 10762 N 1029.97 -4.23796 -2.76099 0
M  V30 10763 C 1028.27 -2.99536 -3.30445 0
M  V30 10764 C 1028.97 -5.04977 -2.88744 0
M  V30 10765 N 1027.94 -4.39428 -3.20006 0
M  V30 10766 H 1031.74 -2.61172 -1.34784 0
M  V30 10767 H 1029.26 -1.48653 -0.653923 0
M  V30 10768 H 1031.26 -1.90432 -3.70866 0
M  V30 10769 H 1029.92 -0.882879 -3.12467 0
M  V30 10770 H 1030.93 -4.52896 -2.51209 0
M  V30 10771 H 1027.6 -2.17286 -3.56501 0
M  V30 10772 H 1028.99 -6.13114 -2.74847 0
M  V30 10773 N 1031.71 0.701592 -1.41122 0
M  V30 10774 C 1032.96 1.4616 -1.40155 0
M  V30 10775 C 1033.29 1.94498 -0.00861553 0
M  V30 10776 O 1032.54 1.69484 0.978452 0
M  V30 10777 C 1032.84 2.693 -2.34973 0
M  V30 10778 C 1032.51 2.39652 -3.81939 0
M  V30 10779 C 1031.17 2.31277 -4.21977 0
M  V30 10780 C 1033.52 2.15076 -4.74755 0
M  V30 10781 C 1030.85 1.96413 -5.52846 0
M  V30 10782 C 1033.2 1.81722 -6.05937 0
M  V30 10783 C 1031.87 1.71838 -6.45002 0
M  V30 10784 H 1031.14 0.534837 -0.512865 0
M  V30 10785 H 1033.78 0.802425 -1.73878 0
M  V30 10786 H 1032.09 3.40123 -1.94484 0
M  V30 10787 H 1033.79 3.27427 -2.31501 0
M  V30 10788 H 1030.38 2.47063 -3.50226 0
M  V30 10789 H 1034.56 2.20495 -4.4463 0
M  V30 10790 H 1029.82 1.87308 -5.82001 0
M  V30 10791 H 1033.99 1.61723 -6.77362 0
M  V30 10792 H 1031.62 1.44591 -7.46323 0
M  V30 10793 N 1033.19 1.2685 0.935242 0
M  V30 10794 C 1034.14 1.08923 2.03481 0
M  V30 10795 C 1035.11 -0.00749786 1.66098 0
M  V30 10796 O 1036.29 0.153401 1.90182 0
M  V30 10797 C 1033.43 0.734529 3.37192 0
M  V30 10798 C 1032.55 1.90812 3.87576 0
M  V30 10799 C 1031.68 1.49599 5.097 0
M  V30 10800 C 1030.72 2.63752 5.5236 0
M  V30 10801 N 1029.86 2.23179 6.65684 0
M  V30 10802 H 1034.7 2.03016 2.18148 0
M  V30 10803 H 1032.23 1.01072 1.06878 0
M  V30 10804 H 1034.19 0.509734 4.14074 0
M  V30 10805 H 1032.82 -0.169438 3.22355 0
M  V30 10806 H 1031.87 2.24567 3.0704 0
M  V30 10807 H 1033.19 2.7647 4.1517 0
M  V30 10808 H 1032.34 1.23199 5.9406 0
M  V30 10809 H 1031.08 0.61039 4.83865 0
M  V30 10810 H 1030.08 2.90874 4.66554 0
M  V30 10811 H 1031.31 3.5292 5.80193 0
M  V30 10812 H 1029.26 1.37061 6.41522 0
M  V30 10813 H 1029.17 3.02379 6.92895 0
M  V30 10814 H 1030.44 2.00007 7.53404 0
M  V30 10815 N 1034.67 -1.14067 1.0875 0
M  V30 10816 C 1035.62 -2.21332 0.715195 0
M  V30 10817 C 1036.61 -1.67059 -0.280679 0
M  V30 10818 O 1037.82 -1.79432 -0.142874 0
M  V30 10819 H 1034.19 -0.721126 0.213264 0
M  V30 10820 H 1036.16 -2.50002 1.62916 0
M  V30 10821 C 1034.91 -3.474 0.144401 0
M  V30 10822 H 1034.24 -3.89495 0.901884 0
M  V30 10823 H 1035.68 -4.23928 -0.0782564 0
M  V30 10824 C 1034.14 -3.17787 -1.11862 0
M  V30 10825 O 1034.67 -3.35906 -2.20295 0
M  V30 10826 N 1032.87 -2.71719 -1.03039 0
M  V30 10827 H 1032.42 -2.57175 -0.14793 0
M  V30 10828 H 1032.38 -2.52281 -1.87621 0
M  V30 10829 N 1036.15 -0.873678 -1.31166 0
M  V30 10830 C 1037.4 -0.482577 -1.95842 0
M  V30 10831 C 1037.71 0.970881 -1.69804 0
M  V30 10832 O 1038.92 1.4683 -2.28371 0
M  V30 10833 C 1037.37 -0.812074 -3.50619 0
M  V30 10834 C 1036.98 -2.28254 -3.85492 0
M  V30 10835 C 1038.72 -0.489624 -4.21667 0
M  V30 10836 C 1036.63 -2.55426 -5.33396 0
M  V30 10837 H 1035.56 -0.176736 -0.732994 0
M  V30 10838 H 1038.21 -1.06709 -1.49283 0
M  V30 10839 H 1036.59 -0.156769 -3.9569 0
M  V30 10840 H 1037.77 -2.98122 -3.51369 0
M  V30 10841 H 1036.08 -2.5714 -3.27518 0
M  V30 10842 H 1038.68 -0.669811 -5.30488 0
M  V30 10843 H 1039.02 0.570204 -4.12376 0
M  V30 10844 H 1039.56 -1.10163 -3.82242 0
M  V30 10845 H 1036.3 -3.60106 -5.47726 0
M  V30 10846 H 1035.82 -1.90156 -5.68859 0
M  V30 10847 H 1037.49 -2.40345 -6.00702 0
M  V30 10848 N 1037.63 1.44308 -0.633487 0
M  V30 10849 C 1038.87 2.02322 -0.139123 0
M  V30 10850 C 1039.21 1.49733 1.23667 0
M  V30 10851 O 1038.48 0.682353 1.82138 0
M  V30 10852 C 1038.76 3.59871 -0.128366 0
M  V30 10853 C 1038.62 4.22737 -1.53667 0
M  V30 10854 C 1039.94 4.36702 0.545834 0
M  V30 10855 H 1037.05 0.735161 -0.0520293 0
M  V30 10856 H 1039.7 1.7185 -0.810411 0
M  V30 10857 H 1037.85 3.85963 0.443263 0
M  V30 10858 H 1039.52 4.07744 -2.15737 0
M  V30 10859 H 1037.76 3.80142 -2.08985 0
M  V30 10860 H 1038.43 5.31757 -1.48116 0
M  V30 10861 H 1040.91 4.16057 0.0596879 0
M  V30 10862 H 1039.78 5.46407 0.522557 0
M  V30 10863 H 1040.05 4.11483 1.6166 0
M  V30 10864 N 1039.1 0.374177 1.53094 0
M  V30 10865 C 1040.05 -0.484848 2.22785 0
M  V30 10866 C 1041.04 -1.04181 1.22617 0
M  V30 10867 O 1042.23 -0.97043 1.48026 0
M  V30 10868 C 1039.36 -1.61956 3.02696 0
M  V30 10869 C 1038.45 -1.07506 4.10248 0
M  V30 10870 N 1038.84 -0.254253 5.05161 0
M  V30 10871 C 1037.13 -1.34904 4.25108 0
M  V30 10872 C 1037.84 0.0448558 5.81683 0
M  V30 10873 N 1036.81 -0.555073 5.40759 0
M  V30 10874 H 1040.61 0.148976 2.93522 0
M  V30 10875 H 1038.13 0.182656 1.6137 0
M  V30 10876 H 1040.12 -2.24723 3.51148 0
M  V30 10877 H 1038.78 -2.25636 2.33492 0
M  V30 10878 H 1039.8 0.107256 5.17789 0
M  V30 10879 H 1036.47 -1.98799 3.67131 0
M  V30 10880 H 1037.86 0.708952 6.68149 0
M  V30 10881 N 1040.58 -1.57259 0.103575 0
M  V30 10882 C 1041.82 -1.96539 -0.561398 0
M  V30 10883 C 1042.19 -0.984775 -1.64822 0
M  V30 10884 O 1043.39 -1.26638 -2.371 0
M  V30 10885 C 1041.66 -3.40229 -1.09447 0
M  V30 10886 S 1043.22 -4.01512 -1.77013 0
M  V30 10887 H 1040.04 -0.687061 -0.182944 0
M  V30 10888 H 1042.64 -1.94623 0.184993 0
M  V30 10889 H 1041.34 -4.09359 -0.292091 0
M  V30 10890 H 1040.87 -3.45762 -1.8765 0
M  V30 10891 H 1042.89 -3.91009 -3.05494 0
M  V30 10892 N 1042.06 0.170153 -1.56679 0
M  V30 10893 C 1043.34 0.913938 -1.72935 0
M  V30 10894 C 1043.72 2.00342 -0.665293 0
M  V30 10895 O 1043.07 2.26252 0.319715 0
M  V30 10896 C 1043.28 1.47761 -3.16177 0
M  V30 10897 C 1044.62 1.95007 -3.7717 0
M  V30 10898 O 1045.65 1.57552 -3.19462 0
M  V30 10899 O 1044.51 2.64007 -4.78501 0
M  V30 10900 H 1041.6 0.43027 -0.706256 0
M  V30 10901 H 1044.15 0.157891 -1.68964 0
M  V30 10902 H 1042.92 0.69352 -3.85105 0
M  V30 10903 H 1042.54 2.2978 -3.24479 0
M  V30 10904 N 1043.54 1.5137 0.438746 0
M  V30 10905 C 1044.47 1.75528 1.53987 0
M  V30 10906 C 1045.45 0.605067 1.58975 0
M  V30 10907 O 1046.63 0.847634 1.74725 0
M  V30 10908 C 1043.76 1.87904 2.92078 0
M  V30 10909 C 1042.72 3.0333 3.01951 0
M  V30 10910 C 1042.04 3.00888 4.42007 0
M  V30 10911 C 1043.34 4.43319 2.76163 0
M  V30 10912 H 1045.04 2.67728 1.34022 0
M  V30 10913 H 1042.58 1.28831 0.643308 0
M  V30 10914 H 1044.54 2.03388 3.69068 0
M  V30 10915 H 1043.26 0.923514 3.13271 0
M  V30 10916 H 1041.92 2.87549 2.274 0
M  V30 10917 H 1041.57 2.03116 4.60166 0
M  V30 10918 H 1041.27 3.78397 4.49544 0
M  V30 10919 H 1042.79 3.18464 5.20973 0
M  V30 10920 H 1044.21 4.59458 3.42887 0
M  V30 10921 H 1042.6 5.22523 2.9511 0
M  V30 10922 H 1043.67 4.53453 1.71779 0
M  V30 10923 N 1045.02 -0.694098 1.41492 0
M  V30 10924 C 1045.96 -1.80801 1.43456 0
M  V30 10925 C 1046.93 -1.63571 0.288757 0
M  V30 10926 O 1048.12 -1.844 0.490017 0
M  V30 10927 C 1045.26 -3.18694 1.32394 0
M  V30 10928 C 1044.37 -3.47346 2.56855 0
M  V30 10929 C 1043.51 -4.74862 2.38075 0
M  V30 10930 C 1042.55 -4.96486 3.58005 0
M  V30 10931 N 1041.68 -6.15229 3.38287 0
M  V30 10932 H 1046.52 -1.78457 2.38657 0
M  V30 10933 H 1044.06 -0.871455 1.18508 0
M  V30 10934 H 1046.02 -3.98352 1.23982 0
M  V30 10935 H 1044.65 -3.20211 0.407999 0
M  V30 10936 H 1043.7 -2.62083 2.75711 0
M  V30 10937 H 1045.01 -3.59226 3.4606 0
M  V30 10938 H 1044.17 -5.62577 2.27139 0
M  V30 10939 H 1042.9 -4.6523 1.46329 0
M  V30 10940 H 1041.91 -4.07219 3.69395 0
M  V30 10941 H 1043.13 -5.07976 4.50708 0
M  V30 10942 H 1041.08 -6.06807 2.49242 0
M  V30 10943 H 1041 -6.27883 4.21069 0
M  V30 10944 H 1042.27 -7.05674 3.31126 0
M  V30 10945 N 1046.49 -1.27344 -0.928501 0
M  V30 10946 C 1047.91 -1.12361 -1.49103 0
M  V30 10947 C 1048.26 0.291667 -1.9402 0
M  V30 10948 O 1047.38 1.18449 -1.81104 0
M  V30 10949 C 1047.98 -2.03358 -2.70981 0
M  V30 10950 C 1046.54 -1.92483 -3.23461 0
M  V30 10951 C 1045.68 -1.95961 -1.962 0
M  V30 10952 H 1048.63 -1.40249 -0.742689 0
M  V30 10953 H 1048.65 -1.58892 -3.45736 0
M  V30 10954 H 1048.17 -3.06356 -2.38259 0
M  V30 10955 H 1046.27 -0.924676 -3.60944 0
M  V30 10956 H 1046.38 -2.78682 -3.89709 0
M  V30 10957 H 1044.74 -1.40175 -2.12657 0
M  V30 10958 H 1045.53 -3.00612 -1.65793 0
M  V30 10959 N 1047.97 1.13488 -1.09353 0
M  V30 10960 C 1048.88 2.2248 -0.744307 0
M  V30 10961 C 1049.9 1.72145 0.253404 0
M  V30 10962 O 1051.07 2.01176 0.0949339 0
M  V30 10963 C 1048.14 3.46286 -0.16928 0
M  V30 10964 C 1047.2 4.11516 -1.22284 0
M  V30 10965 C 1046.43 5.29412 -0.675161 0
M  V30 10966 O 1046.66 5.68185 0.502182 0
M  V30 10967 O 1045.59 5.8467 -1.42983 0
M  V30 10968 H 1049.42 2.54723 -1.65378 0
M  V30 10969 H 1047 1.21607 -0.867879 0
M  V30 10970 H 1048.88 4.2114 0.14811 0
M  V30 10971 H 1047.56 3.15745 0.713214 0
M  V30 10972 H 1046.47 3.38492 -1.59292 0
M  V30 10973 H 1047.8 4.46186 -2.07796 0
M  V30 10974 N 1049.45 0.880621 1.30701 0
M  V30 10975 C 1050.4 0.333562 2.30196 0
M  V30 10976 C 1051.39 -0.557092 1.59978 0
M  V30 10977 O 1052.6 -0.442009 1.74489 0
M  V30 10978 H 1048.97 0.0892036 0.746691 0
M  V30 10979 H 1050.95 1.18644 2.73799 0
M  V30 10980 C 1049.69 -0.440731 3.44895 0
M  V30 10981 H 1049.02 0.235353 3.99107 0
M  V30 10982 H 1050.46 -0.788676 4.166 0
M  V30 10983 C 1048.92 -1.63613 2.94504 0
M  V30 10984 O 1049.45 -2.73549 2.94166 0
M  V30 10985 N 1047.65 -1.47183 2.5057 0
M  V30 10986 H 1047.2 -0.577479 2.51044 0
M  V30 10987 H 1047.16 -2.27303 2.17211 0
M  V30 10988 N 1050.93 -1.4397 0.641131 0
M  V30 10989 C 1052.18 -2.02246 0.14985 0
M  V30 10990 C 1052.51 -1.50387 -1.22871 0
M  V30 10991 O 1051.78 -0.692003 -1.81773 0
M  V30 10992 C 1052.07 -3.59798 0.147449 0
M  V30 10993 C 1051.92 -4.21916 1.55907 0
M  V30 10994 C 1053.24 -4.36985 -0.522667 0
M  V30 10995 H 1050.36 -0.734875 0.0559274 0
M  V30 10996 H 1053 -1.71418 0.819513 0
M  V30 10997 H 1051.15 -3.86193 -0.422789 0
M  V30 10998 H 1052.82 -4.06594 2.17896 0
M  V30 10999 H 1051.06 -3.79028 2.10998 0
M  V30 11000 H 1051.74 -5.30964 1.50934 0
M  V30 11001 H 1054.21 -4.16083 -0.0376226 0
M  V30 11002 H 1053.09 -5.46676 -0.493572 0
M  V30 11003 H 1053.35 -4.12335 -1.59475 0
M  V30 11004 N 1052.41 -0.382291 -1.52893 0
M  V30 11005 C 1053.34 0.447829 -2.29165 0
M  V30 11006 C 1054.32 1.06956 -1.32267 0
M  V30 11007 O 1055.5 1.08365 -1.61154 0
M  V30 11008 C 1052.63 1.57902 -3.09329 0
M  V30 11009 C 1051.59 1.08369 -4.14053 0
M  V30 11010 C 1050.91 2.30641 -4.82399 0
M  V30 11011 C 1052.21 0.156591 -5.22065 0
M  V30 11012 H 1053.91 -0.188541 -2.98806 0
M  V30 11013 H 1051.45 -0.0921179 -1.43705 0
M  V30 11014 H 1053.41 2.16652 -3.61442 0
M  V30 11015 H 1052.13 2.24287 -2.37409 0
M  V30 11016 H 1050.79 0.518772 -3.62911 0
M  V30 11017 H 1050.44 2.9552 -4.07034 0
M  V30 11018 H 1050.14 1.98163 -5.53177 0
M  V30 11019 H 1051.66 2.90047 -5.37313 0
M  V30 11020 H 1053.08 0.652065 -5.6958 0
M  V30 11021 H 1051.47 -0.0780978 -6.00049 0
M  V30 11022 H 1052.54 -0.796529 -4.78313 0
M  V30 11023 N 1053.89 1.57202 -0.111913 0
M  V30 11024 C 1054.82 2.17957 0.837683 0
M  V30 11025 C 1055.8 1.1176 1.28233 0
M  V30 11026 O 1056.98 1.39967 1.34621 0
M  V30 11027 C 1054.11 2.77333 2.09054 0
M  V30 11028 C 1053.07 3.8905 1.78393 0
M  V30 11029 C 1052.39 4.35203 3.10649 0
M  V30 11030 C 1053.69 5.11477 1.05775 0
M  V30 11031 H 1055.39 2.9756 0.331441 0
M  V30 11032 H 1052.93 1.43131 0.157979 0
M  V30 11033 H 1054.88 3.18492 2.75936 0
M  V30 11034 H 1053.61 1.95009 2.6199 0
M  V30 11035 H 1052.27 3.48456 1.13903 0
M  V30 11036 H 1051.92 3.49747 3.61506 0
M  V30 11037 H 1051.62 5.10534 2.9091 0
M  V30 11038 H 1053.14 4.79007 3.78661 0
M  V30 11039 H 1054.55 5.497 1.62798 0
M  V30 11040 H 1052.95 5.92346 0.961573 0
M  V30 11041 H 1054.02 4.84881 0.043297 0
M  V30 11042 N 1055.36 -0.161842 1.56767 0
M  V30 11043 C 1056.33 -1.18404 1.96247 0
M  V30 11044 C 1057.33 -1.3667 0.84722 0
M  V30 11045 O 1058.52 -1.33915 1.11411 0
M  V30 11046 C 1055.65 -2.54728 2.26553 0
M  V30 11047 H 1056.84 -0.845703 2.87729 0
M  V30 11048 H 1054.39 -0.404645 1.50971 0
M  V30 11049 H 1055.13 -2.93559 1.37816 0
M  V30 11050 H 1054.91 -2.42834 3.07854 0
M  V30 11051 H 1056.4 -3.28378 2.57987 0
M  V30 11052 N 1056.84 -1.516 -0.430713 0
M  V30 11053 C 1058.07 -1.687 -1.20644 0
M  V30 11054 C 1058.49 -0.386555 -1.84085 0
M  V30 11055 O 1057.85 0.653952 -1.69095 0
M  V30 11056 C 1057.9 -2.80887 -2.2613 0
M  V30 11057 O 1057 -2.44952 -3.31772 0
M  V30 11058 H 1056.34 -0.562289 -0.353167 0
M  V30 11059 H 1058.87 -1.98198 -0.507807 0
M  V30 11060 H 1058.88 -3.05167 -2.70809 0
M  V30 11061 H 1057.56 -3.75249 -1.79334 0
M  V30 11062 H 1056.13 -2.31267 -2.92523 0
M  V30 11063 N 1058.32 0.686584 -1.41858 0
M  V30 11064 C 1059.28 1.78214 -1.44126 0
M  V30 11065 C 1060.28 1.57366 -0.330541 0
M  V30 11066 O 1061.47 1.63874 -0.590837 0
M  V30 11067 C 1058.6 3.16704 -1.26142 0
M  V30 11068 H 1059.8 1.77594 -2.41661 0
M  V30 11069 H 1057.35 0.895085 -1.28132 0
M  V30 11070 H 1058.09 3.22957 -0.294823 0
M  V30 11071 H 1057.87 3.33238 -2.06627 0
M  V30 11072 H 1059.36 3.96658 -1.30584 0
M  V30 11073 N 1059.8 1.27835 0.921735 0
M  V30 11074 C 1061.07 1.05238 1.64877 0
M  V30 11075 C 1061.45 -0.410921 2.07062 0
M  V30 11076 O 1060.8 -1.39538 1.80946 0
M  V30 11077 C 1061.01 2.01955 2.84632 0
M  V30 11078 C 1062.36 2.31657 3.55837 0
M  V30 11079 O 1063.38 1.99975 2.94768 0
M  V30 11080 O 1062.24 2.85692 4.65878 0
M  V30 11081 H 1059.34 0.401622 0.72293 0
M  V30 11082 H 1061.88 1.39123 0.971744 0
M  V30 11083 H 1060.66 3.00614 2.50494 0
M  V30 11084 H 1060.28 1.68667 3.60052 0
M  V30 11085 N 1061.28 -1.12907 1.09954 0
M  V30 11086 C 1062.69 -1.65847 0.857417 0
M  V30 11087 C 1063.04 -1.86372 -0.613176 0
M  V30 11088 O 1062.16 -1.58654 -1.47166 0
M  V30 11089 C 1062.76 -3.01269 1.54991 0
M  V30 11090 C 1061.32 -3.51179 1.35462 0
M  V30 11091 C 1060.46 -2.26307 1.60251 0
M  V30 11092 H 1063.41 -0.96755 1.25794 0
M  V30 11093 H 1063.44 -3.675 0.986091 0
M  V30 11094 H 1062.95 -2.86299 2.6202 0
M  V30 11095 H 1061.05 -3.71343 0.305742 0
M  V30 11096 H 1061.16 -4.30955 2.09318 0
M  V30 11097 H 1059.53 -2.33167 1.02494 0
M  V30 11098 H 1060.31 -2.13896 2.68521 0
M  V30 11099 N 1062.75 -0.88754 -1.30232 0
M  V30 11100 C 1064 -0.507279 -1.96043 0
M  V30 11101 C 1064.33 0.944059 -1.70052 0
M  V30 11102 O 1063.58 1.68255 -0.999444 0
M  V30 11103 C 1063.88 -0.731765 -3.49828 0
M  V30 11104 C 1063.55 -2.15858 -3.95874 0
M  V30 11105 C 1062.21 -2.54875 -4.08157 0
M  V30 11106 C 1064.56 -3.0883 -4.19849 0
M  V30 11107 C 1061.89 -3.86069 -4.41778 0
M  V30 11108 C 1064.24 -4.39559 -4.5494 0
M  V30 11109 C 1062.91 -4.78465 -4.65432 0
M  V30 11110 H 1062.18 -0.185627 -0.717373 0
M  V30 11111 H 1064.82 -1.12388 -1.55052 0
M  V30 11112 H 1063.13 -0.0321473 -3.91787 0
M  V30 11113 H 1064.83 -0.417107 -3.98825 0
M  V30 11114 H 1061.42 -1.84574 -3.86821 0
M  V30 11115 H 1065.6 -2.79906 -4.09837 0
M  V30 11116 H 1060.86 -4.1595 -4.48102 0
M  V30 11117 H 1065.03 -5.11636 -4.72442 0
M  V30 11118 H 1062.66 -5.80162 -4.91239 0
M  V30 11119 N 1064.23 1.43628 -0.648757 0
M  V30 11120 C 1065.64 1.85142 -0.24066 0
M  V30 11121 C 1065.99 1.54304 1.21181 0
M  V30 11122 O 1065.12 0.989792 1.92437 0
M  V30 11123 C 1065.71 3.3606 -0.429999 0
M  V30 11124 C 1064.27 3.76323 -0.0762588 0
M  V30 11125 C 1063.42 2.67382 -0.734999 0
M  V30 11126 H 1066.37 1.33844 -0.852734 0
M  V30 11127 H 1066.39 3.79102 0.325836 0
M  V30 11128 H 1065.9 3.58474 -1.48721 0
M  V30 11129 H 1064.01 3.59521 0.978529 0
M  V30 11130 H 1064.12 4.76498 -0.498612 0
M  V30 11131 H 1062.48 2.54141 -0.168644 0
M  V30 11132 H 1063.27 2.92625 -1.79515 0
M  V30 11133 N 1065.71 0.390394 1.52688 0
M  V30 11134 C 1066.64 -0.479319 2.24132 0
M  V30 11135 C 1067.66 -1.0258 1.26416 0
M  V30 11136 O 1068.84 -0.927943 1.52484 0
M  V30 11137 C 1065.94 -1.67711 2.94493 0
M  V30 11138 C 1065.12 -1.2578 4.18925 0
M  V30 11139 C 1064.18 -2.3204 4.72275 0
M  V30 11140 O 1063.2 -1.93402 5.35336 0
M  V30 11141 N 1064.4 -3.63967 4.52226 0
M  V30 11142 H 1067.17 0.132777 2.99406 0
M  V30 11143 H 1064.73 0.216807 1.60442 0
M  V30 11144 H 1066.72 -2.38323 3.27084 0
M  V30 11145 H 1065.29 -2.19552 2.22521 0
M  V30 11146 H 1064.51 -0.380528 3.92359 0
M  V30 11147 H 1065.8 -0.954329 4.9977 0
M  V30 11148 H 1065.2 -3.98119 4.01892 0
M  V30 11149 H 1063.76 -4.30611 4.89303 0
M  V30 11150 N 1067.19 -1.57141 0.120249 0
M  V30 11151 C 1068.43 -1.95527 -0.538245 0
M  V30 11152 C 1068.77 -1.00373 -1.6625 0
M  V30 11153 O 1068.04 -0.0411734 -1.94456 0
M  V30 11154 C 1068.33 -3.43843 -1.06976 0
M  V30 11155 C 1068.18 -4.49771 0.0511596 0
M  V30 11156 C 1069.5 -3.94035 -1.96022 0
M  V30 11157 H 1066.62 -0.710958 -0.194183 0
M  V30 11158 H 1069.26 -1.88986 0.196061 0
M  V30 11159 H 1067.41 -3.49548 -1.69553 0
M  V30 11160 H 1069.08 -4.56163 0.686503 0
M  V30 11161 H 1067.32 -4.27882 0.714127 0
M  V30 11162 H 1067.99 -5.50812 -0.361995 0
M  V30 11163 H 1070.47 -3.9064 -1.43315 0
M  V30 11164 H 1069.35 -4.98329 -2.3013 0
M  V30 11165 H 1069.61 -3.34803 -2.8872 0
M  V30 11166 N 1068.67 0.153526 -1.5685 0
M  V30 11167 C 1069.61 1.18973 -1.97773 0
M  V30 11168 C 1070.58 1.43041 -0.844311 0
M  V30 11169 O 1071.77 1.55484 -1.10586 0
M  V30 11170 C 1068.91 2.51981 -2.35795 0
M  V30 11171 C 1068.02 2.35143 -3.62397 0
M  V30 11172 C 1067.16 3.61141 -3.89552 0
M  V30 11173 C 1066.2 3.39311 -5.09445 0
M  V30 11174 N 1065.33 4.57423 -5.32643 0
M  V30 11175 H 1070.17 0.833758 -2.86099 0
M  V30 11176 H 1067.71 0.400252 -1.4155 0
M  V30 11177 H 1069.67 3.29527 -2.55867 0
M  V30 11178 H 1068.3 2.85539 -1.50557 0
M  V30 11179 H 1067.35 1.48684 -3.50139 0
M  V30 11180 H 1068.66 2.14969 -4.501 0
M  V30 11181 H 1067.82 4.47117 -4.10087 0
M  V30 11182 H 1066.55 3.84312 -3.00259 0
M  V30 11183 H 1065.56 2.51723 -4.8879 0
M  V30 11184 H 1066.78 3.17545 -6.00285 0
M  V30 11185 H 1064.73 4.8078 -4.46303 0
M  V30 11186 H 1064.65 4.40228 -6.14602 0
M  V30 11187 H 1065.92 5.44632 -5.57671 0
M  V30 11188 N 1070.14 1.51827 0.422667 0
M  V30 11189 C 1071.07 1.77152 1.52117 0
M  V30 11190 C 1072.06 0.621895 1.58324 0
M  V30 11191 O 1073.24 0.866118 1.73816 0
M  V30 11192 C 1070.37 1.90991 2.90068 0
M  V30 11193 C 1069.32 3.06516 2.98717 0
M  V30 11194 C 1068.65 3.05559 4.38791 0
M  V30 11195 C 1069.95 4.46223 2.71445 0
M  V30 11196 H 1071.64 2.69135 1.31175 0
M  V30 11197 H 1069.19 1.29507 0.629607 0
M  V30 11198 H 1071.14 2.07291 3.6689 0
M  V30 11199 H 1069.87 0.956688 3.12274 0
M  V30 11200 H 1068.53 2.89945 2.24338 0
M  V30 11201 H 1068.17 2.07985 4.57986 0
M  V30 11202 H 1067.87 3.83144 4.45505 0
M  V30 11203 H 1069.4 3.23971 5.17566 0
M  V30 11204 H 1070.81 4.63069 3.37994 0
M  V30 11205 H 1069.21 5.25623 2.89552 0
M  V30 11206 H 1070.28 4.5525 1.6696 0
M  V30 11207 N 1071.62 -0.679052 1.4222 0
M  V30 11208 C 1072.86 -1.45118 1.43945 0
M  V30 11209 C 1073.23 -1.91928 0.0524851 0
M  V30 11210 O 1074.43 -2.68743 -0.0555318 0
M  V30 11211 C 1072.7 -2.6191 2.43183 0
M  V30 11212 S 1074.26 -3.50819 2.63574 0
M  V30 11213 H 1071.08 -0.495695 0.509713 0
M  V30 11214 H 1073.68 -0.790842 1.7879 0
M  V30 11215 H 1072.38 -2.25752 3.42731 0
M  V30 11216 H 1071.91 -3.3282 2.09748 0
M  V30 11217 H 1073.93 -4.57735 1.91555 0
M  V30 11218 N 1073.1 -1.28322 -0.914942 0
M  V30 11219 C 1074.38 -1.06111 -1.64316 0
M  V30 11220 C 1074.76 0.399934 -2.07277 0
M  V30 11221 O 1074.11 1.38577 -1.81683 0
M  V30 11222 C 1074.32 -2.03461 -2.83557 0
M  V30 11223 C 1075.66 -2.33541 -3.54604 0
M  V30 11224 O 1076.69 -2.01536 -2.93704 0
M  V30 11225 O 1075.55 -2.88158 -4.64357 0
M  V30 11226 H 1072.64 -0.405451 -0.72079 0
M  V30 11227 H 1075.19 -1.39636 -0.964352 0
M  V30 11228 H 1073.96 -3.01938 -2.48896 0
M  V30 11229 H 1073.58 -1.70574 -3.59152 0
M  V30 11230 N 1074.58 1.12322 -1.10551 0
M  V30 11231 C 1075.83 1.83858 -0.848674 0
M  V30 11232 C 1076.15 1.84159 0.62575 0
M  V30 11233 O 1075.41 1.28341 1.4774 0
M  V30 11234 C 1075.71 3.31177 -1.34375 0
M  V30 11235 C 1075.37 3.51046 -2.8298 0
M  V30 11236 C 1074.04 3.56177 -3.23561 0
M  V30 11237 C 1076.39 3.58061 -3.78737 0
M  V30 11238 C 1073.72 3.65868 -4.58647 0
M  V30 11239 C 1076.07 3.69283 -5.13627 0
M  V30 11240 C 1074.73 3.7267 -5.53781 0
M  V30 11241 H 1074 0.672784 -0.310552 0
M  V30 11242 H 1076.65 1.3253 -1.38232 0
M  V30 11243 H 1074.95 3.84937 -0.730144 0
M  V30 11244 H 1076.65 3.84998 -1.12148 0
M  V30 11245 H 1073.24 3.47716 -2.50582 0
M  V30 11246 H 1077.42 3.53366 -3.48491 0
M  V30 11247 H 1072.68 3.66763 -4.89178 0
M  V30 11248 H 1076.85 3.73654 -5.8767 0
M  V30 11249 H 1074.48 3.79932 -6.58449 0
M  V30 11250 N 1076.06 0.894434 1.2976 0
M  V30 11251 C 1077.3 0.516646 1.95385 0
M  V30 11252 C 1077.63 -0.939141 1.70895 0
M  V30 11253 O 1076.9 -1.66153 1.03778 0
M  V30 11254 H 1075.48 0.188072 0.722937 0
M  V30 11255 H 1078.14 1.13958 1.58113 0
M  V30 11256 H 1077.23 0.694819 3.04267 0
M  V30 11257 N 1077.53 -1.43282 0.656365 0
M  V30 11258 C 1078.78 -2.01776 0.171039 0
M  V30 11259 C 1079.11 -1.51795 -1.21609 0
M  V30 11260 O 1078.36 -0.702864 -1.82643 0
M  V30 11261 C 1078.66 -3.57148 0.134225 0
M  V30 11262 C 1078.33 -4.26488 1.46352 0
M  V30 11263 C 1076.99 -4.45146 1.82753 0
M  V30 11264 C 1079.34 -4.65728 2.33981 0
M  V30 11265 C 1076.67 -5.0031 3.06443 0
M  V30 11266 C 1079.02 -5.22263 3.56966 0
M  V30 11267 C 1077.69 -5.39136 3.93559 0
M  V30 11268 H 1076.96 -0.738352 0.0625878 0
M  V30 11269 H 1079.6 -1.71716 0.847697 0
M  V30 11270 H 1077.91 -3.86768 -0.625892 0
M  V30 11271 H 1079.61 -4.00168 -0.258207 0
M  V30 11272 H 1076.2 -4.12313 1.1703 0
M  V30 11273 H 1080.38 -4.51003 2.07148 0
M  V30 11274 H 1075.64 -5.11559 3.34839 0
M  V30 11275 H 1079.81 -5.51614 4.25082 0
M  V30 11276 H 1077.44 -5.81646 4.89481 0
M  V30 11277 N 1079.01 -0.398486 -1.52479 0
M  V30 11278 C 1079.98 0.420206 -2.25315 0
M  V30 11279 C 1080.98 0.982559 -1.27289 0
M  V30 11280 O 1082.17 0.863113 -1.51314 0
M  V30 11281 C 1079.3 1.59045 -3.01525 0
M  V30 11282 H 1080.49 -0.217599 -2.9911 0
M  V30 11283 H 1078.04 -0.150784 -1.55571 0
M  V30 11284 H 1078.78 2.26542 -2.32054 0
M  V30 11285 H 1078.56 1.19382 -3.73484 0
M  V30 11286 H 1080.05 2.16984 -3.56802 0
M  V30 11287 N 1080.49 1.57075 -0.12858 0
M  V30 11288 C 1081.91 1.57964 0.227961 0
M  V30 11289 C 1082.11 1.14186 1.66023 0
M  V30 11290 O 1081.16 0.833655 2.38341 0
M  V30 11291 C 1082.48 3.00697 -0.0140648 0
M  V30 11292 C 1084.02 3.12958 0.0510876 0
M  V30 11293 C 1084.5 4.57709 -0.163368 0
M  V30 11294 N 1085.99 4.6307 -0.109663 0
M  V30 11295 C 1086.73 5.72853 -0.250366 0
M  V30 11296 N 1086.22 6.91351 -0.447772 0
M  V30 11297 N 1088.01 5.61781 -0.189265 0
M  V30 11298 H 1080.17 1.83829 -1.06398 0
M  V30 11299 H 1082.43 0.850014 -0.419739 0
M  V30 11300 H 1082.13 3.37047 -1.00461 0
M  V30 11301 H 1082.01 3.70389 0.713571 0
M  V30 11302 H 1084.4 2.7646 1.03216 0
M  V30 11303 H 1084.48 2.4579 -0.708583 0
M  V30 11304 H 1084.12 4.94907 -1.14146 0
M  V30 11305 H 1084.05 5.2298 0.616405 0
M  V30 11306 H 1086.54 3.7788 0.0390086 0
M  V30 11307 H 1086.85 7.70871 -0.54574 0
M  V30 11308 H 1085.2 6.93314 -0.483866 0
M  V30 11309 H 1088.39 4.68086 -0.0359374 0
M  V30 11310 H 1088.56 6.47294 -0.302359 0
M  V30 11311 N 1081.97 -0.145205 1.5693 0
M  V30 11312 C 1083.22 -0.855955 1.82637 0
M  V30 11313 C 1083.53 -1.82255 0.710109 0
M  V30 11314 O 1084.74 -2.57758 0.852837 0
M  V30 11315 C 1083.19 -1.57278 3.23715 0
M  V30 11316 C 1082.8 -0.648507 4.43281 0
M  V30 11317 C 1084.55 -2.27021 3.58695 0
M  V30 11318 C 1082.45 -1.36706 5.75383 0
M  V30 11319 H 1081.38 -0.323385 0.68113 0
M  V30 11320 H 1084.03 -0.10869 1.83178 0
M  V30 11321 H 1082.42 -2.36574 3.17567 0
M  V30 11322 H 1083.59 0.109355 4.6067 0
M  V30 11323 H 1081.9 -0.0594029 4.16358 0
M  V30 11324 H 1084.5 -2.81423 4.54648 0
M  V30 11325 H 1084.84 -3.03598 2.8484 0
M  V30 11326 H 1085.38 -1.54642 3.66512 0
M  V30 11327 H 1082.12 -0.6431 6.52338 0
M  V30 11328 H 1081.64 -2.09759 5.61926 0
M  V30 11329 H 1083.32 -1.90748 6.18243 0
M  V30 11330 N 1083.45 -1.52049 -0.414609 0
M  V30 11331 C 1084.7 -1.65067 -1.15912 0
M  V30 11332 C 1085.01 -0.383969 -1.91794 0
M  V30 11333 O 1086.22 -0.393872 -2.68628 0
M  V30 11334 C 1084.67 -2.91611 -2.1093 0
M  V30 11335 C 1084.28 -4.25369 -1.4059 0
M  V30 11336 C 1086.02 -3.13992 -2.85674 0
M  V30 11337 C 1083.93 -5.43041 -2.34223 0
M  V30 11338 H 1082.86 -0.614884 -0.436387 0
M  V30 11339 H 1085.51 -1.78533 -0.424072 0
M  V30 11340 H 1083.89 -2.71831 -2.87965 0
M  V30 11341 H 1085.07 -4.55611 -0.689568 0
M  V30 11342 H 1083.38 -4.09047 -0.779088 0
M  V30 11343 H 1085.98 -3.99082 -3.55861 0
M  V30 11344 H 1086.32 -2.27998 -3.48314 0
M  V30 11345 H 1086.86 -3.34217 -2.1574 0
M  V30 11346 H 1083.59 -6.31364 -1.76238 0
M  V30 11347 H 1083.11 -5.17144 -3.03845 0
M  V30 11348 H 1084.79 -5.75901 -2.94868 0
M  V30 11349 N 1084.93 0.6715 -1.42579 0
M  V30 11350 C 1086.17 1.42871 -1.42941 0
M  V30 11351 C 1086.49 1.94941 -0.0480483 0
M  V30 11352 O 1085.76 1.73275 0.913921 0
M  V30 11353 H 1084.34 0.530189 -0.526221 0
M  V30 11354 H 1087.01 0.793219 -1.78028 0
M  V30 11355 H 1086.1 2.2801 -2.13114 0
M  V30 11356 N 1086.4 1.28806 0.908124 0
M  V30 11357 C 1087.31 1.15079 2.04436 0
M  V30 11358 C 1088.33 0.076012 1.73834 0
M  V30 11359 O 1089.51 0.286421 1.99353 0
M  V30 11360 C 1086.57 0.819733 3.3687 0
M  V30 11361 C 1085.63 1.97746 3.81045 0
M  V30 11362 C 1084.86 1.66211 5.07158 0
M  V30 11363 O 1085.09 0.579092 5.67453 0
M  V30 11364 O 1084.02 2.5075 5.47182 0
M  V30 11365 H 1087.85 2.10477 2.18937 0
M  V30 11366 H 1085.43 1.08177 1.03044 0
M  V30 11367 H 1087.31 0.649304 4.16368 0
M  V30 11368 H 1085.99 -0.10454 3.23531 0
M  V30 11369 H 1084.9 2.20308 3.02349 0
M  V30 11370 H 1086.23 2.88264 3.98955 0
M  V30 11371 N 1087.88 -1.11734 1.11145 0
M  V30 11372 C 1088.83 -2.17683 0.766979 0
M  V30 11373 C 1089.8 -1.64051 -0.260108 0
M  V30 11374 O 1090.98 -1.90302 -0.137723 0
M  V30 11375 C 1088.12 -3.44442 0.212982 0
M  V30 11376 C 1087.24 -4.12094 1.29626 0
M  V30 11377 C 1086.37 -5.26526 0.703127 0
M  V30 11378 C 1085.41 -5.86057 1.76647 0
M  V30 11379 N 1084.55 -6.91889 1.19306 0
M  V30 11380 H 1089.39 -2.46495 1.67465 0
M  V30 11381 H 1086.92 -1.21011 0.836353 0
M  V30 11382 H 1088.88 -4.17009 -0.126162 0
M  V30 11383 H 1087.51 -3.16025 -0.657888 0
M  V30 11384 H 1086.56 -3.37631 1.75241 0
M  V30 11385 H 1087.88 -4.52398 2.10089 0
M  V30 11386 H 1087.03 -6.05888 0.313859 0
M  V30 11387 H 1085.77 -4.87519 -0.132856 0
M  V30 11388 H 1084.77 -5.05375 2.16508 0
M  V30 11389 H 1086 -6.27132 2.60543 0
M  V30 11390 H 1083.95 -6.54906 0.378664 0
M  V30 11391 H 1083.86 -7.30832 1.93443 0
M  V30 11392 H 1085.13 -7.75062 0.830578 0
M  V30 11393 N 1089.36 -0.901303 -1.29284 0
M  V30 11394 C 1090.58 -0.542823 -2.0017 0
M  V30 11395 C 1091.01 0.865583 -1.67001 0
M  V30 11396 O 1090.37 1.5764 -0.895502 0
M  V30 11397 C 1090.42 -0.743987 -3.52842 0
M  V30 11398 O 1089.52 0.202771 -4.11901 0
M  V30 11399 H 1088.86 -0.211903 -0.62928 0
M  V30 11400 H 1091.39 -1.21333 -1.64741 0
M  V30 11401 H 1091.4 -0.64926 -4.02801 0
M  V30 11402 H 1090.08 -1.77077 -3.7632 0
M  V30 11403 H 1088.65 0.0603637 -3.72851 0
M  V30 11404 N 1090.84 1.42931 -0.663954 0
M  V30 11405 C 1092.08 2.01683 -0.181738 0
M  V30 11406 C 1092.41 1.52437 1.20802 0
M  V30 11407 O 1091.67 0.71254 1.82267 0
M  V30 11408 C 1091.97 3.57072 -0.153163 0
M  V30 11409 C 1091.63 4.25706 -1.48612 0
M  V30 11410 C 1090.29 4.4417 -1.85111 0
M  V30 11411 C 1092.65 4.6448 -2.36448 0
M  V30 11412 C 1089.97 4.98677 -3.09092 0
M  V30 11413 C 1092.33 5.20362 -3.5973 0
M  V30 11414 C 1090.99 5.37041 -3.96412 0
M  V30 11415 H 1090.26 0.73801 -0.0665026 0
M  V30 11416 H 1092.91 1.71264 -0.856791 0
M  V30 11417 H 1091.21 3.87095 0.605372 0
M  V30 11418 H 1092.91 4.00299 0.236981 0
M  V30 11419 H 1089.5 4.11686 -1.19215 0
M  V30 11420 H 1093.68 4.49898 -2.09537 0
M  V30 11421 H 1088.94 5.09776 -3.37547 0
M  V30 11422 H 1093.11 5.49352 -4.28001 0
M  V30 11423 H 1090.74 5.79042 -4.92559 0
M  V30 11424 N 1092.32 0.406567 1.52266 0
M  V30 11425 C 1093.73 0.0573228 1.59497 0
M  V30 11426 C 1093.93 -1.43005 1.41957 0
M  V30 11427 O 1092.99 -2.19659 1.24523 0
M  V30 11428 C 1094.3 0.549947 2.95628 0
M  V30 11429 C 1095.85 0.5077 3.08855 0
M  V30 11430 C 1096.32 0.976792 4.47463 0
M  V30 11431 N 1097.81 0.933508 4.53696 0
M  V30 11432 C 1098.55 1.26769 5.59211 0
M  V30 11433 N 1098.05 1.6732 6.72292 0
M  V30 11434 N 1099.84 1.18782 5.49406 0
M  V30 11435 H 1091.99 1.37468 1.61914 0
M  V30 11436 H 1094.25 0.564562 0.76156 0
M  V30 11437 H 1093.96 1.58943 3.13736 0
M  V30 11438 H 1093.83 -0.0417767 3.77177 0
M  V30 11439 H 1096.22 -0.522728 2.90433 0
M  V30 11440 H 1096.3 1.13545 2.29219 0
M  V30 11441 H 1095.94 2.00554 4.66627 0
M  V30 11442 H 1095.87 0.325885 5.25591 0
M  V30 11443 H 1098.37 0.635333 3.72521 0
M  V30 11444 H 1098.68 1.91137 7.4879 0
M  V30 11445 H 1097.02 1.71221 6.73579 0
M  V30 11446 H 1100.21 0.869906 4.59946 0
M  V30 11447 H 1100.39 1.45157 6.31533 0
M  V30 11448 N 1093.79 -1.57004 0.136909 0
M  V30 11449 C 1095.21 -1.58082 -0.21958 0
M  V30 11450 C 1095.41 -1.15065 -1.65415 0
M  V30 11451 O 1094.47 -0.846284 -2.37896 0
M  V30 11452 C 1095.78 -3.00685 0.0300112 0
M  V30 11453 C 1097.33 -3.12981 -0.0344899 0
M  V30 11454 C 1097.8 -4.57615 0.187639 0
M  V30 11455 N 1099.29 -4.63005 0.134219 0
M  V30 11456 C 1100.03 -5.72712 0.280743 0
M  V30 11457 N 1099.52 -6.91104 0.48443 0
M  V30 11458 N 1101.32 -5.61673 0.219055 0
M  V30 11459 H 1093.47 -1.83262 1.07372 0
M  V30 11460 H 1095.73 -0.847776 0.424241 0
M  V30 11461 H 1095.44 -3.36509 1.02247 0
M  V30 11462 H 1095.31 -3.70762 -0.693918 0
M  V30 11463 H 1097.7 -2.77004 -1.01749 0
M  V30 11464 H 1097.78 -2.45411 0.721608 0
M  V30 11465 H 1097.42 -4.94295 1.16769 0
M  V30 11466 H 1097.35 -5.23299 -0.588661 0
M  V30 11467 H 1099.84 -3.77895 -0.0189681 0
M  V30 11468 H 1100.16 -7.7057 0.586613 0
M  V30 11469 H 1098.5 -6.93047 0.520627 0
M  V30 11470 H 1101.69 -4.68061 0.0607606 0
M  V30 11471 H 1101.87 -6.47125 0.336683 0
M  V30 11472 N 1095.27 0.136881 -1.57004 0
M  V30 11473 C 1096.5 0.866405 -1.88436 0
M  V30 11474 C 1096.92 1.73483 -0.727006 0
M  V30 11475 O 1096.28 1.78398 0.323094 0
M  V30 11476 C 1096.33 1.69059 -3.18514 0
M  V30 11477 O 1095.43 2.79584 -3.03161 0
M  V30 11478 H 1094.77 0.240709 -0.618834 0
M  V30 11479 H 1097.3 0.124653 -2.0422 0
M  V30 11480 H 1097.31 2.08353 -3.50789 0
M  V30 11481 H 1095.99 1.05296 -4.0235 0
M  V30 11482 H 1094.57 2.43623 -2.82315 0
M  V30 11483 N 1096.75 1.52266 0.40654 0
M  V30 11484 C 1098 1.66699 1.15496 0
M  V30 11485 C 1098.33 0.397019 1.90098 0
M  V30 11486 O 1097.6 -0.604646 1.84863 0
M  V30 11487 C 1097.89 2.8907 2.14734 0
M  V30 11488 C 1097.74 4.26123 1.44012 0
M  V30 11489 C 1099.06 3.06966 3.15373 0
M  V30 11490 H 1096.18 0.606642 0.418515 0
M  V30 11491 H 1098.82 1.84826 0.440381 0
M  V30 11492 H 1096.97 2.73745 2.75673 0
M  V30 11493 H 1098.64 4.5318 0.861722 0
M  V30 11494 H 1096.89 4.27406 0.742064 0
M  V30 11495 H 1097.56 5.07799 2.16436 0
M  V30 11496 H 1100.03 3.21205 2.64512 0
M  V30 11497 H 1098.91 3.94097 3.82072 0
M  V30 11498 H 1099.17 2.20395 3.83247 0
M  V30 11499 N 1098.23 -0.663929 1.42933 0
M  V30 11500 C 1099.47 -1.42603 1.44195 0
M  V30 11501 C 1099.81 -1.94101 0.0620284 0
M  V30 11502 O 1099.08 -1.71609 -0.91546 0
M  V30 11503 C 1099.37 -2.61522 2.47544 0
M  V30 11504 C 1099.22 -2.15587 3.94769 0
M  V30 11505 C 1100.54 -3.6374 2.47753 0
M  V30 11506 H 1097.66 -0.517189 0.525056 0
M  V30 11507 H 1100.3 -0.75361 1.74415 0
M  V30 11508 H 1098.45 -3.1889 2.21904 0
M  V30 11509 H 1100.12 -1.63303 4.31428 0
M  V30 11510 H 1098.36 -1.47057 4.08114 0
M  V30 11511 H 1099.03 -3.01053 4.62678 0
M  V30 11512 H 1101.51 -3.16111 2.70579 0
M  V30 11513 H 1100.39 -4.44512 3.22025 0
M  V30 11514 H 1100.65 -4.15607 1.50742 0
M  V30 11515 N 1099.71 -1.29285 -0.901281 0
M  V30 11516 C 1100.95 -1.16934 -1.64836 0
M  V30 11517 C 1101.28 0.279826 -1.92982 0
M  V30 11518 O 1100.55 1.19179 -1.55478 0
M  V30 11519 H 1099.13 -0.429768 -0.61099 0
M  V30 11520 H 1101.79 -1.62189 -1.08077 0
M  V30 11521 H 1100.88 -1.71821 -2.60545 0
M  V30 11522 N 1101.18 1.11143 -1.11736 0
M  V30 11523 C 1102.41 1.86745 -0.890727 0
M  V30 11524 C 1102.83 1.80315 0.55964 0
M  V30 11525 O 1102.18 1.18663 1.38656 0
M  V30 11526 C 1102.24 3.35436 -1.34779 0
M  V30 11527 O 1101.96 3.41738 -2.74129 0
M  V30 11528 C 1103.46 4.27935 -1.15702 0
M  V30 11529 H 1100.68 0.59044 -0.318781 0
M  V30 11530 H 1103.22 1.40549 -1.48547 0
M  V30 11531 H 1101.38 3.79125 -0.796425 0
M  V30 11532 H 1101.79 4.34347 -2.94012 0
M  V30 11533 H 1103.26 5.30494 -1.52579 0
M  V30 11534 H 1103.74 4.39093 -0.0968735 0
M  V30 11535 H 1104.35 3.90042 -1.69551 0
M  V30 11536 N 1102.66 0.908147 1.28804 0
M  V30 11537 C 1104.07 0.585727 1.77274 0
M  V30 11538 C 1104.42 -0.898842 1.744 0
M  V30 11539 O 1103.55 -1.70301 1.33516 0
M  V30 11540 C 1104.14 1.05647 3.21907 0
M  V30 11541 C 1102.7 0.785066 3.68122 0
M  V30 11542 C 1101.85 1.22638 2.48707 0
M  V30 11543 H 1104.8 1.09 1.15346 0
M  V30 11544 H 1104.82 0.395442 3.7844 0
M  V30 11545 H 1104.33 2.13698 3.23967 0
M  V30 11546 H 1102.44 -0.282477 3.71528 0
M  V30 11547 H 1102.55 1.38888 4.58527 0
M  V30 11548 H 1100.91 0.645217 2.46392 0
M  V30 11549 H 1101.7 2.31512 2.5349 0
M  V30 11550 N 1104.14 -1.42577 0.671525 0
M  V30 11551 C 1105.1 -2.292 0.000392482 0
M  V30 11552 C 1106.1 -1.43158 -0.732294 0
M  V30 11553 O 1107.29 -1.64583 -0.570789 0
M  V30 11554 C 1104.43 -3.25591 -1.01013 0
M  V30 11555 H 1105.62 -2.90037 0.762783 0
M  V30 11556 H 1103.17 -1.50162 0.433703 0
M  V30 11557 H 1103.91 -2.69685 -1.80112 0
M  V30 11558 H 1103.69 -3.89049 -0.488183 0
M  V30 11559 H 1105.18 -3.90561 -1.47824 0
M  V30 11560 N 1105.62 -0.414636 -1.52048 0
M  V30 11561 C 1106.85 0.158456 -2.05991 0
M  V30 11562 C 1107.26 1.38947 -1.28415 0
M  V30 11563 O 1106.6 1.80698 -0.330728 0
M  V30 11564 C 1106.66 0.568392 -3.54978 0
M  V30 11565 C 1106.33 -0.552654 -4.53646 0
M  V30 11566 C 1107.32 -1.41791 -5.00191 0
M  V30 11567 C 1105.01 -0.726917 -4.97012 0
M  V30 11568 C 1107 -2.44234 -5.88752 0
M  V30 11569 C 1104.69 -1.75464 -5.85368 0
M  V30 11570 C 1105.69 -2.61075 -6.31133 0
M  V30 11571 O 1105.37 -3.62087 -7.17738 0
M  V30 11572 H 1105.11 0.0214746 -0.675659 0
M  V30 11573 H 1107.66 -0.585825 -1.96869 0
M  V30 11574 H 1105.89 1.36504 -3.61806 0
M  V30 11575 H 1107.58 1.07003 -3.91542 0
M  V30 11576 H 1108.35 -1.29471 -4.67399 0
M  V30 11577 H 1104.22 -0.0701964 -4.60947 0
M  V30 11578 H 1107.77 -3.1109 -6.24395 0
M  V30 11579 H 1103.67 -1.87813 -6.17573 0
M  V30 11580 H 1104.43 -3.58396 -7.35863 0
M  V30 11581 N 1107.1 1.56929 -0.145233 0
M  V30 11582 C 1108.03 2.19685 0.791263 0
M  V30 11583 C 1109.01 1.14455 1.25833 0
M  V30 11584 O 1110.19 1.42791 1.31622 0
M  V30 11585 C 1107.32 2.81705 2.03124 0
M  V30 11586 C 1106.28 3.92746 1.70101 0
M  V30 11587 C 1105.6 4.41694 3.01347 0
M  V30 11588 C 1106.9 5.13606 0.949025 0
M  V30 11589 H 1108.6 2.98196 0.26825 0
M  V30 11590 H 1106.14 1.43434 0.127584 0
M  V30 11591 H 1108.1 3.24273 2.69119 0
M  V30 11592 H 1106.82 2.00523 2.57795 0
M  V30 11593 H 1105.48 3.50794 1.06486 0
M  V30 11594 H 1105.13 3.57336 3.54006 0
M  V30 11595 H 1104.83 5.1659 2.80016 0
M  V30 11596 H 1106.35 4.86931 3.68416 0
M  V30 11597 H 1107.76 5.53029 1.51102 0
M  V30 11598 H 1106.16 5.94252 0.835711 0
M  V30 11599 H 1107.23 4.84863 -0.0595631 0
M  V30 11600 N 1108.58 -0.128553 1.57075 0
M  V30 11601 C 1109.54 -1.14215 1.98715 0
M  V30 11602 C 1110.54 -1.34843 0.876019 0
M  V30 11603 O 1111.73 -1.31522 1.14227 0
M  V30 11604 C 1108.86 -2.49865 2.31905 0
M  V30 11605 H 1110.05 -0.784481 2.89458 0
M  V30 11606 H 1107.61 -0.372531 1.51796 0
M  V30 11607 H 1108.34 -2.9057 1.44012 0
M  V30 11608 H 1108.13 -2.3625 3.12935 0
M  V30 11609 H 1109.62 -3.22832 2.64895 0
M  V30 11610 N 1110.05 -1.5248 -0.398459 0
M  V30 11611 C 1111.46 -1.59107 -0.976817 0
M  V30 11612 C 1111.82 -0.438104 -1.91246 0
M  V30 11613 O 1110.94 0.440111 -2.11877 0
M  V30 11614 C 1111.54 -2.88373 -1.77838 0
M  V30 11615 C 1110.09 -2.97445 -2.30659 0
M  V30 11616 C 1109.24 -2.5414 -1.10942 0
M  V30 11617 H 1112.19 -1.57695 -0.178324 0
M  V30 11618 H 1112.21 -2.74327 -2.63676 0
M  V30 11619 H 1111.73 -3.72269 -1.09714 0
M  V30 11620 H 1109.83 -2.18066 -3.02123 0
M  V30 11621 H 1109.94 -4.019 -2.60794 0
M  V30 11622 H 1108.3 -2.08237 -1.46661 0
M  V30 11623 H 1109.09 -3.40421 -0.443684 0
M  V30 11624 N 1111.53 0.65634 -1.43283 0
M  V30 11625 C 1112.44 1.79847 -1.50639 0
M  V30 11626 C 1113.46 1.69487 -0.393714 0
M  V30 11627 O 1114.63 1.90712 -0.647379 0
M  V30 11628 C 1111.7 3.16107 -1.42398 0
M  V30 11629 C 1110.76 3.38287 -2.64312 0
M  V30 11630 C 1109.99 4.68046 -2.56454 0
M  V30 11631 O 1110.22 5.4719 -1.61056 0
M  V30 11632 O 1109.15 4.91877 -3.46902 0
M  V30 11633 H 1112.98 1.76596 -2.47078 0
M  V30 11634 H 1110.56 0.814428 -1.25249 0
M  V30 11635 H 1112.44 3.97382 -1.40233 0
M  V30 11636 H 1111.12 3.19956 -0.490929 0
M  V30 11637 H 1110.02 2.56788 -2.72049 0
M  V30 11638 H 1111.36 3.39282 -3.56579 0
M  V30 11639 N 1113.01 1.29761 0.894412 0
M  V30 11640 C 1114.26 1.18214 1.64782 0
M  V30 11641 C 1114.59 -0.264635 1.92388 0
M  V30 11642 O 1113.86 -1.19051 1.53809 0
M  V30 11643 C 1114.15 2.00138 2.99361 0
M  V30 11644 C 1114 3.52984 2.78787 0
M  V30 11645 C 1115.32 1.83187 4.00163 0
M  V30 11646 H 1112.44 0.430802 0.597979 0
M  V30 11647 H 1115.08 1.59292 1.03566 0
M  V30 11648 H 1113.23 1.65233 3.51611 0
M  V30 11649 H 1114.9 3.97898 2.33398 0
M  V30 11650 H 1113.14 3.77642 2.13469 0
M  V30 11651 H 1113.82 4.05585 3.7444 0
M  V30 11652 H 1116.29 2.13684 3.57041 0
M  V30 11653 H 1115.17 2.42849 4.92255 0
M  V30 11654 H 1115.43 0.788469 4.35012 0
M  V30 11655 N 1114.49 -1.10549 1.12324 0
M  V30 11656 C 1115.42 -2.18911 0.812416 0
M  V30 11657 C 1116.4 -1.68628 -0.22327 0
M  V30 11658 O 1117.58 -1.94015 -0.0847184 0
M  V30 11659 C 1114.71 -3.46288 0.264947 0
M  V30 11660 C 1113.67 -4.09838 1.23356 0
M  V30 11661 C 1112.99 -5.31901 0.546374 0
M  V30 11662 C 1114.29 -4.53686 2.58778 0
M  V30 11663 H 1115.99 -2.45169 1.71851 0
M  V30 11664 H 1113.53 -1.17834 0.827715 0
M  V30 11665 H 1115.49 -4.21385 0.0352364 0
M  V30 11666 H 1114.21 -3.19517 -0.676479 0
M  V30 11667 H 1112.87 -3.36746 1.44906 0
M  V30 11668 H 1112.52 -5.01406 -0.400157 0
M  V30 11669 H 1112.22 -5.75372 1.19249 0
M  V30 11670 H 1113.74 -6.09731 0.325673 0
M  V30 11671 H 1115.16 -5.20063 2.41263 0
M  V30 11672 H 1113.55 -5.08003 3.19457 0
M  V30 11673 H 1114.62 -3.66665 3.17309 0
M  V30 11674 N 1115.97 -0.914965 -1.28321 0
M  V30 11675 C 1117.38 -0.613297 -1.47346 0
M  V30 11676 C 1117.58 0.84106 -1.83108 0
M  V30 11677 O 1116.64 1.62004 -1.93678 0
M  V30 11678 C 1117.95 -1.55224 -2.57538 0
M  V30 11679 C 1119.5 -1.55909 -2.71407 0
M  V30 11680 C 1119.97 -2.48468 -3.84744 0
M  V30 11681 N 1121.46 -2.46602 -3.92099 0
M  V30 11682 C 1122.2 -3.14917 -4.79182 0
M  V30 11683 N 1121.7 -3.92566 -5.70845 0
M  V30 11684 N 1123.49 -3.03998 -4.72802 0
M  V30 11685 H 1115.64 -1.85539 -1.03388 0
M  V30 11686 H 1117.9 -0.795875 -0.515061 0
M  V30 11687 H 1117.61 -2.58917 -2.38023 0
M  V30 11688 H 1117.48 -1.28426 -3.54664 0
M  V30 11689 H 1119.87 -0.52953 -2.9031 0
M  V30 11690 H 1119.95 -1.86751 -1.74808 0
M  V30 11691 H 1119.59 -3.51526 -3.66595 0
M  V30 11692 H 1119.52 -2.14928 -4.80743 0
M  V30 11693 H 1122.02 -1.90199 -3.26547 0
M  V30 11694 H 1122.33 -4.41709 -6.34123 0
M  V30 11695 H 1120.67 -3.96671 -5.70681 0
M  V30 11696 H 1123.86 -2.42839 -4.00184 0
M  V30 11697 H 1124.04 -3.57511 -5.40454 0
M  V30 11698 N 1117.44 1.42219 -0.679077 0
M  V30 11699 C 1118.39 2.32599 0.00820028 0
M  V30 11700 C 1119.39 1.50059 0.786046 0
M  V30 11701 O 1120.59 1.66103 0.693528 0
M  V30 11702 H 1116.97 0.751694 0.0214483 0
M  V30 11703 H 1118.94 2.88257 -0.77138 0
M  V30 11704 C 1117.69 3.3468 0.942581 0
M  V30 11705 H 1117.01 3.98234 0.353463 0
M  V30 11706 H 1118.45 4.00496 1.39208 0
M  V30 11707 C 1116.91 2.67275 2.05099 0
M  V30 11708 O 1117.44 2.50793 3.13793 0
M  V30 11709 N 1115.64 2.26232 1.82394 0
M  V30 11710 H 1115.19 2.39838 0.939983 0
M  V30 11711 H 1115.15 1.81465 2.56744 0
M  V30 11712 N 1118.92 0.422693 1.51826 0
M  V30 11713 C 1119.87 -0.396088 2.27376 0
M  V30 11714 C 1120.84 -1.02946 1.30351 0
M  V30 11715 O 1122.02 -1.05116 1.59233 0
M  V30 11716 C 1119.16 -1.49942 3.10824 0
M  V30 11717 C 1118.28 -0.885623 4.22825 0
M  V30 11718 C 1117.41 -1.96278 4.93608 0
M  V30 11719 C 1116.45 -1.32664 5.97551 0
M  V30 11720 N 1115.59 -2.34452 6.61798 0
M  V30 11721 H 1120.43 0.254571 2.96911 0
M  V30 11722 H 1117.96 0.137383 1.46457 0
M  V30 11723 H 1119.92 -2.15023 3.57521 0
M  V30 11724 H 1118.55 -2.11991 2.43433 0
M  V30 11725 H 1117.6 -0.123491 3.80199 0
M  V30 11726 H 1118.92 -0.381057 4.97342 0
M  V30 11727 H 1118.07 -2.69055 5.43778 0
M  V30 11728 H 1116.81 -2.50103 4.18688 0
M  V30 11729 H 1115.81 -0.584262 5.46687 0
M  V30 11730 H 1117.04 -0.7959 6.7442 0
M  V30 11731 H 1114.99 -2.87385 5.897 0
M  V30 11732 H 1114.9 -1.88845 7.32034 0
M  V30 11733 H 1116.17 -3.06757 7.16603 0
M  V30 11734 N 1120.4 -1.5685 0.153553 0
M  V30 11735 C 1121.65 -1.95946 -0.494936 0
M  V30 11736 C 1121.97 -1.03975 -1.64967 0
M  V30 11737 O 1121.24 -0.102572 -1.95631 0
M  V30 11738 H 1119.82 -0.723516 -0.185833 0
M  V30 11739 H 1122.48 -1.93531 0.230585 0
M  V30 11740 H 1121.58 -2.99823 -0.866743 0
M  V30 11741 N 1121.88 0.120221 -1.57141 0
M  V30 11742 C 1123.11 0.841219 -1.88698 0
M  V30 11743 C 1123.52 1.7401 -0.74277 0
M  V30 11744 O 1122.86 1.81308 0.295497 0
M  V30 11745 C 1122.92 1.72781 -3.15257 0
M  V30 11746 C 1122.58 1.00336 -4.45849 0
M  V30 11747 C 1123.58 0.344734 -5.18756 0
M  V30 11748 C 1121.27 0.984899 -4.9255 0
M  V30 11749 C 1123.26 -0.322664 -6.36583 0
M  V30 11750 C 1120.95 0.313702 -6.10294 0
M  V30 11751 C 1121.95 -0.338926 -6.82159 0
M  V30 11752 O 1121.63 -0.999416 -7.97663 0
M  V30 11753 H 1121.37 0.247195 -0.629182 0
M  V30 11754 H 1123.92 0.109542 -2.05108 0
M  V30 11755 H 1122.15 2.5011 -2.94927 0
M  V30 11756 H 1123.84 2.32313 -3.32845 0
M  V30 11757 H 1124.6 0.350623 -4.83731 0
M  V30 11758 H 1120.48 1.4823 -4.36519 0
M  V30 11759 H 1124.03 -0.832643 -6.92613 0
M  V30 11760 H 1119.92 0.305572 -6.44776 0
M  V30 11761 H 1120.69 -0.90377 -8.13495 0
M  V30 11762 N 1123.36 1.52689 0.390367 0
M  V30 11763 C 1124.3 1.78007 1.4972 0
M  V30 11764 C 1125.3 0.647948 1.56518 0
M  V30 11765 O 1126.5 0.830398 1.59701 0
M  V30 11766 H 1122.88 0.56322 0.498284 0
M  V30 11767 H 1124.85 2.70698 1.25559 0
M  V30 11768 C 1123.6 1.96469 2.86872 0
M  V30 11769 H 1122.92 2.83012 2.82391 0
M  V30 11770 H 1124.36 2.18174 3.6356 0
M  V30 11771 C 1122.82 0.736847 3.28743 0
M  V30 11772 O 1123.35 -0.0863743 4.01607 0
M  V30 11773 N 1121.56 0.56735 2.85008 0
M  V30 11774 H 1121.1 1.23838 2.2588 0
M  V30 11775 H 1121.06 -0.252831 3.13382 0
M  V30 11776 N 1124.83 -0.648732 1.43629 0
M  V30 11777 C 1126.25 -0.964917 1.27128 0
M  V30 11778 C 1126.45 -2.00561 0.194251 0
M  V30 11779 O 1125.51 -2.48884 -0.42581 0
M  V30 11780 C 1126.82 -1.44491 2.6371 0
M  V30 11781 C 1128.37 -1.56133 2.71278 0
M  V30 11782 C 1128.84 -2.07521 4.08288 0
M  V30 11783 N 1130.33 -2.14817 4.10375 0
M  V30 11784 C 1131.07 -2.55712 5.13224 0
M  V30 11785 N 1130.56 -2.9587 6.26444 0
M  V30 11786 N 1132.36 -2.55691 5.00578 0
M  V30 11787 H 1124.51 0.0398357 2.12363 0
M  V30 11788 H 1126.77 -0.0447705 0.946942 0
M  V30 11789 H 1126.48 -0.754616 3.43509 0
M  V30 11790 H 1126.35 -2.41914 2.89409 0
M  V30 11791 H 1128.74 -2.24263 1.91808 0
M  V30 11792 H 1128.82 -0.571314 2.49338 0
M  V30 11793 H 1128.46 -1.39992 4.88226 0
M  V30 11794 H 1128.39 -3.07362 4.27594 0
M  V30 11795 H 1130.88 -1.86538 3.28652 0
M  V30 11796 H 1131.2 -3.25837 7.0075 0
M  V30 11797 H 1129.54 -2.93664 6.2991 0
M  V30 11798 H 1132.73 -2.23697 4.1119 0
M  V30 11799 H 1132.91 -2.87239 5.80859 0
M  V30 11800 N 1126.31 -1.30234 -0.887518 0
M  V30 11801 C 1127.54 -1.21955 -1.67755 0
M  V30 11802 C 1127.96 0.214701 -1.86871 0
M  V30 11803 O 1127.32 1.15459 -1.39782 0
M  V30 11804 C 1127.37 -1.95079 -3.03276 0
M  V30 11805 O 1126.47 -1.27615 -3.92158 0
M  V30 11806 H 1125.81 -0.421948 -0.512695 0
M  V30 11807 H 1128.34 -1.72011 -1.10785 0
M  V30 11808 H 1128.35 -2.04004 -3.53336 0
M  V30 11809 H 1127.03 -2.99392 -2.88682 0
M  V30 11810 H 1125.61 -1.27029 -3.50597 0
M  V30 11811 N 1127.79 1.09952 -1.12909 0
M  V30 11812 C 1128.72 2.18477 -0.824014 0
M  V30 11813 C 1129.7 1.68744 0.214324 0
M  V30 11814 O 1130.89 1.94057 0.0744281 0
M  V30 11815 C 1128.02 3.46143 -0.283308 0
M  V30 11816 C 1126.97 4.09178 -1.25528 0
M  V30 11817 C 1126.3 5.31604 -0.574574 0
M  V30 11818 C 1127.6 4.52308 -2.6118 0
M  V30 11819 H 1129.29 2.44254 -1.73148 0
M  V30 11820 H 1126.84 1.17394 -0.833952 0
M  V30 11821 H 1128.79 4.21361 -0.057583 0
M  V30 11822 H 1127.51 3.19872 0.659525 0
M  V30 11823 H 1126.17 3.35973 -1.4669 0
M  V30 11824 H 1125.82 5.01611 0.37356 0
M  V30 11825 H 1125.52 5.74732 -1.22299 0
M  V30 11826 H 1127.04 6.0955 -0.358004 0
M  V30 11827 H 1128.46 5.18776 -2.44017 0
M  V30 11828 H 1126.86 5.06302 -3.22147 0
M  V30 11829 H 1127.93 3.64977 -3.19249 0
M  V30 11830 N 1129.27 0.921757 1.27833 0
M  V30 11831 C 1130.55 0.477706 1.89677 0
M  V30 11832 C 1130.93 -1.04392 1.83481 0
M  V30 11833 O 1130.27 -1.89549 1.27606 0
M  V30 11834 C 1130.48 1.01709 3.33851 0
M  V30 11835 C 1131.83 1.074 4.10792 0
M  V30 11836 O 1132.86 0.966295 3.42843 0
M  V30 11837 O 1131.71 1.23909 5.32268 0
M  V30 11838 H 1128.81 0.15271 0.812778 0
M  V30 11839 H 1131.35 1.01306 1.36144 0
M  V30 11840 H 1130.13 2.061 3.32623 0
M  V30 11841 H 1129.75 0.463031 3.94895 0
M  V30 11842 N 1130.75 -1.41857 0.686609 0
M  V30 11843 C 1131.68 -2.28174 -0.0347358 0
M  V30 11844 C 1132.66 -1.41732 -0.796928 0
M  V30 11845 O 1133.84 -1.71165 -0.789607 0
M  V30 11846 C 1130.97 -3.21801 -1.0565 0
M  V30 11847 C 1130.01 -4.24727 -0.388523 0
M  V30 11848 S 1130.85 -5.28508 0.862546 0
M  V30 11849 C 1132 -6.25701 -0.157849 0
M  V30 11850 H 1132.24 -2.89005 0.697381 0
M  V30 11851 H 1129.77 -1.46861 0.476562 0
M  V30 11852 H 1131.73 -3.76278 -1.64089 0
M  V30 11853 H 1130.39 -2.60082 -1.76114 0
M  V30 11854 H 1129.58 -4.90471 -1.15991 0
M  V30 11855 H 1129.18 -3.73799 0.122567 0
M  V30 11856 H 1131.48 -6.6987 -1.01393 0
M  V30 11857 H 1132.42 -7.06569 0.465437 0
M  V30 11858 H 1132.83 -5.62204 -0.508614 0
M  V30 11859 N 1132.22 -0.430739 -1.51599 0
M  V30 11860 C 1133.47 0.130424 -2.02981 0
M  V30 11861 C 1133.83 1.40956 -1.30954 0
M  V30 11862 O 1133.12 1.87081 -0.413696 0
M  V30 11863 C 1133.31 0.410694 -3.55032 0
M  V30 11864 C 1133.14 -0.839732 -4.4179 0
M  V30 11865 C 1131.91 -1.37132 -4.86336 0
M  V30 11866 C 1134.11 -1.72401 -4.84543 0
M  V30 11867 N 1132.09 -2.57497 -5.57287 0
M  V30 11868 C 1133.46 -2.77376 -5.54493 0
M  V30 11869 C 1135.52 -1.73921 -4.66536 0
M  V30 11870 C 1134.22 -3.83808 -6.08345 0
M  V30 11871 C 1136.25 -2.79285 -5.213 0
M  V30 11872 C 1135.61 -3.82979 -5.91191 0
M  V30 11873 H 1131.71 0.00873155 -0.781951 0
M  V30 11874 H 1134.29 -0.589932 -1.85548 0
M  V30 11875 H 1132.46 1.10009 -3.72495 0
M  V30 11876 H 1134.19 0.962635 -3.93085 0
M  V30 11877 H 1130.95 -0.926198 -4.64455 0
M  V30 11878 H 1131.37 -3.18515 -5.97392 0
M  V30 11879 H 1136.02 -0.950851 -4.11969 0
M  V30 11880 H 1133.73 -4.63487 -6.61971 0
M  V30 11881 H 1137.32 -2.81395 -5.09223 0
M  V30 11882 H 1136.2 -4.63169 -6.32807 0
M  V30 11883 N 1133.7 1.56767 -0.161869 0
M  V30 11884 C 1134.93 2.01401 0.49523 0
M  V30 11885 C 1135.35 1.04133 1.56646 0
M  V30 11886 O 1134.71 0.0193747 1.8129 0
M  V30 11887 C 1134.76 3.44695 1.05913 0
M  V30 11888 O 1133.86 3.50475 2.1735 0
M  V30 11889 H 1133.2 0.65314 0.1196 0
M  V30 11890 H 1135.73 2.02903 -0.26298 0
M  V30 11891 H 1135.74 3.83805 1.3841 0
M  V30 11892 H 1134.42 4.14991 0.274749 0
M  V30 11893 H 1133 3.23218 1.85969 0
M  V30 11894 N 1135.18 -0.111886 1.57202 0
M  V30 11895 C 1136.43 -0.819623 1.85499 0
M  V30 11896 C 1136.76 -1.7919 0.748629 0
M  V30 11897 O 1136.03 -1.92952 -0.244918 0
M  V30 11898 C 1136.32 -1.56324 3.24399 0
M  V30 11899 C 1136.17 -0.610081 4.45643 0
M  V30 11900 C 1137.49 -2.51777 3.60966 0
M  V30 11901 H 1134.61 -0.296512 0.674722 0
M  V30 11902 H 1137.25 -0.0836741 1.89816 0
M  V30 11903 H 1135.4 -2.1906 3.2085 0
M  V30 11904 H 1137.07 0.00898038 4.61299 0
M  V30 11905 H 1135.32 0.0778488 4.3373 0
M  V30 11906 H 1135.99 -1.16718 5.39519 0
M  V30 11907 H 1138.46 -1.99143 3.65351 0
M  V30 11908 H 1137.34 -3.00835 4.59118 0
M  V30 11909 H 1137.6 -3.34769 2.8876 0
M  V30 11910 N 1136.66 -1.52894 -0.382264 0
M  V30 11911 C 1137.91 -1.67933 -1.1244 0
M  V30 11912 C 1138.23 -0.425166 -1.90309 0
M  V30 11913 O 1137.5 0.560557 -1.87709 0
M  V30 11914 H 1136.08 -0.619047 -0.418079 0
M  V30 11915 H 1138.74 -1.90031 -0.432928 0
M  V30 11916 H 1137.84 -2.53285 -1.82355 0
M  V30 11917 N 1138.14 0.641106 -1.43971 0
M  V30 11918 C 1139.38 1.40291 -1.46445 0
M  V30 11919 C 1139.72 1.93978 -0.0929004 0
M  V30 11920 O 1138.99 1.73043 0.888043 0
M  V30 11921 C 1139.27 2.57551 -2.51673 0
M  V30 11922 C 1139.13 2.09279 -3.98149 0
M  V30 11923 C 1140.45 3.59752 -2.53508 0
M  V30 11924 H 1137.57 0.508771 -0.533218 0
M  V30 11925 H 1140.21 0.725767 -1.75592 0
M  V30 11926 H 1138.36 3.15319 -2.2695 0
M  V30 11927 H 1140.03 1.56418 -4.33971 0
M  V30 11928 H 1138.27 1.40545 -4.10402 0
M  V30 11929 H 1138.94 2.93655 -4.67409 0
M  V30 11930 H 1141.42 3.11766 -2.75574 0
M  V30 11931 H 1140.3 4.39332 -3.29057 0
M  V30 11932 H 1140.56 4.13156 -1.57335 0
M  V30 11933 N 1139.62 1.30703 0.880598 0
M  V30 11934 C 1140.86 1.19142 1.62752 0
M  V30 11935 C 1141.18 -0.251795 1.93973 0
M  V30 11936 O 1142.38 -0.488971 2.67061 0
M  V30 11937 C 1140.84 2.08503 2.93351 0
M  V30 11938 C 1140.45 3.57758 2.69653 0
M  V30 11939 C 1142.19 2.05715 3.71324 0
M  V30 11940 C 1140.1 4.39161 3.96096 0
M  V30 11941 H 1139.03 0.442332 0.610622 0
M  V30 11942 H 1141.68 1.55483 0.974547 0
M  V30 11943 H 1140.06 1.65049 3.59965 0
M  V30 11944 H 1141.24 4.09388 2.11513 0
M  V30 11945 H 1139.55 3.62414 2.0505 0
M  V30 11946 H 1142.15 2.63783 4.65105 0
M  V30 11947 H 1142.49 1.04168 4.03057 0
M  V30 11948 H 1143.02 2.47313 3.11579 0
M  V30 11949 H 1139.76 5.4142 3.69519 0
M  V30 11950 H 1139.28 3.92293 4.53725 0
M  V30 11951 H 1140.96 4.50823 4.64077 0
M  V30 11952 N 1141.09 -1.09351 1.1349 0
M  V30 11953 C 1142.34 -1.80915 0.89177 0
M  V30 11954 C 1142.66 -1.86688 -0.5837 0
M  V30 11955 O 1143.86 -2.54568 -0.943788 0
M  V30 11956 C 1142.32 -3.25009 1.54587 0
M  V30 11957 C 1141.93 -3.27501 3.05691 0
M  V30 11958 C 1143.67 -4.01323 1.38346 0
M  V30 11959 C 1141.58 -4.66123 3.63983 0
M  V30 11960 H 1140.51 -0.677961 0.329978 0
M  V30 11961 H 1143.16 -1.22893 1.3627 0
M  V30 11962 H 1141.54 -3.83098 1.0026 0
M  V30 11963 H 1142.71 -2.79174 3.66604 0
M  V30 11964 H 1141.03 -2.64677 3.21457 0
M  V30 11965 H 1143.63 -5.03739 1.79307 0
M  V30 11966 H 1143.97 -4.15003 0.328404 0
M  V30 11967 H 1144.5 -3.49679 1.89656 0
M  V30 11968 H 1141.24 -4.57646 4.69298 0
M  V30 11969 H 1140.76 -5.14772 3.07848 0
M  V30 11970 H 1142.44 -5.35097 3.63703 0
M  V30 11971 N 1142.57 -0.928524 -1.27343 0
M  V30 11972 C 1143.8 -0.584884 -1.98148 0
M  V30 11973 C 1144.21 0.841603 -1.69451 0
M  V30 11974 O 1143.55 1.57104 -0.952053 0
M  V30 11975 C 1143.61 -0.731911 -3.51971 0
M  V30 11976 C 1143.28 -2.13067 -4.04291 0
M  V30 11977 C 1144.28 -3.10492 -4.17002 0
M  V30 11978 C 1141.96 -2.44784 -4.38619 0
M  V30 11979 C 1143.95 -4.37742 -4.63315 0
M  V30 11980 C 1141.64 -3.72269 -4.84622 0
M  V30 11981 C 1142.64 -4.68562 -4.9693 0
M  V30 11982 O 1142.33 -5.93779 -5.41924 0
M  V30 11983 H 1142.06 -0.220347 -0.63908 0
M  V30 11984 H 1144.61 -1.24799 -1.63139 0
M  V30 11985 H 1142.84 -0.0116966 -3.86698 0
M  V30 11986 H 1144.53 -0.393206 -4.03991 0
M  V30 11987 H 1145.3 -2.8731 -3.9074 0
M  V30 11988 H 1141.18 -1.70577 -4.28281 0
M  V30 11989 H 1144.72 -5.12905 -4.72836 0
M  V30 11990 H 1140.62 -3.95269 -5.10326 0
M  V30 11991 H 1141.39 -5.96779 -5.60176 0
M  V30 11992 N 1144.05 1.41491 -0.694123 0
M  V30 11993 C 1145.3 2.0155 -0.224809 0
M  V30 11994 C 1145.63 1.54844 1.17205 0
M  V30 11995 O 1144.9 0.75899 1.7908 0
M  V30 11996 C 1145.19 3.59003 -0.280884 0
M  V30 11997 C 1145.04 4.15839 -1.71458 0
M  V30 11998 C 1146.36 4.38624 0.360122 0
M  V30 11999 H 1143.48 0.732293 -0.0831632 0
M  V30 12000 H 1146.12 1.68258 -0.882569 0
M  V30 12001 H 1144.27 3.87496 0.279164 0
M  V30 12002 H 1145.94 3.98227 -2.32837 0
M  V30 12003 H 1144.18 3.70936 -2.2492 0
M  V30 12004 H 1144.86 5.24997 -1.70536 0
M  V30 12005 H 1147.33 4.15936 -0.11683 0
M  V30 12006 H 1146.21 5.48132 0.290337 0
M  V30 12007 H 1146.47 4.1797 1.44062 0
M  V30 12008 N 1145.53 0.438773 1.51369 0
M  V30 12009 C 1146.75 -0.128221 2.07003 0
M  V30 12010 C 1147.18 -1.3557 1.30393 0
M  V30 12011 O 1146.54 -1.7804 0.342283 0
M  V30 12012 C 1146.58 -0.42761 3.58056 0
M  V30 12013 O 1145.69 -1.51382 3.83611 0
M  V30 12014 H 1145.03 -0.00123679 0.663999 0
M  V30 12015 H 1147.56 0.62052 1.94963 0
M  V30 12016 H 1147.57 -0.677645 4.02333 0
M  V30 12017 H 1146.24 0.469535 4.13241 0
M  V30 12018 H 1144.82 -1.25363 3.51196 0
M  V30 12019 N 1147.01 -1.56678 0.170181 0
M  V30 12020 C 1147.94 -2.20916 -0.756213 0
M  V30 12021 C 1148.92 -1.16442 -1.23997 0
M  V30 12022 O 1150.1 -1.44867 -1.29333 0
M  V30 12023 C 1147.23 -2.84901 -1.98617 0
M  V30 12024 C 1146.19 -3.95403 -1.63831 0
M  V30 12025 C 1145.51 -4.46432 -2.94282 0
M  V30 12026 C 1146.81 -5.15051 -0.867195 0
M  V30 12027 H 1148.51 -2.98585 -0.220776 0
M  V30 12028 H 1146.05 -1.43619 -0.104748 0
M  V30 12029 H 1148 -3.28514 -2.63926 0
M  V30 12030 H 1146.73 -2.04598 -2.54572 0
M  V30 12031 H 1145.39 -3.52444 -1.00891 0
M  V30 12032 H 1145.04 -3.62923 -3.48276 0
M  V30 12033 H 1144.74 -5.20979 -2.71762 0
M  V30 12034 H 1146.26 -4.92731 -3.60622 0
M  V30 12035 H 1147.67 -5.55363 -1.42285 0
M  V30 12036 H 1146.07 -5.95507 -0.741065 0
M  V30 12037 H 1147.14 -4.84707 0.136693 0
M  V30 12038 N 1148.48 0.103547 -1.57259 0
M  V30 12039 C 1149.71 0.82624 -1.90232 0
M  V30 12040 C 1150.13 1.71902 -0.763641 0
M  V30 12041 O 1149.49 1.79043 0.285181 0
M  V30 12042 C 1149.54 1.62265 -3.22029 0
M  V30 12043 O 1148.64 2.73091 -3.09023 0
M  V30 12044 H 1147.98 0.227528 -0.6238 0
M  V30 12045 H 1150.51 0.081307 -2.04438 0
M  V30 12046 H 1150.52 2.00865 -3.5513 0
M  V30 12047 H 1149.2 0.967383 -4.04493 0
M  V30 12048 H 1147.78 2.3758 -2.8742 0
M  V30 12049 N 1149.96 1.53094 0.37415 0
M  V30 12050 C 1151.21 1.68527 1.11548 0
M  V30 12051 C 1151.53 0.435253 1.9008 0
M  V30 12052 O 1150.8 -0.550594 1.88003 0
M  V30 12053 H 1149.38 0.621255 0.41479 0
M  V30 12054 H 1152.04 1.90258 0.422844 0
M  V30 12055 H 1151.14 2.54248 1.81009 0
M  V30 12056 N 1151.44 -0.633461 1.44309 0
M  V30 12057 C 1152.67 -1.42033 1.50447 0
M  V30 12058 C 1153.08 -1.88362 0.128585 0
M  V30 12059 O 1152.44 -1.60695 -0.865071 0
M  V30 12060 C 1152.49 -2.6422 2.46719 0
M  V30 12061 O 1152.21 -2.19823 3.78958 0
M  V30 12062 C 1153.71 -3.57372 2.62298 0
M  V30 12063 H 1150.93 -0.435667 0.510329 0
M  V30 12064 H 1153.48 -0.774907 1.8925 0
M  V30 12065 H 1151.63 -3.24859 2.11058 0
M  V30 12066 H 1152.05 -2.99022 4.30913 0
M  V30 12067 H 1153.52 -4.39719 3.33693 0
M  V30 12068 H 1154 -4.06026 1.67449 0
M  V30 12069 H 1154.6 -3.02603 2.9885 0
M  V30 12070 N 1152.92 -1.31168 -0.873655 0
M  V30 12071 C 1154.17 -1.20642 -1.6264 0
M  V30 12072 C 1154.49 0.236286 -1.93059 0
M  V30 12073 O 1153.75 1.18401 -1.55819 0
M  V30 12074 C 1154.05 -1.99204 -2.96736 0
M  V30 12075 C 1153.71 -3.48734 -2.85824 0
M  V30 12076 C 1152.38 -3.89507 -2.82555 0
M  V30 12077 C 1154.73 -4.43905 -2.73127 0
M  V30 12078 C 1152.06 -5.23724 -2.64442 0
M  V30 12079 C 1154.41 -5.78242 -2.56551 0
M  V30 12080 C 1153.07 -6.18241 -2.51663 0
M  V30 12081 H 1152.34 -0.44146 -0.595142 0
M  V30 12082 H 1154.99 -1.62394 -1.01492 0
M  V30 12083 H 1153.29 -1.50122 -3.61899 0
M  V30 12084 H 1154.99 -1.88443 -3.53963 0
M  V30 12085 H 1151.58 -3.1634 -2.89184 0
M  V30 12086 H 1155.76 -4.13338 -2.7471 0
M  V30 12087 H 1151.02 -5.53794 -2.59081 0
M  V30 12088 H 1155.19 -6.51616 -2.45702 0
M  V30 12089 H 1152.82 -7.22185 -2.37387 0
M  V30 12090 N 1154.4 1.08748 -1.14068 0
M  V30 12091 C 1155.81 1.62551 -0.918379 0
M  V30 12092 C 1156.16 1.8852 0.543583 0
M  V30 12093 O 1155.28 1.64007 1.41176 0
M  V30 12094 C 1155.88 2.95309 -1.66066 0
M  V30 12095 C 1154.44 3.4591 -1.48403 0
M  V30 12096 C 1153.58 2.20204 -1.6854 0
M  V30 12097 H 1156.54 0.920196 -1.29298 0
M  V30 12098 H 1156.56 3.63587 -1.12181 0
M  V30 12099 H 1156.07 2.76377 -2.72465 0
M  V30 12100 H 1154.17 3.69953 -0.443353 0
M  V30 12101 H 1154.28 4.2289 -2.25169 0
M  V30 12102 H 1152.65 2.29203 -1.11077 0
M  V30 12103 H 1153.43 2.03783 -2.76274 0
M  V30 12104 N 1155.87 0.935264 1.26849 0
M  V30 12105 C 1157.12 0.57969 1.94025 0
M  V30 12106 C 1157.45 -0.880295 1.73439 0
M  V30 12107 O 1156.7 -1.64429 1.0612 0
M  V30 12108 C 1157 0.861098 3.46872 0
M  V30 12109 C 1156.67 2.30402 3.87589 0
M  V30 12110 C 1155.33 2.69848 3.98417 0
M  V30 12111 C 1157.68 3.242 4.08098 0
M  V30 12112 C 1155.01 4.02199 4.27145 0
M  V30 12113 C 1157.36 4.56141 4.38313 0
M  V30 12114 C 1156.03 4.9541 4.47354 0
M  V30 12115 H 1155.3 0.212123 0.709989 0
M  V30 12116 H 1157.94 1.18066 1.50774 0
M  V30 12117 H 1156.25 0.177534 3.91398 0
M  V30 12118 H 1157.95 0.564841 3.97002 0
M  V30 12119 H 1154.54 1.98803 3.79704 0
M  V30 12120 H 1158.72 2.94924 3.99166 0
M  V30 12121 H 1153.98 4.32295 4.32355 0
M  V30 12122 H 1158.15 5.28818 4.53128 0
M  V30 12123 H 1155.78 5.97994 4.69368 0
M  V30 12124 N 1157.35 -1.41121 0.701616 0
M  V30 12125 C 1158.3 -2.32582 0.0288052 0
M  V30 12126 C 1159.29 -1.5129 -0.762074 0
M  V30 12127 O 1160.5 -1.67185 -0.667014 0
M  V30 12128 H 1156.88 -0.75194 -0.00948675 0
M  V30 12129 H 1158.85 -2.86994 0.817141 0
M  V30 12130 C 1157.6 -3.36137 -0.889217 0
M  V30 12131 H 1156.92 -3.98746 -0.290062 0
M  V30 12132 H 1158.36 -4.0266 -1.32819 0
M  V30 12133 C 1156.82 -2.70504 -2.00821 0
M  V30 12134 O 1157.35 -2.55753 -3.09763 0
M  V30 12135 N 1155.55 -2.29105 -1.78772 0
M  V30 12136 H 1155.1 -2.41303 -0.901708 0
M  V30 12137 H 1155.06 -1.85527 -2.53825 0
M  V30 12138 N 1158.83 -0.446794 -1.51134 0
M  V30 12139 C 1159.74 0.36579 -2.31731 0
M  V30 12140 C 1160.76 1.01886 -1.41051 0
M  V30 12141 O 1161.93 1.01216 -1.74119 0
M  V30 12142 C 1159 1.44705 -3.15058 0
M  V30 12143 C 1158.06 0.813129 -4.21529 0
M  V30 12144 C 1157.29 1.84287 -5.00873 0
M  V30 12145 O 1157.51 3.06633 -4.8097 0
M  V30 12146 O 1156.45 1.42816 -5.84711 0
M  V30 12147 H 1160.27 -0.292436 -3.02289 0
M  V30 12148 H 1157.86 -0.209129 -1.47929 0
M  V30 12149 H 1159.74 2.07393 -3.66833 0
M  V30 12150 H 1158.42 2.08919 -2.47254 0
M  V30 12151 H 1157.32 0.147953 -3.73807 0
M  V30 12152 H 1158.66 0.214331 -4.91733 0
M  V30 12153 N 1160.31 1.56586 -0.178487 0
M  V30 12154 C 1161.59 1.88798 0.511356 0
M  V30 12155 C 1161.97 1.08949 1.80813 0
M  V30 12156 O 1161.31 0.185551 2.27745 0
M  V30 12157 C 1161.52 3.40927 0.746298 0
M  V30 12158 C 1162.87 4.10816 1.0731 0
M  V30 12159 O 1163.9 3.46285 0.834592 0
M  V30 12160 O 1162.75 5.24837 1.52343 0
M  V30 12161 H 1159.85 0.783574 0.264463 0
M  V30 12162 H 1162.39 1.68301 -0.21746 0
M  V30 12163 H 1161.17 3.9093 -0.17015 0
M  V30 12164 H 1160.79 3.67059 1.52817 0
M  V30 12165 N 1161.79 -0.095206 1.57312 0
M  V30 12166 C 1162.7 -1.13388 2.05379 0
M  V30 12167 C 1163.71 -1.43868 0.978668 0
M  V30 12168 O 1164.89 -1.54512 1.29182 0
M  V30 12169 C 1161.95 -2.43444 2.46852 0
M  V30 12170 C 1161.01 -2.20146 3.68557 0
M  V30 12171 C 1160.25 -3.44001 4.08043 0
M  V30 12172 O 1160.47 -4.52233 3.47623 0
M  V30 12173 O 1159.4 -3.33596 5.00997 0
M  V30 12174 H 1163.23 -0.755622 2.9415 0
M  V30 12175 H 1160.82 -0.307707 1.46197 0
M  V30 12176 H 1162.7 -3.20027 2.74155 0
M  V30 12177 H 1161.37 -2.80696 1.61219 0
M  V30 12178 H 1160.28 -1.41345 3.46371 0
M  V30 12179 H 1161.61 -1.87787 4.54969 0
M  V30 12180 N 1163.26 -1.53291 -0.366026 0
M  V30 12181 C 1164.54 -1.60055 -1.12436 0
M  V30 12182 C 1164.92 -0.407811 -2.07123 0
M  V30 12183 O 1164.27 0.601977 -2.20428 0
M  V30 12184 C 1164.48 -2.95062 -1.86385 0
M  V30 12185 C 1165.83 -3.49623 -2.40934 0
M  V30 12186 O 1166.85 -2.97088 -1.96512 0
M  V30 12187 O 1165.71 -4.41461 -3.2214 0
M  V30 12188 H 1162.8 -0.646476 -0.51575 0
M  V30 12189 H 1165.35 -1.65632 -0.369326 0
M  V30 12190 H 1164.12 -3.73312 -1.17277 0
M  V30 12191 H 1163.75 -2.92973 -2.68798 0
M  V30 12192 N 1164.74 0.6258 -1.44643 0
M  V30 12193 C 1165.99 1.38125 -1.46984 0
M  V30 12194 C 1166.3 1.95299 -0.108429 0
M  V30 12195 O 1167.51 2.71498 -0.00940005 0
M  V30 12196 C 1165.97 2.50108 -2.58793 0
M  V30 12197 C 1165.57 1.99424 -4.01166 0
M  V30 12198 C 1167.32 3.27269 -2.70361 0
M  V30 12199 C 1165.23 3.08781 -5.04389 0
M  V30 12200 H 1164.16 0.519083 -0.546872 0
M  V30 12201 H 1166.81 0.67268 -1.70726 0
M  V30 12202 H 1165.19 3.23565 -2.28302 0
M  V30 12203 H 1166.36 1.32797 -4.4125 0
M  V30 12204 H 1164.68 1.35063 -3.93887 0
M  V30 12205 H 1167.27 4.08802 -3.44652 0
M  V30 12206 H 1167.62 3.77097 -1.76362 0
M  V30 12207 H 1168.15 2.60905 -3.00289 0
M  V30 12208 H 1164.89 2.63891 -6.00035 0
M  V30 12209 H 1164.41 3.74033 -4.68892 0
M  V30 12210 H 1166.09 3.73469 -5.28328 0
M  V30 12211 N 1166.22 1.31629 0.866686 0
M  V30 12212 C 1167.17 1.16149 1.96197 0
M  V30 12213 C 1168.15 0.0716068 1.60741 0
M  V30 12214 O 1169.35 0.296868 1.74493 0
M  V30 12215 C 1166.48 0.874322 3.3198 0
M  V30 12216 C 1165.56 2.00534 3.73693 0
M  V30 12217 N 1165.95 3.25272 3.87339 0
M  V30 12218 C 1164.25 1.90582 4.0323 0
M  V30 12219 C 1164.95 3.99275 4.2303 0
M  V30 12220 N 1163.93 3.27471 4.33894 0
M  V30 12221 H 1167.73 2.10732 2.04864 0
M  V30 12222 H 1165.24 1.23234 1.05769 0
M  V30 12223 H 1167.24 0.7444 4.102 0
M  V30 12224 H 1165.9 -0.0632521 3.24638 0
M  V30 12225 H 1166.91 3.60349 3.71979 0
M  V30 12226 H 1163.59 1.0431 4.0426 0
M  V30 12227 H 1164.98 5.06784 4.41157 0
M  V30 12228 N 1167.7 -1.08142 1.14644 0
M  V30 12229 C 1168.98 -1.77254 0.827071 0
M  V30 12230 C 1169.36 -1.99885 -0.67891 0
M  V30 12231 O 1168.7 -1.61084 -1.62062 0
M  V30 12232 C 1168.91 -3.08658 1.62884 0
M  V30 12233 C 1170.26 -3.83143 1.82993 0
M  V30 12234 O 1171.29 -3.18447 1.59593 0
M  V30 12235 O 1170.15 -4.9932 2.2213 0
M  V30 12236 H 1167.24 -0.769356 0.30335 0
M  V30 12237 H 1169.79 -1.1458 1.25178 0
M  V30 12238 H 1168.56 -2.87753 2.65168 0
M  V30 12239 H 1168.18 -3.79061 1.19994 0
M  V30 12240 N 1169.18 -0.941978 -1.26351 0
M  V30 12241 C 1170.11 -0.409504 -2.25512 0
M  V30 12242 C 1171.12 0.467665 -1.55938 0
M  V30 12243 O 1172.31 0.277982 -1.76322 0
M  V30 12244 C 1169.41 0.430487 -3.36155 0
M  V30 12245 C 1168.58 -0.430714 -4.35274 0
M  V30 12246 C 1167.64 0.348976 -5.25042 0
M  V30 12247 O 1166.67 -0.24827 -5.68658 0
M  V30 12248 N 1167.87 1.64531 -5.56695 0
M  V30 12249 H 1170.64 -1.26196 -2.71836 0
M  V30 12250 H 1168.2 -0.810947 -1.40126 0
M  V30 12251 H 1170.19 0.959501 -3.93161 0
M  V30 12252 H 1168.76 1.18375 -2.8932 0
M  V30 12253 H 1167.98 -1.14093 -3.77328 0
M  V30 12254 H 1169.27 -1.01896 -4.98492 0
M  V30 12255 H 1168.67 2.15266 -5.23142 0
M  V30 12256 H 1167.22 2.12055 -6.16341 0
M  V30 12257 N 1170.66 1.40747 -0.709091 0
M  V30 12258 C 1171.9 2.00233 -0.242836 0
M  V30 12259 C 1172.22 1.56853 1.1686 0
M  V30 12260 O 1173.42 2.08993 1.73304 0
M  V30 12261 C 1171.88 3.57854 -0.383241 0
M  V30 12262 C 1171.49 4.10209 -1.80091 0
M  V30 12263 C 1173.23 4.24494 0.0225511 0
M  V30 12264 C 1171.14 5.60311 -1.89225 0
M  V30 12265 H 1170.07 0.74896 -0.087034 0
M  V30 12266 H 1172.72 1.61064 -0.879243 0
M  V30 12267 H 1171.1 3.94692 0.321642 0
M  V30 12268 H 1172.28 3.84762 -2.53564 0
M  V30 12269 H 1170.59 3.56142 -2.15758 0
M  V30 12270 H 1173.19 5.34694 -0.0250644 0
M  V30 12271 H 1173.53 4.02488 1.06344 0
M  V30 12272 H 1174.06 3.92739 -0.632541 0
M  V30 12273 H 1170.8 5.87162 -2.91412 0
M  V30 12274 H 1170.32 5.87642 -1.20154 0
M  V30 12275 H 1172 6.25306 -1.66136 0
M  V30 12276 N 1172.13 0.454803 1.50895 0
M  V30 12277 C 1173.07 -0.383826 2.25963 0
M  V30 12278 C 1174.08 -0.971263 1.30653 0
M  V30 12279 O 1175.27 -0.862434 1.56283 0
M  V30 12280 C 1172.37 -1.55069 3.01342 0
M  V30 12281 C 1171.54 -1.07899 4.23883 0
M  V30 12282 C 1170.6 -2.118 4.81692 0
M  V30 12283 O 1169.63 -1.70523 5.43057 0
M  V30 12284 N 1170.83 -3.44459 4.67256 0
M  V30 12285 H 1173.59 0.259646 2.98573 0
M  V30 12286 H 1171.15 0.284661 1.59378 0
M  V30 12287 H 1173.15 -2.24236 3.36898 0
M  V30 12288 H 1171.72 -2.09917 2.31633 0
M  V30 12289 H 1170.94 -0.213773 3.9362 0
M  V30 12290 H 1172.22 -0.741501 5.03368 0
M  V30 12291 H 1171.62 -3.80716 4.18416 0
M  V30 12292 H 1170.18 -4.0947 5.07127 0
M  V30 12293 N 1173.61 -1.56489 0.186789 0
M  V30 12294 C 1174.56 -2.20034 -0.754164 0
M  V30 12295 C 1175.55 -1.16899 -1.22601 0
M  V30 12296 O 1176.76 -1.35064 -1.18987 0
M  V30 12297 H 1173.13 -0.705058 -0.261529 0
M  V30 12298 H 1175.11 -2.97766 -0.194418 0
M  V30 12299 C 1173.85 -2.86733 -1.9667 0
M  V30 12300 H 1173.18 -3.65831 -1.61268 0
M  V30 12301 H 1174.62 -3.34645 -2.60363 0
M  V30 12302 C 1173.08 -1.87325 -2.8002 0
M  V30 12303 O 1173.61 -1.36835 -3.77676 0
M  V30 12304 N 1171.81 -1.55738 -2.45345 0
M  V30 12305 H 1171.36 -1.9699 -1.6599 0
M  V30 12306 H 1171.32 -0.894805 -3.01398 0
M  V30 12307 N 1175.09 0.086862 -1.5736 0
M  V30 12308 C 1176.05 1.08906 -2.01673 0
M  V30 12309 C 1177.05 1.32473 -0.911463 0
M  V30 12310 O 1178.24 1.28447 -1.17673 0
M  V30 12311 C 1175.37 2.43629 -2.38449 0
M  V30 12312 H 1176.57 0.707461 -2.91436 0
M  V30 12313 H 1174.12 0.332154 -1.5273 0
M  V30 12314 H 1174.86 2.8665 -1.51665 0
M  V30 12315 H 1174.64 2.2787 -3.19089 0
M  V30 12316 H 1176.13 3.15695 -2.73361 0
M  V30 12317 N 1176.57 1.53483 0.357892 0
M  V30 12318 C 1177.53 1.79782 1.42166 0
M  V30 12319 C 1178.53 0.668441 1.46248 0
M  V30 12320 O 1179.72 0.936677 1.46874 0
M  V30 12321 C 1176.85 1.92686 2.8122 0
M  V30 12322 H 1178.05 2.74794 1.20117 0
M  V30 12323 H 1175.6 1.44677 0.591468 0
M  V30 12324 H 1176.33 0.997669 3.08573 0
M  V30 12325 H 1176.12 2.74837 2.79655 0
M  V30 12326 H 1177.61 2.14599 3.58242 0
M  V30 12327 N 1178.05 -0.61812 1.44973 0
M  V30 12328 C 1179.29 -1.3774 1.48439 0
M  V30 12329 C 1179.62 -1.94117 0.121999 0
M  V30 12330 O 1178.88 -1.749 -0.877974 0
M  V30 12331 C 1179.17 -2.55143 2.50274 0
M  V30 12332 C 1178.84 -2.16976 3.95262 0
M  V30 12333 C 1177.5 -2.06281 4.34743 0
M  V30 12334 C 1179.85 -1.8703 4.86486 0
M  V30 12335 C 1177.18 -1.63846 5.63357 0
M  V30 12336 C 1179.53 -1.46085 6.15501 0
M  V30 12337 C 1178.2 -1.3394 6.53924 0
M  V30 12338 H 1177.47 -0.504026 0.543175 0
M  V30 12339 H 1180.12 -0.699685 1.7826 0
M  V30 12340 H 1178.42 -3.28205 2.13983 0
M  V30 12341 H 1180.12 -3.13373 2.50197 0
M  V30 12342 H 1176.71 -2.26223 3.64034 0
M  V30 12343 H 1180.89 -1.94196 4.56729 0
M  V30 12344 H 1176.15 -1.53058 5.91932 0
M  V30 12345 H 1180.32 -1.21956 6.85638 0
M  V30 12346 H 1177.95 -1.00832 7.53483 0
M  V30 12347 N 1179.52 -1.32087 -0.859693 0
M  V30 12348 C 1180.46 -1.14934 -1.97143 0
M  V30 12349 C 1181.43 -0.0501084 -1.62523 0
M  V30 12350 O 1182.62 -0.208472 -1.87344 0
M  V30 12351 C 1179.75 -0.758374 -3.30101 0
M  V30 12352 C 1178.79 -1.86212 -3.83702 0
M  V30 12353 S 1179.62 -3.46949 -4.07905 0
M  V30 12354 C 1180.78 -3.09813 -5.43844 0
M  V30 12355 H 1181.01 -2.09047 -2.11392 0
M  V30 12356 H 1178.55 -1.1669 -1.01108 0
M  V30 12357 H 1180.5 -0.539563 -4.06939 0
M  V30 12358 H 1179.17 0.163817 -3.13673 0
M  V30 12359 H 1178.36 -1.54144 -4.7985 0
M  V30 12360 H 1177.96 -2.03652 -3.13691 0
M  V30 12361 H 1180.25 -2.59345 -6.25897 0
M  V30 12362 H 1181.2 -4.04963 -5.8087 0
M  V30 12363 H 1181.6 -2.46971 -5.07607 0
M  V30 12364 N 1181 1.07532 -1.15215 0
M  V30 12365 C 1182.23 1.8355 -0.94831 0
M  V30 12366 C 1182.64 1.82289 0.506701 0
M  V30 12367 O 1181.98 1.23142 1.36314 0
M  V30 12368 C 1182.04 3.31834 -1.38298 0
M  V30 12369 C 1181.71 3.56818 -2.85535 0
M  V30 12370 C 1182.71 3.50915 -3.83608 0
M  V30 12371 C 1180.39 3.84543 -3.23159 0
M  V30 12372 C 1182.38 3.72382 -5.17311 0
M  V30 12373 C 1180.07 4.05662 -4.57036 0
M  V30 12374 C 1181.07 3.99576 -5.53921 0
M  V30 12375 O 1180.76 4.20132 -6.85379 0
M  V30 12376 H 1180.49 0.586014 -0.336992 0
M  V30 12377 H 1183.04 1.36656 -1.53344 0
M  V30 12378 H 1181.27 3.79529 -0.741244 0
M  V30 12379 H 1182.96 3.89312 -1.14853 0
M  V30 12380 H 1183.73 3.295 -3.55886 0
M  V30 12381 H 1179.61 3.88395 -2.48335 0
M  V30 12382 H 1183.15 3.67547 -5.92921 0
M  V30 12383 H 1179.05 4.26563 -4.84473 0
M  V30 12384 H 1179.82 4.3749 -6.91769 0
M  V30 12385 N 1182.48 0.948665 1.2585 0
M  V30 12386 C 1183.89 0.641829 1.75321 0
M  V30 12387 C 1184.24 -0.842903 1.77171 0
M  V30 12388 O 1183.37 -1.65967 1.38867 0
M  V30 12389 C 1183.96 1.15835 3.18383 0
M  V30 12390 C 1182.52 0.901784 3.65438 0
M  V30 12391 C 1181.67 1.30489 2.44679 0
M  V30 12392 H 1184.62 1.12614 1.1182 0
M  V30 12393 H 1184.64 0.515639 3.7699 0
M  V30 12394 H 1184.15 2.23897 3.17004 0
M  V30 12395 H 1182.25 -0.164135 3.72238 0
M  V30 12396 H 1182.37 1.53405 4.53876 0
M  V30 12397 H 1180.73 0.723278 2.44215 0
M  V30 12398 H 1181.51 2.3946 2.45996 0
M  V30 12399 N 1183.96 -1.40369 0.716545 0
M  V30 12400 C 1185.37 -1.83783 0.328719 0
M  V30 12401 C 1185.72 -1.5991 -1.13681 0
M  V30 12402 O 1184.85 -1.08048 -1.87496 0
M  V30 12403 C 1185.44 -3.33626 0.589848 0
M  V30 12404 C 1184 -3.7553 0.25572 0
M  V30 12405 C 1183.15 -2.63571 0.861733 0
M  V30 12406 H 1186.1 -1.29623 0.915621 0
M  V30 12407 H 1186.12 -3.80225 -0.14459 0
M  V30 12408 H 1185.63 -3.5097 1.65655 0
M  V30 12409 H 1183.73 -3.63781 -0.805883 0
M  V30 12410 H 1183.84 -4.73577 0.725388 0
M  V30 12411 H 1182.21 -2.53047 0.289706 0
M  V30 12412 H 1182.99 -2.83727 1.93272 0
M  V30 12413 N 1185.44 -0.462799 -1.50652 0
M  V30 12414 C 1186.38 0.349784 -2.29955 0
M  V30 12415 C 1187.38 0.997947 -1.36885 0
M  V30 12416 O 1188.58 0.93 -1.54114 0
M  V30 12417 H 1184.96 0.131635 -0.740389 0
M  V30 12418 H 1186.93 -0.33958 -2.96461 0
M  V30 12419 C 1185.68 1.42398 -3.17204 0
M  V30 12420 H 1185 0.934611 -3.88722 0
M  V30 12421 H 1186.44 1.96528 -3.75703 0
M  V30 12422 C 1184.9 2.42135 -2.34248 0
M  V30 12423 O 1185.43 3.47229 -2.01978 0
M  V30 12424 N 1183.64 2.13647 -1.96985 0
M  V30 12425 H 1183.18 1.28209 -2.23428 0
M  V30 12426 H 1183.14 2.80615 -1.41783 0
M  V30 12427 N 1186.91 1.56388 -0.195085 0
M  V30 12428 C 1188.33 1.8398 0.317513 0
M  V30 12429 C 1188.68 1.11575 1.61386 0
M  V30 12430 O 1187.8 0.376557 2.13099 0
M  V30 12431 C 1188.4 3.33749 0.582859 0
M  V30 12432 C 1186.96 3.61752 1.03983 0
M  V30 12433 C 1186.1 2.77159 0.088434 0
M  V30 12434 H 1189.05 1.53072 -0.418871 0
M  V30 12435 H 1189.07 3.52519 1.43216 0
M  V30 12436 H 1188.59 3.86419 -0.360813 0
M  V30 12437 H 1186.69 3.14515 1.99778 0
M  V30 12438 H 1186.8 4.69937 0.932549 0
M  V30 12439 H 1185.16 2.47765 0.590317 0
M  V30 12440 H 1185.95 3.32619 -0.849682 0
M  V30 12441 N 1188.39 -0.0785156 1.57404 0
M  V30 12442 C 1189.64 -0.774884 1.88061 0
M  V30 12443 C 1189.99 -1.75525 0.787966 0
M  V30 12444 O 1189.29 -1.90462 -0.208514 0
M  V30 12445 C 1189.48 -1.52826 3.23078 0
M  V30 12446 C 1189.31 -0.62236 4.45373 0
M  V30 12447 C 1188.08 -0.261831 5.04621 0
M  V30 12448 C 1190.28 0.077964 5.14241 0
M  V30 12449 N 1188.26 0.650492 6.10444 0
M  V30 12450 C 1189.63 0.847727 6.14177 0
M  V30 12451 C 1191.69 0.150143 4.97674 0
M  V30 12452 C 1190.39 1.68295 6.99335 0
M  V30 12453 C 1192.41 0.972321 5.83352 0
M  V30 12454 C 1191.78 1.73015 6.82821 0
M  V30 12455 H 1187.88 -0.259194 0.737796 0
M  V30 12456 H 1190.46 -0.0366796 1.94665 0
M  V30 12457 H 1188.63 -2.23723 3.17494 0
M  V30 12458 H 1190.36 -2.17311 3.41406 0
M  V30 12459 H 1187.12 -0.613197 4.69614 0
M  V30 12460 H 1187.54 1.0997 6.68009 0
M  V30 12461 H 1192.18 -0.421423 4.20695 0
M  V30 12462 H 1189.9 2.26552 7.75693 0
M  V30 12463 H 1193.49 1.03106 5.72591 0
M  V30 12464 H 1192.37 2.35609 7.47969 0
M  V30 12465 N 1189.87 -1.5367 -0.349747 0
M  V30 12466 C 1190.82 -1.81223 -1.42922 0
M  V30 12467 C 1191.79 -0.657536 -1.52531 0
M  V30 12468 O 1192.97 -0.90134 -1.68168 0
M  V30 12469 C 1190.11 -2.022 -2.79659 0
M  V30 12470 C 1189.23 -3.29915 -2.78891 0
M  V30 12471 C 1188.36 -3.40993 -4.07305 0
M  V30 12472 C 1187.4 -4.6268 -4.00741 0
M  V30 12473 N 1186.54 -4.70826 -5.20833 0
M  V30 12474 H 1191.38 -2.73328 -1.18727 0
M  V30 12475 H 1188.91 -1.35386 -0.57525 0
M  V30 12476 H 1190.87 -2.12351 -3.59114 0
M  V30 12477 H 1189.5 -1.13416 -3.0222 0
M  V30 12478 H 1188.55 -3.28637 -1.91577 0
M  V30 12479 H 1189.87 -4.19459 -2.69917 0
M  V30 12480 H 1189.02 -3.50542 -4.95182 0
M  V30 12481 H 1187.76 -2.49493 -4.19052 0
M  V30 12482 H 1186.76 -4.53215 -3.11249 0
M  V30 12483 H 1187.99 -5.55538 -3.90582 0
M  V30 12484 H 1185.93 -3.82233 -5.33136 0
M  V30 12485 H 1185.85 -5.54297 -5.14092 0
M  V30 12486 H 1187.12 -4.84677 -6.10499 0
M  V30 12487 N 1191.35 0.610423 -1.45298 0
M  V30 12488 C 1192.26 1.74964 -1.56285 0
M  V30 12489 C 1193.27 1.68149 -0.447436 0
M  V30 12490 O 1194.45 1.88556 -0.707725 0
M  V30 12491 C 1191.52 3.11417 -1.52383 0
M  V30 12492 C 1190.58 3.29707 -2.7494 0
M  V30 12493 C 1189.81 4.5965 -2.71215 0
M  V30 12494 O 1190.03 5.41789 -1.78383 0
M  V30 12495 O 1188.97 4.80591 -3.62375 0
M  V30 12496 H 1192.79 1.68646 -2.52571 0
M  V30 12497 H 1190.38 0.774168 -1.27777 0
M  V30 12498 H 1192.26 3.9272 -1.52805 0
M  V30 12499 H 1190.93 3.18232 -0.592472 0
M  V30 12500 H 1189.84 2.48003 -2.80081 0
M  V30 12501 H 1191.17 3.27766 -3.67192 0
M  V30 12502 N 1192.83 1.32541 0.852676 0
M  V30 12503 C 1194.08 1.22567 1.60188 0
M  V30 12504 C 1194.39 -0.210594 1.94463 0
M  V30 12505 O 1195.59 -0.432214 2.68038 0
M  V30 12506 C 1194.05 2.14678 2.88862 0
M  V30 12507 C 1193.66 3.63398 2.62004 0
M  V30 12508 C 1195.4 2.13545 3.66877 0
M  V30 12509 C 1193.31 4.47464 3.86691 0
M  V30 12510 H 1192.24 0.455184 0.601102 0
M  V30 12511 H 1194.89 1.57515 0.941347 0
M  V30 12512 H 1193.27 1.72647 3.56383 0
M  V30 12513 H 1194.45 4.13783 2.02782 0
M  V30 12514 H 1192.76 3.66681 1.97316 0
M  V30 12515 H 1195.36 2.73589 4.59405 0
M  V30 12516 H 1195.7 1.12694 4.00756 0
M  V30 12517 H 1196.23 2.53866 3.06263 0
M  V30 12518 H 1192.97 5.49136 3.57952 0
M  V30 12519 H 1192.49 4.01829 4.45302 0
M  V30 12520 H 1194.17 4.60565 4.5441 0
M  V30 12521 N 1194.3 -1.0692 1.15784 0
M  V30 12522 C 1195.53 -1.83849 0.959903 0
M  V30 12523 C 1195.95 -1.8169 -0.486873 0
M  V30 12524 O 1195.31 -1.21305 -1.34739 0
M  V30 12525 C 1195.36 -3.28642 1.48414 0
M  V30 12526 O 1194.46 -4.0665 0.686249 0
M  V30 12527 H 1193.81 -0.569115 0.342059 0
M  V30 12528 H 1196.34 -1.34851 1.53871 0
M  V30 12529 H 1196.35 -3.7947 1.49888 0
M  V30 12530 H 1195.02 -3.29529 2.53739 0
M  V30 12531 H 1193.6 -3.65453 0.741501 0
M  V30 12532 N 1195.78 -0.955326 -1.25345 0
M  V30 12533 C 1196.73 -0.446792 -2.23579 0
M  V30 12534 C 1197.72 0.464354 -1.54054 0
M  V30 12535 O 1198.91 0.297293 -1.74485 0
M  V30 12536 C 1196.04 0.273533 -3.42209 0
M  V30 12537 C 1195.12 -0.655722 -4.19 0
M  V30 12538 N 1195.51 -1.78766 -4.73156 0
M  V30 12539 C 1193.81 -0.464059 -4.43579 0
M  V30 12540 C 1194.51 -2.36789 -5.31324 0
M  V30 12541 N 1193.49 -1.65435 -5.17815 0
M  V30 12542 H 1197.29 -1.31065 -2.63057 0
M  V30 12543 H 1194.81 -0.812899 -1.40591 0
M  V30 12544 H 1196.8 0.654986 -4.11723 0
M  V30 12545 H 1195.46 1.13399 -3.04254 0
M  V30 12546 H 1196.47 -2.1695 -4.70269 0
M  V30 12547 H 1193.15 0.353459 -4.16001 0
M  V30 12548 H 1194.54 -3.32242 -5.84008 0
M  V30 12549 N 1197.26 1.39987 -0.723979 0
M  V30 12550 C 1198.17 2.3447 -0.0780936 0
M  V30 12551 C 1199.19 1.57744 0.734368 0
M  V30 12552 O 1200.36 1.90091 0.665385 0
M  V30 12553 C 1197.43 3.36705 0.826492 0
M  V30 12554 C 1196.49 4.293 0.00303036 0
M  V30 12555 C 1195.72 5.26651 0.864535 0
M  V30 12556 O 1195.95 5.30194 2.10357 0
M  V30 12557 O 1194.88 6.01157 0.299057 0
M  V30 12558 H 1198.71 2.91338 -0.857646 0
M  V30 12559 H 1196.29 1.41324 -0.484536 0
M  V30 12560 H 1198.17 3.9938 1.34439 0
M  V30 12561 H 1196.85 2.82237 1.58505 0
M  V30 12562 H 1195.75 3.69883 -0.560136 0
M  V30 12563 H 1197.09 4.86942 -0.717494 0
M  V30 12564 N 1198.74 0.470782 1.50404 0
M  V30 12565 C 1199.7 -0.312227 2.27063 0
M  V30 12566 C 1200.7 -0.920709 1.31832 0
M  V30 12567 O 1201.89 -0.789937 1.5526 0
M  V30 12568 C 1199.02 -1.44477 3.0877 0
M  V30 12569 H 1200.22 0.36006 2.97731 0
M  V30 12570 H 1197.77 0.224837 1.54674 0
M  V30 12571 H 1198.51 -2.15212 2.42599 0
M  V30 12572 H 1198.29 -1.01426 3.78755 0
M  V30 12573 H 1199.78 -1.99713 3.66749 0
M  V30 12574 N 1200.22 -1.56282 0.203376 0
M  V30 12575 C 1201.47 -1.96987 -0.433461 0
M  V30 12576 C 1201.78 -1.09344 -1.62183 0
M  V30 12577 O 1202.99 -1.39868 -2.327 0
M  V30 12578 C 1201.44 -3.50374 -0.82257 0
M  V30 12579 C 1201.05 -4.46693 0.341969 0
M  V30 12580 C 1202.79 -3.99831 -1.42603 0
M  V30 12581 C 1200.7 -5.9136 -0.0685608 0
M  V30 12582 H 1199.63 -0.735564 -0.165717 0
M  V30 12583 H 1202.28 -1.81085 0.296708 0
M  V30 12584 H 1200.66 -3.6181 -1.60964 0
M  V30 12585 H 1201.84 -4.46994 1.11952 0
M  V30 12586 H 1200.15 -4.07476 0.857463 0
M  V30 12587 H 1202.75 -5.05398 -1.74577 0
M  V30 12588 H 1203.09 -3.4462 -2.33544 0
M  V30 12589 H 1203.63 -3.91543 -0.702758 0
M  V30 12590 H 1200.36 -6.50515 0.80688 0
M  V30 12591 H 1199.88 -5.94295 -0.810798 0
M  V30 12592 H 1201.56 -6.45053 -0.501525 0
M  V30 12593 N 1201.7 0.070167 -1.57444 0
M  V30 12594 C 1202.97 0.802108 -1.78397 0
M  V30 12595 C 1203.35 1.95706 -0.791356 0
M  V30 12596 O 1202.7 2.27827 0.17518 0
M  V30 12597 C 1202.91 1.27354 -3.24934 0
M  V30 12598 C 1204.26 1.70626 -3.88808 0
M  V30 12599 O 1205.28 1.36916 -3.28835 0
M  V30 12600 O 1204.14 2.33041 -4.94322 0
M  V30 12601 H 1201.24 0.384483 -0.73219 0
M  V30 12602 H 1203.78 0.0501168 -1.69626 0
M  V30 12603 H 1202.55 0.447204 -3.88736 0
M  V30 12604 H 1202.18 2.0868 -3.38435 0
M  V30 12605 N 1203.17 1.53854 0.341593 0
M  V30 12606 C 1204.1 1.84966 1.42513 0
M  V30 12607 C 1205.08 0.704944 1.54805 0
M  V30 12608 O 1206.27 0.957036 1.68981 0
M  V30 12609 C 1203.4 2.06099 2.79536 0
M  V30 12610 C 1202.35 3.21919 2.82049 0
M  V30 12611 C 1201.68 3.28389 4.21977 0
M  V30 12612 C 1202.98 4.59984 2.4741 0
M  V30 12613 H 1204.67 2.7571 1.16724 0
M  V30 12614 H 1202.22 1.32662 0.560073 0
M  V30 12615 H 1204.17 2.26448 3.55386 0
M  V30 12616 H 1202.9 1.12087 3.06764 0
M  V30 12617 H 1201.56 3.01429 2.08653 0
M  V30 12618 H 1201.2 2.3197 4.46317 0
M  V30 12619 H 1200.9 4.0622 4.24569 0
M  V30 12620 H 1202.43 3.50951 4.99666 0
M  V30 12621 H 1203.84 4.80334 3.12973 0
M  V30 12622 H 1202.24 5.40233 2.61282 0
M  V30 12623 H 1203.31 4.6346 1.42594 0
M  V30 12624 N 1204.65 -0.602709 1.4562 0
M  V30 12625 C 1205.9 -1.35769 1.49163 0
M  V30 12626 C 1206.21 -1.95102 0.139485 0
M  V30 12627 O 1207.42 -2.71449 0.0525919 0
M  V30 12628 C 1205.88 -2.45959 2.62739 0
M  V30 12629 C 1205.48 -1.93017 4.04288 0
M  V30 12630 C 1207.23 -3.22926 2.75534 0
M  V30 12631 C 1205.13 -3.00718 5.09237 0
M  V30 12632 H 1204.06 -0.510317 0.555061 0
M  V30 12633 H 1206.72 -0.645434 1.71774 0
M  V30 12634 H 1205.1 -3.19892 2.3342 0
M  V30 12635 H 1206.27 -1.2576 4.43307 0
M  V30 12636 H 1204.59 -1.2878 3.95986 0
M  V30 12637 H 1207.18 -4.03267 3.51112 0
M  V30 12638 H 1207.53 -3.74243 1.82339 0
M  V30 12639 H 1208.06 -2.56095 3.04402 0
M  V30 12640 H 1204.8 -2.54312 6.04157 0
M  V30 12641 H 1204.32 -3.66526 4.74783 0
M  V30 12642 H 1206 -3.65016 5.34202 0
M  V30 12643 N 1206.13 -1.32992 -0.845635 0
M  V30 12644 C 1207.08 -1.22652 -1.97634 0
M  V30 12645 C 1208.07 -0.129344 -1.68905 0
M  V30 12646 O 1209.28 -0.292863 -1.77602 0
M  V30 12647 H 1205.65 -0.380439 -0.648668 0
M  V30 12648 H 1207.62 -2.18261 -2.03481 0
M  V30 12649 C 1206.37 -0.975677 -3.3373 0
M  V30 12650 H 1205.7 -1.81217 -3.56371 0
M  V30 12651 H 1207.14 -0.943608 -4.13367 0
M  V30 12652 C 1205.59 0.321491 -3.35363 0
M  V30 12653 O 1206.12 1.33042 -3.79029 0
M  V30 12654 N 1204.33 0.346648 -2.88525 0
M  V30 12655 H 1203.88 -0.474931 -2.53184 0
M  V30 12656 H 1203.84 1.2144 -2.9 0
M  V30 12657 N 1207.61 1.06304 -1.1635 0
M  V30 12658 C 1208.56 2.15879 -0.865967 0
M  V30 12659 C 1209.55 1.68595 0.164929 0
M  V30 12660 O 1210.76 1.7999 0.0189271 0
M  V30 12661 H 1207.13 0.704721 -0.262435 0
M  V30 12662 H 1209.1 2.38185 -1.79751 0
M  V30 12663 C 1207.85 3.4558 -0.383374 0
M  V30 12664 H 1207.17 3.82356 -1.16806 0
M  V30 12665 H 1208.61 4.2346 -0.213964 0
M  V30 12666 C 1207.07 3.24738 0.897044 0
M  V30 12667 O 1207.6 3.50284 1.96632 0
M  V30 12668 N 1205.81 2.78172 0.840761 0
M  V30 12669 H 1205.36 2.57583 -0.029584 0
M  V30 12670 H 1205.31 2.64606 1.69797 0
M  V30 12671 N 1209.09 0.96196 1.24836 0
M  V30 12672 C 1210.02 0.506241 2.27946 0
M  V30 12673 C 1211 -0.451183 1.64007 0
M  V30 12674 O 1212.18 -0.348552 1.91046 0
M  V30 12675 C 1209.31 -0.209846 3.46665 0
M  V30 12676 C 1208.27 0.663035 4.22833 0
M  V30 12677 C 1207.59 -0.184216 5.34383 0
M  V30 12678 C 1208.89 1.94479 4.84742 0
M  V30 12679 H 1210.59 1.36805 2.66317 0
M  V30 12680 H 1208.13 0.65926 1.28023 0
M  V30 12681 H 1210.08 -0.539838 4.17928 0
M  V30 12682 H 1208.81 -1.10596 3.07305 0
M  V30 12683 H 1207.47 0.976216 3.53363 0
M  V30 12684 H 1207.12 -1.08031 4.91262 0
M  V30 12685 H 1206.82 0.39657 5.8626 0
M  V30 12686 H 1208.34 -0.509009 6.08475 0
M  V30 12687 H 1209.75 1.68074 5.48109 0
M  V30 12688 H 1208.15 2.47183 5.46828 0
M  V30 12689 H 1209.22 2.64332 4.06517 0
M  V30 12690 N 1210.56 -1.39601 0.731392 0
M  V30 12691 C 1211.49 -2.33268 0.1041 0
M  V30 12692 C 1212.47 -1.53724 -0.728219 0
M  V30 12693 O 1213.66 -1.82131 -0.673933 0
M  V30 12694 C 1210.79 -3.37802 -0.806646 0
M  V30 12695 C 1209.74 -4.27928 -0.0787588 0
M  V30 12696 C 1209.07 -5.23131 -1.10628 0
M  V30 12697 C 1210.37 -5.11086 1.07651 0
M  V30 12698 H 1212.06 -2.85975 0.886496 0
M  V30 12699 H 1209.61 -1.375 0.427746 0
M  V30 12700 H 1211.56 -4.02278 -1.25499 0
M  V30 12701 H 1210.29 -2.83527 -1.62112 0
M  V30 12702 H 1208.95 -3.64926 0.349926 0
M  V30 12703 H 1208.59 -4.65152 -1.91422 0
M  V30 12704 H 1208.29 -5.84277 -0.624043 0
M  V30 12705 H 1209.82 -5.90483 -1.5544 0
M  V30 12706 H 1211.23 -5.68927 0.706781 0
M  V30 12707 H 1209.63 -5.81356 1.48814 0
M  V30 12708 H 1210.7 -4.46131 1.89988 0
M  V30 12709 N 1212.04 -0.478751 -1.50152 0
M  V30 12710 C 1212.97 0.347829 -2.26545 0
M  V30 12711 C 1213.99 0.950354 -1.32182 0
M  V30 12712 O 1215.18 0.837462 -1.57635 0
M  V30 12713 C 1212.28 1.50255 -3.0377 0
M  V30 12714 C 1211.45 1.01142 -4.25546 0
M  V30 12715 C 1210.51 2.0411 -4.85 0
M  V30 12716 O 1209.53 1.61862 -5.45701 0
M  V30 12717 N 1210.74 3.36982 -4.72677 0
M  V30 12718 H 1213.5 -0.307113 -2.98122 0
M  V30 12719 H 1211.06 -0.309981 -1.58905 0
M  V30 12720 H 1213.05 2.18848 -3.40423 0
M  V30 12721 H 1211.62 2.06205 -2.34943 0
M  V30 12722 H 1210.84 0.151124 -3.9391 0
M  V30 12723 H 1212.13 0.661326 -5.04484 0
M  V30 12724 H 1211.53 3.74011 -4.2442 0
M  V30 12725 H 1210.09 4.0135 -5.13577 0
M  V30 12726 N 1213.52 1.56172 -0.211661 0
M  V30 12727 C 1214.77 1.98332 0.423332 0
M  V30 12728 C 1215.1 1.09895 1.60115 0
M  V30 12729 O 1214.37 0.154477 1.93886 0
M  V30 12730 C 1214.66 3.49495 0.86747 0
M  V30 12731 C 1214.51 4.48708 -0.313302 0
M  V30 12732 C 1215.83 4.04793 1.72716 0
M  V30 12733 H 1212.95 0.72107 0.152402 0
M  V30 12734 H 1215.59 1.87521 -0.305912 0
M  V30 12735 H 1213.74 3.58839 1.48885 0
M  V30 12736 H 1215.41 4.51385 -0.951291 0
M  V30 12737 H 1213.66 4.2299 -0.96238 0
M  V30 12738 H 1214.33 5.51985 0.0402402 0
M  V30 12739 H 1216.8 3.98332 1.20296 0
M  V30 12740 H 1215.68 5.10898 2.00684 0
M  V30 12741 H 1215.94 3.51067 2.68709 0
M  V30 12742 N 1215 -0.0618163 1.57479 0
M  V30 12743 C 1215.95 -1.0724 2.04373 0
M  V30 12744 C 1216.92 -1.37875 0.926271 0
M  V30 12745 O 1218.1 -1.48772 1.19463 0
M  V30 12746 C 1215.24 -2.37805 2.50085 0
M  V30 12747 C 1214.35 -2.13614 3.7549 0
M  V30 12748 C 1213.49 -3.37814 4.09945 0
M  V30 12749 C 1212.53 -3.09032 5.28361 0
M  V30 12750 N 1211.66 -4.25591 5.58406 0
M  V30 12751 H 1216.5 -0.665536 2.90473 0
M  V30 12752 H 1214.04 -0.317043 1.43643 0
M  V30 12753 H 1216 -3.14048 2.74644 0
M  V30 12754 H 1214.63 -2.76275 1.66948 0
M  V30 12755 H 1213.68 -1.28017 3.58212 0
M  V30 12756 H 1214.99 -1.88361 4.61867 0
M  V30 12757 H 1214.15 -4.22447 4.35458 0
M  V30 12758 H 1212.89 -3.66153 3.22154 0
M  V30 12759 H 1211.89 -2.22797 5.02635 0
M  V30 12760 H 1213.12 -2.82006 6.17778 0
M  V30 12761 H 1211.06 -4.53941 4.73575 0
M  V30 12762 H 1210.98 -4.03646 6.39223 0
M  V30 12763 H 1212.25 -5.11191 5.88476 0
M  V30 12764 N 1216.48 -1.54033 -0.333429 0
M  V30 12765 C 1217.41 -1.7756 -1.43345 0
M  V30 12766 C 1218.39 -0.625126 -1.50103 0
M  V30 12767 O 1219.57 -0.861444 -1.67665 0
M  V30 12768 C 1216.7 -1.88332 -2.81511 0
M  V30 12769 C 1215.74 -3.10556 -2.92331 0
M  V30 12770 S 1216.58 -4.69385 -2.57755 0
M  V30 12771 C 1217.73 -4.8305 -3.98011 0
M  V30 12772 H 1217.97 -2.70584 -1.23172 0
M  V30 12773 H 1215.5 -1.4503 -0.529691 0
M  V30 12774 H 1217.46 -1.95224 -3.61106 0
M  V30 12775 H 1216.12 -0.963031 -2.98972 0
M  V30 12776 H 1215.31 -3.14798 -3.93596 0
M  V30 12777 H 1214.91 -3.01943 -2.20696 0
M  V30 12778 H 1217.21 -4.65081 -4.92652 0
M  V30 12779 H 1218.15 -5.85148 -3.98757 0
M  V30 12780 H 1218.56 -4.11427 -3.86507 0
M  V30 12781 N 1217.95 0.594978 -1.45938 0
M  V30 12782 C 1219.37 0.917069 -1.30622 0
M  V30 12783 C 1219.57 1.99702 -0.268554 0
M  V30 12784 O 1218.63 2.50293 0.333146 0
M  V30 12785 C 1219.94 1.34604 -2.68891 0
M  V30 12786 C 1221.49 1.45957 -2.76886 0
M  V30 12787 C 1221.96 1.92225 -4.15708 0
M  V30 12788 N 1223.45 1.99439 -4.18065 0
M  V30 12789 C 1224.19 2.36488 -5.22361 0
M  V30 12790 N 1223.68 2.72416 -6.36994 0
M  V30 12791 N 1225.48 2.36936 -5.09723 0
M  V30 12792 H 1217.63 -0.118625 -2.12068 0
M  V30 12793 H 1219.89 0.00959453 -0.947951 0
M  V30 12794 H 1219.6 0.626605 -3.46073 0
M  V30 12795 H 1219.47 2.31006 -2.98188 0
M  V30 12796 H 1221.86 2.16989 -1.99999 0
M  V30 12797 H 1221.94 0.47838 -2.51287 0
M  V30 12798 H 1221.58 1.21775 -4.93085 0
M  V30 12799 H 1221.51 2.9128 -4.38707 0
M  V30 12800 H 1224 1.74212 -3.35349 0
M  V30 12801 H 1224.32 2.99604 -7.1236 0
M  V30 12802 H 1222.66 2.70083 -6.40375 0
M  V30 12803 H 1225.85 2.08282 -4.19209 0
M  V30 12804 H 1226.03 2.65483 -5.9112 0
M  V30 12805 N 1219.43 1.33438 0.838571 0
M  V30 12806 C 1220.38 1.23717 1.94841 0
M  V30 12807 C 1221.35 0.11573 1.65696 0
M  V30 12808 O 1222.53 0.294051 1.8852 0
M  V30 12809 C 1219.67 0.982626 3.30815 0
M  V30 12810 C 1218.79 2.19036 3.72354 0
M  V30 12811 C 1217.92 1.86995 4.97199 0
M  V30 12812 C 1216.96 3.03998 5.31274 0
M  V30 12813 N 1216.1 2.71943 6.47295 0
M  V30 12814 H 1220.94 2.18639 2.02487 0
M  V30 12815 H 1218.48 1.08721 0.990861 0
M  V30 12816 H 1220.43 0.81548 4.09152 0
M  V30 12817 H 1219.06 0.0701443 3.22724 0
M  V30 12818 H 1218.12 2.46724 2.89537 0
M  V30 12819 H 1219.43 3.06505 3.93518 0
M  V30 12820 H 1218.58 1.66925 5.83285 0
M  V30 12821 H 1217.32 0.967628 4.78004 0
M  V30 12822 H 1216.33 3.24681 4.43692 0
M  V30 12823 H 1217.55 3.94985 5.52416 0
M  V30 12824 H 1215.5 1.8427 6.29588 0
M  V30 12825 H 1215.41 3.52943 6.68556 0
M  V30 12826 H 1216.68 2.55342 7.36492 0
M  V30 12827 N 1220.91 -1.05686 1.16912 0
M  V30 12828 C 1222.33 -1.30744 0.915327 0
M  V30 12829 C 1222.53 -1.96895 -0.428344 0
M  V30 12830 O 1221.58 -2.23941 -1.16647 0
M  V30 12831 C 1222.9 -2.18209 2.06894 0
M  V30 12832 C 1224.44 -2.31607 2.1054 0
M  V30 12833 C 1224.92 -3.2243 3.25273 0
M  V30 12834 N 1226.41 -3.30015 3.2503 0
M  V30 12835 C 1227.14 -4.00401 4.10447 0
M  V30 12836 N 1226.64 -4.73256 5.05965 0
M  V30 12837 N 1228.43 -3.96514 3.98413 0
M  V30 12838 H 1220.58 -0.611449 2.03409 0
M  V30 12839 H 1222.85 -0.332188 0.887894 0
M  V30 12840 H 1222.55 -1.76887 3.0398 0
M  V30 12841 H 1222.43 -3.18823 2.01573 0
M  V30 12842 H 1224.81 -2.72173 1.14044 0
M  V30 12843 H 1224.9 -1.30639 2.19925 0
M  V30 12844 H 1224.54 -2.82579 4.22032 0
M  V30 12845 H 1224.47 -4.23392 3.13125 0
M  V30 12846 H 1226.96 -2.781 2.55869 0
M  V30 12847 H 1227.27 -5.24509 5.67547 0
M  V30 12848 H 1225.62 -4.72215 5.09939 0
M  V30 12849 H 1228.81 -3.38719 3.2309 0
M  V30 12850 H 1228.98 -4.511 4.65202 0
M  V30 12851 N 1222.39 -0.968567 -1.24324 0
M  V30 12852 C 1223.62 -0.647628 -1.96187 0
M  V30 12853 C 1224.03 0.787267 -1.72043 0
M  V30 12854 O 1223.37 1.53996 -1.00155 0
M  V30 12855 C 1223.43 -0.843517 -3.49464 0
M  V30 12856 C 1223.1 -2.25822 -3.97308 0
M  V30 12857 C 1224.09 -3.23602 -4.06913 0
M  V30 12858 C 1221.78 -2.58614 -4.30609 0
M  V30 12859 C 1223.77 -4.5226 -4.49154 0
M  V30 12860 C 1221.46 -3.87499 -4.72534 0
M  V30 12861 C 1222.46 -4.84134 -4.81771 0
M  V30 12862 O 1222.14 -6.10719 -5.2276 0
M  V30 12863 H 1221.88 -0.240568 -0.631746 0
M  V30 12864 H 1224.43 -1.29926 -1.59086 0
M  V30 12865 H 1222.66 -0.134716 -3.86465 0
M  V30 12866 H 1224.35 -0.521533 -4.02536 0
M  V30 12867 H 1225.12 -2.99596 -3.81402 0
M  V30 12868 H 1220.99 -1.84116 -4.22637 0
M  V30 12869 H 1224.54 -5.27689 -4.56279 0
M  V30 12870 H 1220.44 -4.11305 -4.97492 0
M  V30 12871 H 1221.2 -6.14298 -5.40906 0
M  V30 12872 N 1223.87 1.39211 -0.738786 0
M  V30 12873 C 1225.09 2.05256 -0.297421 0
M  V30 12874 C 1225.52 1.55341 1.06069 0
M  V30 12875 O 1224.87 0.698823 1.67291 0
M  V30 12876 C 1224.92 3.59239 -0.312969 0
M  V30 12877 O 1224.03 4.06448 0.698112 0
M  V30 12878 H 1223.37 0.650245 -0.134454 0
M  V30 12879 H 1225.9 1.78173 -1.00577 0
M  V30 12880 H 1225.91 4.07691 -0.158675 0
M  V30 12881 H 1224.58 3.94931 -1.30394 0
M  V30 12882 H 1223.16 3.69401 0.509643 0
M  V30 12883 N 1225.34 0.486708 1.49896 0
M  V30 12884 C 1226.59 -0.0629451 2.02702 0
M  V30 12885 C 1226.92 -1.37956 1.36681 0
M  V30 12886 O 1226.2 -1.88025 0.497678 0
M  V30 12887 C 1226.48 -0.230461 3.59362 0
M  V30 12888 C 1226.33 1.10828 4.35933 0
M  V30 12889 C 1227.65 -0.977785 4.29101 0
M  V30 12890 H 1224.77 -0.0214017 0.736689 0
M  V30 12891 H 1227.41 0.635339 1.79063 0
M  V30 12892 H 1225.56 -0.825222 3.79634 0
M  V30 12893 H 1227.24 1.74082 4.27192 0
M  V30 12894 H 1225.48 1.7011 3.99055 0
M  V30 12895 H 1226.15 0.944532 5.43859 0
M  V30 12896 H 1228.63 -0.473505 4.13397 0
M  V30 12897 H 1227.5 -1.06382 5.38492 0
M  V30 12898 H 1227.76 -2.01813 3.9335 0
M  V30 12899 N 1226.82 -1.56058 0.219941 0
M  V30 12900 C 1228.1 -1.90087 -0.46112 0
M  V30 12901 C 1228.48 -1.13705 -1.77861 0
M  V30 12902 O 1227.83 -0.245868 -2.27173 0
M  V30 12903 C 1228.04 -3.42786 -0.655644 0
M  V30 12904 C 1229.39 -4.13517 -0.963803 0
M  V30 12905 O 1230.41 -3.48376 -0.742488 0
M  V30 12906 O 1229.27 -5.28692 -1.38374 0
M  V30 12907 H 1226.36 -0.790311 -0.243595 0
M  V30 12908 H 1228.91 -1.67665 0.262005 0
M  V30 12909 H 1227.68 -3.90341 0.273738 0
M  V30 12910 H 1227.3 -3.70982 -1.43032 0
M  V30 12911 N 1228.3 0.053464 -1.57509 0
M  V30 12912 C 1229.25 1.06155 -2.04939 0
M  V30 12913 C 1230.22 1.37382 -0.93357 0
M  V30 12914 O 1231.4 1.48137 -1.2025 0
M  V30 12915 C 1228.54 2.36476 -2.51343 0
M  V30 12916 C 1227.66 2.1162 -3.76618 0
M  V30 12917 C 1226.79 3.35636 -4.11731 0
M  V30 12918 C 1225.83 3.06226 -5.29993 0
M  V30 12919 N 1224.97 4.22623 -5.60655 0
M  V30 12920 H 1229.81 0.650122 -2.90822 0
M  V30 12921 H 1227.34 0.309421 -1.43809 0
M  V30 12922 H 1229.3 3.12588 -2.76306 0
M  V30 12923 H 1227.93 2.75386 -1.68411 0
M  V30 12924 H 1226.98 1.26116 -3.58886 0
M  V30 12925 H 1228.3 1.85909 -4.6286 0
M  V30 12926 H 1227.45 4.20132 -4.37692 0
M  V30 12927 H 1226.19 3.64439 -3.24092 0
M  V30 12928 H 1225.19 2.20128 -5.03809 0
M  V30 12929 H 1226.42 2.78726 -6.19265 0
M  V30 12930 H 1224.37 4.51424 -4.75976 0
M  V30 12931 H 1224.28 4.0025 -6.41355 0
M  V30 12932 H 1225.55 5.08063 -5.91178 0
M  V30 12933 N 1229.78 1.54207 0.325255 0
M  V30 12934 C 1231.01 1.76293 1.08298 0
M  V30 12935 C 1231.42 0.510722 1.81761 0
M  V30 12936 O 1230.78 -0.5185 1.7498 0
M  V30 12937 C 1230.83 2.95498 2.08238 0
M  V30 12938 O 1230.55 4.15877 1.37759 0
M  V30 12939 C 1232.05 3.29781 2.96242 0
M  V30 12940 H 1229.27 0.588576 0.322209 0
M  V30 12941 H 1231.82 2.0109 0.371896 0
M  V30 12942 H 1229.97 2.72979 2.74884 0
M  V30 12943 H 1230.39 4.82918 2.04672 0
M  V30 12944 H 1231.86 4.16495 3.62265 0
M  V30 12945 H 1232.34 2.46874 3.63249 0
M  V30 12946 H 1232.94 3.54372 2.3516 0
M  V30 12947 N 1231.26 -0.58723 1.46251 0
M  V30 12948 C 1232.19 -1.70694 1.5933 0
M  V30 12949 C 1233.17 -1.64208 0.443831 0
M  V30 12950 O 1234.35 -1.82294 0.669516 0
M  V30 12951 C 1231.48 -3.0933 1.579 0
M  V30 12952 C 1230.44 -3.30643 2.7177 0
M  V30 12953 C 1229.76 -4.69761 2.554 0
M  V30 12954 C 1231.06 -3.18916 4.1363 0
M  V30 12955 H 1232.76 -1.60004 2.53059 0
M  V30 12956 H 1230.3 -0.768343 1.21789 0
M  V30 12957 H 1232.26 -3.87479 1.65644 0
M  V30 12958 H 1230.98 -3.20907 0.60712 0
M  V30 12959 H 1229.64 -2.54892 2.63488 0
M  V30 12960 H 1229.29 -4.78098 1.56306 0
M  V30 12961 H 1228.99 -4.84974 3.31774 0
M  V30 12962 H 1230.51 -5.50084 2.65028 0
M  V30 12963 H 1231.93 -3.86915 4.23048 0
M  V30 12964 H 1230.32 -3.45653 4.90555 0
M  V30 12965 H 1231.39 -2.1606 4.34104 0
M  V30 12966 N 1232.74 -1.33881 -0.831482 0
M  V30 12967 C 1233.96 -1.28961 -1.62431 0
M  V30 12968 C 1234.39 0.135249 -1.87613 0
M  V30 12969 O 1233.74 1.09426 -1.44553 0
M  V30 12970 C 1233.79 -2.07767 -2.94729 0
M  V30 12971 O 1232.9 -1.44133 -3.86393 0
M  V30 12972 H 1232.24 -0.443313 -0.494337 0
M  V30 12973 H 1234.77 -1.76555 -1.0339 0
M  V30 12974 H 1234.78 -2.18806 -3.44366 0
M  V30 12975 H 1233.45 -3.11367 -2.75724 0
M  V30 12976 H 1232.03 -1.41784 -3.44894 0
M  V30 12977 N 1234.21 1.05064 -1.1747 0
M  V30 12978 C 1235.16 2.11131 -0.860692 0
M  V30 12979 C 1236.15 1.60049 0.165288 0
M  V30 12980 O 1237.34 1.76961 -0.0373288 0
M  V30 12981 C 1234.47 3.41222 -0.37718 0
M  V30 12982 C 1233.55 3.99097 -1.43466 0
M  V30 12983 N 1233.95 4.30918 -2.64846 0
M  V30 12984 C 1232.24 4.26851 -1.29282 0
M  V30 12985 C 1232.94 4.77092 -3.32804 0
M  V30 12986 N 1231.92 4.77291 -2.60182 0
M  V30 12987 H 1235.72 2.33597 -1.78353 0
M  V30 12988 H 1233.24 1.22724 -1.06361 0
M  V30 12989 H 1235.23 4.16685 -0.133766 0
M  V30 12990 H 1233.89 3.20188 0.53944 0
M  V30 12991 H 1234.9 4.20877 -3.01799 0
M  V30 12992 H 1231.58 4.15197 -0.437949 0
M  V30 12993 H 1232.97 5.10815 -4.36483 0
M  V30 12994 N 1235.69 0.975146 1.23809 0
M  V30 12995 C 1237.1 0.678873 1.7392 0
M  V30 12996 C 1237.45 -0.805133 1.78919 0
M  V30 12997 O 1236.58 -1.62984 1.42356 0
M  V30 12998 C 1237.17 1.22562 3.15854 0
M  V30 12999 C 1235.73 0.979096 3.63443 0
M  V30 13000 C 1234.88 1.35649 2.41857 0
M  V30 13001 H 1237.83 1.14961 1.09406 0
M  V30 13002 H 1237.85 0.595489 3.75811 0
M  V30 13003 H 1237.36 2.30571 3.12184 0
M  V30 13004 H 1235.46 -0.0851407 3.72503 0
M  V30 13005 H 1235.58 1.62998 4.5052 0
M  V30 13006 H 1233.94 0.774916 2.42626 0
M  V30 13007 H 1234.72 2.44624 2.40861 0
M  V30 13008 N 1237.17 -1.38817 0.746158 0
M  V30 13009 C 1238.42 -2.01049 0.308389 0
M  V30 13010 C 1238.77 -1.58162 -1.09556 0
M  V30 13011 O 1238.06 -0.805685 -1.73837 0
M  V30 13012 C 1238.26 -3.55571 0.361086 0
M  V30 13013 C 1238.09 -4.13461 1.76861 0
M  V30 13014 C 1236.86 -4.45556 2.38344 0
M  V30 13015 C 1239.05 -4.36233 2.72406 0
M  V30 13016 N 1237.04 -4.89011 3.71135 0
M  V30 13017 C 1238.41 -4.82016 3.8995 0
M  V30 13018 C 1240.46 -4.1832 2.70024 0
M  V30 13019 C 1239.17 -5.11763 5.05462 0
M  V30 13020 C 1241.19 -4.49187 3.84688 0
M  V30 13021 C 1240.55 -4.95186 5.00969 0
M  V30 13022 H 1236.65 -0.765593 0.159346 0
M  V30 13023 H 1239.24 -1.68556 0.97452 0
M  V30 13024 H 1237.41 -3.87427 -0.274742 0
M  V30 13025 H 1239.14 -4.04585 -0.0962937 0
M  V30 13026 H 1235.89 -4.33741 1.90172 0
M  V30 13027 H 1236.32 -5.15082 4.39339 0
M  V30 13028 H 1240.96 -3.8195 1.81312 0
M  V30 13029 H 1238.68 -5.47032 5.94795 0
M  V30 13030 H 1242.26 -4.36938 3.84156 0
M  V30 13031 H 1241.14 -5.18616 5.88224 0
M  V30 13032 N 1238.65 -0.49465 -1.49636 0
M  V30 13033 C 1239.58 0.276606 -2.31856 0
M  V30 13034 C 1240.56 0.968499 -1.39836 0
M  V30 13035 O 1241.74 0.96113 -1.68748 0
M  V30 13036 C 1238.87 1.34522 -3.20189 0
M  V30 13037 C 1237.83 0.773571 -4.20951 0
M  V30 13038 C 1237.15 1.94223 -4.98178 0
M  V30 13039 C 1238.45 -0.231096 -5.21788 0
M  V30 13040 H 1240.15 -0.409668 -2.96584 0
M  V30 13041 H 1237.69 -0.198461 -1.42626 0
M  V30 13042 H 1239.65 1.89244 -3.76517 0
M  V30 13043 H 1238.37 2.06059 -2.53392 0
M  V30 13044 H 1237.03 0.248144 -3.65759 0
M  V30 13045 H 1236.68 2.64514 -4.27834 0
M  V30 13046 H 1236.38 1.56584 -5.66353 0
M  V30 13047 H 1237.9 2.49391 -5.57348 0
M  V30 13048 H 1239.32 0.227768 -5.72847 0
M  V30 13049 H 1237.71 -0.522984 -5.97817 0
M  V30 13050 H 1238.78 -1.14914 -4.71087 0
M  V30 13051 N 1240.13 1.55939 -0.228214 0
M  V30 13052 C 1241.06 2.17874 0.711589 0
M  V30 13053 C 1242.07 1.14969 1.15265 0
M  V30 13054 O 1243.26 1.41919 1.08265 0
M  V30 13055 C 1240.36 2.75294 1.97652 0
M  V30 13056 C 1239.53 4.03435 1.68994 0
M  V30 13057 C 1238.59 4.45354 2.8026 0
M  V30 13058 O 1237.62 5.12117 2.48445 0
M  V30 13059 N 1238.82 4.11588 4.0936 0
M  V30 13060 H 1241.58 2.99148 0.181757 0
M  V30 13061 H 1239.15 1.6183 -0.0474567 0
M  V30 13062 H 1241.14 3.00305 2.71292 0
M  V30 13063 H 1239.71 1.98285 2.41665 0
M  V30 13064 H 1238.93 3.8621 0.789657 0
M  V30 13065 H 1240.22 4.87015 1.47287 0
M  V30 13066 H 1239.61 3.57953 4.38048 0
M  V30 13067 H 1238.17 4.41477 4.79522 0
M  V30 13068 N 1241.6 -0.0451101 1.57535 0
M  V30 13069 C 1242.88 -0.773625 1.79651 0
M  V30 13070 C 1243.26 -1.94422 0.822391 0
M  V30 13071 O 1242.61 -2.28077 -0.138913 0
M  V30 13072 C 1242.82 -1.22168 3.26919 0
M  V30 13073 C 1244.17 -1.64419 3.91474 0
M  V30 13074 O 1245.19 -1.31668 3.30971 0
M  V30 13075 O 1244.05 -2.25148 4.97967 0
M  V30 13076 H 1241.14 -0.372786 0.738214 0
M  V30 13077 H 1243.69 -0.0231245 1.69684 0
M  V30 13078 H 1242.46 -0.385302 3.89398 0
M  V30 13079 H 1242.09 -2.03269 3.41713 0
M  V30 13080 N 1243.08 -1.54377 -0.317073 0
M  V30 13081 C 1244.31 -1.76608 -1.07206 0
M  V30 13082 C 1244.72 -0.517818 -1.81976 0
M  V30 13083 O 1244.06 0.521375 -1.76146 0
M  V30 13084 C 1244.13 -2.91 -2.11091 0
M  V30 13085 C 1243.79 -4.29673 -1.55661 0
M  V30 13086 C 1244.79 -5.1029 -0.994999 0
M  V30 13087 C 1242.47 -4.76234 -1.59708 0
M  V30 13088 C 1244.47 -6.35581 -0.48123 0
M  V30 13089 C 1242.15 -6.01491 -1.07944 0
M  V30 13090 C 1243.15 -6.80999 -0.522467 0
M  V30 13091 O 1242.84 -8.03899 -0.0126274 0
M  V30 13092 H 1242.57 -0.593061 -0.32443 0
M  V30 13093 H 1245.12 -2.02097 -0.366859 0
M  V30 13094 H 1243.35 -2.61097 -2.85246 0
M  V30 13095 H 1245.04 -3.00954 -2.72363 0
M  V30 13096 H 1245.81 -4.7547 -0.956752 0
M  V30 13097 H 1241.69 -4.14387 -2.02 0
M  V30 13098 H 1245.23 -6.97585 -0.0458374 0
M  V30 13099 H 1241.13 -6.35801 -1.11478 0
M  V30 13100 H 1241.9 -8.18401 -0.127442 0
M  V30 13101 N 1244.56 0.579466 -1.4656 0
M  V30 13102 C 1245.49 1.70291 -1.53406 0
M  V30 13103 C 1246.51 1.57232 -0.422116 0
M  V30 13104 O 1247.69 1.64598 -0.69064 0
M  V30 13105 C 1244.79 3.08572 -1.40131 0
M  V30 13106 C 1243.97 3.47602 -2.65502 0
M  V30 13107 C 1243.03 4.64955 -2.4638 0
M  V30 13108 O 1242.05 4.70653 -3.20116 0
M  V30 13109 N 1243.25 5.60041 -1.52756 0
M  V30 13110 H 1246.02 1.64873 -2.50274 0
M  V30 13111 H 1243.58 0.765533 -1.42658 0
M  V30 13112 H 1245.57 3.84877 -1.25106 0
M  V30 13113 H 1244.14 3.0834 -0.514322 0
M  V30 13114 H 1243.36 2.60969 -2.95446 0
M  V30 13115 H 1244.65 3.70446 -3.48779 0
M  V30 13116 H 1244.05 5.58176 -0.919587 0
M  V30 13117 H 1242.61 6.35764 -1.43693 0
M  V30 13118 N 1246.04 1.3432 0.824371 0
M  V30 13119 C 1247.27 1.29669 1.61226 0
M  V30 13120 C 1247.68 -0.129532 1.88355 0
M  V30 13121 O 1247.04 -1.07616 1.47394 0
M  V30 13122 C 1247.09 2.08375 2.95402 0
M  V30 13123 O 1246.81 3.45434 2.69456 0
M  V30 13124 C 1248.31 2.11103 3.89808 0
M  V30 13125 H 1245.53 0.446137 0.501201 0
M  V30 13126 H 1248.08 1.76912 1.02579 0
M  V30 13127 H 1246.23 1.64777 3.5061 0
M  V30 13128 H 1246.64 3.86101 3.55001 0
M  V30 13129 H 1248.12 2.706 4.81124 0
M  V30 13130 H 1248.6 1.10505 4.25071 0
M  V30 13131 H 1249.2 2.54784 3.40537 0
M  V30 13132 N 1247.52 -1.0444 1.18026 0
M  V30 13133 C 1248.76 -1.77972 0.984767 0
M  V30 13134 C 1249.12 -1.86294 -0.480861 0
M  V30 13135 O 1248.41 -1.35724 -1.35239 0
M  V30 13136 C 1248.6 -3.21134 1.56869 0
M  V30 13137 C 1248.43 -3.26765 3.08958 0
M  V30 13138 C 1247.2 -3.35612 3.77747 0
M  V30 13139 C 1249.4 -3.15083 4.06482 0
M  V30 13140 N 1247.38 -3.30454 5.17372 0
M  V30 13141 C 1248.75 -3.17382 5.32606 0
M  V30 13142 C 1250.81 -2.99099 3.98051 0
M  V30 13143 C 1249.51 -3.05338 6.51277 0
M  V30 13144 C 1251.54 -2.88399 5.16314 0
M  V30 13145 C 1250.9 -2.91338 6.41328 0
M  V30 13146 H 1247 -0.66322 0.414323 0
M  V30 13147 H 1249.58 -1.24444 1.49739 0
M  V30 13148 H 1247.75 -3.73016 1.0823 0
M  V30 13149 H 1249.49 -3.82943 1.30908 0
M  V30 13150 H 1246.24 -3.41189 3.28462 0
M  V30 13151 H 1246.67 -3.31324 5.90384 0
M  V30 13152 H 1251.31 -2.95659 3.02234 0
M  V30 13153 H 1249.03 -3.07531 7.47296 0
M  V30 13154 H 1252.61 -2.77091 5.11578 0
M  V30 13155 H 1251.49 -2.83141 7.31301 0
M  V30 13156 N 1248.99 -0.981699 -1.2329 0
M  V30 13157 C 1249.92 -0.542441 -2.27112 0
M  V30 13158 C 1250.91 0.425034 -1.64704 0
M  V30 13159 O 1252.09 0.318114 -1.91577 0
M  V30 13160 C 1249.22 0.154668 -3.46955 0
M  V30 13161 C 1248.17 -0.73022 -4.21725 0
M  V30 13162 C 1247.5 0.0991766 -5.34608 0
M  V30 13163 C 1248.8 -2.02166 -4.81587 0
M  V30 13164 H 1250.49 -1.41024 -2.64107 0
M  V30 13165 H 1248.04 -0.679544 -1.26957 0
M  V30 13166 H 1249.99 0.473281 -4.18734 0
M  V30 13167 H 1248.72 1.05693 -3.09025 0
M  V30 13168 H 1247.38 -1.03231 -3.51765 0
M  V30 13169 H 1247.02 1.00201 -4.92919 0
M  V30 13170 H 1246.72 -0.489788 -5.85555 0
M  V30 13171 H 1248.25 0.412141 -6.09207 0
M  V30 13172 H 1249.66 -1.76773 -5.45366 0
M  V30 13173 H 1248.06 -2.55851 -5.42826 0
M  V30 13174 H 1249.13 -2.70766 -4.02261 0
M  V30 13175 N 1250.47 1.3842 -0.753509 0
M  V30 13176 C 1251.75 1.94181 -0.235142 0
M  V30 13177 C 1252.13 1.68881 1.26659 0
M  V30 13178 O 1251.48 1.02731 2.04104 0
M  V30 13179 C 1251.69 3.43998 -0.588751 0
M  V30 13180 C 1253.04 4.21044 -0.548352 0
M  V30 13181 O 1254.06 3.52279 -0.52704 0
M  V30 13182 O 1252.92 5.43631 -0.559221 0
M  V30 13183 H 1250.01 0.825536 -0.0491834 0
M  V30 13184 H 1252.56 1.47813 -0.833626 0
M  V30 13185 H 1251.33 3.55921 -1.6259 0
M  V30 13186 H 1250.95 3.97582 0.0377429 0
M  V30 13187 N 1251.95 0.502579 1.49372 0
M  V30 13188 C 1252.88 -0.264307 2.31999 0
M  V30 13189 C 1253.86 -0.96107 1.40348 0
M  V30 13190 O 1255.05 -0.952167 1.69255 0
M  V30 13191 C 1252.18 -1.32822 3.20898 0
M  V30 13192 C 1251.13 -0.751236 4.21355 0
M  V30 13193 C 1250.46 -1.91578 4.99201 0
M  V30 13194 C 1251.76 0.258764 5.21659 0
M  V30 13195 H 1253.45 0.425391 2.96363 0
M  V30 13196 H 1251 0.206022 1.42519 0
M  V30 13197 H 1252.95 -1.87245 3.77515 0
M  V30 13198 H 1251.67 -2.04712 2.54481 0
M  V30 13199 H 1250.33 -0.228743 3.65886 0
M  V30 13200 H 1249.98 -2.62241 4.2923 0
M  V30 13201 H 1249.68 -1.53578 5.67175 0
M  V30 13202 H 1251.2 -2.46432 5.58663 0
M  V30 13203 H 1252.62 -0.197385 5.7296 0
M  V30 13204 H 1251.02 0.554681 5.97531 0
M  V30 13205 H 1252.09 1.1741 4.70471 0
M  V30 13206 N 1253.43 -1.55816 0.23648 0
M  V30 13207 C 1254.84 -1.59159 -0.118601 0
M  V30 13208 C 1255.04 -1.25352 -1.57763 0
M  V30 13209 O 1254.1 -0.995863 -2.32032 0
M  V30 13210 C 1255.41 -2.99885 0.221175 0
M  V30 13211 C 1256.96 -3.12567 0.164624 0
M  V30 13212 C 1257.44 -4.55496 0.478285 0
M  V30 13213 N 1258.93 -4.61215 0.428402 0
M  V30 13214 C 1259.66 -5.69768 0.644398 0
M  V30 13215 N 1259.16 -6.86624 0.922966 0
M  V30 13216 N 1260.95 -5.59143 0.575814 0
M  V30 13217 H 1253.1 -1.76063 1.18809 0
M  V30 13218 H 1255.37 -0.819079 0.477297 0
M  V30 13219 H 1255.07 -3.29326 1.2344 0
M  V30 13220 H 1254.95 -3.74425 -0.456723 0
M  V30 13221 H 1257.33 -2.82914 -0.839263 0
M  V30 13222 H 1257.41 -2.40325 0.876219 0
M  V30 13223 H 1257.06 -4.85868 1.47968 0
M  V30 13224 H 1256.99 -5.25984 -0.254671 0
M  V30 13225 H 1259.48 -3.77251 0.221398 0
M  V30 13226 H 1259.79 -7.6528 1.07548 0
M  V30 13227 H 1258.14 -6.88333 0.960325 0
M  V30 13228 H 1261.33 -4.66727 0.358307 0
M  V30 13229 H 1261.5 -6.43674 0.747548 0
M  V30 13230 N 1254.91 0.036755 -1.57557 0
M  V30 13231 C 1255.82 1.05687 -2.09446 0
M  V30 13232 C 1256.83 1.40137 -1.03139 0
M  V30 13233 O 1258.01 1.49611 -1.34828 0
M  V30 13234 C 1255.07 2.34114 -2.55717 0
M  V30 13235 C 1254.13 2.06316 -3.76473 0
M  V30 13236 C 1253.37 3.2862 -4.20529 0
M  V30 13237 O 1253.59 4.3902 -3.64167 0
M  V30 13238 O 1252.52 3.14772 -5.13033 0
M  V30 13239 H 1256.35 0.64593 -2.96751 0
M  V30 13240 H 1253.94 0.253235 -1.47238 0
M  V30 13241 H 1255.82 3.09631 -2.85844 0
M  V30 13242 H 1254.49 2.74519 -1.71526 0
M  V30 13243 H 1253.4 1.28392 -3.51378 0
M  V30 13244 H 1254.73 1.70772 -4.61625 0
M  V30 13245 N 1256.39 1.54543 0.308881 0
M  V30 13246 C 1257.32 1.87947 1.38557 0
M  V30 13247 C 1258.3 0.737622 1.53275 0
M  V30 13248 O 1259.48 0.992664 1.66913 0
M  V30 13249 C 1256.61 2.11982 2.75102 0
M  V30 13250 C 1255.57 3.2783 2.75158 0
M  V30 13251 C 1254.89 3.37266 4.14917 0
M  V30 13252 C 1256.19 4.65129 2.37598 0
M  V30 13253 H 1257.89 2.78123 1.1085 0
M  V30 13254 H 1255.43 1.3382 0.531808 0
M  V30 13255 H 1257.38 2.33935 3.50503 0
M  V30 13256 H 1256.11 1.18569 3.04317 0
M  V30 13257 H 1254.77 3.05787 2.02212 0
M  V30 13258 H 1254.42 2.41384 4.41296 0
M  V30 13259 H 1254.12 4.15135 4.15857 0
M  V30 13260 H 1255.64 3.61471 4.92109 0
M  V30 13261 H 1257.05 4.86865 3.02714 0
M  V30 13262 H 1255.45 5.45653 2.49765 0
M  V30 13263 H 1256.52 4.6638 1.32731 0
M  V30 13264 N 1257.86 -0.571685 1.46866 0
M  V30 13265 C 1258.77 -1.70758 1.60869 0
M  V30 13266 C 1259.79 -1.66903 0.49186 0
M  V30 13267 O 1260.97 -1.86613 0.757468 0
M  V30 13268 C 1258.03 -3.07267 1.60586 0
M  V30 13269 C 1257.09 -3.22301 2.83585 0
M  V30 13270 C 1256.32 -4.52298 2.83306 0
M  V30 13271 O 1256.55 -5.36869 1.92685 0
M  V30 13272 O 1255.48 -4.70814 3.7499 0
M  V30 13273 H 1259.31 -1.6189 2.56954 0
M  V30 13274 H 1256.89 -0.740018 1.29785 0
M  V30 13275 H 1258.77 -3.8853 1.63163 0
M  V30 13276 H 1257.45 -3.16549 0.676637 0
M  V30 13277 H 1256.36 -2.4049 2.86558 0
M  V30 13278 H 1257.69 -3.17916 3.75753 0
M  V30 13279 N 1259.34 -1.34755 -0.817236 0
M  V30 13280 C 1260.58 -1.28786 -1.58725 0
M  V30 13281 C 1260.95 0.138807 -1.91498 0
M  V30 13282 O 1262.15 0.322743 -2.66855 0
M  V30 13283 C 1260.42 -2.15907 -2.84814 0
M  V30 13284 S 1261.98 -2.27347 -3.75311 0
M  V30 13285 H 1258.79 -0.457844 -0.543967 0
M  V30 13286 H 1261.4 -1.70031 -0.96487 0
M  V30 13287 H 1260.1 -3.18559 -2.58744 0
M  V30 13288 H 1259.63 -1.7558 -3.52044 0
M  V30 13289 H 1261.65 -1.45044 -4.74528 0
M  V30 13290 N 1260.82 1.03812 -1.18578 0
M  V30 13291 C 1261.77 2.11883 -0.915115 0
M  V30 13292 C 1262.74 1.65453 0.146479 0
M  V30 13293 O 1263.92 1.90799 0.00630058 0
M  V30 13294 C 1261.06 3.42157 -0.449755 0
M  V30 13295 C 1260.17 4.02185 -1.57706 0
M  V30 13296 C 1259.31 5.20431 -1.06417 0
M  V30 13297 C 1258.35 5.72496 -2.16599 0
M  V30 13298 N 1257.49 6.82027 -1.66685 0
M  V30 13299 H 1262.33 2.34373 -1.84047 0
M  V30 13300 H 1259.86 1.14962 -0.917728 0
M  V30 13301 H 1261.82 4.16888 -0.161407 0
M  V30 13302 H 1260.45 3.19806 0.438622 0
M  V30 13303 H 1259.5 3.24757 -1.98083 0
M  V30 13304 H 1260.81 4.36851 -2.40754 0
M  V30 13305 H 1259.97 6.02286 -0.730497 0
M  V30 13306 H 1258.71 4.87276 -0.203301 0
M  V30 13307 H 1257.71 4.8926 -2.50808 0
M  V30 13308 H 1258.94 6.07694 -3.03126 0
M  V30 13309 H 1256.88 6.50742 -0.828916 0
M  V30 13310 H 1256.8 7.1577 -2.43329 0
M  V30 13311 H 1258.07 7.67499 -1.36253 0
M  V30 13312 N 1262.3 0.988223 1.22768 0
M  V30 13313 C 1263.55 0.656941 1.90702 0
M  V30 13314 C 1263.86 -0.814058 1.77855 0
M  V30 13315 O 1265.07 -1.25673 2.40663 0
M  V30 13316 C 1263.52 1.12445 3.41883 0
M  V30 13317 C 1263.13 2.62034 3.63376 0
M  V30 13318 C 1264.87 0.867277 4.15546 0
M  V30 13319 C 1262.78 3.02412 5.08233 0
M  V30 13320 H 1261.71 0.242012 0.714105 0
M  V30 13321 H 1264.36 1.19716 1.39069 0
M  V30 13322 H 1262.74 0.512386 3.92671 0
M  V30 13323 H 1263.92 3.28546 3.23101 0
M  V30 13324 H 1262.23 2.85583 3.03037 0
M  V30 13325 H 1264.83 1.14471 5.22303 0
M  V30 13326 H 1265.17 -0.196611 4.15835 0
M  V30 13327 H 1265.71 1.4413 3.70771 0
M  V30 13328 H 1262.44 4.07957 5.1308 0
M  V30 13329 H 1261.96 2.406 5.49429 0
M  V30 13330 H 1263.64 2.93452 5.76624 0
M  V30 13331 N 1263.78 -1.38018 0.760839 0
M  V30 13332 C 1265.02 -1.99557 0.319609 0
M  V30 13333 C 1265.34 -1.60699 -1.10457 0
M  V30 13334 O 1264.61 -0.867248 -1.75658 0
M  V30 13335 H 1263.19 -0.738066 0.115182 0
M  V30 13336 H 1265.86 -1.6867 0.976544 0
M  V30 13337 H 1264.95 -3.09672 0.388523 0
M  V30 13338 N 1265.25 -0.510493 -1.49103 0
M  V30 13339 C 1266.16 0.267176 -2.33074 0
M  V30 13340 C 1267.18 0.958117 -1.45245 0
M  V30 13341 O 1268.36 0.937399 -1.78255 0
M  V30 13342 C 1265.42 1.31212 -3.20911 0
M  V30 13343 C 1264.48 0.633613 -4.24598 0
M  V30 13344 C 1263.71 1.62878 -5.08239 0
M  V30 13345 O 1263.94 2.85958 -4.93543 0
M  V30 13346 O 1262.87 1.17887 -5.90242 0
M  V30 13347 H 1266.7 -0.420384 -3.00776 0
M  V30 13348 H 1264.28 -0.271683 -1.46909 0
M  V30 13349 H 1266.16 1.91647 -3.75299 0
M  V30 13350 H 1264.84 1.98244 -2.55892 0
M  V30 13351 H 1263.75 -0.0107246 -3.74098 0
M  V30 13352 H 1265.08 0.0055777 -4.922 0
M  V30 13353 N 1266.73 1.55688 -0.24474 0
M  V30 13354 C 1268.15 1.59219 0.110159 0
M  V30 13355 C 1268.35 1.26187 1.57096 0
M  V30 13356 O 1267.4 1.00815 2.31501 0
M  V30 13357 C 1268.72 2.99764 -0.237075 0
M  V30 13358 C 1270.26 3.12475 -0.181198 0
M  V30 13359 C 1270.74 4.55236 -0.502435 0
M  V30 13360 N 1272.23 4.60981 -0.452855 0
M  V30 13361 C 1272.97 5.69418 -0.674605 0
M  V30 13362 N 1272.46 6.86125 -0.959366 0
M  V30 13363 N 1274.25 5.5883 -0.605459 0
M  V30 13364 H 1266.41 1.7543 -1.19741 0
M  V30 13365 H 1268.67 0.816537 -0.481634 0
M  V30 13366 H 1268.37 3.28666 -1.25185 0
M  V30 13367 H 1268.25 3.74662 0.436859 0
M  V30 13368 H 1270.64 2.83355 0.824248 0
M  V30 13369 H 1270.72 2.39857 -0.888952 0
M  V30 13370 H 1270.36 4.85077 -1.50543 0
M  V30 13371 H 1270.29 5.26111 0.226773 0
M  V30 13372 H 1272.78 3.77128 -0.241401 0
M  V30 13373 H 1273.09 7.64699 -1.11605 0
M  V30 13374 H 1271.44 6.87814 -0.996816 0
M  V30 13375 H 1274.63 4.6653 -0.383053 0
M  V30 13376 H 1274.8 6.43268 -0.781673 0
M  V30 13377 N 1268.21 -0.0283989 1.57574 0
M  V30 13378 C 1269.44 -0.729772 1.93282 0
M  V30 13379 C 1269.85 -1.69384 0.842959 0
M  V30 13380 O 1269.19 -1.82722 -0.189286 0
M  V30 13381 C 1269.25 -1.54107 3.24794 0
M  V30 13382 C 1268.92 -0.741709 4.50941 0
M  V30 13383 C 1269.91 -0.0416985 5.19883 0
M  V30 13384 C 1267.6 -0.696053 4.97454 0
M  V30 13385 C 1269.59 0.693261 6.33619 0
M  V30 13386 C 1267.28 0.042651 6.11085 0
M  V30 13387 C 1268.28 0.736067 6.79022 0
M  V30 13388 O 1267.97 1.46278 7.9048 0
M  V30 13389 H 1267.7 -0.210092 0.642524 0
M  V30 13390 H 1270.25 0.0102277 2.05397 0
M  V30 13391 H 1268.48 -2.3249 3.09007 0
M  V30 13392 H 1270.17 -2.12512 3.45823 0
M  V30 13393 H 1270.94 -0.0679975 4.84952 0
M  V30 13394 H 1266.82 -1.22528 4.44419 0
M  V30 13395 H 1270.36 1.23504 6.8658 0
M  V30 13396 H 1266.26 0.0708708 6.45461 0
M  V30 13397 H 1267.02 1.37652 8.06842 0
M  V30 13398 N 1269.69 -1.54705 -0.300681 0
M  V30 13399 C 1270.94 -1.73211 -1.03349 0
M  V30 13400 C 1271.25 -0.52518 -1.88418 0
M  V30 13401 O 1272.46 -0.592049 -2.64966 0
M  V30 13402 C 1270.91 -3.06453 -1.88717 0
M  V30 13403 C 1270.52 -4.34625 -1.0865 0
M  V30 13404 C 1272.26 -3.34317 -2.61595 0
M  V30 13405 C 1270.17 -5.58919 -1.93297 0
M  V30 13406 H 1269.1 -0.64556 -0.389574 0
M  V30 13407 H 1271.75 -1.81186 -0.290472 0
M  V30 13408 H 1270.13 -2.92443 -2.67008 0
M  V30 13409 H 1271.31 -4.59471 -0.349707 0
M  V30 13410 H 1269.62 -4.13699 -0.473521 0
M  V30 13411 H 1272.22 -4.2438 -3.25278 0
M  V30 13412 H 1272.56 -2.53207 -3.30442 0
M  V30 13413 H 1273.1 -3.493 -1.90354 0
M  V30 13414 H 1269.83 -6.42697 -1.2892 0
M  V30 13415 H 1269.35 -5.38258 -2.64647 0
M  V30 13416 H 1271.03 -5.96187 -2.51336 0
M  V30 13417 N 1271.17 0.563888 -1.47167 0
M  V30 13418 C 1272.39 1.34693 -1.57052 0
M  V30 13419 C 1272.81 1.87534 -0.218308 0
M  V30 13420 O 1272.17 1.64639 0.787416 0
M  V30 13421 C 1272.22 2.52148 -2.59044 0
M  V30 13422 O 1271.94 2.01492 -3.89015 0
M  V30 13423 C 1273.44 3.4445 -2.7905 0
M  V30 13424 H 1270.66 0.410822 -0.530534 0
M  V30 13425 H 1273.2 0.683731 -1.92731 0
M  V30 13426 H 1271.36 3.14419 -2.26317 0
M  V30 13427 H 1271.77 2.78122 -4.44689 0
M  V30 13428 H 1273.25 4.23297 -3.54293 0
M  V30 13429 H 1273.72 3.97575 -1.86631 0
M  V30 13430 H 1274.33 2.88 -3.12948 0
M  V30 13431 N 1272.64 1.35187 0.810078 0
M  V30 13432 C 1273.59 1.24366 1.91094 0
M  V30 13433 C 1274.58 0.139718 1.60292 0
M  V30 13434 O 1275.77 0.370609 1.73077 0
M  V30 13435 C 1272.9 1.01434 3.27973 0
M  V30 13436 C 1271.99 2.16203 3.64852 0
M  V30 13437 N 1272.38 3.41408 3.73195 0
M  V30 13438 C 1270.67 2.07512 3.94784 0
M  V30 13439 C 1271.38 4.16858 4.05714 0
M  V30 13440 N 1270.35 3.45579 4.19614 0
M  V30 13441 H 1274.15 2.19232 1.95741 0
M  V30 13442 H 1271.67 1.2761 1.00447 0
M  V30 13443 H 1273.66 0.91771 4.06674 0
M  V30 13444 H 1272.32 0.074495 3.24615 0
M  V30 13445 H 1273.34 3.75802 3.56361 0
M  V30 13446 H 1270.01 1.21362 3.99472 0
M  V30 13447 H 1271.4 5.25039 4.19266 0
M  V30 13448 N 1274.12 -1.03182 1.19127 0
M  V30 13449 C 1275.03 -2.14875 0.94159 0
M  V30 13450 C 1276.05 -1.73727 -0.0973872 0
M  V30 13451 O 1277.22 -2.01214 0.0865775 0
M  V30 13452 C 1274.29 -3.43356 0.480366 0
M  V30 13453 C 1273.35 -3.98835 1.58838 0
M  V30 13454 C 1272.58 -5.21183 1.14907 0
M  V30 13455 O 1272.81 -5.70399 0.0114141 0
M  V30 13456 O 1271.74 -5.69423 1.95042 0
M  V30 13457 H 1275.57 -2.38799 1.8764 0
M  V30 13458 H 1273.15 -1.13299 0.973841 0
M  V30 13459 H 1275.03 -4.20763 0.231658 0
M  V30 13460 H 1273.71 -3.20884 -0.426041 0
M  V30 13461 H 1272.62 -3.22776 1.8912 0
M  V30 13462 H 1273.95 -4.25665 2.47123 0
M  V30 13463 N 1275.6 -0.99472 -1.22242 0
M  V30 13464 C 1276.83 -0.689809 -1.95592 0
M  V30 13465 C 1277.25 0.739321 -1.72961 0
M  V30 13466 O 1276.61 1.50563 -1.00997 0
M  V30 13467 C 1276.66 -1.00367 -3.46351 0
M  V30 13468 O 1275.76 -0.103326 -4.12271 0
M  V30 13469 H 1275.1 -0.257997 -0.611828 0
M  V30 13470 H 1277.63 -1.33219 -1.55286 0
M  V30 13471 H 1277.64 -0.946259 -3.96875 0
M  V30 13472 H 1276.32 -2.04504 -3.62148 0
M  V30 13473 H 1274.89 -0.216374 -3.72272 0
M  V30 13474 N 1277.08 1.37613 -0.768148 0
M  V30 13475 C 1278.36 1.93921 -0.255724 0
M  V30 13476 C 1278.74 1.70215 1.2486 0
M  V30 13477 O 1278.08 1.0489 2.03003 0
M  V30 13478 C 1278.29 3.43354 -0.625204 0
M  V30 13479 C 1279.64 4.20439 -0.592978 0
M  V30 13480 O 1280.67 3.51701 -0.564375 0
M  V30 13481 O 1279.52 5.43008 -0.616849 0
M  V30 13482 H 1276.62 0.824968 -0.0579366 0
M  V30 13483 H 1279.16 1.46921 -0.849257 0
M  V30 13484 H 1277.94 3.54177 -1.66356 0
M  V30 13485 H 1277.56 3.976 -0.00442816 0
M  V30 13486 N 1278.56 0.518393 1.4883 0
M  V30 13487 C 1279.83 -0.0837498 1.95421 0
M  V30 13488 C 1280.21 -1.52435 1.46037 0
M  V30 13489 O 1279.56 -2.18093 0.681736 0
M  V30 13490 C 1279.77 0.0215333 3.48993 0
M  V30 13491 C 1281.12 -0.143615 4.24357 0
M  V30 13492 O 1282.14 -0.0528223 3.56161 0
M  V30 13493 O 1281 -0.332231 5.45489 0
M  V30 13494 H 1278.1 -0.0857132 0.822546 0
M  V30 13495 H 1280.64 0.582169 1.59402 0
M  V30 13496 H 1279.41 1.02549 3.77623 0
M  V30 13497 H 1279.04 -0.683756 3.91677 0
M  V30 13498 N 1280.03 -1.55556 0.252993 0
M  V30 13499 C 1280.96 -2.24613 -0.638047 0
M  V30 13500 C 1281.95 -1.22852 -1.1765 0
M  V30 13501 O 1283.13 -1.51519 -1.21472 0
M  V30 13502 C 1280.26 -2.95029 -1.83236 0
M  V30 13503 C 1279.21 -4.03531 -1.42641 0
M  V30 13504 C 1278.54 -4.61404 -2.70204 0
M  V30 13505 C 1279.84 -5.18923 -0.592958 0
M  V30 13506 H 1281.53 -2.99335 -0.0621918 0
M  V30 13507 H 1279.08 -1.43972 -0.0284722 0
M  V30 13508 H 1281.03 -3.42042 -2.46141 0
M  V30 13509 H 1279.76 -2.17805 -2.43369 0
M  V30 13510 H 1278.42 -3.57296 -0.820672 0
M  V30 13511 H 1278.06 -3.80874 -3.28548 0
M  V30 13512 H 1277.76 -5.34652 -2.43764 0
M  V30 13513 H 1279.29 -5.11154 -3.33997 0
M  V30 13514 H 1280.7 -5.62124 -1.12646 0
M  V30 13515 H 1279.1 -5.98598 -0.424358 0
M  V30 13516 H 1280.17 -4.83301 0.393434 0
M  V30 13517 N 1281.51 0.0200419 -1.57587 0
M  V30 13518 C 1282.93 0.375834 -1.55112 0
M  V30 13519 C 1283.13 1.76047 -0.980297 0
M  V30 13520 O 1282.18 2.45138 -0.605297 0
M  V30 13521 C 1283.5 0.269418 -2.99491 0
M  V30 13522 C 1285.05 0.345838 -3.11084 0
M  V30 13523 C 1285.52 0.268771 -4.57211 0
M  V30 13524 N 1287.01 0.32729 -4.62042 0
M  V30 13525 C 1287.75 0.290688 -5.72663 0
M  V30 13526 N 1287.24 0.205851 -6.92494 0
M  V30 13527 N 1289.04 0.341082 -5.61064 0
M  V30 13528 H 1281.19 -0.885979 -1.93039 0
M  V30 13529 H 1283.45 -0.337753 -0.885792 0
M  V30 13530 H 1283.16 -0.682452 -3.45015 0
M  V30 13531 H 1283.03 1.0595 -3.62014 0
M  V30 13532 H 1285.42 1.28814 -2.65501 0
M  V30 13533 H 1285.5 -0.47376 -2.51375 0
M  V30 13534 H 1285.14 -0.669906 -5.03463 0
M  V30 13535 H 1285.07 1.10659 -5.14842 0
M  V30 13536 H 1287.56 0.395004 -3.7583 0
M  V30 13537 H 1287.88 0.18327 -7.72583 0
M  V30 13538 H 1286.22 0.171768 -6.94788 0
M  V30 13539 H 1289.41 0.405415 -4.66341 0
M  V30 13540 H 1289.58 0.309091 -6.47262 0
M  V30 13541 N 1282.99 1.54862 0.292472 0
M  V30 13542 C 1284.24 1.75735 1.02415 0
M  V30 13543 C 1284.59 0.541197 1.84632 0
M  V30 13544 O 1283.88 -0.466345 1.85838 0
M  V30 13545 C 1284.08 2.99214 1.95463 0
M  V30 13546 C 1283.91 4.32722 1.22401 0
M  V30 13547 C 1282.68 4.96334 0.947659 0
M  V30 13548 C 1284.88 5.10499 0.62416 0
M  V30 13549 N 1282.86 6.13611 0.188198 0
M  V30 13550 C 1284.23 6.2 -0.00210199 0
M  V30 13551 C 1286.28 4.9507 0.530059 0
M  V30 13552 C 1284.99 7.15754 -0.713371 0
M  V30 13553 C 1287.01 5.91163 -0.167575 0
M  V30 13554 C 1286.37 7.00039 -0.782653 0
M  V30 13555 H 1282.47 0.695548 0.357403 0
M  V30 13556 H 1285.06 1.92346 0.301849 0
M  V30 13557 H 1283.23 2.84013 2.64936 0
M  V30 13558 H 1284.96 3.08575 2.61846 0
M  V30 13559 H 1281.72 4.56861 1.24799 0
M  V30 13560 H 1282.14 6.76765 -0.178295 0
M  V30 13561 H 1286.78 4.11015 0.991288 0
M  V30 13562 H 1284.5 7.99344 -1.18634 0
M  V30 13563 H 1288.09 5.81303 -0.240442 0
M  V30 13564 H 1286.97 7.73115 -1.31389 0
M  V30 13565 N 1284.47 -0.556076 1.47464 0
M  V30 13566 C 1285.38 -1.69043 1.62671 0
M  V30 13567 C 1286.39 -1.66372 0.509535 0
M  V30 13568 O 1287.57 -1.85799 0.777218 0
M  V30 13569 C 1284.64 -3.05546 1.63836 0
M  V30 13570 C 1283.7 -3.19275 2.86988 0
M  V30 13571 C 1282.93 -4.49267 2.88088 0
M  V30 13572 O 1283.15 -5.34796 1.98368 0
M  V30 13573 O 1282.09 -4.66811 3.79962 0
M  V30 13574 H 1285.91 -1.59155 2.58657 0
M  V30 13575 H 1283.5 -0.726211 1.30562 0
M  V30 13576 H 1285.38 -3.86778 1.67275 0
M  V30 13577 H 1284.05 -3.15814 0.710173 0
M  V30 13578 H 1282.96 -2.37437 2.89093 0
M  V30 13579 H 1284.29 -3.13912 3.79104 0
M  V30 13580 N 1285.95 -1.35615 -0.802897 0
M  V30 13581 C 1286.89 -1.28839 -1.91492 0
M  V30 13582 C 1287.86 -0.159621 -1.65331 0
M  V30 13583 O 1289.05 -0.343931 -1.87675 0
M  V30 13584 C 1286.19 -1.06999 -3.28093 0
M  V30 13585 C 1285.3 -2.28831 -3.66416 0
M  V30 13586 C 1284.44 -2.00111 -4.92066 0
M  V30 13587 C 1283.48 -3.17977 -5.23027 0
M  V30 13588 N 1282.61 -2.89009 -6.39858 0
M  V30 13589 H 1287.45 -2.2393 -1.96619 0
M  V30 13590 H 1284.99 -1.1131 -0.961687 0
M  V30 13591 H 1286.95 -0.923673 -4.06847 0
M  V30 13592 H 1285.58 -0.155684 -3.22424 0
M  V30 13593 H 1284.63 -2.54314 -2.82893 0
M  V30 13594 H 1285.94 -3.1683 -3.85253 0
M  V30 13595 H 1285.1 -1.82331 -5.78654 0
M  V30 13596 H 1283.84 -1.09402 -4.75271 0
M  V30 13597 H 1282.84 -3.3633 -4.34928 0
M  V30 13598 H 1284.07 -4.09493 -5.41749 0
M  V30 13599 H 1282.01 -2.00898 -6.24481 0
M  V30 13600 H 1281.93 -3.70544 -6.58964 0
M  V30 13601 H 1283.2 -2.74779 -7.29463 0
M  V30 13602 N 1287.43 1.02549 -1.19673 0
M  V30 13603 C 1288.66 1.79363 -1.02531 0
M  V30 13604 C 1289.06 1.84274 0.42893 0
M  V30 13605 O 1288.41 1.28813 1.30969 0
M  V30 13606 C 1288.47 3.2567 -1.52248 0
M  V30 13607 C 1288.13 3.44386 -3.00412 0
M  V30 13608 C 1289.13 3.34329 -3.98146 0
M  V30 13609 C 1286.81 3.70491 -3.39178 0
M  V30 13610 C 1288.81 3.50106 -5.3264 0
M  V30 13611 C 1286.5 3.85912 -4.7383 0
M  V30 13612 C 1287.49 3.75723 -5.70369 0
M  V30 13613 O 1287.18 3.90685 -7.02581 0
M  V30 13614 H 1286.91 0.571194 -0.361544 0
M  V30 13615 H 1289.47 1.30029 -1.59002 0
M  V30 13616 H 1287.7 3.76044 -0.901548 0
M  V30 13617 H 1289.39 3.8409 -1.31262 0
M  V30 13618 H 1290.15 3.14109 -3.69541 0
M  V30 13619 H 1286.03 3.77513 -2.64585 0
M  V30 13620 H 1289.58 3.42069 -6.07976 0
M  V30 13621 H 1285.47 4.05631 -5.02129 0
M  V30 13622 H 1286.24 4.07756 -7.09702 0
M  V30 13623 N 1288.9 1.00119 1.21713 0
M  V30 13624 C 1289.87 0.563409 2.22167 0
M  V30 13625 C 1290.87 -0.35819 1.5676 0
M  V30 13626 O 1292.06 -0.149001 1.73562 0
M  V30 13627 C 1289.19 -0.179365 3.40428 0
M  V30 13628 H 1290.38 1.45189 2.62412 0
M  V30 13629 H 1287.93 0.789286 1.34907 0
M  V30 13630 H 1288.67 -1.08345 3.05666 0
M  V30 13631 H 1288.45 0.482471 3.8912 0
M  V30 13632 H 1289.94 -0.473537 4.14906 0
M  V30 13633 N 1290.38 -1.37203 0.775435 0
M  V30 13634 C 1291.63 -1.99207 0.340756 0
M  V30 13635 C 1291.95 -1.61861 -1.08747 0
M  V30 13636 O 1291.22 -0.88583 -1.74728 0
M  V30 13637 H 1289.8 -0.736803 0.123004 0
M  V30 13638 H 1292.46 -1.67625 0.994379 0
M  V30 13639 H 1291.56 -3.09243 0.421346 0
M  V30 13640 N 1291.86 -0.526279 -1.48553 0
M  V30 13641 C 1292.77 0.24244 -2.33344 0
M  V30 13642 C 1293.79 0.942658 -1.46253 0
M  V30 13643 O 1294.96 0.91844 -1.79239 0
M  V30 13644 C 1292.03 1.27801 -3.22285 0
M  V30 13645 C 1291.09 0.588543 -4.25247 0
M  V30 13646 C 1290.32 1.57478 -5.09938 0
M  V30 13647 O 1290.54 2.80707 -4.96548 0
M  V30 13648 O 1289.48 1.11621 -5.9146 0
M  V30 13649 H 1293.3 -0.452262 -3.00314 0
M  V30 13650 H 1290.89 -0.287249 -1.46613 0
M  V30 13651 H 1292.77 1.87656 -3.7731 0
M  V30 13652 H 1291.45 1.95519 -2.57981 0
M  V30 13653 H 1290.35 -0.0504022 -3.74066 0
M  V30 13654 H 1291.69 -0.046627 -4.92178 0
M  V30 13655 N 1293.34 1.5542 -0.261239 0
M  V30 13656 C 1294.27 2.19334 0.665214 0
M  V30 13657 C 1295.28 1.17388 1.128 0
M  V30 13658 O 1296.47 1.44183 1.0523 0
M  V30 13659 C 1293.57 2.79425 1.91768 0
M  V30 13660 C 1292.74 4.06929 1.60399 0
M  V30 13661 C 1291.8 4.51199 2.70751 0
M  V30 13662 O 1290.83 5.17272 2.37526 0
M  V30 13663 N 1292.03 4.20179 4.00537 0
M  V30 13664 H 1294.8 2.99467 0.118262 0
M  V30 13665 H 1292.36 1.61693 -0.0817727 0
M  V30 13666 H 1294.35 3.05992 2.64861 0
M  V30 13667 H 1292.92 2.03366 2.37405 0
M  V30 13668 H 1292.14 3.87798 0.707559 0
M  V30 13669 H 1293.43 4.9003 1.36924 0
M  V30 13670 H 1292.83 3.67164 4.30357 0
M  V30 13671 H 1291.38 4.51549 4.7005 0
M  V30 13672 N 1294.82 -0.0116844 1.57596 0
M  V30 13673 C 1296.06 -0.697577 1.89679 0
M  V30 13674 C 1296.38 -1.74956 0.861122 0
M  V30 13675 O 1295.65 -1.95629 -0.103031 0
M  V30 13676 H 1294.23 -0.26064 0.700054 0
M  V30 13677 H 1296.9 0.0264782 1.94882 0
M  V30 13678 H 1295.99 -1.17621 2.89088 0
M  V30 13679 N 1296.29 -1.55015 -0.284256 0
M  V30 13680 C 1297.22 -1.90128 -1.3555 0
M  V30 13681 C 1298.2 -0.761914 -1.52082 0
M  V30 13682 O 1299.39 -1.01909 -1.65312 0
M  V30 13683 C 1296.52 -2.16332 -2.71695 0
M  V30 13684 C 1295.47 -3.32166 -2.69907 0
M  V30 13685 C 1294.8 -3.43824 -4.09498 0
M  V30 13686 C 1296.1 -4.6885 -2.30168 0
M  V30 13687 H 1297.79 -2.79852 -1.06411 0
M  V30 13688 H 1295.34 -1.34649 -0.510451 0
M  V30 13689 H 1297.29 -2.39482 -3.46737 0
M  V30 13690 H 1296.02 -1.23395 -3.02392 0
M  V30 13691 H 1294.68 -3.08965 -1.97322 0
M  V30 13692 H 1294.32 -2.48375 -4.374 0
M  V30 13693 H 1294.02 -4.21698 -4.092 0
M  V30 13694 H 1295.55 -3.69254 -4.86296 0
M  V30 13695 H 1296.96 -4.91619 -2.9493 0
M  V30 13696 H 1295.36 -5.49558 -2.41052 0
M  V30 13697 H 1296.43 -4.68433 -1.25294 0
M  V30 13698 N 1297.77 0.548248 -1.47757 0
M  V30 13699 C 1298.7 1.66999 -1.56984 0
M  V30 13700 C 1299.72 1.56302 -0.455372 0
M  V30 13701 O 1300.91 1.63096 -0.725399 0
M  V30 13702 C 1298.01 3.0553 -1.46645 0
M  V30 13703 C 1297.18 3.41892 -2.72816 0
M  V30 13704 C 1296.24 4.59624 -2.56187 0
M  V30 13705 O 1295.26 4.63757 -3.30028 0
M  V30 13706 N 1296.47 5.56675 -1.64601 0
M  V30 13707 H 1299.23 1.59527 -2.53715 0
M  V30 13708 H 1296.79 0.735101 -1.44249 0
M  V30 13709 H 1298.78 3.82137 -1.33242 0
M  V30 13710 H 1297.35 3.0718 -0.57961 0
M  V30 13711 H 1296.57 2.54644 -3.00916 0
M  V30 13712 H 1297.86 3.62965 -3.56559 0
M  V30 13713 H 1297.26 5.561 -1.03778 0
M  V30 13714 H 1295.82 6.32573 -1.57146 0
M  V30 13715 N 1299.25 1.36039 0.795694 0
M  V30 13716 C 1300.48 1.32866 1.58209 0
M  V30 13717 C 1300.89 -0.0935189 1.88969 0
M  V30 13718 O 1300.23 -1.05905 1.501 0
M  V30 13719 C 1300.29 2.07872 2.93308 0
M  V30 13720 C 1299.96 3.56999 2.85309 0
M  V30 13721 C 1300.95 4.51374 2.57987 0
M  V30 13722 C 1298.64 3.99798 3.04083 0
M  V30 13723 C 1300.63 5.86526 2.49533 0
M  V30 13724 C 1298.32 5.35042 2.95251 0
M  V30 13725 C 1299.32 6.28218 2.68013 0
M  V30 13726 O 1299.01 7.60979 2.59163 0
M  V30 13727 H 1298.74 0.457589 0.497583 0
M  V30 13728 H 1301.29 1.79637 0.995978 0
M  V30 13729 H 1299.52 1.55755 3.53945 0
M  V30 13730 H 1301.21 1.97638 3.54534 0
M  V30 13731 H 1301.98 4.19623 2.43191 0
M  V30 13732 H 1297.86 3.27652 3.24292 0
M  V30 13733 H 1301.4 6.59222 2.28193 0
M  V30 13734 H 1297.3 5.66404 3.09608 0
M  V30 13735 H 1298.06 7.7103 2.74691 0
M  V30 13736 N 1300.73 -1.01913 1.20215 0
M  V30 13737 C 1302.14 -1.5692 1.01159 0
M  V30 13738 C 1302.49 -1.91368 -0.432746 0
M  V30 13739 O 1301.62 -1.71959 -1.31374 0
M  V30 13740 C 1302.21 -2.85125 1.83001 0
M  V30 13741 C 1300.77 -3.36669 1.68318 0
M  V30 13742 C 1299.92 -2.10003 1.81091 0
M  V30 13743 H 1302.87 -0.843246 1.34443 0
M  V30 13744 H 1302.89 -3.56428 1.33188 0
M  V30 13745 H 1302.4 -2.60021 2.88116 0
M  V30 13746 H 1300.5 -3.66739 0.658292 0
M  V30 13747 H 1300.61 -4.09042 2.49442 0
M  V30 13748 H 1298.98 -2.22337 1.24252 0
M  V30 13749 H 1299.76 -1.87329 2.87685 0
M  V30 13750 N 1302.21 -1.00763 -1.2118 0
M  V30 13751 C 1303.43 -0.710746 -1.94309 0
M  V30 13752 C 1303.85 0.727103 -1.74237 0
M  V30 13753 O 1303.21 1.49223 -1.05065 0
M  V30 13754 C 1303.26 -1.02562 -3.46646 0
M  V30 13755 O 1302.98 -2.40699 -3.66054 0
M  V30 13756 C 1304.48 -0.748517 -4.36935 0
M  V30 13757 H 1301.7 -0.26171 -0.617858 0
M  V30 13758 H 1304.24 -1.34639 -1.53924 0
M  V30 13759 H 1302.4 -0.435537 -3.84944 0
M  V30 13760 H 1302.81 -2.51764 -4.60125 0
M  V30 13761 H 1304.29 -1.01899 -5.42513 0
M  V30 13762 H 1304.76 0.317423 -4.38051 0
M  V30 13763 H 1305.37 -1.32033 -4.04286 0
M  V30 13764 N 1303.68 1.3679 -0.7827 0
M  V30 13765 C 1304.63 2.27508 -0.149734 0
M  V30 13766 C 1305.62 1.46634 0.662368 0
M  V30 13767 O 1306.81 1.6908 0.523544 0
M  V30 13768 C 1303.94 3.35666 0.719939 0
M  V30 13769 C 1303.03 4.23981 -0.100588 0
M  V30 13770 N 1303.42 4.92513 -1.15173 0
M  V30 13771 C 1301.71 4.45834 0.121653 0
M  V30 13772 C 1302.42 5.57788 -1.65067 0
M  V30 13773 N 1301.39 5.35038 -0.96101 0
M  V30 13774 H 1305.19 2.77973 -0.954365 0
M  V30 13775 H 1302.71 1.50037 -0.62151 0
M  V30 13776 H 1304.7 3.99578 1.18926 0
M  V30 13777 H 1303.36 2.86756 1.52319 0
M  V30 13778 H 1304.38 4.94658 -1.53406 0
M  V30 13779 H 1301.05 4.07773 0.895945 0
M  V30 13780 H 1302.44 6.22534 -2.52787 0
M  V30 13781 N 1305.16 0.53415 1.48272 0
M  V30 13782 C 1306.09 -0.215037 2.32508 0
M  V30 13783 C 1307.07 -0.931083 1.42355 0
M  V30 13784 O 1308.26 -0.916051 1.71237 0
M  V30 13785 C 1305.39 -1.25985 3.23643 0
M  V30 13786 C 1304.34 -0.661692 4.22854 0
M  V30 13787 C 1303.67 -1.80946 5.03153 0
M  V30 13788 C 1304.97 0.369358 5.20992 0
M  V30 13789 H 1306.66 0.488158 2.95394 0
M  V30 13790 H 1304.21 0.236206 1.4205 0
M  V30 13791 H 1306.16 -1.79195 3.81402 0
M  V30 13792 H 1304.89 -1.99268 2.58766 0
M  V30 13793 H 1303.54 -0.151082 3.66289 0
M  V30 13794 H 1303.19 -2.53077 4.34696 0
M  V30 13795 H 1302.89 -1.41513 5.70305 0
M  V30 13796 H 1304.42 -2.34526 5.63764 0
M  V30 13797 H 1305.83 -0.0758076 5.7325 0
M  V30 13798 H 1304.23 0.681301 5.9622 0
M  V30 13799 H 1305.3 1.27363 4.67875 0
M  V30 13800 N 1306.64 -1.55279 0.269478 0
M  V30 13801 C 1307.89 -1.98649 -0.349522 0
M  V30 13802 C 1308.2 -1.16125 -1.57399 0
M  V30 13803 O 1309.41 -1.49612 -2.26558 0
M  V30 13804 C 1307.86 -3.53547 -0.673224 0
M  V30 13805 C 1307.47 -4.44841 0.531119 0
M  V30 13806 C 1309.22 -4.05519 -1.25516 0
M  V30 13807 C 1307.12 -5.91119 0.182317 0
M  V30 13808 H 1306.05 -0.74193 -0.13437 0
M  V30 13809 H 1308.7 -1.79664 0.373246 0
M  V30 13810 H 1307.09 -3.68311 -1.45474 0
M  V30 13811 H 1308.26 -4.41843 1.3081 0
M  V30 13812 H 1306.58 -4.03472 1.02952 0
M  V30 13813 H 1309.17 -5.12347 -1.52984 0
M  V30 13814 H 1309.52 -3.54215 -2.18718 0
M  V30 13815 H 1310.05 -3.94172 -0.536059 0
M  V30 13816 H 1306.79 -6.46507 1.08206 0
M  V30 13817 H 1306.31 -5.97199 -0.558008 0
M  V30 13818 H 1307.99 -6.466 -0.227484 0
M  V30 13819 N 1308.12 0.00332656 -1.576 0
M  V30 13820 C 1309.07 1.01406 -2.09331 0
M  V30 13821 C 1310.06 1.35806 -1.01258 0
M  V30 13822 O 1311.27 1.34409 -1.19726 0
M  V30 13823 H 1307.64 0.344661 -0.668366 0
M  V30 13824 H 1309.61 0.552154 -2.93247 0
M  V30 13825 C 1308.36 2.29819 -2.60918 0
M  V30 13826 H 1307.68 2.04216 -3.43709 0
M  V30 13827 H 1309.12 2.98826 -3.00797 0
M  V30 13828 C 1307.58 3.0057 -1.52182 0
M  V30 13829 O 1308.11 3.91423 -0.902817 0
M  V30 13830 N 1306.32 2.62338 -1.25009 0
M  V30 13831 H 1305.87 1.88538 -1.75531 0
M  V30 13832 H 1305.82 3.0999 -0.524736 0
M  V30 13833 N 1309.6 1.55164 0.276031 0
M  V30 13834 C 1311.01 1.66367 0.847293 0
M  V30 13835 C 1311.36 0.588692 1.8716 0
M  V30 13836 O 1310.48 -0.27035 2.14705 0
M  V30 13837 C 1311.08 3.01593 1.5436 0
M  V30 13838 C 1309.64 3.14833 2.06293 0
M  V30 13839 C 1308.78 2.62152 0.903959 0
M  V30 13840 H 1311.74 1.58613 0.0524478 0
M  V30 13841 H 1311.76 2.94412 2.41043 0
M  V30 13842 H 1311.27 3.7981 0.797849 0
M  V30 13843 H 1309.37 2.41384 2.83839 0
M  V30 13844 H 1309.48 4.21353 2.28032 0
M  V30 13845 H 1307.85 2.19233 1.29649 0
M  V30 13846 H 1308.63 3.4287 0.171765 0
M  V30 13847 N 1311.07 -0.540404 1.48045 0
M  V30 13848 C 1312.3 -1.32656 1.59427 0
M  V30 13849 C 1312.72 -1.86419 0.250924 0
M  V30 13850 O 1312.08 -1.63861 -0.775838 0
M  V30 13851 C 1312.13 -2.46062 2.63602 0
M  V30 13852 O 1311.23 -3.48794 2.20038 0
M  V30 13853 H 1310.58 -0.393334 0.534962 0
M  V30 13854 H 1313.11 -0.651363 1.93955 0
M  V30 13855 H 1313.12 -2.92396 2.84549 0
M  V30 13856 H 1311.79 -2.06291 3.61133 0
M  V30 13857 H 1310.37 -3.0865 2.0926 0
M  V30 13858 N 1312.55 -1.36459 -0.788468 0
M  V30 13859 C 1313.52 -1.3071 -1.88275 0
M  V30 13860 C 1314.52 -0.214596 -1.59362 0
M  V30 13861 O 1315.71 -0.469437 -1.67756 0
M  V30 13862 C 1312.84 -1.02648 -3.25079 0
M  V30 13863 H 1314.03 -2.28029 -1.94788 0
M  V30 13864 H 1311.58 -1.21245 -0.986375 0
M  V30 13865 H 1312.32 -0.0578992 -3.24248 0
M  V30 13866 H 1312.1 -1.81708 -3.47454 0
M  V30 13867 H 1313.59 -1.01233 -4.05144 0
M  V30 13868 N 1314.03 1.01274 -1.20754 0
M  V30 13869 C 1315.26 1.7906 -1.04653 0
M  V30 13870 C 1315.68 1.83806 0.399632 0
M  V30 13871 O 1315.04 1.27596 1.28798 0
M  V30 13872 C 1315.09 3.21187 -1.63925 0
M  V30 13873 O 1314.19 4.02913 -0.879486 0
M  V30 13874 H 1313.53 0.552147 -0.368823 0
M  V30 13875 H 1316.06 1.27356 -1.6013 0
M  V30 13876 H 1316.07 3.71887 -1.67822 0
M  V30 13877 H 1314.75 3.17048 -2.69172 0
M  V30 13878 H 1313.32 3.61499 -0.915019 0
M  V30 13879 N 1315.51 1.01404 1.20644 0
M  V30 13880 C 1316.46 0.552956 2.21193 0
M  V30 13881 C 1317.44 -0.390324 1.56094 0
M  V30 13882 O 1318.64 -0.213705 1.75705 0
M  V30 13883 C 1315.76 -0.10995 3.43124 0
M  V30 13884 C 1314.85 0.854886 4.15394 0
M  V30 13885 N 1315.24 2.01137 4.64088 0
M  V30 13886 C 1313.54 0.675168 4.4086 0
M  V30 13887 C 1314.24 2.6187 5.19422 0
M  V30 13888 N 1313.22 1.89952 5.09332 0
M  V30 13889 H 1317.02 1.43467 2.56504 0
M  V30 13890 H 1314.53 0.87905 1.36552 0
M  V30 13891 H 1316.53 -0.457802 4.14379 0
M  V30 13892 H 1315.19 -0.987534 3.09318 0
M  V30 13893 H 1316.2 2.3914 4.59383 0
M  V30 13894 H 1312.88 -0.154577 4.17214 0
M  V30 13895 H 1314.27 3.59727 5.67491 0
M  V30 13896 N 1316.99 -1.36373 0.789944 0
M  V30 13897 C 1318.21 -2.04011 0.373396 0
M  V30 13898 C 1318.64 -1.59171 -1.00231 0
M  V30 13899 O 1318 -0.760431 -1.64582 0
M  V30 13900 C 1318.04 -3.5783 0.446083 0
M  V30 13901 O 1317.15 -4.08759 -0.54678 0
M  V30 13902 H 1316.49 -0.644807 0.158495 0
M  V30 13903 H 1319.02 -1.74317 1.0712 0
M  V30 13904 H 1319.03 -4.06822 0.309877 0
M  V30 13905 H 1317.7 -3.89819 1.44962 0
M  V30 13906 H 1316.28 -3.71038 -0.372192 0
M  V30 13907 N 1318.47 -0.542005 -1.47987 0
M  V30 13908 C 1319.74 0.0526494 -1.95529 0
M  V30 13909 C 1320.12 1.50092 -1.48444 0
M  V30 13910 O 1319.47 2.16981 -0.716347 0
M  V30 13911 C 1319.68 -0.0770524 -3.48915 0
M  V30 13912 C 1321.03 0.0760849 -4.24532 0
M  V30 13913 O 1322.05 -0.00384644 -3.562 0
M  V30 13914 O 1320.91 0.245406 -5.45949 0
M  V30 13915 H 1318.01 0.0726163 -0.823806 0
M  V30 13916 H 1320.55 -0.607454 -1.58455 0
M  V30 13917 H 1319.32 -1.08544 -3.75944 0
M  V30 13918 H 1318.95 0.621357 -3.92715 0
M  V30 13919 N 1319.94 1.55134 -0.277709 0
M  V30 13920 C 1321.17 2.04061 0.341601 0
M  V30 13921 C 1321.59 1.15597 1.49274 0
M  V30 13922 O 1320.94 0.176625 1.81643 0
M  V30 13923 C 1320.99 3.52074 0.820139 0
M  V30 13924 O 1320.72 4.37171 -0.28516 0
M  V30 13925 C 1322.22 4.16899 1.507 0
M  V30 13926 H 1319.44 0.666501 0.0775708 0
M  V30 13927 H 1321.98 2.00336 -0.410559 0
M  V30 13928 H 1320.14 3.56233 1.52238 0
M  V30 13929 H 1320.55 5.24434 0.0832022 0
M  V30 13930 H 1322.02 5.22061 1.79323 0
M  V30 13931 H 1322.5 3.65227 2.43939 0
M  V30 13932 H 1323.11 4.16749 0.848541 0
M  V30 13933 N 1321.42 0.00503138 1.57599 0
M  V30 13934 C 1322.83 -0.537106 1.78807 0
M  V30 13935 C 1323.18 -1.73666 0.912945 0
M  V30 13936 O 1322.31 -2.16085 0.116775 0
M  V30 13937 C 1322.9 -0.98116 3.24282 0
M  V30 13938 C 1321.46 -1.46857 3.46569 0
M  V30 13939 C 1320.61 -0.422088 2.74069 0
M  V30 13940 H 1323.56 0.231182 1.57007 0
M  V30 13941 H 1323.58 -1.8469 3.32671 0
M  V30 13942 H 1323.09 -0.107907 3.8795 0
M  V30 13943 H 1321.19 -2.36255 2.88122 0
M  V30 13944 H 1321.31 -1.49256 4.55258 0
M  V30 13945 H 1319.67 -0.884853 2.38836 0
M  V30 13946 H 1320.45 0.442285 3.40439 0
M  V30 13947 N 1322.9 -1.55308 -0.267798 0
M  V30 13948 C 1323.81 -1.91649 -1.35307 0
M  V30 13949 C 1324.83 -0.814349 -1.53767 0
M  V30 13950 O 1326 -1.11388 -1.67793 0
M  V30 13951 C 1323.07 -2.18553 -2.69138 0
M  V30 13952 C 1322.13 -3.42083 -2.5938 0
M  V30 13953 C 1321.36 -3.67695 -3.86828 0
M  V30 13954 O 1321.58 -2.95728 -4.87751 0
M  V30 13955 O 1320.52 -4.61229 -3.86718 0
M  V30 13956 H 1324.34 -2.84044 -1.07483 0
M  V30 13957 H 1321.93 -1.41921 -0.466772 0
M  V30 13958 H 1323.81 -2.3726 -3.48261 0
M  V30 13959 H 1322.49 -1.2934 -2.96737 0
M  V30 13960 H 1321.39 -3.28706 -1.78614 0
M  V30 13961 H 1322.73 -4.31532 -2.36729 0
M  V30 13962 N 1324.38 0.532545 -1.4833 0
M  V30 13963 C 1325.61 1.31331 -1.59874 0
M  V30 13964 C 1326.02 1.87028 -0.258037 0
M  V30 13965 O 1325.38 1.66272 0.752317 0
M  V30 13966 C 1325.43 2.46596 -2.64334 0
M  V30 13967 O 1325.15 1.93195 -3.93201 0
M  V30 13968 C 1326.65 3.38454 -2.86294 0
M  V30 13969 H 1323.87 0.399476 -0.539129 0
M  V30 13970 H 1326.41 0.642696 -1.94138 0
M  V30 13971 H 1324.57 3.09548 -2.32936 0
M  V30 13972 H 1324.98 2.68627 -4.50489 0
M  V30 13973 H 1326.46 4.15687 -3.63192 0
M  V30 13974 H 1326.93 3.93526 -1.95022 0
M  V30 13975 H 1327.54 2.81297 -3.18986 0
M  V30 13976 N 1325.86 1.36875 0.78122 0
M  V30 13977 C 1326.77 1.3404 1.92537 0
M  V30 13978 C 1327.78 0.241354 1.72318 0
M  V30 13979 O 1328.96 0.475128 1.95715 0
M  V30 13980 C 1326.02 1.13708 3.27523 0
M  V30 13981 C 1325.08 2.33165 3.60462 0
M  V30 13982 C 1324.32 2.13793 4.89007 0
M  V30 13983 O 1324.54 1.11732 5.5935 0
M  V30 13984 O 1323.47 3.01762 5.20791 0
M  V30 13985 H 1327.3 2.30386 1.97879 0
M  V30 13986 H 1324.88 1.17506 0.922637 0
M  V30 13987 H 1326.77 1.0432 4.08283 0
M  V30 13988 H 1325.44 0.204306 3.23055 0
M  V30 13989 H 1324.35 2.48123 2.79974 0
M  V30 13990 H 1325.68 3.24977 3.69663 0
M  V30 13991 N 1327.33 -1.00632 1.21289 0
M  V30 13992 C 1328.24 -2.12829 0.986957 0
M  V30 13993 C 1329.26 -1.73895 -0.0605152 0
M  V30 13994 O 1330.44 -2.00985 0.129238 0
M  V30 13995 C 1327.5 -3.4226 0.553089 0
M  V30 13996 C 1326.56 -3.95376 1.67262 0
M  V30 13997 C 1325.79 -5.18629 1.25936 0
M  V30 13998 O 1326.02 -5.70246 0.132402 0
M  V30 13999 O 1324.95 -5.65157 2.07077 0
M  V30 14000 H 1328.78 -2.34765 1.92663 0
M  V30 14001 H 1326.36 -1.11208 0.997654 0
M  V30 14002 H 1328.24 -4.20177 0.320856 0
M  V30 14003 H 1326.92 -3.21716 -0.357881 0
M  V30 14004 H 1325.83 -3.18692 1.95924 0
M  V30 14005 H 1327.16 -4.20328 2.56097 0
M  V30 14006 N 1328.81 -1.02043 -1.20104 0
M  V30 14007 C 1330.04 -0.731315 -1.93544 0
M  V30 14008 C 1330.45 0.708582 -1.74999 0
M  V30 14009 O 1329.81 1.481 -1.06642 0
M  V30 14010 C 1329.86 -1.06233 -3.45538 0
M  V30 14011 O 1329.58 -2.44568 -3.63481 0
M  V30 14012 C 1331.08 -0.794818 -4.36116 0
M  V30 14013 H 1328.3 -0.268248 -0.615048 0
M  V30 14014 H 1330.85 -1.36264 -1.52488 0
M  V30 14015 H 1329 -0.476341 -3.8446 0
M  V30 14016 H 1329.42 -2.5663 -4.57429 0
M  V30 14017 H 1330.89 -1.07647 -5.41402 0
M  V30 14018 H 1331.37 0.270944 -4.38363 0
M  V30 14019 H 1331.97 -1.36314 -4.02863 0
M  V30 14020 N 1330.29 1.35952 -0.797165 0
M  V30 14021 C 1331.2 2.33726 -0.202271 0
M  V30 14022 C 1332.22 1.61415 0.649719 0
M  V30 14023 O 1333.39 1.93351 0.563686 0
M  V30 14024 C 1330.46 3.40612 0.64685 0
M  V30 14025 C 1329.52 4.28712 -0.224536 0
M  V30 14026 C 1328.75 5.30493 0.584153 0
M  V30 14027 O 1328.97 5.40599 1.81957 0
M  V30 14028 O 1327.91 6.01897 -0.0200239 0
M  V30 14029 H 1331.73 2.86383 -1.01087 0
M  V30 14030 H 1329.32 1.38557 -0.558768 0
M  V30 14031 H 1331.2 4.05944 1.1308 0
M  V30 14032 H 1329.88 2.90243 1.43321 0
M  V30 14033 H 1328.78 3.66394 -0.755415 0
M  V30 14034 H 1330.12 4.82454 -0.974603 0
M  V30 14035 N 1331.77 0.549846 1.47697 0
M  V30 14036 C 1332.7 -0.249645 2.2683 0
M  V30 14037 C 1333.68 -0.926968 1.33589 0
M  V30 14038 O 1334.86 -0.947423 1.62961 0
M  V30 14039 C 1331.99 -1.35511 3.1041 0
M  V30 14040 C 1331.04 -0.787118 4.19174 0
M  V30 14041 S 1331.87 0.360564 5.34285 0
M  V30 14042 C 1333.03 -0.746898 6.21428 0
M  V30 14043 H 1333.26 0.421876 2.94292 0
M  V30 14044 H 1330.79 0.336017 1.50699 0
M  V30 14045 H 1332.75 -1.98825 3.59137 0
M  V30 14046 H 1331.41 -1.99844 2.42325 0
M  V30 14047 H 1330.6 -1.61704 4.77355 0
M  V30 14048 H 1330.21 -0.230301 3.7329 0
M  V30 14049 H 1332.5 -1.6408 6.57331 0
M  V30 14050 H 1333.44 -0.202608 7.0781 0
M  V30 14051 H 1333.85 -1.03625 5.54907 0
M  V30 14052 N 1333.25 -1.54984 0.285932 0
M  V30 14053 C 1334.19 -2.2295 -0.596822 0
M  V30 14054 C 1335.16 -1.20674 -1.14136 0
M  V30 14055 O 1336.35 -1.49249 -1.18867 0
M  V30 14056 C 1333.49 -2.9625 -1.77002 0
M  V30 14057 C 1332.6 -4.13268 -1.25831 0
M  V30 14058 C 1331.74 -4.74187 -2.39417 0
M  V30 14059 C 1330.78 -5.83377 -1.85304 0
M  V30 14060 N 1329.91 -6.38313 -2.92405 0
M  V30 14061 H 1334.75 -2.97998 -0.0106104 0
M  V30 14062 H 1332.29 -1.47099 0.00653041 0
M  V30 14063 H 1334.25 -3.36971 -2.4598 0
M  V30 14064 H 1332.88 -2.23606 -2.3281 0
M  V30 14065 H 1331.93 -3.77593 -0.461278 0
M  V30 14066 H 1333.24 -4.91979 -0.822049 0
M  V30 14067 H 1332.4 -5.17683 -3.16369 0
M  V30 14068 H 1331.13 -3.94775 -2.86364 0
M  V30 14069 H 1330.14 -5.3932 -1.06835 0
M  V30 14070 H 1331.36 -6.64664 -1.3928 0
M  V30 14071 H 1329.31 -5.61791 -3.38713 0
M  V30 14072 H 1329.23 -7.12328 -2.53228 0
M  V30 14073 H 1330.5 -6.86468 -3.69299 0
M  V30 14074 N 1334.72 -0.0133892 -1.57594 0
M  V30 14075 C 1335.69 0.958601 -2.08191 0
M  V30 14076 C 1336.69 1.26408 -0.993865 0
M  V30 14077 O 1337.88 1.20703 -1.25604 0
M  V30 14078 C 1335.01 2.27971 -2.5346 0
M  V30 14079 H 1336.2 0.520686 -2.95345 0
M  V30 14080 H 1333.76 0.234351 -1.54533 0
M  V30 14081 H 1334.49 2.76424 -1.69588 0
M  V30 14082 H 1334.28 2.07116 -3.32935 0
M  V30 14083 H 1335.77 2.97672 -2.92884 0
M  V30 14084 N 1336.2 1.55448 0.259558 0
M  V30 14085 C 1337.13 1.9226 1.32508 0
M  V30 14086 C 1338.11 0.786012 1.5085 0
M  V30 14087 O 1339.3 1.04526 1.6367 0
M  V30 14088 C 1336.43 2.20627 2.68218 0
M  V30 14089 C 1335.38 3.36418 2.64589 0
M  V30 14090 C 1334.71 3.50295 4.03977 0
M  V30 14091 C 1336.01 4.72452 2.2268 0
M  V30 14092 H 1337.7 2.81509 1.01945 0
M  V30 14093 H 1335.25 1.35444 0.488965 0
M  V30 14094 H 1337.2 2.44968 3.42883 0
M  V30 14095 H 1335.93 1.28191 3.00391 0
M  V30 14096 H 1334.58 3.12065 1.92382 0
M  V30 14097 H 1334.23 2.55302 4.33394 0
M  V30 14098 H 1333.93 4.28155 4.02439 0
M  V30 14099 H 1335.46 3.76944 4.8036 0
M  V30 14100 H 1336.87 4.96249 2.87071 0
M  V30 14101 H 1335.27 5.53323 2.32279 0
M  V30 14102 H 1336.34 4.70367 1.17826 0
M  V30 14103 N 1337.68 -0.524672 1.4861 0
M  V30 14104 C 1338.93 -1.27768 1.56588 0
M  V30 14105 C 1339.25 -1.93469 0.243899 0
M  V30 14106 O 1338.52 -1.8159 -0.734985 0
M  V30 14107 H 1337.1 -0.474566 0.576885 0
M  V30 14108 H 1339.76 -0.610114 1.85104 0
M  V30 14109 H 1338.86 -2.05416 2.34969 0
M  V30 14110 N 1339.16 -1.37287 -0.77395 0
M  V30 14111 C 1340.07 -1.35059 -1.91823 0
M  V30 14112 C 1341.08 -0.250489 -1.72188 0
M  V30 14113 O 1342.26 -0.485501 -1.95461 0
M  V30 14114 C 1339.33 -1.15444 -3.26915 0
M  V30 14115 C 1338.39 -2.35073 -3.5922 0
M  V30 14116 C 1337.62 -2.16384 -4.87867 0
M  V30 14117 O 1337.84 -1.14696 -5.58749 0
M  V30 14118 O 1336.78 -3.0452 -5.19183 0
M  V30 14119 H 1340.6 -2.31432 -1.96654 0
M  V30 14120 H 1338.19 -1.17994 -0.916392 0
M  V30 14121 H 1340.07 -1.06484 -4.07724 0
M  V30 14122 H 1338.74 -0.221435 -3.22942 0
M  V30 14123 H 1337.65 -2.49604 -2.78655 0
M  V30 14124 H 1338.98 -3.26933 -3.67934 0
M  V30 14125 N 1340.64 0.999871 -1.21821 0
M  V30 14126 C 1342.05 1.26228 -0.976664 0
M  V30 14127 C 1342.25 1.98714 0.333915 0
M  V30 14128 O 1341.31 2.29252 1.05829 0
M  V30 14129 C 1342.62 2.08089 -2.1707 0
M  V30 14130 C 1344.17 2.21298 -2.21351 0
M  V30 14131 C 1344.64 3.06544 -3.40287 0
M  V30 14132 N 1346.14 3.14131 -3.40405 0
M  V30 14133 C 1346.87 3.80362 -4.29083 0
M  V30 14134 N 1346.37 4.48577 -5.27968 0
M  V30 14135 N 1348.16 3.77053 -4.16878 0
M  V30 14136 H 1340.31 0.513704 -2.06094 0
M  V30 14137 H 1342.57 0.289447 -0.902732 0
M  V30 14138 H 1342.28 1.62183 -3.12073 0
M  V30 14139 H 1342.15 3.08843 -2.16554 0
M  V30 14140 H 1344.54 2.66422 -1.269 0
M  V30 14141 H 1344.62 1.19997 -2.25908 0
M  V30 14142 H 1344.27 2.62122 -4.35034 0
M  V30 14143 H 1344.2 4.0797 -3.32969 0
M  V30 14144 H 1346.69 2.65576 -2.68846 0
M  V30 14145 H 1347 4.96833 -5.91926 0
M  V30 14146 H 1345.34 4.47348 -5.31888 0
M  V30 14147 H 1348.54 3.22918 -3.38883 0
M  V30 14148 H 1348.71 4.2839 -4.86195 0
M  V30 14149 N 1342.11 1.02678 1.19562 0
M  V30 14150 C 1343.36 0.723086 1.89471 0
M  V30 14151 C 1343.69 -0.746269 1.79289 0
M  V30 14152 O 1342.97 -1.54322 1.18384 0
M  V30 14153 C 1343.25 1.17224 3.40486 0
M  V30 14154 C 1343.1 2.70266 3.5955 0
M  V30 14155 C 1344.42 0.751397 4.33638 0
M  V30 14156 H 1341.54 0.264155 0.688034 0
M  V30 14157 H 1344.18 1.27633 1.40747 0
M  V30 14158 H 1342.33 0.701544 3.82113 0
M  V30 14159 H 1344.01 3.25266 3.27108 0
M  V30 14160 H 1342.25 3.10758 3.02675 0
M  V30 14161 H 1342.92 2.96748 4.65451 0
M  V30 14162 H 1345.4 1.15621 3.99714 0
M  V30 14163 H 1344.27 1.09358 5.37896 0
M  V30 14164 H 1344.53 -0.346367 4.40741 0
M  V30 14165 N 1343.59 -1.35528 0.804364 0
M  V30 14166 C 1344.82 -2.03604 0.395013 0
M  V30 14167 C 1345.24 -1.60225 -0.985371 0
M  V30 14168 O 1344.6 -0.777844 -1.63766 0
M  V30 14169 C 1344.65 -3.57337 0.484011 0
M  V30 14170 O 1343.75 -4.09316 -0.503395 0
M  V30 14171 H 1343.09 -0.643089 0.165325 0
M  V30 14172 H 1345.62 -1.73171 1.08963 0
M  V30 14173 H 1345.63 -4.0647 0.353009 0
M  V30 14174 H 1344.31 -3.8826 1.49088 0
M  V30 14175 H 1342.89 -3.71412 -0.332817 0
M  V30 14176 N 1345.07 -0.557671 -1.47404 0
M  V30 14177 C 1346.32 -0.0316382 -2.01675 0
M  V30 14178 C 1346.63 1.32656 -1.43742 0
M  V30 14179 O 1347.84 1.94253 -1.89678 0
M  V30 14180 C 1346.3 -0.00606931 -3.59899 0
M  V30 14181 C 1345.9 -1.36106 -4.26825 0
M  V30 14182 C 1347.65 0.467332 -4.2192 0
M  V30 14183 C 1345.55 -1.29457 -5.77057 0
M  V30 14184 H 1344.48 -0.00805738 -0.753957 0
M  V30 14185 H 1347.14 -0.705592 -1.69392 0
M  V30 14186 H 1345.52 0.733541 -3.89147 0
M  V30 14187 H 1346.69 -2.11842 -4.09218 0
M  V30 14188 H 1345.01 -1.77243 -3.76794 0
M  V30 14189 H 1347.6 0.535478 -5.32012 0
M  V30 14190 H 1347.95 1.47942 -3.89126 0
M  V30 14191 H 1348.48 -0.217434 -3.97205 0
M  V30 14192 H 1345.22 -2.28267 -6.14471 0
M  V30 14193 H 1344.74 -0.579022 -5.96999 0
M  V30 14194 H 1346.42 -0.996834 -6.39275 0
M  V30 14195 N 1346.55 1.54831 -0.294147 0
M  V30 14196 C 1347.48 2.26226 0.57827 0
M  V30 14197 C 1348.46 1.25928 1.14351 0
M  V30 14198 O 1349.65 1.54687 1.17412 0
M  V30 14199 C 1346.78 2.99783 1.75349 0
M  V30 14200 C 1345.73 4.07171 1.31892 0
M  V30 14201 C 1345.06 4.68406 2.57876 0
M  V30 14202 C 1346.36 5.20313 0.455167 0
M  V30 14203 H 1348.05 2.99395 -0.0171936 0
M  V30 14204 H 1345.6 1.43997 -0.00970944 0
M  V30 14205 H 1347.55 3.48448 2.36986 0
M  V30 14206 H 1346.27 2.24181 2.37509 0
M  V30 14207 H 1344.93 3.59346 0.725653 0
M  V30 14208 H 1344.58 3.89451 3.18335 0
M  V30 14209 H 1344.28 5.40927 2.29502 0
M  V30 14210 H 1345.8 5.1983 3.20327 0
M  V30 14211 H 1347.22 5.64913 0.977026 0
M  V30 14212 H 1345.61 5.99512 0.265501 0
M  V30 14213 H 1346.68 4.82088 -0.521434 0
M  V30 14214 O 1348.07 0.16049 1.60701 0
M  V30 14215 H 1348.76 -0.431139 1.88841 0
M  V30 END ATOM
M  V30 BEGIN BOND
M  V30 END BOND
M  V30 END CTAB
M  END
$$$$
