drugbank_target|P36924 Beta-amylase (DB02379; DB02645; DB03323; DB03389)
 OpenBabel12092120013D

  0  0  0     0  0            999 V3000
M  V30 BEGIN CTAB
M  V30 COUNTS 8584 8703 0 0 0
M  V30 BEGIN ATOM
M  V30 1 H -0.908 1.98254 -0.117106 0
M  V30 2 N 0 1.576 0 0
M  V30 3 C 0.933 2.03868 1.02534 0
M  V30 4 C 1.911 0.928543 1.3348 0
M  V30 5 O 3.095 1.19667 1.45644 0
M  V30 6 C 0.222 2.43627 2.35294 0
M  V30 7 C -0.732 3.65373 2.2001 0
M  V30 8 S 0.101 5.13292 1.52614 0
M  V30 9 C 1.257 5.56322 2.86805 0
M  V30 10 H 1.49 2.90518 0.631377 0
M  V30 11 H -0.977 1.52953 0.210867 0
M  V30 12 H 0.981 2.67203 3.11629 0
M  V30 13 H -0.358 1.57376 2.7183 0
M  V30 14 H -1.165 3.90944 3.18086 0
M  V30 15 H -1.563 3.418 1.51819 0
M  V30 16 H 0.729 5.58782 3.83104 0
M  V30 17 H 1.672 6.56266 2.65933 0
M  V30 18 H 2.08 4.83886 2.90714 0
M  V30 19 N 1.4781 -0.272755 1.55222 0
M  V30 20 C 2.4251 -1.33716 1.88119 0
M  V30 21 C 3.3951 -1.49066 0.73271 0
M  V30 22 O 4.5801 -1.63469 0.984002 0
M  V30 23 C 1.7201 -2.69238 2.15882 0
M  V30 24 C 0.8331 -2.62108 3.43399 0
M  V30 25 C -0.0319 -3.89811 3.60861 0
M  V30 26 C -0.9929 -3.77193 4.8207 0
M  V30 27 N -1.8559 -4.9673 4.96189 0
M  V30 28 H 2.9841 -1.04962 2.78903 0
M  V30 29 H 0.5211 -0.507088 1.38083 0
M  V30 30 H 2.4791 -3.48089 2.29978 0
M  V30 31 H 1.1091 -2.96194 1.28331 0
M  V30 32 H 0.1611 -1.74967 3.37773 0
M  V30 33 H 1.4731 -2.48685 4.32386 0
M  V30 34 H 0.6271 -4.77103 3.74777 0
M  V30 35 H -0.6339 -4.06102 2.7006 0
M  V30 36 H -1.6289 -2.88284 4.68159 0
M  V30 37 H -0.4039 -3.62421 5.74307 0
M  V30 38 H -2.4579 -5.13431 4.08319 0
M  V30 39 H -2.5409 -4.85839 5.79221 0
M  V30 40 H -1.2729 -5.85594 5.1449 0
M  V30 41 N 2.9562 -1.48159 -0.537278 0
M  V30 42 C 3.9042 -1.62573 -1.66352 0
M  V30 43 C 4.8982 -0.492366 -1.62087 0
M  V30 44 O 6.1042 -0.670847 -1.67032 0
M  V30 45 H 2.4792 -0.511992 -0.550789 0
M  V30 46 H 4.4502 -2.57176 -1.51337 0
M  V30 47 C 3.1992 -1.67583 -3.04649 0
M  V30 48 H 2.5222 -2.54151 -3.08622 0
M  V30 49 H 3.9622 -1.81713 -3.83088 0
M  V30 50 C 2.4212 -0.413039 -3.34358 0
M  V30 51 O 2.9512 0.477259 -3.98855 0
M  V30 52 N 1.1572 -0.286961 -2.8918 0
M  V30 53 H 0.7042 -1.01241 -2.36871 0
M  V30 54 H 0.6622 0.556963 -3.09427 0
M  V30 55 N 4.4343 0.785586 -1.36625 0
M  V30 56 C 5.3663 1.90711 -1.2713 0
M  V30 57 C 6.3793 1.61688 -0.189986 0
M  V30 58 O 7.5683 1.72864 -0.445014 0
M  V30 59 C 4.6683 3.25611 -0.939713 0
M  V30 60 C 3.8413 3.82385 -2.12369 0
M  V30 61 C 2.9003 4.95732 -1.76456 0
M  V30 62 O 1.9263 5.12047 -2.48589 0
M  V30 63 N 3.1283 5.76258 -0.700492 0
M  V30 64 H 5.8933 1.99376 -2.23762 0
M  V30 65 H 3.4543 0.964041 -1.30069 0
M  V30 66 H 5.4463 3.98937 -0.680554 0
M  V30 67 H 4.0163 3.12538 -0.0624074 0
M  V30 68 H 3.2363 3.01001 -2.54543 0
M  V30 69 H 4.5243 4.17047 -2.9146 0
M  V30 70 H 3.9223 5.65609 -0.101624 0
M  V30 71 H 2.4793 6.4987 -0.501165 0
M  V30 72 N 5.9124 1.20967 1.01018 0
M  V30 73 C 7.1594 1.02374 1.74716 0
M  V30 74 C 7.4874 -0.443375 1.89379 0
M  V30 75 O 6.7424 -1.34535 1.42123 0
M  V30 76 C 7.0414 1.65997 3.16512 0
M  V30 77 C 6.7074 3.15831 3.2181 0
M  V30 78 C 5.3694 3.56719 3.22963 0
M  V30 79 C 7.7214 4.11816 3.19464 0
M  V30 80 C 5.0494 4.92107 3.19449 0
M  V30 81 C 7.4014 5.47158 3.17491 0
M  V30 82 C 6.0654 5.87451 3.16951 0
M  V30 83 H 5.3354 0.374614 0.639332 0
M  V30 84 H 7.9824 1.50485 1.18434 0
M  V30 85 H 6.2874 1.10166 3.75993 0
M  V30 86 H 7.9844 1.49119 3.72242 0
M  V30 87 H 4.5744 2.83263 3.21652 0
M  V30 88 H 8.7584 3.81257 3.17737 0
M  V30 89 H 4.0144 5.22579 3.17366 0
M  V30 90 H 8.1884 6.21274 3.14629 0
M  V30 91 H 5.8154 6.92329 3.13983 0
M  V30 92 N 7.3905 -1.2043 1.01659 0
M  V30 93 C 8.3225 -2.22626 0.544988 0
M  V30 94 C 9.3355 -1.58479 -0.372609 0
M  V30 95 O 10.5245 -1.77679 -0.170958 0
M  V30 96 C 7.6245 -3.38141 -0.22663 0
M  V30 97 C 6.7975 -4.31877 0.692876 0
M  V30 98 C 5.8565 -5.26191 -0.0311616 0
M  V30 99 O 4.8825 -5.6612 0.591343 0
M  V30 100 N 6.0845 -5.65618 -1.30601 0
M  V30 101 H 8.8495 -2.63716 1.42388 0
M  V30 102 H 6.4105 -1.34971 0.894116 0
M  V30 103 H 8.4025 -3.98239 -0.72024 0
M  V30 104 H 6.9725 -2.95943 -1.00681 0
M  V30 105 H 6.1925 -3.69746 1.36679 0
M  V30 106 H 7.4805 -4.91426 1.31824 0
M  V30 107 H 6.8785 -5.3519 -1.83269 0
M  V30 108 H 5.4355 -6.28025 -1.74435 0
M  V30 109 N 8.8686 -0.792821 -1.36206 0
M  V30 110 C 10.0986 -0.378275 -2.03107 0
M  V30 111 C 10.5066 1.01119 -1.59911 0
M  V30 112 O 9.8496 1.66052 -0.785658 0
M  V30 113 C 9.9116 -0.366535 -3.57627 0
M  V30 114 C 9.5756 -1.70416 -4.24037 0
M  V30 115 C 10.5726 -2.6602 -4.46687 0
M  V30 116 C 8.2576 -1.98439 -4.6144 0
M  V30 117 C 10.2516 -3.8784 -5.05825 0
M  V30 118 C 7.9386 -3.20525 -5.20295 0
M  V30 119 C 8.9366 -4.15044 -5.42427 0
M  V30 120 O 8.6246 -5.34978 -6.00045 0
M  V30 121 H 8.3566 -0.153543 -0.658332 0
M  V30 122 H 10.9106 -1.07383 -1.75094 0
M  V30 123 H 9.1406 0.385539 -3.84773 0
M  V30 124 H 10.8296 0.0238088 -4.05893 0
M  V30 125 H 11.5956 -2.45658 -4.18183 0
M  V30 126 H 7.4746 -1.25686 -4.43536 0
M  V30 127 H 11.0186 -4.61628 -5.23015 0
M  V30 128 H 6.9156 -3.40764 -5.48225 0
M  V30 129 H 7.6836 -5.36088 -6.18508 0
M  V30 130 N 10.3467 1.47872 -0.545128 0
M  V30 131 C 11.5867 2.04391 -0.0187854 0
M  V30 132 C 11.9507 1.41162 1.30144 0
M  V30 133 O 13.1517 1.88656 1.91474 0
M  V30 134 C 11.4227 3.57299 0.0850867 0
M  V30 135 S 12.9817 4.35221 0.559302 0
M  V30 136 H 9.7997 0.710737 -0.0193301 0
M  V30 137 H 12.4017 1.81395 -0.729125 0
M  V30 138 H 11.1057 4.00847 -0.880351 0
M  V30 139 H 10.6367 3.84773 0.819348 0
M  V30 140 H 12.6517 4.61571 1.82118 0
M  V30 141 N 11.8248 0.280983 1.55075 0
M  V30 142 C 13.0648 -0.335234 2.01632 0
M  V30 143 C 13.4288 -1.5261 1.16508 0
M  V30 144 O 14.6298 -2.21235 1.52672 0
M  V30 145 C 12.9008 -0.702172 3.50434 0
M  V30 146 S 14.4598 -1.30409 4.18974 0
M  V30 147 H 11.2778 -0.103967 0.703358 0
M  V30 148 H 13.8798 0.404187 1.91276 0
M  V30 149 H 12.5838 0.17333 4.10034 0
M  V30 150 H 12.1148 -1.4729 3.64786 0
M  V30 151 H 14.1298 -2.59253 4.23087 0
M  V30 152 N 13.3029 -1.57598 0.00835791 0
M  V30 153 C 14.5519 -1.90107 -0.673968 0
M  V30 154 C 14.8649 -0.884275 -1.7447 0
M  V30 155 O 16.0709 -1.09987 -2.48224 0
M  V30 156 C 14.5269 -3.37497 -1.24995 0
M  V30 157 C 14.1349 -4.47491 -0.2136 0
M  V30 158 C 15.8789 -3.79104 -1.90999 0
M  V30 159 C 13.7859 -5.85963 -0.80005 0
M  V30 160 H 12.7159 -0.709393 -0.255495 0
M  V30 161 H 15.3669 -1.83365 0.0702693 0
M  V30 162 H 13.7489 -3.39102 -2.04513 0
M  V30 163 H 14.9229 -4.57414 0.557596 0
M  V30 164 H 13.2379 -4.14956 0.346474 0
M  V30 165 H 15.8349 -4.79901 -2.35795 0
M  V30 166 H 16.1779 -3.1306 -2.74407 0
M  V30 167 H 16.7109 -3.79833 -1.18203 0
M  V30 168 H 13.4499 -6.555 -0.00456708 0
M  V30 169 H 12.9699 -5.79687 -1.54021 0
M  V30 170 H 14.6489 -6.33884 -1.29615 0
M  V30 171 N 14.781 0.264519 -1.55364 0
M  V30 172 C 16.027 0.99646 -1.76631 0
M  V30 173 C 16.36 1.85632 -0.570478 0
M  V30 174 O 15.635 1.89647 0.43175 0
M  V30 175 C 15.918 1.87187 -3.07625 0
M  V30 176 C 15.771 1.04138 -4.37579 0
M  V30 177 C 17.09 2.85749 -3.34717 0
M  V30 178 H 14.209 0.360841 -0.642622 0
M  V30 179 H 16.851 0.268218 -1.88097 0
M  V30 180 H 15.001 2.49279 -2.9798 0
M  V30 181 H 16.673 0.440517 -4.59192 0
M  V30 182 H 14.916 0.345115 -4.32425 0
M  V30 183 H 15.587 1.68729 -5.2558 0
M  V30 184 H 18.063 2.33793 -3.4421 0
M  V30 185 H 16.939 3.44136 -4.27623 0
M  V30 186 H 17.2 3.61311 -2.54768 0
M  V30 187 N 16.2591 1.48442 0.529413 0
M  V30 188 C 17.5081 1.55742 1.28169 0
M  V30 189 C 17.8211 0.236511 1.94165 0
M  V30 190 O 19.0271 0.187761 2.7085 0
M  V30 191 C 17.4831 2.74667 2.32564 0
M  V30 192 C 17.0911 4.13402 1.72636 0
M  V30 193 C 18.8351 2.9128 3.08798 0
M  V30 194 C 16.7421 5.23587 2.74975 0
M  V30 195 H 15.6721 0.579796 0.48203 0
M  V30 196 H 18.3231 1.74776 0.559056 0
M  V30 197 H 16.7051 2.49067 3.07866 0
M  V30 198 H 17.8791 4.49022 1.03519 0
M  V30 199 H 16.1941 4.0191 1.08892 0
M  V30 200 H 18.7911 3.70767 3.85274 0
M  V30 201 H 19.1341 2.00757 3.64695 0
M  V30 202 H 19.6671 3.16782 2.40611 0
M  V30 203 H 16.4061 6.16076 2.23897 0
M  V30 204 H 15.9261 4.92454 3.42417 0
M  V30 205 H 17.6051 5.51724 3.37949 0
M  V30 206 N 17.7372 -0.778329 1.37039 0
M  V30 207 C 18.6672 -1.90546 1.34962 0
M  V30 208 C 19.6482 -1.68681 0.219274 0
M  V30 209 O 20.8332 -1.89634 0.418624 0
M  V30 210 C 17.9632 -3.27734 1.14925 0
M  V30 211 C 16.9172 -3.64147 2.24902 0
M  V30 212 C 16.2432 -4.99806 1.89996 0
M  V30 213 C 17.5432 -3.71579 3.67051 0
M  V30 214 H 19.2372 -1.92541 2.29277 0
M  V30 215 H 16.7832 -0.924948 1.10366 0
M  V30 216 H 18.7362 -4.06215 1.12104 0
M  V30 217 H 17.4602 -3.26154 0.170631 0
M  V30 218 H 16.1192 -2.8797 2.26868 0
M  V30 219 H 15.7672 -4.94759 0.906796 0
M  V30 220 H 15.4672 -5.25139 2.63634 0
M  V30 221 H 16.9912 -5.80694 1.88749 0
M  V30 222 H 18.4052 -4.40227 3.67251 0
M  V30 223 H 16.8022 -4.08405 4.39688 0
M  V30 224 H 17.8722 -2.72404 4.01154 0
M  V30 225 N 19.2153 -1.21501 -1.00376 0
M  V30 226 C 20.4403 -1.05977 -1.78279 0
M  V30 227 C 20.8653 0.385994 -1.84097 0
M  V30 228 O 20.2233 1.27849 -1.28547 0
M  V30 229 C 20.2713 -1.66302 -3.19963 0
M  V30 230 O 19.3753 -0.909333 -4.0225 0
M  V30 231 H 18.7163 -0.372906 -0.549397 0
M  V30 232 H 21.2463 -1.6107 -1.26165 0
M  V30 233 H 21.2563 -1.70574 -3.70632 0
M  V30 234 H 19.9313 -2.71515 -3.15043 0
M  V30 235 H 18.5083 -0.941795 -3.60811 0
M  V30 236 N 20.6934 1.19889 -1.02296 0
M  V30 237 C 21.9394 1.89701 -0.717033 0
M  V30 238 C 22.2724 1.7905 0.751989 0
M  V30 239 O 21.5474 1.17891 1.547 0
M  V30 240 C 21.8304 3.40858 -1.16136 0
M  V30 241 C 21.6834 3.60411 -2.69117 0
M  V30 242 C 23.0024 4.33876 -0.737549 0
M  V30 243 H 20.1214 0.688874 -0.261957 0
M  V30 244 H 22.7634 1.41154 -1.27183 0
M  V30 245 H 20.9134 3.82335 -0.689342 0
M  V30 246 H 22.5854 3.28145 -3.2422 0
M  V30 247 H 20.8284 3.03665 -3.0979 0
M  V30 248 H 21.4994 4.66396 -2.95261 0
M  V30 249 H 23.9754 4.00081 -1.14344 0
M  V30 250 H 22.8514 5.38242 -1.0764 0
M  V30 251 H 23.1124 4.40628 0.360436 0
M  V30 252 N 22.1715 0.800033 1.35784 0
M  V30 253 C 23.4175 0.377901 1.99248 0
M  V30 254 C 23.7505 -1.05052 1.63333 0
M  V30 255 O 23.0255 -1.72768 0.893385 0
M  V30 256 C 23.3085 0.553922 3.55814 0
M  V30 257 C 23.1615 2.0268 4.01548 0
M  V30 258 C 24.4805 -0.0244802 4.40093 0
M  V30 259 H 21.5995 0.138782 0.723815 0
M  V30 260 H 24.2415 1.00835 1.61035 0
M  V30 261 H 22.3915 0.0172398 3.88496 0
M  V30 262 H 24.0635 2.62536 3.79305 0
M  V30 263 H 22.3065 2.5256 3.52698 0
M  V30 264 H 22.9775 2.10087 5.10458 0
M  V30 265 H 25.4535 0.433775 4.13833 0
M  V30 266 H 24.3295 0.128637 5.48749 0
M  V30 267 H 24.5905 -1.11758 4.27741 0
M  V30 268 N 23.6496 -1.47581 0.552962 0
M  V30 269 C 24.5826 -2.26883 -0.244857 0
M  V30 270 C 25.5606 -1.33784 -0.924147 0
M  V30 271 O 26.7446 -1.6316 -0.943981 0
M  V30 272 C 23.8716 -3.10695 -1.34856 0
M  V30 273 C 22.9176 -4.19339 -0.778268 0
M  V30 274 S 23.7506 -5.34207 0.37184 0
M  V30 275 C 24.9066 -6.21584 -0.733779 0
M  V30 276 H 25.1396 -2.94202 0.428087 0
M  V30 277 H 22.6726 -1.50628 0.339197 0
M  V30 278 H 24.6306 -3.59555 -1.98066 0
M  V30 279 H 23.2916 -2.42746 -1.99332 0
M  V30 280 H 22.4846 -4.77695 -1.60696 0
M  V30 281 H 22.0866 -3.73338 -0.222422 0
M  V30 282 H 24.3786 -6.57676 -1.62692 0
M  V30 283 H 25.3216 -7.07851 -0.187668 0
M  V30 284 H 25.7296 -5.55125 -1.02454 0
M  V30 285 N 25.1277 -0.289203 -1.54924 0
M  V30 286 C 26.0577 0.58549 -2.2604 0
M  V30 287 C 27.0387 1.14753 -1.25562 0
M  V30 288 O 28.2237 1.17906 -1.54311 0
M  V30 289 C 25.3537 1.76305 -2.99222 0
M  V30 290 C 24.3077 1.33191 -4.06748 0
M  V30 291 C 23.6337 2.5937 -4.6758 0
M  V30 292 C 24.9337 0.471775 -5.20165 0
M  V30 293 H 26.6277 -0.00763532 -2.99399 0
M  V30 294 H 24.1737 -0.00511229 -1.43999 0
M  V30 295 H 26.1267 2.38097 -3.47689 0
M  V30 296 H 24.8507 2.38223 -2.23422 0
M  V30 297 H 23.5097 0.737121 -3.59113 0
M  V30 298 H 23.1577 3.19576 -3.88433 0
M  V30 299 H 22.8577 2.31228 -5.40192 0
M  V30 300 H 24.3817 3.21985 -5.18804 0
M  V30 301 H 25.7957 0.995056 -5.64599 0
M  V30 302 H 24.1927 0.284639 -5.99425 0
M  V30 303 H 25.2627 -0.506041 -4.82252 0
M  V30 304 N 26.6058 1.57591 -0.0167156 0
M  V30 305 C 27.8528 1.91283 0.664597 0
M  V30 306 C 28.1808 0.891949 1.72842 0
M  V30 307 O 27.4358 -0.100931 1.9544 0
M  V30 308 C 27.7348 3.3172 1.33029 0
M  V30 309 C 27.4008 4.4914 0.398047 0
M  V30 310 C 26.0628 4.80992 0.141421 0
M  V30 311 C 28.4148 5.20634 -0.242825 0
M  V30 312 C 25.7428 5.81703 -0.764092 0
M  V30 313 C 28.0948 6.22311 -1.13632 0
M  V30 314 C 26.7588 6.52611 -1.40196 0
M  V30 315 H 26.0288 0.699956 0.243193 0
M  V30 316 H 28.6758 1.9135 -0.0758267 0
M  V30 317 H 26.9808 3.27856 2.14517 0
M  V30 318 H 28.6778 3.55055 1.86379 0
M  V30 319 H 25.2678 4.24262 0.608238 0
M  V30 320 H 29.4518 4.96267 -0.0576019 0
M  V30 321 H 24.7078 6.03532 -0.977732 0
M  V30 322 H 28.8818 6.76834 -1.63917 0
M  V30 323 H 26.5088 7.30467 -2.10529 0
M  V30 324 N 28.0839 -0.256276 1.55502 0
M  V30 325 C 29.3299 -0.987079 1.77157 0
M  V30 326 C 29.6629 -1.85327 0.580315 0
M  V30 327 O 28.9379 -1.89874 -0.421686 0
M  V30 328 C 29.2209 -1.85553 3.08613 0
M  V30 329 C 29.0739 -1.01816 4.38125 0
M  V30 330 C 30.3929 -2.8397 3.36228 0
M  V30 331 H 27.5119 -0.357428 0.644526 0
M  V30 332 H 30.1539 -0.258239 1.88237 0
M  V30 333 H 28.3039 -2.47695 2.99298 0
M  V30 334 H 29.9759 -0.416159 4.59419 0
M  V30 335 H 28.2189 -0.322178 4.32602 0
M  V30 336 H 28.8899 -1.65939 5.26468 0
M  V30 337 H 31.3659 -2.31964 3.45445 0
M  V30 338 H 30.2419 -3.41864 4.29442 0
M  V30 339 H 30.5029 -3.59955 2.56681 0
M  V30 340 N 29.562 -1.4872 -0.521534 0
M  V30 341 C 30.787 -1.61101 -1.30618 0
M  V30 342 C 31.212 -0.274611 -1.86085 0
M  V30 343 O 30.57 0.754937 -1.64834 0
M  V30 344 C 30.618 -2.66709 -2.4269 0
M  V30 345 O 29.722 -2.24456 -3.45967 0
M  V30 346 H 29.063 -0.539921 -0.386499 0
M  V30 347 H 31.593 -1.94767 -0.626645 0
M  V30 348 H 31.603 -2.88245 -2.88754 0
M  V30 349 H 30.278 -3.63727 -2.01682 0
M  V30 350 H 28.855 -2.13168 -3.05964 0
M  V30 351 N 31.0401 0.771051 -1.3745 0
M  V30 352 C 31.9701 1.89827 -1.3597 0
M  V30 353 C 32.9511 1.68562 -0.228216 0
M  V30 354 O 34.1361 1.8941 -0.428675 0
M  V30 355 C 31.2661 3.2712 -1.16662 0
M  V30 356 C 30.2201 3.6295 -2.2683 0
M  V30 357 C 29.5461 4.98791 -1.92644 0
M  V30 358 C 30.8461 3.69627 -3.69017 0
M  V30 359 H 32.5401 1.91323 -2.30295 0
M  V30 360 H 30.0861 0.919082 -1.10855 0
M  V30 361 H 32.0391 4.05615 -1.14256 0
M  V30 362 H 30.7631 3.26059 -0.187926 0
M  V30 363 H 29.4221 2.86763 -2.28392 0
M  V30 364 H 29.0701 4.94271 -0.933021 0
M  V30 365 H 28.7701 5.23733 -2.66416 0
M  V30 366 H 30.2941 5.79685 -1.91826 0
M  V30 367 H 31.7081 4.38273 -3.69581 0
M  V30 368 H 30.1051 4.06067 -4.41848 0
M  V30 369 H 31.1751 2.70273 -4.02592 0
M  V30 370 N 32.5182 1.22032 0.997298 0
M  V30 371 C 33.4482 1.01065 2.10495 0
M  V30 372 C 34.4292 -0.0669542 1.69968 0
M  V30 373 O 35.6142 0.0943987 1.9397 0
M  V30 374 C 32.7442 0.582874 3.42374 0
M  V30 375 C 31.6982 1.60592 3.96729 0
M  V30 376 C 31.0242 1.03412 5.24605 0
M  V30 377 C 32.3242 2.99478 4.27914 0
M  V30 378 H 34.0182 1.93708 2.28292 0
M  V30 379 H 31.5642 0.932761 1.09707 0
M  V30 380 H 33.5172 0.423332 4.19268 0
M  V30 381 H 32.2412 -0.379213 3.24391 0
M  V30 382 H 30.9002 1.75316 3.21963 0
M  V30 383 H 30.5482 0.063518 5.0296 0
M  V30 384 H 30.2482 1.71754 5.61938 0
M  V30 385 H 31.7722 0.886066 6.04137 0
M  V30 386 H 33.1862 2.88153 4.95622 0
M  V30 387 H 31.5832 3.64903 4.76409 0
M  V30 388 H 32.6532 3.49742 3.3587 0
M  V30 389 N 33.9963 -1.19345 1.0293 0
M  V30 390 C 35.2453 -1.88363 0.721256 0
M  V30 391 C 35.5583 -1.80514 -0.753254 0
M  V30 392 O 36.7643 -2.44788 -1.17436 0
M  V30 393 C 35.2203 -3.37872 1.23978 0
M  V30 394 C 34.8283 -3.54278 2.74211 0
M  V30 395 C 36.5723 -4.12365 1.00775 0
M  V30 396 C 34.4793 -4.97682 3.19479 0
M  V30 397 H 33.4093 -0.705484 0.266098 0
M  V30 398 H 36.0603 -1.34928 1.24365 0
M  V30 399 H 34.4423 -3.90707 0.6453 0
M  V30 400 H 35.6163 -3.11769 3.39318 0
M  V30 401 H 33.9313 -2.93174 2.95699 0
M  V30 402 H 36.5283 -5.18119 1.32123 0
M  V30 403 H 36.8713 -4.16263 -0.0554308 0
M  V30 404 H 37.4043 -3.65668 1.56625 0
M  V30 405 H 34.1433 -4.98945 4.25128 0
M  V30 406 H 33.6633 -5.4095 2.591 0
M  V30 407 H 35.3423 -5.66337 3.12845 0
M  V30 408 N 35.4744 -0.807222 -1.35358 0
M  V30 409 C 36.8854 -0.44876 -1.81226 0
M  V30 410 C 37.2364 1.02929 -1.67033 0
M  V30 411 O 36.3614 1.79991 -1.20133 0
M  V30 412 C 36.9564 -0.807774 -3.2903 0
M  V30 413 C 35.5154 -0.501901 -3.73039 0
M  V30 414 C 34.6624 -1.03304 -2.57339 0
M  V30 415 H 37.6134 -0.998808 -1.23327 0
M  V30 416 H 37.6344 -0.10554 -3.80354 0
M  V30 417 H 37.1464 -1.88357 -3.39328 0
M  V30 418 H 35.2474 0.565128 -3.68289 0
M  V30 419 H 35.3604 -1.03497 -4.67787 0
M  V30 420 H 33.7244 -0.455339 -2.50597 0
M  V30 421 H 34.5074 -2.11496 -2.70415 0
M  V30 422 N 36.9525 1.47285 -0.560781 0
M  V30 423 C 37.8845 2.28118 0.222438 0
M  V30 424 C 38.8975 1.37219 0.876056 0
M  V30 425 O 40.0865 1.62011 0.749307 0
M  V30 426 C 37.1865 3.1159 1.33285 0
M  V30 427 C 36.3595 4.30473 0.77534 0
M  V30 428 C 35.4185 4.95513 1.77069 0
M  V30 429 O 34.4445 5.53792 1.31539 0
M  V30 430 N 35.6465 4.90531 3.10418 0
M  V30 431 H 38.4115 2.95976 -0.470958 0
M  V30 432 H 35.9725 1.56955 -0.39709 0
M  V30 433 H 37.9645 3.51967 1.99752 0
M  V30 434 H 36.5345 2.45951 1.92943 0
M  V30 435 H 35.7545 3.94144 -0.0662113 0
M  V30 436 H 37.0425 5.07362 0.382272 0
M  V30 437 H 36.4405 4.44389 3.5005 0
M  V30 438 H 34.9975 5.34917 3.72434 0
M  V30 439 N 38.4306 0.297415 1.54768 0
M  V30 440 C 39.3936 -0.567375 2.22066 0
M  V30 441 C 40.3936 -1.06409 1.20556 0
M  V30 442 O 41.5836 -0.960691 1.45315 0
M  V30 443 C 38.7156 -1.78517 2.90421 0
M  V30 444 H 39.9086 0.0205534 2.99893 0
M  V30 445 H 37.4616 0.0482163 1.56226 0
M  V30 446 H 38.1966 -2.41303 2.16664 0
M  V30 447 H 37.9816 -1.43669 3.64831 0
M  V30 448 H 39.4716 -2.39964 3.41771 0
M  V30 449 N 39.9087 -1.5758 0.0250728 0
M  V30 450 C 41.1337 -1.96337 -0.668317 0
M  V30 451 C 41.5587 -0.901314 -1.651 0
M  V30 452 O 40.9167 0.138187 -1.80773 0
M  V30 453 C 40.9647 -3.34191 -1.35457 0
M  V30 454 O 40.0687 -3.30269 -2.46974 0
M  V30 455 H 39.4097 -0.640281 -0.175887 0
M  V30 456 H 41.9397 -2.0442 0.0857224 0
M  V30 457 H 41.9497 -3.70331 -1.71228 0
M  V30 458 H 40.6247 -4.11036 -0.634218 0
M  V30 459 H 39.2017 -3.05841 -2.13344 0
M  V30 460 N 41.3868 0.248026 -1.55636 0
M  V30 461 C 42.6118 0.998028 -1.81808 0
M  V30 462 C 43.0368 1.78207 -0.601979 0
M  V30 463 O 42.3948 1.75653 0.448961 0
M  V30 464 C 42.4428 1.9125 -3.05705 0
M  V30 465 O 41.5468 3.00406 -2.82542 0
M  V30 466 H 40.8878 0.284045 -0.600179 0
M  V30 467 H 43.4178 0.269357 -2.02819 0
M  V30 468 H 43.4278 2.32737 -3.35108 0
M  V30 469 H 42.1028 1.33602 -3.93857 0
M  V30 470 H 40.6798 2.63056 -2.64303 0
M  V30 471 N 42.8649 1.48995 0.513639 0
M  V30 472 C 43.8279 1.64229 1.59879 0
M  V30 473 C 44.8279 0.514696 1.5234 0
M  V30 474 O 46.0179 0.78087 1.55718 0
M  V30 475 C 43.1499 1.62783 2.99524 0
M  V30 476 H 44.3429 2.61004 1.47705 0
M  V30 477 H 41.8959 1.37837 0.736936 0
M  V30 478 H 42.6309 0.675461 3.17188 0
M  V30 479 H 42.4159 2.4466 3.06404 0
M  V30 480 H 43.9059 1.76669 3.78388 0
M  V30 481 N 44.343 -0.763751 1.37857 0
M  V30 482 C 45.306 -1.85889 1.34081 0
M  V30 483 C 46.306 -1.58949 0.243277 0
M  V30 484 O 47.496 -1.66882 0.499589 0
M  V30 485 C 44.628 -3.23176 1.08489 0
M  V30 486 H 45.821 -1.90648 2.31502 0
M  V30 487 H 43.374 -0.964367 1.23003 0
M  V30 488 H 44.109 -3.24091 0.116318 0
M  V30 489 H 43.894 -3.44124 1.8794 0
M  V30 490 H 45.384 -4.03254 1.08517 0
M  V30 491 N 45.8211 -1.22559 -0.990812 0
M  V30 492 C 47.0671 -1.05297 -1.73322 0
M  V30 493 C 47.4001 0.410655 -1.89808 0
M  V30 494 O 46.6751 1.30439 -1.44277 0
M  V30 495 C 46.9581 -1.76713 -3.13759 0
M  V30 496 C 46.8111 -3.30684 -3.04907 0
M  V30 497 C 48.1301 -1.52121 -4.12974 0
M  V30 498 H 45.2491 -0.38392 -0.629106 0
M  V30 499 H 47.8911 -1.50926 -1.15418 0
M  V30 500 H 46.0411 -1.37924 -3.63193 0
M  V30 501 H 47.7131 -3.7893 -2.63077 0
M  V30 502 H 45.9561 -3.60253 -2.41661 0
M  V30 503 H 46.6271 -3.75833 -4.04294 0
M  V30 504 H 49.1031 -1.85819 -3.72304 0
M  V30 505 H 47.9791 -2.04582 -5.0935 0
M  V30 506 H 48.2401 -0.454257 -4.3976 0
M  V30 507 N 47.2992 1.18797 -1.03562 0
M  V30 508 C 48.2472 2.24297 -0.615905 0
M  V30 509 C 49.2412 1.65643 0.354808 0
M  V30 510 O 50.4472 1.78618 0.22265 0
M  V30 511 H 46.8222 0.729909 -0.180934 0
M  V30 512 H 48.7932 2.5701 -1.5162 0
M  V30 513 C 47.5422 3.47698 0.0104735 0
M  V30 514 H 46.8652 3.93125 -0.727509 0
M  V30 515 H 48.3052 4.23159 0.266995 0
M  V30 516 C 46.7642 3.12489 1.25905 0
M  V30 517 O 47.2942 3.25761 2.35038 0
M  V30 518 N 45.5002 2.6686 1.15039 0
M  V30 519 H 45.0472 2.56261 0.262328 0
M  V30 520 H 45.0052 2.43674 1.98672 0
M  V30 521 N 48.7773 0.814389 1.34928 0
M  V30 522 C 50.0253 0.397636 1.9815 0
M  V30 523 C 50.3463 -1.04069 1.64908 0
M  V30 524 O 49.6163 -1.72121 0.93548 0
M  V30 525 H 48.1963 0.144043 0.732981 0
M  V30 526 H 50.8583 1.04195 1.6471 0
M  V30 527 H 49.9543 0.509688 3.0791 0
M  V30 528 N 50.2554 -1.46986 0.568584 0
M  V30 529 C 51.2024 -2.30153 -0.172707 0
M  V30 530 C 52.1724 -1.39759 -0.897586 0
M  V30 531 O 53.3574 -1.68716 -0.891044 0
M  V30 532 C 50.4974 -3.23952 -1.1895 0
M  V30 533 C 49.6104 -4.29441 -0.469517 0
M  V30 534 C 48.7454 -5.1038 -1.47259 0
M  V30 535 C 47.7844 -6.07632 -0.738225 0
M  V30 536 N 46.9214 -6.8149 -1.68868 0
M  V30 537 H 51.7614 -2.93019 0.542596 0
M  V30 538 H 49.2984 -1.44422 0.279401 0
M  V30 539 H 51.2564 -3.76767 -1.79173 0
M  V30 540 H 49.8864 -2.62926 -1.87269 0
M  V30 541 H 48.9384 -3.79594 0.247467 0
M  V30 542 H 50.2504 -4.98689 0.105241 0
M  V30 543 H 49.4044 -5.67402 -2.14803 0
M  V30 544 H 48.1434 -4.4106 -2.08128 0
M  V30 545 H 47.1484 -5.49778 -0.0489293 0
M  V30 546 H 48.3734 -6.78966 -0.135129 0
M  V30 547 H 46.3194 -6.14891 -2.28573 0
M  V30 548 H 46.2364 -7.46948 -1.16636 0
M  V30 549 H 47.5044 -7.43078 -2.3549 0
M  V30 550 N 51.7335 -0.305618 -1.54608 0
M  V30 551 C 52.9815 0.301701 -1.99835 0
M  V30 552 C 53.3025 1.54054 -1.19551 0
M  V30 553 O 52.5725 1.93702 -0.292658 0
M  V30 554 H 51.1525 0.114468 -0.738178 0
M  V30 555 H 53.8145 -0.418016 -1.90364 0
M  V30 556 H 52.9105 0.570548 -3.06841 0
M  V30 557 N 53.2116 1.57565 -0.0334293 0
M  V30 558 C 54.1446 2.05997 0.981866 0
M  V30 559 C 55.1226 0.956647 1.3148 0
M  V30 560 O 56.3066 1.22729 1.43073 0
M  V30 561 C 53.4336 2.48564 2.30074 0
M  V30 562 C 52.4796 3.69958 2.12211 0
M  V30 563 S 53.3126 5.16414 1.41692 0
M  V30 564 C 54.4686 5.6228 2.7494 0
M  V30 565 H 54.7016 2.91792 0.569612 0
M  V30 566 H 52.2346 1.53366 0.178376 0
M  V30 567 H 54.1926 2.73753 3.05892 0
M  V30 568 H 52.8536 1.63106 2.68431 0
M  V30 569 H 52.0466 3.97603 3.09722 0
M  V30 570 H 51.6486 3.44943 1.44535 0
M  V30 571 H 53.9406 5.66783 3.71165 0
M  V30 572 H 54.8836 6.61759 2.51953 0
M  V30 573 H 55.2916 4.89944 2.80384 0
M  V30 574 N 54.6897 -0.239769 1.55765 0
M  V30 575 C 55.6377 -1.31668 1.91745 0
M  V30 576 C 56.6317 -1.49462 0.797338 0
M  V30 577 O 57.8377 -1.50852 0.982021 0
M  V30 578 H 54.2127 -0.441048 0.609082 0
M  V30 579 H 56.1837 -0.985923 2.81642 0
M  V30 580 C 54.9327 -2.66368 2.2348 0
M  V30 581 H 54.2557 -2.53478 3.09175 0
M  V30 582 H 55.6957 -3.40578 2.52553 0
M  V30 583 C 54.1547 -3.20002 1.05359 0
M  V30 584 O 54.6847 -4.00538 0.305261 0
M  V30 585 N 52.8907 -2.78126 0.842292 0
M  V30 586 H 52.4377 -2.12742 1.45253 0
M  V30 587 H 52.3957 -3.14354 0.053652 0
M  V30 588 N 56.1678 -1.49265 -0.50573 0
M  V30 589 C 57.5788 -1.51769 -1.08734 0
M  V30 590 C 57.9298 -0.301192 -1.93874 0
M  V30 591 O 57.0548 0.589456 -2.08217 0
M  V30 592 C 57.6498 -2.75017 -1.97867 0
M  V30 593 C 56.2088 -2.80314 -2.51199 0
M  V30 594 C 55.3558 -2.4562 -1.28709 0
M  V30 595 H 58.3068 -1.56031 -0.289855 0
M  V30 596 H 58.3278 -2.5491 -2.82491 0
M  V30 597 H 57.8398 -3.63539 -1.35873 0
M  V30 598 H 55.9408 -1.96061 -3.16845 0
M  V30 599 H 56.0538 -3.82366 -2.88675 0
M  V30 600 H 54.4178 -1.97297 -1.61078 0
M  V30 601 H 55.2008 -3.36411 -0.6843 0
M  V30 602 N 57.6459 0.756429 -1.3826 0
M  V30 603 C 58.9229 1.50584 -1.24835 0
M  V30 604 C 59.3029 2.10556 0.151485 0
M  V30 605 O 58.6509 1.96825 1.1607 0
M  V30 606 C 58.8609 2.57448 -2.3563 0
M  V30 607 C 60.2089 3.24429 -2.73917 0
M  V30 608 O 61.2329 2.67751 -2.34921 0
M  V30 609 O 60.0919 4.26937 -3.41156 0
M  V30 610 H 57.1859 0.667664 -0.48801 0
M  V30 611 H 59.7319 0.792083 -1.5008 0
M  V30 612 H 58.5039 2.11362 -3.29305 0
M  V30 613 H 58.1269 3.36408 -2.11933 0
M  V30 614 N 59.124 1.23083 0.984299 0
M  V30 615 C 60.354 1.08556 1.75781 0
M  V30 616 C 60.762 -0.366171 1.85623 0
M  V30 617 O 60.105 -1.26524 1.33182 0
M  V30 618 C 60.167 1.63208 3.20318 0
M  V30 619 C 59.831 3.11922 3.33997 0
M  V30 620 C 60.828 4.09259 3.2063 0
M  V30 621 C 58.513 3.51552 3.58771 0
M  V30 622 C 60.507 5.4421 3.31835 0
M  V30 623 C 58.194 4.86649 3.69616 0
M  V30 624 C 59.192 5.82787 3.56157 0
M  V30 625 O 58.88 7.15431 3.66626 0
M  V30 626 H 58.612 0.380713 0.5586 0
M  V30 627 H 61.166 1.63321 1.2456 0
M  V30 628 H 59.396 1.0286 3.72769 0
M  V30 629 H 61.085 1.44216 3.79416 0
M  V30 630 H 61.851 3.79984 3.01392 0
M  V30 631 H 57.73 2.77239 3.6832 0
M  V30 632 H 61.274 6.1923 3.21247 0
M  V30 633 H 57.171 5.15601 3.88363 0
M  V30 634 H 57.939 7.23127 3.83445 0
M  V30 635 N 60.6021 -1.18246 1.0419 0
M  V30 636 C 61.5491 -2.2192 0.634037 0
M  V30 637 C 62.5191 -1.62179 -0.358765 0
M  V30 638 O 63.7041 -1.89122 -0.252466 0
M  V30 639 C 60.8441 -3.451 0.00445535 0
M  V30 640 C 59.9571 -4.19174 1.04487 0
M  V30 641 C 59.0921 -5.29813 0.383676 0
M  V30 642 C 58.1311 -5.9566 1.4091 0
M  V30 643 N 57.2681 -6.97834 0.772784 0
M  V30 644 H 62.1081 -2.56164 1.52263 0
M  V30 645 H 59.6451 -1.25843 0.761701 0
M  V30 646 H 61.6031 -4.15485 -0.377919 0
M  V30 647 H 60.2331 -3.11472 -0.847652 0
M  V30 648 H 59.2851 -3.47604 1.54518 0
M  V30 649 H 60.5971 -4.64267 1.82368 0
M  V30 650 H 59.7511 -6.06677 -0.0528366 0
M  V30 651 H 58.4901 -4.85825 -0.427208 0
M  V30 652 H 57.4951 -5.17535 1.85574 0
M  V30 653 H 58.7201 -6.4173 2.22171 0
M  V30 654 H 56.6661 -6.55998 -0.0177708 0
M  V30 655 H 56.5831 -7.41186 1.48928 0
M  V30 656 H 57.8511 -7.78665 0.36071 0
M  V30 657 N 62.0802 -0.821533 -1.34494 0
M  V30 658 C 63.0432 -0.247847 -2.27856 0
M  V30 659 C 64.0432 0.573453 -1.50227 0
M  V30 660 O 65.2332 0.389759 -1.69784 0
M  V30 661 C 62.3652 0.652698 -3.34593 0
M  V30 662 H 63.5582 -1.07146 -2.80107 0
M  V30 663 H 61.1112 -0.593291 -1.44602 0
M  V30 664 H 61.8462 1.49943 -2.87555 0
M  V30 665 H 61.6312 0.065292 -3.92046 0
M  V30 666 H 63.1212 1.04793 -4.04238 0
M  V30 667 N 63.5583 1.46682 -0.576371 0
M  V30 668 C 64.7883 2.06498 -0.0648694 0
M  V30 669 C 65.1963 1.42665 1.24271 0
M  V30 670 O 64.5393 0.523886 1.76071 0
M  V30 671 C 64.6013 3.5904 0.181816 0
M  V30 672 C 64.2653 4.45028 -1.0392 0
M  V30 673 C 65.2623 4.81959 -1.94966 0
M  V30 674 C 62.9473 4.86259 -1.25927 0
M  V30 675 C 64.9413 5.58942 -3.06371 0
M  V30 676 C 62.6283 5.63002 -2.37638 0
M  V30 677 C 63.6263 5.99257 -3.2769 0
M  V30 678 O 63.3143 6.7445 -4.37461 0
M  V30 679 H 63.0463 0.674028 -0.0515987 0
M  V30 680 H 65.6003 1.89393 -0.794951 0
M  V30 681 H 63.8303 3.74429 0.966436 0
M  V30 682 H 65.5193 4.00806 0.641047 0
M  V30 683 H 66.2853 4.50689 -1.79177 0
M  V30 684 H 62.1643 4.57494 -0.567448 0
M  V30 685 H 65.7083 5.87158 -3.76684 0
M  V30 686 H 61.6053 5.93686 -2.53392 0
M  V30 687 H 62.3733 6.92867 -4.35749 0
M  V30 688 N 65.0364 0.313813 1.54444 0
M  V30 689 C 65.9664 -0.549454 2.26943 0
M  V30 690 C 66.9474 -1.12741 1.27372 0
M  V30 691 O 68.1324 -1.15436 1.56167 0
M  V30 692 C 65.2624 -1.71523 3.01989 0
M  V30 693 C 64.2164 -1.26703 4.08816 0
M  V30 694 C 63.5424 -2.51898 4.71647 0
M  V30 695 C 64.8424 -0.388962 5.2085 0
M  V30 696 H 66.5364 0.0552661 2.99349 0
M  V30 697 H 64.0824 0.0280207 1.43973 0
M  V30 698 H 66.0354 -2.32535 3.51433 0
M  V30 699 H 64.7594 -2.34639 2.27183 0
M  V30 700 H 63.4184 -0.679896 3.6024 0
M  V30 701 H 63.0664 -3.13356 3.93468 0
M  V30 702 H 62.7664 -2.22605 5.43802 0
M  V30 703 H 64.2904 -3.1369 5.23861 0
M  V30 704 H 65.7044 -0.905107 5.6611 0
M  V30 705 H 64.1014 -0.18924 5.99802 0
M  V30 706 H 65.1714 0.582699 4.81386 0
M  V30 707 N 66.5145 -1.57545 0.0417849 0
M  V30 708 C 67.4475 -2.06514 -0.970928 0
M  V30 709 C 68.4255 -0.963607 -1.30971 0
M  V30 710 O 69.6095 -1.23486 -1.4242 0
M  V30 711 C 66.7365 -2.4978 -2.28752 0
M  V30 712 C 65.7825 -3.71078 -2.10246 0
M  V30 713 S 66.6155 -5.17158 -1.38952 0
M  V30 714 C 67.7715 -5.6373 -2.71954 0
M  V30 715 H 68.0045 -2.9209 -0.554129 0
M  V30 716 H 65.5375 -1.53459 -0.17024 0
M  V30 717 H 67.4955 -2.75371 -3.04435 0
M  V30 718 H 66.1565 -1.64527 -2.67562 0
M  V30 719 H 65.3495 -3.9924 -3.07609 0
M  V30 720 H 64.9515 -3.45705 -1.42704 0
M  V30 721 H 67.2435 -5.68743 -3.68154 0
M  V30 722 H 68.1865 -6.63086 -2.4844 0
M  V30 723 H 68.5945 -4.91424 -2.77782 0
M  V30 724 N 67.9926 0.231505 -1.5589 0
M  V30 725 C 68.9556 1.27028 -1.90779 0
M  V30 726 C 69.9556 1.40308 -0.785507 0
M  V30 727 O 71.1456 1.38744 -1.05336 0
M  V30 728 C 68.2776 2.64566 -2.14983 0
M  V30 729 H 69.4706 0.973017 -2.83677 0
M  V30 730 H 67.0236 0.471486 -1.49019 0
M  V30 731 H 67.7586 2.99406 -1.24604 0
M  V30 732 H 67.5436 2.56305 -2.96732 0
M  V30 733 H 69.0336 3.39543 -2.43105 0
M  V30 734 N 69.4707 1.49531 0.497807 0
M  V30 735 C 70.8817 1.52344 1.07927 0
M  V30 736 C 71.2327 0.311469 1.93712 0
M  V30 737 O 70.3577 -0.578405 2.08527 0
M  V30 738 C 70.9527 2.76062 1.96405 0
M  V30 739 C 69.5117 2.81643 2.49709 0
M  V30 740 C 68.6587 2.46299 1.27404 0
M  V30 741 H 71.6097 1.56182 0.281576 0
M  V30 742 H 71.6307 2.56405 2.81135 0
M  V30 743 H 71.1427 3.64254 1.33943 0
M  V30 744 H 69.2437 1.97739 3.15801 0
M  V30 745 H 69.3567 3.83891 2.86643 0
M  V30 746 H 67.7207 1.98148 1.60029 0
M  V30 747 H 68.5037 3.36769 0.66645 0
M  V30 748 N 70.9488 -0.749086 1.3866 0
M  V30 749 C 71.8788 -1.8764 1.38973 0
M  V30 750 C 72.8598 -1.68178 0.255004 0
M  V30 751 O 74.0448 -1.88704 0.458754 0
M  V30 752 C 71.1748 -3.25222 1.21851 0
M  V30 753 C 70.1288 -3.59295 2.32575 0
M  V30 754 C 69.4548 -4.95663 2.00555 0
M  V30 755 C 70.7548 -3.63709 3.7485 0
M  V30 756 H 72.4488 -1.87635 2.3331 0
M  V30 757 H 69.9948 -0.901329 1.12303 0
M  V30 758 H 71.9478 -4.03746 1.20695 0
M  V30 759 H 70.6718 -3.25719 0.239775 0
M  V30 760 H 69.3308 -2.83093 2.32925 0
M  V30 761 H 68.9788 -4.92724 1.01154 0
M  V30 762 H 68.6788 -5.19429 2.74714 0
M  V30 763 H 70.2028 -5.7656 2.01024 0
M  V30 764 H 71.6168 -4.32338 3.76506 0
M  V30 765 H 70.0138 -3.98986 4.48252 0
M  V30 766 H 71.0838 -2.63834 4.06841 0
M  V30 767 N 72.4269 -1.23603 -0.977757 0
M  V30 768 C 73.3739 -1.01954 -2.07061 0
M  V30 769 C 74.3439 0.0638697 -1.65977 0
M  V30 770 O 75.5289 -0.0887624 -1.90593 0
M  V30 771 C 72.6689 -0.619658 -3.39491 0
M  V30 772 C 71.7819 -1.77547 -3.93829 0
M  V30 773 C 70.9169 -1.32212 -5.14484 0
M  V30 774 C 69.9559 -2.44852 -5.60994 0
M  V30 775 N 69.0929 -2.00456 -6.72876 0
M  V30 776 H 73.9329 -1.95495 -2.24913 0
M  V30 777 H 71.4699 -0.973861 -1.10247 0
M  V30 778 H 73.4279 -0.368898 -4.15566 0
M  V30 779 H 72.0579 0.278752 -3.21594 0
M  V30 780 H 71.1099 -2.14016 -3.14486 0
M  V30 781 H 72.4219 -2.62219 -4.24314 0
M  V30 782 H 71.5759 -1.02965 -5.97899 0
M  V30 783 H 70.3149 -0.445808 -4.85658 0
M  V30 784 H 69.3199 -2.74871 -4.76157 0
M  V30 785 H 70.5449 -3.33024 -5.91837 0
M  V30 786 H 68.4909 -1.15208 -6.45804 0
M  V30 787 H 68.4079 -2.78687 -7.02759 0
M  V30 788 H 69.6759 -1.7432 -7.59758 0
M  V30 789 N 73.905 1.17692 -1.04816 0
M  V30 790 C 74.852 2.21581 -0.645797 0
M  V30 791 C 75.822 1.62367 0.350159 0
M  V30 792 O 77.007 1.89254 0.242433 0
M  V30 793 C 74.147 3.45092 -0.0227568 0
M  V30 794 C 73.26 4.18613 -1.06709 0
M  V30 795 C 72.395 5.29602 -0.411767 0
M  V30 796 C 71.434 5.94904 -1.44067 0
M  V30 797 N 70.571 6.97414 -0.809781 0
M  V30 798 H 75.411 2.55353 -1.5362 0
M  V30 799 H 72.948 1.25438 -0.768364 0
M  V30 800 H 74.906 4.15679 0.35588 0
M  V30 801 H 73.536 3.11917 0.831122 0
M  V30 802 H 72.588 3.46779 -1.5636 0
M  V30 803 H 73.9 4.63293 -1.84827 0
M  V30 804 H 73.054 6.06696 0.0206623 0
M  V30 805 H 71.793 4.86045 0.401438 0
M  V30 806 H 70.798 5.16544 -1.88316 0
M  V30 807 H 72.023 6.40542 -2.25571 0
M  V30 808 H 69.969 6.55998 -0.0170186 0
M  V30 809 H 69.886 7.40386 -1.52856 0
M  V30 810 H 71.154 7.78463 -0.401999 0
M  V30 811 N 75.3831 0.828654 1.34056 0
M  V30 812 C 76.6321 0.415828 1.97367 0
M  V30 813 C 76.9451 -1.02796 1.6641 0
M  V30 814 O 78.1511 -1.54497 2.23255 0
M  V30 815 C 76.6071 0.692601 3.53173 0
M  V30 816 C 76.2151 2.15038 3.93017 0
M  V30 817 C 77.9591 0.346222 4.23086 0
M  V30 818 C 75.8661 2.37174 5.41758 0
M  V30 819 H 74.7961 0.151755 0.738571 0
M  V30 820 H 77.4471 1.01581 1.52819 0
M  V30 821 H 75.8291 0.0223764 3.95994 0
M  V30 822 H 77.0031 2.86024 3.61285 0
M  V30 823 H 75.3181 2.45875 3.36057 0
M  V30 824 H 77.9151 0.48937 5.32456 0
M  V30 825 H 78.2581 -0.709842 4.10204 0
M  V30 826 H 78.7911 0.971258 3.85761 0
M  V30 827 H 75.5301 3.41308 5.59633 0
M  V30 828 H 75.0501 1.70738 5.74986 0
M  V30 829 H 76.7291 2.19818 6.08514 0
M  V30 830 N 76.8612 -1.46375 0.584142 0
M  V30 831 C 78.2722 -1.86031 0.157959 0
M  V30 832 C 78.6232 -1.48753 -1.27933 0
M  V30 833 O 77.7482 -0.903098 -1.96655 0
M  V30 834 C 78.3432 -3.37642 0.279892 0
M  V30 835 C 76.9022 -3.76289 -0.09143 0
M  V30 836 C 76.0492 -2.7039 0.615178 0
M  V30 837 H 79.0002 -1.37509 0.792274 0
M  V30 838 H 79.0212 -3.77275 -0.494364 0
M  V30 839 H 78.5332 -3.64742 1.32607 0
M  V30 840 H 76.6342 -3.54806 -1.13769 0
M  V30 841 H 76.7472 -4.78246 0.285886 0
M  V30 842 H 75.1112 -2.5464 0.0552833 0
M  V30 843 H 75.8942 -3.0033 1.66303 0
M  V30 844 N 78.3393 -0.321999 -1.54275 0
M  V30 845 C 79.2493 0.553631 -2.27974 0
M  V30 846 C 80.2653 1.13054 -1.32268 0
M  V30 847 O 81.4413 1.15084 -1.6528 0
M  V30 848 C 78.5063 1.69927 -3.02201 0
M  V30 849 C 77.5673 1.15433 -4.1349 0
M  V30 850 C 76.8003 2.24537 -4.84168 0
M  V30 851 O 77.0233 3.44852 -4.5435 0
M  V30 852 O 75.9573 1.90044 -5.7111 0
M  V30 853 H 79.7833 -0.0448345 -3.03667 0
M  V30 854 H 77.3683 -0.0877418 -1.49142 0
M  V30 855 H 79.2503 2.3663 -3.48689 0
M  V30 856 H 77.9253 2.28395 -2.29385 0
M  V30 857 H 76.8323 0.452436 -3.71354 0
M  V30 858 H 78.1653 0.614805 -4.88345 0
M  V30 859 N 79.8174 1.5752 -0.0501392 0
M  V30 860 C 81.0634 1.92936 0.624798 0
M  V30 861 C 81.3964 0.928685 1.70555 0
M  V30 862 O 80.6714 -0.0454779 1.94447 0
M  V30 863 C 80.9544 3.38737 1.22185 0
M  V30 864 C 80.8074 4.49552 0.149218 0
M  V30 865 C 82.1264 3.84913 2.13378 0
M  V30 866 H 79.2454 0.701604 0.225657 0
M  V30 867 H 81.8874 1.89671 -0.111693 0
M  V30 868 H 80.0374 3.4165 1.84953 0
M  V30 869 H 81.7094 4.58768 -0.482648 0
M  V30 870 H 79.9524 4.30638 -0.522841 0
M  V30 871 H 80.6234 5.48653 0.606966 0
M  V30 872 H 83.0994 3.8387 1.60572 0
M  V30 873 H 81.9754 4.87584 2.52097 0
M  V30 874 H 82.2364 3.21611 3.03346 0
M  V30 875 N 81.2955 -0.223234 1.56011 0
M  V30 876 C 82.5235 -0.964812 1.83027 0
M  V30 877 C 82.9385 -1.78013 0.62904 0
M  V30 878 O 82.2955 -1.78008 -0.402414 0
M  V30 879 C 82.3465 -1.88373 3.08542 0
M  V30 880 O 82.0675 -1.10137 4.2403 0
M  V30 881 C 83.5685 -2.73934 3.48533 0
M  V30 882 H 80.7885 -0.282842 0.608475 0
M  V30 883 H 83.3325 -0.238971 2.03099 0
M  V30 884 H 81.4875 -2.56354 2.9045 0
M  V30 885 H 81.9015 -1.72501 4.95322 0
M  V30 886 H 83.3755 -3.34117 4.39397 0
M  V30 887 H 83.8525 -3.46244 2.70207 0
M  V30 888 H 84.4585 -2.11369 3.69057 0
M  V30 889 N 82.7736 -1.49793 -0.48987 0
M  V30 890 C 83.7216 -1.67783 -1.61095 0
M  V30 891 C 84.7156 -0.543683 -1.60438 0
M  V30 892 O 85.9216 -0.723647 -1.64813 0
M  V30 893 H 82.2966 -0.529255 -0.534222 0
M  V30 894 H 84.2676 -2.61861 -1.43078 0
M  V30 895 C 83.0166 -1.77191 -2.99164 0
M  V30 896 H 82.3396 -2.63841 -3.0038 0
M  V30 897 H 83.7796 -1.93809 -3.77113 0
M  V30 898 C 82.2386 -0.519203 -3.32875 0
M  V30 899 O 82.7686 0.350124 -4.00171 0
M  V30 900 N 80.9746 -0.378816 -2.8812 0
M  V30 901 H 80.5216 -1.08725 -2.33531 0
M  V30 902 H 80.4796 0.458239 -3.11043 0
M  V30 903 N 84.2517 0.741722 -1.39055 0
M  V30 904 C 85.4977 1.50234 -1.37118 0
M  V30 905 C 85.8527 1.92368 0.0350439 0
M  V30 906 O 85.1457 1.63422 1.00019 0
M  V30 907 C 85.3397 2.7592 -2.27163 0
M  V30 908 C 85.1687 2.46074 -3.76401 0
M  V30 909 C 83.9387 2.38704 -4.45364 0
M  V30 910 C 86.1367 2.12062 -4.68545 0
M  V30 911 N 84.1187 2.01258 -5.79973 0
M  V30 912 C 85.4897 1.85005 -5.91754 0
M  V30 913 C 87.5447 1.98473 -4.56632 0
M  V30 914 C 86.2477 1.4573 -7.04383 0
M  V30 915 C 88.2737 1.60599 -5.69176 0
M  V30 916 C 87.6357 1.34423 -6.91455 0
M  V30 917 H 83.7347 0.548858 -0.557027 0
M  V30 918 H 86.3187 0.862642 -1.74547 0
M  V30 919 H 84.4897 3.3768 -1.91904 0
M  V30 920 H 86.2217 3.42068 -2.16267 0
M  V30 921 H 82.9767 2.55574 -3.98721 0
M  V30 922 H 83.4007 1.85147 -6.51191 0
M  V30 923 H 88.0427 2.17381 -3.62637 0
M  V30 924 H 85.7607 1.25562 -7.98286 0
M  V30 925 H 89.3467 1.507 -5.61944 0
M  V30 926 H 88.2267 1.05555 -7.77064 0
M  V30 927 N 85.7298 1.2412 0.971189 0
M  V30 928 C 86.6398 1.04747 2.09917 0
M  V30 929 C 87.6558 -0.0107162 1.73997 0
M  V30 930 O 88.8318 0.186714 2.00533 0
M  V30 931 C 85.8968 0.650828 3.40537 0
M  V30 932 C 84.9578 1.7851 3.90426 0
M  V30 933 C 84.1908 1.40729 5.14812 0
M  V30 934 O 84.4138 0.29557 5.69634 0
M  V30 935 O 83.3478 2.23168 5.58999 0
M  V30 936 H 87.1738 1.99304 2.29154 0
M  V30 937 H 84.7588 1.02908 1.08307 0
M  V30 938 H 86.6408 0.440992 4.19086 0
M  V30 939 H 85.3158 -0.265649 3.22608 0
M  V30 940 H 84.2228 2.04966 3.12953 0
M  V30 941 H 85.5558 2.68023 4.12825 0
M  V30 942 N 87.2079 -1.17134 1.05439 0
M  V30 943 C 88.4359 -1.91372 0.786414 0
M  V30 944 C 88.8509 -1.76955 -0.658202 0
M  V30 945 O 88.2079 -1.10838 -1.44987 0
M  V30 946 C 88.2589 -3.42356 1.1608 0
M  V30 947 O 87.9799 -3.56332 2.54871 0
M  V30 948 C 89.4809 -4.33663 0.919322 0
M  V30 949 H 86.7009 -0.607118 0.285743 0
M  V30 950 H 89.2449 -1.48525 1.40572 0
M  V30 951 H 87.3999 -3.82939 0.586191 0
M  V30 952 H 87.8139 -4.49896 2.69618 0
M  V30 953 H 89.2879 -5.38099 1.231 0
M  V30 954 H 89.7649 -4.38959 -0.145359 0
M  V30 955 H 90.3709 -3.98796 1.47789 0
M  V30 956 N 88.686 -0.835752 -1.33615 0
M  V30 957 C 89.933 -0.429959 -1.97883 0
M  V30 958 C 90.261 1.01006 -1.66217 0
M  V30 959 O 89.516 1.72047 -0.93265 0
M  V30 960 C 89.815 -0.593925 -3.52431 0
M  V30 961 C 89.481 -2.00158 -4.04039 0
M  V30 962 C 88.143 -2.38662 -4.17844 0
M  V30 963 C 90.495 -2.92117 -4.31644 0
M  V30 964 C 87.823 -3.68435 -4.56588 0
M  V30 965 C 90.175 -4.21368 -4.71838 0
M  V30 966 C 88.839 -4.59833 -4.83849 0
M  V30 967 H 88.109 -0.157333 -0.724104 0
M  V30 968 H 90.756 -1.06217 -1.59343 0
M  V30 969 H 89.061 0.121619 -3.91611 0
M  V30 970 H 90.758 -0.260282 -4.00154 0
M  V30 971 H 87.348 -1.69252 -3.93766 0
M  V30 972 H 91.532 -2.63608 -4.20505 0
M  V30 973 H 86.788 -3.98046 -4.64079 0
M  V30 974 H 90.962 -4.92703 -4.92155 0
M  V30 975 H 88.589 -5.60438 -5.13627 0
M  V30 976 N 90.1641 1.46063 -0.591896 0
M  V30 977 C 91.0741 2.34192 0.13831 0
M  V30 978 C 92.0901 1.50305 0.876608 0
M  V30 979 O 93.2661 1.8315 0.837728 0
M  V30 980 C 90.3311 3.27656 1.13326 0
M  V30 981 C 89.3921 4.27445 0.39863 0
M  V30 982 C 88.6251 5.16443 1.34618 0
M  V30 983 O 88.8481 5.08553 2.58321 0
M  V30 984 O 87.7821 5.95843 0.851768 0
M  V30 985 H 91.6081 2.98002 -0.58552 0
M  V30 986 H 89.1931 1.45188 -0.352239 0
M  V30 987 H 91.0751 3.85291 1.70671 0
M  V30 988 H 89.7501 2.6643 1.83839 0
M  V30 989 H 88.6571 3.73471 -0.216895 0
M  V30 990 H 89.9901 4.91482 -0.265709 0
M  V30 991 N 91.6422 0.330177 1.54103 0
M  V30 992 C 92.5902 -0.548226 2.26047 0
M  V30 993 C 93.5842 -1.11309 1.27698 0
M  V30 994 O 94.7902 -1.06036 1.45452 0
M  V30 995 H 91.1652 -0.195456 0.726155 0
M  V30 996 H 93.1362 0.0807567 2.98291 0
M  V30 997 C 91.8852 -1.69415 3.03634 0
M  V30 998 H 91.2082 -1.26876 3.79134 0
M  V30 999 H 92.6482 -2.28423 3.5721 0
M  V30 1000 C 91.1072 -2.61569 2.12328 0
M  V30 1001 O 91.6372 -3.63462 1.7105 0
M  V30 1002 N 89.8432 -2.29952 1.77681 0
M  V30 1003 H 89.3902 -1.47134 2.11446 0
M  V30 1004 H 89.3482 -2.91871 1.16869 0
M  V30 1005 N 93.1203 -1.57491 0.0584922 0
M  V30 1006 C 94.3973 -1.84346 -0.653918 0
M  V30 1007 C 94.7773 -0.948355 -1.88599 0
M  V30 1008 O 94.1253 -0.0112403 -2.28497 0
M  V30 1009 C 94.3353 -3.34239 -1.00425 0
M  V30 1010 C 95.6833 -4.01431 -1.38342 0
M  V30 1011 O 96.7073 -3.38907 -1.09637 0
M  V30 1012 O 95.5663 -5.11683 -1.91943 0
M  V30 1013 H 92.6603 -0.761112 -0.323478 0
M  V30 1014 H 95.2063 -1.6947 0.0884125 0
M  V30 1015 H 93.9783 -3.91089 -0.128625 0
M  V30 1016 H 93.6013 -3.54329 -1.80378 0
M  V30 1017 N 94.5984 0.214957 -1.56127 0
M  V30 1018 C 95.5284 1.2695 -1.95974 0
M  V30 1019 C 96.5094 1.48539 -0.828868 0
M  V30 1020 O 97.6944 1.60611 -1.09168 0
M  V30 1021 C 94.8244 2.61794 -2.28214 0
M  V30 1022 C 93.7784 2.54851 -3.43853 0
M  V30 1023 C 93.1044 3.93785 -3.61715 0
M  V30 1024 C 94.4044 2.09065 -4.78632 0
M  V30 1025 H 96.0984 0.93846 -2.84312 0
M  V30 1026 H 93.6444 0.449996 -1.36788 0
M  V30 1027 H 95.5974 3.35731 -2.54682 0
M  V30 1028 H 94.3214 2.96599 -1.36736 0
M  V30 1029 H 92.9804 1.8337 -3.17444 0
M  V30 1030 H 92.6284 4.25908 -2.67602 0
M  V30 1031 H 92.3284 3.90019 -4.39498 0
M  V30 1032 H 93.8524 4.69374 -3.90539 0
M  V30 1033 H 95.2664 2.7275 -5.04262 0
M  V30 1034 H 93.6634 2.16346 -5.59745 0
M  V30 1035 H 94.7334 1.04315 -4.73547 0
M  V30 1036 N 96.0765 1.50051 0.48192 0
M  V30 1037 C 97.4925 1.37237 0.814756 0
M  V30 1038 C 97.6925 0.420109 1.97072 0
M  V30 1039 O 96.7485 -0.141246 2.52105 0
M  V30 1040 C 98.0615 2.78375 1.13701 0
M  V30 1041 C 99.6095 2.87213 1.2441 0
M  V30 1042 C 100.084 4.29161 1.59954 0
M  V30 1043 N 101.575 4.32061 1.66967 0
M  V30 1044 C 102.31 5.38879 1.95952 0
M  V30 1045 N 101.806 6.55918 2.23031 0
M  V30 1046 N 103.599 5.26312 1.97363 0
M  V30 1047 H 95.7505 2.10546 -0.28005 0
M  V30 1048 H 98.0135 0.945921 -0.0627454 0
M  V30 1049 H 97.7195 3.49845 0.360787 0
M  V30 1050 H 97.5935 3.14941 2.07586 0
M  V30 1051 H 99.9805 2.15969 2.01101 0
M  V30 1052 H 100.061 2.54204 0.285299 0
M  V30 1053 H 99.7055 5.00938 0.838067 0
M  V30 1054 H 99.6355 4.59648 2.56966 0
M  V30 1055 H 102.126 3.47661 1.48123 0
M  V30 1056 H 102.439 7.33139 2.44391 0
M  V30 1057 H 100.784 6.59112 2.20447 0
M  V30 1058 H 103.975 4.33876 1.75697 0
M  V30 1059 H 104.148 6.09649 2.19618 0
M  V30 1060 N 97.5546 -0.734337 1.39446 0
M  V30 1061 C 98.8006 -1.49505 1.37913 0
M  V30 1062 C 99.1556 -1.92384 -0.0248416 0
M  V30 1063 O 98.4486 -1.6395 -0.991506 0
M  V30 1064 C 98.6426 -2.74711 2.28623 0
M  V30 1065 C 98.4716 -2.44075 3.777 0
M  V30 1066 C 97.2416 -2.36338 4.46623 0
M  V30 1067 C 99.4396 -2.09574 4.69663 0
M  V30 1068 N 97.4216 -1.9818 5.81032 0
M  V30 1069 C 98.7926 -1.81865 5.92727 0
M  V30 1070 C 100.848 -1.96048 4.57678 0
M  V30 1071 C 99.5506 -1.41992 7.05146 0
M  V30 1072 C 101.577 -1.57579 5.7002 0
M  V30 1073 C 100.939 -1.30754 6.92158 0
M  V30 1074 H 97.0376 -0.545896 0.55993 0
M  V30 1075 H 99.6216 -0.853373 1.75002 0
M  V30 1076 H 97.7926 -3.36657 1.93692 0
M  V30 1077 H 99.5246 -3.40916 2.18078 0
M  V30 1078 H 96.2796 -2.53456 4.00071 0
M  V30 1079 H 96.7036 -1.81691 6.52163 0
M  V30 1080 H 101.346 -2.15455 3.63784 0
M  V30 1081 H 99.0636 -1.21327 7.9894 0
M  V30 1082 H 102.65 -1.47718 5.62735 0
M  V30 1083 H 101.53 -1.01432 7.77612 0
M  V30 1084 N 99.0327 -1.24633 -0.964593 0
M  V30 1085 C 99.9957 -1.0424 -2.04124 0
M  V30 1086 C 100.996 0.00137563 -1.608 0
M  V30 1087 O 102.186 -0.239883 -1.7254 0
M  V30 1088 C 99.3177 -0.580588 -3.3592 0
M  V30 1089 H 100.511 -1.99803 -2.23649 0
M  V30 1090 H 98.0637 -1.06899 -1.14027 0
M  V30 1091 H 98.7987 0.3781 -3.22088 0
M  V30 1092 H 98.5837 -1.33398 -3.6871 0
M  V30 1093 H 100.074 -0.459034 -4.15069 0
M  V30 1094 N 100.511 1.16574 -1.06058 0
M  V30 1095 C 101.458 2.20883 -0.669263 0
M  V30 1096 C 102.428 1.62729 0.332918 0
M  V30 1097 O 103.613 1.895 0.222346 0
M  V30 1098 C 100.753 3.45049 -0.0593572 0
M  V30 1099 C 99.8658 4.17458 -1.11143 0
M  V30 1100 C 99.0008 5.29135 -0.467916 0
M  V30 1101 C 98.0398 5.93343 -1.50369 0
M  V30 1102 N 97.1768 6.96516 -0.883706 0
M  V30 1103 H 102.017 2.53709 -1.5632 0
M  V30 1104 H 99.5538 1.24616 -0.781625 0
M  V30 1105 H 101.512 4.16033 0.311771 0
M  V30 1106 H 100.142 3.12781 0.797992 0
M  V30 1107 H 99.1938 3.45101 -1.60029 0
M  V30 1108 H 100.506 4.61307 -1.89731 0
M  V30 1109 H 99.6598 6.06684 -0.0436871 0
M  V30 1110 H 98.3988 4.86443 0.349864 0
M  V30 1111 H 97.4038 5.14517 -1.93784 0
M  V30 1112 H 98.6288 6.38114 -2.32352 0
M  V30 1113 H 96.5748 6.55943 -0.086595 0
M  V30 1114 H 96.4918 7.38723 -1.607 0
M  V30 1115 H 97.7598 7.77993 -0.484543 0
M  V30 1116 N 101.989 0.842826 1.3317 0
M  V30 1117 C 102.921 0.236245 2.27979 0
M  V30 1118 C 103.934 -0.585282 1.51915 0
M  V30 1119 O 105.123 -0.411705 1.73687 0
M  V30 1120 C 102.223 -0.685717 3.3189 0
M  V30 1121 C 101.396 0.0973448 4.37292 0
M  V30 1122 C 100.455 -0.748565 5.20848 0
M  V30 1123 O 99.4809 -0.186339 5.68895 0
M  V30 1124 N 100.683 -2.06527 5.42519 0
M  V30 1125 H 103.448 1.05088 2.80672 0
M  V30 1126 H 101.009 0.701667 1.45905 0
M  V30 1127 H 103.001 -1.25669 3.84694 0
M  V30 1128 H 101.571 -1.40105 2.79445 0
M  V30 1129 H 100.791 0.849706 3.84933 0
M  V30 1130 H 102.079 0.635643 5.04814 0
M  V30 1131 H 101.477 -2.54554 5.05192 0
M  V30 1132 H 100.034 -2.58464 5.98364 0
M  V30 1133 N 103.467 -1.45747 0.599634 0
M  V30 1134 C 104.415 -2.322 -0.136426 0
M  V30 1135 C 105.409 -1.45497 -0.867583 0
M  V30 1136 O 106.615 -1.62027 -0.78405 0
M  V30 1137 H 102.99 -0.749368 -0.0628588 0
M  V30 1138 H 104.961 -2.92072 0.611281 0
M  V30 1139 C 103.71 -3.28974 -1.12567 0
M  V30 1140 H 103.033 -3.9568 -0.572484 0
M  V30 1141 H 104.473 -3.92212 -1.61077 0
M  V30 1142 C 102.932 -2.55561 -2.19523 0
M  V30 1143 O 103.462 -2.33111 -3.27143 0
M  V30 1144 N 101.668 -2.15832 -1.94589 0
M  V30 1145 H 101.215 -2.3429 -1.07078 0
M  V30 1146 H 101.173 -1.67034 -2.66359 0
M  V30 1147 N 104.945 -0.338344 -1.53925 0
M  V30 1148 C 106.193 0.259245 -2.0043 0
M  V30 1149 C 106.514 1.51484 -1.22791 0
M  V30 1150 O 105.784 1.93037 -0.33368 0
M  V30 1151 H 104.364 0.0987845 -0.740439 0
M  V30 1152 H 107.026 -0.458302 -1.89435 0
M  V30 1153 H 106.122 0.505334 -3.07982 0
M  V30 1154 N 106.423 1.57458 -0.0668435 0
M  V30 1155 C 107.67 1.93301 0.603406 0
M  V30 1156 C 107.998 0.946486 1.69917 0
M  V30 1157 O 107.253 -0.0387021 1.95662 0
M  V30 1158 C 107.552 3.35784 1.22409 0
M  V30 1159 C 107.218 4.50179 0.254955 0
M  V30 1160 C 105.88 4.81199 -0.0116746 0
M  V30 1161 C 108.232 5.19598 -0.408338 0
M  V30 1162 C 105.56 5.78978 -0.94877 0
M  V30 1163 C 107.912 6.18381 -1.33372 0
M  V30 1164 C 106.576 6.47821 -1.60887 0
M  V30 1165 H 105.846 0.707338 0.220802 0
M  V30 1166 H 108.493 1.91012 -0.136665 0
M  V30 1167 H 106.798 3.34515 2.03978 0
M  V30 1168 H 108.495 3.60804 1.74989 0
M  V30 1169 H 105.085 4.25983 0.472954 0
M  V30 1170 H 109.269 4.95832 -0.215456 0
M  V30 1171 H 104.525 6.00115 -1.16925 0
M  V30 1172 H 108.699 6.71277 -1.85367 0
M  V30 1173 H 106.326 7.23399 -2.33661 0
M  V30 1174 N 107.901 -0.206675 1.56239 0
M  V30 1175 C 109.131 -0.943975 1.83773 0
M  V30 1176 C 109.539 -1.77841 0.645703 0
M  V30 1177 O 108.882 -1.79403 -0.395008 0
M  V30 1178 C 108.944 -1.899 3.05251 0
M  V30 1179 C 108.608 -1.24764 4.39639 0
M  V30 1180 C 109.605 -0.630216 5.16066 0
M  V30 1181 C 107.29 -1.25496 4.8637 0
M  V30 1182 C 109.284 -0.0287946 6.37393 0
M  V30 1183 C 106.971 -0.649698 6.07637 0
M  V30 1184 C 107.969 -0.0376845 6.8299 0
M  V30 1185 O 107.657 0.55812 8.0196 0
M  V30 1186 H 107.389 -0.281508 0.614597 0
M  V30 1187 H 109.943 -0.222458 2.04192 0
M  V30 1188 H 108.173 -2.6599 2.80689 0
M  V30 1189 H 109.862 -2.5031 3.1953 0
M  V30 1190 H 110.628 -0.616785 4.81062 0
M  V30 1191 H 106.507 -1.72072 4.27683 0
M  V30 1192 H 110.051 0.449518 6.9615 0
M  V30 1193 H 105.948 -0.660592 6.42111 0
M  V30 1194 H 106.716 0.453891 8.17241 0
M  V30 1195 N 109.379 -1.50304 -0.473955 0
M  V30 1196 C 110.342 -1.6841 -1.55469 0
M  V30 1197 C 111.342 -0.554905 -1.50922 0
M  V30 1198 O 112.532 -0.821882 -1.53593 0
M  V30 1199 C 109.664 -1.70667 -2.95102 0
M  V30 1200 H 110.857 -2.64828 -1.40733 0
M  V30 1201 H 108.41 -1.39742 -0.700132 0
M  V30 1202 H 109.145 -0.75932 -3.15285 0
M  V30 1203 H 108.93 -2.52698 -2.9981 0
M  V30 1204 H 110.42 -1.8664 -3.73571 0
M  V30 1205 N 110.857 0.726932 -1.39834 0
M  V30 1206 C 112.106 1.48214 -1.36805 0
M  V30 1207 C 112.419 1.95576 0.0305291 0
M  V30 1208 O 113.625 2.7088 0.183417 0
M  V30 1209 C 112.081 2.67854 -2.40379 0
M  V30 1210 C 111.689 2.27408 -3.85992 0
M  V30 1211 C 113.433 3.45641 -2.46439 0
M  V30 1212 C 111.34 3.43819 -4.81189 0
M  V30 1213 H 110.27 0.556606 -0.508631 0
M  V30 1214 H 112.921 0.792216 -1.65518 0
M  V30 1215 H 111.303 3.3896 -2.04749 0
M  V30 1216 H 112.477 1.63795 -4.30706 0
M  V30 1217 H 110.792 1.62692 -3.83302 0
M  V30 1218 H 113.389 4.32244 -3.14753 0
M  V30 1219 H 113.732 3.88669 -1.49139 0
M  V30 1220 H 114.265 2.8157 -2.81004 0
M  V30 1221 H 111.004 3.05834 -5.79781 0
M  V30 1222 H 110.524 4.06385 -4.41148 0
M  V30 1223 H 112.203 4.10043 -5.00474 0
M  V30 1224 N 112.336 1.25143 0.95797 0
M  V30 1225 C 113.564 1.12424 1.73691 0
M  V30 1226 C 113.979 -0.322304 1.86029 0
M  V30 1227 O 113.336 -1.22186 1.35561 0
M  V30 1228 C 113.387 1.76933 3.15241 0
M  V30 1229 O 113.108 3.15932 3.03511 0
M  V30 1230 C 114.609 1.6995 4.09429 0
M  V30 1231 H 111.829 0.3923 0.544373 0
M  V30 1232 H 114.373 1.6544 1.20207 0
M  V30 1233 H 112.528 1.27895 3.6568 0
M  V30 1234 H 112.942 3.47598 3.9278 0
M  V30 1235 H 114.416 2.19753 5.06372 0
M  V30 1236 H 114.893 0.662619 4.34173 0
M  V30 1237 H 115.499 2.18461 3.64904 0
M  V30 1238 N 113.814 -1.1601 1.06675 0
M  V30 1239 C 115.06 -1.86909 0.786945 0
M  V30 1240 C 115.393 -1.81717 -0.685018 0
M  V30 1241 O 114.668 -1.23551 -1.50218 0
M  V30 1242 C 114.951 -3.36313 1.28707 0
M  V30 1243 C 114.804 -3.50175 2.82308 0
M  V30 1244 C 116.123 -4.3084 0.898071 0
M  V30 1245 H 113.242 -0.678677 0.287343 0
M  V30 1246 H 115.884 -1.36336 1.32334 0
M  V30 1247 H 114.034 -3.79513 0.830768 0
M  V30 1248 H 115.706 -3.15886 3.36175 0
M  V30 1249 H 113.949 -2.91959 3.20847 0
M  V30 1250 H 114.62 -4.55116 3.12368 0
M  V30 1251 H 117.096 -3.95561 1.29114 0
M  V30 1252 H 115.972 -5.33876 1.27543 0
M  V30 1253 H 116.233 -4.41662 -0.196651 0
M  V30 1254 N 115.292 -0.849877 -1.32721 0
M  V30 1255 C 116.569 -0.372405 -1.92022 0
M  V30 1256 C 116.949 1.1435 -1.77447 0
M  V30 1257 O 116.297 1.96296 -1.16962 0
M  V30 1258 C 116.507 -0.831482 -3.3895 0
M  V30 1259 C 117.855 -0.845882 -4.16089 0
M  V30 1260 O 118.879 -0.775806 -3.47649 0
M  V30 1261 O 117.738 -0.943753 -5.38289 0
M  V30 1262 H 114.832 -0.107667 -0.819961 0
M  V30 1263 H 117.378 -0.93646 -1.41522 0
M  V30 1264 H 116.15 -1.87448 -3.4348 0
M  V30 1265 H 115.773 -0.24461 -3.96847 0
M  V30 1266 N 116.77 1.45427 -0.607355 0
M  V30 1267 C 118.017 2.02241 -0.102455 0
M  V30 1268 C 118.345 1.4758 1.26691 0
M  V30 1269 O 117.6 0.640468 1.84923 0
M  V30 1270 C 117.899 3.57398 -0.0129263 0
M  V30 1271 C 117.565 4.3121 -1.31792 0
M  V30 1272 C 116.227 4.51092 -1.67539 0
M  V30 1273 C 118.579 4.73401 -2.18039 0
M  V30 1274 C 115.907 5.10422 -2.89285 0
M  V30 1275 C 118.259 5.34078 -3.39034 0
M  V30 1276 C 116.923 5.52184 -3.75033 0
M  V30 1277 H 116.193 0.740051 -0.037491 0
M  V30 1278 H 118.84 1.74494 -0.788926 0
M  V30 1279 H 117.145 3.84421 0.756806 0
M  V30 1280 H 118.842 3.99061 0.393881 0
M  V30 1281 H 115.432 4.16047 -1.02968 0
M  V30 1282 H 119.616 4.57774 -1.91721 0
M  V30 1283 H 114.872 5.22629 -3.17283 0
M  V30 1284 H 119.046 5.65724 -4.06115 0
M  V30 1285 H 116.673 5.97925 -4.69457 0
M  V30 1286 N 118.248 0.346503 1.53744 0
M  V30 1287 C 119.494 -0.242135 2.01954 0
M  V30 1288 C 119.849 -1.47962 1.22984 0
M  V30 1289 O 119.142 -1.89077 0.309924 0
M  V30 1290 C 119.336 -0.605809 3.52228 0
M  V30 1291 C 119.165 0.594882 4.45748 0
M  V30 1292 C 117.935 1.1011 4.93157 0
M  V30 1293 C 120.133 1.45425 4.93311 0
M  V30 1294 N 118.115 2.26381 5.70636 0
M  V30 1295 C 119.486 2.46383 5.68942 0
M  V30 1296 C 121.541 1.47935 4.75415 0
M  V30 1297 C 120.244 3.49684 6.28581 0
M  V30 1298 C 122.27 2.50119 5.35905 0
M  V30 1299 C 121.632 3.49803 6.11406 0
M  V30 1300 H 117.731 -0.0518296 0.780281 0
M  V30 1301 H 120.315 0.486736 1.88518 0
M  V30 1302 H 118.486 -1.30378 3.65864 0
M  V30 1303 H 120.218 -1.17789 3.87179 0
M  V30 1304 H 116.973 0.668721 4.68855 0
M  V30 1305 H 117.397 2.85094 6.14044 0
M  V30 1306 H 122.039 0.722274 4.16585 0
M  V30 1307 H 119.757 4.26285 6.86518 0
M  V30 1308 H 123.343 2.52892 5.23963 0
M  V30 1309 H 122.223 4.27576 6.5738 0
M  V30 1310 N 119.726 -1.57421 0.075193 0
M  V30 1311 C 120.972 -1.94716 -0.587998 0
M  V30 1312 C 121.327 -0.955205 -1.67014 0
M  V30 1313 O 120.62 0.0219842 -1.91587 0
M  V30 1314 C 120.814 -3.36428 -1.20626 0
M  V30 1315 C 120.643 -4.49317 -0.185541 0
M  V30 1316 C 119.413 -5.04772 0.23099 0
M  V30 1317 C 121.611 -5.11036 0.57854 0
M  V30 1318 N 119.593 -6.01204 1.24206 0
M  V30 1319 C 120.964 -6.02998 1.44199 0
M  V30 1320 C 123.019 -4.93844 0.634237 0
M  V30 1321 C 121.722 -6.79614 2.3562 0
M  V30 1322 C 123.748 -5.71106 1.53597 0
M  V30 1323 C 123.11 -6.6272 2.38709 0
M  V30 1324 H 119.209 -0.759536 -0.186089 0
M  V30 1325 H 121.793 -1.94097 0.153128 0
M  V30 1326 H 119.964 -3.37778 -1.9173 0
M  V30 1327 H 121.696 -3.60951 -1.8302 0
M  V30 1328 H 118.451 -4.73353 -0.152807 0
M  V30 1329 H 118.875 -6.54119 1.74521 0
M  V30 1330 H 123.517 -4.22799 -0.00960004 0
M  V30 1331 H 121.235 -7.49934 3.01038 0
M  V30 1332 H 124.821 -5.59824 1.58394 0
M  V30 1333 H 123.701 -7.2146 3.07352 0
M  V30 1334 N 121.204 0.198386 -1.56346 0
M  V30 1335 C 122.452 0.91747 -1.80075 0
M  V30 1336 C 122.773 1.83929 -0.647692 0
M  V30 1337 O 122.043 1.93029 0.334166 0
M  V30 1338 H 120.623 0.341774 -0.664228 0
M  V30 1339 H 123.285 0.204684 -1.93822 0
M  V30 1340 H 122.381 1.51055 -2.7311 0
M  V30 1341 N 122.682 1.50554 0.465978 0
M  V30 1342 C 123.959 1.5232 1.22712 0
M  V30 1343 C 124.339 0.270807 2.09356 0
M  V30 1344 O 123.687 -0.745541 2.15995 0
M  V30 1345 C 123.897 2.82175 2.05374 0
M  V30 1346 C 125.245 3.33033 2.6339 0
M  V30 1347 O 126.269 2.83531 2.15612 0
M  V30 1348 O 125.128 4.19336 3.50456 0
M  V30 1349 H 122.222 0.611183 0.557122 0
M  V30 1350 H 124.768 1.62847 0.477381 0
M  V30 1351 H 123.54 3.64797 1.41558 0
M  V30 1352 H 123.163 2.74675 2.87471 0
M  V30 1353 N 124.16 -0.719506 1.40217 0
M  V30 1354 C 125.093 -1.84298 1.34571 0
M  V30 1355 C 126.071 -1.61149 0.216741 0
M  V30 1356 O 127.255 -1.84212 0.399756 0
M  V30 1357 C 124.382 -3.20568 1.09335 0
M  V30 1358 C 123.428 -3.62551 2.24631 0
M  V30 1359 S 124.261 -3.7012 3.87004 0
M  V30 1360 C 125.417 -5.09154 3.64024 0
M  V30 1361 H 125.65 -1.88807 2.2965 0
M  V30 1362 H 123.183 -0.885901 1.26456 0
M  V30 1363 H 125.141 -3.99246 0.954602 0
M  V30 1364 H 123.802 -3.13696 0.159164 0
M  V30 1365 H 122.995 -4.61483 2.02606 0
M  V30 1366 H 122.597 -2.91119 2.34789 0
M  V30 1367 H 124.889 -5.95955 3.22248 0
M  V30 1368 H 125.832 -5.36213 4.62473 0
M  V30 1369 H 126.24 -4.79562 2.97793 0
M  V30 1370 N 125.638 -1.25649 -0.95132 0
M  V30 1371 C 126.548 -1.08073 -2.08224 0
M  V30 1372 C 127.564 -0.0169666 -1.73992 0
M  V30 1373 O 128.74 -0.218593 -2.0021 0
M  V30 1374 C 125.805 -0.704922 -3.39458 0
M  V30 1375 C 124.866 -1.84699 -3.87537 0
M  V30 1376 C 124.099 -1.48902 -5.12508 0
M  V30 1377 O 124.322 -0.386156 -5.69091 0
M  V30 1378 O 123.256 -2.32033 -5.55378 0
M  V30 1379 H 127.082 -2.02924 -2.25954 0
M  V30 1380 H 124.667 -1.04618 -1.06656 0
M  V30 1381 H 126.549 -0.507609 -4.18332 0
M  V30 1382 H 125.224 0.214291 -3.2299 0
M  V30 1383 H 124.131 -2.09919 -3.09653 0
M  V30 1384 H 125.464 -2.74557 -4.08509 0
M  V30 1385 N 127.117 1.15442 -1.07289 0
M  V30 1386 C 128.064 2.20161 -0.692653 0
M  V30 1387 C 129.034 1.63073 0.31564 0
M  V30 1388 O 130.219 1.89725 0.202235 0
M  V30 1389 C 127.359 3.44967 -0.0959509 0
M  V30 1390 C 126.472 4.16256 -1.15564 0
M  V30 1391 C 125.607 5.28609 -0.524011 0
M  V30 1392 C 124.646 5.91715 -1.56653 0
M  V30 1393 N 123.783 6.9554 -0.957531 0
M  V30 1394 H 128.623 2.52037 -1.59002 0
M  V30 1395 H 126.16 1.2378 -0.794798 0
M  V30 1396 H 128.118 4.16341 0.267628 0
M  V30 1397 H 126.748 3.1361 0.764772 0
M  V30 1398 H 125.8 3.43385 -1.6368 0
M  V30 1399 H 127.112 4.59268 -1.94613 0
M  V30 1400 H 126.266 6.06604 -0.108032 0
M  V30 1401 H 125.005 4.86787 0.29825 0
M  V30 1402 H 124.01 5.12433 -1.9923 0
M  V30 1403 H 125.235 6.35614 -2.39107 0
M  V30 1404 H 123.181 6.55814 -0.156162 0
M  V30 1405 H 123.098 7.36977 -1.68526 0
M  V30 1406 H 124.366 7.77435 -0.567032 0
M  V30 1407 N 128.595 0.856903 1.32268 0
M  V30 1408 C 129.543 0.291987 2.3076 0
M  V30 1409 C 130.537 -0.585857 1.58947 0
M  V30 1410 O 131.743 -0.47341 1.73663 0
M  V30 1411 H 128.118 0.075721 0.748178 0
M  V30 1412 H 130.089 1.13687 2.75895 0
M  V30 1413 C 128.838 -0.502869 3.44044 0
M  V30 1414 H 128.161 0.163328 3.99466 0
M  V30 1415 H 129.601 -0.863691 4.1511 0
M  V30 1416 C 128.06 -1.68898 2.91505 0
M  V30 1417 O 128.59 -2.78811 2.89184 0
M  V30 1418 N 126.796 -1.51679 2.47875 0
M  V30 1419 H 126.343 -0.622666 2.49961 0
M  V30 1420 H 126.301 -2.31184 2.13076 0
M  V30 1421 N 130.073 -1.45103 0.615059 0
M  V30 1422 C 131.321 -2.01784 0.112955 0
M  V30 1423 C 131.642 -1.48504 -1.26378 0
M  V30 1424 O 130.912 -0.682245 -1.83636 0
M  V30 1425 H 129.492 -0.745993 0.0387668 0
M  V30 1426 H 132.154 -1.77808 0.798141 0
M  V30 1427 H 131.25 -3.12025 0.0684069 0
M  V30 1428 N 131.551 -0.354651 -1.53558 0
M  V30 1429 C 132.828 0.294281 -1.93374 0
M  V30 1430 C 133.208 1.67313 -1.28723 0
M  V30 1431 O 132.556 2.24179 -0.442247 0
M  V30 1432 C 132.766 0.355445 -3.47185 0
M  V30 1433 C 134.114 0.601007 -4.20325 0
M  V30 1434 O 135.138 0.437106 -3.53508 0
M  V30 1435 O 133.997 0.919322 -5.38712 0
M  V30 1436 H 131.091 0.174033 -0.808481 0
M  V30 1437 H 133.637 -0.406638 -1.64756 0
M  V30 1438 H 132.409 -0.611729 -3.86489 0
M  V30 1439 H 132.032 1.1027 -3.82003 0
M  V30 1440 N 133.029 1.57378 -0.0835403 0
M  V30 1441 C 133.961 2.10389 0.909338 0
M  V30 1442 C 134.974 1.03858 1.25369 0
M  V30 1443 O 136.163 1.31338 1.20882 0
M  V30 1444 C 133.263 2.55908 2.2218 0
M  V30 1445 C 132.436 3.86145 2.05453 0
M  V30 1446 C 131.495 4.17633 3.20108 0
M  V30 1447 O 130.521 4.87043 2.94581 0
M  V30 1448 N 131.723 3.72113 4.45547 0
M  V30 1449 H 134.488 2.962 0.456657 0
M  V30 1450 H 132.049 1.61579 0.101877 0
M  V30 1451 H 134.041 2.74027 2.97811 0
M  V30 1452 H 132.611 1.75171 2.58909 0
M  V30 1453 H 131.831 3.7729 1.1422 0
M  V30 1454 H 133.119 4.7137 1.91541 0
M  V30 1455 H 132.517 3.16062 4.69171 0
M  V30 1456 H 131.074 3.95409 5.18165 0
M  V30 1457 N 134.507 -0.190092 1.56449 0
M  V30 1458 C 135.439 -1.25973 1.91477 0
M  V30 1459 C 136.452 -1.41452 0.805931 0
M  V30 1460 O 137.641 -1.41789 1.08435 0
M  V30 1461 C 134.741 -2.63117 2.13594 0
M  V30 1462 C 133.914 -2.69182 3.4476 0
M  V30 1463 C 132.973 -3.87557 3.5593 0
M  V30 1464 O 131.999 -3.74427 4.28711 0
M  V30 1465 N 133.201 -5.03224 2.89388 0
M  V30 1466 H 135.966 -0.962394 2.83828 0
M  V30 1467 H 133.527 -0.379981 1.57378 0
M  V30 1468 H 135.519 -3.40742 2.1835 0
M  V30 1469 H 134.089 -2.85319 1.27719 0
M  V30 1470 H 133.309 -1.77793 3.51828 0
M  V30 1471 H 134.597 -2.70229 4.31107 0
M  V30 1472 H 133.995 -5.16791 2.30094 0
M  V30 1473 H 132.552 -5.78778 2.99764 0
M  V30 1474 N 135.985 -1.50799 -0.457987 0
M  V30 1475 C 137.232 -1.62442 -1.20908 0
M  V30 1476 C 137.56 -0.330865 -1.91665 0
M  V30 1477 O 136.815 0.68401 -1.83357 0
M  V30 1478 C 137.114 -2.76358 -2.2663 0
M  V30 1479 C 136.78 -4.16378 -1.73033 0
M  V30 1480 C 135.442 -4.54473 -1.58138 0
M  V30 1481 C 137.794 -5.03836 -1.33413 0
M  V30 1482 C 135.122 -5.77754 -1.02065 0
M  V30 1483 C 137.474 -6.27676 -0.78778 0
M  V30 1484 C 136.138 -6.64562 -0.625561 0
M  V30 1485 H 135.408 -0.594417 -0.442435 0
M  V30 1486 H 138.055 -1.84772 -0.503136 0
M  V30 1487 H 136.36 -2.48167 -3.03184 0
M  V30 1488 H 138.057 -2.82568 -2.84528 0
M  V30 1489 H 134.647 -3.86331 -1.85598 0
M  V30 1490 H 138.831 -4.75026 -1.4375 0
M  V30 1491 H 134.087 -6.04997 -0.882547 0
M  V30 1492 H 138.261 -6.94797 -0.472177 0
M  V30 1493 H 135.888 -7.59965 -0.188926 0
M  V30 1494 N 137.463 0.71206 -1.40597 0
M  V30 1495 C 138.74 1.46536 -1.29563 0
M  V30 1496 C 139.12 2.10931 0.0844217 0
M  V30 1497 O 138.468 2.00418 1.0975 0
M  V30 1498 C 138.678 2.49821 -2.43701 0
M  V30 1499 C 140.026 3.15551 -2.841 0
M  V30 1500 O 141.05 2.60142 -2.4332 0
M  V30 1501 O 139.909 4.15867 -3.54566 0
M  V30 1502 H 137.003 0.651801 -0.509004 0
M  V30 1503 H 139.549 0.743935 -1.52524 0
M  V30 1504 H 138.321 2.00778 -3.35863 0
M  V30 1505 H 137.944 3.29495 -2.22528 0
M  V30 1506 N 138.941 1.26152 0.944643 0
M  V30 1507 C 140.188 1.11492 1.69044 0
M  V30 1508 C 140.516 -0.342366 1.91463 0
M  V30 1509 O 139.771 -1.26812 1.49054 0
M  V30 1510 C 140.07 1.82541 3.07268 0
M  V30 1511 C 139.736 3.32445 3.04616 0
M  V30 1512 C 138.398 3.73337 3.036 0
M  V30 1513 C 140.75 4.28171 2.97185 0
M  V30 1514 C 138.078 5.08348 2.92915 0
M  V30 1515 C 140.43 5.63218 2.88041 0
M  V30 1516 C 139.094 6.03426 2.85366 0
M  V30 1517 H 138.364 0.407977 0.618576 0
M  V30 1518 H 141.011 1.56551 1.10291 0
M  V30 1519 H 139.316 1.29941 3.69625 0
M  V30 1520 H 141.013 1.68642 3.63815 0
M  V30 1521 H 137.603 2.99915 3.06185 0
M  V30 1522 H 141.787 3.97563 2.97081 0
M  V30 1523 H 137.043 5.38667 2.89219 0
M  V30 1524 H 141.217 6.37078 2.81254 0
M  V30 1525 H 138.844 7.07999 2.76842 0
M  V30 1526 N 140.419 -1.14872 1.07899 0
M  V30 1527 C 141.644 -1.90202 0.826926 0
M  V30 1528 C 142.069 -1.77774 -0.614664 0
M  V30 1529 O 141.427 -1.11431 -1.43013 0
M  V30 1530 C 141.475 -3.38352 1.24702 0
M  V30 1531 O 140.579 -4.10497 0.39575 0
M  V30 1532 H 139.92 -0.591968 0.300782 0
M  V30 1533 H 142.45 -1.45437 1.43907 0
M  V30 1534 H 142.46 -3.89156 1.22563 0
M  V30 1535 H 141.135 -3.46715 2.29698 0
M  V30 1536 H 139.712 -3.69796 0.480117 0
M  V30 1537 N 141.898 -0.863906 -1.31812 0
M  V30 1538 C 143.128 -0.485406 -2.00817 0
M  V30 1539 C 143.536 0.925007 -1.65046 0
M  V30 1540 O 142.879 1.61653 -0.872574 0
M  V30 1541 C 142.941 -0.555589 -3.55181 0
M  V30 1542 C 142.605 -1.92654 -4.14407 0
M  V30 1543 C 143.602 -2.89324 -4.31958 0
M  V30 1544 C 141.287 -2.2262 -4.50273 0
M  V30 1545 C 143.281 -4.14108 -4.84555 0
M  V30 1546 C 140.968 -3.47654 -5.02573 0
M  V30 1547 C 141.966 -4.43214 -5.19664 0
M  V30 1548 O 141.654 -5.66033 -5.70843 0
M  V30 1549 H 141.386 -0.188224 -0.649267 0
M  V30 1550 H 143.94 -1.16514 -1.69156 0
M  V30 1551 H 142.17 0.181037 -3.86276 0
M  V30 1552 H 143.859 -0.19138 -4.05449 0
M  V30 1553 H 144.625 -2.6748 -4.04573 0
M  V30 1554 H 140.504 -1.4902 -4.3625 0
M  V30 1555 H 144.048 -4.88703 -4.9781 0
M  V30 1556 H 139.945 -3.69345 -5.29391 0
M  V30 1557 H 140.713 -5.6812 -5.89222 0
M  V30 1558 N 143.376 1.44774 -0.622745 0
M  V30 1559 C 144.339 2.29069 0.0774015 0
M  V30 1560 C 145.339 1.4059 0.780461 0
M  V30 1561 O 146.529 1.62551 0.626322 0
M  V30 1562 C 143.661 3.21974 1.12006 0
M  V30 1563 H 144.854 2.92459 -0.663901 0
M  V30 1564 H 142.407 1.51548 -0.382486 0
M  V30 1565 H 143.142 2.63417 1.89162 0
M  V30 1566 H 142.927 3.87168 0.619951 0
M  V30 1567 H 144.417 3.85318 1.60995 0
M  V30 1568 N 144.854 0.36279 1.53368 0
M  V30 1569 C 145.786 -0.519668 2.23231 0
M  V30 1570 C 146.799 -1.04844 1.24546 0
M  V30 1571 O 147.988 -0.955296 1.50786 0
M  V30 1572 C 145.088 -1.72995 2.9142 0
M  V30 1573 C 144.261 -1.33316 4.16588 0
M  V30 1574 C 143.32 -2.40521 4.68013 0
M  V30 1575 O 142.346 -2.03027 5.3176 0
M  V30 1576 N 143.548 -3.72065 4.45587 0
M  V30 1577 H 146.313 0.078751 2.99597 0
M  V30 1578 H 143.874 0.187833 1.60807 0
M  V30 1579 H 145.866 -2.44184 3.22733 0
M  V30 1580 H 144.436 -2.2353 2.18525 0
M  V30 1581 H 143.656 -0.451236 3.91609 0
M  V30 1582 H 144.944 -1.04432 4.97967 0
M  V30 1583 H 144.342 -4.05304 3.94646 0
M  V30 1584 H 142.899 -4.39366 4.81457 0
M  V30 1585 N 146.332 -1.57332 0.0918853 0
M  V30 1586 C 147.748 -1.57389 -0.264766 0
M  V30 1587 C 147.948 -1.10281 -1.68643 0
M  V30 1588 O 147.004 -0.777801 -2.40222 0
M  V30 1589 C 148.317 -3.00648 -0.0561195 0
M  V30 1590 C 149.865 -3.12754 -0.124116 0
M  V30 1591 C 150.34 -4.57965 0.0564972 0
M  V30 1592 N 151.831 -4.632 0.00155611 0
M  V30 1593 C 152.566 -5.73281 0.116598 0
M  V30 1594 N 152.062 -6.92208 0.286294 0
M  V30 1595 N 153.855 -5.6207 0.0580973 0
M  V30 1596 H 146.006 -1.86262 1.02079 0
M  V30 1597 H 148.269 -0.859579 0.399786 0
M  V30 1598 H 147.975 -3.393 0.925669 0
M  V30 1599 H 147.849 -3.68623 -0.799823 0
M  V30 1600 H 150.236 -2.73976 -1.09641 0
M  V30 1601 H 150.317 -2.47377 0.651024 0
M  V30 1602 H 149.961 -4.97436 1.02564 0
M  V30 1603 H 149.891 -5.21399 -0.738297 0
M  V30 1604 H 152.382 -3.77686 -0.127192 0
M  V30 1605 H 152.695 -7.71934 0.365676 0
M  V30 1606 H 151.04 -6.94254 0.32192 0
M  V30 1607 H 154.231 -4.68043 -0.0733204 0
M  V30 1608 H 154.404 -6.47824 0.151203 0
M  V30 1609 N 147.81 0.181792 -1.56548 0
M  V30 1610 C 149.057 0.900097 -1.81396 0
M  V30 1611 C 149.385 1.82695 -0.667281 0
M  V30 1612 O 148.64 1.92614 0.346146 0
M  V30 1613 C 148.939 1.73728 -3.12335 0
M  V30 1614 C 148.605 0.960255 -4.40556 0
M  V30 1615 C 147.267 0.745766 -4.75386 0
M  V30 1616 C 149.619 0.414477 -5.19549 0
M  V30 1617 C 146.947 -0.0257694 -5.86694 0
M  V30 1618 C 149.299 -0.343916 -6.31664 0
M  V30 1619 C 147.963 -0.569301 -6.65068 0
M  V30 1620 H 147.233 0.329369 -0.663775 0
M  V30 1621 H 149.88 0.165647 -1.90782 0
M  V30 1622 H 148.185 2.54081 -2.98245 0
M  V30 1623 H 149.882 2.29591 -3.28769 0
M  V30 1624 H 146.472 1.13746 -4.13231 0
M  V30 1625 H 150.656 0.567554 -4.93044 0
M  V30 1626 H 145.912 -0.210233 -6.11038 0
M  V30 1627 H 150.086 -0.774133 -6.92084 0
M  V30 1628 H 147.713 -1.16903 -7.51158 0
M  V30 1629 N 149.288 1.51039 0.449983 0
M  V30 1630 C 150.251 1.70863 1.5277 0
M  V30 1631 C 151.251 0.578846 1.5002 0
M  V30 1632 O 152.441 0.846213 1.52266 0
M  V30 1633 C 149.573 1.75341 2.9235 0
M  V30 1634 H 150.766 2.67034 1.36502 0
M  V30 1635 H 148.319 1.40838 0.677812 0
M  V30 1636 H 149.054 0.809383 3.14037 0
M  V30 1637 H 148.839 2.57436 2.95752 0
M  V30 1638 H 150.329 1.92559 3.70555 0
M  V30 1639 N 150.766 -0.704594 1.40972 0
M  V30 1640 C 151.698 -1.82974 1.38033 0
M  V30 1641 C 152.711 -1.60305 0.283931 0
M  V30 1642 O 153.9 -1.69975 0.545042 0
M  V30 1643 C 151 -3.19578 1.12795 0
M  V30 1644 C 150.173 -3.69352 2.34302 0
M  V30 1645 C 149.232 -4.84601 2.05058 0
M  V30 1646 O 148.258 -4.96682 2.7802 0
M  V30 1647 N 149.46 -5.71194 1.03528 0
M  V30 1648 H 152.225 -1.85991 2.35005 0
M  V30 1649 H 149.786 -0.886567 1.35468 0
M  V30 1650 H 151.778 -3.9429 0.911987 0
M  V30 1651 H 150.348 -3.11642 0.24452 0
M  V30 1652 H 149.568 -2.85649 2.71659 0
M  V30 1653 H 150.856 -3.99345 3.1528 0
M  V30 1654 H 150.254 -5.64054 0.431217 0
M  V30 1655 H 148.811 -6.45843 0.879205 0
M  V30 1656 N 152.244 -1.26651 -0.937939 0
M  V30 1657 C 153.469 -1.15279 -1.72411 0
M  V30 1658 C 153.894 0.287866 -1.85884 0
M  V30 1659 O 153.252 1.20855 -1.35143 0
M  V30 1660 C 153.3 -1.83028 -3.10698 0
M  V30 1661 O 152.404 -1.12128 -3.96864 0
M  V30 1662 H 151.745 -0.401504 -0.528858 0
M  V30 1663 H 154.275 -1.67531 -1.1745 0
M  V30 1664 H 154.285 -1.89981 -3.6107 0
M  V30 1665 H 152.96 -2.87833 -3.00208 0
M  V30 1666 H 151.537 -1.13173 -3.55312 0
M  V30 1667 N 153.722 1.14298 -1.08507 0
M  V30 1668 C 154.968 1.85633 -0.816581 0
M  V30 1669 C 155.301 1.82784 0.656021 0
M  V30 1670 O 154.576 1.25926 1.48233 0
M  V30 1671 C 154.859 3.34223 -1.34041 0
M  V30 1672 C 154.712 3.45639 -2.87843 0
M  V30 1673 C 156.031 4.29356 -0.9665 0
M  V30 1674 H 153.15 0.67402 -0.298104 0
M  V30 1675 H 155.792 1.34214 -1.34487 0
M  V30 1676 H 153.942 3.78144 -0.89104 0
M  V30 1677 H 155.614 3.10498 -3.41158 0
M  V30 1678 H 153.857 2.86817 -3.25451 0
M  V30 1679 H 154.528 4.50089 -3.19569 0
M  V30 1680 H 157.004 3.93457 -1.35391 0
M  V30 1681 H 155.88 5.3178 -1.3602 0
M  V30 1682 H 156.141 4.41919 0.126362 0
M  V30 1683 N 155.201 0.870884 1.31352 0
M  V30 1684 C 156.148 0.325425 2.28494 0
M  V30 1685 C 157.118 -0.576615 1.5577 0
M  V30 1686 O 158.303 -0.508059 1.83911 0
M  V30 1687 C 155.443 -0.466283 3.41935 0
M  V30 1688 C 154.556 0.463378 4.29508 0
M  V30 1689 C 153.691 -0.342544 5.30094 0
M  V30 1690 C 152.73 0.583486 6.09313 0
M  V30 1691 N 151.867 -0.186244 7.01853 0
M  V30 1692 H 156.707 1.15901 2.74538 0
M  V30 1693 H 154.244 0.58294 1.35056 0
M  V30 1694 H 156.202 -0.941085 4.06447 0
M  V30 1695 H 154.832 -1.26456 2.97 0
M  V30 1696 H 153.884 1.05663 3.65431 0
M  V30 1697 H 155.196 1.1734 4.84802 0
M  V30 1698 H 154.35 -0.879816 6.00287 0
M  V30 1699 H 153.089 -1.08585 4.75458 0
M  V30 1700 H 152.094 1.13251 5.3801 0
M  V30 1701 H 153.319 1.32566 6.66035 0
M  V30 1702 H 151.265 -0.912348 6.49625 0
M  V30 1703 H 151.182 0.464422 7.54572 0
M  V30 1704 H 152.45 -0.704716 7.76308 0
M  V30 1705 N 156.679 -1.44442 0.630414 0
M  V30 1706 C 157.627 -2.32437 -0.0871428 0
M  V30 1707 C 158.621 -1.47304 -0.836525 0
M  V30 1708 O 159.827 -1.63653 -0.749506 0
M  V30 1709 H 156.202 -0.750533 -0.0469495 0
M  V30 1710 H 158.173 -2.90709 0.673096 0
M  V30 1711 C 156.922 -3.31288 -1.05563 0
M  V30 1712 H 156.245 -3.96805 -0.488426 0
M  V30 1713 H 157.685 -3.9554 -1.52721 0
M  V30 1714 C 156.144 -2.6016 -2.14052 0
M  V30 1715 O 156.674 -2.39997 -3.22124 0
M  V30 1716 N 154.88 -2.19911 -1.89967 0
M  V30 1717 H 154.427 -2.36509 -1.02085 0
M  V30 1718 H 154.385 -1.72646 -2.62756 0
M  V30 1719 N 158.157 -0.370918 -1.53173 0
M  V30 1720 C 159.12 0.460778 -2.24521 0
M  V30 1721 C 160.12 1.00536 -1.25496 0
M  V30 1722 O 161.31 0.890266 -1.49733 0
M  V30 1723 C 158.442 1.64457 -2.98608 0
M  V30 1724 H 159.635 -0.163613 -2.99453 0
M  V30 1725 H 157.188 -0.122699 -1.55818 0
M  V30 1726 H 157.923 2.30691 -2.2793 0
M  V30 1727 H 157.708 1.26099 -3.7127 0
M  V30 1728 H 159.198 2.23384 -3.5283 0
M  V30 1729 N 159.635 1.57281 -0.100228 0
M  V30 1730 C 160.883 1.94153 0.561157 0
M  V30 1731 C 161.204 0.983157 1.68401 0
M  V30 1732 O 160.474 0.0361132 1.95867 0
M  V30 1733 H 159.054 0.716791 0.210283 0
M  V30 1734 H 161.716 1.94202 -0.164765 0
M  V30 1735 H 160.812 2.96709 0.968008 0
M  V30 1736 N 161.113 -0.173488 1.56642 0
M  V30 1737 C 162.046 -1.24353 1.91342 0
M  V30 1738 C 163.024 -1.4289 0.775965 0
M  V30 1739 O 164.208 -1.57932 1.02907 0
M  V30 1740 C 161.335 -2.60683 2.16245 0
M  V30 1741 C 160.381 -2.58894 3.38934 0
M  V30 1742 S 161.214 -2.0819 4.93373 0
M  V30 1743 C 162.37 -3.46302 5.21369 0
M  V30 1744 H 162.603 -0.947345 2.81803 0
M  V30 1745 H 160.136 -0.377958 1.49703 0
M  V30 1746 H 162.094 -3.39149 2.31275 0
M  V30 1747 H 160.755 -2.87502 1.26496 0
M  V30 1748 H 159.948 -3.59188 3.53553 0
M  V30 1749 H 159.55 -1.88522 3.2301 0
M  V30 1750 H 161.842 -4.42287 5.13214 0
M  V30 1751 H 162.785 -3.3656 6.23003 0
M  V30 1752 H 163.193 -3.42214 4.48943 0
M  V30 1753 N 162.591 -1.51276 -0.441967 0
M  V30 1754 C 163.538 -1.72256 -1.53612 0
M  V30 1755 C 164.508 -0.564164 -1.56225 0
M  V30 1756 O 165.693 -0.798074 -1.73307 0
M  V30 1757 C 162.833 -1.84932 -2.91366 0
M  V30 1758 C 161.946 -3.12459 -2.98317 0
M  V30 1759 C 161.081 -3.15758 -4.27166 0
M  V30 1760 C 160.12 -4.37619 -4.27967 0
M  V30 1761 N 159.257 -4.38493 -5.48333 0
M  V30 1762 H 164.097 -2.65654 -1.35026 0
M  V30 1763 H 161.634 -1.31662 -0.656009 0
M  V30 1764 H 163.592 -1.90263 -3.7129 0
M  V30 1765 H 162.222 -0.949461 -3.08521 0
M  V30 1766 H 161.274 -3.1646 -2.11086 0
M  V30 1767 H 162.586 -4.02382 -2.94771 0
M  V30 1768 H 161.74 -3.19979 -5.15459 0
M  V30 1769 H 160.479 -2.23715 -4.33362 0
M  V30 1770 H 159.484 -4.33579 -3.38067 0
M  V30 1771 H 160.709 -5.30921 -4.23438 0
M  V30 1772 H 158.655 -3.49318 -5.55259 0
M  V30 1773 H 158.572 -5.22219 -5.46647 0
M  V30 1774 H 159.84 -4.469 -6.38671 0
M  V30 1775 N 164.069 0.697108 -1.41344 0
M  V30 1776 C 165.002 1.82134 -1.37486 0
M  V30 1777 C 165.98 1.60784 -0.242351 0
M  V30 1778 O 167.164 1.83553 -0.429012 0
M  V30 1779 C 164.291 3.18788 -1.14421 0
M  V30 1780 C 163.337 3.58932 -2.3037 0
M  V30 1781 S 164.17 3.63916 -3.92843 0
M  V30 1782 C 165.326 5.03298 -3.72078 0
M  V30 1783 H 165.559 1.85129 -2.32625 0
M  V30 1784 H 163.092 0.865671 -1.2785 0
M  V30 1785 H 165.05 3.97677 -1.018 0
M  V30 1786 H 163.711 3.13404 -0.20905 0
M  V30 1787 H 162.904 4.58202 -2.09922 0
M  V30 1788 H 162.506 2.87347 -2.39391 0
M  V30 1789 H 164.798 5.90753 -3.31688 0
M  V30 1790 H 165.741 5.28788 -4.70945 0
M  V30 1791 H 166.149 4.74764 -3.05384 0
M  V30 1792 N 165.547 1.27147 0.931209 0
M  V30 1793 C 166.796 1.12664 1.67302 0
M  V30 1794 C 167.109 -0.327718 1.92835 0
M  V30 1795 O 168.315 -0.593392 2.64936 0
M  V30 1796 C 166.771 1.9683 3.01307 0
M  V30 1797 C 166.379 3.46901 2.83485 0
M  V30 1798 C 168.123 1.90985 3.79111 0
M  V30 1799 C 166.03 4.23279 4.13024 0
M  V30 1800 H 164.96 0.41803 0.627509 0
M  V30 1801 H 167.611 1.51539 1.03481 0
M  V30 1802 H 165.993 1.50797 3.66164 0
M  V30 1803 H 167.167 4.00773 2.27415 0
M  V30 1804 H 165.482 3.54088 2.19113 0
M  V30 1805 H 168.079 2.45328 4.75098 0
M  V30 1806 H 168.422 0.882718 4.06834 0
M  V30 1807 H 168.955 2.34895 3.21044 0
M  V30 1808 H 165.694 5.26503 3.90481 0
M  V30 1809 H 165.214 3.74186 4.6877 0
M  V30 1810 H 166.893 4.32265 4.81411 0
M  V30 1811 N 167.025 -1.13721 1.09112 0
M  V30 1812 C 168.436 -1.6648 0.845068 0
M  V30 1813 C 168.787 -1.85911 -0.62701 0
M  V30 1814 O 167.912 -1.57556 -1.48341 0
M  V30 1815 C 168.507 -3.02413 1.52748 0
M  V30 1816 C 167.066 -3.52176 1.32849 0
M  V30 1817 C 166.213 -2.27492 1.58564 0
M  V30 1818 H 169.164 -0.976872 1.25072 0
M  V30 1819 H 169.185 -3.68223 0.958752 0
M  V30 1820 H 168.697 -2.88238 2.59885 0
M  V30 1821 H 166.798 -3.7156 0.278137 0
M  V30 1822 H 166.911 -4.32499 2.0611 0
M  V30 1823 H 165.275 -2.33923 1.00758 0
M  V30 1824 H 166.058 -2.15886 2.66924 0
M  V30 1825 N 168.503 -0.877838 -1.30888 0
M  V30 1826 C 169.752 -0.488793 -1.95688 0
M  V30 1827 C 170.065 0.965485 -1.70111 0
M  V30 1828 O 171.271 1.46104 -2.28836 0
M  V30 1829 C 169.727 -0.823201 -3.50359 0
M  V30 1830 C 169.335 -2.29477 -3.84765 0
M  V30 1831 C 171.079 -0.503009 -4.21509 0
M  V30 1832 C 168.986 -2.57118 -5.32583 0
M  V30 1833 H 167.916 -0.179062 -0.732429 0
M  V30 1834 H 170.567 -1.07183 -1.48943 0
M  V30 1835 H 168.949 -0.169331 -3.95638 0
M  V30 1836 H 170.123 -2.99236 -3.5042 0
M  V30 1837 H 168.438 -2.58178 -3.267 0
M  V30 1838 H 171.035 -0.68665 -5.30273 0
M  V30 1839 H 171.378 0.557109 -4.12555 0
M  V30 1840 H 171.911 -1.11376 -3.8189 0
M  V30 1841 H 168.65 -3.61843 -5.4658 0
M  V30 1842 H 168.17 -1.91961 -5.68253 0
M  V30 1843 H 169.849 -2.42251 -5.99936 0
M  V30 1844 N 169.982 1.44106 -0.638065 0
M  V30 1845 C 171.231 2.01194 -0.142744 0
M  V30 1846 C 171.544 1.50835 1.24532 0
M  V30 1847 O 172.75 2.00096 1.83504 0
M  V30 1848 C 171.206 3.59319 -0.20442 0
M  V30 1849 C 170.814 4.18674 -1.59423 0
M  V30 1850 C 172.558 4.23854 0.234079 0
M  V30 1851 C 170.465 5.69045 -1.61065 0
M  V30 1852 H 169.395 0.752367 -0.0495998 0
M  V30 1853 H 172.046 1.65246 -0.797881 0
M  V30 1854 H 170.428 3.92598 0.517946 0
M  V30 1855 H 171.602 3.96921 -2.34074 0
M  V30 1856 H 169.917 3.66453 -1.97741 0
M  V30 1857 H 172.514 5.34155 0.241443 0
M  V30 1858 H 172.857 3.96688 1.2627 0
M  V30 1859 H 173.39 3.95403 -0.436025 0
M  V30 1860 H 170.129 6.00956 -2.61787 0
M  V30 1861 H 169.649 5.929 -0.90718 0
M  V30 1862 H 171.328 6.32809 -1.34766 0
M  V30 1863 N 171.46 0.379036 1.52974 0
M  V30 1864 C 172.685 -0.209353 2.06341 0
M  V30 1865 C 173.11 -1.40583 1.24972 0
M  V30 1866 O 172.468 -1.79246 0.272155 0
M  V30 1867 C 172.516 -0.567786 3.56102 0
M  V30 1868 O 171.62 -1.66318 3.77375 0
M  V30 1869 H 170.961 -0.0272919 0.663439 0
M  V30 1870 H 173.491 0.543536 1.97248 0
M  V30 1871 H 173.501 -0.835003 3.99364 0
M  V30 1872 H 172.176 0.307013 4.14765 0
M  V30 1873 H 170.753 -1.39048 3.46006 0
M  V30 1874 N 172.938 -1.57226 0.108567 0
M  V30 1875 C 174.166 -1.99179 -0.559954 0
M  V30 1876 C 174.581 -0.988022 -1.60884 0
M  V30 1877 O 173.938 0.0205512 -1.82488 0
M  V30 1878 C 173.989 -3.41159 -1.19552 0
M  V30 1879 O 173.71 -4.37694 -0.188577 0
M  V30 1880 C 175.211 -3.98188 -1.94837 0
M  V30 1881 H 172.431 -0.654228 -0.149088 0
M  V30 1882 H 174.975 -2.03598 0.19183 0
M  V30 1883 H 173.13 -3.37711 -1.89815 0
M  V30 1884 H 173.544 -5.20469 -0.649014 0
M  V30 1885 H 175.018 -4.99644 -2.34648 0
M  V30 1886 H 175.495 -3.3675 -2.81951 0
M  V30 1887 H 176.101 -4.0515 -1.2936 0
M  V30 1888 N 174.416 0.165178 -1.56732 0
M  V30 1889 C 175.366 1.20917 -1.93295 0
M  V30 1890 C 176.35 1.39488 -0.801985 0
M  V30 1891 O 177.542 1.41356 -1.06525 0
M  V30 1892 C 174.671 2.54718 -2.3016 0
M  V30 1893 C 173.757 2.39815 -3.49785 0
M  V30 1894 N 174.148 1.94637 -4.66851 0
M  V30 1895 C 172.446 2.70623 -3.54513 0
M  V30 1896 C 173.147 1.92344 -5.4898 0
M  V30 1897 N 172.123 2.34978 -4.9019 0
M  V30 1898 H 175.925 0.851675 -2.81289 0
M  V30 1899 H 173.439 0.373399 -1.58049 0
M  V30 1900 H 175.436 3.30165 -2.54552 0
M  V30 1901 H 174.096 2.91265 -1.43508 0
M  V30 1902 H 175.107 1.6488 -4.90953 0
M  V30 1903 H 171.784 3.11167 -2.78354 0
M  V30 1904 H 173.174 1.5906 -6.52801 0
M  V30 1905 N 175.894 1.51508 0.433938 0
M  V30 1906 C 176.826 1.69266 1.54537 0
M  V30 1907 C 177.839 0.573276 1.52373 0
M  V30 1908 O 179.028 0.847698 1.57087 0
M  V30 1909 C 176.128 1.69524 2.93453 0
M  V30 1910 C 175.301 2.98101 3.20085 0
M  V30 1911 C 174.36 2.90502 4.38742 0
M  V30 1912 O 173.386 3.64442 4.3723 0
M  V30 1913 N 174.588 2.06586 5.42496 0
M  V30 1914 H 177.353 2.65145 1.39708 0
M  V30 1915 H 174.914 1.49437 0.622922 0
M  V30 1916 H 176.906 1.62004 3.70859 0
M  V30 1917 H 175.476 0.812245 3.01863 0
M  V30 1918 H 174.696 3.19464 2.30947 0
M  V30 1919 H 175.984 3.83207 3.34708 0
M  V30 1920 H 175.382 1.45896 5.46563 0
M  V30 1921 H 173.939 2.04943 6.18742 0
M  V30 1922 N 177.372 -0.689602 1.41712 0
M  V30 1923 C 178.612 -1.46184 1.42862 0
M  V30 1924 C 178.976 -1.91962 0.0382204 0
M  V30 1925 O 180.177 -2.68694 -0.0755019 0
M  V30 1926 C 178.448 -2.6371 2.4123 0
M  V30 1927 S 180.007 -3.52768 2.6096 0
M  V30 1928 H 176.825 -0.49947 0.506015 0
M  V30 1929 H 179.427 -0.804107 1.78198 0
M  V30 1930 H 178.131 -2.28293 3.41044 0
M  V30 1931 H 177.662 -3.3437 2.07269 0
M  V30 1932 H 179.677 -4.59146 1.88148 0
M  V30 1933 N 178.85 -1.27639 -0.924453 0
M  V30 1934 C 180.098 -1.13941 -1.66918 0
M  V30 1935 C 180.419 0.314589 -1.92446 0
M  V30 1936 O 179.689 1.21964 -1.53303 0
M  V30 1937 H 178.269 -0.418678 -0.618642 0
M  V30 1938 H 180.931 -1.60213 -1.10985 0
M  V30 1939 H 180.027 -1.67094 -2.63602 0
M  V30 1940 N 180.328 1.1314 -1.09713 0
M  V30 1941 C 181.576 1.84119 -0.833338 0
M  V30 1942 C 181.897 1.84097 0.642904 0
M  V30 1943 O 181.167 1.29881 1.46655 0
M  V30 1944 H 179.747 0.681766 -0.305293 0
M  V30 1945 H 182.409 1.37038 -1.38588 0
M  V30 1946 H 181.505 2.88543 -1.18951 0
M  V30 1947 N 181.806 0.884767 1.30421 0
M  V30 1948 C 182.754 0.340869 2.30089 0
M  V30 1949 C 183.748 -0.55201 1.60154 0
M  V30 1950 O 184.954 -0.436467 1.74628 0
M  V30 1951 H 181.329 0.0915739 0.746404 0
M  V30 1952 H 183.3 1.19513 2.73421 0
M  V30 1953 C 182.049 -0.429779 3.45034 0
M  V30 1954 H 181.372 0.248024 3.9903 0
M  V30 1955 H 182.812 -0.775445 4.16849 0
M  V30 1956 C 181.271 -1.62677 2.95022 0
M  V30 1957 O 181.801 -2.72614 2.95033 0
M  V30 1958 N 180.007 -1.46387 2.51036 0
M  V30 1959 H 179.554 -0.569506 2.51226 0
M  V30 1960 H 179.512 -2.26612 2.17932 0
M  V30 1961 N 183.284 -1.43765 0.645699 0
M  V30 1962 C 184.53 -2.02197 0.156271 0
M  V30 1963 C 184.863 -1.50776 -1.22393 0
M  V30 1964 O 184.138 -0.697771 -1.81553 0
M  V30 1965 C 184.421 -3.59749 0.158872 0
M  V30 1966 C 184.274 -4.21419 1.57245 0
M  V30 1967 C 185.593 -4.37149 -0.50879 0
M  V30 1968 H 182.712 -0.734694 0.0582602 0
M  V30 1969 H 185.354 -1.71157 0.824951 0
M  V30 1970 H 183.504 -3.86325 -0.410525 0
M  V30 1971 H 185.176 -4.059 2.19186 0
M  V30 1972 H 183.419 -3.78356 2.122 0
M  V30 1973 H 184.09 -5.30482 1.52619 0
M  V30 1974 H 186.566 -4.16093 -0.024412 0
M  V30 1975 H 185.442 -5.4683 -0.476213 0
M  V30 1976 H 185.703 -4.12839 -1.58165 0
M  V30 1977 N 184.763 -0.387143 -1.52771 0
M  V30 1978 C 186.011 0.195349 -2.01154 0
M  V30 1979 C 186.332 1.475 -1.27549 0
M  V30 1980 O 185.602 1.91878 -0.394924 0
M  V30 1981 H 184.182 0.075178 -0.743207 0
M  V30 1982 H 186.844 -0.518337 -1.87881 0
M  V30 1983 H 185.94 0.407096 -3.09434 0
M  V30 1984 N 186.241 1.57166 -0.116904 0
M  V30 1985 C 187.518 1.86645 0.585049 0
M  V30 1986 C 187.898 1.0177 1.84949 0
M  V30 1987 O 187.246 0.0960379 2.28298 0
M  V30 1988 C 187.456 3.37736 0.879507 0
M  V30 1989 C 188.804 4.06289 1.23348 0
M  V30 1990 O 189.828 3.42743 0.969836 0
M  V30 1991 O 188.687 5.18455 1.7282 0
M  V30 1992 H 185.781 0.772593 0.295007 0
M  V30 1993 H 188.327 1.69025 -0.151249 0
M  V30 1994 H 187.099 3.91296 -0.0166136 0
M  V30 1995 H 186.722 3.6078 1.67103 0
M  V30 1996 N 187.719 -0.156864 1.56817 0
M  V30 1997 C 188.996 -0.899244 1.73704 0
M  V30 1998 C 189.376 -1.99771 0.682254 0
M  V30 1999 O 188.724 -2.26515 -0.300522 0
M  V30 2000 C 188.934 -1.45075 3.17418 0
M  V30 2001 C 190.282 -1.91802 3.7881 0
M  V30 2002 O 191.306 -1.54838 3.20786 0
M  V30 2003 O 190.165 -2.5994 4.80722 0
M  V30 2004 H 187.259 -0.424267 0.709878 0
M  V30 2005 H 189.805 -0.143561 1.69092 0
M  V30 2006 H 188.577 -0.660846 3.85679 0
M  V30 2007 H 188.2 -2.27021 3.26416 0
M  V30 2008 N 189.197 -1.51736 -0.425897 0
M  V30 2009 C 190.437 -1.66636 -1.18371 0
M  V30 2010 C 190.801 -0.379854 -1.88205 0
M  V30 2011 O 192.002 -0.404758 -2.65735 0
M  V30 2012 C 190.273 -2.84382 -2.16476 0
M  V30 2013 S 191.832 -3.19673 -3.0059 0
M  V30 2014 H 188.65 -0.586957 -0.40125 0
M  V30 2015 H 191.252 -1.89679 -0.473518 0
M  V30 2016 H 189.956 -3.76281 -1.63831 0
M  V30 2017 H 189.487 -2.63562 -2.92059 0
M  V30 2018 H 191.502 -2.66994 -4.18245 0
M  V30 2019 N 190.675 0.682077 -1.42076 0
M  V30 2020 C 191.623 1.81707 -1.45208 0
M  V30 2021 C 192.617 1.66183 -0.328591 0
M  V30 2022 O 193.823 1.7288 -0.501264 0
M  V30 2023 H 190.198 0.599014 -0.454628 0
M  V30 2024 H 192.169 1.76183 -2.40836 0
M  V30 2025 C 190.918 3.19816 -1.36428 0
M  V30 2026 H 190.241 3.32385 -2.22171 0
M  V30 2027 H 191.681 3.99272 -1.42681 0
M  V30 2028 C 190.14 3.36809 -0.078191 0
M  V30 2029 O 190.67 3.92124 0.87188 0
M  V30 2030 N 188.876 2.906 0.00229266 0
M  V30 2031 H 188.423 2.45772 -0.771616 0
M  V30 2032 H 188.381 3.02347 0.862179 0
M  V30 2033 N 192.153 1.28127 0.917671 0
M  V30 2034 C 193.399 1.15223 1.66888 0
M  V30 2035 C 193.732 -0.299293 1.9188 0
M  V30 2036 O 193.007 -1.21805 1.51637 0
M  V30 2037 C 193.29 1.94706 3.02922 0
M  V30 2038 C 193.143 3.47898 2.85109 0
M  V30 2039 C 194.462 1.75939 4.03402 0
M  V30 2040 H 191.581 0.419946 0.605652 0
M  V30 2041 H 194.223 1.57398 1.06423 0
M  V30 2042 H 192.373 1.58864 3.54534 0
M  V30 2043 H 194.045 3.93624 2.40537 0
M  V30 2044 H 192.288 3.7373 2.20246 0
M  V30 2045 H 192.959 3.98765 3.81694 0
M  V30 2046 H 195.435 2.07209 3.60837 0
M  V30 2047 H 194.311 2.33931 4.96556 0
M  V30 2048 H 194.572 0.709877 4.36364 0
M  V30 2049 N 193.631 -1.12557 1.10312 0
M  V30 2050 C 195.042 -1.65574 0.862678 0
M  V30 2051 C 195.393 -1.86566 -0.607256 0
M  V30 2052 O 194.518 -1.59121 -1.46662 0
M  V30 2053 C 195.113 -3.00776 1.55947 0
M  V30 2054 C 193.672 -3.50748 1.36576 0
M  V30 2055 C 192.819 -2.25797 1.60968 0
M  V30 2056 H 195.77 -0.963552 1.26101 0
M  V30 2057 H 195.791 -3.67185 0.997753 0
M  V30 2058 H 195.303 -2.85465 2.62928 0
M  V30 2059 H 193.404 -3.71245 0.317531 0
M  V30 2060 H 193.517 -4.30289 2.10686 0
M  V30 2061 H 191.881 -2.32841 1.03234 0
M  V30 2062 H 192.664 -2.13043 2.69198 0
M  V30 2063 N 195.109 -0.891671 -1.2995 0
M  V30 2064 C 196.358 -0.509521 -1.95158 0
M  V30 2065 C 196.671 0.947388 -1.71125 0
M  V30 2066 O 197.877 1.43669 -2.30372 0
M  V30 2067 C 196.333 -0.860315 -3.49466 0
M  V30 2068 C 195.941 -2.33545 -3.8231 0
M  V30 2069 C 197.685 -0.547687 -4.20952 0
M  V30 2070 C 195.592 -2.62752 -5.29826 0
M  V30 2071 H 194.522 -0.18682 -0.730489 0
M  V30 2072 H 197.173 -1.08756 -1.47798 0
M  V30 2073 H 195.555 -0.211285 -3.95436 0
M  V30 2074 H 196.729 -3.02936 -3.47227 0
M  V30 2075 H 195.044 -2.61629 -3.23944 0
M  V30 2076 H 197.641 -0.742854 -5.29515 0
M  V30 2077 H 197.984 0.51332 -4.13123 0
M  V30 2078 H 198.517 -1.1542 -3.80688 0
M  V30 2079 H 195.256 -3.6762 -5.42712 0
M  V30 2080 H 194.776 -1.97977 -5.66185 0
M  V30 2081 H 196.455 -2.48601 -5.97333 0
M  V30 2082 N 196.587 1.43421 -0.653314 0
M  V30 2083 C 197.998 1.85065 -0.246537 0
M  V30 2084 C 198.349 1.54688 1.2069 0
M  V30 2085 O 197.474 0.995896 1.92122 0
M  V30 2086 C 198.069 3.35922 -0.440666 0
M  V30 2087 C 196.628 3.76297 -0.0882064 0
M  V30 2088 C 195.775 2.67147 -0.743484 0
M  V30 2089 H 198.726 1.33572 -0.856979 0
M  V30 2090 H 198.747 3.79204 0.313798 0
M  V30 2091 H 198.259 3.58 -1.49858 0
M  V30 2092 H 196.36 3.5983 0.96711 0
M  V30 2093 H 196.473 4.76338 -0.513738 0
M  V30 2094 H 194.837 2.54086 -0.176712 0
M  V30 2095 H 195.62 2.92053 -1.80443 0
M  V30 2096 N 198.065 0.39524 1.52563 0
M  V30 2097 C 199.29 -0.187456 2.06551 0
M  V30 2098 C 199.715 -1.39249 1.26457 0
M  V30 2099 O 199.073 -1.78947 0.291151 0
M  V30 2100 C 199.121 -0.529985 3.56684 0
M  V30 2101 O 198.225 -1.62307 3.79118 0
M  V30 2102 H 197.566 -0.0202537 0.663691 0
M  V30 2103 H 200.096 0.564426 1.96661 0
M  V30 2104 H 200.106 -0.792598 4.00227 0
M  V30 2105 H 198.781 0.350987 4.14416 0
M  V30 2106 H 197.358 -1.3537 3.47461 0
M  V30 2107 N 199.544 -1.57102 0.125237 0
M  V30 2108 C 200.79 -1.96488 -0.525753 0
M  V30 2109 C 201.145 -1.00786 -1.6389 0
M  V30 2110 O 200.438 -0.038979 -1.9156 0
M  V30 2111 C 200.632 -3.40096 -1.09862 0
M  V30 2112 C 200.461 -4.4968 -0.0425004 0
M  V30 2113 C 199.231 -5.03781 0.391463 0
M  V30 2114 C 201.429 -5.08936 0.740829 0
M  V30 2115 N 199.411 -5.96948 1.4327 0
M  V30 2116 C 200.782 -5.98105 1.6331 0
M  V30 2117 C 202.837 -4.91576 0.791029 0
M  V30 2118 C 201.54 -6.71774 2.57122 0
M  V30 2119 C 203.566 -5.6593 1.71688 0
M  V30 2120 C 202.928 -6.5479 2.59672 0
M  V30 2121 H 199.027 -0.765072 -0.161831 0
M  V30 2122 H 201.611 -1.93511 0.214801 0
M  V30 2123 H 199.782 -3.43707 -1.80887 0
M  V30 2124 H 201.514 -3.66591 -1.71444 0
M  V30 2125 H 198.269 -4.736 -0.00213584 0
M  V30 2126 H 198.693 -6.48236 1.95243 0
M  V30 2127 H 203.335 -4.22615 0.124915 0
M  V30 2128 H 201.053 -7.39977 3.24744 0
M  V30 2129 H 204.639 -5.54501 1.76125 0
M  V30 2130 H 203.519 -7.11316 3.30149 0
M  V30 2131 N 201.022 0.148545 -1.56898 0
M  V30 2132 C 202.268 0.862694 -1.83536 0
M  V30 2133 C 202.601 1.80889 -0.706604 0
M  V30 2134 O 201.876 1.92328 0.289885 0
M  V30 2135 C 202.159 1.63853 -3.20662 0
M  V30 2136 C 202.012 0.713925 -4.44098 0
M  V30 2137 C 203.331 2.60133 -3.54991 0
M  V30 2138 H 200.45 0.312179 -0.667618 0
M  V30 2139 H 203.092 0.127953 -1.89569 0
M  V30 2140 H 201.242 2.26489 -3.1565 0
M  V30 2141 H 202.914 0.098686 -4.61194 0
M  V30 2142 H 201.157 0.0234019 -4.33794 0
M  V30 2143 H 201.828 1.29278 -5.36648 0
M  V30 2144 H 204.304 2.07616 -3.60603 0
M  V30 2145 H 203.18 3.11468 -4.51972 0
M  V30 2146 H 203.441 3.41417 -2.80868 0
M  V30 2147 N 202.5 1.5196 0.417844 0
M  V30 2148 C 203.746 1.66793 1.16411 0
M  V30 2149 C 204.101 0.388758 1.88432 0
M  V30 2150 O 203.394 -0.616409 1.81414 0
M  V30 2151 C 203.588 2.82269 2.19223 0
M  V30 2152 C 203.417 4.21293 1.57297 0
M  V30 2153 C 202.187 4.86948 1.34944 0
M  V30 2154 C 204.385 5.03704 1.03858 0
M  V30 2155 N 202.367 6.1003 0.688195 0
M  V30 2156 C 203.738 6.1795 0.503742 0
M  V30 2157 C 205.793 4.89095 0.932203 0
M  V30 2158 C 204.496 7.19188 -0.127034 0
M  V30 2159 C 206.522 5.90559 0.315293 0
M  V30 2160 C 205.884 7.0409 -0.208906 0
M  V30 2161 H 201.983 0.66407 0.412959 0
M  V30 2162 H 204.567 1.89242 0.457772 0
M  V30 2163 H 202.738 2.61451 2.87225 0
M  V30 2164 H 204.47 2.86183 2.86149 0
M  V30 2165 H 201.225 4.45156 1.61657 0
M  V30 2166 H 201.649 6.75964 0.374449 0
M  V30 2167 H 206.291 4.01557 1.32332 0
M  V30 2168 H 204.009 8.06359 -0.530231 0
M  V30 2169 H 207.595 5.81327 0.234625 0
M  V30 2170 H 206.475 7.81257 -0.67875 0
M  V30 2171 N 203.978 -0.674533 1.42435 0
M  V30 2172 C 204.926 -1.80934 1.46169 0
M  V30 2173 C 205.92 -1.66006 0.3374 0
M  V30 2174 O 207.126 -1.72611 0.510425 0
M  V30 2175 H 203.501 -0.596594 0.457798 0
M  V30 2176 H 205.472 -1.74903 2.41767 0
M  V30 2177 C 204.221 -3.19088 1.38123 0
M  V30 2178 H 203.544 -3.31203 2.23931 0
M  V30 2179 H 204.984 -3.9851 1.44797 0
M  V30 2180 C 203.443 -3.36763 0.0960517 0
M  V30 2181 O 203.973 -3.92581 -0.851073 0
M  V30 2182 N 202.179 -2.90597 0.0131186 0
M  V30 2183 H 201.726 -2.45359 0.784639 0
M  V30 2184 H 201.684 -3.028 -0.846133 0
M  V30 2185 N 205.456 -1.28612 -0.910864 0
M  V30 2186 C 206.388 -1.08589 -2.01844 0
M  V30 2187 C 207.401 -0.0367419 -1.62759 0
M  V30 2188 O 208.59 -0.280101 -1.76289 0
M  V30 2189 C 205.69 -0.628626 -3.33019 0
M  V30 2190 C 204.863 -1.75382 -4.00699 0
M  V30 2191 C 203.922 -1.28945 -5.10156 0
M  V30 2192 O 202.948 -1.9922 -5.33198 0
M  V30 2193 N 204.15 -0.154224 -5.80295 0
M  V30 2194 H 206.915 -2.03973 -2.19579 0
M  V30 2195 H 204.476 -1.20403 -1.08234 0
M  V30 2196 H 206.468 -0.301508 -4.03575 0
M  V30 2197 H 205.038 0.232451 -3.11735 0
M  V30 2198 H 204.258 -2.25039 -3.23653 0
M  V30 2199 H 205.546 -2.50854 -4.42662 0
M  V30 2200 H 204.944 0.43194 -5.64049 0
M  V30 2201 H 203.501 0.113599 -6.51701 0
M  V30 2202 N 206.934 1.1197 -1.10907 0
M  V30 2203 C 207.881 2.17846 -0.762345 0
M  V30 2204 C 208.851 1.63995 0.263599 0
M  V30 2205 O 210.036 1.90273 0.141773 0
M  V30 2206 C 207.176 3.44487 -0.205651 0
M  V30 2207 C 206.289 4.12369 -1.28748 0
M  V30 2208 C 205.424 5.26674 -0.691919 0
M  V30 2209 C 204.463 5.86431 -1.75399 0
M  V30 2210 N 203.6 6.92142 -1.17833 0
M  V30 2211 H 208.44 2.46851 -1.6694 0
M  V30 2212 H 205.977 1.21188 -0.833776 0
M  V30 2213 H 207.935 4.16981 0.135037 0
M  V30 2214 H 206.565 3.15884 0.664613 0
M  V30 2215 H 205.617 3.38003 -1.74522 0
M  V30 2216 H 206.929 4.52844 -2.09125 0
M  V30 2217 H 206.083 6.05953 -0.300963 0
M  V30 2218 H 204.822 4.8749 0.143232 0
M  V30 2219 H 203.827 5.05835 -2.15432 0
M  V30 2220 H 205.052 6.27685 -2.59208 0
M  V30 2221 H 202.998 6.54985 -0.364725 0
M  V30 2222 H 202.915 7.31242 -1.91887 0
M  V30 2223 H 204.183 7.75237 -0.81408 0
M  V30 2224 N 208.412 0.89855 1.29475 0
M  V30 2225 C 209.637 0.538561 2.00285 0
M  V30 2226 C 210.062 -0.869135 1.66816 0
M  V30 2227 O 209.42 -1.57831 0.892145 0
M  V30 2228 C 209.468 0.736475 3.52999 0
M  V30 2229 O 208.572 -0.211537 4.11857 0
M  V30 2230 H 207.913 0.210563 0.62973 0
M  V30 2231 H 210.443 1.20982 1.64998 0
M  V30 2232 H 210.453 0.640685 4.02938 0
M  V30 2233 H 209.128 1.76276 3.76696 0
M  V30 2234 H 207.705 -0.0682991 3.72837 0
M  V30 2235 N 209.89 -1.43072 0.660911 0
M  V30 2236 C 211.167 -1.95307 0.107017 0
M  V30 2237 C 211.547 -1.60192 -1.37484 0
M  V30 2238 O 210.895 -0.890949 -2.10415 0
M  V30 2239 C 211.105 -3.47124 0.361402 0
M  V30 2240 C 212.453 -4.23738 0.270455 0
M  V30 2241 O 213.477 -3.54981 0.294382 0
M  V30 2242 O 212.336 -5.46131 0.200737 0
M  V30 2243 H 209.43 -0.826984 -0.00517729 0
M  V30 2244 H 211.976 -1.52972 0.734681 0
M  V30 2245 H 210.748 -3.65837 1.38848 0
M  V30 2246 H 210.371 -3.96475 -0.298953 0
M  V30 2247 N 211.368 -0.403325 -1.52352 0
M  V30 2248 C 212.645 0.232611 -1.94212 0
M  V30 2249 C 213.025 1.63133 -1.33981 0
M  V30 2250 O 212.373 2.22659 -0.513344 0
M  V30 2251 C 212.583 0.244811 -3.4814 0
M  V30 2252 C 213.931 0.46698 -4.22024 0
M  V30 2253 O 214.955 0.324419 -3.5472 0
M  V30 2254 O 213.814 0.74747 -5.41364 0
M  V30 2255 H 210.908 0.148223 -0.813609 0
M  V30 2256 H 213.454 -0.458848 -1.63379 0
M  V30 2257 H 212.226 -0.734378 -3.84347 0
M  V30 2258 H 211.849 0.980611 -3.85318 0
M  V30 2259 N 212.846 1.57033 -0.133567 0
M  V30 2260 C 214.071 2.00475 0.531477 0
M  V30 2261 C 214.496 1.01291 1.58499 0
M  V30 2262 O 213.854 -0.0133279 1.81295 0
M  V30 2263 C 213.902 3.42729 1.12113 0
M  V30 2264 O 213.006 3.46498 2.23636 0
M  V30 2265 H 212.347 0.650876 0.131362 0
M  V30 2266 H 214.877 2.03344 -0.22634 0
M  V30 2267 H 214.887 3.81246 1.4531 0
M  V30 2268 H 213.562 4.14428 0.349557 0
M  V30 2269 H 212.139 3.19811 1.91769 0
M  V30 2270 N 214.325 -0.140222 1.56975 0
M  V30 2271 C 215.255 -1.17456 2.01808 0
M  V30 2272 C 216.236 -1.44415 0.898794 0
M  V30 2273 O 217.421 -1.5522 1.16707 0
M  V30 2274 C 214.551 -2.50607 2.40444 0
M  V30 2275 C 213.505 -2.38155 3.55621 0
M  V30 2276 C 212.831 -3.76078 3.80091 0
M  V30 2277 C 214.131 -1.85991 4.88062 0
M  V30 2278 H 215.825 -0.801743 2.88466 0
M  V30 2279 H 213.371 -0.38422 1.38779 0
M  V30 2280 H 215.324 -3.23197 2.7041 0
M  V30 2281 H 214.048 -2.89737 1.50732 0
M  V30 2282 H 212.707 -1.68016 3.25832 0
M  V30 2283 H 212.355 -4.12656 2.87618 0
M  V30 2284 H 212.055 -3.68606 4.57606 0
M  V30 2285 H 213.579 -4.50206 4.12488 0
M  V30 2286 H 214.993 -2.4838 5.16701 0
M  V30 2287 H 213.39 -1.89393 5.6943 0
M  V30 2288 H 214.46 -0.816023 4.77984 0
M  V30 2289 N 215.803 -1.52179 -0.40978 0
M  V30 2290 C 217.033 -1.69807 -1.17682 0
M  V30 2291 C 217.441 -0.406908 -1.84773 0
M  V30 2292 O 216.784 0.626863 -1.72673 0
M  V30 2293 C 216.846 -2.77712 -2.2829 0
M  V30 2294 C 216.51 -4.19481 -1.81341 0
M  V30 2295 C 217.507 -5.03345 -1.30154 0
M  V30 2296 C 215.192 -4.65713 -1.88194 0
M  V30 2297 C 217.186 -6.31511 -0.864416 0
M  V30 2298 C 214.873 -5.93869 -1.44093 0
M  V30 2299 C 215.871 -6.76597 -0.933023 0
M  V30 2300 O 215.559 -8.02354 -0.49838 0
M  V30 2301 H 215.291 -0.572372 -0.359675 0
M  V30 2302 H 217.845 -1.99511 -0.488311 0
M  V30 2303 H 216.075 -2.43383 -3.00502 0
M  V30 2304 H 217.764 -2.83946 -2.90051 0
M  V30 2305 H 218.53 -4.68819 -1.24232 0
M  V30 2306 H 214.409 -4.01424 -2.26671 0
M  V30 2307 H 217.953 -6.96033 -0.467286 0
M  V30 2308 H 213.85 -6.27903 -1.49694 0
M  V30 2309 H 214.618 -8.16135 -0.621747 0
M  V30 2310 N 217.281 0.66697 -1.42791 0
M  V30 2311 C 218.528 1.42699 -1.43678 0
M  V30 2312 C 218.856 1.94419 -0.0560425 0
M  V30 2313 O 218.111 1.7182 0.936831 0
M  V30 2314 C 218.41 2.6349 -2.4147 0
M  V30 2315 C 218.076 2.30267 -3.8767 0
M  V30 2316 C 216.738 2.20918 -4.27491 0
M  V30 2317 C 219.09 2.03435 -4.79858 0
M  V30 2318 C 216.418 1.82873 -5.57471 0
M  V30 2319 C 218.77 1.66892 -6.10188 0
M  V30 2320 C 217.434 1.56058 -6.49001 0
M  V30 2321 H 216.704 0.522171 -0.525755 0
M  V30 2322 H 219.351 0.759785 -1.75783 0
M  V30 2323 H 217.656 3.35279 -2.0272 0
M  V30 2324 H 219.353 3.21684 -2.39417 0
M  V30 2325 H 215.943 2.38449 -3.56146 0
M  V30 2326 H 220.127 2.09586 -4.49875 0
M  V30 2327 H 215.383 1.7306 -5.86396 0
M  V30 2328 H 219.557 1.45157 -6.81104 0
M  V30 2329 H 217.184 1.26348 -7.49627 0
M  V30 2330 N 218.759 1.29093 0.90403 0
M  V30 2331 C 219.706 1.13853 2.00764 0
M  V30 2332 C 220.676 0.0330084 1.66067 0
M  V30 2333 O 221.861 0.199733 1.89752 0
M  V30 2334 C 219.001 0.816537 3.35301 0
M  V30 2335 C 218.114 2.00206 3.82807 0
M  V30 2336 C 217.249 1.61983 5.059 0
M  V30 2337 C 216.288 2.77143 5.45764 0
M  V30 2338 N 215.425 2.39346 6.60044 0
M  V30 2339 H 220.265 2.08276 2.13132 0
M  V30 2340 H 217.802 1.03648 1.04381 0
M  V30 2341 H 219.76 0.610557 4.12708 0
M  V30 2342 H 218.39 -0.090779 3.22672 0
M  V30 2343 H 217.442 2.31988 3.01473 0
M  V30 2344 H 218.754 2.86512 4.08304 0
M  V30 2345 H 217.908 1.37649 5.90879 0
M  V30 2346 H 216.647 0.728202 4.82233 0
M  V30 2347 H 215.652 3.02165 4.59322 0
M  V30 2348 H 216.877 3.66964 5.71414 0
M  V30 2349 H 214.823 1.52665 6.37989 0
M  V30 2350 H 214.74 3.19185 6.85315 0
M  V30 2351 H 216.008 2.1832 7.48303 0
M  V30 2352 N 220.237 -1.11381 1.11499 0
M  V30 2353 C 221.462 -1.87475 0.887019 0
M  V30 2354 C 221.887 -1.79639 -0.557796 0
M  V30 2355 O 221.245 -1.15924 -1.39396 0
M  V30 2356 C 221.293 -3.34213 1.35403 0
M  V30 2357 O 220.397 -4.0903 0.526146 0
M  V30 2358 H 219.738 -0.582099 0.319463 0
M  V30 2359 H 222.268 -1.40785 1.48461 0
M  V30 2360 H 222.278 -3.8506 1.34881 0
M  V30 2361 H 220.953 -3.39232 2.40612 0
M  V30 2362 H 219.53 -3.68082 0.597522 0
M  V30 2363 N 221.715 -0.905404 -1.28997 0
M  V30 2364 C 222.625 -0.392246 -2.31298 0
M  V30 2365 C 223.641 0.515889 -1.66176 0
M  V30 2366 O 224.817 0.404093 -1.97304 0
M  V30 2367 C 221.882 0.36686 -3.44754 0
M  V30 2368 C 220.943 -0.573485 -4.25452 0
M  V30 2369 C 220.176 0.149488 -5.33491 0
M  V30 2370 O 220.399 1.37255 -5.5364 0
M  V30 2371 O 219.333 -0.510919 -5.99728 0
M  V30 2372 H 223.159 -1.2411 -2.77183 0
M  V30 2373 H 220.744 -0.669926 -1.33538 0
M  V30 2374 H 222.626 0.795907 -4.13816 0
M  V30 2375 H 221.301 1.19169 -3.00966 0
M  V30 2376 H 220.208 -1.05176 -3.59011 0
M  V30 2377 H 221.541 -1.36489 -4.72897 0
M  V30 2378 N 223.193 1.4272 -0.668489 0
M  V30 2379 C 224.421 2.05966 -0.196348 0
M  V30 2380 C 224.836 1.50191 1.14403 0
M  V30 2381 O 224.193 0.639208 1.7094 0
M  V30 2382 C 224.244 3.61314 -0.115815 0
M  V30 2383 O 223.965 4.1502 -1.40322 0
M  V30 2384 C 225.466 4.41663 0.380579 0
M  V30 2385 H 222.686 0.663954 -0.0969829 0
M  V30 2386 H 225.23 1.82966 -0.913446 0
M  V30 2387 H 223.385 3.83448 0.551931 0
M  V30 2388 H 223.799 5.08832 -1.27243 0
M  V30 2389 H 225.273 5.5065 0.385848 0
M  V30 2390 H 225.75 4.15792 1.41471 0
M  V30 2391 H 226.356 4.24534 -0.255209 0
M  V30 2392 N 224.671 0.411399 1.52136 0
M  V30 2393 C 225.919 -0.163322 2.01439 0
M  V30 2394 C 226.24 -1.45453 1.29879 0
M  V30 2395 O 225.51 -1.91225 0.4254 0
M  V30 2396 H 224.09 -0.0633447 0.744309 0
M  V30 2397 H 226.752 0.548161 1.87033 0
M  V30 2398 H 225.848 -0.357817 3.10042 0
M  V30 2399 N 226.149 -1.5696 0.141893 0
M  V30 2400 C 227.377 -2.00322 -0.517579 0
M  V30 2401 C 227.792 -1.02193 -1.58752 0
M  V30 2402 O 227.149 -0.0181619 -1.82491 0
M  V30 2403 C 227.2 -3.43618 -1.12289 0
M  V30 2404 O 226.921 -4.37995 -0.0956929 0
M  V30 2405 C 228.422 -4.02231 -1.86347 0
M  V30 2406 H 225.642 -0.657243 -0.135177 0
M  V30 2407 H 228.186 -2.03146 0.234973 0
M  V30 2408 H 226.341 -3.41662 -1.82609 0
M  V30 2409 H 226.755 -5.21729 -0.538469 0
M  V30 2410 H 228.229 -5.04509 -2.23997 0
M  V30 2411 H 228.706 -3.42655 -2.74744 0
M  V30 2412 H 229.312 -4.07802 -1.20737 0
M  V30 2413 N 227.627 0.131896 -1.57047 0
M  V30 2414 C 228.873 0.843179 -1.84441 0
M  V30 2415 C 229.206 1.80129 -0.725749 0
M  V30 2416 O 228.481 1.92624 0.269469 0
M  V30 2417 C 228.764 1.60442 -3.22382 0
M  V30 2418 C 228.617 0.666782 -4.4483 0
M  V30 2419 C 229.936 2.56354 -3.5773 0
M  V30 2420 H 227.055 0.305081 -0.670891 0
M  V30 2421 H 229.697 0.107839 -1.89694 0
M  V30 2422 H 227.847 2.23128 -3.18035 0
M  V30 2423 H 229.519 0.0497646 -4.61273 0
M  V30 2424 H 227.762 -0.022609 -4.33794 0
M  V30 2425 H 228.433 1.23579 -5.37989 0
M  V30 2426 H 230.909 2.0378 -3.62785 0
M  V30 2427 H 229.785 3.06657 -4.5525 0
M  V30 2428 H 230.046 3.38419 -2.84473 0
M  V30 2429 N 229.106 1.52395 0.401703 0
M  V30 2430 C 230.054 1.7689 1.51039 0
M  V30 2431 C 231.048 0.636298 1.56996 0
M  V30 2432 O 232.254 0.818507 1.60314 0
M  V30 2433 H 228.629 0.559502 0.502456 0
M  V30 2434 H 230.6 2.69757 1.27568 0
M  V30 2435 C 229.349 1.94331 2.88324 0
M  V30 2436 H 228.672 2.80905 2.84486 0
M  V30 2437 H 230.112 2.15466 3.65172 0
M  V30 2438 C 228.571 0.712396 3.29282 0
M  V30 2439 O 229.101 -0.116218 4.01532 0
M  V30 2440 N 227.307 0.546154 2.85422 0
M  V30 2441 H 226.854 1.22156 2.26794 0
M  V30 2442 H 226.812 -0.276113 3.13185 0
M  V30 2443 N 230.584 -0.659388 1.43143 0
M  V30 2444 C 231.531 -1.77249 1.47822 0
M  V30 2445 C 232.501 -1.62818 0.328558 0
M  V30 2446 O 233.686 -1.83151 0.534838 0
M  V30 2447 C 230.826 -3.15371 1.40126 0
M  V30 2448 C 229.939 -3.4098 2.65249 0
M  V30 2449 C 229.074 -4.68915 2.49584 0
M  V30 2450 C 228.113 -4.87608 3.70006 0
M  V30 2451 N 227.25 -6.06796 3.53189 0
M  V30 2452 H 232.09 -1.72584 2.42938 0
M  V30 2453 H 229.627 -0.842297 1.20598 0
M  V30 2454 H 231.585 -3.9521 1.33659 0
M  V30 2455 H 230.215 -3.19121 0.485964 0
M  V30 2456 H 229.267 -2.55282 2.8202 0
M  V30 2457 H 230.579 -3.50681 3.54717 0
M  V30 2458 H 229.733 -5.56871 2.4079 0
M  V30 2459 H 228.472 -4.61524 1.5763 0
M  V30 2460 H 227.477 -3.9809 3.79215 0
M  V30 2461 H 228.702 -4.96834 4.62961 0
M  V30 2462 H 226.648 -6.00549 2.63965 0
M  V30 2463 H 226.565 -6.17428 4.36255 0
M  V30 2464 H 227.833 -6.9739 3.48236 0
M  V30 2465 N 232.062 -1.29571 -0.897171 0
M  V30 2466 C 232.972 -1.16808 -2.03453 0
M  V30 2467 C 233.988 -0.0907471 -1.73763 0
M  V30 2468 O 235.164 -0.303312 -1.99103 0
M  V30 2469 C 232.229 -0.848264 -3.36163 0
M  V30 2470 C 231.29 -2.0097 -3.79354 0
M  V30 2471 C 230.523 -1.70505 -5.05731 0
M  V30 2472 O 230.746 -0.62718 -5.66941 0
M  V30 2473 O 229.68 -2.5538 -5.45036 0
M  V30 2474 H 233.506 -2.12325 -2.17144 0
M  V30 2475 H 231.091 -1.09047 -1.02123 0
M  V30 2476 H 232.973 -0.684581 -4.15802 0
M  V30 2477 H 231.648 0.0771071 -3.23608 0
M  V30 2478 H 230.555 -2.22863 -3.00471 0
M  V30 2479 H 231.888 -2.91636 -3.96496 0
M  V30 2480 N 233.54 1.10788 -1.12088 0
M  V30 2481 C 234.768 1.86461 -0.896651 0
M  V30 2482 C 235.183 1.80492 0.553912 0
M  V30 2483 O 234.54 1.19102 1.38278 0
M  V30 2484 C 234.591 3.35006 -1.35843 0
M  V30 2485 O 234.312 3.40866 -2.75213 0
M  V30 2486 C 235.813 4.27565 -1.1706 0
M  V30 2487 H 233.033 0.589425 -0.320654 0
M  V30 2488 H 235.577 1.40076 -1.48993 0
M  V30 2489 H 233.732 3.7887 -0.808458 0
M  V30 2490 H 234.146 4.33411 -2.9539 0
M  V30 2491 H 235.62 5.30007 -1.54263 0
M  V30 2492 H 236.097 4.3906 -0.110814 0
M  V30 2493 H 236.703 3.89501 -1.70789 0
M  V30 2494 N 235.018 0.912232 1.28515 0
M  V30 2495 C 235.948 0.416403 2.29757 0
M  V30 2496 C 236.929 -0.515194 1.6211 0
M  V30 2497 O 238.114 -0.423253 1.89532 0
M  V30 2498 C 235.244 -0.34572 3.45575 0
M  V30 2499 C 234.198 0.496599 4.25109 0
M  V30 2500 C 233.524 -0.393771 5.33248 0
M  V30 2501 C 234.824 1.75307 4.92001 0
M  V30 2502 H 236.518 1.26249 2.7148 0
M  V30 2503 H 234.064 0.608515 1.30511 0
M  V30 2504 H 236.017 -0.703422 4.15488 0
M  V30 2505 H 234.741 -1.2257 3.02728 0
M  V30 2506 H 233.4 0.8368 3.56922 0
M  V30 2507 H 233.048 -1.27225 4.86644 0
M  V30 2508 H 232.748 0.166209 5.87365 0
M  V30 2509 H 234.272 -0.747389 6.06009 0
M  V30 2510 H 235.686 1.46437 5.54283 0
M  V30 2511 H 234.083 2.25534 5.56106 0
M  V30 2512 H 235.153 2.48176 4.16577 0
M  V30 2513 N 236.496 -1.42363 0.676048 0
M  V30 2514 C 237.444 -2.32596 -0.0131507 0
M  V30 2515 C 238.438 -1.49891 -0.789238 0
M  V30 2516 O 239.644 -1.65955 -0.697061 0
M  V30 2517 H 236.019 -0.751647 -0.0230481 0
M  V30 2518 H 237.99 -2.88421 0.765243 0
M  V30 2519 C 236.739 -3.34479 -0.949702 0
M  V30 2520 H 236.062 -3.98158 -0.361938 0
M  V30 2521 H 237.502 -4.00199 -1.4006 0
M  V30 2522 C 235.961 -2.66838 -2.05667 0
M  V30 2523 O 236.491 -2.50124 -3.14326 0
M  V30 2524 N 234.697 -2.25843 -1.82875 0
M  V30 2525 H 234.244 -2.39637 -0.945085 0
M  V30 2526 H 234.202 -1.80918 -2.5713 0
M  V30 2527 N 237.974 -0.419461 -1.51915 0
M  V30 2528 C 239.385 0.0477853 -1.86639 0
M  V30 2529 C 239.736 1.43531 -1.33766 0
M  V30 2530 O 238.861 2.05401 -0.68113 0
M  V30 2531 C 239.456 0.0934885 -3.38671 0
M  V30 2532 C 238.015 0.505097 -3.72996 0
M  V30 2533 C 237.162 -0.313792 -2.75519 0
M  V30 2534 H 240.113 -0.636088 -1.45395 0
M  V30 2535 H 240.134 0.906667 -3.6954 0
M  V30 2536 H 239.646 -0.916501 -3.77123 0
M  V30 2537 H 237.747 1.52135 -3.40126 0
M  V30 2538 H 237.86 0.242309 -4.78487 0
M  V30 2539 H 236.224 0.225363 -2.53701 0
M  V30 2540 H 237.007 -1.32232 -3.16812 0
M  V30 2541 N 239.452 1.56882 -0.150215 0
M  V30 2542 C 240.382 2.19935 0.784284 0
M  V30 2543 C 241.363 1.14854 1.25469 0
M  V30 2544 O 242.548 1.43209 1.31168 0
M  V30 2545 C 239.678 2.82349 2.02229 0
M  V30 2546 C 238.632 3.93285 1.68853 0
M  V30 2547 C 237.958 4.42649 2.99944 0
M  V30 2548 C 239.258 5.13904 0.932714 0
M  V30 2549 H 240.952 2.9828 0.258781 0
M  V30 2550 H 238.498 1.43473 0.123029 0
M  V30 2551 H 240.451 3.25126 2.68088 0
M  V30 2552 H 239.175 2.0134 2.57157 0
M  V30 2553 H 237.834 3.5113 1.05371 0
M  V30 2554 H 237.482 3.58458 3.52869 0
M  V30 2555 H 237.182 5.17476 2.78374 0
M  V30 2556 H 238.706 4.88099 3.66868 0
M  V30 2557 H 240.12 5.53506 1.49345 0
M  V30 2558 H 238.517 5.94515 0.81684 0
M  V30 2559 H 239.587 4.84842 -0.0749568 0
M  V30 2560 N 240.93 -0.123565 1.57115 0
M  V30 2561 C 241.893 -1.13583 1.99076 0
M  V30 2562 C 242.893 -1.34564 0.880296 0
M  V30 2563 O 244.083 -1.31158 1.14644 0
M  V30 2564 C 241.215 -2.49128 2.32698 0
M  V30 2565 H 242.408 -0.775287 2.89706 0
M  V30 2566 H 239.961 -0.36771 1.51913 0
M  V30 2567 H 240.696 -2.90111 1.44934 0
M  V30 2568 H 240.481 -2.35255 3.13684 0
M  V30 2569 H 241.971 -3.2199 2.65918 0
M  V30 2570 N 242.408 -1.52605 -0.393616 0
M  V30 2571 C 243.633 -1.71592 -1.16495 0
M  V30 2572 C 244.058 -0.43133 -1.83088 0
M  V30 2573 O 243.416 0.612523 -1.7064 0
M  V30 2574 C 243.464 -2.86318 -2.19213 0
M  V30 2575 O 242.568 -2.52969 -3.257 0
M  V30 2576 H 241.909 -0.570734 -0.33935 0
M  V30 2577 H 244.439 -1.99377 -0.459324 0
M  V30 2578 H 244.449 -3.1168 -2.63286 0
M  V30 2579 H 243.124 -3.79511 -1.7013 0
M  V30 2580 H 241.701 -2.38332 -2.86797 0
M  V30 2581 N 243.887 0.651787 -1.4349 0
M  V30 2582 C 245.164 1.40909 -1.35661 0
M  V30 2583 C 245.544 2.11099 -0.00511733 0
M  V30 2584 O 244.892 2.04892 1.0115 0
M  V30 2585 C 245.102 2.3926 -2.54078 0
M  V30 2586 C 246.45 3.03217 -2.97228 0
M  V30 2587 O 247.474 2.49588 -2.54135 0
M  V30 2588 O 246.333 4.00455 -3.71885 0
M  V30 2589 H 243.427 0.629625 -0.536191 0
M  V30 2590 H 245.973 0.678575 -1.55542 0
M  V30 2591 H 244.745 1.86352 -3.44076 0
M  V30 2592 H 244.368 3.1976 -2.36303 0
M  V30 2593 N 245.365 1.30045 0.890287 0
M  V30 2594 C 246.611 1.18737 1.64406 0
M  V30 2595 C 246.944 -0.258525 1.92472 0
M  V30 2596 O 246.219 -1.18562 1.54186 0
M  V30 2597 C 246.502 2.01087 2.98724 0
M  V30 2598 C 246.355 3.53867 2.77665 0
M  V30 2599 C 247.674 1.84457 3.9958 0
M  V30 2600 H 244.793 0.432698 0.596608 0
M  V30 2601 H 247.435 1.5962 1.0306 0
M  V30 2602 H 245.585 1.66349 3.51084 0
M  V30 2603 H 247.257 3.98637 2.32133 0
M  V30 2604 H 245.5 3.78318 2.12269 0
M  V30 2605 H 246.171 4.06772 3.7315 0
M  V30 2606 H 248.647 2.14817 3.56361 0
M  V30 2607 H 247.523 2.44411 4.91482 0
M  V30 2608 H 247.784 0.802276 4.3476 0
M  V30 2609 N 246.843 -1.10192 1.12674 0
M  V30 2610 C 248.092 -1.81573 0.8783 0
M  V30 2611 C 248.405 -1.86249 -0.597557 0
M  V30 2612 O 249.611 -2.5386 -0.962681 0
M  V30 2613 C 248.067 -3.26149 1.52167 0
M  V30 2614 C 247.675 -3.29763 3.03249 0
M  V30 2615 C 249.419 -4.0234 1.3536 0
M  V30 2616 C 247.326 -4.68815 3.60508 0
M  V30 2617 H 246.256 -0.680394 0.324931 0
M  V30 2618 H 248.907 -1.23902 1.35353 0
M  V30 2619 H 247.289 -3.83832 0.974104 0
M  V30 2620 H 248.463 -2.8189 3.6452 0
M  V30 2621 H 246.778 -2.67059 3.19481 0
M  V30 2622 H 249.375 -5.05058 1.75559 0
M  V30 2623 H 249.718 -4.15235 0.297554 0
M  V30 2624 H 250.251 -3.51079 1.87052 0
M  V30 2625 H 246.99 -4.61121 4.65884 0
M  V30 2626 H 246.51 -5.17045 3.04014 0
M  V30 2627 H 248.189 -5.37785 3.59717 0
M  V30 2628 N 248.321 -0.919034 -1.28029 0
M  V30 2629 C 249.737 -0.617972 -1.4715 0
M  V30 2630 C 249.937 0.835242 -1.83374 0
M  V30 2631 O 248.993 1.61388 -1.94191 0
M  V30 2632 C 250.306 -1.56041 -2.57044 0
M  V30 2633 C 251.854 -1.56769 -2.7091 0
M  V30 2634 C 252.329 -2.49688 -3.83953 0
M  V30 2635 N 253.82 -2.47845 -3.91314 0
M  V30 2636 C 254.555 -3.16437 -4.78179 0
M  V30 2637 N 254.051 -3.94376 -5.69596 0
M  V30 2638 N 255.844 -3.05498 -4.71834 0
M  V30 2639 H 247.995 -1.85866 -1.02798 0
M  V30 2640 H 250.258 -0.797506 -0.512531 0
M  V30 2641 H 249.964 -2.59671 -2.372 0
M  V30 2642 H 249.838 -1.29551 -3.54255 0
M  V30 2643 H 252.225 -0.538745 -2.90141 0
M  V30 2644 H 252.306 -1.87305 -1.74214 0
M  V30 2645 H 251.95 -3.52688 -3.65477 0
M  V30 2646 H 251.88 -2.16453 -4.80058 0
M  V30 2647 H 254.371 -1.91234 -3.25941 0
M  V30 2648 H 254.684 -4.43721 -6.32718 0
M  V30 2649 H 253.029 -3.98481 -5.69419 0
M  V30 2650 H 256.22 -2.44108 -3.99411 0
M  V30 2651 H 256.393 -3.59225 -5.39316 0
M  V30 2652 N 249.799 1.42003 -0.683588 0
M  V30 2653 C 250.746 2.30798 -0.0107309 0
M  V30 2654 C 251.716 1.4645 0.783688 0
M  V30 2655 O 252.901 1.75263 0.754156 0
M  V30 2656 C 250.041 3.3238 0.928306 0
M  V30 2657 C 249.154 4.31814 0.126776 0
M  V30 2658 C 248.289 5.20468 1.06236 0
M  V30 2659 C 247.328 6.11577 0.253035 0
M  V30 2660 N 246.465 6.92754 1.14179 0
M  V30 2661 H 251.305 2.8778 -0.773727 0
M  V30 2662 H 248.842 1.41745 -0.393283 0
M  V30 2663 H 250.8 3.89813 1.48666 0
M  V30 2664 H 249.43 2.76976 1.65783 0
M  V30 2665 H 248.482 3.76427 -0.54833 0
M  V30 2666 H 249.794 4.96276 -0.501192 0
M  V30 2667 H 248.948 5.82677 1.69035 0
M  V30 2668 H 247.687 4.56204 1.7242 0
M  V30 2669 H 246.692 5.48428 -0.388108 0
M  V30 2670 H 247.917 6.77892 -0.404839 0
M  V30 2671 H 245.863 6.3111 1.78987 0
M  V30 2672 H 245.78 7.53855 0.569111 0
M  V30 2673 H 247.048 7.59441 1.75697 0
M  V30 2674 N 251.277 0.427512 1.51691 0
M  V30 2675 C 252.187 -0.39527 2.31246 0
M  V30 2676 C 253.203 -1.03674 1.39742 0
M  V30 2677 O 254.379 -1.03425 1.72816 0
M  V30 2678 C 251.444 -1.48706 3.13189 0
M  V30 2679 C 250.505 -0.866743 4.20459 0
M  V30 2680 C 249.738 -1.90651 4.98486 0
M  V30 2681 O 249.961 -3.12733 4.77026 0
M  V30 2682 O 248.895 -1.5025 5.82845 0
M  V30 2683 H 252.721 0.253918 3.02637 0
M  V30 2684 H 250.306 0.190274 1.48183 0
M  V30 2685 H 252.188 -2.12047 3.64162 0
M  V30 2686 H 250.863 -2.12051 2.44573 0
M  V30 2687 H 249.77 -0.195544 3.73589 0
M  V30 2688 H 251.103 -0.276934 4.9142 0
M  V30 2689 N 252.755 -1.56801 0.158532 0
M  V30 2690 C 253.985 -2.00568 -0.495583 0
M  V30 2691 C 254.393 -1.03774 -1.58201 0
M  V30 2692 O 253.736 -0.0285797 -1.83678 0
M  V30 2693 C 253.798 -3.40768 -1.14532 0
M  V30 2694 C 253.462 -4.56553 -0.202101 0
M  V30 2695 C 254.459 -5.16714 0.574675 0
M  V30 2696 C 252.144 -5.02197 -0.101648 0
M  V30 2697 C 254.138 -6.20939 1.43924 0
M  V30 2698 C 251.825 -6.06274 0.766508 0
M  V30 2699 C 252.823 -6.65515 1.53555 0
M  V30 2700 O 252.511 -7.67575 2.38922 0
M  V30 2701 H 252.243 -0.662893 -0.13247 0
M  V30 2702 H 254.797 -2.03829 0.253559 0
M  V30 2703 H 253.027 -3.34381 -1.94233 0
M  V30 2704 H 254.716 -3.6857 -1.70033 0
M  V30 2705 H 255.482 -4.82341 0.507167 0
M  V30 2706 H 251.361 -4.55807 -0.689994 0
M  V30 2707 H 254.905 -6.67107 2.03996 0
M  V30 2708 H 250.802 -6.40073 0.835266 0
M  V30 2709 H 251.57 -7.84844 2.32296 0
M  V30 2710 N 254.233 0.115231 -1.57178 0
M  V30 2711 C 255.481 0.820727 -1.84685 0
M  V30 2712 C 255.802 1.80237 -0.744279 0
M  V30 2713 O 255.072 1.94529 0.231375 0
M  V30 2714 H 253.652 0.306084 -0.681411 0
M  V30 2715 H 256.314 0.101656 -1.94635 0
M  V30 2716 H 255.41 1.36366 -2.80733 0
M  V30 2717 N 255.711 1.52812 0.385517 0
M  V30 2718 C 256.621 1.80766 1.49535 0
M  V30 2719 C 257.637 0.694651 1.59532 0
M  V30 2720 O 258.813 0.982611 1.75803 0
M  V30 2721 C 255.878 1.97381 2.85029 0
M  V30 2722 C 254.939 3.21295 2.84724 0
M  V30 2723 C 254.172 3.37108 4.13756 0
M  V30 2724 O 254.395 2.5765 5.08893 0
M  V30 2725 O 253.329 4.30378 4.20783 0
M  V30 2726 H 257.155 2.75015 1.28842 0
M  V30 2727 H 254.74 1.37946 0.573697 0
M  V30 2728 H 256.622 2.09996 3.65349 0
M  V30 2729 H 255.297 1.06322 3.05741 0
M  V30 2730 H 254.204 3.1412 2.03174 0
M  V30 2731 H 255.537 4.12212 2.68965 0
M  V30 2732 N 257.189 -0.644168 1.43834 0
M  V30 2733 C 258.119 -1.76814 1.52509 0
M  V30 2734 C 259.1 -1.65823 0.379052 0
M  V30 2735 O 260.285 -1.84781 0.597466 0
M  V30 2736 C 257.415 -3.15288 1.4564 0
M  V30 2737 C 256.369 -3.41053 2.58586 0
M  V30 2738 C 255.695 -4.79421 2.36769 0
M  V30 2739 C 256.995 -3.34902 4.00797 0
M  V30 2740 H 258.689 -1.69812 2.46586 0
M  V30 2741 H 256.235 -0.815542 1.1868 0
M  V30 2742 H 258.188 -3.93681 1.50311 0
M  V30 2743 H 256.912 -3.23043 0.480725 0
M  V30 2744 H 255.571 -2.65035 2.53282 0
M  V30 2745 H 255.219 -4.83863 1.37424 0
M  V30 2746 H 254.919 -4.9762 3.12487 0
M  V30 2747 H 256.443 -5.6006 2.43238 0
M  V30 2748 H 257.857 -4.03218 4.07539 0
M  V30 2749 H 256.254 -3.64637 4.76613 0
M  V30 2750 H 257.324 -2.32928 4.25291 0
M  V30 2751 N 258.668 -1.30515 -0.883378 0
M  V30 2752 C 259.898 -1.22182 -1.66599 0
M  V30 2753 C 260.306 0.217507 -1.87946 0
M  V30 2754 O 259.649 1.1554 -1.42815 0
M  V30 2755 C 259.711 -1.88146 -3.06335 0
M  V30 2756 C 259.375 -3.37476 -3.08154 0
M  V30 2757 C 260.372 -4.33443 -2.87094 0
M  V30 2758 C 258.057 -3.7895 -3.29701 0
M  V30 2759 C 260.051 -5.68858 -2.8754 0
M  V30 2760 C 257.738 -5.14482 -3.29776 0
M  V30 2761 C 258.736 -6.09246 -3.0872 0
M  V30 2762 O 258.424 -7.42302 -3.08615 0
M  V30 2763 H 258.156 -0.423898 -0.52658 0
M  V30 2764 H 260.71 -1.72703 -1.11188 0
M  V30 2765 H 258.94 -1.32157 -3.63416 0
M  V30 2766 H 260.629 -1.7391 -3.66756 0
M  V30 2767 H 261.395 -4.02733 -2.70243 0
M  V30 2768 H 257.274 -3.05631 -3.45124 0
M  V30 2769 H 260.818 -6.428 -2.71024 0
M  V30 2770 H 256.715 -5.44832 -3.46163 0
M  V30 2771 H 257.483 -7.5131 -3.24769 0
M  V30 2772 N 260.146 1.09593 -1.13257 0
M  V30 2773 C 261.374 1.855 -0.916378 0
M  V30 2774 C 261.789 1.81069 0.534738 0
M  V30 2775 O 261.146 1.20562 1.37007 0
M  V30 2776 C 261.197 3.33546 -1.39388 0
M  V30 2777 O 260.918 3.37927 -2.78813 0
M  V30 2778 C 262.419 4.26299 -1.21588 0
M  V30 2779 H 259.639 0.585991 -0.326887 0
M  V30 2780 H 262.183 1.38488 -1.5047 0
M  V30 2781 H 260.338 3.77992 -0.848597 0
M  V30 2782 H 260.752 4.30254 -2.9997 0
M  V30 2783 H 262.226 5.28341 -1.59876 0
M  V30 2784 H 262.703 4.38918 -0.157376 0
M  V30 2785 H 263.309 3.87668 -1.7491 0
M  V30 2786 N 261.624 0.925811 1.2754 0
M  V30 2787 C 262.587 0.428129 2.25166 0
M  V30 2788 C 263.587 -0.452261 1.54309 0
M  V30 2789 O 264.777 -0.253608 1.72344 0
M  V30 2790 C 261.909 -0.384749 3.38722 0
M  V30 2791 H 263.102 1.29066 2.70706 0
M  V30 2792 H 260.655 0.706323 1.3943 0
M  V30 2793 H 261.39 -1.26618 2.98561 0
M  V30 2794 H 261.175 0.246454 3.91325 0
M  V30 2795 H 262.665 -0.723389 4.11287 0
M  V30 2796 N 263.102 -1.41638 0.69111 0
M  V30 2797 C 264.349 -2.01299 0.220193 0
M  V30 2798 C 264.677 -1.54715 -1.17871 0
M  V30 2799 O 263.932 -0.747193 -1.80874 0
M  V30 2800 C 264.231 -3.56714 0.221277 0
M  V30 2801 C 263.897 -4.22792 1.56709 0
M  V30 2802 C 262.559 -4.40557 1.93554 0
M  V30 2803 C 264.911 -4.59883 2.45268 0
M  V30 2804 C 262.239 -4.92688 3.18552 0
M  V30 2805 C 264.591 -5.13403 3.69595 0
M  V30 2806 C 263.255 -5.29379 4.06589 0
M  V30 2807 H 262.525 -0.736606 0.0805743 0
M  V30 2808 H 265.172 -1.69598 0.889319 0
M  V30 2809 H 263.477 -3.8818 -0.531391 0
M  V30 2810 H 265.174 -4.00678 -0.160547 0
M  V30 2811 H 261.764 -4.09336 1.2705 0
M  V30 2812 H 265.948 -4.45817 2.18084 0
M  V30 2813 H 261.204 -5.03242 3.47214 0
M  V30 2814 H 265.378 -5.41084 4.38407 0
M  V30 2815 H 263.005 -5.69537 5.03519 0
M  V30 2816 N 264.58 -0.43555 -1.51462 0
M  V30 2817 C 265.543 0.365137 -2.26273 0
M  V30 2818 C 266.543 0.951227 -1.29647 0
M  V30 2819 O 267.733 0.825958 -1.53374 0
M  V30 2820 C 264.865 1.51645 -3.05314 0
M  V30 2821 H 266.058 -0.290474 -2.9849 0
M  V30 2822 H 263.611 -0.188676 -1.55157 0
M  V30 2823 H 264.346 2.20816 -2.3751 0
M  V30 2824 H 264.131 1.10238 -3.76284 0
M  V30 2825 H 265.621 2.08218 -3.61987 0
M  V30 2826 N 266.058 1.56714 -0.166846 0
M  V30 2827 C 267.021 2.16539 0.751232 0
M  V30 2828 C 268.021 1.11228 1.16125 0
M  V30 2829 O 269.211 1.36765 1.07894 0
M  V30 2830 C 266.343 2.74462 2.02196 0
M  V30 2831 H 267.536 2.99013 0.230499 0
M  V30 2832 H 265.089 1.56081 0.0826982 0
M  V30 2833 H 265.824 1.95709 2.58589 0
M  V30 2834 H 265.609 3.51527 1.73698 0
M  V30 2835 H 267.099 3.20489 2.67725 0
M  V30 2836 N 267.536 -0.106894 1.57237 0
M  V30 2837 C 268.499 -1.11466 2.0027 0
M  V30 2838 C 269.499 -1.33623 0.894519 0
M  V30 2839 O 270.689 -1.29935 1.16028 0
M  V30 2840 C 267.821 -2.46646 2.35327 0
M  V30 2841 H 269.014 -0.744516 2.90512 0
M  V30 2842 H 266.567 -0.351576 1.52295 0
M  V30 2843 H 267.302 -2.88558 1.48003 0
M  V30 2844 H 267.087 -2.31915 3.16161 0
M  V30 2845 H 268.577 -3.19151 2.69318 0
M  V30 2846 N 269.014 -1.53014 -0.377408 0
M  V30 2847 C 269.947 -1.73382 -1.48371 0
M  V30 2848 C 270.925 -0.581879 -1.51832 0
M  V30 2849 O 272.109 -0.81307 -1.70063 0
M  V30 2850 C 269.236 -1.80192 -2.8679 0
M  V30 2851 C 268.282 -3.02056 -3.01105 0
M  V30 2852 S 269.115 -4.61811 -2.71093 0
M  V30 2853 C 270.271 -4.71453 -4.11683 0
M  V30 2854 H 270.504 -2.66946 -1.30872 0
M  V30 2855 H 268.037 -1.43453 -0.571012 0
M  V30 2856 H 269.995 -1.84802 -3.6655 0
M  V30 2857 H 268.656 -0.877008 -3.01608 0
M  V30 2858 H 267.849 -3.03396 -4.02451 0
M  V30 2859 H 267.451 -2.95498 -2.29253 0
M  V30 2860 H 269.743 -4.50781 -5.0577 0
M  V30 2861 H 270.686 -5.73487 -4.15353 0
M  V30 2862 H 271.094 -4.00189 -3.98132 0
M  V30 2863 N 270.492 0.636531 -1.44174 0
M  V30 2864 C 271.439 1.74875 -1.50624 0
M  V30 2865 C 272.409 1.62275 -0.35442 0
M  V30 2866 O 273.594 1.82276 -0.563908 0
M  V30 2867 C 270.734 3.13102 -1.45125 0
M  V30 2868 C 269.847 3.36717 -2.7064 0
M  V30 2869 C 268.982 4.64885 -2.57013 0
M  V30 2870 C 268.021 4.8166 -3.77717 0
M  V30 2871 N 267.158 6.01101 -3.62798 0
M  V30 2872 H 271.998 1.68697 -2.45653 0
M  V30 2873 H 269.535 0.823004 -1.21922 0
M  V30 2874 H 271.493 3.93034 -1.39929 0
M  V30 2875 H 270.123 3.18308 -0.536671 0
M  V30 2876 H 269.175 2.50763 -2.86046 0
M  V30 2877 H 270.487 3.44993 -3.60252 0
M  V30 2878 H 269.641 5.52969 -2.49619 0
M  V30 2879 H 268.38 4.58957 -1.64953 0
M  V30 2880 H 267.385 3.92007 -3.85501 0
M  V30 2881 H 268.61 4.89406 -4.70807 0
M  V30 2882 H 266.556 5.96273 -2.73486 0
M  V30 2883 H 266.473 6.10409 -4.46023 0
M  V30 2884 H 267.741 6.91761 -3.59286 0
M  V30 2885 N 271.97 1.30982 0.876444 0
M  V30 2886 C 273.381 1.18277 1.44456 0
M  V30 2887 C 273.732 -0.213265 1.95037 0
M  V30 2888 O 272.857 -1.11057 1.85729 0
M  V30 2889 C 273.452 2.1411 2.62569 0
M  V30 2890 C 272.011 2.05358 3.15444 0
M  V30 2891 C 271.158 2.03706 1.88146 0
M  V30 2892 H 274.109 1.43127 0.685584 0
M  V30 2893 H 274.13 1.72692 3.39054 0
M  V30 2894 H 273.642 3.15706 2.25724 0
M  V30 2895 H 271.743 1.06934 3.56926 0
M  V30 2896 H 271.856 2.94156 3.78166 0
M  V30 2897 H 270.22 1.48629 2.06837 0
M  V30 2898 H 271.003 3.07047 1.53547 0
M  V30 2899 N 273.449 -1.08991 1.13837 0
M  V30 2900 C 274.679 -1.84743 0.924859 0
M  V30 2901 C 275.087 -1.81629 -0.529874 0
M  V30 2902 O 274.43 -1.21397 -1.37872 0
M  V30 2903 C 274.492 -3.33568 1.34061 0
M  V30 2904 C 274.156 -3.60425 2.80968 0
M  V30 2905 C 275.153 -3.55771 3.79108 0
M  V30 2906 C 272.838 -3.88627 3.18236 0
M  V30 2907 C 274.832 -3.78939 5.12527 0
M  V30 2908 C 272.519 -4.11449 4.51833 0
M  V30 2909 C 273.517 -4.06598 5.48787 0
M  V30 2910 O 273.205 -4.28826 6.79973 0
M  V30 2911 H 272.937 -0.590258 0.329502 0
M  V30 2912 H 275.491 -1.38598 1.51591 0
M  V30 2913 H 273.721 -3.80442 0.692853 0
M  V30 2914 H 275.41 -3.90743 1.09886 0
M  V30 2915 H 276.176 -3.34005 3.51661 0
M  V30 2916 H 272.055 -3.91526 2.43369 0
M  V30 2917 H 275.599 -3.75068 5.88192 0
M  V30 2918 H 271.496 -4.32698 4.79002 0
M  V30 2919 H 272.264 -4.46264 6.86142 0
M  V30 2920 N 274.927 -0.932562 -1.27047 0
M  V30 2921 C 275.874 -0.434072 -2.26681 0
M  V30 2922 C 276.844 0.501639 -1.58344 0
M  V30 2923 O 278.029 0.419734 -1.86126 0
M  V30 2924 C 275.169 0.30261 -3.43771 0
M  V30 2925 C 274.282 -0.667774 -4.26808 0
M  V30 2926 C 273.417 0.0892393 -5.31125 0
M  V30 2927 C 272.456 -0.873532 -6.05835 0
M  V30 2928 N 271.593 -0.148832 -7.01942 0
M  V30 2929 H 276.433 -1.28868 -2.68695 0
M  V30 2930 H 273.97 -0.646713 -1.32121 0
M  V30 2931 H 275.928 0.746092 -4.10474 0
M  V30 2932 H 274.558 1.12142 -3.02695 0
M  V30 2933 H 273.61 -1.22978 -3.59973 0
M  V30 2934 H 274.922 -1.40337 -4.78651 0
M  V30 2935 H 274.076 0.592409 -6.03801 0
M  V30 2936 H 272.815 0.85777 -4.80097 0
M  V30 2937 H 271.82 -1.38791 -5.31994 0
M  V30 2938 H 273.045 -1.64193 -6.58952 0
M  V30 2939 H 270.991 0.601365 -6.53238 0
M  V30 2940 H 270.908 -0.82391 -7.51497 0
M  V30 2941 H 272.176 0.333527 -7.78786 0
M  V30 2942 N 276.405 1.4127 -0.698611 0
M  V30 2943 C 277.682 1.94955 -0.158762 0
M  V30 2944 C 278.062 1.63781 1.33188 0
M  V30 2945 O 277.41 0.946423 2.07979 0
M  V30 2946 C 277.62 3.46044 -0.453309 0
M  V30 2947 C 278.968 4.22872 -0.382707 0
M  V30 2948 O 279.992 3.54076 -0.388396 0
M  V30 2949 O 278.851 5.45407 -0.345463 0
M  V30 2950 H 275.945 0.82683 -0.0167505 0
M  V30 2951 H 278.491 1.50971 -0.77498 0
M  V30 2952 H 277.263 3.62028 -1.48498 0
M  V30 2953 H 276.886 3.97128 0.19373 0
M  V30 2954 N 277.883 0.443576 1.51229 0
M  V30 2955 C 279.129 -0.120975 2.02439 0
M  V30 2956 C 279.462 -1.41815 1.32674 0
M  V30 2957 O 278.737 -1.89373 0.443622 0
M  V30 2958 C 279.02 -0.333291 3.58554 0
M  V30 2959 C 278.873 0.982968 4.38928 0
M  V30 2960 C 280.192 -1.10028 4.26124 0
M  V30 2961 H 277.311 -0.0424923 0.735774 0
M  V30 2962 H 279.953 0.583794 1.80809 0
M  V30 2963 H 278.103 -0.933614 3.77115 0
M  V30 2964 H 279.775 1.61775 4.32003 0
M  V30 2965 H 278.018 1.58611 4.03763 0
M  V30 2966 H 278.689 0.788379 5.46341 0
M  V30 2967 H 281.165 -0.591711 4.11871 0
M  V30 2968 H 280.041 -1.21761 5.35225 0
M  V30 2969 H 280.302 -2.12996 3.87408 0
M  V30 2970 N 279.361 -1.56624 0.175154 0
M  V30 2971 C 280.61 -1.96173 -0.468921 0
M  V30 2972 C 280.923 -1.06401 -1.64128 0
M  V30 2973 O 282.129 -1.35648 -2.35185 0
M  V30 2974 C 280.585 -3.48833 -0.885633 0
M  V30 2975 C 280.193 -4.47237 0.261343 0
M  V30 2976 C 281.937 -3.97194 -1.49791 0
M  V30 2977 C 279.844 -5.9114 -0.175214 0
M  V30 2978 H 278.774 -0.732455 -0.178958 0
M  V30 2979 H 281.425 -1.81591 0.263997 0
M  V30 2980 H 279.807 -3.58848 -1.67464 0
M  V30 2981 H 280.981 -4.4894 1.03871 0
M  V30 2982 H 279.296 -4.08956 0.783827 0
M  V30 2983 H 281.893 -5.02167 -1.83665 0
M  V30 2984 H 282.236 -3.40351 -2.39722 0
M  V30 2985 H 282.769 -3.90212 -0.773267 0
M  V30 2986 H 279.508 -6.51865 0.689414 0
M  V30 2987 H 279.028 -5.92735 -0.91786 0
M  V30 2988 H 280.707 -6.44044 -0.617792 0
M  V30 2989 N 280.839 0.0985539 -1.57292 0
M  V30 2990 C 281.802 1.10402 -2.00858 0
M  V30 2991 C 282.802 1.33146 -0.901593 0
M  V30 2992 O 283.992 1.29318 -1.16716 0
M  V30 2993 C 281.124 2.45394 -2.36632 0
M  V30 2994 H 282.317 0.729099 -2.90902 0
M  V30 2995 H 279.87 0.343495 -1.52479 0
M  V30 2996 H 280.605 2.87769 -1.49531 0
M  V30 2997 H 280.39 2.30235 -3.17387 0
M  V30 2998 H 281.88 3.17718 -2.71007 0
M  V30 2999 N 282.317 1.53212 0.369288 0
M  V30 3000 C 283.264 1.79388 1.45219 0
M  V30 3001 C 284.234 0.638059 1.53356 0
M  V30 3002 O 285.419 0.879852 1.69302 0
M  V30 3003 C 282.559 1.98623 2.82211 0
M  V30 3004 C 281.672 3.26337 2.8307 0
M  V30 3005 C 280.807 3.35779 4.11614 0
M  V30 3006 C 279.846 4.5754 4.06601 0
M  V30 3007 N 278.983 4.64155 5.26787 0
M  V30 3008 H 283.823 2.71794 1.22198 0
M  V30 3009 H 281.36 1.34642 0.592444 0
M  V30 3010 H 283.318 2.07761 3.61789 0
M  V30 3011 H 281.948 1.09558 3.03639 0
M  V30 3012 H 281 3.26171 1.95747 0
M  V30 3013 H 282.312 4.15988 2.75237 0
M  V30 3014 H 281.466 3.44208 4.99606 0
M  V30 3015 H 280.205 2.44137 4.22195 0
M  V30 3016 H 279.21 4.49215 3.16996 0
M  V30 3017 H 280.435 5.50519 3.97625 0
M  V30 3018 H 278.381 3.75413 5.3796 0
M  V30 3019 H 278.298 5.47706 5.21109 0
M  V30 3020 H 279.566 4.76863 6.16621 0
M  V30 3021 N 283.795 -0.628877 1.44509 0
M  V30 3022 C 285.044 -1.38437 1.4669 0
M  V30 3023 C 285.357 -1.95322 0.104272 0
M  V30 3024 O 286.563 -2.715 0.00362163 0
M  V30 3025 C 285.019 -2.50659 2.5826 0
M  V30 3026 C 284.627 -2.00277 4.0074 0
M  V30 3027 C 286.371 -3.27844 2.69664 0
M  V30 3028 C 284.278 -3.09854 5.0373 0
M  V30 3029 H 283.208 -0.520245 0.545766 0
M  V30 3030 H 285.859 -0.676313 1.70582 0
M  V30 3031 H 284.241 -3.2405 2.27612 0
M  V30 3032 H 285.415 -1.33736 4.40966 0
M  V30 3033 H 283.73 -1.35901 3.93599 0
M  V30 3034 H 286.327 -4.09534 3.43781 0
M  V30 3035 H 286.67 -3.77471 1.75559 0
M  V30 3036 H 287.203 -2.61543 2.99733 0
M  V30 3037 H 283.942 -2.65168 5.99472 0
M  V30 3038 H 283.462 -3.7503 4.68095 0
M  V30 3039 H 285.141 -3.74592 5.27532 0
M  V30 3040 N 285.273 -1.31445 -0.869486 0
M  V30 3041 C 286.503 -1.23942 -1.65294 0
M  V30 3042 C 286.911 0.197561 -1.88166 0
M  V30 3043 O 286.254 1.14019 -1.44033 0
M  V30 3044 C 286.316 -1.91385 -3.04322 0
M  V30 3045 C 285.98 -3.40726 -3.04557 0
M  V30 3046 C 286.977 -4.36464 -2.82481 0
M  V30 3047 C 284.662 -3.82425 -3.25663 0
M  V30 3048 C 286.656 -5.71876 -2.8149 0
M  V30 3049 C 284.343 -5.1795 -3.243 0
M  V30 3050 C 285.341 -6.12486 -3.02241 0
M  V30 3051 O 285.029 -7.45534 -3.00724 0
M  V30 3052 H 284.761 -0.429459 -0.522054 0
M  V30 3053 H 287.315 -1.73873 -1.0935 0
M  V30 3054 H 285.545 -1.36004 -3.61994 0
M  V30 3055 H 287.234 -1.77791 -3.64891 0
M  V30 3056 H 288 -4.05576 -2.65956 0
M  V30 3057 H 283.879 -3.09274 -3.41863 0
M  V30 3058 H 287.423 -6.45638 -2.64191 0
M  V30 3059 H 283.32 -5.48473 -3.40365 0
M  V30 3060 H 284.088 -7.54713 -3.16782 0
M  V30 3061 N 286.751 1.08385 -1.14413 0
M  V30 3062 C 287.681 2.17321 -0.854044 0
M  V30 3063 C 288.662 1.69024 0.191049 0
M  V30 3064 O 289.847 1.94141 0.0476779 0
M  V30 3065 C 286.977 3.45719 -0.330983 0
M  V30 3066 C 285.931 4.07409 -1.31155 0
M  V30 3067 C 285.257 5.30762 -0.64778 0
M  V30 3068 C 286.557 4.48665 -2.67388 0
M  V30 3069 H 288.251 2.41845 -1.76498 0
M  V30 3070 H 285.797 1.16233 -0.850051 0
M  V30 3071 H 287.75 4.21241 -0.115645 0
M  V30 3072 H 286.474 3.2075 0.615381 0
M  V30 3073 H 285.133 3.33919 -1.51306 0
M  V30 3074 H 284.781 5.02078 0.304398 0
M  V30 3075 H 284.481 5.72992 -1.30207 0
M  V30 3076 H 286.005 6.08998 -0.441972 0
M  V30 3077 H 287.419 5.15364 -2.51143 0
M  V30 3078 H 285.816 5.01814 -3.29093 0
M  V30 3079 H 286.886 3.60543 -3.24248 0
M  V30 3080 N 288.23 0.939286 1.26551 0
M  V30 3081 C 289.455 0.602008 1.98471 0
M  V30 3082 C 289.88 -0.815624 1.69497 0
M  V30 3083 O 289.238 -1.54912 0.941905 0
M  V30 3084 C 289.286 0.848407 3.50477 0
M  V30 3085 O 288.39 -0.0804009 4.12322 0
M  V30 3086 H 287.731 0.23049 0.622712 0
M  V30 3087 H 290.261 1.2617 1.61066 0
M  V30 3088 H 290.271 0.768553 4.00696 0
M  V30 3089 H 288.946 1.88171 3.70897 0
M  V30 3090 H 287.523 0.0503508 3.72866 0
M  V30 3091 N 289.708 -1.40897 0.706093 0
M  V30 3092 C 290.956 -2.00657 0.241054 0
M  V30 3093 C 291.277 -1.56241 -1.16678 0
M  V30 3094 O 290.547 -0.79765 -1.78926 0
M  V30 3095 H 289.127 -0.742018 0.0861308 0
M  V30 3096 H 291.789 -1.72372 0.909604 0
M  V30 3097 H 290.885 -3.10958 0.266705 0
M  V30 3098 N 291.186 -0.45159 -1.50991 0
M  V30 3099 C 292.434 0.109857 -2.01801 0
M  V30 3100 C 292.755 1.41958 -1.3369 0
M  V30 3101 O 292.025 1.9003 -0.475951 0
M  V30 3102 H 290.605 0.0435884 -0.745727 0
M  V30 3103 H 293.267 -0.597557 -1.85514 0
M  V30 3104 H 292.363 0.275489 -3.10882 0
M  V30 3105 N 292.664 1.56529 -0.183458 0
M  V30 3106 C 294.075 1.83739 0.331177 0
M  V30 3107 C 294.426 1.10373 1.62211 0
M  V30 3108 O 293.551 0.36071 2.13373 0
M  V30 3109 C 294.146 3.33306 0.607646 0
M  V30 3110 C 292.705 3.60969 1.06668 0
M  V30 3111 C 291.852 2.77086 0.109029 0
M  V30 3112 H 294.803 1.53379 -0.407484 0
M  V30 3113 H 294.824 3.51444 1.45832 0
M  V30 3114 H 294.336 3.86677 -0.332086 0
M  V30 3115 H 292.437 3.13021 2.0211 0
M  V30 3116 H 292.55 4.69231 0.967447 0
M  V30 3117 H 290.914 2.47319 0.608714 0
M  V30 3118 H 291.697 3.33241 -0.82494 0
M  V30 3119 N 294.142 -0.090211 1.57342 0
M  V30 3120 C 295.105 -1.09335 2.01441 0
M  V30 3121 C 296.105 -1.32666 0.908641 0
M  V30 3122 O 297.295 -1.28697 1.174 0
M  V30 3123 C 294.427 -2.44136 2.3793 0
M  V30 3124 H 295.62 -0.713662 2.91285 0
M  V30 3125 H 293.173 -0.335404 1.52659 0
M  V30 3126 H 293.908 -2.86972 1.51055 0
M  V30 3127 H 293.693 -2.28548 3.18603 0
M  V30 3128 H 295.183 -3.16277 2.72688 0
M  V30 3129 N 295.62 -1.53406 -0.361157 0
M  V30 3130 C 296.868 -1.69467 -1.10115 0
M  V30 3131 C 297.189 -0.451352 -1.89705 0
M  V30 3132 O 296.459 0.534636 -1.88463 0
M  V30 3133 H 295.039 -0.624749 -0.409508 0
M  V30 3134 H 297.701 -1.90609 -0.406699 0
M  V30 3135 H 296.797 -2.55774 -1.78847 0
M  V30 3136 N 297.098 0.621204 -1.44841 0
M  V30 3137 C 298.008 1.7612 -1.5498 0
M  V30 3138 C 299.024 1.68477 -0.434927 0
M  V30 3139 O 300.2 1.89076 -0.693693 0
M  V30 3140 C 297.265 3.1254 -1.50065 0
M  V30 3141 C 296.326 3.31741 -2.72482 0
M  V30 3142 C 295.559 4.61653 -2.67792 0
M  V30 3143 O 295.782 5.431 -1.74352 0
M  V30 3144 O 294.716 4.83271 -3.58794 0
M  V30 3145 H 298.542 1.70518 -2.51311 0
M  V30 3146 H 296.127 0.783643 -1.27198 0
M  V30 3147 H 298.009 3.93844 -1.49882 0
M  V30 3148 H 296.684 3.18663 -0.568806 0
M  V30 3149 H 295.591 2.50077 -2.7823 0
M  V30 3150 H 296.924 3.30486 -3.64746 0
M  V30 3151 N 298.576 1.31904 0.862503 0
M  V30 3152 C 299.506 1.22782 1.98612 0
M  V30 3153 C 300.487 0.113362 1.69722 0
M  V30 3154 O 301.672 0.299218 1.91881 0
M  V30 3155 C 298.802 0.942058 3.34279 0
M  V30 3156 C 297.756 2.0169 3.77499 0
M  V30 3157 C 297.082 1.58369 5.10709 0
M  V30 3158 C 298.382 3.43096 3.93805 0
M  V30 3159 H 300.076 2.16788 2.06502 0
M  V30 3160 H 297.622 1.04366 0.992154 0
M  V30 3161 H 299.575 0.864818 4.1243 0
M  V30 3162 H 298.299 -0.0336603 3.26583 0
M  V30 3163 H 296.958 2.08416 3.01593 0
M  V30 3164 H 296.606 0.595628 4.99461 0
M  V30 3165 H 296.306 2.30279 5.40597 0
M  V30 3166 H 297.83 1.52067 5.91361 0
M  V30 3167 H 299.244 3.39003 4.62331 0
M  V30 3168 H 297.641 4.13288 4.35101 0
M  V30 3169 H 298.711 3.83334 2.96957 0
M  V30 3170 N 300.054 -1.07777 1.14986 0
M  V30 3171 C 301.47 -1.32373 0.891596 0
M  V30 3172 C 301.67 -1.9609 -0.463788 0
M  V30 3173 O 300.726 -2.21801 -1.20667 0
M  V30 3174 C 302.039 -2.21905 2.02925 0
M  V30 3175 C 303.587 -2.35367 2.06329 0
M  V30 3176 C 304.062 -3.28245 3.19405 0
M  V30 3177 N 305.553 -3.35824 3.19024 0
M  V30 3178 C 306.288 -4.07739 4.03158 0
M  V30 3179 N 305.784 -4.82306 4.97346 0
M  V30 3180 N 307.577 -4.03635 3.91197 0
M  V30 3181 H 299.728 -0.648039 2.02273 0
M  V30 3182 H 301.991 -0.348149 0.881757 0
M  V30 3183 H 301.697 -1.82342 3.0074 0
M  V30 3184 H 301.571 -3.22407 1.95789 0
M  V30 3185 H 303.958 -2.74186 1.09116 0
M  V30 3186 H 304.039 -1.34585 2.17533 0
M  V30 3187 H 303.683 -2.90146 4.16867 0
M  V30 3188 H 303.613 -4.28971 3.05437 0
M  V30 3189 H 306.104 -2.8267 2.50811 0
M  V30 3190 H 306.417 -5.34661 5.57994 0
M  V30 3191 H 304.762 -4.81337 5.01338 0
M  V30 3192 H 307.953 -3.44491 3.16928 0
M  V30 3193 H 308.126 -4.59417 4.5699 0
M  V30 3194 N 301.532 -0.945985 -1.26051 0
M  V30 3195 C 302.762 -0.612136 -1.97323 0
M  V30 3196 C 303.17 0.818171 -1.70595 0
M  V30 3197 O 302.513 1.55777 -0.973613 0
M  V30 3198 C 302.575 -0.780347 -3.50929 0
M  V30 3199 C 302.239 -2.18619 -4.01317 0
M  V30 3200 C 303.236 -3.16209 -4.12683 0
M  V30 3201 C 300.921 -2.50805 -4.35203 0
M  V30 3202 C 302.915 -4.44085 -4.57238 0
M  V30 3203 C 300.602 -3.78912 -4.79446 0
M  V30 3204 C 301.6 -4.75365 -4.90425 0
M  V30 3205 O 301.288 -6.01191 -5.3369 0
M  V30 3206 H 301.02 -0.229134 -0.635982 0
M  V30 3207 H 303.574 -1.27036 -1.61404 0
M  V30 3208 H 301.804 -0.0649864 -3.86645 0
M  V30 3209 H 303.493 -0.448842 -4.03411 0
M  V30 3210 H 304.259 -2.92668 -3.86744 0
M  V30 3211 H 300.138 -1.76463 -4.2589 0
M  V30 3212 H 303.682 -5.19373 -4.65723 0
M  V30 3213 H 299.579 -4.02265 -5.0483 0
M  V30 3214 H 300.347 -6.04442 -5.51899 0
M  V30 3215 N 303.011 1.40521 -0.713556 0
M  V30 3216 C 304.422 1.83853 -0.324807 0
M  V30 3217 C 304.773 1.59667 1.14021 0
M  V30 3218 O 303.898 1.07649 1.87725 0
M  V30 3219 C 304.493 3.33751 -0.582746 0
M  V30 3220 C 303.052 3.75584 -0.247727 0
M  V30 3221 C 302.199 2.63753 -0.856121 0
M  V30 3222 H 305.15 1.29817 -0.91286 0
M  V30 3223 H 305.171 3.80194 0.152682 0
M  V30 3224 H 304.683 3.51322 -1.64908 0
M  V30 3225 H 302.784 3.63608 0.813624 0
M  V30 3226 H 302.897 4.7373 -0.715307 0
M  V30 3227 H 301.261 2.53108 -0.28432 0
M  V30 3228 H 302.044 2.84137 -1.92668 0
M  V30 3229 N 304.489 0.459591 1.5075 0
M  V30 3230 C 305.714 -0.0996819 2.0716 0
M  V30 3231 C 306.139 -1.33761 1.32249 0
M  V30 3232 O 305.497 -1.77551 0.366786 0
M  V30 3233 C 305.545 -0.378226 3.58611 0
M  V30 3234 O 304.649 -1.46081 3.85661 0
M  V30 3235 H 303.99 0.00791392 0.663953 0
M  V30 3236 H 306.52 0.647329 1.9409 0
M  V30 3237 H 306.53 -0.622135 4.03229 0
M  V30 3238 H 305.205 0.526439 4.12555 0
M  V30 3239 H 303.782 -1.20511 3.5289 0
M  V30 3240 N 305.967 -1.56429 0.191757 0
M  V30 3241 C 307.197 -2.01574 -0.452928 0
M  V30 3242 C 307.605 -1.07107 -1.55964 0
M  V30 3243 O 306.948 -0.067534 -1.83576 0
M  V30 3244 C 307.01 -3.43121 -1.07278 0
M  V30 3245 C 306.674 -4.56879 -0.105214 0
M  V30 3246 C 307.671 -5.15379 0.684149 0
M  V30 3247 C 305.356 -5.023 0.00489824 0
M  V30 3248 C 307.35 -6.17746 1.57062 0
M  V30 3249 C 305.037 -6.04511 0.894935 0
M  V30 3250 C 306.035 -6.62108 1.67637 0
M  V30 3251 O 305.723 -7.62335 2.55149 0
M  V30 3252 H 305.455 -0.665554 -0.118379 0
M  V30 3253 H 308.009 -2.03245 0.296737 0
M  V30 3254 H 306.239 -3.38425 -1.87097 0
M  V30 3255 H 307.928 -3.72093 -1.62177 0
M  V30 3256 H 308.694 -4.81157 0.609365 0
M  V30 3257 H 304.573 -4.57168 -0.593156 0
M  V30 3258 H 308.117 -6.6263 2.181 0
M  V30 3259 H 304.014 -6.38157 0.970847 0
M  V30 3260 H 304.782 -7.79741 2.48892 0
M  V30 3261 N 307.445 0.0818655 -1.57387 0
M  V30 3262 C 308.673 0.796108 -1.9097 0
M  V30 3263 C 309.088 1.71626 -0.786757 0
M  V30 3264 O 308.445 1.80908 0.240513 0
M  V30 3265 C 308.496 1.59829 -3.24248 0
M  V30 3266 O 308.217 0.715131 -4.32224 0
M  V30 3267 C 309.718 2.41442 -3.7178 0
M  V30 3268 H 306.938 0.22691 -0.631469 0
M  V30 3269 H 309.482 0.0551439 -2.04426 0
M  V30 3270 H 307.637 2.29163 -3.12351 0
M  V30 3271 H 308.051 1.27205 -5.08841 0
M  V30 3272 H 309.525 2.932 -4.67694 0
M  V30 3273 H 310.002 3.2051 -3.00283 0
M  V30 3274 H 310.608 1.77283 -3.86589 0
M  V30 3275 N 308.923 1.53595 0.353017 0
M  V30 3276 C 310.151 1.74311 1.1146 0
M  V30 3277 C 310.566 0.477854 1.82653 0
M  V30 3278 O 309.923 -0.549977 1.74016 0
M  V30 3279 C 309.974 2.91694 2.13534 0
M  V30 3280 O 309.695 4.13325 1.45238 0
M  V30 3281 C 311.196 3.24384 3.02142 0
M  V30 3282 H 308.416 0.582669 0.332773 0
M  V30 3283 H 310.96 2.00386 0.408107 0
M  V30 3284 H 309.115 2.67977 2.79763 0
M  V30 3285 H 309.529 4.79148 2.13349 0
M  V30 3286 H 311.003 4.09893 3.69718 0
M  V30 3287 H 311.48 2.40282 3.67643 0
M  V30 3288 H 312.086 3.50073 2.41514 0
M  V30 3289 N 310.401 -0.613514 1.45168 0
M  V30 3290 C 311.626 -1.40437 1.52618 0
M  V30 3291 C 312.051 -1.87438 0.157707 0
M  V30 3292 O 311.409 -1.59791 -0.856537 0
M  V30 3293 C 311.457 -2.58894 2.51011 0
M  V30 3294 O 310.561 -3.59326 2.02382 0
M  V30 3295 H 309.902 -0.419506 0.514695 0
M  V30 3296 H 312.432 -0.747215 1.90467 0
M  V30 3297 H 312.442 -3.06214 2.69624 0
M  V30 3298 H 311.117 -2.24032 3.50403 0
M  V30 3299 H 309.694 -3.18695 1.93618 0
M  V30 3300 N 311.879 -1.3236 -0.855495 0
M  V30 3301 C 313.156 -1.13491 -1.59309 0
M  V30 3302 C 313.536 0.30503 -2.08885 0
M  V30 3303 O 312.884 1.30151 -1.87811 0
M  V30 3304 C 313.094 -2.16176 -2.73987 0
M  V30 3305 C 314.442 -2.49463 -3.43589 0
M  V30 3306 O 315.466 -2.14715 -2.84211 0
M  V30 3307 O 314.325 -3.09027 -4.50738 0
M  V30 3308 H 311.419 -0.437887 -0.701559 0
M  V30 3309 H 313.965 -1.43887 -0.899696 0
M  V30 3310 H 312.737 -3.1297 -2.34873 0
M  V30 3311 H 312.36 -1.86769 -3.51003 0
M  V30 3312 N 313.357 1.07166 -1.15556 0
M  V30 3313 C 314.605 1.79443 -0.929764 0
M  V30 3314 C 314.926 1.87246 0.544414 0
M  V30 3315 O 314.196 1.37473 1.39564 0
M  V30 3316 H 312.776 0.664625 -0.341003 0
M  V30 3317 H 315.438 1.29499 -1.45657 0
M  V30 3318 H 314.534 2.81832 -1.34079 0
M  V30 3319 N 314.835 0.952656 1.25548 0
M  V30 3320 C 316.063 0.623496 1.97282 0
M  V30 3321 C 316.478 -0.803987 1.70826 0
M  V30 3322 O 315.835 -1.53755 0.983147 0
M  V30 3323 C 315.886 0.870209 3.5087 0
M  V30 3324 O 315.607 2.24156 3.76412 0
M  V30 3325 C 317.108 0.553164 4.39835 0
M  V30 3326 H 314.328 0.233931 0.628902 0
M  V30 3327 H 316.872 1.27649 1.59768 0
M  V30 3328 H 315.027 0.263652 3.86502 0
M  V30 3329 H 315.441 2.31021 4.70882 0
M  V30 3330 H 316.915 0.776342 5.46513 0
M  V30 3331 H 317.392 -0.512215 4.36203 0
M  V30 3332 H 317.998 1.13896 4.09766 0
M  V30 3333 N 316.313 -1.40141 0.720998 0
M  V30 3334 C 317.561 -2.0039 0.262323 0
M  V30 3335 C 317.882 -1.57469 -1.15015 0
M  V30 3336 O 317.152 -0.816582 -1.78069 0
M  V30 3337 H 315.732 -0.741063 0.093996 0
M  V30 3338 H 318.394 -1.71398 0.927835 0
M  V30 3339 H 317.49 -3.10658 0.299671 0
M  V30 3340 N 317.792 -0.46758 -1.50504 0
M  V30 3341 C 319.022 0.086288 -2.0642 0
M  V30 3342 C 319.43 1.34369 -1.33197 0
M  V30 3343 O 318.773 1.79431 -0.393747 0
M  V30 3344 C 318.835 0.443846 -3.5675 0
M  V30 3345 C 318.499 -0.711035 -4.51435 0
M  V30 3346 C 319.496 -1.59205 -4.94924 0
M  V30 3347 C 317.181 -0.900363 -4.94165 0
M  V30 3348 C 319.175 -2.64683 -5.79846 0
M  V30 3349 C 316.862 -1.95837 -5.7887 0
M  V30 3350 C 317.86 -2.82997 -6.21612 0
M  V30 3351 O 317.548 -3.86977 -7.0463 0
M  V30 3352 H 317.28 -0.00217814 -0.675996 0
M  V30 3353 H 319.834 -0.654346 -1.94698 0
M  V30 3354 H 318.064 1.23762 -3.6636 0
M  V30 3355 H 319.753 0.932386 -3.95046 0
M  V30 3356 H 320.519 -1.45745 -4.62583 0
M  V30 3357 H 316.398 -0.231427 -4.60419 0
M  V30 3358 H 319.942 -3.32745 -6.13128 0
M  V30 3359 H 315.839 -2.09305 -6.10624 0
M  V30 3360 H 316.607 -3.83923 -7.22873 0
M  V30 3361 N 319.27 1.56325 -0.20005 0
M  V30 3362 C 320.681 1.8408 0.31167 0
M  V30 3363 C 321.032 1.12087 1.61031 0
M  V30 3364 O 320.157 0.38332 2.12978 0
M  V30 3365 C 320.752 3.33932 0.57226 0
M  V30 3366 C 319.311 3.6208 1.02834 0
M  V30 3367 C 318.458 2.77186 0.079634 0
M  V30 3368 H 321.409 1.52939 -0.423729 0
M  V30 3369 H 321.43 3.52971 1.42096 0
M  V30 3370 H 320.942 3.86303 -0.37308 0
M  V30 3371 H 319.043 3.15147 1.98778 0
M  V30 3372 H 319.156 4.7023 0.917624 0
M  V30 3373 H 317.52 2.47951 0.582448 0
M  V30 3374 H 318.303 3.32347 -0.860238 0
M  V30 3375 N 320.748 -0.0735177 1.57428 0
M  V30 3376 C 321.973 -0.789787 1.91774 0
M  V30 3377 C 322.398 -1.70413 0.796306 0
M  V30 3378 O 321.756 -1.79555 -0.250961 0
M  V30 3379 C 321.804 -1.5609 3.25067 0
M  V30 3380 O 320.908 -2.67144 3.14178 0
M  V30 3381 H 320.249 -0.215582 0.628029 0
M  V30 3382 H 322.779 -0.0422781 2.04556 0
M  V30 3383 H 322.789 -1.94052 3.58898 0
M  V30 3384 H 321.464 -0.890015 4.06265 0
M  V30 3385 H 320.041 -2.32052 2.91901 0
M  V30 3386 N 322.226 -1.5378 -0.344866 0
M  V30 3387 C 323.642 -1.44015 -0.687888 0
M  V30 3388 C 323.842 -0.595834 -1.92489 0
M  V30 3389 O 322.898 -0.0863064 -2.52352 0
M  V30 3390 C 324.211 -2.87481 -0.881758 0
M  V30 3391 C 325.759 -2.97247 -0.980459 0
M  V30 3392 C 326.234 -4.41819 -1.20665 0
M  V30 3393 N 327.725 -4.45339 -1.27389 0
M  V30 3394 C 328.46 -5.54333 -1.46639 0
M  V30 3395 N 327.956 -6.73335 -1.63071 0
M  V30 3396 N 329.749 -5.41944 -1.49176 0
M  V30 3397 H 321.9 -2.07169 0.468475 0
M  V30 3398 H 324.163 -0.93643 0.147655 0
M  V30 3399 H 323.869 -3.51672 -0.0443444 0
M  V30 3400 H 323.743 -3.32352 -1.78388 0
M  V30 3401 H 326.13 -2.33197 -1.8084 0
M  V30 3402 H 326.211 -2.5574 -0.0552713 0
M  V30 3403 H 325.855 -5.06449 -0.383652 0
M  V30 3404 H 325.785 -4.80917 -2.14539 0
M  V30 3405 H 328.276 -3.59585 -1.1622 0
M  V30 3406 H 328.589 -7.52165 -1.77391 0
M  V30 3407 H 326.934 -6.76282 -1.60209 0
M  V30 3408 H 330.125 -4.47932 -1.3592 0
M  V30 3409 H 330.298 -6.26946 -1.63837 0
M  V30 3410 N 323.704 0.605807 -1.45491 0
M  V30 3411 C 324.952 1.36207 -1.49305 0
M  V30 3412 C 325.273 1.94519 -0.136863 0
M  V30 3413 O 324.543 1.77261 0.833983 0
M  V30 3414 H 323.123 0.50565 -0.549843 0
M  V30 3415 H 325.785 0.711239 -1.81459 0
M  V30 3416 H 324.881 2.18058 -2.23287 0
M  V30 3417 N 325.182 1.32811 0.848464 0
M  V30 3418 C 326.129 1.22265 1.95755 0
M  V30 3419 C 327.099 0.103413 1.65778 0
M  V30 3420 O 328.284 0.280033 1.88734 0
M  V30 3421 C 325.424 0.958014 3.31536 0
M  V30 3422 C 324.537 2.16262 3.73971 0
M  V30 3423 C 323.672 1.83295 4.98575 0
M  V30 3424 C 322.711 3.00041 5.33518 0
M  V30 3425 N 321.848 2.67125 6.49299 0
M  V30 3426 H 326.688 2.17128 2.04107 0
M  V30 3427 H 324.225 1.07982 0.998913 0
M  V30 3428 H 326.183 0.785052 4.09747 0
M  V30 3429 H 324.813 0.046159 3.22767 0
M  V30 3430 H 323.865 2.44565 2.91362 0
M  V30 3431 H 325.177 3.03572 3.95785 0
M  V30 3432 H 324.331 1.62586 5.84509 0
M  V30 3433 H 323.07 0.932078 4.7871 0
M  V30 3434 H 322.075 3.21374 4.46093 0
M  V30 3435 H 323.3 3.90869 5.55336 0
M  V30 3436 H 321.246 1.79586 6.3094 0
M  V30 3437 H 321.163 3.47965 6.71161 0
M  V30 3438 H 322.431 2.49861 7.3837 0
M  V30 3439 N 326.66 -1.06551 1.16123 0
M  V30 3440 C 327.907 -1.79302 0.941126 0
M  V30 3441 C 328.235 -1.87105 -0.531235 0
M  V30 3442 O 327.49 -1.35692 -1.41018 0
M  V30 3443 C 327.789 -3.23911 1.51052 0
M  V30 3444 C 327.455 -3.36193 3.00475 0
M  V30 3445 C 326.117 -3.39252 3.41265 0
M  V30 3446 C 328.469 -3.38326 3.96465 0
M  V30 3447 C 325.797 -3.42057 4.76669 0
M  V30 3448 C 328.149 -3.4267 5.31752 0
M  V30 3449 C 326.813 -3.4401 5.72026 0
M  V30 3450 H 326.083 -0.656111 0.344382 0
M  V30 3451 H 328.73 -1.25325 1.44796 0
M  V30 3452 H 327.035 -3.80723 0.925063 0
M  V30 3453 H 328.732 -3.78793 1.31593 0
M  V30 3454 H 325.322 -3.34516 2.6795 0
M  V30 3455 H 329.506 -3.35176 3.6602 0
M  V30 3456 H 324.762 -3.41398 5.07206 0
M  V30 3457 H 328.936 -3.43268 6.05921 0
M  V30 3458 H 326.563 -3.45937 6.76928 0
M  V30 3459 N 328.138 -0.959301 -1.25041 0
M  V30 3460 C 329.07 -0.440543 -2.24926 0
M  V30 3461 C 330.083 0.446131 -1.56568 0
M  V30 3462 O 331.272 0.253657 -1.76689 0
M  V30 3463 C 328.372 0.38412 -3.36716 0
M  V30 3464 C 327.545 -0.490658 -4.34639 0
M  V30 3465 C 326.604 0.276587 -5.25473 0
M  V30 3466 O 325.63 -0.326614 -5.68262 0
M  V30 3467 N 326.832 1.56844 -5.5891 0
M  V30 3468 H 329.597 -1.29931 -2.70071 0
M  V30 3469 H 327.158 -0.830181 -1.38995 0
M  V30 3470 H 329.15 0.905228 -3.94446 0
M  V30 3471 H 327.72 1.14377 -2.90924 0
M  V30 3472 H 326.94 -1.19282 -3.7572 0
M  V30 3473 H 328.228 -1.08756 -4.97041 0
M  V30 3474 H 327.626 2.08036 -5.26059 0
M  V30 3475 H 326.183 2.03541 -6.19205 0
M  V30 3476 N 329.616 1.39756 -0.72842 0
M  V30 3477 C 330.579 2.29012 -0.0927297 0
M  V30 3478 C 331.579 1.45992 0.674025 0
M  V30 3479 O 332.769 1.66749 0.50402 0
M  V30 3480 C 329.901 3.29396 0.878137 0
M  V30 3481 H 331.094 2.86729 -0.879011 0
M  V30 3482 H 328.647 1.48293 -0.493847 0
M  V30 3483 H 329.382 2.76722 1.69101 0
M  V30 3484 H 329.167 3.907 0.331051 0
M  V30 3485 H 330.657 3.96199 1.3197 0
M  V30 3486 N 331.094 0.475555 1.50254 0
M  V30 3487 C 332.324 -0.0753399 2.06463 0
M  V30 3488 C 332.732 -1.33661 1.33908 0
M  V30 3489 O 332.075 -1.79219 0.403257 0
M  V30 3490 C 332.137 -0.424921 3.5698 0
M  V30 3491 C 331.801 0.734965 4.51051 0
M  V30 3492 C 332.798 1.61827 4.94073 0
M  V30 3493 C 330.483 0.926557 4.9368 0
M  V30 3494 C 332.477 2.67754 5.78434 0
M  V30 3495 C 330.164 1.98904 5.77824 0
M  V30 3496 C 331.162 2.8629 6.20103 0
M  V30 3497 O 330.85 3.90708 7.02568 0
M  V30 3498 H 330.582 0.00576308 0.675975 0
M  V30 3499 H 333.136 0.664662 1.94349 0
M  V30 3500 H 331.366 -1.21817 3.67012 0
M  V30 3501 H 333.055 -0.911422 3.95535 0
M  V30 3502 H 333.821 1.48196 4.61804 0
M  V30 3503 H 329.7 0.25584 4.6029 0
M  V30 3504 H 333.244 3.35992 6.11355 0
M  V30 3505 H 329.141 2.12541 6.09505 0
M  V30 3506 H 329.909 3.87751 7.20827 0
M  V30 3507 N 332.573 -1.56217 0.208337 0
M  V30 3508 C 333.801 -2.02337 -0.43215 0
M  V30 3509 C 334.216 -1.08834 -1.54275 0
M  V30 3510 O 333.573 -0.0955462 -1.8225 0
M  V30 3511 C 333.624 -3.48072 -0.976138 0
M  V30 3512 O 333.345 -4.38007 0.0901621 0
M  V30 3513 C 334.846 -4.09773 -1.69119 0
M  V30 3514 H 332.066 -0.662385 -0.10718 0
M  V30 3515 H 334.61 -2.01966 0.320923 0
M  V30 3516 H 332.765 -3.49099 -1.67954 0
M  V30 3517 H 333.179 -5.23543 -0.316701 0
M  V30 3518 H 334.653 -5.13556 -2.02397 0
M  V30 3519 H 335.13 -3.53999 -2.59964 0
M  V30 3520 H 335.736 -4.12556 -1.03332 0
M  V30 3521 N 334.051 0.0651679 -1.57465 0
M  V30 3522 C 334.961 1.09448 -2.07505 0
M  V30 3523 C 335.977 1.41974 -1.00595 0
M  V30 3524 O 337.153 1.52018 -1.32107 0
M  V30 3525 C 334.218 2.38689 -2.51453 0
M  V30 3526 C 333.279 2.13073 -3.72691 0
M  V30 3527 C 332.512 3.36152 -4.14533 0
M  V30 3528 O 332.735 4.45517 -3.56189 0
M  V30 3529 O 331.669 3.23974 -5.07272 0
M  V30 3530 H 335.495 0.69935 -2.95538 0
M  V30 3531 H 333.08 0.279752 -1.46757 0
M  V30 3532 H 334.962 3.14736 -2.80212 0
M  V30 3533 H 333.637 2.77568 -1.66546 0
M  V30 3534 H 332.544 1.34709 -3.49005 0
M  V30 3535 H 333.877 1.79071 -4.5847 0
M  V30 3536 N 335.529 1.53961 0.336706 0
M  V30 3537 C 336.776 1.71536 1.07618 0
M  V30 3538 C 337.104 0.482125 1.8843 0
M  V30 3539 O 336.359 -0.536142 1.88213 0
M  V30 3540 C 336.658 2.93493 2.03953 0
M  V30 3541 C 336.324 4.28811 1.39399 0
M  V30 3542 C 334.986 4.65602 1.21523 0
M  V30 3543 C 337.338 5.12844 0.929541 0
M  V30 3544 C 334.666 5.84037 0.558312 0
M  V30 3545 C 337.018 6.31951 0.286505 0
M  V30 3546 C 335.682 6.67432 0.0954869 0
M  V30 3547 H 334.952 0.627696 0.393801 0
M  V30 3548 H 337.599 1.88186 0.354715 0
M  V30 3549 H 335.904 2.71475 2.82504 0
M  V30 3550 H 337.601 3.04285 2.61174 0
M  V30 3551 H 334.191 3.99858 1.54311 0
M  V30 3552 H 338.375 4.84947 1.05548 0
M  V30 3553 H 333.631 6.10097 0.398995 0
M  V30 3554 H 337.805 6.96352 -0.0814376 0
M  V30 3555 H 335.432 7.59063 -0.415579 0
M  V30 3556 N 337.007 -0.598083 1.45811 0
M  V30 3557 C 337.97 -1.69018 1.54808 0
M  V30 3558 C 338.97 -1.55037 0.426652 0
M  V30 3559 O 340.16 -1.59932 0.690456 0
M  V30 3560 C 337.292 -3.0835 1.45371 0
M  V30 3561 H 338.485 -1.62403 2.52121 0
M  V30 3562 H 336.038 -0.814626 1.33392 0
M  V30 3563 H 336.773 -3.20534 0.492793 0
M  V30 3564 H 336.558 -3.19907 2.26721 0
M  V30 3565 H 338.048 -3.8788 1.54721 0
M  V30 3566 N 338.485 -1.33259 -0.841409 0
M  V30 3567 C 339.432 -1.23302 -1.95103 0
M  V30 3568 C 340.402 -0.112204 -1.65721 0
M  V30 3569 O 341.587 -0.290038 -1.88583 0
M  V30 3570 C 338.727 -0.975583 -3.31023 0
M  V30 3571 C 337.84 -2.18243 -3.72819 0
M  V30 3572 C 336.975 -1.85936 -4.97595 0
M  V30 3573 C 336.014 -3.02866 -5.3192 0
M  V30 3574 N 335.151 -2.70565 -6.47873 0
M  V30 3575 H 339.991 -2.18207 -2.02952 0
M  V30 3576 H 337.528 -1.0851 -0.993173 0
M  V30 3577 H 339.486 -0.80677 -4.09325 0
M  V30 3578 H 338.116 -0.0632755 -3.22738 0
M  V30 3579 H 337.168 -2.46107 -2.90061 0
M  V30 3580 H 338.48 -3.05666 -3.94169 0
M  V30 3581 H 337.634 -1.65684 -5.83638 0
M  V30 3582 H 336.373 -0.957452 -4.78209 0
M  V30 3583 H 335.378 -3.23736 -4.44382 0
M  V30 3584 H 336.603 -3.93809 -5.53255 0
M  V30 3585 H 334.549 -1.8293 -6.29978 0
M  V30 3586 H 334.466 -3.51519 -6.69306 0
M  V30 3587 H 335.734 -2.53774 -7.37034 0
M  V30 3588 N 339.963 1.05934 -1.16686 0
M  V30 3589 C 341.188 1.83029 -0.975455 0
M  V30 3590 C 341.613 1.82096 0.471452 0
M  V30 3591 O 340.971 1.22443 1.33706 0
M  V30 3592 C 341.019 3.27372 -1.51195 0
M  V30 3593 O 340.123 4.06054 -0.720701 0
M  V30 3594 H 339.464 0.566194 -0.346872 0
M  V30 3595 H 341.994 1.33541 -1.55009 0
M  V30 3596 H 342.004 3.78186 -1.53099 0
M  V30 3597 H 340.679 3.27366 -2.56523 0
M  V30 3598 H 339.256 3.64812 -0.772458 0
M  V30 3599 N 341.441 0.965919 1.2453 0
M  V30 3600 C 342.388 0.49402 2.25451 0
M  V30 3601 C 343.358 -0.45948 1.59618 0
M  V30 3602 O 344.543 -0.370238 1.87173 0
M  V30 3603 C 341.683 -0.211359 3.44452 0
M  V30 3604 C 340.796 0.7807 4.24887 0
M  V30 3605 C 339.931 0.0516105 5.31175 0
M  V30 3606 C 338.97 1.03385 6.03306 0
M  V30 3607 N 338.107 0.334887 7.01301 0
M  V30 3608 H 342.947 1.35946 2.65184 0
M  V30 3609 H 340.484 0.681515 1.3036 0
M  V30 3610 H 342.442 -0.637 4.12308 0
M  V30 3611 H 341.072 -1.04077 3.05562 0
M  V30 3612 H 340.124 1.32479 3.56586 0
M  V30 3613 H 341.436 1.52978 4.74762 0
M  V30 3614 H 340.59 -0.432114 6.05159 0
M  V30 3615 H 339.329 -0.730179 4.82203 0
M  V30 3616 H 338.334 1.52847 5.28127 0
M  V30 3617 H 339.559 1.81606 6.54367 0
M  V30 3618 H 337.505 -0.427959 6.54603 0
M  V30 3619 H 337.422 1.02287 7.49048 0
M  V30 3620 H 338.69 -0.126928 7.79397 0
M  V30 3621 N 342.919 -1.39368 0.735821 0
M  V30 3622 C 344.166 -2.00497 0.284123 0
M  V30 3623 C 344.494 -1.58387 -1.12889 0
M  V30 3624 O 343.749 -0.804359 -1.78406 0
M  V30 3625 C 344.048 -3.5583 0.334651 0
M  V30 3626 C 343.714 -4.17593 1.7008 0
M  V30 3627 C 342.376 -4.34176 2.07472 0
M  V30 3628 C 344.728 -4.51848 2.59775 0
M  V30 3629 C 342.056 -4.82304 3.34065 0
M  V30 3630 C 344.408 -5.01384 3.85741 0
M  V30 3631 C 343.072 -5.16175 4.23225 0
M  V30 3632 H 342.342 -0.73367 0.103968 0
M  V30 3633 H 344.989 -1.66683 0.942825 0
M  V30 3634 H 343.294 -3.89674 -0.407625 0
M  V30 3635 H 344.991 -4.00986 -0.0329927 0
M  V30 3636 H 341.581 -4.05087 1.40008 0
M  V30 3637 H 345.765 -4.38653 2.32157 0
M  V30 3638 H 341.021 -4.91941 3.63049 0
M  V30 3639 H 345.195 -5.26863 4.55399 0
M  V30 3640 H 342.822 -5.5323 5.21384 0
M  V30 3641 N 344.397 -0.483516 -1.5 0
M  V30 3642 C 345.813 -0.138404 -1.58999 0
M  V30 3643 C 346.013 1.35597 -1.4905 0
M  V30 3644 O 345.069 2.13039 -1.35539 0
M  V30 3645 C 346.382 -0.699658 -2.92447 0
M  V30 3646 C 347.93 -0.664195 -3.05872 0
M  V30 3647 C 348.405 -1.20321 -4.41913 0
M  V30 3648 N 349.896 -1.16315 -4.48358 0
M  V30 3649 C 350.631 -1.55058 -5.52037 0
M  V30 3650 N 350.127 -2.01311 -6.62907 0
M  V30 3651 N 351.92 -1.46584 -5.42651 0
M  V30 3652 H 344.071 -1.45529 -1.5471 0
M  V30 3653 H 346.334 -0.60258 -0.731848 0
M  V30 3654 H 346.04 -1.747 -3.05242 0
M  V30 3655 H 345.914 -0.150194 -3.76901 0
M  V30 3656 H 348.301 0.374272 -2.92717 0
M  V30 3657 H 348.382 -1.25061 -2.23144 0
M  V30 3658 H 348.026 -2.24037 -4.55818 0
M  V30 3659 H 347.956 -0.592896 -5.23252 0
M  V30 3660 H 350.447 -0.824058 -3.68806 0
M  V30 3661 H 350.76 -2.2899 -7.38095 0
M  V30 3662 H 349.105 -2.05273 -6.63994 0
M  V30 3663 H 352.296 -1.10281 -4.54924 0
M  V30 3664 H 352.469 -1.77103 -6.23329 0
M  V30 3665 N 345.875 1.56104 -0.216619 0
M  V30 3666 C 346.805 2.23063 0.690296 0
M  V30 3667 C 347.786 1.20072 1.20485 0
M  V30 3668 O 348.971 1.48643 1.24976 0
M  V30 3669 C 346.101 2.90672 1.90072 0
M  V30 3670 C 345.055 4.00092 1.5202 0
M  V30 3671 C 344.381 4.54972 2.80899 0
M  V30 3672 C 345.681 5.17398 0.71391 0
M  V30 3673 H 347.375 2.99109 0.132038 0
M  V30 3674 H 344.921 1.43866 0.0620664 0
M  V30 3675 H 346.874 3.36204 2.54057 0
M  V30 3676 H 345.598 2.12066 2.48386 0
M  V30 3677 H 344.257 3.55283 0.903839 0
M  V30 3678 H 343.905 3.73102 3.37348 0
M  V30 3679 H 343.605 5.28817 2.56176 0
M  V30 3680 H 345.129 5.0322 3.45836 0
M  V30 3681 H 346.543 5.59342 1.25735 0
M  V30 3682 H 344.94 5.97444 0.563951 0
M  V30 3683 H 346.01 4.84088 -0.280527 0
M  V30 3684 N 347.353 -0.0568162 1.57498 0
M  V30 3685 C 348.599 -0.748893 1.89111 0
M  V30 3686 C 348.954 -1.74422 0.81208 0
M  V30 3687 O 348.247 -1.90731 -0.182247 0
M  V30 3688 C 348.441 -1.48359 3.25153 0
M  V30 3689 C 348.27 -0.560924 4.46188 0
M  V30 3690 C 347.04 -0.192264 5.04934 0
M  V30 3691 C 349.238 0.148824 5.14085 0
M  V30 3692 N 347.22 0.734555 6.0949 0
M  V30 3693 C 348.591 0.932286 6.12951 0
M  V30 3694 C 350.646 0.218713 4.97419 0
M  V30 3695 C 349.349 1.77917 6.96949 0
M  V30 3696 C 351.375 1.05262 5.81957 0
M  V30 3697 C 350.737 1.82409 6.80372 0
M  V30 3698 H 346.836 -0.249002 0.741298 0
M  V30 3699 H 349.42 -0.00984926 1.94698 0
M  V30 3700 H 347.591 -2.19326 3.20547 0
M  V30 3701 H 349.323 -2.12586 3.44368 0
M  V30 3702 H 346.078 -0.548421 4.70414 0
M  V30 3703 H 346.502 1.19165 6.6643 0
M  V30 3704 H 351.144 -0.363407 4.21235 0
M  V30 3705 H 348.862 2.3722 7.72497 0
M  V30 3706 H 352.448 1.10987 5.71116 0
M  V30 3707 H 351.328 2.45895 7.44651 0
M  V30 3708 N 348.832 -1.54138 -0.328536 0
M  V30 3709 C 350.078 -1.7236 -1.06865 0
M  V30 3710 C 350.411 -0.493231 -1.87832 0
M  V30 3711 O 349.686 0.5098 -1.877 0
M  V30 3712 C 349.969 -2.99621 -1.99747 0
M  V30 3713 C 349.822 -4.32899 -1.22143 0
M  V30 3714 C 351.141 -3.22615 -2.99345 0
M  V30 3715 H 348.26 -0.627151 -0.387105 0
M  V30 3716 H 350.902 -1.86827 -0.345767 0
M  V30 3717 H 349.052 -2.87418 -2.61387 0
M  V30 3718 H 350.724 -4.56978 -0.630017 0
M  V30 3719 H 348.967 -4.30628 -0.523628 0
M  V30 3720 H 349.638 -5.18154 -1.90318 0
M  V30 3721 H 352.114 -3.34248 -2.47826 0
M  V30 3722 H 350.99 -4.13027 -3.61524 0
M  V30 3723 H 351.251 -2.3961 -3.71536 0
M  V30 3724 N 350.31 0.590341 -1.46126 0
M  V30 3725 C 351.24 1.71032 -1.58966 0
M  V30 3726 C 352.221 1.64302 -0.440335 0
M  V30 3727 O 353.406 1.82436 -0.665634 0
M  V30 3728 C 350.536 3.09665 -1.57241 0
M  V30 3729 C 349.49 3.31221 -2.71066 0
M  V30 3730 C 348.816 4.70303 -2.54399 0
M  V30 3731 C 350.116 3.19796 -4.1295 0
M  V30 3732 H 351.81 1.60543 -2.52718 0
M  V30 3733 H 349.356 0.770933 -1.21625 0
M  V30 3734 H 351.309 3.87831 -1.64819 0
M  V30 3735 H 350.033 3.21036 -0.600289 0
M  V30 3736 H 348.692 2.55452 -2.62944 0
M  V30 3737 H 348.34 4.78429 -1.55288 0
M  V30 3738 H 348.04 4.85679 -3.30741 0
M  V30 3739 H 349.564 5.50647 -2.63857 0
M  V30 3740 H 350.978 3.87815 -4.22223 0
M  V30 3741 H 349.375 3.46696 -4.89818 0
M  V30 3742 H 350.445 2.16983 -4.33643 0
M  V30 3743 N 351.788 1.33704 0.83433 0
M  V30 3744 C 352.736 1.24323 1.96587 0
M  V30 3745 C 353.73 0.143659 1.6879 0
M  V30 3746 O 354.936 0.30791 1.77347 0
M  V30 3747 H 351.311 0.385925 0.645419 0
M  V30 3748 H 353.282 2.19978 2.01624 0
M  V30 3749 C 352.031 1.00394 3.32891 0
M  V30 3750 H 351.354 1.84231 3.54822 0
M  V30 3751 H 352.794 0.97862 4.12552 0
M  V30 3752 C 351.253 -0.293047 3.35623 0
M  V30 3753 O 351.783 -1.29823 3.80143 0
M  V30 3754 N 349.989 -0.322174 2.88809 0
M  V30 3755 H 349.536 0.496379 2.52772 0
M  V30 3756 H 349.494 -1.18977 2.91019 0
M  V30 3757 N 353.266 -1.05314 1.17247 0
M  V30 3758 C 354.213 -2.13031 0.888058 0
M  V30 3759 C 355.183 -1.65253 -0.167537 0
M  V30 3760 O 356.368 -1.90775 -0.0305974 0
M  V30 3761 C 353.508 -3.42702 0.406147 0
M  V30 3762 C 352.621 -4.04161 1.52572 0
M  V30 3763 C 351.756 -5.21744 0.997808 0
M  V30 3764 C 350.795 -5.75207 2.09291 0
M  V30 3765 N 349.932 -6.84094 1.57986 0
M  V30 3766 H 354.772 -2.36698 1.81048 0
M  V30 3767 H 352.309 -1.16121 0.903013 0
M  V30 3768 H 354.267 -4.17059 0.108305 0
M  V30 3769 H 352.897 -3.19222 -0.479313 0
M  V30 3770 H 351.949 -3.27253 1.93931 0
M  V30 3771 H 353.261 -4.39881 2.35172 0
M  V30 3772 H 352.415 -6.03168 0.653739 0
M  V30 3773 H 351.154 -4.87495 0.141232 0
M  V30 3774 H 350.159 -4.92414 2.44557 0
M  V30 3775 H 351.384 -6.11505 2.95362 0
M  V30 3776 H 349.33 -6.51745 0.74598 0
M  V30 3777 H 349.247 -7.18811 2.34195 0
M  V30 3778 H 350.515 -7.69172 1.26468 0
M  V30 3779 N 354.744 -0.972509 -1.24016 0
M  V30 3780 C 355.974 -0.653853 -1.9598 0
M  V30 3781 C 356.382 0.781801 -1.72292 0
M  V30 3782 O 355.725 1.53677 -1.00644 0
M  V30 3783 C 355.787 -0.854608 -3.49194 0
M  V30 3784 C 355.451 -2.27082 -3.96589 0
M  V30 3785 C 356.448 -3.24892 -4.05883 0
M  V30 3786 C 354.133 -2.5998 -4.29786 0
M  V30 3787 C 356.127 -4.53684 -4.47716 0
M  V30 3788 C 353.814 -3.88997 -4.71301 0
M  V30 3789 C 354.812 -4.85661 -4.80232 0
M  V30 3790 O 354.5 -6.12376 -5.20818 0
M  V30 3791 H 354.232 -0.242572 -0.630979 0
M  V30 3792 H 356.786 -1.30431 -1.58673 0
M  V30 3793 H 355.016 -0.146985 -3.86421 0
M  V30 3794 H 356.705 -0.534311 -4.02368 0
M  V30 3795 H 357.471 -3.00805 -3.80449 0
M  V30 3796 H 353.35 -1.85457 -4.22051 0
M  V30 3797 H 356.894 -5.29135 -4.54601 0
M  V30 3798 H 352.791 -4.12882 -4.96184 0
M  V30 3799 H 353.559 -6.16013 -5.38953 0
M  V30 3800 N 356.222 1.38976 -0.743202 0
M  V30 3801 C 357.47 1.99948 -0.29417 0
M  V30 3802 C 357.791 1.59279 1.12495 0
M  V30 3803 O 357.061 0.844808 1.76748 0
M  V30 3804 H 355.641 0.739473 -0.105774 0
M  V30 3805 H 358.303 1.699 -0.954986 0
M  V30 3806 H 357.399 3.10142 -0.349056 0
M  V30 3807 N 357.7 0.491464 1.49741 0
M  V30 3808 C 358.925 -0.0557177 2.07325 0
M  V30 3809 C 359.35 -1.30925 1.35056 0
M  V30 3810 O 358.708 -1.76733 0.404365 0
M  V30 3811 C 358.756 -0.302074 3.59333 0
M  V30 3812 O 357.86 -1.37868 3.88672 0
M  V30 3813 H 357.201 0.0219956 0.663636 0
M  V30 3814 H 359.731 0.688352 1.92673 0
M  V30 3815 H 359.741 -0.536464 4.04458 0
M  V30 3816 H 358.416 0.61383 4.11345 0
M  V30 3817 H 356.993 -1.12999 3.55367 0
M  V30 3818 N 359.178 -1.55987 0.224894 0
M  V30 3819 C 360.108 -2.23426 -0.678457 0
M  V30 3820 C 361.089 -1.20709 -1.19847 0
M  V30 3821 O 362.274 -1.49304 -1.24186 0
M  V30 3822 C 359.404 -2.91676 -1.88527 0
M  V30 3823 C 358.358 -4.00893 -1.49896 0
M  V30 3824 C 357.684 -4.56455 -2.78483 0
M  V30 3825 C 358.984 -5.17769 -0.686461 0
M  V30 3826 H 360.678 -2.99175 -0.116173 0
M  V30 3827 H 358.224 -1.43897 -0.054436 0
M  V30 3828 H 360.177 -3.37547 -2.5227 0
M  V30 3829 H 358.901 -2.1338 -2.47258 0
M  V30 3830 H 357.56 -3.55758 -0.884985 0
M  V30 3831 H 357.208 -3.74886 -3.35365 0
M  V30 3832 H 356.908 -5.30169 -2.53368 0
M  V30 3833 H 358.432 -5.05047 -3.43162 0
M  V30 3834 H 359.846 -5.60001 -1.22767 0
M  V30 3835 H 358.243 -5.97735 -0.532259 0
M  V30 3836 H 359.313 -4.83932 0.306196 0
M  V30 3837 N 360.656 0.0484629 -1.57525 0
M  V30 3838 C 361.604 1.07359 -2.06341 0
M  V30 3839 C 362.598 1.3865 -0.973269 0
M  V30 3840 O 363.804 1.37783 -1.15827 0
M  V30 3841 H 360.179 0.363662 -0.65822 0
M  V30 3842 H 362.15 0.635916 -2.91545 0
M  V30 3843 C 360.899 2.37198 -2.54229 0
M  V30 3844 H 360.222 2.13977 -3.37719 0
M  V30 3845 H 361.662 3.07319 -2.92115 0
M  V30 3846 C 360.121 3.04805 -1.43511 0
M  V30 3847 O 360.651 3.93848 -0.79034 0
M  V30 3848 N 358.857 2.65811 -1.17444 0
M  V30 3849 H 358.404 1.93488 -1.70059 0
M  V30 3850 H 358.362 3.11366 -0.435737 0
M  V30 3851 N 362.134 1.5431 0.320358 0
M  V30 3852 C 363.044 1.86946 1.41734 0
M  V30 3853 C 364.06 0.761689 1.56443 0
M  V30 3854 O 365.236 1.05629 1.71477 0
M  V30 3855 C 362.301 2.09293 2.76401 0
M  V30 3856 C 361.362 3.33082 2.70841 0
M  V30 3857 C 360.595 3.54353 3.99086 0
M  V30 3858 O 360.818 2.79002 4.97508 0
M  V30 3859 O 359.752 4.47838 4.0215 0
M  V30 3860 H 363.578 2.80232 1.17062 0
M  V30 3861 H 361.163 1.40255 0.514673 0
M  V30 3862 H 363.045 2.25303 3.56113 0
M  V30 3863 H 361.72 1.19194 3.00956 0
M  V30 3864 H 360.627 3.22454 1.89668 0
M  V30 3865 H 361.96 4.23249 2.5124 0
M  V30 3866 N 363.613 -0.582584 1.46437 0
M  V30 3867 C 364.859 -1.34278 1.51978 0
M  V30 3868 C 365.192 -1.93446 0.170973 0
M  V30 3869 O 364.467 -1.76481 -0.817608 0
M  V30 3870 C 364.75 -2.47203 2.61845 0
M  V30 3871 C 364.603 -1.93069 4.06257 0
M  V30 3872 C 365.922 -3.49247 2.67795 0
M  V30 3873 H 363.041 -0.486876 0.553282 0
M  V30 3874 H 365.683 -0.654437 1.78374 0
M  V30 3875 H 363.833 -3.0592 2.39469 0
M  V30 3876 H 365.505 -1.38808 4.3992 0
M  V30 3877 H 363.748 -1.23898 4.1573 0
M  V30 3878 H 364.419 -2.74586 4.7886 0
M  V30 3879 H 366.895 -3.00411 2.8791 0
M  V30 3880 H 365.771 -4.25719 3.46489 0
M  V30 3881 H 366.032 -4.06482 1.73852 0
M  V30 3882 N 365.091 -1.34144 -0.827227 0
M  V30 3883 C 366.039 -1.25364 -1.95925 0
M  V30 3884 C 367.033 -0.152608 -1.68711 0
M  V30 3885 O 368.239 -0.317311 -1.77181 0
M  V30 3886 H 364.614 -0.389342 -0.643364 0
M  V30 3887 H 366.585 -2.21045 -2.00454 0
M  V30 3888 C 365.334 -1.02158 -3.32354 0
M  V30 3889 H 364.657 -1.86111 -3.5384 0
M  V30 3890 H 366.097 -1.00048 -4.12027 0
M  V30 3891 C 364.556 0.275244 -3.35774 0
M  V30 3892 O 365.086 1.27806 -3.80826 0
M  V30 3893 N 363.292 0.306853 -2.88975 0
M  V30 3894 H 362.839 -0.509777 -2.52506 0
M  V30 3895 H 362.797 1.17432 -2.91646 0
M  V30 3896 N 366.569 1.04691 -1.17803 0
M  V30 3897 C 367.516 2.12557 -0.899343 0
M  V30 3898 C 368.486 1.65339 0.158771 0
M  V30 3899 O 369.671 1.90789 0.0204797 0
M  V30 3900 C 366.811 3.42481 -0.424315 0
M  V30 3901 C 365.924 4.03346 -1.54713 0
M  V30 3902 C 365.059 5.21208 -1.02546 0
M  V30 3903 C 364.098 5.74089 -2.12339 0
M  V30 3904 N 363.235 6.83247 -1.61612 0
M  V30 3905 H 368.075 2.35734 -1.823 0
M  V30 3906 H 365.612 1.1564 -0.909159 0
M  V30 3907 H 367.57 4.16996 -0.130421 0
M  V30 3908 H 366.2 3.19471 0.462377 0
M  V30 3909 H 365.252 3.2622 -1.95664 0
M  V30 3910 H 366.564 4.38628 -2.37501 0
M  V30 3911 H 365.718 6.02812 -0.685718 0
M  V30 3912 H 364.457 4.87414 -0.167084 0
M  V30 3913 H 363.462 4.91111 -2.47165 0
M  V30 3914 H 364.687 6.0993 -2.98601 0
M  V30 3915 H 362.633 6.5134 -0.780533 0
M  V30 3916 H 362.55 7.17559 -2.38003 0
M  V30 3917 H 363.818 7.68491 -1.30545 0
M  V30 3918 N 368.047 0.979072 1.23499 0
M  V30 3919 C 369.01 0.523244 2.23147 0
M  V30 3920 C 370.01 -0.386406 1.56088 0
M  V30 3921 O 371.2 -0.180283 1.73265 0
M  V30 3922 C 368.332 -0.240739 3.40049 0
M  V30 3923 H 369.525 1.40432 2.64989 0
M  V30 3924 H 367.078 0.764824 1.36309 0
M  V30 3925 H 367.813 -1.13841 3.03662 0
M  V30 3926 H 367.598 0.412207 3.89927 0
M  V30 3927 H 369.088 -0.548297 4.13985 0
M  V30 3928 N 369.525 -1.3858 0.750561 0
M  V30 3929 C 370.771 -2.0095 0.31477 0
M  V30 3930 C 371.126 -1.58509 -1.09053 0
M  V30 3931 O 370.419 -0.8112 -1.7358 0
M  V30 3932 C 370.613 -3.55455 0.372373 0
M  V30 3933 C 370.442 -4.12898 1.78173 0
M  V30 3934 C 369.212 -4.44797 2.39757 0
M  V30 3935 C 371.41 -4.35366 2.7379 0
M  V30 3936 N 369.392 -4.87831 3.72685 0
M  V30 3937 C 370.763 -4.80775 3.91478 0
M  V30 3938 C 372.818 -4.1746 2.71351 0
M  V30 3939 C 371.521 -5.10155 5.07084 0
M  V30 3940 C 373.547 -4.47963 3.86113 0
M  V30 3941 C 372.909 -4.93593 5.02539 0
M  V30 3942 H 369.008 -0.765083 0.161776 0
M  V30 3943 H 371.592 -1.68246 0.979867 0
M  V30 3944 H 369.763 -3.87512 -0.26244 0
M  V30 3945 H 371.495 -4.04614 -0.0834479 0
M  V30 3946 H 368.25 -4.33135 1.91548 0
M  V30 3947 H 368.674 -5.13685 4.40972 0
M  V30 3948 H 373.316 -3.81372 1.82524 0
M  V30 3949 H 371.034 -5.45141 5.96529 0
M  V30 3950 H 374.62 -4.35717 3.85542 0
M  V30 3951 H 373.5 -5.16746 5.89867 0
M  V30 3952 N 371.003 -0.499398 -1.49478 0
M  V30 3953 C 372.251 0.0455996 -2.02049 0
M  V30 3954 C 372.572 1.37633 -1.38138 0
M  V30 3955 O 371.842 1.8842 -0.536166 0
M  V30 3956 H 370.422 0.0198416 -0.746736 0
M  V30 3957 H 373.084 -0.656274 -1.83519 0
M  V30 3958 H 372.18 0.176445 -3.11601 0
M  V30 3959 N 372.481 1.55866 -0.233164 0
M  V30 3960 C 373.709 2.02998 0.399905 0
M  V30 3961 C 374.124 1.11274 1.52524 0
M  V30 3962 O 373.481 0.124528 1.82075 0
M  V30 3963 C 373.532 3.4958 0.920639 0
M  V30 3964 O 373.253 4.37808 -0.159834 0
M  V30 3965 C 374.754 4.12411 1.62578 0
M  V30 3966 H 371.974 0.664006 0.0966281 0
M  V30 3967 H 374.518 2.0143 -0.353013 0
M  V30 3968 H 372.673 3.51727 1.62379 0
M  V30 3969 H 373.087 5.23981 0.23337 0
M  V30 3970 H 374.561 5.16711 1.94201 0
M  V30 3971 H 375.038 3.5809 2.54299 0
M  V30 3972 H 375.644 4.14148 0.967553 0
M  V30 3973 N 373.959 -0.0401083 1.57549 0
M  V30 3974 C 374.906 -1.04413 2.05831 0
M  V30 3975 C 375.876 -1.36585 0.945184 0
M  V30 3976 O 377.061 -1.47112 1.21502 0
M  V30 3977 C 374.201 -2.34336 2.53339 0
M  V30 3978 C 373.314 -2.08419 3.78398 0
M  V30 3979 C 372.449 -3.32133 4.14561 0
M  V30 3980 C 371.488 -3.01721 5.3257 0
M  V30 3981 N 370.625 -4.17855 5.64218 0
M  V30 3982 H 375.465 -0.625442 2.91363 0
M  V30 3983 H 373.002 -0.297218 1.44066 0
M  V30 3984 H 374.96 -3.10234 2.78946 0
M  V30 3985 H 373.59 -2.73948 1.7074 0
M  V30 3986 H 372.642 -1.23069 3.59942 0
M  V30 3987 H 373.954 -1.81978 4.64419 0
M  V30 3988 H 373.108 -4.16406 4.41238 0
M  V30 3989 H 371.847 -3.61678 3.2717 0
M  V30 3990 H 370.852 -2.15849 5.05657 0
M  V30 3991 H 372.077 -2.73466 6.21605 0
M  V30 3992 H 370.023 -4.47372 4.79786 0
M  V30 3993 H 369.94 -3.94798 6.44725 0
M  V30 3994 H 371.208 -5.03033 5.95465 0
M  V30 3995 N 375.437 -1.54477 -0.31217 0
M  V30 3996 C 376.367 -1.87652 -1.38957 0
M  V30 3997 C 377.348 -0.734358 -1.53431 0
M  V30 3998 O 378.533 -0.98911 -1.67123 0
M  V30 3999 C 375.663 -2.11396 -2.75552 0
M  V30 4000 C 374.617 -3.27243 -2.75855 0
M  V30 4001 C 373.943 -3.36382 -4.15633 0
M  V30 4002 C 375.243 -4.64622 -2.38587 0
M  V30 4003 H 376.937 -2.77887 -1.11442 0
M  V30 4004 H 374.483 -1.33707 -0.534655 0
M  V30 4005 H 376.436 -2.33189 -3.51 0
M  V30 4006 H 375.16 -1.17921 -3.04569 0
M  V30 4007 H 373.819 -3.05356 -2.02863 0
M  V30 4008 H 373.467 -2.40445 -4.41809 0
M  V30 4009 H 373.167 -4.14249 -4.1674 0
M  V30 4010 H 374.691 -3.60422 -4.92877 0
M  V30 4011 H 376.105 -4.86219 -3.03749 0
M  V30 4012 H 374.502 -5.45121 -2.50925 0
M  V30 4013 H 375.572 -4.66097 -1.33723 0
M  V30 4014 N 376.915 0.57481 -1.46744 0
M  V30 4015 C 378.164 1.32898 -1.51727 0
M  V30 4016 C 378.477 1.948 -0.176692 0
M  V30 4017 O 379.683 2.71299 -0.104385 0
M  V30 4018 C 378.139 2.40901 -2.67385 0
M  V30 4019 C 377.747 1.85266 -4.07898 0
M  V30 4020 C 379.491 3.17609 -2.81646 0
M  V30 4021 C 377.398 2.90945 -5.14883 0
M  V30 4022 H 376.328 0.499631 -0.564699 0
M  V30 4023 H 378.979 0.612536 -1.72975 0
M  V30 4024 H 377.361 3.15379 -2.39483 0
M  V30 4025 H 378.535 1.17278 -4.45626 0
M  V30 4026 H 376.85 1.21199 -3.98371 0
M  V30 4027 H 379.447 3.96493 -3.58744 0
M  V30 4028 H 379.79 3.70696 -1.89448 0
M  V30 4029 H 380.323 2.50239 -3.09233 0
M  V30 4030 H 377.062 2.42736 -6.089 0
M  V30 4031 H 376.582 3.57398 -4.81691 0
M  V30 4032 H 378.261 3.54755 -5.41071 0
M  V30 4033 N 378.394 1.34581 0.820102 0
M  V30 4034 C 379.619 1.30333 1.61332 0
M  V30 4035 C 380.044 -0.119339 1.87721 0
M  V30 4036 O 379.402 -1.08197 1.45475 0
M  V30 4037 C 379.45 2.10258 2.92957 0
M  V30 4038 O 378.554 1.47404 3.85157 0
M  V30 4039 H 377.895 0.447488 0.490561 0
M  V30 4040 H 380.425 1.77425 1.01889 0
M  V30 4041 H 380.435 2.21718 3.42498 0
M  V30 4042 H 379.11 3.13693 2.73074 0
M  V30 4043 H 377.687 1.44703 3.43679 0
M  V30 4044 N 379.872 -1.04064 1.18357 0
M  V30 4045 C 380.782 -2.15569 0.925596 0
M  V30 4046 C 381.798 -1.7365 -0.110295 0
M  V30 4047 O 382.974 -2.01273 0.0716218 0
M  V30 4048 C 380.039 -3.43704 0.454836 0
M  V30 4049 C 379.1 -4.00004 1.55869 0
M  V30 4050 C 378.333 -5.22023 1.1103 0
M  V30 4051 O 378.556 -5.70392 -0.0309756 0
M  V30 4052 O 377.49 -5.70856 1.90805 0
M  V30 4053 H 381.316 -2.40187 1.8586 0
M  V30 4054 H 378.901 -1.1402 0.965394 0
M  V30 4055 H 380.783 -4.20923 0.200382 0
M  V30 4056 H 379.458 -3.20559 -0.449876 0
M  V30 4057 H 378.365 -3.24172 1.86716 0
M  V30 4058 H 379.698 -4.2749 2.43953 0
M  V30 4059 N 381.35 -0.985608 -1.22978 0
M  V30 4060 C 382.28 -0.549649 -2.26939 0
M  V30 4061 C 383.261 0.419803 -1.64838 0
M  V30 4062 O 384.446 0.31203 -1.91677 0
M  V30 4063 C 381.576 0.143652 -3.47003 0
M  V30 4064 C 380.53 -0.743606 -4.21491 0
M  V30 4065 C 379.856 0.0822027 -5.34637 0
M  V30 4066 C 381.156 -2.03694 -4.80943 0
M  V30 4067 H 382.85 -1.41862 -2.63658 0
M  V30 4068 H 380.396 -0.683571 -1.26741 0
M  V30 4069 H 382.349 0.459985 -4.18882 0
M  V30 4070 H 381.073 1.04711 -3.09359 0
M  V30 4071 H 379.732 -1.04347 -3.51436 0
M  V30 4072 H 379.38 0.986359 -4.93234 0
M  V30 4073 H 379.08 -0.508377 -5.85397 0
M  V30 4074 H 380.604 0.392797 -6.09335 0
M  V30 4075 H 382.018 -1.78504 -5.44802 0
M  V30 4076 H 380.415 -2.57573 -5.42011 0
M  V30 4077 H 381.485 -2.72042 -4.01399 0
M  V30 4078 N 382.828 1.3818 -0.7579 0
M  V30 4079 C 383.791 2.28764 -0.141286 0
M  V30 4080 C 384.791 1.47388 0.642907 0
M  V30 4081 O 385.981 1.67781 0.468536 0
M  V30 4082 C 383.113 3.31184 0.808069 0
M  V30 4083 H 384.306 2.848 -0.939633 0
M  V30 4084 H 381.859 1.47212 -0.525191 0
M  V30 4085 H 382.594 2.80247 1.63193 0
M  V30 4086 H 382.379 3.91314 0.248104 0
M  V30 4087 H 383.869 3.98909 1.23536 0
M  V30 4088 N 384.306 0.507319 1.49211 0
M  V30 4089 C 385.555 -0.0368315 2.01666 0
M  V30 4090 C 385.868 -1.37459 1.39156 0
M  V30 4091 O 387.074 -2.00579 1.82976 0
M  V30 4092 C 385.53 -0.116089 3.59713 0
M  V30 4093 C 385.138 1.2154 4.31198 0
M  V30 4094 C 386.882 -0.610268 4.2009 0
M  V30 4095 C 384.789 1.09796 5.81119 0
M  V30 4096 H 383.719 -0.0175376 0.753796 0
M  V30 4097 H 386.37 0.647691 1.71689 0
M  V30 4098 H 384.752 -0.8652 3.86433 0
M  V30 4099 H 385.926 1.9783 4.16173 0
M  V30 4100 H 384.241 1.64352 3.82593 0
M  V30 4101 H 386.838 -0.715742 5.29888 0
M  V30 4102 H 387.181 -1.61064 3.8388 0
M  V30 4103 H 387.714 0.0824916 3.97714 0
M  V30 4104 H 384.453 2.0728 6.21864 0
M  V30 4105 H 383.973 0.376058 5.9862 0
M  V30 4106 H 385.652 0.779281 6.4229 0
M  V30 4107 N 385.784 -1.5574 0.241426 0
M  V30 4108 C 386.714 -2.24133 -0.654722 0
M  V30 4109 C 387.695 -1.21974 -1.1856 0
M  V30 4110 O 388.88 -1.50612 -1.22595 0
M  V30 4111 C 386.01 -2.93659 -1.85423 0
M  V30 4112 C 384.964 -4.0246 -1.45636 0
M  V30 4113 C 384.29 -4.59383 -2.73626 0
M  V30 4114 C 385.59 -5.18468 -0.631506 0
M  V30 4115 H 387.284 -2.99281 -0.0844353 0
M  V30 4116 H 384.83 -1.43947 -0.0391707 0
M  V30 4117 H 386.783 -3.40203 -2.48676 0
M  V30 4118 H 385.507 -2.15991 -2.44981 0
M  V30 4119 H 384.166 -3.56676 -0.847202 0
M  V30 4120 H 383.814 -3.78422 -3.3137 0
M  V30 4121 H 383.514 -5.32826 -2.4773 0
M  V30 4122 H 385.038 -5.08658 -3.37786 0
M  V30 4123 H 386.452 -5.61272 -1.1682 0
M  V30 4124 H 384.849 -5.98266 -0.468831 0
M  V30 4125 H 385.919 -4.8358 0.357506 0
M  V30 4126 N 387.262 0.0317525 -1.57568 0
M  V30 4127 C 388.673 0.578692 -1.77505 0
M  V30 4128 C 389.024 1.75749 -0.872164 0
M  V30 4129 O 388.149 2.16298 -0.0663106 0
M  V30 4130 C 388.744 1.05658 -3.21904 0
M  V30 4131 C 387.303 1.54906 -3.43047 0
M  V30 4132 C 386.45 0.485939 -2.73009 0
M  V30 4133 H 389.401 -0.194475 -1.57504 0
M  V30 4134 H 389.422 1.92404 -3.28269 0
M  V30 4135 H 388.934 0.198422 -3.87592 0
M  V30 4136 H 387.035 2.42915 -2.82529 0
M  V30 4137 H 387.148 1.59841 -4.5165 0
M  V30 4138 H 385.512 0.940354 -2.36705 0
M  V30 4139 H 386.295 -0.362709 -3.41379 0
M  V30 4140 N 388.74 1.54641 0.303973 0
M  V30 4141 C 390.151 1.64811 0.877163 0
M  V30 4142 C 390.502 0.554838 1.88191 0
M  V30 4143 O 389.627 -0.309033 2.14182 0
M  V30 4144 C 390.222 2.9876 1.59775 0
M  V30 4145 C 388.781 3.11061 2.11938 0
M  V30 4146 C 387.928 2.60479 0.951097 0
M  V30 4147 H 390.879 1.58493 0.0810486 0
M  V30 4148 H 390.9 2.90017 2.46314 0
M  V30 4149 H 390.412 3.7831 0.866226 0
M  V30 4150 H 388.513 2.36225 2.88146 0
M  V30 4151 H 388.626 4.17171 2.35595 0
M  V30 4152 H 386.99 2.16859 1.33583 0
M  V30 4153 H 387.773 3.42504 0.233581 0
M  V30 4154 N 390.218 -0.567019 1.47046 0
M  V30 4155 C 391.443 -1.3551 1.57009 0
M  V30 4156 C 391.868 -1.86841 0.217259 0
M  V30 4157 O 391.226 -1.62435 -0.805268 0
M  V30 4158 C 391.274 -2.50777 2.5912 0
M  V30 4159 O 390.378 -3.52706 2.13711 0
M  V30 4160 H 389.719 -0.402919 0.52778 0
M  V30 4161 H 392.249 -0.686241 1.92748 0
M  V30 4162 H 392.259 -2.97481 2.79229 0
M  V30 4163 H 390.934 -2.12771 3.57353 0
M  V30 4164 H 389.511 -3.12374 2.03659 0
M  V30 4165 N 391.696 -1.35014 -0.812953 0
M  V30 4166 C 392.973 -1.18502 -1.55617 0
M  V30 4167 C 393.353 0.238421 -2.09749 0
M  V30 4168 O 392.701 1.2411 -1.91857 0
M  V30 4169 C 392.911 -2.24783 -2.66971 0
M  V30 4170 C 394.259 -2.60268 -3.35478 0
M  V30 4171 O 395.283 -2.23648 -2.77236 0
M  V30 4172 O 394.142 -3.2321 -4.40678 0
M  V30 4173 H 391.236 -0.459984 -0.687272 0
M  V30 4174 H 393.782 -1.46677 -0.853464 0
M  V30 4175 H 392.554 -3.20284 -2.24798 0
M  V30 4176 H 392.177 -1.97841 -3.44884 0
M  V30 4177 N 393.175 1.03435 -1.18907 0
M  V30 4178 C 394.423 1.76394 -0.986382 0
M  V30 4179 C 394.744 1.88883 0.484567 0
M  V30 4180 O 394.014 1.41843 1.3512 0
M  V30 4181 H 392.594 0.65344 -0.361975 0
M  V30 4182 H 395.256 1.248 -1.49703 0
M  V30 4183 H 394.352 2.77424 -1.42978 0
M  V30 4184 N 394.653 0.992116 1.22453 0
M  V30 4185 C 395.563 0.55065 2.28046 0
M  V30 4186 C 396.579 -0.400189 1.69335 0
M  V30 4187 O 397.755 -0.267215 1.99619 0
M  V30 4188 C 394.82 -0.128496 3.46462 0
M  V30 4189 C 393.881 0.865208 4.20491 0
M  V30 4190 C 393.114 0.218377 5.33253 0
M  V30 4191 O 393.337 -0.987894 5.6178 0
M  V30 4192 O 392.271 0.922845 5.94783 0
M  V30 4193 H 396.097 1.4291 2.67975 0
M  V30 4194 H 393.682 0.760326 1.28606 0
M  V30 4195 H 395.564 -0.508947 4.18315 0
M  V30 4196 H 394.239 -0.981526 3.0846 0
M  V30 4197 H 393.146 1.29658 3.50913 0
M  V30 4198 H 394.479 1.68741 4.62371 0
M  V30 4199 N 396.131 -1.37776 0.765217 0
M  V30 4200 C 397.063 -2.28958 0.105361 0
M  V30 4201 C 398.076 -1.48316 -0.67128 0
M  V30 4202 O 399.265 -1.71046 -0.51045 0
M  V30 4203 C 396.365 -3.27421 -0.874569 0
M  V30 4204 C 395.538 -4.37132 -0.153123 0
M  V30 4205 C 394.597 -5.1571 -1.04547 0
M  V30 4206 O 393.623 -5.66896 -0.511672 0
M  V30 4207 N 394.825 -5.29808 -2.37243 0
M  V30 4208 H 397.59 -2.86227 0.888495 0
M  V30 4209 H 395.151 -1.49682 0.617 0
M  V30 4210 H 397.143 -3.7687 -1.47483 0
M  V30 4211 H 395.713 -2.70967 -1.55871 0
M  V30 4212 H 394.933 -3.89166 0.627975 0
M  V30 4213 H 396.221 -5.07625 0.345643 0
M  V30 4214 H 395.619 -4.89793 -2.83054 0
M  V30 4215 H 394.176 -5.82589 -2.9229 0
M  V30 4216 N 397.609 -0.515225 -1.4894 0
M  V30 4217 C 398.856 0.024215 -2.02486 0
M  V30 4218 C 399.184 1.35671 -1.39368 0
M  V30 4219 O 398.439 1.88566 -0.523574 0
M  V30 4220 C 398.738 0.210595 -3.56779 0
M  V30 4221 C 398.404 -1.04569 -4.38607 0
M  V30 4222 C 397.066 -1.39002 -4.60686 0
M  V30 4223 C 399.418 -1.88008 -4.86109 0
M  V30 4224 C 396.746 -2.568 -5.27514 0
M  V30 4225 C 399.098 -3.04972 -5.54234 0
M  V30 4226 C 397.762 -3.39768 -5.74555 0
M  V30 4227 H 397.032 0.00886088 -0.740947 0
M  V30 4228 H 399.679 -0.678263 -1.79086 0
M  V30 4229 H 397.984 0.99572 -3.78936 0
M  V30 4230 H 399.681 0.642659 -3.95817 0
M  V30 4231 H 396.271 -0.767497 -4.21672 0
M  V30 4232 H 400.455 -1.62719 -4.68867 0
M  V30 4233 H 395.711 -2.8398 -5.41447 0
M  V30 4234 H 399.885 -3.69943 -5.90013 0
M  V30 4235 H 397.512 -4.31148 -6.26112 0
M  V30 4236 N 399.087 1.5561 -0.249682 0
M  V30 4237 C 400.017 2.24477 0.642826 0
M  V30 4238 C 400.998 1.22601 1.17911 0
M  V30 4239 O 402.183 1.5126 1.21795 0
M  V30 4240 C 399.313 2.94638 1.83863 0
M  V30 4241 C 398.267 4.03227 1.435 0
M  V30 4242 C 397.593 4.60828 2.71186 0
M  V30 4243 C 398.893 5.18796 0.604002 0
M  V30 4244 H 400.587 2.99321 0.0685625 0
M  V30 4245 H 398.133 1.43965 0.0315363 0
M  V30 4246 H 400.086 3.41517 2.46868 0
M  V30 4247 H 398.81 2.17287 2.43832 0
M  V30 4248 H 397.469 3.57121 0.828275 0
M  V30 4249 H 397.117 3.80174 3.29358 0
M  V30 4250 H 396.817 5.34132 2.44901 0
M  V30 4251 H 398.341 5.10442 3.35084 0
M  V30 4252 H 399.755 5.61883 1.13842 0
M  V30 4253 H 398.152 5.98506 0.437097 0
M  V30 4254 H 399.222 4.83384 -0.383147 0
M  V30 4255 N 400.565 -0.0233959 1.57583 0
M  V30 4256 C 401.498 -1.05549 2.02323 0
M  V30 4257 C 402.476 -1.34843 0.908626 0
M  V30 4258 O 403.66 -1.47404 1.17491 0
M  V30 4259 C 400.787 -2.38885 2.40108 0
M  V30 4260 C 399.833 -2.2541 3.62067 0
M  V30 4261 S 400.666 -1.60217 5.1097 0
M  V30 4262 C 401.822 -2.95032 5.52003 0
M  V30 4263 H 402.055 -0.674435 2.89549 0
M  V30 4264 H 399.588 -0.23355 1.52623 0
M  V30 4265 H 401.546 -3.15562 2.62547 0
M  V30 4266 H 400.207 -2.74137 1.53323 0
M  V30 4267 H 399.4 -3.23854 3.86179 0
M  V30 4268 H 399.002 -1.56876 3.39508 0
M  V30 4269 H 401.294 -3.91357 5.53033 0
M  V30 4270 H 402.237 -2.75646 6.52246 0
M  V30 4271 H 402.645 -2.97865 4.79517 0
M  V30 4272 N 402.043 -1.548 -0.295768 0
M  V30 4273 C 402.991 -1.86874 -1.38495 0
M  V30 4274 C 403.985 -0.742938 -1.52239 0
M  V30 4275 O 405.191 -0.926999 -1.54294 0
M  V30 4276 H 401.566 -0.592786 -0.462719 0
M  V30 4277 H 403.537 -2.77904 -1.08682 0
M  V30 4278 C 402.286 -2.13732 -2.74252 0
M  V30 4279 H 401.609 -2.99835 -2.64459 0
M  V30 4280 H 403.049 -2.4011 -3.49461 0
M  V30 4281 C 401.508 -0.937539 -3.23592 0
M  V30 4282 O 402.038 -0.160665 -4.01379 0
M  V30 4283 N 400.244 -0.741478 -2.80981 0
M  V30 4284 H 399.791 -1.37489 -2.1784 0
M  V30 4285 H 399.749 0.0597103 -3.14343 0
M  V30 4286 N 403.521 0.559213 -1.47345 0
M  V30 4287 C 404.769 1.31388 -1.53563 0
M  V30 4288 C 405.09 1.93985 -0.198678 0
M  V30 4289 O 404.36 1.79825 0.777167 0
M  V30 4290 H 402.94 0.487901 -0.565652 0
M  V30 4291 H 405.602 0.65315 -1.8363 0
M  V30 4292 H 404.698 2.10844 -2.30111 0
M  V30 4293 N 404.999 1.35443 0.805782 0
M  V30 4294 C 406.229 1.31687 1.59192 0
M  V30 4295 C 406.637 -0.10756 1.88894 0
M  V30 4296 O 405.98 -1.07017 1.49309 0
M  V30 4297 C 406.042 2.05686 2.94845 0
M  V30 4298 C 405.706 3.54868 2.87954 0
M  V30 4299 C 406.703 4.49444 2.61335 0
M  V30 4300 C 404.388 3.97528 3.07046 0
M  V30 4301 C 406.382 5.84655 2.53885 0
M  V30 4302 C 404.069 5.32833 2.99219 0
M  V30 4303 C 405.067 6.26209 2.72674 0
M  V30 4304 O 404.755 7.59032 2.64811 0
M  V30 4305 H 404.487 0.453878 0.50097 0
M  V30 4306 H 407.041 1.78892 1.0093 0
M  V30 4307 H 405.271 1.5312 3.55093 0
M  V30 4308 H 406.96 1.94998 3.55993 0
M  V30 4309 H 407.726 4.17804 2.46303 0
M  V30 4310 H 403.605 3.25233 3.26718 0
M  V30 4311 H 407.149 6.57508 2.33086 0
M  V30 4312 H 403.046 5.64087 3.13809 0
M  V30 4313 H 403.814 7.68967 2.80413 0
M  V30 4314 N 406.477 -1.02803 1.19454 0
M  V30 4315 C 407.407 -2.12999 0.956758 0
M  V30 4316 C 408.388 -1.69743 -0.110188 0
M  V30 4317 O 409.573 -1.94148 0.0450038 0
M  V30 4318 C 406.703 -3.43746 0.495553 0
M  V30 4319 C 405.657 -4.00688 1.50443 0
M  V30 4320 C 404.983 -5.27067 0.900275 0
M  V30 4321 C 406.283 -4.35397 2.8849 0
M  V30 4322 H 407.977 -2.33148 1.87836 0
M  V30 4323 H 405.523 -1.12045 0.904539 0
M  V30 4324 H 407.476 -4.2021 0.316493 0
M  V30 4325 H 406.2 -3.23321 -0.461646 0
M  V30 4326 H 404.859 -3.2632 1.67065 0
M  V30 4327 H 404.507 -5.02959 -0.064503 0
M  V30 4328 H 404.207 -5.66127 1.57397 0
M  V30 4329 H 405.731 -6.06196 0.73203 0
M  V30 4330 H 407.145 -5.02795 2.75446 0
M  V30 4331 H 405.542 -4.85541 3.52661 0
M  V30 4332 H 406.612 -3.44662 3.41081 0
M  V30 4333 N 407.956 -0.998596 -1.21925 0
M  V30 4334 C 409.181 -0.696015 -1.95372 0
M  V30 4335 C 409.606 0.733826 -1.73195 0
M  V30 4336 O 408.964 1.50242 -1.01474 0
M  V30 4337 C 409.012 -1.01466 -3.4603 0
M  V30 4338 O 408.116 -0.116415 -4.12236 0
M  V30 4339 H 407.457 -0.259938 -0.611006 0
M  V30 4340 H 409.987 -1.33711 -1.54863 0
M  V30 4341 H 409.997 -0.958855 -3.96573 0
M  V30 4342 H 408.672 -2.05653 -3.61497 0
M  V30 4343 H 407.249 -0.228193 -3.72201 0
M  V30 4344 N 409.434 1.37368 -0.772513 0
M  V30 4345 C 410.367 2.27956 -0.105593 0
M  V30 4346 C 411.345 1.46362 0.708295 0
M  V30 4347 O 412.529 1.75695 0.682895 0
M  V30 4348 C 409.656 3.27687 0.856686 0
M  V30 4349 C 408.702 4.26312 0.1267 0
M  V30 4350 S 409.535 5.22206 -1.1858 0
M  V30 4351 C 410.691 6.25488 -0.227081 0
M  V30 4352 H 410.924 2.84171 -0.87372 0
M  V30 4353 H 408.457 1.43654 -0.565939 0
M  V30 4354 H 410.415 3.85653 1.40648 0
M  V30 4355 H 409.076 2.70417 1.59793 0
M  V30 4356 H 408.269 4.96674 0.856212 0
M  V30 4357 H 407.871 3.72339 -0.352117 0
M  V30 4358 H 410.163 6.74836 0.600231 0
M  V30 4359 H 411.106 7.02371 -0.898899 0
M  V30 4360 H 411.514 5.64267 0.162053 0
M  V30 4361 N 410.912 0.523116 1.48665 0
M  V30 4362 C 412.142 -0.00961724 2.06598 0
M  V30 4363 C 412.55 -1.29333 1.38093 0
M  V30 4364 O 411.893 -1.77846 0.46007 0
M  V30 4365 C 411.955 -0.311135 3.58151 0
M  V30 4366 C 411.619 0.878092 4.48485 0
M  V30 4367 C 412.616 1.77464 4.88674 0
M  V30 4368 C 410.301 1.08315 4.90483 0
M  V30 4369 C 412.295 2.86021 5.69623 0
M  V30 4370 C 409.982 2.17187 5.71203 0
M  V30 4371 C 410.98 3.05873 6.10681 0
M  V30 4372 O 410.668 4.12862 6.89783 0
M  V30 4373 H 410.4 0.0272658 0.67545 0
M  V30 4374 H 412.954 0.726156 1.92136 0
M  V30 4375 H 411.184 -1.10079 3.70701 0
M  V30 4376 H 412.873 -0.785125 3.98234 0
M  V30 4377 H 413.639 1.62813 4.56855 0
M  V30 4378 H 409.518 0.402149 4.59243 0
M  V30 4379 H 413.062 3.55272 6.00356 0
M  V30 4380 H 408.959 2.31824 6.02435 0
M  V30 4381 H 409.727 4.10487 7.08126 0
M  V30 4382 N 412.39 -1.55475 0.257931 0
M  V30 4383 C 413.638 -1.98813 -0.363009 0
M  V30 4384 C 413.959 -1.14757 -1.57657 0
M  V30 4385 O 413.229 -0.232956 -1.9451 0
M  V30 4386 H 411.809 -0.734308 -0.137113 0
M  V30 4387 H 414.471 -1.9156 0.359281 0
M  V30 4388 H 413.567 -3.04941 -0.664634 0
M  V30 4389 N 413.868 0.0150385 -1.57593 0
M  V30 4390 C 414.815 1.01126 -2.07466 0
M  V30 4391 C 415.785 1.35064 -0.966794 0
M  V30 4392 O 416.97 1.4516 -1.23827 0
M  V30 4393 C 414.11 2.30276 -2.57035 0
M  V30 4394 C 413.223 2.02373 -3.81666 0
M  V30 4395 C 412.358 3.25496 -4.19793 0
M  V30 4396 C 411.397 2.93211 -5.37303 0
M  V30 4397 N 410.534 4.08826 -5.70794 0
M  V30 4398 H 415.374 0.57901 -2.92321 0
M  V30 4399 H 412.911 0.27426 -1.44521 0
M  V30 4400 H 414.869 3.05757 -2.83846 0
M  V30 4401 H 413.499 2.71197 -1.75077 0
M  V30 4402 H 412.551 1.17327 -3.61854 0
M  V30 4403 H 413.863 1.74567 -4.67256 0
M  V30 4404 H 413.017 4.09333 -4.47807 0
M  V30 4405 H 411.756 3.56428 -3.32882 0
M  V30 4406 H 410.761 2.07777 -5.09027 0
M  V30 4407 H 411.986 2.63542 -6.25877 0
M  V30 4408 H 409.932 4.39682 -4.86842 0
M  V30 4409 H 409.849 3.84491 -6.50924 0
M  V30 4410 H 411.117 4.93496 -6.03392 0
M  V30 4411 N 415.346 1.54954 0.287554 0
M  V30 4412 C 416.623 1.65569 1.04146 0
M  V30 4413 C 417.003 0.512672 2.0478 0
M  V30 4414 O 416.351 -0.489038 2.23205 0
M  V30 4415 C 416.561 3.04163 1.71131 0
M  V30 4416 C 417.909 3.61429 2.22832 0
M  V30 4417 O 418.933 3.06702 1.81141 0
M  V30 4418 O 417.792 4.57281 2.9926 0
M  V30 4419 H 414.886 0.671881 0.482188 0
M  V30 4420 H 417.432 1.67297 0.28457 0
M  V30 4421 H 416.204 3.78796 0.981303 0
M  V30 4422 H 415.827 3.06271 2.53543 0
M  V30 4423 N 416.824 -0.551391 1.4764 0
M  V30 4424 C 418.054 -1.33163 1.57959 0
M  V30 4425 C 418.462 -1.87785 0.23094 0
M  V30 4426 O 417.805 -1.65996 -0.786825 0
M  V30 4427 C 417.867 -2.53449 2.54958 0
M  V30 4428 C 417.531 -2.20071 4.00522 0
M  V30 4429 C 418.528 -1.77017 4.88836 0
M  V30 4430 C 416.213 -2.31252 4.45901 0
M  V30 4431 C 418.207 -1.4558 6.20552 0
M  V30 4432 C 415.894 -1.99427 5.77644 0
M  V30 4433 C 416.892 -1.56659 6.64791 0
M  V30 4434 O 416.58 -1.25242 7.94084 0
M  V30 4435 H 416.312 -0.412022 0.535923 0
M  V30 4436 H 418.866 -0.674186 1.9402 0
M  V30 4437 H 417.096 -3.22104 2.13976 0
M  V30 4438 H 418.785 -3.15523 2.55343 0
M  V30 4439 H 419.551 -1.67867 4.55023 0
M  V30 4440 H 415.43 -2.63498 3.78272 0
M  V30 4441 H 418.974 -1.12125 6.8853 0
M  V30 4442 H 414.871 -2.08211 6.10998 0
M  V30 4443 H 415.639 -1.38822 8.06642 0
M  V30 4444 N 418.302 -1.35869 -0.798587 0
M  V30 4445 C 419.232 -1.32118 -1.92528 0
M  V30 4446 C 420.213 -0.194209 -1.68988 0
M  V30 4447 O 421.398 -0.390426 -1.90235 0
M  V30 4448 C 418.528 -1.10047 -3.29404 0
M  V30 4449 C 417.482 -2.19471 -3.67446 0
M  V30 4450 C 416.808 -1.82555 -5.02571 0
M  V30 4451 C 418.108 -3.61495 -3.76987 0
M  V30 4452 H 419.802 -2.26394 -1.95924 0
M  V30 4453 H 417.348 -1.08981 -0.94123 0
M  V30 4454 H 419.301 -1.06061 -4.07835 0
M  V30 4455 H 418.025 -0.122195 -3.26371 0
M  V30 4456 H 416.684 -2.22568 -2.91306 0
M  V30 4457 H 416.332 -0.833249 -4.9605 0
M  V30 4458 H 416.032 -2.5581 -5.28995 0
M  V30 4459 H 417.556 -1.80108 -5.83432 0
M  V30 4460 H 418.97 -3.60676 -4.4563 0
M  V30 4461 H 417.367 -4.33577 -4.14887 0
M  V30 4462 H 418.437 -3.97065 -2.78329 0
M  V30 4463 N 419.78 1.02168 -1.19998 0
M  V30 4464 C 420.69 2.14069 -0.959774 0
M  V30 4465 C 421.706 1.73804 0.082655 0
M  V30 4466 O 422.882 2.01133 -0.103633 0
M  V30 4467 C 419.947 3.42936 -0.509459 0
M  V30 4468 C 419.008 3.97474 -1.62213 0
M  V30 4469 C 418.241 5.2019 -1.19321 0
M  V30 4470 O 418.464 5.70369 -0.0597726 0
M  V30 4471 O 417.398 5.67749 -1.99863 0
M  V30 4472 H 421.224 2.37199 -1.89658 0
M  V30 4473 H 418.809 1.12469 -0.983411 0
M  V30 4474 H 420.691 4.20551 -0.267322 0
M  V30 4475 H 419.366 3.21234 0.398821 0
M  V30 4476 H 418.273 3.21161 -1.9185 0
M  V30 4477 H 419.606 4.23555 -2.50723 0
M  V30 4478 N 421.258 1.00505 1.21394 0
M  V30 4479 C 422.504 0.698477 1.91031 0
M  V30 4480 C 422.859 -0.762448 1.76648 0
M  V30 4481 O 422.152 -1.54554 1.13241 0
M  V30 4482 C 422.346 1.0546 3.41486 0
M  V30 4483 C 422.175 2.5486 3.70508 0
M  V30 4484 C 420.945 3.21461 3.8986 0
M  V30 4485 C 423.143 3.53019 3.74008 0
M  V30 4486 N 421.125 4.60211 4.06299 0
M  V30 4487 C 422.496 4.77279 3.95733 0
M  V30 4488 C 424.551 3.47154 3.56915 0
M  V30 4489 C 423.254 5.96388 4.02137 0
M  V30 4490 C 425.28 4.65652 3.64585 0
M  V30 4491 C 424.642 5.88717 3.86771 0
M  V30 4492 H 420.741 0.30707 0.719189 0
M  V30 4493 H 423.325 1.28753 1.46051 0
M  V30 4494 H 421.496 0.494007 3.85246 0
M  V30 4495 H 423.228 0.702765 3.98552 0
M  V30 4496 H 419.983 2.71906 3.87768 0
M  V30 4497 H 420.407 5.32216 4.1842 0
M  V30 4498 H 425.049 2.53015 3.38738 0
M  V30 4499 H 422.767 6.90919 4.19114 0
M  V30 4500 H 426.353 4.62717 3.52681 0
M  V30 4501 H 425.233 6.78877 3.92549 0
M  V30 4502 N 422.737 -1.36956 0.779787 0
M  V30 4503 C 423.967 -2.03459 0.358877 0
M  V30 4504 C 424.375 -1.58939 -1.02641 0
M  V30 4505 O 423.718 -0.769777 -1.66794 0
M  V30 4506 C 423.78 -3.5796 0.332393 0
M  V30 4507 C 423.444 -4.25644 1.66362 0
M  V30 4508 C 424.441 -4.49205 2.61746 0
M  V30 4509 C 422.126 -4.63313 1.94027 0
M  V30 4510 C 424.12 -5.09503 3.82996 0
M  V30 4511 C 421.807 -5.2333 3.15546 0
M  V30 4512 C 422.805 -5.46363 4.0985 0
M  V30 4513 O 422.493 -6.05122 5.29228 0
M  V30 4514 H 422.225 -0.659767 0.147254 0
M  V30 4515 H 424.779 -1.76111 1.05708 0
M  V30 4516 H 423.009 -3.84388 -0.422237 0
M  V30 4517 H 424.698 -4.05852 -0.0625389 0
M  V30 4518 H 425.464 -4.20508 2.41657 0
M  V30 4519 H 421.343 -4.44715 1.21448 0
M  V30 4520 H 424.887 -5.27397 4.56617 0
M  V30 4521 H 420.784 -5.51451 3.35517 0
M  V30 4522 H 421.552 -6.23595 5.30161 0
M  V30 4523 N 424.215 -0.530993 -1.48385 0
M  V30 4524 C 425.147 0.268353 -2.27624 0
M  V30 4525 C 426.16 0.903525 -1.35426 0
M  V30 4526 O 427.349 0.781796 -1.60469 0
M  V30 4527 C 424.449 1.39535 -3.08842 0
M  V30 4528 C 423.622 0.861913 -4.28824 0
M  V30 4529 C 422.681 1.87016 -4.91845 0
M  V30 4530 O 421.707 1.4267 -5.5103 0
M  V30 4531 N 422.909 3.20238 -4.84178 0
M  V30 4532 H 425.674 -0.41123 -2.96865 0
M  V30 4533 H 423.235 -0.365387 -1.57723 0
M  V30 4534 H 425.227 2.06803 -3.47871 0
M  V30 4535 H 423.797 1.97859 -2.42014 0
M  V30 4536 H 423.017 0.0132126 -3.94198 0
M  V30 4537 H 424.305 0.484415 -5.06489 0
M  V30 4538 H 423.703 3.58932 -4.37246 0
M  V30 4539 H 422.26 3.83136 -5.27305 0
M  V30 4540 N 425.693 1.55336 -0.266172 0
M  V30 4541 C 426.941 1.99003 0.35246 0
M  V30 4542 C 427.262 1.15591 1.57047 0
M  V30 4543 O 426.532 0.243268 1.94384 0
M  V30 4544 H 425.112 0.735025 0.133217 0
M  V30 4545 H 427.774 1.91367 -0.369434 0
M  V30 4546 H 426.87 3.05289 0.648453 0
M  V30 4547 N 427.171 -0.0066808 1.57599 0
M  V30 4548 C 428.42 -0.692078 1.89455 0
M  V30 4549 C 428.733 -1.75306 0.867586 0
M  V30 4550 O 429.939 -2.49262 1.07614 0
M  V30 4551 C 428.395 -1.2821 3.36289 0
M  V30 4552 C 428.003 -0.256291 4.47266 0
M  V30 4553 C 429.747 -1.94608 3.77264 0
M  V30 4554 C 427.654 -0.855927 5.85173 0
M  V30 4555 H 426.584 -0.262252 0.706923 0
M  V30 4556 H 429.235 0.052769 1.83424 0
M  V30 4557 H 427.617 -2.0774 3.37135 0
M  V30 4558 H 428.791 0.513923 4.57925 0
M  V30 4559 H 427.106 0.306862 4.15268 0
M  V30 4560 H 429.703 -2.40364 4.77629 0
M  V30 4561 H 430.046 -2.77382 3.10427 0
M  V30 4562 H 430.579 -1.21822 3.78688 0
M  V30 4563 H 427.318 -0.0671161 6.55466 0
M  V30 4564 H 426.838 -1.59546 5.78191 0
M  V30 4565 H 428.517 -1.35658 6.32618 0
M  V30 4566 N 428.649 -1.55105 -0.279332 0
M  V30 4567 C 429.579 -1.90557 -1.34945 0
M  V30 4568 C 430.56 -0.766738 -1.51839 0
M  V30 4569 O 431.745 -1.02434 -1.64988 0
M  V30 4570 C 428.875 -2.17193 -2.71006 0
M  V30 4571 C 427.829 -3.33021 -2.68851 0
M  V30 4572 C 427.155 -3.45123 -4.08405 0
M  V30 4573 C 428.455 -4.69578 -2.28678 0
M  V30 4574 H 430.149 -2.80188 -1.05522 0
M  V30 4575 H 427.695 -1.34811 -0.506173 0
M  V30 4576 H 429.648 -2.40581 -3.45975 0
M  V30 4577 H 428.372 -1.24355 -3.01999 0
M  V30 4578 H 427.031 -3.0959 -1.9634 0
M  V30 4579 H 426.679 -2.49762 -4.3661 0
M  V30 4580 H 426.379 -4.22995 -4.07859 0
M  V30 4581 H 427.903 -3.70796 -4.85121 0
M  V30 4582 H 429.317 -4.92553 -2.93368 0
M  V30 4583 H 427.714 -5.5032 -2.39306 0
M  V30 4584 H 428.784 -4.68828 -1.23807 0
M  V30 4585 N 430.127 0.543554 -1.4793 0
M  V30 4586 C 431.037 1.67657 -1.64098 0
M  V30 4587 C 432.053 1.65934 -0.523622 0
M  V30 4588 O 433.229 1.85133 -0.792943 0
M  V30 4589 C 430.294 3.04146 -1.66421 0
M  V30 4590 C 429.355 3.16831 -2.89684 0
M  V30 4591 C 428.588 4.46809 -2.91886 0
M  V30 4592 O 428.811 5.33095 -2.02895 0
M  V30 4593 O 427.745 4.63573 -3.83906 0
M  V30 4594 H 431.571 1.56957 -2.59997 0
M  V30 4595 H 429.156 0.715116 -1.31173 0
M  V30 4596 H 431.038 3.85346 -1.70548 0
M  V30 4597 H 429.713 3.152 -0.736923 0
M  V30 4598 H 428.62 2.34977 -2.91095 0
M  V30 4599 H 429.953 3.10687 -3.81752 0
M  V30 4600 N 431.605 1.3629 0.791371 0
M  V30 4601 C 432.553 1.30514 1.92533 0
M  V30 4602 C 433.547 0.197285 1.68247 0
M  V30 4603 O 434.753 0.364176 1.76278 0
M  V30 4604 H 431.128 0.406263 0.632815 0
M  V30 4605 H 433.099 2.26282 1.94523 0
M  V30 4606 C 431.848 1.10933 3.29529 0
M  V30 4607 H 431.171 1.95427 3.48781 0
M  V30 4608 H 432.611 1.10937 4.0923 0
M  V30 4609 C 431.07 -0.186123 3.36385 0
M  V30 4610 O 431.6 -1.17664 3.84081 0
M  V30 4611 N 429.806 -0.230128 2.89687 0
M  V30 4612 H 429.353 0.576545 2.51065 0
M  V30 4613 H 429.311 -1.09658 2.94657 0
M  V30 4614 N 433.083 -1.0153 1.20538 0
M  V30 4615 C 434.033 -2.08482 0.922991 0
M  V30 4616 C 435.017 -1.60469 -0.117702 0
M  V30 4617 O 436.209 -1.76772 0.0898465 0
M  V30 4618 C 433.338 -3.39952 0.478312 0
M  V30 4619 C 432.424 -3.94662 1.5525 0
M  V30 4620 N 432.815 -4.22866 2.77521 0
M  V30 4621 C 431.113 -4.22825 1.41897 0
M  V30 4622 C 431.814 -4.67002 3.4682 0
M  V30 4623 N 430.79 -4.69356 2.74237 0
M  V30 4624 H 434.592 -2.28199 1.85209 0
M  V30 4625 H 432.106 -1.19512 1.09957 0
M  V30 4626 H 434.103 -4.16105 0.257408 0
M  V30 4627 H 432.763 -3.21648 -0.444148 0
M  V30 4628 H 433.774 -4.11732 3.1416 0
M  V30 4629 H 430.451 -4.13714 0.561015 0
M  V30 4630 H 431.841 -4.97632 4.51455 0
M  V30 4631 N 434.561 -1.01147 -1.20859 0
M  V30 4632 C 435.789 -0.716911 -1.94082 0
M  V30 4633 C 436.204 0.721568 -1.74467 0
M  V30 4634 O 435.561 1.48889 -1.05539 0
M  V30 4635 C 435.612 -1.03662 -3.46318 0
M  V30 4636 O 435.333 -2.4186 -3.65288 0
M  V30 4637 C 436.834 -0.762386 -4.36695 0
M  V30 4638 H 434.054 -0.26367 -0.617024 0
M  V30 4639 H 436.598 -1.35127 -1.53496 0
M  V30 4640 H 434.753 -0.447757 -3.84804 0
M  V30 4641 H 435.167 -2.53224 -4.59323 0
M  V30 4642 H 436.641 -1.03621 -5.42187 0
M  V30 4643 H 437.118 0.303514 -4.3815 0
M  V30 4644 H 437.724 -1.33316 -4.03865 0
M  V30 4645 N 436.039 1.36541 -0.78704 0
M  V30 4646 C 436.986 2.30082 -0.181901 0
M  V30 4647 C 437.956 1.5186 0.672896 0
M  V30 4648 O 439.141 1.80374 0.622072 0
M  V30 4649 C 436.281 3.3835 0.679197 0
M  V30 4650 C 435.394 4.31565 -0.193882 0
M  V30 4651 C 434.529 5.26915 0.673364 0
M  V30 4652 C 433.568 6.11769 -0.201315 0
M  V30 4653 N 432.705 6.99315 0.624777 0
M  V30 4654 H 437.545 2.81248 -0.985064 0
M  V30 4655 H 435.082 1.38437 -0.497342 0
M  V30 4656 H 437.04 3.99767 1.19341 0
M  V30 4657 H 435.67 2.8851 1.44781 0
M  V30 4658 H 434.722 3.71323 -0.826044 0
M  V30 4659 H 436.034 4.91191 -0.867937 0
M  V30 4660 H 435.188 5.9361 1.25348 0
M  V30 4661 H 433.927 4.67737 1.38105 0
M  V30 4662 H 432.932 5.44039 -0.793849 0
M  V30 4663 H 434.157 6.73022 -0.906568 0
M  V30 4664 H 432.103 6.42648 1.3168 0
M  V30 4665 H 432.02 7.56 0.00835237 0
M  V30 4666 H 433.288 7.70382 1.18879 0
M  V30 4667 N 437.518 0.538854 1.48102 0
M  V30 4668 C 438.448 -0.207654 2.32575 0
M  V30 4669 C 439.429 -0.926559 1.4265 0
M  V30 4670 O 440.614 -0.91061 1.71527 0
M  V30 4671 C 437.744 -1.24957 3.24042 0
M  V30 4672 C 436.698 -0.648263 4.23062 0
M  V30 4673 C 436.024 -1.79348 5.03725 0
M  V30 4674 C 437.324 0.385897 5.20872 0
M  V30 4675 H 439.018 0.497534 2.95237 0
M  V30 4676 H 436.564 0.240715 1.41974 0
M  V30 4677 H 438.517 -1.77983 3.81969 0
M  V30 4678 H 437.241 -1.98446 2.59397 0
M  V30 4679 H 435.9 -0.139452 3.66335 0
M  V30 4680 H 435.548 -2.51696 4.35498 0
M  V30 4681 H 435.248 -1.39702 5.70751 0
M  V30 4682 H 436.772 -2.32735 5.64506 0
M  V30 4683 H 438.186 -0.057607 5.73271 0
M  V30 4684 H 436.583 0.700227 5.96001 0
M  V30 4685 H 437.653 1.28848 4.67468 0
M  V30 4686 N 438.996 -1.55193 0.274407 0
M  V30 4687 C 440.245 -1.98758 -0.343213 0
M  V30 4688 C 440.558 -1.16624 -1.5703 0
M  V30 4689 O 441.764 -1.5033 -2.26082 0
M  V30 4690 C 440.22 -3.53759 -0.661996 0
M  V30 4691 C 439.828 -4.4467 0.54524 0
M  V30 4692 C 441.572 -4.05916 -1.24228 0
M  V30 4693 C 439.479 -5.91058 0.201084 0
M  V30 4694 H 438.409 -0.742353 -0.132014 0
M  V30 4695 H 441.06 -1.79545 0.378948 0
M  V30 4696 H 439.442 -3.68772 -1.44304 0
M  V30 4697 H 440.616 -4.41426 1.32212 0
M  V30 4698 H 438.931 -4.03143 1.04232 0
M  V30 4699 H 441.528 -5.12831 -1.51357 0
M  V30 4700 H 441.871 -3.54908 -2.17592 0
M  V30 4701 H 442.404 -3.9434 -0.523542 0
M  V30 4702 H 439.143 -6.46161 1.10258 0
M  V30 4703 H 438.663 -5.97373 -0.539045 0
M  V30 4704 H 440.342 -6.46669 -0.206954 0
M  V30 4705 N 440.474 -0.00167713 -1.576 0
M  V30 4706 C 441.722 0.681471 -1.90264 0
M  V30 4707 C 442.043 1.7422 -0.875924 0
M  V30 4708 O 441.313 1.95709 0.0864412 0
M  V30 4709 H 439.893 0.254696 -0.702239 0
M  V30 4710 H 442.555 -0.0429996 -1.94853 0
M  V30 4711 H 441.651 1.15166 -2.90075 0
M  V30 4712 N 441.952 1.55251 0.271103 0
M  V30 4713 C 442.862 1.9136 1.35714 0
M  V30 4714 C 443.878 0.811075 1.5394 0
M  V30 4715 O 445.054 1.11031 1.6803 0
M  V30 4716 C 442.119 2.1798 2.69603 0
M  V30 4717 C 441.18 3.4153 2.60107 0
M  V30 4718 C 440.413 3.66871 3.8761 0
M  V30 4719 O 440.636 2.94689 4.8838 0
M  V30 4720 O 439.57 4.60405 3.87699 0
M  V30 4721 H 443.396 2.83815 1.08088 0
M  V30 4722 H 440.981 1.41821 0.469792 0
M  V30 4723 H 442.863 2.36518 3.48765 0
M  V30 4724 H 441.538 1.28708 2.97012 0
M  V30 4725 H 440.445 3.28325 1.79314 0
M  V30 4726 H 441.778 4.31027 2.37647 0
M  V30 4727 N 443.43 -0.535701 1.48216 0
M  V30 4728 C 444.36 -1.65014 1.65204 0
M  V30 4729 C 445.341 -1.62554 0.501011 0
M  V30 4730 O 446.526 -1.7984 0.732886 0
M  V30 4731 C 443.656 -3.03616 1.68626 0
M  V30 4732 C 442.61 -3.20932 2.83172 0
M  V30 4733 C 441.936 -4.60537 2.71679 0
M  V30 4734 C 443.236 -3.04249 4.24535 0
M  V30 4735 H 444.93 -1.51053 2.58502 0
M  V30 4736 H 442.476 -0.725262 1.24402 0
M  V30 4737 H 444.429 -3.81446 1.79099 0
M  V30 4738 H 443.153 -3.18587 0.719026 0
M  V30 4739 H 441.812 -2.45517 2.72244 0
M  V30 4740 H 441.46 -4.72336 1.72937 0
M  V30 4741 H 441.16 -4.73069 3.48538 0
M  V30 4742 H 442.684 -5.40475 2.84112 0
M  V30 4743 H 444.098 -3.71877 4.36326 0
M  V30 4744 H 442.495 -3.28278 5.02348 0
M  V30 4745 H 443.565 -2.00739 4.41397 0
M  V30 4746 N 444.908 -1.36708 -0.784132 0
M  V30 4747 C 445.871 -1.31307 -1.87859 0
M  V30 4748 C 446.871 -0.219654 -1.59293 0
M  V30 4749 O 448.061 -0.47476 -1.67606 0
M  V30 4750 C 445.193 -1.03679 -3.24751 0
M  V30 4751 H 446.386 -2.28647 -1.94064 0
M  V30 4752 H 443.939 -1.21558 -0.98252 0
M  V30 4753 H 444.674 -0.0681936 -3.24228 0
M  V30 4754 H 444.459 -1.82811 -3.46876 0
M  V30 4755 H 445.949 -1.02518 -4.04821 0
M  V30 4756 N 446.386 1.0089 -1.21074 0
M  V30 4757 C 447.336 2.0799 -0.934034 0
M  V30 4758 C 448.32 1.60529 0.10919 0
M  V30 4759 O 449.512 1.76722 -0.0992198 0
M  V30 4760 C 446.641 3.39693 -0.496334 0
M  V30 4761 C 445.727 3.93833 -1.57341 0
M  V30 4762 N 446.118 4.21388 -2.7976 0
M  V30 4763 C 444.416 4.22067 -1.44137 0
M  V30 4764 C 445.117 4.65156 -3.49292 0
M  V30 4765 N 444.093 4.67895 -2.76722 0
M  V30 4766 H 447.895 2.27213 -1.86417 0
M  V30 4767 H 445.409 1.18927 -1.10589 0
M  V30 4768 H 447.406 4.15962 -0.279471 0
M  V30 4769 H 446.066 3.21879 0.427084 0
M  V30 4770 H 447.077 4.10061 -3.1634 0
M  V30 4771 H 443.754 4.1341 -0.582947 0
M  V30 4772 H 445.144 4.95231 -4.54088 0
M  V30 4773 N 447.864 1.01787 1.20321 0
M  V30 4774 C 448.812 0.58254 2.25187 0
M  V30 4775 C 449.806 -0.379359 1.65098 0
M  V30 4776 O 451.012 -0.249142 1.78267 0
M  V30 4777 H 447.387 0.170078 0.732514 0
M  V30 4778 H 449.358 1.47788 2.59232 0
M  V30 4779 C 448.107 -0.0620885 3.47645 0
M  V30 4780 H 447.43 0.669069 3.94162 0
M  V30 4781 H 448.87 -0.329784 4.22716 0
M  V30 4782 C 447.329 -1.3053 3.10586 0
M  V30 4783 O 447.859 -2.39848 3.22236 0
M  V30 4784 N 446.065 -1.18988 2.65123 0
M  V30 4785 H 445.612 -0.300341 2.55843 0
M  V30 4786 H 445.57 -2.02267 2.40698 0
M  V30 4787 N 449.342 -1.36122 0.79427 0
M  V30 4788 C 450.305 -2.28309 0.201889 0
M  V30 4789 C 451.305 -1.49041 -0.603603 0
M  V30 4790 O 452.495 -1.68964 -0.423888 0
M  V30 4791 C 449.627 -3.3321 -0.719978 0
M  V30 4792 H 450.82 -2.82208 1.01481 0
M  V30 4793 H 448.373 -1.45768 0.564037 0
M  V30 4794 H 449.108 -2.84475 -1.55706 0
M  V30 4795 H 448.893 -3.91835 -0.144266 0
M  V30 4796 H 450.383 -4.02044 -1.12916 0
M  V30 4797 N 450.82 -0.546701 -1.47814 0
M  V30 4798 C 452.067 -0.0187407 -2.02491 0
M  V30 4799 C 452.395 1.32685 -1.42215 0
M  V30 4800 O 451.65 1.87413 -0.563454 0
M  V30 4801 C 451.949 0.134869 -3.57145 0
M  V30 4802 C 451.615 -1.13849 -4.3629 0
M  V30 4803 C 450.277 -1.48743 -4.57634 0
M  V30 4804 C 452.629 -1.98277 -4.82012 0
M  V30 4805 C 449.957 -2.67932 -5.21948 0
M  V30 4806 C 452.309 -3.16659 -5.4764 0
M  V30 4807 C 450.973 -3.51879 -5.67219 0
M  V30 4808 H 450.243 -0.0068577 -0.740968 0
M  V30 4809 H 452.89 -0.716097 -1.77607 0
M  V30 4810 H 451.195 0.915118 -3.80963 0
M  V30 4811 H 452.892 0.558556 -3.97091 0
M  V30 4812 H 449.482 -0.856767 -4.19949 0
M  V30 4813 H 453.666 -1.72628 -4.6531 0
M  V30 4814 H 448.922 -2.95401 -5.35302 0
M  V30 4815 H 453.096 -3.82374 -5.82033 0
M  V30 4816 H 450.723 -4.44331 -6.16825 0
M  V30 4817 N 452.299 1.55045 -0.282633 0
M  V30 4818 C 453.576 1.9179 0.384166 0
M  V30 4819 C 453.956 1.20778 1.73136 0
M  V30 4820 O 453.304 0.33719 2.25998 0
M  V30 4821 C 453.514 3.45149 0.517014 0
M  V30 4822 C 454.862 4.17064 0.796427 0
M  V30 4823 O 455.886 3.51084 0.601535 0
M  V30 4824 O 454.745 5.33837 1.16962 0
M  V30 4825 H 451.839 0.799483 0.211558 0
M  V30 4826 H 454.385 1.66474 -0.32934 0
M  V30 4827 H 453.157 3.88922 -0.430772 0
M  V30 4828 H 452.78 3.76443 1.2797 0
M  V30 4829 N 453.777 0.010035 1.57597 0
M  V30 4830 C 455.005 -0.683413 1.95287 0
M  V30 4831 C 455.42 -1.66747 0.885481 0
M  V30 4832 O 454.777 -1.82003 -0.134629 0
M  V30 4833 C 454.828 -1.40652 3.33015 0
M  V30 4834 O 454.549 -0.461916 4.35658 0
M  V30 4835 C 456.05 -2.19356 3.85225 0
M  V30 4836 H 453.27 -0.189708 0.643624 0
M  V30 4837 H 455.814 0.0641359 2.04399 0
M  V30 4838 H 453.969 -2.10562 3.2518 0
M  V30 4839 H 454.383 -0.973215 5.15392 0
M  V30 4840 H 455.857 -2.65433 4.83993 0
M  V30 4841 H 456.334 -3.02457 3.18459 0
M  V30 4842 H 456.94 -1.54442 3.96267 0
M  V30 4843 N 455.255 -1.55392 -0.262866 0
M  V30 4844 C 456.483 -1.80513 -1.01108 0
M  V30 4845 C 456.898 -0.583533 -1.79556 0
M  V30 4846 O 456.255 0.447585 -1.76926 0
M  V30 4847 C 456.306 -3.03648 -1.96164 0
M  V30 4848 O 456.027 -4.2109 -1.20893 0
M  V30 4849 C 457.528 -3.41448 -2.82715 0
M  V30 4850 H 454.748 -0.601079 -0.298236 0
M  V30 4851 H 457.292 -2.02425 -0.290582 0
M  V30 4852 H 455.447 -2.83832 -2.63663 0
M  V30 4853 H 455.861 -4.90771 -1.85051 0
M  V30 4854 H 457.335 -4.30751 -3.45192 0
M  V30 4855 H 457.812 -2.61308 -3.53008 0
M  V30 4856 H 458.418 -3.63559 -2.20693 0
M  V30 4857 N 456.733 0.527833 -1.48498 0
M  V30 4858 C 457.98 1.28354 -1.56625 0
M  V30 4859 C 458.308 1.93 -0.241096 0
M  V30 4860 O 457.563 1.79967 0.768798 0
M  V30 4861 C 457.862 2.39275 -2.65485 0
M  V30 4862 C 457.528 1.92268 -4.07853 0
M  V30 4863 C 456.19 1.79166 -4.46602 0
M  V30 4864 C 458.542 1.56771 -4.97064 0
M  V30 4865 C 455.87 1.28905 -5.72364 0
M  V30 4866 C 458.222 1.07972 -6.23318 0
M  V30 4867 C 456.886 0.934887 -6.60921 0
M  V30 4868 H 456.156 0.469682 -0.573131 0
M  V30 4869 H 458.803 0.588781 -1.82224 0
M  V30 4870 H 457.108 3.1443 -2.33754 0
M  V30 4871 H 458.805 2.974 -2.68988 0
M  V30 4872 H 455.395 2.03417 -3.77252 0
M  V30 4873 H 459.579 1.65753 -4.67803 0
M  V30 4874 H 454.835 1.16381 -6.00221 0
M  V30 4875 H 459.009 0.795775 -6.91838 0
M  V30 4876 H 456.636 0.543231 -7.58257 0
M  V30 4877 N 458.211 1.37122 0.776871 0
M  V30 4878 C 459.143 1.28342 1.89897 0
M  V30 4879 C 460.156 0.200277 1.61563 0
M  V30 4880 O 461.345 0.456012 1.72577 0
M  V30 4881 C 458.445 0.960427 3.25006 0
M  V30 4882 C 457.618 2.148 3.81025 0
M  V30 4883 C 456.677 1.79608 4.94598 0
M  V30 4884 O 455.703 2.51845 5.10454 0
M  V30 4885 N 456.905 0.737171 5.758 0
M  V30 4886 H 459.67 2.25027 1.97947 0
M  V30 4887 H 457.231 1.3068 0.955739 0
M  V30 4888 H 459.223 0.705942 3.98495 0
M  V30 4889 H 457.793 0.0823066 3.12492 0
M  V30 4890 H 457.013 2.56454 2.99374 0
M  V30 4891 H 458.301 2.9411 4.15183 0
M  V30 4892 H 457.699 0.137637 5.65533 0
M  V30 4893 H 456.256 0.542534 6.49538 0
M  V30 4894 N 459.689 -1.00246 1.21608 0
M  V30 4895 C 460.935 -1.74319 1.03638 0
M  V30 4896 C 461.268 -1.89408 -0.428749 0
M  V30 4897 O 460.543 -1.43026 -1.3181 0
M  V30 4898 C 460.826 -3.15431 1.73711 0
M  V30 4899 C 460.679 -3.08049 3.27759 0
M  V30 4900 C 461.998 -4.14407 1.48173 0
M  V30 4901 H 459.117 -0.632741 0.377899 0
M  V30 4902 H 461.759 -1.16853 1.49818 0
M  V30 4903 H 459.909 -3.64493 1.34452 0
M  V30 4904 H 461.581 -2.66681 3.76403 0
M  V30 4905 H 459.824 -2.45088 3.57931 0
M  V30 4906 H 460.495 -4.07862 3.71958 0
M  V30 4907 H 462.971 -3.74061 1.82258 0
M  V30 4908 H 461.847 -5.11279 1.99713 0
M  V30 4909 H 462.108 -4.40174 0.412273 0
M  V30 4910 N 461.167 -1.02423 -1.1978 0
M  V30 4911 C 462.578 -0.748389 -1.71044 0
M  V30 4912 C 462.929 0.732398 -1.82017 0
M  V30 4913 O 462.054 1.57116 -1.48807 0
M  V30 4914 C 462.649 -1.35187 -3.1066 0
M  V30 4915 C 461.208 -1.12472 -3.59203 0
M  V30 4916 C 460.355 -1.45283 -2.36195 0
M  V30 4917 H 463.306 -1.19275 -1.04686 0
M  V30 4918 H 463.327 -0.746408 -3.73107 0
M  V30 4919 H 462.839 -2.4296 -3.02642 0
M  V30 4920 H 460.94 -0.0649983 -3.72543 0
M  V30 4921 H 461.053 -1.81016 -4.43588 0
M  V30 4922 H 459.417 -0.872034 -2.39307 0
M  V30 4923 H 460.2 -2.54129 -2.30811 0
M  V30 4924 N 462.645 1.35699 -0.801477 0
M  V30 4925 C 463.894 1.98165 -0.375979 0
M  V30 4926 C 464.207 1.64306 1.06127 0
M  V30 4927 O 465.413 2.20097 1.58964 0
M  V30 4928 C 463.869 3.54497 -0.621305 0
M  V30 4929 C 463.477 3.9727 -2.07076 0
M  V30 4930 C 465.221 4.23697 -0.26091 0
M  V30 4931 C 463.128 5.46427 -2.26211 0
M  V30 4932 H 462.058 0.741478 -0.136844 0
M  V30 4933 H 464.709 1.54834 -0.984814 0
M  V30 4934 H 463.091 3.95958 0.0574112 0
M  V30 4935 H 464.265 3.66974 -2.78687 0
M  V30 4936 H 462.58 3.40943 -2.39054 0
M  V30 4937 H 465.177 5.33334 -0.381994 0
M  V30 4938 H 465.52 4.0869 0.792344 0
M  V30 4939 H 466.053 3.87639 -0.893339 0
M  V30 4940 H 462.792 5.66396 -3.29963 0
M  V30 4941 H 462.312 5.78309 -1.59119 0
M  V30 4942 H 463.991 6.12819 -2.07513 0
M  V30 4943 N 464.123 0.554532 1.47522 0
M  V30 4944 C 465.371 0.0294208 2.02079 0
M  V30 4945 C 465.692 -1.32411 1.43151 0
M  V30 4946 O 464.962 -1.863 0.605728 0
M  V30 4947 H 463.542 0.00788672 0.746958 0
M  V30 4948 H 466.204 0.723934 1.80956 0
M  V30 4949 H 465.3 -0.0606745 3.12041 0
M  V30 4950 N 465.601 -1.54893 0.290851 0
M  V30 4951 C 466.564 -2.21824 -0.576784 0
M  V30 4952 C 467.564 -1.20104 -1.06919 0
M  V30 4953 O 468.754 -1.44906 -0.966843 0
M  V30 4954 C 465.886 -2.89662 -1.79747 0
M  V30 4955 H 467.079 -2.99899 0.00784051 0
M  V30 4956 H 464.632 -1.56245 0.0415934 0
M  V30 4957 H 465.367 -2.15639 -2.42219 0
M  V30 4958 H 465.152 -3.64219 -1.45214 0
M  V30 4959 H 466.642 -3.4075 -2.4141 0
M  V30 4960 N 467.08 -0.0183926 -1.57589 0
M  V30 4961 C 468.027 0.967022 -2.09565 0
M  V30 4962 C 468.997 1.32983 -0.995225 0
M  V30 4963 O 470.182 1.42501 -1.26878 0
M  V30 4964 C 467.322 2.24772 -2.61861 0
M  V30 4965 C 466.435 1.94232 -3.85873 0
M  V30 4966 C 465.57 3.16518 -4.26603 0
M  V30 4967 C 464.609 2.81748 -5.43401 0
M  V30 4968 N 463.746 3.96626 -5.79338 0
M  V30 4969 H 468.586 0.516874 -2.93483 0
M  V30 4970 H 466.123 0.243544 -1.4507 0
M  V30 4971 H 468.081 2.99667 -2.90268 0
M  V30 4972 H 466.711 2.67423 -1.8079 0
M  V30 4973 H 465.763 1.09625 -3.64262 0
M  V30 4974 H 467.075 1.64616 -4.70853 0
M  V30 4975 H 466.229 3.99743 -4.56389 0
M  V30 4976 H 464.968 3.49286 -3.40368 0
M  V30 4977 H 463.973 1.96933 -5.1332 0
M  V30 4978 H 465.198 2.50207 -6.31327 0
M  V30 4979 H 463.144 4.29257 -4.96059 0
M  V30 4980 H 463.061 3.70598 -6.58933 0
M  V30 4981 H 464.329 4.80586 -6.13724 0
M  V30 4982 N 468.558 1.5553 0.254621 0
M  V30 4983 C 469.807 1.76202 0.981612 0
M  V30 4984 C 470.12 0.580883 1.86776 0
M  V30 4985 O 471.326 0.670448 2.63092 0
M  V30 4986 C 469.782 3.11921 1.79537 0
M  V30 4987 C 469.39 4.37659 0.956991 0
M  V30 4988 C 471.134 3.41936 2.51555 0
M  V30 4989 C 469.041 5.64411 1.76619 0
M  V30 4990 H 467.971 0.656841 0.370237 0
M  V30 4991 H 470.622 1.81969 0.236556 0
M  V30 4992 H 469.004 3.00241 2.58208 0
M  V30 4993 H 470.178 4.60307 0.21315 0
M  V30 4994 H 468.493 4.14922 0.350497 0
M  V30 4995 H 471.09 4.33849 3.12536 0
M  V30 4996 H 471.433 2.62905 3.22779 0
M  V30 4997 H 471.966 3.54797 1.799 0
M  V30 4998 H 468.705 6.46241 1.09783 0
M  V30 4999 H 468.225 5.45877 2.48551 0
M  V30 5000 H 469.904 6.03386 2.33527 0
M  V30 5001 N 470.036 -0.519951 1.48776 0
M  V30 5002 C 470.999 -1.60574 1.6355 0
M  V30 5003 C 471.999 -1.52557 0.508234 0
M  V30 5004 O 473.189 -1.56047 0.774262 0
M  V30 5005 C 470.321 -3.00211 1.61512 0
M  V30 5006 H 471.514 -1.4881 2.60376 0
M  V30 5007 H 469.067 -0.742772 1.37523 0
M  V30 5008 H 469.802 -3.17471 0.662009 0
M  V30 5009 H 469.587 -3.07439 2.43359 0
M  V30 5010 H 471.077 -3.79134 1.75064 0
M  V30 5011 N 471.514 -1.37532 -0.769588 0
M  V30 5012 C 472.762 -1.32597 -1.5252 0
M  V30 5013 C 473.083 0.0884294 -1.94799 0
M  V30 5014 O 472.353 1.03289 -1.66458 0
M  V30 5015 H 470.933 -0.487846 -0.565699 0
M  V30 5016 H 473.595 -1.72044 -0.915806 0
M  V30 5017 H 472.691 -1.96643 -2.42359 0
M  V30 5018 N 472.992 0.995999 -1.22138 0
M  V30 5019 C 474.238 1.73767 -1.04561 0
M  V30 5020 C 474.571 1.89633 0.418698 0
M  V30 5021 O 473.846 1.43723 1.3105 0
M  V30 5022 C 474.129 3.14505 -1.75382 0
M  V30 5023 C 473.982 3.06306 -3.29388 0
M  V30 5024 C 475.301 4.13615 -1.50369 0
M  V30 5025 H 472.42 0.630728 -0.38125 0
M  V30 5026 H 475.062 1.16057 -1.50435 0
M  V30 5027 H 473.212 3.63775 -1.36383 0
M  V30 5028 H 474.884 2.64681 -3.77812 0
M  V30 5029 H 473.127 2.43186 -3.59226 0
M  V30 5030 H 473.798 4.05884 -3.74116 0
M  V30 5031 H 476.274 3.73089 -1.84239 0
M  V30 5032 H 475.15 5.10212 -2.02421 0
M  V30 5033 H 475.411 4.39949 -0.435611 0
M  V30 5034 N 474.47 1.03057 1.19235 0
M  V30 5035 C 475.42 0.583386 2.2041 0
M  V30 5036 C 476.404 -0.368776 1.56617 0
M  V30 5037 O 477.596 -0.189471 1.75983 0
M  V30 5038 C 474.725 -0.0626534 3.43243 0
M  V30 5039 C 473.811 0.91205 4.14177 0
M  V30 5040 N 474.202 2.07514 4.61272 0
M  V30 5041 C 472.5 0.735859 4.39888 0
M  V30 5042 C 473.201 2.69003 5.15764 0
M  V30 5043 N 472.177 1.96954 5.06666 0
M  V30 5044 H 475.979 1.46988 2.54503 0
M  V30 5045 H 473.493 0.897785 1.35328 0
M  V30 5046 H 475.49 -0.400653 4.1497 0
M  V30 5047 H 474.15 -0.944813 3.1065 0
M  V30 5048 H 475.161 2.45448 4.56043 0
M  V30 5049 H 471.838 -0.0970656 4.17387 0
M  V30 5050 H 473.228 3.67514 5.6248 0
M  V30 5051 N 475.948 -1.35272 0.808662 0
M  V30 5052 C 477.194 -1.99434 0.399717 0
M  V30 5053 C 477.549 -1.62992 -1.02232 0
M  V30 5054 O 476.842 -0.884091 -1.69983 0
M  V30 5055 C 477.036 -3.53556 0.522798 0
M  V30 5056 C 476.865 -4.04969 1.95525 0
M  V30 5057 C 475.635 -4.34228 2.58407 0
M  V30 5058 C 477.833 -4.23362 2.92009 0
M  V30 5059 N 475.815 -4.71585 3.93041 0
M  V30 5060 C 477.186 -4.63739 4.11517 0
M  V30 5061 C 479.241 -4.05576 2.88813 0
M  V30 5062 C 477.944 -4.88189 5.28265 0
M  V30 5063 C 479.97 -4.31184 4.04765 0
M  V30 5064 C 479.332 -4.71834 5.23022 0
M  V30 5065 H 475.431 -0.757534 0.19408 0
M  V30 5066 H 478.015 -1.63939 1.05034 0
M  V30 5067 H 476.186 -3.88277 -0.0978471 0
M  V30 5068 H 477.918 -4.04604 0.0882378 0
M  V30 5069 H 474.673 -4.24621 2.09747 0
M  V30 5070 H 475.097 -4.9452 4.62363 0
M  V30 5071 H 479.739 -3.73288 1.98535 0
M  V30 5072 H 477.457 -5.1935 6.19113 0
M  V30 5073 H 481.043 -4.18972 4.03675 0
M  V30 5074 H 479.923 -4.91263 6.11253 0
M  V30 5075 N 477.426 -0.562348 -1.47226 0
M  V30 5076 C 478.358 0.220011 -2.28142 0
M  V30 5077 C 479.371 0.874596 -1.37312 0
M  V30 5078 O 480.56 0.747583 -1.62091 0
M  V30 5079 C 477.66 1.32953 -3.11732 0
M  V30 5080 C 476.833 0.770759 -4.30556 0
M  V30 5081 C 475.892 1.76541 -4.95701 0
M  V30 5082 O 474.918 1.3095 -5.53932 0
M  V30 5083 N 476.12 3.09896 -4.90861 0
M  V30 5084 H 478.885 -0.474107 -2.95926 0
M  V30 5085 H 476.446 -0.398761 -1.56912 0
M  V30 5086 H 478.438 1.99378 -3.5218 0
M  V30 5087 H 477.008 1.92681 -2.46156 0
M  V30 5088 H 476.228 -0.0704056 -3.94137 0
M  V30 5089 H 477.516 0.376872 -5.07402 0
M  V30 5090 H 476.914 3.49577 -4.44761 0
M  V30 5091 H 475.471 3.71865 -5.35313 0
M  V30 5092 N 478.904 1.54736 -0.299062 0
M  V30 5093 C 480.134 2.04215 0.312992 0
M  V30 5094 C 480.542 1.17596 1.48215 0
M  V30 5095 O 479.885 0.193835 1.82674 0
M  V30 5096 C 479.947 3.49696 0.833862 0
M  V30 5097 C 479.611 4.56518 -0.20977 0
M  V30 5098 C 480.608 5.09442 -1.03756 0
M  V30 5099 C 478.293 5.01073 -0.35091 0
M  V30 5100 C 480.287 6.05459 -1.99244 0
M  V30 5101 C 477.974 5.9691 -1.30924 0
M  V30 5102 C 478.972 6.48987 -2.1285 0
M  V30 5103 O 478.66 7.42947 -3.07059 0
M  V30 5104 H 478.392 0.672128 0.0722494 0
M  V30 5105 H 480.946 2.00718 -0.436043 0
M  V30 5106 H 479.176 3.5051 1.63339 0
M  V30 5107 H 480.865 3.82381 1.36159 0
M  V30 5108 H 481.631 4.75816 -0.939376 0
M  V30 5109 H 477.51 4.60168 0.276813 0
M  V30 5110 H 481.054 6.46031 -2.63229 0
M  V30 5111 H 476.951 6.29953 -1.40815 0
M  V30 5112 H 477.719 7.60743 -3.02015 0
M  V30 5113 N 480.382 0.0267497 1.57577 0
M  V30 5114 C 481.33 -0.973923 2.11229 0
M  V30 5115 C 482.324 -1.33849 1.03831 0
M  V30 5116 O 483.53 -1.321 1.22269 0
M  V30 5117 H 479.905 -0.331844 0.674821 0
M  V30 5118 H 481.876 -0.496092 2.94247 0
M  V30 5119 C 480.625 -2.24798 2.65257 0
M  V30 5120 H 479.948 -1.9762 3.47543 0
M  V30 5121 H 481.388 -2.93031 3.06445 0
M  V30 5122 C 479.847 -2.97611 1.57891 0
M  V30 5123 O 480.377 -3.89629 0.97735 0
M  V30 5124 N 478.583 -2.59905 1.29992 0
M  V30 5125 H 478.13 -1.85154 1.79097 0
M  V30 5126 H 478.088 -3.08932 0.583798 0
M  V30 5127 N 481.861 -1.55662 -0.24637 0
M  V30 5128 C 482.809 -1.91186 -1.3248 0
M  V30 5129 C 483.803 -0.790996 -1.49799 0
M  V30 5130 O 485.009 -0.975617 -1.51267 0
M  V30 5131 H 481.384 -0.607207 -0.443626 0
M  V30 5132 H 483.355 -2.81221 -0.997853 0
M  V30 5133 C 482.104 -2.22349 -2.67313 0
M  V30 5134 H 481.427 -3.08097 -2.54786 0
M  V30 5135 H 482.867 -2.51107 -3.41645 0
M  V30 5136 C 481.326 -1.04001 -3.20446 0
M  V30 5137 O 481.856 -0.28828 -4.00664 0
M  V30 5138 N 480.062 -0.830494 -2.7848 0
M  V30 5139 H 479.609 -1.4435 -2.13356 0
M  V30 5140 H 479.567 -0.0403258 -3.14374 0
M  V30 5141 N 483.339 0.512053 -1.4905 0
M  V30 5142 C 484.75 1.09376 -1.51307 0
M  V30 5143 C 485.101 1.94 -0.292971 0
M  V30 5144 O 484.226 2.07965 0.598277 0
M  V30 5145 C 484.821 1.99031 -2.74176 0
M  V30 5146 C 483.38 2.52385 -2.79247 0
M  V30 5147 C 482.527 1.29749 -2.45073 0
M  V30 5148 H 485.478 0.296467 -1.55906 0
M  V30 5149 H 485.499 2.83569 -2.53711 0
M  V30 5150 H 485.011 1.37412 -3.62959 0
M  V30 5151 H 483.112 3.17673 -1.94716 0
M  V30 5152 H 483.225 2.90293 -3.81139 0
M  V30 5153 H 481.589 1.61912 -1.96612 0
M  V30 5154 H 482.372 0.698555 -3.36118 0
M  V30 5155 N 484.817 1.37938 0.762283 0
M  V30 5156 C 486.045 1.36883 1.55147 0
M  V30 5157 C 486.46 -0.0435348 1.8875 0
M  V30 5158 O 485.817 -1.00786 1.52146 0
M  V30 5159 C 485.868 2.21624 2.85596 0
M  V30 5160 O 485.589 3.57358 2.5343 0
M  V30 5161 C 487.09 2.28653 3.7978 0
M  V30 5162 H 484.31 0.468521 0.480343 0
M  V30 5163 H 486.854 1.81404 0.944079 0
M  V30 5164 H 485.009 1.80588 3.42734 0
M  V30 5165 H 485.423 4.01883 3.37032 0
M  V30 5166 H 486.897 2.9225 4.68288 0
M  V30 5167 H 487.374 1.29767 4.19592 0
M  V30 5168 H 487.98 2.70043 3.28568 0
M  V30 5169 N 486.295 -0.989507 1.22664 0
M  V30 5170 C 487.544 -1.72375 1.04737 0
M  V30 5171 C 487.857 -1.91096 -0.417316 0
M  V30 5172 O 489.063 -2.6188 -0.716334 0
M  V30 5173 C 487.519 -3.10161 1.82561 0
M  V30 5174 C 487.127 -2.99358 3.333 0
M  V30 5175 C 488.871 -3.87607 1.73093 0
M  V30 5176 C 486.778 -4.32319 4.03552 0
M  V30 5177 H 485.708 -0.646326 0.388302 0
M  V30 5178 H 488.359 -1.10437 1.46546 0
M  V30 5179 H 486.741 -3.728 1.33552 0
M  V30 5180 H 487.915 -2.45863 3.89728 0
M  V30 5181 H 486.23 -2.35392 3.43481 0
M  V30 5182 H 488.827 -4.86025 2.22899 0
M  V30 5183 H 489.17 -4.10509 0.691976 0
M  V30 5184 H 489.703 -3.31652 2.19663 0
M  V30 5185 H 486.442 -4.14616 5.07714 0
M  V30 5186 H 485.962 -4.85714 3.51911 0
M  V30 5187 H 487.641 -5.01051 4.09337 0
M  V30 5188 N 487.773 -1.03688 -1.18687 0
M  V30 5189 C 489.184 -0.766488 -1.70241 0
M  V30 5190 C 489.535 0.713052 -1.82784 0
M  V30 5191 O 488.66 1.55529 -1.50465 0
M  V30 5192 C 489.255 -1.38475 -3.09209 0
M  V30 5193 C 487.814 -1.16276 -3.5799 0
M  V30 5194 C 486.961 -1.4778 -2.34641 0
M  V30 5195 H 489.912 -1.20378 -1.03415 0
M  V30 5196 H 489.933 -0.785939 -3.72295 0
M  V30 5197 H 489.445 -2.46157 -3.00048 0
M  V30 5198 H 487.546 -0.104508 -3.72453 0
M  V30 5199 H 487.659 -1.8571 -4.41643 0
M  V30 5200 H 486.023 -0.897366 -2.38368 0
M  V30 5201 H 486.806 -2.56562 -2.28102 0
M  V30 5202 N 489.251 1.34841 -0.815825 0
M  V30 5203 C 490.201 2.27075 -0.205169 0
M  V30 5204 C 491.185 1.48205 0.626414 0
M  V30 5205 O 492.377 1.70306 0.482157 0
M  V30 5206 C 489.506 3.37322 0.637871 0
M  V30 5207 C 488.592 4.23609 -0.203948 0
M  V30 5208 N 488.983 4.89558 -1.27149 0
M  V30 5209 C 487.281 4.45998 0.0128971 0
M  V30 5210 C 487.982 5.53597 -1.7862 0
M  V30 5211 N 486.958 5.32535 -1.0912 0
M  V30 5212 H 490.76 2.75563 -1.02187 0
M  V30 5213 H 488.274 1.48477 -0.657912 0
M  V30 5214 H 490.271 4.02359 1.09146 0
M  V30 5215 H 488.931 2.90385 1.45281 0
M  V30 5216 H 489.942 4.9077 -1.65423 0
M  V30 5217 H 486.619 4.09837 0.79624 0
M  V30 5218 H 488.009 6.16184 -2.67892 0
M  V30 5219 N 490.729 0.570148 1.46925 0
M  V30 5220 C 491.977 0.0508523 2.02036 0
M  V30 5221 C 492.298 -1.30885 1.44548 0
M  V30 5222 O 491.568 -1.85647 0.625453 0
M  V30 5223 H 490.148 0.0158088 0.746833 0
M  V30 5224 H 492.81 0.743086 1.80178 0
M  V30 5225 H 491.906 -0.027575 3.12088 0
M  V30 5226 N 492.207 -1.54576 0.307264 0
M  V30 5227 C 493.17 -2.22423 -0.553224 0
M  V30 5228 C 494.17 -1.21231 -1.05639 0
M  V30 5229 O 495.36 -1.45923 -0.951419 0
M  V30 5230 C 492.492 -2.91552 -1.76664 0
M  V30 5231 H 493.685 -2.99874 0.0396484 0
M  V30 5232 H 491.238 -1.56192 0.0581629 0
M  V30 5233 H 491.973 -2.18196 -2.39918 0
M  V30 5234 H 491.758 -3.65738 -1.41343 0
M  V30 5235 H 493.248 -3.43292 -2.37783 0
M  V30 5236 N 493.685 -0.035106 -1.57561 0
M  V30 5237 C 494.595 0.960295 -2.14046 0
M  V30 5238 C 495.611 1.3529 -1.0942 0
M  V30 5239 O 496.787 1.43309 -1.41508 0
M  V30 5240 C 493.852 2.22214 -2.66124 0
M  V30 5241 C 492.913 1.8894 -3.85487 0
M  V30 5242 C 492.146 3.09109 -4.35072 0
M  V30 5243 O 492.369 4.21963 -3.83802 0
M  V30 5244 O 491.303 2.91058 -5.26848 0
M  V30 5245 H 495.129 0.509983 -2.99387 0
M  V30 5246 H 492.714 0.185853 -1.48239 0
M  V30 5247 H 494.596 2.96279 -2.99661 0
M  V30 5248 H 493.271 2.66414 -1.83862 0
M  V30 5249 H 492.178 1.12241 -3.56865 0
M  V30 5250 H 493.511 1.49551 -4.6893 0
M  V30 5251 N 495.163 1.55791 0.238111 0
M  V30 5252 C 496.11 1.9105 1.29493 0
M  V30 5253 C 497.08 0.765733 1.47397 0
M  V30 5254 O 498.265 1.02017 1.61236 0
M  V30 5255 C 495.405 2.21826 2.64362 0
M  V30 5256 C 494.518 3.49153 2.54394 0
M  V30 5257 C 493.653 3.69455 3.81676 0
M  V30 5258 C 492.692 4.90353 3.66361 0
M  V30 5259 N 491.829 5.07131 4.85554 0
M  V30 5260 H 496.669 2.81172 0.987233 0
M  V30 5261 H 494.206 1.39179 0.476203 0
M  V30 5262 H 496.164 2.37675 3.4288 0
M  V30 5263 H 494.794 1.34897 2.93262 0
M  V30 5264 H 493.846 3.41587 1.67399 0
M  V30 5265 H 495.158 4.37818 2.38991 0
M  V30 5266 H 494.312 3.85311 4.68636 0
M  V30 5267 H 493.051 2.7904 3.99985 0
M  V30 5268 H 492.056 4.74464 2.77784 0
M  V30 5269 H 493.281 5.82237 3.49538 0
M  V30 5270 H 491.227 4.19654 5.04209 0
M  V30 5271 H 491.144 5.89899 4.72816 0
M  V30 5272 H 492.412 5.27407 5.73988 0
M  V30 5273 N 496.642 -0.504142 1.49319 0
M  V30 5274 C 498.053 -1.08572 1.51885 0
M  V30 5275 C 498.404 -1.93842 0.303255 0
M  V30 5276 O 497.529 -2.0828 -0.58724 0
M  V30 5277 C 498.124 -1.97574 2.75227 0
M  V30 5278 C 496.683 -2.509 2.80581 0
M  V30 5279 C 495.83 -1.28447 2.45757 0
M  V30 5280 H 498.781 -0.288194 1.56061 0
M  V30 5281 H 498.802 -2.82219 2.55211 0
M  V30 5282 H 498.314 -1.35486 3.63683 0
M  V30 5283 H 496.415 -3.16636 1.96398 0
M  V30 5284 H 496.528 -2.88268 3.82673 0
M  V30 5285 H 494.892 -1.60868 1.97468 0
M  V30 5286 H 495.675 -0.68072 3.36483 0
M  V30 5287 N 498.12 -1.38341 -0.754957 0
M  V30 5288 C 499.083 -1.35262 -1.85032 0
M  V30 5289 C 500.083 -0.253393 -1.58791 0
M  V30 5290 O 501.273 -0.510205 -1.66561 0
M  V30 5291 C 498.405 -1.10544 -3.22479 0
M  V30 5292 H 499.598 -2.32712 -1.8917 0
M  V30 5293 H 497.151 -1.23614 -0.956515 0
M  V30 5294 H 497.886 -0.136952 -3.24011 0
M  V30 5295 H 497.671 -1.90127 -3.4292 0
M  V30 5296 H 499.161 -1.11082 -4.02555 0
M  V30 5297 N 499.598 0.982988 -1.23187 0
M  V30 5298 C 500.846 1.72052 -1.06031 0
M  V30 5299 C 501.167 1.90769 0.404019 0
M  V30 5300 O 500.437 1.47446 1.28982 0
M  V30 5301 H 499.017 0.637499 -0.389363 0
M  V30 5302 H 501.679 1.18338 -1.54862 0
M  V30 5303 H 500.775 2.7111 -1.54615 0
M  V30 5304 N 501.076 1.04316 1.18135 0
M  V30 5305 C 502.306 0.767003 1.91835 0
M  V30 5306 C 502.714 -0.68002 1.76557 0
M  V30 5307 O 502.057 -1.47548 1.09432 0
M  V30 5308 C 502.119 1.05674 3.43618 0
M  V30 5309 C 501.783 2.49818 3.82675 0
M  V30 5310 C 502.78 3.48003 3.86251 0
M  V30 5311 C 500.465 2.84596 4.13897 0
M  V30 5312 C 502.459 4.79016 4.20503 0
M  V30 5313 C 500.146 4.15813 4.4782 0
M  V30 5314 C 501.144 5.12834 4.51099 0
M  V30 5315 O 500.832 6.41699 4.84229 0
M  V30 5316 H 500.564 0.278948 0.615763 0
M  V30 5317 H 503.118 1.3946 1.50798 0
M  V30 5318 H 501.348 0.372029 3.84906 0
M  V30 5319 H 503.037 0.767994 3.98568 0
M  V30 5320 H 503.803 3.22475 3.62264 0
M  V30 5321 H 499.682 2.09748 4.1052 0
M  V30 5322 H 503.226 5.54739 4.22978 0
M  V30 5323 H 499.123 4.41109 4.71268 0
M  V30 5324 H 499.891 6.46387 5.02121 0
M  V30 5325 N 502.554 -1.34406 0.822964 0
M  V30 5326 C 503.502 -2.31428 0.233165 0
M  V30 5327 C 504.496 -1.57404 -0.626118 0
M  V30 5328 O 505.702 -1.72402 -0.517453 0
M  V30 5329 H 502.077 -0.749863 0.0566557 0
M  V30 5330 H 504.048 -2.78699 1.06628 0
M  V30 5331 C 502.797 -3.42653 -0.590264 0
M  V30 5332 H 502.12 -3.99753 0.0616129 0
M  V30 5333 H 503.56 -4.12778 -0.969054 0
M  V30 5334 C 502.019 -2.87112 -1.76262 0
M  V30 5335 O 502.549 -2.81995 -2.8608 0
M  V30 5336 N 500.755 -2.43934 -1.57938 0
M  V30 5337 H 500.302 -2.48296 -0.686078 0
M  V30 5338 H 500.26 -2.07123 -2.36532 0
M  V30 5339 N 504.032 -0.577932 -1.46621 0
M  V30 5340 C 505.309 0.00495287 -1.95599 0
M  V30 5341 C 505.689 1.46428 -1.5206 0
M  V30 5342 O 505.037 2.1517 -0.769046 0
M  V30 5343 C 505.247 -0.162114 -3.48623 0
M  V30 5344 C 506.595 -0.0274623 -4.24591 0
M  V30 5345 O 507.619 -0.0907067 -3.56084 0
M  V30 5346 O 506.478 0.1122 -5.46385 0
M  V30 5347 H 503.572 0.0525057 -0.825332 0
M  V30 5348 H 506.118 -0.645914 -1.56927 0
M  V30 5349 H 504.89 -1.17679 -3.73185 0
M  V30 5350 H 504.513 0.525407 -3.94113 0
M  V30 5351 N 505.51 1.54411 -0.315457 0
M  V30 5352 C 506.74 2.04536 0.291315 0
M  V30 5353 C 507.148 1.19162 1.4696 0
M  V30 5354 O 506.491 0.213199 1.82459 0
M  V30 5355 C 506.553 3.5056 0.796725 0
M  V30 5356 C 506.217 4.5627 -0.258178 0
M  V30 5357 C 507.214 5.08312 -1.09153 0
M  V30 5358 C 504.899 5.00672 -0.404036 0
M  V30 5359 C 506.893 6.03312 -2.05655 0
M  V30 5360 C 504.58 5.95488 -1.37248 0
M  V30 5361 C 505.578 6.46693 -2.19721 0
M  V30 5362 O 505.266 7.39648 -3.14921 0
M  V30 5363 H 504.998 0.672856 0.0651165 0
M  V30 5364 H 507.552 2.00244 -0.457308 0
M  V30 5365 H 505.782 3.52223 1.59612 0
M  V30 5366 H 507.471 3.83804 1.32096 0
M  V30 5367 H 508.237 4.74793 -0.98979 0
M  V30 5368 H 504.116 4.60436 0.22799 0
M  V30 5369 H 507.66 6.43203 -2.70067 0
M  V30 5370 H 503.557 6.28424 -1.47489 0
M  V30 5371 H 504.325 7.57496 -3.10067 0
M  V30 5372 N 506.988 0.0434614 1.5754 0
M  V30 5373 C 508.213 -0.645358 1.97104 0
M  V30 5374 C 508.638 -1.64037 0.920521 0
M  V30 5375 O 507.996 -1.80922 -0.11708 0
M  V30 5376 C 508.044 -1.31547 3.35749 0
M  V30 5377 O 507.148 -2.43103 3.33129 0
M  V30 5378 H 506.489 -0.168403 0.64229 0
M  V30 5379 H 509.019 0.109573 2.04306 0
M  V30 5380 H 509.029 -1.66895 3.72304 0
M  V30 5381 H 507.704 -0.586205 4.11748 0
M  V30 5382 H 506.281 -2.0976 3.0831 0
M  V30 5383 N 508.466 -1.55915 -0.229846 0
M  V30 5384 C 509.416 -1.8813 -1.28807 0
M  V30 5385 C 510.4 -0.743621 -1.42685 0
M  V30 5386 O 511.592 -1.00588 -1.4564 0
M  V30 5387 C 508.721 -2.19431 -2.64017 0
M  V30 5388 C 507.807 -3.39569 -2.54074 0
M  V30 5389 N 508.198 -4.58404 -2.13774 0
M  V30 5390 C 506.496 -3.43019 -2.85051 0
M  V30 5391 C 507.197 -5.40557 -2.1488 0
M  V30 5392 N 506.173 -4.80054 -2.55047 0
M  V30 5393 H 509.975 -2.77527 -0.967261 0
M  V30 5394 H 507.489 -1.5637 -0.438433 0
M  V30 5395 H 509.486 -2.40681 -3.40409 0
M  V30 5396 H 508.146 -1.31341 -2.9695 0
M  V30 5397 H 509.157 -4.83716 -1.8504 0
M  V30 5398 H 505.834 -2.65249 -3.22411 0
M  V30 5399 H 507.224 -6.45666 -1.85918 0
M  V30 5400 N 509.944 0.496216 -1.49584 0
M  V30 5401 C 510.874 1.60576 -1.69521 0
M  V30 5402 C 511.855 1.61169 -0.543933 0
M  V30 5403 O 513.04 1.77834 -0.78031 0
M  V30 5404 C 510.17 2.99038 -1.76616 0
M  V30 5405 C 509.124 3.13312 -2.91581 0
M  V30 5406 C 508.45 4.53172 -2.83794 0
M  V30 5407 C 509.75 2.92886 -4.32452 0
M  V30 5408 H 511.444 1.44146 -2.62416 0
M  V30 5409 H 508.99 0.692024 -1.26282 0
M  V30 5410 H 510.943 3.76564 -1.8915 0
M  V30 5411 H 509.667 3.16568 -0.80324 0
M  V30 5412 H 508.326 2.38213 -2.78658 0
M  V30 5413 H 507.974 4.67585 -1.854 0
M  V30 5414 H 507.674 4.63662 -3.60958 0
M  V30 5415 H 509.198 5.32752 -2.98342 0
M  V30 5416 H 510.612 3.60178 -4.46032 0
M  V30 5417 H 509.009 3.14844 -5.10875 0
M  V30 5418 H 510.079 1.88966 -4.46565 0
M  V30 5419 N 511.423 1.38739 0.74761 0
M  V30 5420 C 512.353 1.39173 1.87492 0
M  V30 5421 C 513.334 0.256794 1.6815 0
M  V30 5422 O 514.519 0.460762 1.88655 0
M  V30 5423 C 511.649 1.22197 3.25093 0
M  V30 5424 C 510.603 2.32957 3.59047 0
M  V30 5425 C 509.929 2.01082 4.95449 0
M  V30 5426 C 511.229 3.75237 3.6331 0
M  V30 5427 H 512.923 2.3351 1.87386 0
M  V30 5428 H 510.469 1.12399 0.900134 0
M  V30 5429 H 512.422 1.21124 4.03617 0
M  V30 5430 H 511.146 0.243241 3.25693 0
M  V30 5431 H 509.805 2.33226 2.82845 0
M  V30 5432 H 509.453 1.01678 4.92616 0
M  V30 5433 H 509.153 2.75267 5.19136 0
M  V30 5434 H 510.677 2.01638 5.76346 0
M  V30 5435 H 512.091 3.76966 4.31937 0
M  V30 5436 H 510.488 4.48677 3.98509 0
M  V30 5437 H 511.558 4.07122 2.634 0
M  V30 5438 N 512.901 -0.976442 1.23707 0
M  V30 5439 C 514.178 -1.69296 0.979699 0
M  V30 5440 C 514.558 -2.0508 -0.500555 0
M  V30 5441 O 513.906 -1.74708 -1.47273 0
M  V30 5442 C 514.116 -2.93143 1.89389 0
M  V30 5443 C 515.464 -3.65572 2.15968 0
M  V30 5444 O 516.488 -3.03184 1.86971 0
M  V30 5445 O 515.347 -4.77859 2.65167 0
M  V30 5446 H 512.441 -0.739708 0.369812 0
M  V30 5447 H 514.987 -1.03131 1.34767 0
M  V30 5448 H 513.759 -2.63327 2.89439 0
M  V30 5449 H 513.382 -3.67044 1.52854 0
M  V30 5450 N 514.379 -1.04941 -1.1758 0
M  V30 5451 C 515.342 -0.652456 -2.19717 0
M  V30 5452 C 516.342 0.294745 -1.58076 0
M  V30 5453 O 517.532 0.0789579 -1.74021 0
M  V30 5454 C 514.664 0.0420712 -3.40874 0
M  V30 5455 H 515.857 -1.55642 -2.5635 0
M  V30 5456 H 513.41 -0.842995 -1.31618 0
M  V30 5457 H 514.145 0.95943 -3.09783 0
M  V30 5458 H 513.93 -0.638844 -3.86861 0
M  V30 5459 H 515.42 0.306 -4.16477 0
M  V30 5460 N 515.857 1.33968 -0.830081 0
M  V30 5461 C 517.104 1.98063 -0.421566 0
M  V30 5462 C 517.432 1.65787 1.0171 0
M  V30 5463 O 516.687 0.925348 1.72441 0
M  V30 5464 C 516.986 3.52679 -0.57898 0
M  V30 5465 C 516.652 4.04884 -1.98443 0
M  V30 5466 C 515.314 4.18852 -2.36888 0
M  V30 5467 C 517.666 4.32879 -2.90285 0
M  V30 5468 C 514.994 4.58145 -3.66497 0
M  V30 5469 C 517.346 4.7362 -4.19364 0
M  V30 5470 C 516.01 4.85794 -4.57778 0
M  V30 5471 H 515.28 0.724765 -0.154262 0
M  V30 5472 H 517.927 1.59792 -1.05541 0
M  V30 5473 H 516.232 3.91556 0.138219 0
M  V30 5474 H 517.929 4.00261 -0.243317 0
M  V30 5475 H 514.519 3.9448 -1.67581 0
M  V30 5476 H 518.703 4.21619 -2.61823 0
M  V30 5477 H 513.959 4.65762 -3.96075 0
M  V30 5478 H 518.133 4.9424 -4.90612 0
M  V30 5479 H 515.76 5.15998 -5.58256 0
M  V30 5480 N 517.335 0.585699 1.46312 0
M  V30 5481 C 518.282 -0.145835 2.30339 0
M  V30 5482 C 519.252 -0.881215 1.40797 0
M  V30 5483 O 520.437 -0.871293 1.69744 0
M  V30 5484 C 517.577 -1.15161 3.25318 0
M  V30 5485 C 516.69 -0.419367 4.2996 0
M  V30 5486 C 515.825 -1.41293 5.12064 0
M  V30 5487 C 514.864 -0.667261 6.08452 0
M  V30 5488 N 514.001 -1.60903 6.83414 0
M  V30 5489 H 518.841 0.576755 2.92365 0
M  V30 5490 H 516.378 0.296237 1.44086 0
M  V30 5491 H 518.336 -1.74763 3.78832 0
M  V30 5492 H 516.966 -1.84188 2.65094 0
M  V30 5493 H 516.018 0.291751 3.7928 0
M  V30 5494 H 517.33 0.163433 4.98532 0
M  V30 5495 H 516.484 -2.08167 5.6987 0
M  V30 5496 H 515.223 -2.02966 4.43459 0
M  V30 5497 H 514.228 0.0152356 5.49798 0
M  V30 5498 H 515.453 -0.0558817 6.79077 0
M  V30 5499 H 513.399 -2.21381 6.17516 0
M  V30 5500 H 513.316 -1.07911 7.48259 0
M  V30 5501 H 514.584 -2.26802 7.45775 0
M  V30 5502 N 518.813 -1.54241 0.323641 0
M  V30 5503 C 520.038 -2.05452 -0.283605 0
M  V30 5504 C 520.463 -1.19823 -1.44997 0
M  V30 5505 O 519.821 -0.207358 -1.8011 0
M  V30 5506 C 519.869 -3.53823 -0.695795 0
M  V30 5507 O 518.973 -3.71134 -1.79815 0
M  V30 5508 H 518.314 -0.662024 -0.0511917 0
M  V30 5509 H 520.844 -1.99079 0.472073 0
M  V30 5510 H 520.854 -3.96094 -0.978434 0
M  V30 5511 H 519.529 -4.15602 0.157287 0
M  V30 5512 H 518.106 -3.40768 -1.51431 0
M  V30 5513 N 520.291 -0.0518155 -1.57515 0
M  V30 5514 C 521.254 0.907547 -2.10467 0
M  V30 5515 C 522.254 1.23947 -1.02439 0
M  V30 5516 O 523.444 1.17604 -1.2851 0
M  V30 5517 C 520.576 2.21723 -2.58944 0
M  V30 5518 H 521.769 0.44851 -2.96527 0
M  V30 5519 H 519.322 0.196598 -1.55059 0
M  V30 5520 H 520.057 2.72206 -1.76279 0
M  V30 5521 H 519.842 1.98935 -3.37886 0
M  V30 5522 H 521.332 2.90441 -3.00056 0
M  V30 5523 N 521.769 1.56035 0.221574 0
M  V30 5524 C 522.716 1.92413 1.27459 0
M  V30 5525 C 523.686 0.781323 1.46576 0
M  V30 5526 O 524.871 1.03721 1.60145 0
M  V30 5527 C 522.011 2.24617 2.61995 0
M  V30 5528 C 521.124 3.51831 2.50677 0
M  V30 5529 C 520.259 3.73482 3.77736 0
M  V30 5530 C 519.298 4.94211 3.6114 0
M  V30 5531 N 518.435 5.12252 4.80148 0
M  V30 5532 H 523.275 2.82203 0.957355 0
M  V30 5533 H 520.812 1.39676 0.461415 0
M  V30 5534 H 522.77 2.41298 3.40339 0
M  V30 5535 H 521.4 1.38 2.91815 0
M  V30 5536 H 520.452 3.43343 1.63767 0
M  V30 5537 H 521.764 4.40328 2.34334 0
M  V30 5538 H 520.918 3.9026 4.64523 0
M  V30 5539 H 519.657 2.83266 3.97003 0
M  V30 5540 H 518.662 4.77384 2.72736 0
M  V30 5541 H 519.887 5.85912 3.43343 0
M  V30 5542 H 517.833 4.24978 4.99729 0
M  V30 5543 H 517.75 5.94881 4.66532 0
M  V30 5544 H 519.018 5.33465 5.68362 0
M  V30 5545 N 523.247 -0.488276 1.49845 0
M  V30 5546 C 524.177 -1.59675 1.70371 0
M  V30 5547 C 525.158 -1.60878 0.552473 0
M  V30 5548 O 526.343 -1.77417 0.78973 0
M  V30 5549 C 523.473 -2.98098 1.782 0
M  V30 5550 C 522.427 -3.11761 2.93239 0
M  V30 5551 C 521.753 -4.51661 2.86193 0
M  V30 5552 C 523.053 -2.90589 4.33999 0
M  V30 5553 H 524.747 -1.42752 2.63177 0
M  V30 5554 H 522.293 -0.685317 1.26647 0
M  V30 5555 H 524.246 -3.75555 1.91144 0
M  V30 5556 H 522.97 -3.16138 0.820018 0
M  V30 5557 H 521.629 -2.36732 2.79917 0
M  V30 5558 H 521.277 -4.66595 1.87877 0
M  V30 5559 H 520.977 -4.61742 3.63412 0
M  V30 5560 H 522.501 -5.31162 3.01163 0
M  V30 5561 H 523.915 -3.57807 4.47936 0
M  V30 5562 H 522.312 -3.1213 5.12538 0
M  V30 5563 H 523.382 -1.86595 4.4756 0
M  V30 5564 N 524.725 -1.39134 -0.740242 0
M  V30 5565 C 526.002 -1.26584 -1.49117 0
M  V30 5566 C 526.382 0.126902 -2.10718 0
M  V30 5567 O 525.73 1.13765 -1.98166 0
M  V30 5568 C 525.94 -2.38619 -2.54681 0
M  V30 5569 C 527.288 -2.77685 -3.21211 0
M  V30 5570 O 528.312 -2.38029 -2.64991 0
M  V30 5571 O 527.171 -3.46115 -4.22926 0
M  V30 5572 H 524.265 -0.495769 -0.661923 0
M  V30 5573 H 526.811 -1.50995 -0.774514 0
M  V30 5574 H 525.583 -3.3175 -2.07504 0
M  V30 5575 H 525.206 -2.15845 -3.33911 0
M  V30 5576 N 526.204 0.969867 -1.24223 0
M  V30 5577 C 527.45 1.7151 -1.08223 0
M  V30 5578 C 527.783 1.90478 0.37838 0
M  V30 5579 O 527.058 1.4647 1.27971 0
M  V30 5580 C 527.341 3.10714 -1.82013 0
M  V30 5581 C 527.194 2.9925 -3.35811 0
M  V30 5582 C 528.513 4.10332 -1.59108 0
M  V30 5583 H 525.632 0.622499 -0.394543 0
M  V30 5584 H 528.274 1.1284 -1.52863 0
M  V30 5585 H 526.424 3.608 -1.44068 0
M  V30 5586 H 528.096 2.56608 -3.83341 0
M  V30 5587 H 526.339 2.35512 -3.64303 0
M  V30 5588 H 527.01 3.97857 -3.82641 0
M  V30 5589 H 529.486 3.69097 -1.92111 0
M  V30 5590 H 528.362 5.05804 -2.13198 0
M  V30 5591 H 528.623 4.38926 -0.528832 0
M  V30 5592 N 527.682 1.05563 1.17022 0
M  V30 5593 C 528.91 0.78845 1.91288 0
M  V30 5594 C 529.325 -0.656318 1.77025 0
M  V30 5595 O 528.682 -1.44869 1.10992 0
M  V30 5596 C 528.733 1.16444 3.42232 0
M  V30 5597 O 528.454 2.5525 3.5606 0
M  V30 5598 C 529.955 0.923937 4.33565 0
M  V30 5599 H 527.175 0.286389 0.606813 0
M  V30 5600 H 529.719 1.4073 1.48375 0
M  V30 5601 H 527.874 0.590266 3.82877 0
M  V30 5602 H 528.288 2.70097 4.49609 0
M  V30 5603 H 529.762 1.23672 5.37968 0
M  V30 5604 H 530.239 -0.140688 4.38975 0
M  V30 5605 H 530.845 1.48214 3.98639 0
M  V30 5606 N 529.16 -1.33526 0.837174 0
M  V30 5607 C 530.407 -1.97837 0.432064 0
M  V30 5608 C 530.735 -1.66324 -1.00829 0
M  V30 5609 O 529.99 -0.93448 -1.71948 0
M  V30 5610 C 530.289 -3.52367 0.597675 0
M  V30 5611 C 529.955 -4.03826 2.00587 0
M  V30 5612 C 528.617 -4.1759 2.39106 0
M  V30 5613 C 530.969 -4.31333 2.92576 0
M  V30 5614 C 528.297 -4.56195 3.68921 0
M  V30 5615 C 530.649 -4.7139 4.2187 0
M  V30 5616 C 529.313 -4.8336 4.60347 0
M  V30 5617 H 528.583 -0.723937 0.158104 0
M  V30 5618 H 531.23 -1.5923 1.06387 0
M  V30 5619 H 529.535 -3.91624 -0.117452 0
M  V30 5620 H 531.232 -4.00126 0.26454 0
M  V30 5621 H 527.822 -3.93586 1.69671 0
M  V30 5622 H 532.006 -4.20224 2.64056 0
M  V30 5623 H 527.262 -4.63655 3.9854 0
M  V30 5624 H 531.436 -4.91631 4.93226 0
M  V30 5625 H 529.063 -5.1303 5.60985 0
M  V30 5626 N 530.638 -0.59345 -1.46 0
M  V30 5627 C 531.866 -0.0890934 -2.06708 0
M  V30 5628 C 532.281 1.2205 -1.44046 0
M  V30 5629 O 531.638 1.74029 -0.549551 0
M  V30 5630 C 531.689 0.0720263 -3.61428 0
M  V30 5631 O 531.41 -1.18574 -4.21748 0
M  V30 5632 C 532.911 0.609487 -4.3909 0
M  V30 5633 H 530.131 -0.0623628 -0.668096 0
M  V30 5634 H 532.675 -0.817171 -1.87464 0
M  V30 5635 H 530.83 0.750369 -3.80063 0
M  V30 5636 H 531.244 -1.0064 -5.14754 0
M  V30 5637 H 532.718 0.671363 -5.47902 0
M  V30 5638 H 533.195 1.62878 -4.07882 0
M  V30 5639 H 533.801 -0.03434 -4.25286 0
M  V30 5640 N 532.116 1.54067 -0.331816 0
M  V30 5641 C 533.356 2.02625 0.26876 0
M  V30 5642 C 533.72 1.21462 1.48697 0
M  V30 5643 O 534.921 1.59863 2.16096 0
M  V30 5644 C 533.192 3.52554 0.586577 0
M  V30 5645 S 534.751 4.23035 1.16563 0
M  V30 5646 H 531.569 0.706395 0.0807862 0
M  V30 5647 H 534.171 1.89844 -0.466856 0
M  V30 5648 H 532.875 4.09242 -0.308046 0
M  V30 5649 H 532.406 3.69432 1.35217 0
M  V30 5650 H 534.421 4.31382 2.45203 0
M  V30 5651 N 533.594 0.0601682 1.57485 0
M  V30 5652 C 534.524 -0.90889 2.15085 0
M  V30 5653 C 535.505 -1.31838 1.07484 0
M  V30 5654 O 536.69 -1.3915 1.35466 0
M  V30 5655 C 533.82 -2.18059 2.7031 0
M  V30 5656 C 532.774 -1.91088 3.82974 0
M  V30 5657 C 532.1 -3.24789 4.24754 0
M  V30 5658 C 533.4 -1.22535 5.07723 0
M  V30 5659 H 535.094 -0.429093 2.96309 0
M  V30 5660 H 532.64 -0.204952 1.42534 0
M  V30 5661 H 534.593 -2.86258 3.09248 0
M  V30 5662 H 533.317 -2.6826 1.8629 0
M  V30 5663 H 531.976 -1.25297 3.44523 0
M  V30 5664 H 531.624 -3.72809 3.37672 0
M  V30 5665 H 531.324 -3.07538 5.00694 0
M  V30 5666 H 532.848 -3.94205 4.66299 0
M  V30 5667 H 534.262 -1.80783 5.4405 0
M  V30 5668 H 532.659 -1.1558 5.88864 0
M  V30 5669 H 533.729 -0.202692 4.84476 0
M  V30 5670 N 535.072 -1.5615 -0.213296 0
M  V30 5671 C 535.982 -1.96265 -1.28519 0
M  V30 5672 C 536.998 -0.86765 -1.50824 0
M  V30 5673 O 538.174 -1.17191 -1.63793 0
M  V30 5674 C 535.239 -2.27836 -2.61327 0
M  V30 5675 C 534.3 -3.50949 -2.47252 0
M  V30 5676 C 533.533 -3.81004 -3.73727 0
M  V30 5677 O 533.756 -3.12612 -4.77106 0
M  V30 5678 O 532.69 -4.74477 -3.70344 0
M  V30 5679 H 536.516 -2.87631 -0.974795 0
M  V30 5680 H 534.101 -1.43467 -0.416832 0
M  V30 5681 H 535.983 -2.49299 -3.39747 0
M  V30 5682 H 534.658 -1.39643 -2.9203 0
M  V30 5683 H 533.565 -3.34754 -1.67004 0
M  V30 5684 H 534.898 -4.39551 -2.21486 0
M  V30 5685 N 536.55 0.480323 -1.50102 0
M  V30 5686 C 537.483 1.59789 -1.62919 0
M  V30 5687 C 538.461 1.55429 -0.477557 0
M  V30 5688 O 539.645 1.75186 -0.695851 0
M  V30 5689 C 536.772 2.98351 -1.60325 0
M  V30 5690 C 535.818 3.20899 -2.80938 0
M  V30 5691 S 536.651 3.01791 -4.4236 0
M  V30 5692 C 537.807 4.42712 -4.42444 0
M  V30 5693 H 538.04 1.48676 -2.57454 0
M  V30 5694 H 535.573 0.666996 -1.3925 0
M  V30 5695 H 537.531 3.7824 -1.59514 0
M  V30 5696 H 536.192 3.06862 -0.670419 0
M  V30 5697 H 535.385 4.22102 -2.75401 0
M  V30 5698 H 534.987 2.48768 -2.79268 0
M  V30 5699 H 537.279 5.3518 -4.15438 0
M  V30 5700 H 538.222 4.53294 -5.43995 0
M  V30 5701 H 538.63 4.24359 -3.72263 0
M  V30 5702 N 538.028 1.39524 0.732853 0
M  V30 5703 C 539.256 1.40143 1.52209 0
M  V30 5704 C 539.671 -0.00348836 1.888 0
M  V30 5705 O 539.028 -0.975357 1.5425 0
M  V30 5706 C 539.079 2.27632 2.8083 0
M  V30 5707 O 538.8 3.62654 2.45792 0
M  V30 5708 C 540.301 2.36658 3.74844 0
M  V30 5709 H 537.521 0.478604 0.470297 0
M  V30 5710 H 540.065 1.83366 0.905388 0
M  V30 5711 H 538.22 1.87818 3.38826 0
M  V30 5712 H 538.634 4.08941 3.28431 0
M  V30 5713 H 540.108 3.02118 4.61984 0
M  V30 5714 H 540.585 1.38638 4.16745 0
M  V30 5715 H 541.191 2.76951 3.22766 0
M  V30 5716 N 539.506 -0.963266 1.24736 0
M  V30 5717 C 540.783 -1.68248 0.9976 0
M  V30 5718 C 541.163 -2.05599 -0.478776 0
M  V30 5719 O 540.511 -1.7626 -1.45412 0
M  V30 5720 C 540.721 -2.91118 1.92487 0
M  V30 5721 C 542.069 -3.63261 2.19833 0
M  V30 5722 O 543.093 -3.01184 1.90176 0
M  V30 5723 O 541.952 -4.75019 2.7022 0
M  V30 5724 H 539.046 -0.735744 0.377637 0
M  V30 5725 H 541.592 -1.01696 1.35853 0
M  V30 5726 H 540.364 -2.60242 2.92215 0
M  V30 5727 H 539.987 -3.65402 1.56738 0
M  V30 5728 N 540.985 -1.06182 -1.16461 0
M  V30 5729 C 541.932 -0.671613 -2.20812 0
M  V30 5730 C 542.902 0.331186 -1.62765 0
M  V30 5731 O 544.087 0.22033 -1.89524 0
M  V30 5732 C 541.227 -0.063029 -3.45042 0
M  V30 5733 C 540.34 -1.11587 -4.1734 0
M  V30 5734 C 539.475 -0.473546 -5.29085 0
M  V30 5735 C 538.514 -1.51 -5.93182 0
M  V30 5736 N 537.651 -0.891118 -6.96422 0
M  V30 5737 H 542.491 -1.56589 -2.53542 0
M  V30 5738 H 540.028 -0.782951 -1.24532 0
M  V30 5739 H 541.986 0.307344 -4.16066 0
M  V30 5740 H 540.616 0.794663 -3.12866 0
M  V30 5741 H 539.668 -1.60396 -3.44931 0
M  V30 5742 H 540.98 -1.90221 -4.61104 0
M  V30 5743 H 540.134 -0.0501432 -6.06679 0
M  V30 5744 H 538.873 0.344687 -4.8648 0
M  V30 5745 H 537.878 -1.94331 -5.14311 0
M  V30 5746 H 539.103 -2.33031 -6.37866 0
M  V30 5747 H 537.049 -0.0935753 -6.55933 0
M  V30 5748 H 536.966 -1.61486 -7.38551 0
M  V30 5749 H 538.234 -0.492822 -7.77941 0
M  V30 5750 N 542.463 1.3308 -0.844243 0
M  V30 5751 C 543.711 1.97215 -0.441676 0
M  V30 5752 C 544.032 1.67185 1.0037 0
M  V30 5753 O 543.302 0.973588 1.69994 0
M  V30 5754 H 541.882 0.72959 -0.160335 0
M  V30 5755 H 544.544 1.62348 -1.07838 0
M  V30 5756 H 543.64 3.06698 -0.57815 0
M  V30 5757 N 543.941 0.601185 1.45683 0
M  V30 5758 C 545.166 0.0982245 2.07167 0
M  V30 5759 C 545.591 -1.20546 1.44396 0
M  V30 5760 O 544.949 -1.73247 0.534347 0
M  V30 5761 C 544.997 -0.0346976 3.60583 0
M  V30 5762 O 544.101 -1.08657 3.97828 0
M  V30 5763 H 543.442 0.0711618 0.660176 0
M  V30 5764 H 545.972 0.829376 1.87036 0
M  V30 5765 H 545.982 -0.234969 4.07323 0
M  V30 5766 H 544.657 0.917265 4.05659 0
M  V30 5767 H 543.234 -0.863275 3.6277 0
M  V30 5768 N 545.419 -1.53889 0.339982 0
M  V30 5769 C 546.649 -2.04973 -0.258738 0
M  V30 5770 C 547.057 -1.21485 -1.45045 0
M  V30 5771 O 546.4 -0.2422 -1.82096 0
M  V30 5772 C 546.462 -3.51783 -0.740853 0
M  V30 5773 C 546.126 -4.55802 0.330734 0
M  V30 5774 C 547.123 -5.06512 1.17226 0
M  V30 5775 C 544.808 -4.99966 0.483637 0
M  V30 5776 C 546.802 -5.99963 2.15227 0
M  V30 5777 C 544.489 -5.93229 1.46704 0
M  V30 5778 C 545.487 -6.43115 2.29981 0
M  V30 5779 O 545.175 -7.34545 3.26649 0
M  V30 5780 H 544.907 -0.673807 -0.0544037 0
M  V30 5781 H 547.461 -1.99492 0.489107 0
M  V30 5782 H 545.691 -3.54717 -1.53988 0
M  V30 5783 H 547.38 -3.85857 -1.25973 0
M  V30 5784 H 548.146 -4.73158 1.0652 0
M  V30 5785 H 544.025 -4.6074 -0.15471 0
M  V30 5786 H 547.569 -6.38825 2.80265 0
M  V30 5787 H 543.466 -6.25998 1.57468 0
M  V30 5788 H 544.234 -7.52468 3.22078 0
M  V30 5789 N 546.897 -0.0685191 -1.57451 0
M  V30 5790 C 548.308 0.464634 -1.80826 0
M  V30 5791 C 548.659 1.69847 -0.982169 0
M  V30 5792 O 547.784 2.15439 -0.203734 0
M  V30 5793 C 548.379 0.849721 -3.27971 0
M  V30 5794 C 546.938 1.32776 -3.52204 0
M  V30 5795 C 546.085 0.311332 -2.75547 0
M  V30 5796 H 549.036 -0.294248 -1.55948 0
M  V30 5797 H 549.057 1.71138 -3.39841 0
M  V30 5798 H 548.569 -0.0484736 -3.8807 0
M  V30 5799 H 546.67 2.24456 -2.97406 0
M  V30 5800 H 546.783 1.30794 -4.60901 0
M  V30 5801 H 545.147 0.787915 -2.42206 0
M  V30 5802 H 545.93 -0.579078 -3.38381 0
M  V30 5803 N 548.375 1.56261 0.205012 0
M  V30 5804 C 549.285 1.96944 1.27476 0
M  V30 5805 C 550.301 0.875636 1.50362 0
M  V30 5806 O 551.477 1.18058 1.6317 0
M  V30 5807 C 548.542 2.29219 2.60115 0
M  V30 5808 C 547.603 3.52255 2.45387 0
M  V30 5809 C 546.836 3.8298 3.71701 0
M  V30 5810 O 547.059 3.15138 4.75441 0
M  V30 5811 O 545.993 4.76435 3.67823 0
M  V30 5812 H 549.819 2.88144 0.959527 0
M  V30 5813 H 547.404 1.43686 0.409217 0
M  V30 5814 H 549.286 2.51098 3.3842 0
M  V30 5815 H 547.961 1.4119 2.91285 0
M  V30 5816 H 546.868 3.35635 1.65227 0
M  V30 5817 H 548.201 4.40719 2.19152 0
M  V30 5818 N 549.853 -0.472356 1.50355 0
M  V30 5819 C 551.083 -1.24603 1.64796 0
M  V30 5820 C 551.491 -1.86297 0.330156 0
M  V30 5821 O 550.834 -1.69934 -0.697728 0
M  V30 5822 C 550.896 -2.39578 2.68035 0
M  V30 5823 C 550.56 -1.98531 4.11624 0
M  V30 5824 C 551.557 -1.50856 4.97532 0
M  V30 5825 C 549.242 -2.0729 4.57532 0
M  V30 5826 C 551.236 -1.12481 6.27397 0
M  V30 5827 C 548.923 -1.68527 5.87403 0
M  V30 5828 C 549.921 -1.212 6.7216 0
M  V30 5829 O 549.609 -0.829728 7.99607 0
M  V30 5830 H 549.341 -0.383035 0.55701 0
M  V30 5831 H 551.895 -0.570392 1.97321 0
M  V30 5832 H 550.125 -3.10309 2.30749 0
M  V30 5833 H 551.814 -3.01544 2.71709 0
M  V30 5834 H 552.58 -1.43511 4.63281 0
M  V30 5835 H 548.459 -2.43076 3.91708 0
M  V30 5836 H 552.003 -0.754698 6.93506 0
M  V30 5837 H 547.9 -1.7553 6.21176 0
M  V30 5838 H 548.668 -0.958689 8.12866 0
M  V30 5839 N 551.331 -1.39911 -0.725443 0
M  V30 5840 C 552.556 -1.41137 -1.5197 0
M  V30 5841 C 552.981 -0.010262 -1.88097 0
M  V30 5842 O 552.339 0.979184 -1.52583 0
M  V30 5843 C 552.387 -2.2994 -2.77777 0
M  V30 5844 O 551.491 -1.73586 -3.74088 0
M  V30 5845 H 550.832 -0.480219 -0.458569 0
M  V30 5846 H 553.362 -1.84023 -0.894249 0
M  V30 5847 H 553.372 -2.44785 -3.26411 0
M  V30 5848 H 552.047 -3.31759 -2.50816 0
M  V30 5849 H 550.624 -1.68035 -3.32894 0
M  V30 5850 N 552.809 0.956637 -1.25245 0
M  V30 5851 C 553.742 2.05232 -0.99775 0
M  V30 5852 C 554.72 1.62439 0.0723137 0
M  V30 5853 O 555.904 1.88381 -0.066926 0
M  V30 5854 C 553.031 3.34871 -0.507861 0
M  V30 5855 C 552.077 3.96625 -1.56815 0
M  V30 5856 S 552.91 4.32853 -3.15276 0
M  V30 5857 C 554.066 5.65613 -2.68017 0
M  V30 5858 H 554.299 2.26521 -1.9255 0
M  V30 5859 H 551.832 1.09601 -1.08752 0
M  V30 5860 H 553.79 4.09845 -0.231858 0
M  V30 5861 H 552.451 3.11551 0.399356 0
M  V30 5862 H 551.644 4.90087 -1.17604 0
M  V30 5863 H 551.246 3.28124 -1.79473 0
M  V30 5864 H 553.538 6.43635 -2.11518 0
M  V30 5865 H 554.481 6.09693 -3.60112 0
M  V30 5866 H 554.889 5.24751 -2.0808 0
M  V30 5867 N 554.287 1.06798 1.15896 0
M  V30 5868 C 555.698 0.811355 1.68149 0
M  V30 5869 C 556.049 -0.664339 1.8461 0
M  V30 5870 O 555.174 -1.51485 1.54535 0
M  V30 5871 C 555.769 1.46624 3.05429 0
M  V30 5872 C 554.328 1.25726 3.54781 0
M  V30 5873 C 553.475 1.53949 2.3064 0
M  V30 5874 H 556.426 1.23078 1.00187 0
M  V30 5875 H 556.447 0.88437 3.7008 0
M  V30 5876 H 555.959 2.54025 2.93416 0
M  V30 5877 H 554.06 0.20322 3.72045 0
M  V30 5878 H 554.173 1.97354 4.36564 0
M  V30 5879 H 552.537 0.96025 2.35905 0
M  V30 5880 H 553.32 2.6252 2.2122 0
M  V30 5881 N 555.766 -1.3263 0.851289 0
M  V30 5882 C 556.713 -2.28952 0.291469 0
M  V30 5883 C 557.683 -1.54897 -0.599676 0
M  V30 5884 O 558.868 -1.83137 -0.535305 0
M  V30 5885 C 556.008 -3.41206 -0.516992 0
M  V30 5886 C 555.121 -4.30148 0.399566 0
M  V30 5887 C 554.256 -5.29527 -0.4212 0
M  V30 5888 C 553.295 -6.10112 0.492969 0
M  V30 5889 N 552.432 -7.01499 -0.290414 0
M  V30 5890 H 557.272 -2.76228 1.11813 0
M  V30 5891 H 554.809 -1.35907 0.562826 0
M  V30 5892 H 556.767 -4.05005 -1.00132 0
M  V30 5893 H 555.397 -2.9509 -1.30851 0
M  V30 5894 H 554.449 -3.66959 1.00227 0
M  V30 5895 H 555.761 -4.8649 1.1013 0
M  V30 5896 H 554.915 -5.98914 -0.968832 0
M  V30 5897 H 553.654 -4.73794 -1.15632 0
M  V30 5898 H 552.659 -5.39632 1.05251 0
M  V30 5899 H 553.884 -6.6793 1.22664 0
M  V30 5900 H 551.83 -6.48199 -1.00868 0
M  V30 5901 H 551.747 -7.55178 0.352354 0
M  V30 5902 H 553.015 -7.75176 -0.819882 0
M  V30 5903 N 557.244 -0.608902 -1.45362 0
M  V30 5904 C 558.472 -0.111013 -2.06602 0
M  V30 5905 C 558.887 1.20516 -1.45332 0
M  V30 5906 O 558.244 1.73437 -0.567978 0
M  V30 5907 C 558.295 0.033688 -3.61484 0
M  V30 5908 O 558.016 -1.23041 -4.20467 0
M  V30 5909 C 559.517 0.562882 -4.39712 0
M  V30 5910 H 556.737 -0.0694453 -0.667397 0
M  V30 5911 H 559.281 -0.837008 -1.86586 0
M  V30 5912 H 557.436 0.710016 -3.80838 0
M  V30 5913 H 557.85 -1.06094 -5.13658 0
M  V30 5914 H 559.324 0.613213 -5.48583 0
M  V30 5915 H 559.801 1.58543 -4.09586 0
M  V30 5916 H 560.407 -0.0794454 -4.25226 0
M  V30 5917 N 558.722 1.53707 -0.348139 0
M  V30 5918 C 559.652 2.28111 0.498766 0
M  V30 5919 C 560.633 1.29851 1.09876 0
M  V30 5920 O 561.818 1.587 1.11928 0
M  V30 5921 C 558.948 3.05735 1.64753 0
M  V30 5922 C 557.902 4.11537 1.17565 0
M  V30 5923 C 557.228 4.77142 2.4133 0
M  V30 5924 C 558.528 5.21587 0.272844 0
M  V30 5925 H 560.222 2.99152 -0.121934 0
M  V30 5926 H 557.768 1.43875 -0.0600842 0
M  V30 5927 H 559.721 3.56526 2.24649 0
M  V30 5928 H 558.445 2.32354 2.2952 0
M  V30 5929 H 557.104 3.61665 0.599483 0
M  V30 5930 H 556.752 4.0035 3.04514 0
M  V30 5931 H 556.452 5.48626 2.10436 0
M  V30 5932 H 557.976 5.30719 3.01943 0
M  V30 5933 H 559.39 5.67986 0.778779 0
M  V30 5934 H 557.787 6.00074 0.0555849 0
M  V30 5935 H 558.857 4.79969 -0.689785 0
M  V30 5936 N 560.2 0.0768682 1.57412 0
M  V30 5937 C 561.446 -0.591961 1.93968 0
M  V30 5938 C 561.779 -1.68954 0.9575 0
M  V30 5939 O 561.054 -1.94496 -0.0124675 0
M  V30 5940 C 561.337 -1.16418 3.40762 0
M  V30 5941 C 561.19 -0.0728933 4.49741 0
M  V30 5942 C 562.509 -2.06814 3.88479 0
M  V30 5943 H 559.628 -0.213716 0.705333 0
M  V30 5944 H 562.27 0.14387 1.89455 0
M  V30 5945 H 560.42 -1.79128 3.4474 0
M  V30 5946 H 562.092 0.560446 4.57883 0
M  V30 5947 H 560.335 0.595859 4.29688 0
M  V30 5948 H 561.006 -0.513755 5.49604 0
M  V30 5949 H 563.482 -1.54033 3.8654 0
M  V30 5950 H 562.358 -2.43785 4.91793 0
M  V30 5951 H 562.619 -2.97844 3.26713 0
M  V30 5952 N 561.678 -1.56367 -0.196722 0
M  V30 5953 C 562.61 -1.90941 -1.26784 0
M  V30 5954 C 563.623 -0.799928 -1.41792 0
M  V30 5955 O 564.812 -1.07833 -1.42247 0
M  V30 5956 C 561.912 -2.12477 -2.6402 0
M  V30 5957 C 561.085 -3.43616 -2.70641 0
M  V30 5958 C 560.144 -3.54284 -3.89062 0
M  V30 5959 O 559.17 -4.2712 -3.76241 0
M  V30 5960 N 560.372 -2.87252 -5.04447 0
M  V30 5961 H 563.137 -2.83417 -0.974417 0
M  V30 5962 H 560.698 -1.57215 -0.386649 0
M  V30 5963 H 562.69 -2.16904 -3.41665 0
M  V30 5964 H 561.26 -1.26508 -2.85857 0
M  V30 5965 H 560.48 -3.51072 -1.79283 0
M  V30 5966 H 561.768 -4.29958 -2.72054 0
M  V30 5967 H 561.166 -2.27901 -5.17762 0
M  V30 5968 H 559.723 -2.97308 -5.80044 0
M  V30 5969 N 563.156 0.464375 -1.50603 0
M  V30 5970 C 564.104 1.58224 -1.70493 0
M  V30 5971 C 565.098 1.59492 -0.570836 0
M  V30 5972 O 566.304 1.63561 -0.751517 0
M  V30 5973 H 562.679 0.525161 -0.538247 0
M  V30 5974 H 564.65 1.38613 -2.64252 0
M  V30 5975 C 563.399 2.96113 -1.82243 0
M  V30 5976 H 562.722 2.95858 -2.68901 0
M  V30 5977 H 564.162 3.73769 -2.00182 0
M  V30 5978 C 562.621 3.31946 -0.575628 0
M  V30 5979 O 563.151 4.00708 0.282152 0
M  V30 5980 N 561.357 2.87436 -0.427665 0
M  V30 5981 H 560.904 2.31652 -1.12674 0
M  V30 5982 H 560.862 3.11776 0.405379 0
M  V30 5983 N 564.634 1.40294 0.718013 0
M  V30 5984 C 565.883 1.37746 1.4734 0
M  V30 5985 C 566.196 -0.0180754 1.95592 0
M  V30 5986 O 567.402 -0.166166 2.70991 0
M  V30 5987 C 565.858 2.4208 2.66318 0
M  V30 5988 C 565.466 3.87432 2.24945 0
M  V30 5989 C 567.21 2.48635 3.44065 0
M  V30 5990 C 565.117 4.83368 3.40748 0
M  V30 5991 H 564.047 0.512165 0.553356 0
M  V30 5992 H 566.698 1.66019 0.781661 0
M  V30 5993 H 565.08 2.06903 3.3765 0
M  V30 5994 H 566.254 4.3174 1.6105 0
M  V30 5995 H 564.569 3.8433 1.60249 0
M  V30 5996 H 567.166 3.17499 4.30231 0
M  V30 5997 H 567.509 1.51611 3.87711 0
M  V30 5998 H 568.042 2.82791 2.79775 0
M  V30 5999 H 564.781 5.81716 3.02136 0
M  V30 6000 H 564.301 4.43726 4.03568 0
M  V30 6001 H 565.98 5.03074 4.06848 0
M  V30 6002 N 566.112 -0.949982 1.2575 0
M  V30 6003 C 567.075 -2.02894 1.06615 0
M  V30 6004 C 568.075 -1.60791 0.0173905 0
M  V30 6005 O 569.265 -1.72249 0.260003 0
M  V30 6006 C 566.397 -3.35219 0.619751 0
M  V30 6007 H 567.59 -2.21302 2.02399 0
M  V30 6008 H 565.143 -1.12772 1.08223 0
M  V30 6009 H 565.878 -3.22508 -0.340486 0
M  V30 6010 H 565.663 -3.67129 1.37692 0
M  V30 6011 H 567.153 -4.14505 0.507443 0
M  V30 6012 N 567.59 -1.07411 -1.15328 0
M  V30 6013 C 568.818 -0.818782 -1.90009 0
M  V30 6014 C 569.233 0.628072 -1.78047 0
M  V30 6015 O 568.59 1.43085 -1.13282 0
M  V30 6016 C 568.641 -1.21874 -3.40337 0
M  V30 6017 O 568.362 -2.60883 -3.51954 0
M  V30 6018 C 569.863 -0.992796 -4.3204 0
M  V30 6019 H 567.083 -0.296007 -0.60218 0
M  V30 6020 H 569.627 -1.43073 -1.46117 0
M  V30 6021 H 567.782 -0.651103 -3.81889 0
M  V30 6022 H 568.196 -2.77216 -4.45255 0
M  V30 6023 H 569.67 -1.32215 -5.35932 0
M  V30 6024 H 570.147 0.0708331 -4.39143 0
M  V30 6025 H 570.753 -1.54537 -3.9623 0
M  V30 6026 N 569.068 1.32177 -0.85831 0
M  V30 6027 C 569.998 2.31282 -0.321041 0
M  V30 6028 C 570.979 1.59841 0.581786 0
M  V30 6029 O 572.164 1.87619 0.501262 0
M  V30 6030 C 569.294 3.4385 0.48832 0
M  V30 6031 C 568.248 4.26799 -0.320391 0
M  V30 6032 C 567.574 5.31164 0.613934 0
M  V30 6033 C 568.874 4.98829 -1.54813 0
M  V30 6034 H 570.568 2.76469 -1.14915 0
M  V30 6035 H 568.114 1.32916 -0.554028 0
M  V30 6036 H 570.067 4.12224 0.874626 0
M  V30 6037 H 568.791 2.97401 1.34983 0
M  V30 6038 H 567.45 3.60077 -0.688497 0
M  V30 6039 H 567.098 4.80967 1.47239 0
M  V30 6040 H 566.798 5.8755 0.0768097 0
M  V30 6041 H 568.322 6.024 0.997336 0
M  V30 6042 H 569.736 5.59864 -1.23392 0
M  V30 6043 H 568.133 5.64957 -2.02346 0
M  V30 6044 H 569.203 4.26483 -2.30739 0
M  V30 6045 N 570.547 0.616602 1.45037 0
M  V30 6046 C 571.51 -0.0871112 2.29034 0
M  V30 6047 C 572.51 -0.786414 1.40258 0
M  V30 6048 O 573.7 -0.633207 1.62284 0
M  V30 6049 C 570.832 -1.13369 3.21497 0
M  V30 6050 H 572.025 0.651497 2.92738 0
M  V30 6051 H 569.578 0.376058 1.51709 0
M  V30 6052 H 570.313 -1.90277 2.62612 0
M  V30 6053 H 570.098 -0.636358 3.86902 0
M  V30 6054 H 571.588 -1.62627 3.84633 0
M  V30 6055 N 572.025 -1.5352 0.356285 0
M  V30 6056 C 572.973 -2.26945 -0.50978 0
M  V30 6057 C 573.967 -1.29569 -1.09125 0
M  V30 6058 O 575.173 -1.47231 -1.03552 0
M  V30 6059 H 571.548 -0.729368 -0.183102 0
M  V30 6060 H 573.519 -2.98111 0.131374 0
M  V30 6061 C 572.268 -3.06466 -1.64237 0
M  V30 6062 H 571.591 -3.81233 -1.20423 0
M  V30 6063 H 573.031 -3.61035 -2.22327 0
M  V30 6064 C 571.49 -2.16737 -2.57928 0
M  V30 6065 O 572.02 -1.77195 -3.60507 0
M  V30 6066 N 570.226 -1.81558 -2.26903 0
M  V30 6067 H 569.773 -2.13913 -1.43524 0
M  V30 6068 H 569.731 -1.21806 -2.89846 0
M  V30 6069 N 573.503 -0.0852151 -1.57369 0
M  V30 6070 C 574.413 0.891712 -2.16992 0
M  V30 6071 C 575.429 1.3174 -1.13669 0
M  V30 6072 O 576.605 1.38735 -1.45995 0
M  V30 6073 C 573.67 2.13635 -2.73059 0
M  V30 6074 C 572.731 1.7658 -3.91303 0
M  V30 6075 C 571.964 2.95111 -4.44686 0
M  V30 6076 O 572.187 4.09539 -3.97032 0
M  V30 6077 O 571.121 2.74149 -5.35841 0
M  V30 6078 H 574.947 0.414477 -3.00858 0
M  V30 6079 H 572.532 0.138598 -1.48756 0
M  V30 6080 H 574.414 2.86595 -3.08935 0
M  V30 6081 H 573.089 2.6043 -1.92244 0
M  V30 6082 H 571.996 1.00831 -3.60255 0
M  V30 6083 H 573.329 1.34557 -4.7345 0
M  V30 6084 N 574.981 1.5647 0.188427 0
M  V30 6085 C 575.928 1.95073 1.23349 0
M  V30 6086 C 576.898 0.812238 1.44886 0
M  V30 6087 O 578.083 1.07095 1.57909 0
M  V30 6088 C 575.223 2.30124 2.57171 0
M  V30 6089 C 574.336 3.57069 2.43157 0
M  V30 6090 C 573.471 3.81411 3.69729 0
M  V30 6091 C 572.51 5.0176 3.50575 0
M  V30 6092 N 571.647 5.22321 4.69175 0
M  V30 6093 H 576.487 2.84171 0.89728 0
M  V30 6094 H 574.024 1.40623 0.431683 0
M  V30 6095 H 575.982 2.48463 3.35145 0
M  V30 6096 H 574.612 1.44159 2.88822 0
M  V30 6097 H 573.664 3.4674 1.56447 0
M  V30 6098 H 574.976 4.452 2.24942 0
M  V30 6099 H 574.13 4.00026 4.56141 0
M  V30 6100 H 572.869 2.91624 3.90905 0
M  V30 6101 H 571.874 4.83061 2.62549 0
M  V30 6102 H 573.099 5.93063 3.30837 0
M  V30 6103 H 571.045 4.35483 4.90602 0
M  V30 6104 H 570.962 6.04643 4.53809 0
M  V30 6105 H 572.23 5.45401 5.56919 0
M  V30 6106 N 576.459 -0.456382 1.50847 0
M  V30 6107 C 577.707 -1.20497 1.62249 0
M  V30 6108 C 578.028 -1.92156 0.331839 0
M  V30 6109 O 577.298 -1.84751 -0.651443 0
M  V30 6110 H 575.878 -0.447775 0.597918 0
M  V30 6111 H 578.54 -0.525099 1.87693 0
M  V30 6112 H 577.636 -1.94492 2.44089 0
M  V30 6113 N 577.937 -1.40673 -0.710563 0
M  V30 6114 C 579.186 -1.38525 -1.46607 0
M  V30 6115 C 579.499 0.0077024 -1.95598 0
M  V30 6116 O 580.705 0.151792 -2.71075 0
M  V30 6117 C 579.161 -2.43489 -2.6503 0
M  V30 6118 C 578.769 -3.88619 -2.22888 0
M  V30 6119 C 580.513 -2.50456 -3.42742 0
M  V30 6120 C 578.42 -4.85168 -3.3818 0
M  V30 6121 H 577.35 -0.515092 -0.550632 0
M  V30 6122 H 580.001 -1.66431 -0.772846 0
M  V30 6123 H 578.383 -2.0869 -3.36548 0
M  V30 6124 H 579.557 -4.32588 -1.58758 0
M  V30 6125 H 577.872 -3.85174 -1.58208 0
M  V30 6126 H 580.469 -3.19776 -4.28541 0
M  V30 6127 H 580.812 -1.53665 -3.86902 0
M  V30 6128 H 581.345 -2.84271 -2.78271 0
M  V30 6129 H 578.084 -5.8331 -2.99047 0
M  V30 6130 H 577.604 -4.4586 -4.01209 0
M  V30 6131 H 579.283 -5.05225 -4.04174 0
M  V30 6132 N 579.415 0.9433 -1.26252 0
M  V30 6133 C 580.661 1.69175 -1.11837 0
M  V30 6134 C 580.994 1.91238 0.337891 0
M  V30 6135 O 580.269 1.49152 1.24836 0
M  V30 6136 C 580.552 3.06783 -1.88563 0
M  V30 6137 C 580.405 2.9206 -3.42083 0
M  V30 6138 C 581.724 4.06865 -1.67776 0
M  V30 6139 H 578.843 0.61399 -0.407658 0
M  V30 6140 H 581.485 1.09572 -1.55222 0
M  V30 6141 H 579.635 3.57663 -1.51689 0
M  V30 6142 H 581.307 2.48419 -3.88698 0
M  V30 6143 H 579.55 2.27731 -3.69217 0
M  V30 6144 H 580.221 3.89651 -3.90994 0
M  V30 6145 H 582.697 3.64939 -1.99897 0
M  V30 6146 H 581.573 5.01168 -2.23879 0
M  V30 6147 H 581.834 4.37705 -0.621816 0
M  V30 6148 N 580.893 1.08022 1.14757 0
M  V30 6149 C 581.823 0.728248 2.21853 0
M  V30 6150 C 582.804 -0.287486 1.67653 0
M  V30 6151 O 583.989 -0.158727 1.9355 0
M  V30 6152 C 581.119 0.132549 3.47047 0
M  V30 6153 C 580.073 1.07619 4.14249 0
M  V30 6154 C 579.399 0.342907 5.33599 0
M  V30 6155 C 580.699 2.41268 4.63235 0
M  V30 6156 H 582.393 1.62365 2.51551 0
M  V30 6157 H 579.939 0.782125 1.20908 0
M  V30 6158 H 581.892 -0.125665 4.21213 0
M  V30 6159 H 580.616 -0.797971 3.16702 0
M  V30 6160 H 579.275 1.31944 3.42033 0
M  V30 6161 H 578.923 -0.59129 4.99513 0
M  V30 6162 H 578.623 0.971955 5.79506 0
M  V30 6163 H 580.147 0.0926538 6.1053 0
M  V30 6164 H 581.561 2.21232 5.28894 0
M  V30 6165 H 579.958 2.9983 5.19829 0
M  V30 6166 H 581.028 3.03079 3.78512 0
M  V30 6167 N 582.371 -1.3172 0.865308 0
M  V30 6168 C 583.319 -2.30569 0.306674 0
M  V30 6169 C 584.313 -1.59317 -0.575724 0
M  V30 6170 O 585.519 -1.73961 -0.462343 0
M  V30 6171 H 581.894 -0.747681 0.0804834 0
M  V30 6172 H 583.865 -2.75165 1.15441 0
M  V30 6173 C 582.614 -3.44358 -0.480952 0
M  V30 6174 H 581.937 -3.99354 0.18876 0
M  V30 6175 H 583.377 -4.15652 -0.837241 0
M  V30 6176 C 581.836 -2.92574 -1.67039 0
M  V30 6177 O 582.366 -2.90954 -2.76964 0
M  V30 6178 N 580.572 -2.48835 -1.50097 0
M  V30 6179 H 580.119 -2.50353 -0.606738 0
M  V30 6180 H 580.077 -2.14543 -2.29823 0
M  V30 6181 N 583.85 -0.624285 -1.44708 0
M  V30 6182 C 585.098 -0.125802 -2.01708 0
M  V30 6183 C 585.418 1.2543 -1.49306 0
M  V30 6184 O 584.689 1.83198 -0.693924 0
M  V30 6185 H 583.269 -0.0435161 -0.745731 0
M  V30 6186 H 585.931 -0.809446 -1.77296 0
M  V30 6187 H 585.027 -0.0882734 -3.11975 0
M  V30 6188 N 585.328 1.53329 -0.364422 0
M  V30 6189 C 586.238 2.29414 0.490552 0
M  V30 6190 C 587.254 1.35335 1.09363 0
M  V30 6191 O 588.43 1.68391 1.10483 0
M  V30 6192 C 585.495 3.06772 1.61529 0
M  V30 6193 C 584.556 4.16516 1.03986 0
M  V30 6194 C 583.789 4.90176 2.111 0
M  V30 6195 O 584.012 4.63687 3.32191 0
M  V30 6196 O 582.946 5.76134 1.74222 0
M  V30 6197 H 586.772 3.03428 -0.12856 0
M  V30 6198 H 584.357 1.48843 -0.128837 0
M  V30 6199 H 586.239 3.55082 2.26924 0
M  V30 6200 H 584.914 2.35596 2.21983 0
M  V30 6201 H 583.821 3.7246 0.349856 0
M  V30 6202 H 585.154 4.89855 0.4799 0
M  V30 6203 N 586.806 0.0935595 1.57322 0
M  V30 6204 C 587.754 -0.883457 2.15169 0
M  V30 6205 C 588.748 -1.29324 1.09415 0
M  V30 6206 O 589.954 -1.26795 1.27762 0
M  V30 6207 H 586.329 -0.302923 0.688289 0
M  V30 6208 H 588.3 -0.370845 2.96087 0
M  V30 6209 C 587.049 -2.13345 2.74552 0
M  V30 6210 H 586.372 -1.82702 3.55612 0
M  V30 6211 H 587.812 -2.7977 3.18598 0
M  V30 6212 C 586.271 -2.90646 1.70371 0
M  V30 6213 O 586.801 -3.85133 1.14173 0
M  V30 6214 N 585.007 -2.54157 1.40899 0
M  V30 6215 H 584.554 -1.77391 1.86789 0
M  V30 6216 H 584.512 -3.06178 0.714301 0
M  V30 6217 N 588.284 -1.56567 -0.180126 0
M  V30 6218 C 589.247 -1.94852 -1.20686 0
M  V30 6219 C 590.247 -0.831212 -1.3765 0
M  V30 6220 O 591.437 -1.09841 -1.35206 0
M  V30 6221 C 588.569 -2.23565 -2.57355 0
M  V30 6222 H 589.762 -2.86722 -0.879225 0
M  V30 6223 H 587.315 -1.50489 -0.422237 0
M  V30 6224 H 588.05 -1.34381 -2.95148 0
M  V30 6225 H 587.835 -3.04999 -2.46411 0
M  V30 6226 H 589.325 -2.54137 -3.31367 0
M  V30 6227 N 589.762 0.448376 -1.51087 0
M  V30 6228 C 590.692 1.55102 -1.74544 0
M  V30 6229 C 591.673 1.59357 -0.594932 0
M  V30 6230 O 592.858 1.75261 -0.836491 0
M  V30 6231 C 589.988 2.93268 -1.86041 0
M  V30 6232 C 588.942 3.03877 -3.01402 0
M  V30 6233 C 588.268 4.43914 -2.98068 0
M  V30 6234 C 589.568 2.7898 -4.41551 0
M  V30 6235 H 591.262 1.35724 -2.66869 0
M  V30 6236 H 588.808 0.651498 -1.28419 0
M  V30 6237 H 590.761 3.70356 -2.01034 0
M  V30 6238 H 589.485 3.13853 -0.903548 0
M  V30 6239 H 588.144 2.29227 -2.86096 0
M  V30 6240 H 587.792 4.6145 -2.00182 0
M  V30 6241 H 587.492 4.51944 -3.75527 0
M  V30 6242 H 589.016 5.22991 -3.1514 0
M  V30 6243 H 590.43 3.45805 -4.57265 0
M  V30 6244 H 588.827 2.98431 -5.20633 0
M  V30 6245 H 589.897 1.74663 -4.5235 0
M  V30 6246 N 591.24 1.41047 0.703093 0
M  V30 6247 C 592.465 1.43537 1.49706 0
M  V30 6248 C 592.89 0.0401853 1.88057 0
M  V30 6249 O 592.248 -0.954785 1.54122 0
M  V30 6250 C 592.296 2.3433 2.74084 0
M  V30 6251 O 591.4 1.79515 3.71279 0
M  V30 6252 H 590.741 0.487454 0.450871 0
M  V30 6253 H 593.271 1.85422 0.86486 0
M  V30 6254 H 593.281 2.49947 3.22476 0
M  V30 6255 H 591.956 3.35708 2.45506 0
M  V30 6256 H 590.533 1.7331 3.30179 0
M  V30 6257 N 592.718 -0.936591 1.26751 0
M  V30 6258 C 593.967 -1.67778 1.11953 0
M  V30 6259 C 594.28 -1.92694 -0.33589 0
M  V30 6260 O 595.486 -2.64682 -0.604618 0
M  V30 6261 C 593.942 -3.02138 1.95551 0
M  V30 6262 C 593.55 -2.84953 3.45696 0
M  V30 6263 C 595.294 -3.79917 1.89377 0
M  V30 6264 C 593.201 -4.14814 4.21525 0
M  V30 6265 H 592.131 -0.629275 0.415366 0
M  V30 6266 H 594.782 -1.04122 1.51099 0
M  V30 6267 H 593.164 -3.668 1.49243 0
M  V30 6268 H 594.338 -2.29112 3.99805 0
M  V30 6269 H 592.653 -2.20612 3.53156 0
M  V30 6270 H 595.25 -4.76134 2.43312 0
M  V30 6271 H 595.593 -4.07204 0.865464 0
M  V30 6272 H 596.126 -3.22037 2.33532 0
M  V30 6273 H 592.865 -3.92709 5.24843 0
M  V30 6274 H 592.385 -4.70352 3.72195 0
M  V30 6275 H 594.064 -4.83239 4.3022 0
M  V30 6276 N 594.196 -1.08629 -1.14182 0
M  V30 6277 C 595.444 -0.815731 -1.84906 0
M  V30 6278 C 595.765 0.660441 -1.83475 0
M  V30 6279 O 595.035 1.47888 -1.28476 0
M  V30 6280 H 593.615 -0.298773 -0.684648 0
M  V30 6281 H 596.277 -1.37274 -1.38354 0
M  V30 6282 H 595.373 -1.16193 -2.89665 0
M  V30 6283 N 595.674 1.31259 -0.872281 0
M  V30 6284 C 596.622 2.30404 -0.318897 0
M  V30 6285 C 597.616 1.5962 0.567267 0
M  V30 6286 O 598.822 1.74204 0.453111 0
M  V30 6287 H 595.197 0.747243 -0.0844474 0
M  V30 6288 H 597.168 2.74549 -1.16899 0
M  V30 6289 C 595.917 3.44608 0.462683 0
M  V30 6290 H 595.24 3.99248 -0.209936 0
M  V30 6291 H 596.68 4.1609 0.815187 0
M  V30 6292 C 595.139 2.93456 1.65485 0
M  V30 6293 O 595.669 2.92418 2.75417 0
M  V30 6294 N 593.875 2.49628 1.48776 0
M  V30 6295 H 593.422 2.50671 0.593452 0
M  V30 6296 H 593.38 2.15759 2.28682 0
M  V30 6297 N 597.152 0.631951 1.44375 0
M  V30 6298 C 598.062 -0.073674 2.34484 0
M  V30 6299 C 599.078 -0.834825 1.52665 0
M  V30 6300 O 600.254 -0.786902 1.85391 0
M  V30 6301 C 597.319 -1.04247 3.30656 0
M  V30 6302 C 596.38 -0.280602 4.28382 0
M  V30 6303 C 595.613 -1.20325 5.19959 0
M  V30 6304 O 595.836 -2.44199 5.15484 0
M  V30 6305 O 594.77 -0.687128 5.97965 0
M  V30 6306 H 598.596 0.667477 2.96274 0
M  V30 6307 H 596.181 0.392144 1.44162 0
M  V30 6308 H 598.063 -1.59981 3.89851 0
M  V30 6309 H 596.738 -1.76422 2.71398 0
M  V30 6310 H 595.645 0.319804 3.72731 0
M  V30 6311 H 596.978 0.401144 4.90563 0
M  V30 6312 N 598.631 -1.53133 0.372548 0
M  V30 6313 C 599.541 -2.29671 -0.478379 0
M  V30 6314 C 600.557 -1.35913 -1.08644 0
M  V30 6315 O 601.733 -1.68975 -1.09588 0
M  V30 6316 C 598.798 -3.07625 -1.599 0
M  V30 6317 C 597.859 -4.17061 -1.01776 0
M  V30 6318 C 597.092 -4.91289 -2.08497 0
M  V30 6319 O 597.315 -4.65442 -3.29727 0
M  V30 6320 O 596.249 -5.7705 -1.71164 0
M  V30 6321 H 600.075 -3.03355 0.144649 0
M  V30 6322 H 597.66 -1.48773 0.136729 0
M  V30 6323 H 599.542 -3.56281 -2.25038 0
M  V30 6324 H 598.217 -2.3677 -2.2073 0
M  V30 6325 H 597.124 -3.72641 -0.330098 0
M  V30 6326 H 598.457 -4.90102 -0.453915 0
M  V30 6327 N 600.109 -0.101901 -1.5727 0
M  V30 6328 C 601.019 0.868647 -2.17926 0
M  V30 6329 C 602.035 1.30527 -1.1506 0
M  V30 6330 O 603.211 1.37178 -1.47459 0
M  V30 6331 C 600.276 2.10727 -2.75309 0
M  V30 6332 C 599.337 1.7242 -3.93154 0
M  V30 6333 C 598.57 2.90377 -4.47791 0
M  V30 6334 O 598.793 4.05305 -4.01353 0
M  V30 6335 O 597.727 2.6845 -5.38719 0
M  V30 6336 H 601.553 0.382544 -3.01281 0
M  V30 6337 H 599.138 0.122812 -1.48894 0
M  V30 6338 H 601.02 2.83303 -3.11958 0
M  V30 6339 H 599.695 2.58376 -1.94996 0
M  V30 6340 H 598.602 0.970039 -3.61305 0
M  V30 6341 H 599.935 1.29528 -4.74851 0
M  V30 6342 N 601.587 1.56661 0.17182 0
M  V30 6343 C 602.817 1.85831 0.902804 0
M  V30 6344 C 603.225 0.685157 1.76358 0
M  V30 6345 O 602.568 -0.354947 1.80238 0
M  V30 6346 C 602.63 3.09406 1.83053 0
M  V30 6347 C 602.294 4.4231 1.1494 0
M  V30 6348 C 603.291 5.17342 0.515104 0
M  V30 6349 C 600.976 4.89045 1.14631 0
M  V30 6350 C 602.97 6.37299 -0.113194 0
M  V30 6351 C 600.657 6.08933 0.514184 0
M  V30 6352 C 601.655 6.82904 -0.114463 0
M  V30 6353 O 601.343 8.00518 -0.736622 0
M  V30 6354 H 601.075 0.620715 0.267748 0
M  V30 6355 H 603.629 2.04637 0.176918 0
M  V30 6356 H 601.859 2.86544 2.59672 0
M  V30 6357 H 603.548 3.25027 2.4313 0
M  V30 6358 H 604.314 4.82317 0.509474 0
M  V30 6359 H 600.193 4.31409 1.62502 0
M  V30 6360 H 603.737 6.94976 -0.604477 0
M  V30 6361 H 599.634 6.43423 0.517395 0
M  V30 6362 H 600.402 8.16027 -0.635822 0
M  V30 6363 N 603.065 -0.440357 1.51323 0
M  V30 6364 C 604.012 -1.53429 1.72419 0
M  V30 6365 C 604.982 -1.56165 0.565826 0
M  V30 6366 O 606.167 -1.73222 0.799917 0
M  V30 6367 C 603.307 -2.91169 1.85242 0
M  V30 6368 C 602.42 -2.97985 3.12777 0
M  V30 6369 C 601.555 -4.26829 3.16212 0
M  V30 6370 C 600.594 -4.27501 4.38074 0
M  V30 6371 N 599.731 -5.47866 4.39076 0
M  V30 6372 H 604.571 -1.34743 2.65797 0
M  V30 6373 H 602.108 -0.654608 1.31732 0
M  V30 6374 H 604.066 -3.71087 1.90658 0
M  V30 6375 H 602.696 -3.0842 0.952744 0
M  V30 6376 H 601.748 -2.10749 3.16685 0
M  V30 6377 H 603.06 -2.94342 4.02696 0
M  V30 6378 H 602.214 -5.15118 3.20527 0
M  V30 6379 H 600.953 -4.33124 2.24176 0
M  V30 6380 H 599.958 -3.37606 4.33938 0
M  V30 6381 H 601.183 -4.22873 5.31371 0
M  V30 6382 H 599.129 -5.54887 3.49909 0
M  V30 6383 H 599.046 -5.46091 5.22801 0
M  V30 6384 H 600.314 -6.38195 4.4758 0
M  V30 6385 N 604.543 -1.41418 -0.695603 0
M  V30 6386 C 605.959 -1.23887 -1.00619 0
M  V30 6387 C 606.159 -0.128206 -2.01092 0
M  V30 6388 O 605.215 0.507408 -2.47349 0
M  V30 6389 C 606.528 -2.58816 -1.53083 0
M  V30 6390 C 608.076 -2.65998 -1.64967 0
M  V30 6391 C 608.551 -4.01244 -2.20833 0
M  V30 6392 N 610.042 -4.0309 -2.28194 0
M  V30 6393 C 610.777 -5.04539 -2.72448 0
M  V30 6394 N 610.273 -6.16378 -3.16306 0
M  V30 6395 N 612.066 -4.91901 -2.72011 0
M  V30 6396 H 604.217 -2.12379 -0.0300061 0
M  V30 6397 H 606.48 -0.944958 -0.0758797 0
M  V30 6398 H 606.186 -3.40842 -0.867147 0
M  V30 6399 H 606.06 -2.81299 -2.51298 0
M  V30 6400 H 608.447 -1.84331 -2.30448 0
M  V30 6401 H 608.528 -2.47325 -0.652982 0
M  V30 6402 H 608.172 -4.83359 -1.55968 0
M  V30 6403 H 608.102 -4.17257 -3.21254 0
M  V30 6404 H 610.593 -3.22341 -1.97242 0
M  V30 6405 H 610.906 -6.89658 -3.487 0
M  V30 6406 H 609.251 -6.19914 -3.14215 0
M  V30 6407 H 612.442 -4.03613 -2.37095 0
M  V30 6408 H 612.615 -5.71102 -3.06181 0
M  V30 6409 N 606.021 0.929856 -1.27246 0
M  V30 6410 C 607.267 1.6798 -1.13625 0
M  V30 6411 C 607.6 1.91586 0.317589 0
M  V30 6412 O 606.875 1.50467 1.23247 0
M  V30 6413 C 607.158 3.04766 -1.91806 0
M  V30 6414 C 607.011 2.88415 -3.45162 0
M  V30 6415 C 608.33 4.05063 -1.72082 0
M  V30 6416 H 605.449 0.609632 -0.414147 0
M  V30 6417 H 608.091 1.0792 -1.56376 0
M  V30 6418 H 606.241 3.56034 -1.55474 0
M  V30 6419 H 607.913 2.44282 -3.91311 0
M  V30 6420 H 606.156 2.23802 -3.71611 0
M  V30 6421 H 606.827 3.85482 -3.95105 0
M  V30 6422 H 609.303 3.62798 -2.03757 0
M  V30 6423 H 608.179 4.98765 -2.29182 0
M  V30 6424 H 608.44 4.37021 -0.668206 0
M  V30 6425 N 607.499 1.09233 1.13605 0
M  V30 6426 C 608.462 0.733553 2.17144 0
M  V30 6427 C 609.462 -0.235873 1.59061 0
M  V30 6428 O 610.652 -0.0143167 1.74194 0
M  V30 6429 C 607.784 0.084471 3.40795 0
M  V30 6430 H 608.977 1.65049 2.50397 0
M  V30 6431 H 606.53 0.891264 1.28399 0
M  V30 6432 H 607.265 -0.843795 3.1313 0
M  V30 6433 H 607.05 0.781985 3.84223 0
M  V30 6434 H 608.54 -0.151216 4.17326 0
M  V30 6435 N 608.977 -1.30795 0.87923 0
M  V30 6436 C 609.887 -2.32041 0.345565 0
M  V30 6437 C 610.903 -1.65103 -0.549265 0
M  V30 6438 O 612.079 -1.9645 -0.443763 0
M  V30 6439 C 609.144 -3.43944 -0.436245 0
M  V30 6440 C 608.205 -4.26521 0.48765 0
M  V30 6441 C 607.438 -5.33081 -0.256943 0
M  V30 6442 O 607.661 -5.50762 -1.48381 0
M  V30 6443 O 606.595 -6.00635 0.389985 0
M  V30 6444 H 610.421 -2.79627 1.18501 0
M  V30 6445 H 608.006 -1.3486 0.642885 0
M  V30 6446 H 609.888 -4.12128 -0.879119 0
M  V30 6447 H 608.563 -2.98504 -1.25208 0
M  V30 6448 H 607.47 -3.61057 0.979216 0
M  V30 6449 H 608.803 -4.75551 1.26933 0
M  V30 6450 N 610.455 -0.639598 -1.44038 0
M  V30 6451 C 611.388 0.109736 -2.27936 0
M  V30 6452 C 612.366 0.843095 -1.39035 0
M  V30 6453 O 613.55 0.845456 -1.68476 0
M  V30 6454 C 610.677 1.16173 -3.18153 0
M  V30 6455 C 609.723 0.527954 -4.2322 0
M  V30 6456 S 610.556 -0.688318 -5.31058 0
M  V30 6457 C 611.712 0.363481 -6.24844 0
M  V30 6458 H 611.945 -0.601986 -2.91142 0
M  V30 6459 H 609.478 -0.42802 -1.48349 0
M  V30 6460 H 611.436 1.76372 -3.7068 0
M  V30 6461 H 610.097 1.84569 -2.54151 0
M  V30 6462 H 609.29 1.32054 -4.86393 0
M  V30 6463 H 608.892 0.000396444 -3.74 0
M  V30 6464 H 611.184 1.23362 -6.66174 0
M  V30 6465 H 612.127 -0.23288 -7.07717 0
M  V30 6466 H 612.535 0.693179 -5.60228 0
M  V30 6467 N 611.933 1.52934 -0.380664 0
M  V30 6468 C 612.896 2.24809 0.446473 0
M  V30 6469 C 613.896 1.26133 0.997347 0
M  V30 6470 O 615.086 1.50297 0.880714 0
M  V30 6471 C 612.218 2.99649 1.62553 0
M  V30 6472 H 613.411 2.99343 -0.182677 0
M  V30 6473 H 610.964 1.55736 -0.132618 0
M  V30 6474 H 611.699 2.29395 2.29235 0
M  V30 6475 H 611.484 3.72066 1.23732 0
M  V30 6476 H 612.974 3.54246 2.21133 0
M  V30 6477 N 613.412 0.11024 1.57214 0
M  V30 6478 C 614.659 -0.54987 1.94891 0
M  V30 6479 C 614.987 -1.67243 0.992984 0
M  V30 6480 O 614.242 -1.95694 0.0152703 0
M  V30 6481 C 614.541 -1.13102 3.39032 0
M  V30 6482 C 614.207 -0.130713 4.5071 0
M  V30 6483 C 612.869 0.14437 4.80983 0
M  V30 6484 C 615.221 0.551472 5.18274 0
M  V30 6485 C 612.549 1.10807 5.76141 0
M  V30 6486 C 614.901 1.50375 6.14467 0
M  V30 6487 C 613.565 1.78691 6.43138 0
M  V30 6488 H 612.835 -0.201212 0.713158 0
M  V30 6489 H 615.482 0.189288 1.90562 0
M  V30 6490 H 613.787 -1.94675 3.40013 0
M  V30 6491 H 615.484 -1.64973 3.65493 0
M  V30 6492 H 612.074 -0.355301 4.27125 0
M  V30 6493 H 616.258 0.35211 4.95049 0
M  V30 6494 H 611.514 1.3343 5.96663 0
M  V30 6495 H 615.688 2.03808 6.65909 0
M  V30 6496 H 613.315 2.53522 7.1668 0
M  V30 6497 N 614.89 -1.56749 -0.16351 0
M  V30 6498 C 615.838 -1.97939 -1.22159 0
M  V30 6499 C 616.832 -0.869288 -1.45395 0
M  V30 6500 O 618.038 -1.05443 -1.45883 0
M  V30 6501 H 614.413 -0.629869 -0.410815 0
M  V30 6502 H 616.384 -2.86115 -0.847381 0
M  V30 6503 C 615.133 -2.36206 -2.55151 0
M  V30 6504 H 614.456 -3.2117 -2.38097 0
M  V30 6505 H 615.896 -2.68863 -3.27854 0
M  V30 6506 C 614.355 -1.20841 -3.14482 0
M  V30 6507 O 614.885 -0.500258 -3.98573 0
M  V30 6508 N 613.091 -0.976943 -2.73686 0
M  V30 6509 H 612.638 -1.55457 -2.05404 0
M  V30 6510 H 612.596 -0.206912 -3.13718 0
M  V30 6511 N 616.368 0.432326 -1.51554 0
M  V30 6512 C 617.598 1.2019 -1.68042 0
M  V30 6513 C 618.006 1.85356 -0.379434 0
M  V30 6514 O 617.349 1.71724 0.652427 0
M  V30 6515 C 617.411 2.32387 -2.74292 0
M  V30 6516 C 617.075 1.87548 -4.16743 0
M  V30 6517 C 618.072 1.37611 -5.01357 0
M  V30 6518 C 615.757 1.95087 -4.62868 0
M  V30 6519 C 617.751 0.958069 -6.30159 0
M  V30 6520 C 615.438 1.52894 -5.91664 0
M  V30 6521 C 616.436 1.03336 -6.75137 0
M  V30 6522 O 616.124 0.617435 -8.01525 0
M  V30 6523 H 615.856 0.368132 -0.56697 0
M  V30 6524 H 618.41 0.517875 -1.98764 0
M  V30 6525 H 616.64 3.04082 -2.38895 0
M  V30 6526 H 618.329 2.94235 -2.79608 0
M  V30 6527 H 619.095 1.31178 -4.66923 0
M  V30 6528 H 614.974 2.32606 -3.98015 0
M  V30 6529 H 618.518 0.570562 -6.95263 0
M  V30 6530 H 614.415 1.58999 -6.25611 0
M  V30 6531 H 615.183 0.742835 -8.15122 0
M  V30 6532 N 617.846 1.41785 0.688094 0
M  V30 6533 C 618.794 1.44436 1.82321 0
M  V30 6534 C 619.788 0.321544 1.6632 0
M  V30 6535 O 620.994 0.493931 1.73091 0
M  V30 6536 H 617.369 0.452084 0.600936 0
M  V30 6537 H 619.34 2.40087 1.77202 0
M  V30 6538 C 618.089 1.35071 3.20392 0
M  V30 6539 H 617.412 2.2076 3.33324 0
M  V30 6540 H 618.852 1.40988 3.99873 0
M  V30 6541 C 617.311 0.0639127 3.36839 0
M  V30 6542 O 617.841 -0.888495 3.91751 0
M  V30 6543 N 616.047 -0.0146114 2.90596 0
M  V30 6544 H 615.594 0.761191 2.46097 0
M  V30 6545 H 615.552 -0.874988 3.01979 0
M  V30 6546 N 619.324 -0.923095 1.27737 0
M  V30 6547 C 620.571 -1.67127 1.14345 0
M  V30 6548 C 620.899 -1.92017 -0.30982 0
M  V30 6549 O 620.154 -1.51185 -1.24264 0
M  V30 6550 C 620.453 -3.04125 1.8773 0
M  V30 6551 C 620.119 -2.98929 3.37568 0
M  V30 6552 C 618.781 -2.9722 3.78436 0
M  V30 6553 C 621.133 -2.89875 4.33154 0
M  V30 6554 C 618.461 -2.84244 5.13247 0
M  V30 6555 C 620.813 -2.7844 5.68026 0
M  V30 6556 C 619.477 -2.75083 6.08182 0
M  V30 6557 H 618.747 -0.611562 0.418417 0
M  V30 6558 H 621.394 -1.07618 1.584 0
M  V30 6559 H 619.699 -3.67366 1.36196 0
M  V30 6560 H 621.396 -3.609 1.74792 0
M  V30 6561 H 617.986 -3.0105 3.05069 0
M  V30 6562 H 622.17 -2.9029 4.02548 0
M  V30 6563 H 617.426 -2.80034 5.43499 0
M  V30 6564 H 621.6 -2.70401 6.4176 0
M  V30 6565 H 619.227 -2.64786 7.12596 0
M  V30 6566 N 620.802 -1.09834 -1.13024 0
M  V30 6567 C 621.765 -0.745058 -2.16752 0
M  V30 6568 C 622.765 0.227435 -1.59183 0
M  V30 6569 O 623.955 0.0050786 -1.74199 0
M  V30 6570 C 621.087 -0.102543 -3.40746 0
M  V30 6571 H 622.28 -1.66375 -2.49518 0
M  V30 6572 H 619.833 -0.898061 -1.27924 0
M  V30 6573 H 620.568 0.827177 -3.13573 0
M  V30 6574 H 620.353 -0.80235 -3.83803 0
M  V30 6575 H 621.843 0.129082 -4.174 0
M  V30 6576 N 622.28 1.30327 -0.886154 0
M  V30 6577 C 623.528 1.9571 -0.504195 0
M  V30 6578 C 623.849 1.70294 0.950003 0
M  V30 6579 O 623.119 1.02718 1.66811 0
M  V30 6580 H 621.699 0.72412 -0.183465 0
M  V30 6581 H 624.361 1.58835 -1.12949 0
M  V30 6582 H 623.457 3.04704 -0.675431 0
M  V30 6583 N 623.758 0.647228 1.43697 0
M  V30 6584 C 625.005 0.158188 2.01881 0
M  V30 6585 C 625.333 -1.22573 1.51017 0
M  V30 6586 O 624.588 -1.83086 0.69122 0
M  V30 6587 C 624.887 0.111481 3.57226 0
M  V30 6588 C 624.553 1.43633 4.27411 0
M  V30 6589 C 623.215 1.79915 4.463 0
M  V30 6590 C 625.567 2.31011 4.67208 0
M  V30 6591 C 622.895 3.03251 5.02251 0
M  V30 6592 C 625.247 3.53633 5.24525 0
M  V30 6593 C 623.911 3.90118 5.41631 0
M  V30 6594 H 623.181 0.0578851 0.738736 0
M  V30 6595 H 625.828 0.836746 1.72252 0
M  V30 6596 H 624.133 -0.650507 3.86362 0
M  V30 6597 H 625.83 -0.283682 3.99995 0
M  V30 6598 H 622.42 1.14403 4.1305 0
M  V30 6599 H 626.604 2.04272 4.52313 0
M  V30 6600 H 621.86 3.31575 5.13681 0
M  V30 6601 H 626.034 4.21561 5.5431 0
M  V30 6602 H 623.661 4.85768 5.84751 0
M  V30 6603 N 625.236 -1.5273 0.388769 0
M  V30 6604 C 626.464 -2.05992 -0.193677 0
M  V30 6605 C 626.879 -1.26053 -1.40557 0
M  V30 6606 O 626.236 -0.307049 -1.79898 0
M  V30 6607 C 626.287 -3.57068 -0.564321 0
M  V30 6608 O 626.008 -4.3398 0.599422 0
M  V30 6609 C 627.509 -4.26674 -1.20269 0
M  V30 6610 H 624.729 -0.670358 -0.0293445 0
M  V30 6611 H 627.273 -1.96857 0.553844 0
M  V30 6612 H 625.428 -3.66277 -1.26174 0
M  V30 6613 H 625.842 -5.2367 0.294895 0
M  V30 6614 H 627.316 -5.33625 -1.4124 0
M  V30 6615 H 627.793 -3.81854 -2.16989 0
M  V30 6616 H 628.399 -4.2178 -0.546047 0
M  V30 6617 N 626.714 -0.118576 -1.57153 0
M  V30 6618 C 627.644 0.828436 -2.1831 0
M  V30 6619 C 628.625 1.27758 -1.12303 0
M  V30 6620 O 629.81 1.34026 -1.40537 0
M  V30 6621 C 626.94 2.07876 -2.78217 0
M  V30 6622 C 625.894 1.76742 -3.89803 0
M  V30 6623 C 625.22 3.08801 -4.36516 0
M  V30 6624 C 626.52 1.03606 -5.11921 0
M  V30 6625 H 628.214 0.318824 -2.97698 0
M  V30 6626 H 625.76 0.151911 -1.43196 0
M  V30 6627 H 627.713 2.74584 -3.19659 0
M  V30 6628 H 626.437 2.61161 -1.96118 0
M  V30 6629 H 625.096 1.12424 -3.48936 0
M  V30 6630 H 624.744 3.6002 -3.51276 0
M  V30 6631 H 624.444 2.88743 -5.11763 0
M  V30 6632 H 625.968 3.76627 -4.80608 0
M  V30 6633 H 627.382 1.60467 -5.50385 0
M  V30 6634 H 625.779 0.936454 -5.92748 0
M  V30 6635 H 626.849 0.0227421 -4.84895 0
M  V30 6636 N 628.193 1.56834 0.155195 0
M  V30 6637 C 629.123 2.00678 1.19376 0
M  V30 6638 C 630.104 0.884973 1.45266 0
M  V30 6639 O 631.289 1.1522 1.56326 0
M  V30 6640 C 628.419 2.38042 2.5289 0
M  V30 6641 C 627.373 3.53332 2.41538 0
M  V30 6642 C 626.699 3.76485 3.79688 0
M  V30 6643 C 627.999 4.86265 1.9064 0
M  V30 6644 H 629.693 2.87688 0.829232 0
M  V30 6645 H 627.239 1.38407 0.397445 0
M  V30 6646 H 629.192 2.67314 3.25763 0
M  V30 6647 H 627.916 1.4796 2.91162 0
M  V30 6648 H 626.575 3.24213 1.71117 0
M  V30 6649 H 626.223 2.83667 4.15382 0
M  V30 6650 H 625.923 4.54068 3.72956 0
M  V30 6651 H 627.447 4.08174 4.54122 0
M  V30 6652 H 628.861 5.14308 2.53299 0
M  V30 6653 H 627.258 5.67597 1.94818 0
M  V30 6654 H 628.328 4.77184 0.861596 0
M  V30 6655 N 629.671 -0.424282 1.51781 0
M  V30 6656 C 631.087 -0.761768 1.40247 0
M  V30 6657 C 631.287 -1.95324 0.495041 0
M  V30 6658 O 630.343 -2.5246 -0.0448949 0
M  V30 6659 C 631.656 -1.0299 2.82513 0
M  V30 6660 C 633.204 -1.13354 2.91753 0
M  V30 6661 C 633.679 -1.43453 4.34954 0
M  V30 6662 N 635.17 -1.5035 4.3812 0
M  V30 6663 C 635.905 -1.75236 5.45967 0
M  V30 6664 N 635.401 -1.97827 6.63955 0
M  V30 6665 N 637.194 -1.77126 5.33463 0
M  V30 6666 H 629.345 0.360228 2.09323 0
M  V30 6667 H 631.608 0.0988128 0.942836 0
M  V30 6668 H 631.314 -0.226961 3.50967 0
M  V30 6669 H 631.188 -1.95411 3.22637 0
M  V30 6670 H 633.575 -1.92709 2.23489 0
M  V30 6671 H 633.656 -0.188041 2.55108 0
M  V30 6672 H 633.3 -0.646209 5.03772 0
M  V30 6673 H 633.23 -2.3923 4.69123 0
M  V30 6674 H 635.721 -1.34742 3.53062 0
M  V30 6675 H 636.034 -2.16223 7.41935 0
M  V30 6676 H 634.379 -1.95123 6.67047 0
M  V30 6677 H 637.57 -1.59005 4.40267 0
M  V30 6678 H 637.743 -1.96182 6.17589 0
M  V30 6679 N 631.149 -1.42148 -0.680565 0
M  V30 6680 C 632.379 -1.45485 -1.46689 0
M  V30 6681 C 632.787 -0.0629451 -1.89095 0
M  V30 6682 O 632.13 0.931397 -1.58337 0
M  V30 6683 C 632.192 -2.31397 -2.75129 0
M  V30 6684 C 631.856 -3.79353 -2.54834 0
M  V30 6685 C 632.853 -4.71148 -2.19808 0
M  V30 6686 C 630.538 -4.23557 -2.70008 0
M  V30 6687 C 632.532 -6.05139 -2.00215 0
M  V30 6688 C 630.219 -5.57609 -2.50031 0
M  V30 6689 C 631.217 -6.48216 -2.15187 0
M  V30 6690 O 630.905 -7.79792 -1.95397 0
M  V30 6691 H 630.637 -0.497139 -0.458071 0
M  V30 6692 H 633.191 -1.87252 -0.844139 0
M  V30 6693 H 631.421 -1.84468 -3.39865 0
M  V30 6694 H 633.11 -2.26257 -3.36991 0
M  V30 6695 H 633.876 -4.38282 -2.07686 0
M  V30 6696 H 629.755 -3.53327 -2.96109 0
M  V30 6697 H 633.299 -6.75823 -1.72941 0
M  V30 6698 H 629.196 -5.9005 -2.61748 0
M  V30 6699 H 629.964 -7.91091 -2.10042 0
M  V30 6700 N 632.627 0.916307 -1.28225 0
M  V30 6701 C 633.559 2.02303 -1.07732 0
M  V30 6702 C 634.572 1.62773 -0.0298421 0
M  V30 6703 O 635.761 1.76406 -0.272626 0
M  V30 6704 C 632.861 3.33282 -0.614504 0
M  V30 6705 C 632.034 4.01439 -1.73682 0
M  V30 6706 C 631.093 5.10698 -1.26781 0
M  V30 6707 O 630.119 5.34038 -1.96958 0
M  V30 6708 N 631.321 5.80355 -0.129624 0
M  V30 6709 H 634.086 2.20442 -2.03041 0
M  V30 6710 H 631.647 1.08744 -1.19943 0
M  V30 6711 H 633.639 4.03699 -0.284397 0
M  V30 6712 H 632.209 3.11633 0.245664 0
M  V30 6713 H 631.429 3.24604 -2.23665 0
M  V30 6714 H 632.717 4.43721 -2.48976 0
M  V30 6715 H 632.115 5.6386 0.455847 0
M  V30 6716 H 630.672 6.51647 0.141224 0
M  V30 6717 N 634.105 1.10431 1.1244 0
M  V30 6718 C 635.382 0.758797 1.80282 0
M  V30 6719 C 635.762 -0.754727 1.97147 0
M  V30 6720 O 635.11 -1.68094 1.54779 0
M  V30 6721 C 635.32 1.50982 3.14651 0
M  V30 6722 C 636.668 1.68232 3.8985 0
M  V30 6723 O 637.692 1.47319 3.24308 0
M  V30 6724 O 636.551 2.02905 5.07437 0
M  V30 6725 H 633.645 0.273756 0.780376 0
M  V30 6726 H 636.191 1.20713 1.19275 0
M  V30 6727 H 634.963 2.53989 2.97666 0
M  V30 6728 H 634.586 1.05435 3.83366 0
M  V30 6729 N 635.583 -1.29855 0.893053 0
M  V30 6730 C 636.829 -1.96116 0.516349 0
M  V30 6731 C 637.162 -1.70281 -0.933695 0
M  V30 6732 O 636.437 -1.01205 -1.66096 0
M  V30 6733 C 636.72 -3.51068 0.801455 0
M  V30 6734 C 636.573 -3.86387 2.30272 0
M  V30 6735 C 637.892 -4.39186 0.283423 0
M  V30 6736 H 635.011 -0.712335 0.189072 0
M  V30 6737 H 637.653 -1.53587 1.11852 0
M  V30 6738 H 635.803 -3.87424 0.288949 0
M  V30 6739 H 637.475 -3.60012 2.88425 0
M  V30 6740 H 635.718 -3.34167 2.76613 0
M  V30 6741 H 636.389 -4.94512 2.45279 0
M  V30 6742 H 638.865 -4.09785 0.722187 0
M  V30 6743 H 637.741 -5.46505 0.512169 0
M  V30 6744 H 638.002 -4.34511 -0.815643 0
M  V30 6745 N 637.061 -0.65484 -1.43351 0
M  V30 6746 C 637.994 0.0855537 -2.2804 0
M  V30 6747 C 638.972 0.828301 -1.39921 0
M  V30 6748 O 640.156 0.827539 -1.69364 0
M  V30 6749 C 637.283 1.12792 -3.19368 0
M  V30 6750 C 636.329 0.483037 -4.23756 0
M  V30 6751 S 637.162 -0.744605 -5.30298 0
M  V30 6752 C 638.318 0.297187 -6.25194 0
M  V30 6753 H 638.551 -0.632831 -2.90487 0
M  V30 6754 H 636.084 -0.44373 -1.47886 0
M  V30 6755 H 638.042 1.7243 -3.72529 0
M  V30 6756 H 636.703 1.81863 -2.56095 0
M  V30 6757 H 635.896 1.26888 -4.87766 0
M  V30 6758 H 635.498 -0.0392713 -3.73979 0
M  V30 6759 H 637.79 1.1629 -6.67445 0
M  V30 6760 H 638.733 -0.30793 -7.0743 0
M  V30 6761 H 639.141 0.633721 -5.60932 0
M  V30 6762 N 638.539 1.52521 -0.396863 0
M  V30 6763 C 639.769 2.05792 0.182485 0
M  V30 6764 C 640.177 1.26784 1.40436 0
M  V30 6765 O 639.52 0.309617 1.81072 0
M  V30 6766 C 639.582 3.54291 0.609781 0
M  V30 6767 C 639.246 4.5426 -0.499674 0
M  V30 6768 C 640.243 5.01812 -1.35944 0
M  V30 6769 C 637.928 4.97827 -0.668864 0
M  V30 6770 C 639.922 5.91562 -2.37346 0
M  V30 6771 C 637.609 5.87376 -1.68621 0
M  V30 6772 C 638.607 6.34137 -2.53692 0
M  V30 6773 O 638.295 7.21915 -3.53686 0
M  V30 6774 H 638.027 0.675362 0.0293583 0
M  V30 6775 H 640.581 1.97539 -0.56281 0
M  V30 6776 H 638.811 3.60188 1.40717 0
M  V30 6777 H 640.5 3.90267 1.11565 0
M  V30 6778 H 641.266 4.68879 -1.24008 0
M  V30 6779 H 637.145 4.60997 -0.0163971 0
M  V30 6780 H 640.689 6.27983 -3.03782 0
M  V30 6781 H 636.586 6.19723 -1.80593 0
M  V30 6782 H 637.354 7.39996 -3.49784 0
M  V30 6783 N 640.017 0.126909 1.57088 0
M  V30 6784 C 640.965 -0.837618 2.16995 0
M  V30 6785 C 641.959 -1.26974 1.12133 0
M  V30 6786 O 643.165 -1.24056 1.30423 0
M  V30 6787 H 639.54 -0.288256 0.694559 0
M  V30 6788 H 641.511 -0.307957 2.96807 0
M  V30 6789 C 640.26 -2.07474 2.79016 0
M  V30 6790 H 639.583 -1.75117 3.59408 0
M  V30 6791 H 641.023 -2.72949 3.24461 0
M  V30 6792 C 639.482 -2.86967 1.76498 0
M  V30 6793 O 640.012 -3.82625 1.22316 0
M  V30 6794 N 638.218 -2.51111 1.46258 0
M  V30 6795 H 637.765 -1.73389 1.90509 0
M  V30 6796 H 637.723 -3.04594 0.779085 0
M  V30 6797 N 641.495 -1.56914 -0.146875 0
M  V30 6798 C 642.443 -1.99224 -1.20053 0
M  V30 6799 C 643.437 -0.884661 -1.44465 0
M  V30 6800 O 644.643 -1.06984 -1.44756 0
M  V30 6801 H 641.018 -0.634191 -0.404112 0
M  V30 6802 H 642.989 -2.86998 -0.816987 0
M  V30 6803 C 641.738 -2.38899 -2.52632 0
M  V30 6804 H 641.061 -3.23677 -2.34677 0
M  V30 6805 H 642.501 -2.72326 -3.24984 0
M  V30 6806 C 640.96 -1.2417 -3.13183 0
M  V30 6807 O 641.49 -0.542503 -3.9802 0
M  V30 6808 N 639.696 -1.00592 -2.72635 0
M  V30 6809 H 639.243 -1.57627 -2.03744 0
M  V30 6810 H 639.201 -0.240174 -3.13481 0
M  V30 6811 N 642.974 0.416227 -1.52004 0
M  V30 6812 C 644.199 1.19029 -1.69843 0
M  V30 6813 C 644.624 1.83708 -0.404103 0
M  V30 6814 O 643.982 1.69711 0.637787 0
M  V30 6815 C 644.03 2.23439 -2.83032 0
M  V30 6816 O 643.134 3.29419 -2.48106 0
M  V30 6817 H 642.475 0.347785 -0.565634 0
M  V30 6818 H 645.005 0.488871 -1.98674 0
M  V30 6819 H 645.015 2.67884 -3.07737 0
M  V30 6820 H 643.69 1.75745 -3.76944 0
M  V30 6821 H 642.267 2.90303 -2.34048 0
M  V30 6822 N 644.452 1.42507 0.673017 0
M  V30 6823 C 645.382 1.48916 1.79851 0
M  V30 6824 C 646.363 0.345566 1.66553 0
M  V30 6825 O 647.548 0.560116 1.85947 0
M  V30 6826 C 644.678 1.39258 3.18158 0
M  V30 6827 C 643.632 2.51662 3.46194 0
M  V30 6828 C 642.958 2.27062 4.84094 0
M  V30 6829 C 644.258 3.93968 3.42909 0
M  V30 6830 H 645.952 2.43114 1.74745 0
M  V30 6831 H 643.498 1.17013 0.839288 0
M  V30 6832 H 645.451 1.42349 3.96629 0
M  V30 6833 H 644.175 0.415542 3.23946 0
M  V30 6834 H 642.834 2.47891 2.70084 0
M  V30 6835 H 642.482 1.27648 4.86534 0
M  V30 6836 H 642.182 3.02398 5.03815 0
M  V30 6837 H 643.706 2.31905 5.64847 0
M  V30 6838 H 645.12 3.99332 4.11347 0
M  V30 6839 H 643.517 4.6917 3.74165 0
M  V30 6840 H 644.587 4.20512 2.41449 0
M  V30 6841 N 645.93 -0.909495 1.28709 0
M  V30 6842 C 646.863 -2.01388 1.07323 0
M  V30 6843 C 647.841 -1.62596 -0.0119757 0
M  V30 6844 O 649.025 -1.88003 0.136796 0
M  V30 6845 C 646.152 -3.32755 0.631797 0
M  V30 6846 C 645.198 -3.90532 1.71428 0
M  V30 6847 S 646.031 -4.20853 3.31124 0
M  V30 6848 C 647.187 -5.55276 2.88825 0
M  V30 6849 H 647.42 -2.19219 2.00824 0
M  V30 6850 H 644.953 -1.05489 1.12745 0
M  V30 6851 H 646.911 -4.08702 0.38381 0
M  V30 6852 H 645.572 -3.12818 -0.283451 0
M  V30 6853 H 644.765 -4.85385 1.35712 0
M  V30 6854 H 644.367 -3.21237 1.91528 0
M  V30 6855 H 646.659 -6.35341 2.3526 0
M  V30 6856 H 647.602 -5.95907 3.82492 0
M  V30 6857 H 648.01 -5.16666 2.27412 0
M  V30 6858 N 647.408 -1.11026 -1.11852 0
M  V30 6859 C 648.656 -0.854769 -1.83134 0
M  V30 6860 C 648.977 0.621375 -1.84835 0
M  V30 6861 O 648.247 1.45129 -1.31584 0
M  V30 6862 H 646.827 -0.313229 -0.678157 0
M  V30 6863 H 649.489 -1.40178 -1.35411 0
M  V30 6864 H 648.585 -1.22311 -2.87135 0
M  V30 6865 N 648.886 1.2938 -0.899927 0
M  V30 6866 C 649.833 2.27713 -0.376243 0
M  V30 6867 C 650.803 1.57016 0.541774 0
M  V30 6868 O 651.988 1.84997 0.466966 0
M  V30 6869 C 649.128 3.42889 0.39 0
M  V30 6870 C 648.241 4.28369 -0.558938 0
M  V30 6871 C 647.376 5.30726 0.224379 0
M  V30 6872 C 646.415 6.07862 -0.719068 0
M  V30 6873 N 645.552 7.02094 0.0298569 0
M  V30 6874 H 650.392 2.71888 -1.21988 0
M  V30 6875 H 647.929 1.33724 -0.612879 0
M  V30 6876 H 649.887 4.08443 0.850314 0
M  V30 6877 H 648.517 2.99743 1.19809 0
M  V30 6878 H 647.569 3.62986 -1.13777 0
M  V30 6879 H 648.881 4.82068 -1.2811 0
M  V30 6880 H 648.035 6.02098 0.745881 0
M  V30 6881 H 646.774 4.77759 0.979674 0
M  V30 6882 H 645.779 5.35353 -1.25207 0
M  V30 6883 H 647.004 6.62917 -1.4737 0
M  V30 6884 H 644.95 6.51496 0.767415 0
M  V30 6885 H 644.867 7.5335 -0.632391 0
M  V30 6886 H 646.135 7.77685 0.531615 0
M  V30 6887 N 650.364 0.662433 1.43002 0
M  V30 6888 C 651.611 0.179591 2.01702 0
M  V30 6889 C 651.939 -1.20964 1.52309 0
M  V30 6890 O 651.194 -1.82343 0.7106 0
M  V30 6891 C 651.493 0.149363 3.57088 0
M  V30 6892 C 651.159 1.48158 4.25864 0
M  V30 6893 C 649.821 1.84638 4.44367 0
M  V30 6894 C 652.173 2.35953 4.64732 0
M  V30 6895 C 649.501 3.08561 4.99006 0
M  V30 6896 C 651.853 3.59176 5.20745 0
M  V30 6897 C 650.517 3.95841 5.37463 0
M  V30 6898 H 649.787 0.0657172 0.73808 0
M  V30 6899 H 652.434 0.854968 1.71355 0
M  V30 6900 H 650.739 -0.609491 3.8703 0
M  V30 6901 H 652.436 -0.241241 4.00274 0
M  V30 6902 H 649.026 1.18777 4.11813 0
M  V30 6903 H 653.21 2.09058 4.50121 0
M  V30 6904 H 648.466 3.37005 5.10135 0
M  V30 6905 H 652.64 4.27417 5.49807 0
M  V30 6906 H 650.267 4.91942 5.79566 0
M  V30 6907 N 651.842 -1.52309 0.404946 0
M  V30 6908 C 652.789 -2.26898 -0.422597 0
M  V30 6909 C 653.759 -1.2914 -1.04461 0
M  V30 6910 O 654.944 -1.57996 -1.06967 0
M  V30 6911 C 652.084 -3.09053 -1.53559 0
M  V30 6912 C 651.197 -4.21762 -0.934908 0
M  V30 6913 C 650.332 -4.91283 -2.02025 0
M  V30 6914 C 649.371 -5.95962 -1.39628 0
M  V30 6915 N 648.508 -6.59017 -2.42159 0
M  V30 6916 H 653.348 -2.97188 0.219903 0
M  V30 6917 H 650.885 -1.46607 0.120282 0
M  V30 6918 H 652.843 -3.54987 -2.19181 0
M  V30 6919 H 651.473 -2.40942 -2.14818 0
M  V30 6920 H 650.525 -3.80029 -0.167854 0
M  V30 6921 H 651.837 -4.96864 -0.439073 0
M  V30 6922 H 650.991 -5.40601 -2.75383 0
M  V30 6923 H 649.73 -4.15741 -2.54973 0
M  V30 6924 H 648.735 -5.45968 -0.648023 0
M  V30 6925 H 649.96 -6.73445 -0.874553 0
M  V30 6926 H 647.906 -5.86306 -2.94247 0
M  V30 6927 H 647.823 -7.2978 -1.97376 0
M  V30 6928 H 649.091 -7.12974 -3.15099 0
M  V30 6929 N 653.32 -0.135238 -1.57019 0
M  V30 6930 C 654.597 0.563227 -1.87316 0
M  V30 6931 C 654.977 1.83749 -1.03921 0
M  V30 6932 O 654.325 2.2817 -0.122675 0
M  V30 6933 C 654.535 0.840031 -3.3874 0
M  V30 6934 C 655.883 1.18598 -4.077 0
M  V30 6935 O 656.907 0.92977 -3.43851 0
M  V30 6936 O 655.766 1.66758 -5.20436 0
M  V30 6937 H 652.86 0.285971 -0.775983 0
M  V30 6938 H 655.406 -0.170965 -1.68837 0
M  V30 6939 H 654.178 -0.0622785 -3.9125 0
M  V30 6940 H 653.801 1.62882 -3.62706 0
M  V30 6941 N 654.798 1.5699 0.138552 0
M  V30 6942 C 655.728 2.01933 1.17241 0
M  V30 6943 C 656.709 0.90033 1.44319 0
M  V30 6944 O 657.894 1.16872 1.55095 0
M  V30 6945 C 655.024 2.40711 2.50351 0
M  V30 6946 C 653.978 3.55874 2.37776 0
M  V30 6947 C 653.304 3.80491 3.75674 0
M  V30 6948 C 654.604 4.8826 1.85472 0
M  V30 6949 H 656.298 2.88551 0.798672 0
M  V30 6950 H 653.844 1.3882 0.382743 0
M  V30 6951 H 655.797 2.70754 3.22909 0
M  V30 6952 H 654.521 1.5104 2.89576 0
M  V30 6953 H 653.18 3.2601 1.67669 0
M  V30 6954 H 652.828 2.88057 4.12349 0
M  V30 6955 H 652.528 4.57998 3.68119 0
M  V30 6956 H 654.052 4.12967 4.49767 0
M  V30 6957 H 655.466 5.16965 2.4783 0
M  V30 6958 H 653.863 5.69631 1.88787 0
M  V30 6959 H 654.933 4.78071 0.810935 0
M  V30 6960 N 656.276 -0.40816 1.52223 0
M  V30 6961 C 657.206 -1.5042 1.78595 0
M  V30 6962 C 658.187 -1.57723 0.636974 0
M  V30 6963 O 659.372 -1.72982 0.882664 0
M  V30 6964 C 656.502 -2.88232 1.93751 0
M  V30 6965 C 655.456 -2.95779 3.09352 0
M  V30 6966 C 654.782 -4.35855 3.09732 0
M  V30 6967 C 656.082 -2.67175 4.48793 0
M  V30 6968 H 657.776 -1.28601 2.70374 0
M  V30 6969 H 655.322 -0.617221 1.30101 0
M  V30 6970 H 657.275 -3.64895 2.10783 0
M  V30 6971 H 655.999 -3.11347 0.986443 0
M  V30 6972 H 654.658 -2.21561 2.92072 0
M  V30 6973 H 654.306 -4.55981 2.12346 0
M  V30 6974 H 654.006 -4.41829 3.87377 0
M  V30 6975 H 655.53 -5.14451 3.28895 0
M  V30 6976 H 656.944 -3.3356 4.66273 0
M  V30 6977 H 655.341 -2.84523 5.28362 0
M  V30 6978 H 656.411 -1.62609 4.56822 0
M  V30 6979 N 657.755 -1.42862 -0.66545 0
M  V30 6980 C 659.003 -1.43546 -1.42264 0
M  V30 6981 C 659.324 -0.0563116 -1.94919 0
M  V30 6982 O 658.594 0.906568 -1.73661 0
M  V30 6983 H 657.174 -0.528464 -0.527953 0
M  V30 6984 H 659.836 -1.78363 -0.785665 0
M  V30 6985 H 658.932 -2.14079 -2.27105 0
M  V30 6986 N 659.233 0.902656 -1.29189 0
M  V30 6987 C 660.479 1.65532 -1.17163 0
M  V30 6988 C 660.812 1.92216 0.276879 0
M  V30 6989 O 660.087 1.53048 1.20027 0
M  V30 6990 C 660.37 3.00629 -1.98228 0
M  V30 6991 C 660.223 2.81029 -3.51202 0
M  V30 6992 C 661.542 4.01321 -1.80635 0
M  V30 6993 H 658.661 0.60071 -0.426985 0
M  V30 6994 H 661.303 1.04578 -1.5863 0
M  V30 6995 H 659.453 3.52656 -1.62991 0
M  V30 6996 H 661.125 2.35927 -3.96404 0
M  V30 6997 H 659.368 2.1587 -3.76275 0
M  V30 6998 H 660.039 3.77014 -4.03192 0
M  V30 6999 H 662.515 3.58394 -2.11406 0
M  V30 7000 H 661.391 4.93792 -2.3971 0
M  V30 7001 H 661.652 4.35505 -0.760754 0
M  V30 7002 N 660.711 1.11618 1.11262 0
M  V30 7003 C 661.939 0.888739 1.8684 0
M  V30 7004 C 662.354 -0.561558 1.80255 0
M  V30 7005 O 661.711 -1.38782 1.18515 0
M  V30 7006 C 661.762 1.34422 3.35579 0
M  V30 7007 O 661.483 2.73766 3.42029 0
M  V30 7008 C 662.984 1.15246 4.28058 0
M  V30 7009 H 660.204 0.318152 0.590779 0
M  V30 7010 H 662.748 1.48398 1.40707 0
M  V30 7011 H 660.903 0.79239 3.7921 0
M  V30 7012 H 661.317 2.9355 4.34659 0
M  V30 7013 H 662.791 1.52015 5.30656 0
M  V30 7014 H 663.268 0.0922007 4.39103 0
M  V30 7015 H 663.874 1.69136 3.90222 0
M  V30 7016 N 662.189 -1.289 0.906776 0
M  V30 7017 C 663.6 -1.77336 0.58384 0
M  V30 7018 C 663.951 -1.74304 -0.900697 0
M  V30 7019 O 663.076 -1.33335 -1.70443 0
M  V30 7020 C 663.671 -3.22019 1.05304 0
M  V30 7021 C 662.23 -3.68205 0.781148 0
M  V30 7022 C 661.377 -2.48837 1.22373 0
M  V30 7023 H 664.328 -1.15462 1.08877 0
M  V30 7024 H 664.349 -3.78481 0.391414 0
M  V30 7025 H 663.861 -3.24194 2.13353 0
M  V30 7026 H 661.962 -3.71497 -0.28643 0
M  V30 7027 H 662.075 -4.58675 1.384 0
M  V30 7028 H 660.439 -2.46461 0.642594 0
M  V30 7029 H 661.222 -2.53736 2.31242 0
M  V30 7030 N 663.667 -0.670007 -1.42649 0
M  V30 7031 C 664.913 -0.190568 -2.01903 0
M  V30 7032 C 665.246 1.19817 -1.52832 0
M  V30 7033 O 664.521 1.80342 -0.728485 0
M  V30 7034 C 664.804 -0.21991 -3.59428 0
M  V30 7035 C 664.657 -1.64376 -4.18689 0
M  V30 7036 C 665.976 0.434519 -4.3795 0
M  V30 7037 H 663.095 -0.0707219 -0.733599 0
M  V30 7038 H 665.737 -0.853883 -1.69732 0
M  V30 7039 H 663.887 0.344894 -3.86966 0
M  V30 7040 H 665.559 -2.26044 -4.02122 0
M  V30 7041 H 663.802 -2.18591 -3.747 0
M  V30 7042 H 664.473 -1.61601 -5.27815 0
M  V30 7043 H 666.949 -0.0462156 -4.16074 0
M  V30 7044 H 665.825 0.38333 -5.4756 0
M  V30 7045 H 666.086 1.51135 -4.15464 0
M  V30 7046 N 665.145 1.52092 -0.413018 0
M  V30 7047 C 666.078 2.23613 0.455234 0
M  V30 7048 C 667.056 1.2459 1.04481 0
M  V30 7049 O 668.24 1.53653 1.09193 0
M  V30 7050 C 665.367 2.96775 1.63224 0
M  V30 7051 C 664.413 4.10261 1.16568 0
M  V30 7052 S 665.246 5.35348 0.127633 0
M  V30 7053 C 666.402 6.1204 1.30987 0
M  V30 7054 H 666.635 2.96911 -0.152042 0
M  V30 7055 H 664.168 1.53134 -0.197343 0
M  V30 7056 H 666.126 3.39532 2.30713 0
M  V30 7057 H 664.787 2.23113 2.21087 0
M  V30 7058 H 663.98 4.6064 2.04515 0
M  V30 7059 H 663.582 3.6964 0.569386 0
M  V30 7060 H 665.874 6.39651 2.23276 0
M  V30 7061 H 666.817 7.03022 0.846533 0
M  V30 7062 H 667.225 5.43161 1.53743 0
M  V30 7063 N 666.623 0.143563 1.56945 0
M  V30 7064 C 667.555 -0.828353 2.13708 0
M  V30 7065 C 668.568 -1.21313 1.08568 0
M  V30 7066 O 669.757 -1.1578 1.35857 0
M  V30 7067 C 666.857 -2.12248 2.64204 0
M  V30 7068 C 666.03 -1.90561 3.93707 0
M  V30 7069 C 665.089 -3.03931 4.29549 0
M  V30 7070 O 664.115 -2.75772 4.97934 0
M  V30 7071 N 665.317 -4.31016 3.88852 0
M  V30 7072 H 668.082 -0.343242 2.97728 0
M  V30 7073 H 665.643 -0.0401152 1.6185 0
M  V30 7074 H 667.635 -2.87132 2.85197 0
M  V30 7075 H 666.205 -2.52033 1.84928 0
M  V30 7076 H 665.425 -0.997327 3.81375 0
M  V30 7077 H 666.713 -1.73405 4.78339 0
M  V30 7078 H 666.111 -4.56762 3.33743 0
M  V30 7079 H 664.668 -5.02691 4.14903 0
M  V30 7080 N 668.101 -1.57061 -0.130224 0
M  V30 7081 C 669.329 -1.88432 -0.854456 0
M  V30 7082 C 669.744 -0.733608 -1.73964 0
M  V30 7083 O 669.101 0.296029 -1.80083 0
M  V30 7084 C 669.152 -3.1918 -1.69724 0
M  V30 7085 O 668.873 -4.2982 -0.847705 0
M  V30 7086 C 670.374 -3.6418 -2.5276 0
M  V30 7087 H 667.594 -0.624193 -0.246221 0
M  V30 7088 H 670.138 -2.04159 -0.11798 0
M  V30 7089 H 668.293 -3.05156 -2.3866 0
M  V30 7090 H 668.707 -5.04689 -1.42792 0
M  V30 7091 H 670.181 -4.58457 -3.07443 0
M  V30 7092 H 670.658 -2.90285 -3.29592 0
M  V30 7093 H 671.264 -3.80954 -1.89087 0
M  V30 7094 N 669.579 0.400081 -1.52437 0
M  V30 7095 C 670.828 1.14332 -1.66166 0
M  V30 7096 C 671.141 1.91419 -0.402253 0
M  V30 7097 O 672.347 2.6824 -0.419487 0
M  V30 7098 C 670.803 2.08137 -2.9361 0
M  V30 7099 C 670.411 1.36524 -4.26691 0
M  V30 7100 C 672.155 2.82664 -3.16703 0
M  V30 7101 C 670.062 2.29031 -5.45251 0
M  V30 7102 H 668.992 0.430499 -0.61902 0
M  V30 7103 H 671.643 0.407017 -1.78929 0
M  V30 7104 H 670.025 2.85358 -2.74567 0
M  V30 7105 H 671.199 0.646061 -4.56249 0
M  V30 7106 H 669.514 0.74002 -4.09771 0
M  V30 7107 H 672.111 3.52037 -4.0246 0
M  V30 7108 H 672.454 3.46122 -2.31312 0
M  V30 7109 H 672.987 2.12541 -3.36261 0
M  V30 7110 H 669.726 1.70206 -6.33017 0
M  V30 7111 H 669.246 2.98896 -5.2002 0
M  V30 7112 H 670.925 2.89359 -5.78689 0
M  V30 7113 N 671.057 1.43213 0.657864 0
M  V30 7114 C 672.303 1.44798 1.41991 0
M  V30 7115 C 672.636 0.070256 1.94073 0
M  V30 7116 O 671.911 -0.908177 1.71995 0
M  V30 7117 C 672.194 2.4865 2.60471 0
M  V30 7118 C 672.047 3.95679 2.13911 0
M  V30 7119 C 673.366 2.49292 3.62686 0
M  V30 7120 H 670.485 0.527244 0.514959 0
M  V30 7121 H 673.127 1.74733 0.74621 0
M  V30 7122 H 671.277 2.23254 3.17946 0
M  V30 7123 H 672.949 4.32116 1.61472 0
M  V30 7124 H 671.192 4.08733 1.45325 0
M  V30 7125 H 671.863 4.6395 2.99089 0
M  V30 7126 H 674.339 2.71917 3.14961 0
M  V30 7127 H 673.215 3.23907 4.43143 0
M  V30 7128 H 673.476 1.52502 4.14964 0
M  V30 7129 N 672.536 -0.895792 1.29666 0
M  V30 7130 C 673.782 -1.64908 1.18039 0
M  V30 7131 C 674.115 -1.9236 -0.266682 0
M  V30 7132 O 673.39 -1.53682 -1.19214 0
M  V30 7133 C 673.673 -2.99574 1.99819 0
M  V30 7134 C 673.526 -2.79163 3.52687 0
M  V30 7135 C 674.845 -4.00358 1.82761 0
M  V30 7136 H 671.964 -0.598437 0.430165 0
M  V30 7137 H 674.606 -1.03736 1.59182 0
M  V30 7138 H 672.756 -3.51786 1.64859 0
M  V30 7139 H 674.428 -2.33821 3.9765 0
M  V30 7140 H 672.671 -2.13871 3.77414 0
M  V30 7141 H 673.342 -3.74871 4.05186 0
M  V30 7142 H 675.818 -3.57268 2.13304 0
M  V30 7143 H 674.694 -4.92514 2.42325 0
M  V30 7144 H 674.955 -4.35096 0.783839 0
M  V30 7145 N 674.014 -1.12206 -1.10668 0
M  V30 7146 C 674.961 -0.787716 -2.16942 0
M  V30 7147 C 675.931 0.244442 -1.64291 0
M  V30 7148 O 677.116 0.119558 -1.90425 0
M  V30 7149 C 674.256 -0.24584 -3.44223 0
M  V30 7150 C 673.369 -1.33552 -4.10838 0
M  V30 7151 C 672.504 -0.753337 -5.25831 0
M  V30 7152 C 671.543 -1.82231 -5.84344 0
M  V30 7153 N 670.68 -1.25902 -6.90719 0
M  V30 7154 H 675.52 -1.69809 -2.44885 0
M  V30 7155 H 673.057 -0.847862 -1.20207 0
M  V30 7156 H 675.015 0.0863639 -4.17111 0
M  V30 7157 H 673.645 0.627702 -3.16638 0
M  V30 7158 H 672.697 -1.78454 -3.35944 0
M  V30 7159 H 674.009 -2.14396 -4.50373 0
M  V30 7160 H 673.163 -0.37166 -6.05561 0
M  V30 7161 H 671.902 0.0863297 -4.87624 0
M  V30 7162 H 670.907 -2.2132 -5.03287 0
M  V30 7163 H 672.132 -2.66515 -6.24617 0
M  V30 7164 H 670.078 -0.44114 -6.54515 0
M  V30 7165 H 669.995 -2.00408 -7.28953 0
M  V30 7166 H 671.263 -0.904498 -7.74235 0
M  V30 7167 N 675.492 1.28418 -0.913599 0
M  V30 7168 C 676.44 2.29272 -0.392037 0
M  V30 7169 C 677.434 1.61344 0.516198 0
M  V30 7170 O 678.64 1.75557 0.39746 0
M  V30 7171 H 675.015 0.744178 -0.108178 0
M  V30 7172 H 676.986 2.70691 -1.25574 0
M  V30 7173 C 675.735 3.45905 0.352815 0
M  V30 7174 H 675.058 3.98378 -0.336848 0
M  V30 7175 H 676.498 4.18473 0.682398 0
M  V30 7176 C 674.957 2.98572 1.56065 0
M  V30 7177 O 675.487 3.01033 2.65974 0
M  V30 7178 N 673.693 2.54235 1.40759 0
M  V30 7179 H 673.24 2.52432 0.513403 0
M  V30 7180 H 673.198 2.22925 2.21702 0
M  V30 7181 N 676.97 0.677563 1.42291 0
M  V30 7182 C 678.216 0.201272 2.01799 0
M  V30 7183 C 678.549 -1.19004 1.53465 0
M  V30 7184 O 677.824 -1.79953 0.738039 0
M  V30 7185 C 678.107 0.238968 3.59306 0
M  V30 7186 C 677.96 1.66594 4.17812 0
M  V30 7187 C 679.279 -0.411287 4.38174 0
M  V30 7188 H 676.398 0.0746114 0.733214 0
M  V30 7189 H 679.04 0.862872 1.69276 0
M  V30 7190 H 677.19 -0.324368 3.87144 0
M  V30 7191 H 678.862 2.28173 4.00917 0
M  V30 7192 H 677.105 2.20576 3.73536 0
M  V30 7193 H 677.776 1.64398 5.26951 0
M  V30 7194 H 680.252 0.0682804 4.16044 0
M  V30 7195 H 679.128 -0.354286 5.47755 0
M  V30 7196 H 679.389 -1.4893 4.1626 0
M  V30 7197 N 678.448 -1.51871 0.421078 0
M  V30 7198 C 679.859 -1.86644 -0.0457991 0
M  V30 7199 C 680.21 -1.33919 -1.43388 0
M  V30 7200 O 679.335 -0.683316 -2.05328 0
M  V30 7201 C 679.93 -3.38681 -0.0898844 0
M  V30 7202 C 678.489 -3.73049 -0.501127 0
M  V30 7203 C 677.636 -2.75485 0.316723 0
M  V30 7204 H 680.587 -1.45327 0.637635 0
M  V30 7205 H 680.608 -3.69636 -0.902734 0
M  V30 7206 H 680.12 -3.77025 0.920513 0
M  V30 7207 H 678.221 -3.40288 -1.51773 0
M  V30 7208 H 678.334 -4.78512 -0.237217 0
M  V30 7209 H 676.698 -2.53725 -0.222663 0
M  V30 7210 H 677.481 -3.16671 1.32569 0
M  V30 7211 N 679.926 -0.151884 -1.56866 0
M  V30 7212 C 681.154 0.504813 -2.00647 0
M  V30 7213 C 681.569 1.58098 -1.03201 0
M  V30 7214 O 680.926 1.82476 -0.0297814 0
M  V30 7215 C 680.977 1.10099 -3.44326 0
M  V30 7216 O 680.698 0.0678021 -4.38048 0
M  V30 7217 C 682.199 1.83782 -4.03409 0
M  V30 7218 H 679.419 0.130989 -0.65809 0
M  V30 7219 H 681.963 -0.247903 -2.02992 0
M  V30 7220 H 680.118 1.8043 -3.42817 0
M  V30 7221 H 680.532 0.505237 -5.22061 0
M  V30 7222 H 682.006 2.2078 -5.05925 0
M  V30 7223 H 682.483 2.72557 -3.44397 0
M  V30 7224 H 683.089 1.18138 -4.08563 0
M  V30 7225 N 681.404 1.57128 0.121893 0
M  V30 7226 C 682.632 1.88883 0.844451 0
M  V30 7227 C 683.047 0.742824 1.73573 0
M  V30 7228 O 682.404 -0.286475 1.80238 0
M  V30 7229 C 682.455 3.20076 1.68029 0
M  V30 7230 O 682.176 4.30264 0.824898 0
M  V30 7231 C 683.677 3.65515 2.50826 0
M  V30 7232 H 680.897 0.62549 0.242907 0
M  V30 7233 H 683.441 2.04219 0.107151 0
M  V30 7234 H 681.596 3.06418 2.37038 0
M  V30 7235 H 682.01 5.05439 1.40113 0
M  V30 7236 H 683.484 4.60081 3.05008 0
M  V30 7237 H 683.961 2.92029 3.28048 0
M  V30 7238 H 684.567 3.81952 1.87064 0
M  V30 7239 N 682.882 -0.391992 1.52647 0
M  V30 7240 C 684.131 -1.13449 1.6677 0
M  V30 7241 C 684.444 -1.91203 0.412399 0
M  V30 7242 O 685.65 -2.68013 0.433707 0
M  V30 7243 C 684.106 -2.06577 2.9471 0
M  V30 7244 C 683.714 -1.3426 4.27409 0
M  V30 7245 C 685.458 -2.80981 3.18198 0
M  V30 7246 C 683.365 -2.26136 5.46458 0
M  V30 7247 H 682.295 -0.427211 0.621295 0
M  V30 7248 H 684.946 -0.397522 1.79142 0
M  V30 7249 H 683.328 -2.83898 2.76076 0
M  V30 7250 H 684.502 -0.621856 4.56585 0
M  V30 7251 H 682.817 -0.718279 4.10158 0
M  V30 7252 H 685.414 -3.49898 4.04321 0
M  V30 7253 H 685.757 -3.44891 2.33144 0
M  V30 7254 H 686.29 -2.10754 3.37383 0
M  V30 7255 H 683.029 -1.66846 6.33911 0
M  V30 7256 H 682.549 -2.96134 5.21598 0
M  V30 7257 H 684.228 -2.86286 5.80215 0
M  V30 7258 N 684.36 -1.4356 -0.65026 0
M  V30 7259 C 685.608 -1.45046 -1.40734 0
M  V30 7260 C 685.929 -0.0769822 -1.94848 0
M  V30 7261 O 685.199 0.888098 -1.74613 0
M  V30 7262 H 683.779 -0.534034 -0.522318 0
M  V30 7263 H 686.441 -1.79186 -0.766703 0
M  V30 7264 H 685.537 -2.16476 -2.24822 0
M  V30 7265 N 685.838 0.888903 -1.30139 0
M  V30 7266 C 687.115 1.62145 -1.094 0
M  V30 7267 C 687.495 2.08041 0.358091 0
M  V30 7268 O 686.843 1.84438 1.34888 0
M  V30 7269 C 687.053 2.794 -2.09133 0
M  V30 7270 C 688.401 3.49826 -2.40638 0
M  V30 7271 O 689.425 2.89583 -2.07412 0
M  V30 7272 O 688.284 4.58457 -2.97455 0
M  V30 7273 H 685.378 0.712475 -0.41989 0
M  V30 7274 H 687.924 0.936023 -1.41551 0
M  V30 7275 H 686.696 2.42762 -3.06891 0
M  V30 7276 H 686.319 3.55643 -1.77776 0
M  V30 7277 N 687.317 1.12792 1.10072 0
M  V30 7278 C 688.545 0.908506 1.85886 0
M  V30 7279 C 688.96 -0.542408 1.80841 0
M  V30 7280 O 688.317 -1.37517 1.1998 0
M  V30 7281 C 688.368 1.37973 3.34134 0
M  V30 7282 O 688.089 2.77378 3.39106 0
M  V30 7283 C 689.59 1.1978 4.26811 0
M  V30 7284 H 686.81 0.3244 0.587372 0
M  V30 7285 H 689.354 1.49882 1.39125 0
M  V30 7286 H 687.509 0.832566 3.78348 0
M  V30 7287 H 687.923 2.98144 4.31521 0
M  V30 7288 H 689.397 1.57635 5.29014 0
M  V30 7289 H 689.874 0.138768 4.38981 0
M  V30 7290 H 690.48 1.73266 3.88406 0
M  V30 7291 N 688.795 -1.27931 0.920396 0
M  V30 7292 C 690.041 -1.94977 0.557832 0
M  V30 7293 C 690.374 -1.72224 -0.897365 0
M  V30 7294 O 689.649 -1.04705 -1.63912 0
M  V30 7295 C 689.932 -3.49289 0.875741 0
M  V30 7296 C 689.785 -3.81416 2.38416 0
M  V30 7297 C 691.104 -4.38486 0.376517 0
M  V30 7298 H 688.223 -0.708164 0.20414 0
M  V30 7299 H 690.865 -1.5118 1.15085 0
M  V30 7300 H 689.015 -3.86724 0.371062 0
M  V30 7301 H 690.687 -3.53813 2.95997 0
M  V30 7302 H 688.93 -3.28225 2.83639 0
M  V30 7303 H 689.601 -4.89198 2.55713 0
M  V30 7304 H 692.077 -4.08161 0.808945 0
M  V30 7305 H 690.953 -5.45296 0.627976 0
M  V30 7306 H 691.214 -4.36143 -0.723293 0
M  V30 7307 N 690.273 -0.685099 -1.4193 0
M  V30 7308 C 691.503 -0.220052 -2.05425 0
M  V30 7309 C 691.911 1.13185 -1.51611 0
M  V30 7310 O 691.254 1.71631 -0.654875 0
M  V30 7311 C 691.316 -0.0888364 -3.5939 0
M  V30 7312 C 690.98 -1.37109 -4.35947 0
M  V30 7313 C 691.977 -2.30675 -4.65924 0
M  V30 7314 C 689.662 -1.62155 -4.75406 0
M  V30 7315 C 691.656 -3.47556 -5.34306 0
M  V30 7316 C 689.343 -2.79324 -5.43527 0
M  V30 7317 C 690.341 -3.71848 -5.72903 0
M  V30 7318 O 690.029 -4.86966 -6.39624 0
M  V30 7319 H 689.761 -0.102165 -0.668235 0
M  V30 7320 H 692.315 -0.935194 -1.82875 0
M  V30 7321 H 690.545 0.681981 -3.80639 0
M  V30 7322 H 692.234 0.337669 -4.04493 0
M  V30 7323 H 693 -2.12579 -4.3593 0
M  V30 7324 H 688.879 -0.910053 -4.51928 0
M  V30 7325 H 692.423 -4.19794 -5.57153 0
M  V30 7326 H 688.32 -2.97342 -5.72938 0
M  V30 7327 H 689.088 -4.86644 -6.58118 0
M  V30 7328 N 691.751 1.51645 -0.429126 0
M  V30 7329 C 693 2.01203 0.141538 0
M  V30 7330 C 693.313 1.31828 1.44502 0
M  V30 7331 O 694.519 1.7231 2.09813 0
M  V30 7332 C 692.975 3.58624 0.302786 0
M  V30 7333 C 692.583 4.3693 -0.989775 0
M  V30 7334 C 694.327 4.16353 0.827661 0
M  V30 7335 C 692.234 5.86037 -0.794619 0
M  V30 7336 H 691.164 0.751867 0.05667 0
M  V30 7337 H 693.815 1.74822 -0.557633 0
M  V30 7338 H 692.197 3.81417 1.06476 0
M  V30 7339 H 693.371 4.25887 -1.75945 0
M  V30 7340 H 691.686 3.90614 -1.44256 0
M  V30 7341 H 694.283 5.25455 0.990026 0
M  V30 7342 H 694.626 3.74995 1.80787 0
M  V30 7343 H 695.159 3.97606 0.124213 0
M  V30 7344 H 691.898 6.31792 -1.74697 0
M  V30 7345 H 691.418 5.99765 -0.0645968 0
M  V30 7346 H 693.097 6.45471 -0.444591 0
M  V30 7347 N 693.229 0.160201 1.56784 0
M  V30 7348 C 694.457 -0.494165 2.00912 0
M  V30 7349 C 694.872 -1.57548 1.04038 0
M  V30 7350 O 694.229 -1.82457 0.0394581 0
M  V30 7351 C 694.28 -1.08271 3.44905 0
M  V30 7352 O 694.001 -0.0445704 4.38077 0
M  V30 7353 C 695.502 -1.8164 4.04378 0
M  V30 7354 H 692.722 -0.127498 0.658776 0
M  V30 7355 H 695.266 0.258665 2.02858 0
M  V30 7356 H 693.421 -1.78609 3.4377 0
M  V30 7357 H 693.835 -0.477544 5.22322 0
M  V30 7358 H 695.309 -2.18094 5.07089 0
M  V30 7359 H 695.786 -2.70727 3.45838 0
M  V30 7360 H 696.392 -1.15969 4.09184 0
M  V30 7361 N 694.707 -1.5719 -0.113559 0
M  V30 7362 C 695.955 -1.84772 -0.818761 0
M  V30 7363 C 696.276 -0.746196 -1.80158 0
M  V30 7364 O 695.546 0.229305 -1.94553 0
M  V30 7365 H 694.126 -0.681737 -0.305359 0
M  V30 7366 H 696.788 -1.94645 -0.0995845 0
M  V30 7367 H 695.884 -2.80878 -1.36067 0
M  V30 7368 N 696.185 0.383891 -1.52853 0
M  V30 7369 C 697.133 1.48965 -1.7864 0
M  V30 7370 C 698.127 1.56242 -0.654577 0
M  V30 7371 O 699.333 1.59347 -0.83716 0
M  V30 7372 H 695.708 0.495892 -0.565328 0
M  V30 7373 H 697.679 1.24411 -2.71228 0
M  V30 7374 C 696.428 2.86036 -1.97683 0
M  V30 7375 H 695.751 2.81188 -2.84206 0
M  V30 7376 H 697.191 3.62632 -2.19713 0
M  V30 7377 C 695.65 3.28428 -0.750776 0
M  V30 7378 O 696.18 4.0164 0.0693491 0
M  V30 7379 N 694.386 2.84765 -0.579427 0
M  V30 7380 H 693.933 2.25353 -1.24795 0
M  V30 7381 H 693.891 3.13486 0.239544 0
M  V30 7382 N 697.663 1.43903 0.642637 0
M  V30 7383 C 699.079 1.27536 0.959519 0
M  V30 7384 C 699.279 0.202751 2.00477 0
M  V30 7385 O 698.335 -0.415256 2.49062 0
M  V30 7386 C 699.648 2.6432 1.43372 0
M  V30 7387 C 701.196 2.71937 1.54981 0
M  V30 7388 C 701.671 4.09164 2.05789 0
M  V30 7389 N 703.162 4.11282 2.13076 0
M  V30 7390 C 703.897 5.14303 2.53534 0
M  V30 7391 N 703.393 6.27693 2.93212 0
M  V30 7392 N 705.186 5.01657 2.53567 0
M  V30 7393 H 697.337 2.12344 -0.0488376 0
M  V30 7394 H 699.6 0.947124 0.0407559 0
M  V30 7395 H 699.306 3.43826 0.740048 0
M  V30 7396 H 699.18 2.90432 2.40685 0
M  V30 7397 H 701.567 1.92757 2.23448 0
M  V30 7398 H 701.648 2.49578 0.560739 0
M  V30 7399 H 701.292 4.88815 1.37921 0
M  V30 7400 H 701.222 4.28893 3.05546 0
M  V30 7401 H 703.713 3.2944 1.85143 0
M  V30 7402 H 704.026 7.02125 3.22863 0
M  V30 7403 H 702.371 6.31149 2.90991 0
M  V30 7404 H 705.562 4.12134 2.21952 0
M  V30 7405 H 705.735 5.82072 2.84774 0
M  V30 7406 N 699.141 -0.881989 1.30609 0
M  V30 7407 C 700.104 -1.96957 1.1722 0
M  V30 7408 C 701.104 -1.60472 0.102598 0
M  V30 7409 O 702.294 -1.70628 0.350943 0
M  V30 7410 C 699.426 -3.31463 0.796572 0
M  V30 7411 H 700.619 -2.10262 2.13846 0
M  V30 7412 H 698.172 -1.06877 1.14048 0
M  V30 7413 H 698.907 -3.23859 -0.169053 0
M  V30 7414 H 698.692 -3.59314 1.56959 0
M  V30 7415 H 700.182 -4.11233 0.72645 0
M  V30 7416 N 700.619 -1.13374 -1.09472 0
M  V30 7417 C 701.529 -0.824029 -2.19652 0
M  V30 7418 C 702.545 0.19118 -1.72947 0
M  V30 7419 O 703.721 0.0223464 -2.01388 0
M  V30 7420 C 700.786 -0.294009 -3.45451 0
M  V30 7421 C 699.847 -1.3704 -4.0684 0
M  V30 7422 C 699.08 -0.86558 -5.26634 0
M  V30 7423 O 699.303 0.29702 -5.69626 0
M  V30 7424 O 698.237 -1.63968 -5.79136 0
M  V30 7425 H 702.063 -1.74454 -2.48595 0
M  V30 7426 H 699.648 -0.911155 -1.18399 0
M  V30 7427 H 701.53 -0.00381039 -4.214 0
M  V30 7428 H 700.205 0.598921 -3.18111 0
M  V30 7429 H 699.112 -1.71391 -3.3253 0
M  V30 7430 H 700.445 -2.23746 -4.38405 0
M  V30 7431 N 702.098 1.27442 -0.927168 0
M  V30 7432 C 703.028 2.29256 -0.443188 0
M  V30 7433 C 704.009 1.62701 0.49624 0
M  V30 7434 O 705.194 1.90013 0.401105 0
M  V30 7435 C 702.324 3.45955 0.305366 0
M  V30 7436 C 701.278 4.24501 -0.546178 0
M  V30 7437 C 700.604 5.33671 0.331512 0
M  V30 7438 C 701.904 4.89921 -1.81037 0
M  V30 7439 H 703.598 2.69988 -1.29409 0
M  V30 7440 H 701.144 1.29792 -0.623705 0
M  V30 7441 H 703.097 4.1628 0.654885 0
M  V30 7442 H 701.821 3.04138 1.19029 0
M  V30 7443 H 700.48 3.55921 -0.878398 0
M  V30 7444 H 700.128 4.88096 1.21537 0
M  V30 7445 H 699.828 5.87131 -0.234746 0
M  V30 7446 H 701.352 6.0684 0.676614 0
M  V30 7447 H 702.766 5.52536 -1.52895 0
M  V30 7448 H 701.163 5.53436 -2.32009 0
M  V30 7449 H 702.233 4.13652 -2.53021 0
M  V30 7450 N 703.576 0.692616 1.41565 0
M  V30 7451 C 704.824 0.221896 2.00878 0
M  V30 7452 C 705.145 -1.18164 1.5512 0
M  V30 7453 O 704.415 -1.79679 0.78054 0
M  V30 7454 H 702.995 0.0790463 0.742806 0
M  V30 7455 H 705.657 0.893115 1.73232 0
M  V30 7456 H 704.753 0.23702 3.11199 0
M  V30 7457 N 705.054 -1.51416 0.437162 0
M  V30 7458 C 706.279 -2.0699 -0.130424 0
M  V30 7459 C 706.704 -1.30249 -1.35709 0
M  V30 7460 O 706.062 -0.340388 -1.78076 0
M  V30 7461 C 706.11 -3.5801 -0.43142 0
M  V30 7462 O 705.214 -3.8345 -1.5179 0
M  V30 7463 H 704.555 -0.663997 -0.00194339 0
M  V30 7464 H 707.085 -1.95029 0.618445 0
M  V30 7465 H 707.095 -4.02261 -0.681926 0
M  V30 7466 H 705.77 -4.13291 0.465137 0
M  V30 7467 H 704.347 -3.51062 -1.25737 0
M  V30 7468 N 706.532 -0.168513 -1.56696 0
M  V30 7469 C 707.778 0.471368 -1.97863 0
M  V30 7470 C 708.133 1.61049 -1.05267 0
M  V30 7471 O 707.426 1.9138 -0.0917908 0
M  V30 7472 C 707.62 1.00441 -3.42996 0
M  V30 7473 C 707.449 -0.081524 -4.49626 0
M  V30 7474 C 706.219 -0.530242 -5.0251 0
M  V30 7475 C 708.417 -0.880897 -5.067 0
M  V30 7476 N 706.399 -1.59678 -5.9277 0
M  V30 7477 C 707.77 -1.79742 -5.93374 0
M  V30 7478 C 709.825 -0.92629 -4.89208 0
M  V30 7479 C 708.528 -2.7555 -6.64428 0
M  V30 7480 C 710.554 -1.8723 -5.6098 0
M  V30 7481 C 709.916 -2.77631 -6.4738 0
M  V30 7482 H 706.015 0.140671 -0.769244 0
M  V30 7483 H 708.599 -0.268084 -1.92846 0
M  V30 7484 H 706.77 1.71339 -3.48565 0
M  V30 7485 H 708.502 1.61269 -3.7118 0
M  V30 7486 H 705.257 -0.12847 -4.73426 0
M  V30 7487 H 705.681 -2.13045 -6.42605 0
M  V30 7488 H 710.323 -0.241412 -4.2211 0
M  V30 7489 H 708.041 -3.45027 -7.30741 0
M  V30 7490 H 711.627 -1.91349 -5.49433 0
M  V30 7491 H 710.507 -3.4964 -7.01941 0
M  V30 7492 N 708.01 1.57248 0.105221 0
M  V30 7493 C 709.287 1.76566 0.841647 0
M  V30 7494 C 709.667 0.747566 1.9742 0
M  V30 7495 O 709.015 -0.225886 2.27381 0
M  V30 7496 C 709.225 3.22016 1.3456 0
M  V30 7497 C 710.573 3.84911 1.79244 0
M  V30 7498 O 711.597 3.25703 1.44207 0
M  V30 7499 O 710.456 4.89008 2.43995 0
M  V30 7500 H 707.55 0.723443 0.400698 0
M  V30 7501 H 710.096 1.69472 0.0878893 0
M  V30 7502 H 708.868 3.87644 0.533685 0
M  V30 7503 H 708.491 3.33703 2.16167 0
M  V30 7504 N 709.488 -0.375779 1.53054 0
M  V30 7505 C 710.716 -1.14036 1.72637 0
M  V30 7506 C 711.131 -1.83342 0.450687 0
M  V30 7507 O 710.488 -1.7318 -0.575749 0
M  V30 7508 C 710.539 -2.17841 2.88492 0
M  V30 7509 O 710.26 -1.51358 4.11123 0
M  V30 7510 C 711.761 -3.06924 3.19863 0
M  V30 7511 H 708.981 -0.341386 0.577665 0
M  V30 7512 H 711.525 -0.437809 1.99759 0
M  V30 7513 H 709.68 -2.8371 2.63794 0
M  V30 7514 H 710.094 -2.20439 4.75928 0
M  V30 7515 H 711.568 -3.75763 4.04359 0
M  V30 7516 H 712.045 -3.71169 2.34798 0
M  V30 7517 H 712.651 -2.46684 3.46449 0
M  V30 7518 N 710.966 -1.44241 -0.634997 0
M  V30 7519 C 711.913 -1.5081 -1.74714 0
M  V30 7520 C 712.883 -0.356147 -1.62237 0
M  V30 7521 O 714.068 -0.565848 -1.82216 0
M  V30 7522 C 711.208 -1.45458 -3.12947 0
M  V30 7523 C 710.321 -2.70998 -3.36428 0
M  V30 7524 C 709.456 -2.57507 -4.64611 0
M  V30 7525 C 708.495 -3.78229 -4.81258 0
M  V30 7526 N 707.632 -3.63438 -6.00714 0
M  V30 7527 H 712.472 -2.45832 -1.68436 0
M  V30 7528 H 710.009 -1.2201 -0.821706 0
M  V30 7529 H 711.967 -1.40347 -3.92885 0
M  V30 7530 H 710.597 -0.540058 -3.1825 0
M  V30 7531 H 709.649 -2.86312 -2.50458 0
M  V30 7532 H 710.961 -3.60619 -3.44609 0
M  V30 7533 H 710.115 -2.50207 -5.52703 0
M  V30 7534 H 708.854 -1.65441 -4.58782 0
M  V30 7535 H 707.859 -3.85918 -3.91596 0
M  V30 7536 H 709.084 -4.71327 -4.88904 0
M  V30 7537 H 707.03 -2.7412 -5.95982 0
M  V30 7538 H 706.947 -4.46672 -6.09934 0
M  V30 7539 H 708.215 -3.60022 -6.91378 0
M  V30 7540 N 712.444 0.87505 -1.31075 0
M  V30 7541 C 713.376 1.98773 -1.14114 0
M  V30 7542 C 714.389 1.62595 -0.0816119 0
M  V30 7543 O 715.578 1.75449 -0.32861 0
M  V30 7544 C 712.678 3.31159 -0.720224 0
M  V30 7545 C 711.851 3.9571 -1.86366 0
M  V30 7546 C 710.91 5.06407 -1.42965 0
M  V30 7547 O 709.936 5.27501 -2.13848 0
M  V30 7548 N 711.138 5.79649 -0.314194 0
M  V30 7549 H 713.903 2.1387 -2.09951 0
M  V30 7550 H 711.464 1.04873 -1.23342 0
M  V30 7551 H 713.456 4.0259 -0.412687 0
M  V30 7552 H 712.026 3.12257 0.146396 0
M  V30 7553 H 711.246 3.17324 -2.33879 0
M  V30 7554 H 712.534 4.35576 -2.62966 0
M  V30 7555 H 711.932 5.65025 0.276228 0
M  V30 7556 H 710.489 6.51766 -0.0661641 0
M  V30 7557 N 713.922 1.13953 1.08869 0
M  V30 7558 C 715.152 0.926825 1.84644 0
M  V30 7559 C 715.56 -0.527941 1.81685 0
M  V30 7560 O 714.903 -1.37742 1.21543 0
M  V30 7561 C 714.965 1.34416 3.33426 0
M  V30 7562 C 714.629 2.81351 3.60126 0
M  V30 7563 C 715.626 3.79486 3.55368 0
M  V30 7564 C 713.311 3.1865 3.88288 0
M  V30 7565 C 715.305 5.1293 3.78393 0
M  V30 7566 C 712.992 4.5227 4.10968 0
M  V30 7567 C 713.99 5.4922 4.06013 0
M  V30 7568 O 713.678 6.80429 4.28102 0
M  V30 7569 H 713.41 0.33013 0.589907 0
M  V30 7570 H 715.964 1.51738 1.38436 0
M  V30 7571 H 714.194 0.696901 3.80368 0
M  V30 7572 H 715.883 1.10302 3.90626 0
M  V30 7573 H 716.649 3.52017 3.3363 0
M  V30 7574 H 712.528 2.43785 3.91267 0
M  V30 7575 H 716.072 5.88591 3.74442 0
M  V30 7576 H 711.969 4.79462 4.32188 0
M  V30 7577 H 712.737 6.86617 4.45533 0
M  V30 7578 N 715.4 -1.26948 0.933913 0
M  V30 7579 C 716.811 -1.76058 0.621324 0
M  V30 7580 C 717.162 -1.76175 -0.863522 0
M  V30 7581 O 716.287 -1.36921 -1.67576 0
M  V30 7582 C 716.882 -3.19713 1.12111 0
M  V30 7583 C 715.441 -3.66465 0.859074 0
M  V30 7584 C 714.588 -2.46186 1.27624 0
M  V30 7585 H 717.539 -1.13127 1.11301 0
M  V30 7586 H 717.56 -3.77566 0.471608 0
M  V30 7587 H 717.072 -3.19596 2.20182 0
M  V30 7588 H 715.173 -3.72021 -0.207566 0
M  V30 7589 H 715.286 -4.55636 1.48098 0
M  V30 7590 H 713.65 -2.45042 0.694727 0
M  V30 7591 H 714.433 -2.48774 2.36572 0
M  V30 7592 N 716.879 -0.700114 -1.41195 0
M  V30 7593 C 718.128 -0.230082 -2.00383 0
M  V30 7594 C 718.441 1.17857 -1.56106 0
M  V30 7595 O 719.647 1.74631 -2.07885 0
M  V30 7596 C 718.103 -0.360447 -3.5809 0
M  V30 7597 C 717.711 -1.77475 -4.11347 0
M  V30 7598 C 719.455 0.0495799 -4.24471 0
M  V30 7599 C 717.362 -1.85653 -5.61504 0
M  V30 7600 H 716.292 -0.0822633 -0.749499 0
M  V30 7601 H 718.943 -0.868969 -1.6162 0
M  V30 7602 H 717.325 0.346768 -3.94479 0
M  V30 7603 H 718.499 -2.51109 -3.86369 0
M  V30 7604 H 716.814 -2.13486 -3.57509 0
M  V30 7605 H 719.411 0.00898219 -5.34699 0
M  V30 7606 H 719.754 1.08904 -4.01803 0
M  V30 7607 H 720.287 -0.607521 -3.93134 0
M  V30 7608 H 717.026 -2.87667 -5.89006 0
M  V30 7609 H 716.546 -1.1641 -5.88395 0
M  V30 7610 H 718.225 -1.62151 -6.26351 0
M  V30 7611 N 718.357 1.51182 -0.445186 0
M  V30 7612 C 719.289 2.25714 0.398206 0
M  V30 7613 C 720.302 1.30032 0.979562 0
M  V30 7614 O 721.491 1.55731 0.872368 0
M  V30 7615 C 718.591 3.00348 1.56985 0
M  V30 7616 C 717.764 4.23187 1.10596 0
M  V30 7617 C 716.823 4.80334 2.14863 0
M  V30 7618 O 715.849 5.4196 1.73977 0
M  V30 7619 N 717.051 4.65053 3.47427 0
M  V30 7620 H 719.816 2.98732 -0.240629 0
M  V30 7621 H 717.377 1.59556 -0.274507 0
M  V30 7622 H 719.369 3.35464 2.26376 0
M  V30 7623 H 717.939 2.30291 2.11387 0
M  V30 7624 H 717.159 3.93476 0.238832 0
M  V30 7625 H 718.447 5.02886 0.773537 0
M  V30 7626 H 717.845 4.15984 3.83372 0
M  V30 7627 H 716.402 5.04509 4.12691 0
M  V30 7628 N 719.835 0.176821 1.56605 0
M  V30 7629 C 720.765 -0.746841 2.21234 0
M  V30 7630 C 721.746 -1.23502 1.16967 0
M  V30 7631 O 722.931 -1.28718 1.45414 0
M  V30 7632 C 720.061 -1.97407 2.8574 0
M  V30 7633 C 719.015 -1.62153 3.96094 0
M  V30 7634 C 718.341 -2.92387 4.47676 0
M  V30 7635 C 719.641 -0.845353 5.15413 0
M  V30 7636 H 721.335 -0.208116 2.98676 0
M  V30 7637 H 718.881 -0.0986594 1.43662 0
M  V30 7638 H 720.834 -2.62531 3.2963 0
M  V30 7639 H 719.558 -2.53703 2.05676 0
M  V30 7640 H 718.217 -0.993964 3.52868 0
M  V30 7641 H 717.865 -3.46734 3.64396 0
M  V30 7642 H 717.565 -2.69551 5.22127 0
M  V30 7643 H 719.089 -3.5853 4.94255 0
M  V30 7644 H 720.503 -1.39929 5.55961 0
M  V30 7645 H 718.9 -0.715814 5.95815 0
M  V30 7646 H 719.97 0.157239 4.84645 0
M  V30 7647 N 721.313 -1.57302 -0.09688 0
M  V30 7648 C 722.543 -1.89926 -0.813114 0
M  V30 7649 C 722.951 -0.76852 -1.72888 0
M  V30 7650 O 722.294 0.268549 -1.81726 0
M  V30 7651 C 722.356 -3.17787 -1.68082 0
M  V30 7652 C 722.02 -4.4729 -0.937061 0
M  V30 7653 C 723.017 -5.1921 -0.267687 0
M  V30 7654 C 720.702 -4.93957 -0.911671 0
M  V30 7655 C 722.696 -6.36034 0.417129 0
M  V30 7656 C 720.383 -6.10693 -0.223068 0
M  V30 7657 C 721.381 -6.8158 0.440155 0
M  V30 7658 O 721.069 -7.96092 1.11772 0
M  V30 7659 H 720.801 -0.632783 -0.237828 0
M  V30 7660 H 723.355 -2.05248 -0.0790818 0
M  V30 7661 H 721.585 -2.98607 -2.45705 0
M  V30 7662 H 723.274 -3.36257 -2.27346 0
M  V30 7663 H 724.04 -4.84198 -0.278774 0
M  V30 7664 H 719.919 -4.38671 -1.41734 0
M  V30 7665 H 723.463 -6.91301 0.93537 0
M  V30 7666 H 719.36 -6.45159 -0.209821 0
M  V30 7667 H 720.128 -8.12064 1.02443 0
M  V30 7668 N 722.791 0.367657 -1.53252 0
M  V30 7669 C 724.021 1.12955 -1.72988 0
M  V30 7670 C 724.429 1.8358 -0.457708 0
M  V30 7671 O 723.772 1.74336 0.579006 0
M  V30 7672 C 723.834 2.20545 -2.83902 0
M  V30 7673 C 723.498 1.69704 -4.24323 0
M  V30 7674 C 724.495 1.16223 -5.06743 0
M  V30 7675 C 722.18 1.7528 -4.70725 0
M  V30 7676 C 724.174 0.689935 -6.33655 0
M  V30 7677 C 721.861 1.27662 -5.97617 0
M  V30 7678 C 722.859 0.746083 -6.78913 0
M  V30 7679 O 722.547 0.276925 -8.03423 0
M  V30 7680 H 722.279 0.343753 -0.582074 0
M  V30 7681 H 724.833 0.433106 -2.00782 0
M  V30 7682 H 723.063 2.93676 -2.51577 0
M  V30 7683 H 724.752 2.82111 -2.91836 0
M  V30 7684 H 725.518 1.11256 -4.72067 0
M  V30 7685 H 721.397 2.15515 -4.07522 0
M  V30 7686 H 724.941 0.275164 -6.97057 0
M  V30 7687 H 720.838 1.32322 -6.31792 0
M  V30 7688 H 721.606 0.396445 -8.17539 0
M  V30 7689 N 724.269 1.44576 0.627338 0
M  V30 7690 C 725.546 1.38033 1.38586 0
M  V30 7691 C 725.926 0.0409468 2.1106 0
M  V30 7692 O 725.274 -0.976582 2.0658 0
M  V30 7693 C 725.484 2.58102 2.34913 0
M  V30 7694 C 726.832 3.02332 2.98129 0
M  V30 7695 O 727.856 2.58334 2.45238 0
M  V30 7696 O 726.715 3.78628 3.94085 0
M  V30 7697 H 723.809 0.546801 0.620434 0
M  V30 7698 H 726.355 1.56672 0.652077 0
M  V30 7699 H 725.127 3.4719 1.80485 0
M  V30 7700 H 724.75 2.41696 3.15703 0
M  V30 7701 N 725.747 -0.868086 1.31537 0
M  V30 7702 C 726.972 -1.65926 1.24432 0
M  V30 7703 C 727.397 -1.87169 -0.186936 0
M  V30 7704 O 726.755 -1.4148 -1.13371 0
M  V30 7705 C 726.803 -3.00347 1.9956 0
M  V30 7706 O 725.907 -3.90221 1.33422 0
M  V30 7707 H 725.248 -0.506375 0.429512 0
M  V30 7708 H 727.778 -1.0822 1.73637 0
M  V30 7709 H 727.788 -3.50269 2.09226 0
M  V30 7710 H 726.463 -2.84205 3.03645 0
M  V30 7711 H 725.04 -3.48672 1.32219 0
M  V30 7712 N 727.225 -1.14528 -1.08264 0
M  V30 7713 C 728.175 -0.802141 -2.13424 0
M  V30 7714 C 729.159 0.209362 -1.59532 0
M  V30 7715 O 730.351 0.0114859 -1.76996 0
M  V30 7716 C 727.48 -0.282938 -3.42132 0
M  V30 7717 C 726.566 -1.32405 -4.02902 0
M  V30 7718 N 726.957 -2.52861 -4.38058 0
M  V30 7719 C 725.255 -1.17462 -4.30254 0
M  V30 7720 C 725.956 -3.1952 -4.86088 0
M  V30 7721 N 724.932 -2.46921 -4.84284 0
M  V30 7722 H 728.734 -1.71843 -2.38426 0
M  V30 7723 H 726.248 -1.02936 -1.2561 0
M  V30 7724 H 728.245 -0.0188053 -4.16896 0
M  V30 7725 H 726.905 0.627533 -3.18578 0
M  V30 7726 H 727.916 -2.90078 -4.2904 0
M  V30 7727 H 724.593 -0.323283 -4.16246 0
M  V30 7728 H 725.983 -4.2223 -5.22658 0
M  V30 7729 N 728.703 1.26451 -0.940633 0
M  V30 7730 C 729.928 1.98407 -0.60412 0
M  V30 7731 C 730.353 1.69584 0.81382 0
M  V30 7732 O 729.711 0.943553 1.54812 0
M  V30 7733 C 729.759 3.50387 -0.852136 0
M  V30 7734 O 728.863 4.1233 0.076013 0
M  V30 7735 H 728.204 0.622466 -0.231153 0
M  V30 7736 H 730.734 1.60932 -1.26342 0
M  V30 7737 H 730.744 4.00614 -0.772816 0
M  V30 7738 H 729.419 3.70696 -1.88566 0
M  V30 7739 H 727.996 3.7286 -0.0543187 0
M  V30 7740 N 730.181 0.707592 1.40822 0
M  V30 7741 C 731.129 0.0386643 2.32568 0
M  V30 7742 C 732.123 -0.755653 1.51612 0
M  V30 7743 O 733.329 -0.659921 1.67467 0
M  V30 7744 H 729.704 -0.00629912 0.751974 0
M  V30 7745 H 731.675 0.8293 2.86645 0
M  V30 7746 C 730.424 -0.87496 3.36511 0
M  V30 7747 H 729.747 -0.273157 3.98866 0
M  V30 7748 H 731.187 -1.31111 4.03219 0
M  V30 7749 C 729.646 -1.99672 2.71353 0
M  V30 7750 O 730.176 -3.08676 2.57064 0
M  V30 7751 N 728.382 -1.77799 2.29861 0
M  V30 7752 H 727.929 -0.89147 2.41683 0
M  V30 7753 H 727.887 -2.53036 1.86601 0
M  V30 7754 N 731.66 -1.50943 0.453197 0
M  V30 7755 C 732.937 -1.94872 -0.168633 0
M  V30 7756 C 733.317 -1.39272 -1.5864 0
M  V30 7757 O 732.665 -0.586272 -2.20851 0
M  V30 7758 C 732.875 -3.48757 -0.130217 0
M  V30 7759 C 734.223 -4.23331 -0.327975 0
M  V30 7760 O 735.247 -3.55594 -0.207619 0
M  V30 7761 O 734.106 -5.43529 -0.569077 0
M  V30 7762 H 731.2 -0.818042 -0.121394 0
M  V30 7763 H 733.746 -1.61782 0.512316 0
M  V30 7764 H 732.518 -3.81725 0.860346 0
M  V30 7765 H 732.141 -3.88333 -0.853397 0
M  V30 7766 N 733.138 -0.185124 -1.56509 0
M  V30 7767 C 734.384 0.450356 -1.98352 0
M  V30 7768 C 734.739 1.59923 -1.06969 0
M  V30 7769 O 734.032 1.91272 -0.112084 0
M  V30 7770 C 734.226 0.967977 -3.44042 0
M  V30 7771 C 734.055 -0.129208 -4.49514 0
M  V30 7772 C 732.825 -0.58351 -5.0192 0
M  V30 7773 C 735.023 -0.93459 -5.05737 0
M  V30 7774 N 733.005 -1.65956 -5.91043 0
M  V30 7775 C 734.376 -1.86026 -5.91434 0
M  V30 7776 C 736.431 -0.978125 -4.88198 0
M  V30 7777 C 735.134 -2.82582 -6.61468 0
M  V30 7778 C 737.16 -1.93169 -5.58963 0
M  V30 7779 C 736.522 -2.84481 -6.44399 0
M  V30 7780 H 732.621 0.132504 -0.770692 0
M  V30 7781 H 735.205 -0.288523 -1.9255 0
M  V30 7782 H 733.376 1.67633 -3.50362 0
M  V30 7783 H 735.108 1.57323 -3.72869 0
M  V30 7784 H 731.863 -0.178676 -4.73263 0
M  V30 7785 H 732.287 -2.19848 -6.40309 0
M  V30 7786 H 736.929 -0.286169 -4.2183 0
M  V30 7787 H 734.647 -3.52758 -7.2704 0
M  V30 7788 H 738.233 -1.97166 -5.47373 0
M  V30 7789 H 737.113 -3.57065 -6.98194 0
M  V30 7790 N 734.616 1.57351 0.0885366 0
M  V30 7791 C 736.032 1.53331 0.442916 0
M  V30 7792 C 736.232 0.902831 1.80142 0
M  V30 7793 O 735.288 0.498147 2.47537 0
M  V30 7794 C 736.601 2.98036 0.399372 0
M  V30 7795 C 738.149 3.09286 0.480759 0
M  V30 7796 C 738.624 4.5561 0.467296 0
M  V30 7797 N 740.115 4.60182 0.52786 0
M  V30 7798 C 740.85 5.70857 0.539388 0
M  V30 7799 N 740.346 6.90944 0.506729 0
M  V30 7800 N 742.139 5.59051 0.584691 0
M  V30 7801 H 734.29 1.96709 -0.801215 0
M  V30 7802 H 736.553 0.899639 -0.298922 0
M  V30 7803 H 736.259 3.47656 -0.531806 0
M  V30 7804 H 736.133 3.57066 1.21589 0
M  V30 7805 H 738.52 2.5965 1.40236 0
M  V30 7806 H 738.601 2.53197 -0.364023 0
M  V30 7807 H 738.245 5.05899 -0.450384 0
M  V30 7808 H 738.175 5.09544 1.32938 0
M  V30 7809 H 740.666 3.73757 0.558028 0
M  V30 7810 H 740.979 7.71055 0.518989 0
M  V30 7811 H 739.324 6.93384 0.473675 0
M  V30 7812 H 742.515 4.64138 0.607781 0
M  V30 7813 H 742.688 6.45307 0.590206 0
M  V30 7814 N 736.094 -0.359525 1.53444 0
M  V30 7815 C 737.342 -1.09935 1.69584 0
M  V30 7816 C 737.663 -1.89656 0.453371 0
M  V30 7817 O 736.933 -1.8852 -0.53263 0
M  V30 7818 H 735.513 -0.408843 0.625185 0
M  V30 7819 H 738.175 -0.40467 1.90653 0
M  V30 7820 H 737.271 -1.78575 2.55964 0
M  V30 7821 N 737.572 -1.44907 -0.619662 0
M  V30 7822 C 738.52 -1.52971 -1.75222 0
M  V30 7823 C 739.514 -0.400531 -1.64597 0
M  V30 7824 O 740.72 -0.575952 -1.70537 0
M  V30 7825 H 737.095 -0.480241 -0.578682 0
M  V30 7826 H 739.066 -2.48269 -1.65545 0
M  V30 7827 C 737.815 -1.50204 -3.13583 0
M  V30 7828 H 737.138 -2.36412 -3.22412 0
M  V30 7829 H 738.578 -1.59905 -3.92691 0
M  V30 7830 C 737.037 -0.22455 -3.36151 0
M  V30 7831 O 737.567 0.700574 -3.95544 0
M  V30 7832 N 735.773 -0.124052 -2.90335 0
M  V30 7833 H 735.32 -0.87774 -2.42185 0
M  V30 7834 H 735.278 0.729914 -3.0581 0
M  V30 7835 N 739.05 0.861098 -1.31996 0
M  V30 7836 C 740.296 1.61721 -1.22369 0
M  V30 7837 C 740.629 1.93 0.215587 0
M  V30 7838 O 739.904 1.56789 1.15098 0
M  V30 7839 C 740.187 2.9417 -2.07691 0
M  V30 7840 C 740.04 2.69714 -3.59965 0
M  V30 7841 C 741.359 3.95372 -1.93312 0
M  V30 7842 H 738.478 0.586822 -0.44588 0
M  V30 7843 H 741.12 0.994788 -1.61876 0
M  V30 7844 H 739.27 3.47292 -1.74128 0
M  V30 7845 H 740.942 2.23196 -4.03709 0
M  V30 7846 H 739.185 2.03789 -3.82952 0
M  V30 7847 H 739.856 3.63996 -4.14983 0
M  V30 7848 H 742.332 3.51487 -2.22701 0
M  V30 7849 H 741.208 4.85916 -2.55298 0
M  V30 7850 H 741.469 4.32865 -0.898922 0
M  V30 7851 N 740.528 1.15101 1.07655 0
M  V30 7852 C 741.774 0.925343 1.80458 0
M  V30 7853 C 742.107 -0.546354 1.86356 0
M  V30 7854 O 741.382 -1.40496 1.34503 0
M  V30 7855 C 741.665 1.53646 3.25676 0
M  V30 7856 C 741.518 3.07854 3.27942 0
M  V30 7857 C 742.837 1.21968 4.22861 0
M  V30 7858 H 739.956 0.337592 0.655134 0
M  V30 7859 H 742.598 1.42217 1.25993 0
M  V30 7860 H 740.748 1.11395 3.72187 0
M  V30 7861 H 742.42 3.58989 2.89697 0
M  V30 7862 H 740.663 3.41904 2.66991 0
M  V30 7863 H 741.334 3.45725 4.30324 0
M  V30 7864 H 743.81 1.5851 3.84726 0
M  V30 7865 H 742.686 1.67349 5.22767 0
M  V30 7866 H 742.947 0.136207 4.4189 0
M  V30 7867 N 742.006 -1.2595 0.947325 0
M  V30 7868 C 742.936 -2.28521 0.479604 0
M  V30 7869 C 743.917 -1.63469 -0.470293 0
M  V30 7870 O 745.102 -1.90627 -0.370824 0
M  V30 7871 C 742.232 -3.46397 -0.250289 0
M  V30 7872 C 741.186 -4.23578 0.613643 0
M  V30 7873 C 740.512 -5.34131 -0.246568 0
M  V30 7874 C 741.812 -4.86979 1.88809 0
M  V30 7875 H 743.506 -2.67895 1.33688 0
M  V30 7876 H 741.052 -1.28783 0.644274 0
M  V30 7877 H 743.005 -4.17269 -0.588576 0
M  V30 7878 H 741.729 -3.05993 -1.14175 0
M  V30 7879 H 740.388 -3.54478 0.93491 0
M  V30 7880 H 740.036 -4.89968 -1.13756 0
M  V30 7881 H 739.736 -5.86683 0.328123 0
M  V30 7882 H 741.26 -6.07839 -0.579986 0
M  V30 7883 H 742.674 -5.50034 1.61666 0
M  V30 7884 H 741.071 -5.49675 2.40784 0
M  V30 7885 H 742.141 -4.09575 2.5957 0
M  V30 7886 N 743.484 -0.715051 -1.40445 0
M  V30 7887 C 744.895 -0.326763 -1.83818 0
M  V30 7888 C 745.246 1.13851 -1.59789 0
M  V30 7889 O 744.371 1.87611 -1.07848 0
M  V30 7890 C 744.966 -0.586297 -3.33688 0
M  V30 7891 C 743.525 -0.251724 -3.75557 0
M  V30 7892 C 742.672 -0.858928 -2.63662 0
M  V30 7893 H 745.623 -0.914241 -1.2972 0
M  V30 7894 H 745.644 0.148636 -3.8021 0
M  V30 7895 H 745.156 -1.65281 -3.51146 0
M  V30 7896 H 743.257 0.809754 -3.63695 0
M  V30 7897 H 743.37 -0.720348 -4.73654 0
M  V30 7898 H 741.734 -0.287013 -2.53078 0
M  V30 7899 H 742.517 -1.9297 -2.83932 0
M  V30 7900 N 744.962 1.50701 -0.461195 0
M  V30 7901 C 745.925 2.2686 0.326679 0
M  V30 7902 C 746.925 1.31243 0.929085 0
M  V30 7903 O 748.115 1.54754 0.799807 0
M  V30 7904 C 745.247 3.07844 1.46441 0
M  V30 7905 H 746.44 2.97954 -0.341095 0
M  V30 7906 H 743.993 1.54814 -0.214984 0
M  V30 7907 H 744.728 2.41223 2.16753 0
M  V30 7908 H 744.513 3.78101 1.03836 0
M  V30 7909 H 746.003 3.65469 2.02044 0
M  V30 7910 N 746.441 0.193421 1.56409 0
M  V30 7911 C 747.351 -0.740112 2.2262 0
M  V30 7912 C 748.367 -1.23597 1.22474 0
M  V30 7913 O 749.543 -1.28348 1.55206 0
M  V30 7914 C 746.608 -1.94317 2.87127 0
M  V30 7915 C 745.669 -1.49205 4.02538 0
M  V30 7916 C 744.902 -2.63776 4.63959 0
M  V30 7917 O 745.125 -3.81215 4.24301 0
M  V30 7918 O 744.059 -2.36585 5.53454 0
M  V30 7919 H 747.885 -0.206238 3.02999 0
M  V30 7920 H 745.47 -0.0357938 1.49357 0
M  V30 7921 H 747.352 -2.64633 3.27944 0
M  V30 7922 H 746.027 -2.46568 2.09728 0
M  V30 7923 H 744.934 -0.757738 3.66346 0
M  V30 7924 H 746.267 -1.01622 4.81595 0
M  V30 7925 N 747.919 -1.57396 -0.0801906 0
M  V30 7926 C 749.335 -1.53564 -0.434778 0
M  V30 7927 C 749.535 -0.912372 -1.79661 0
M  V30 7928 O 748.591 -0.511268 -2.4727 0
M  V30 7929 C 749.904 -2.98244 -0.383561 0
M  V30 7930 C 751.452 -3.09536 -0.46435 0
M  V30 7931 C 751.927 -4.55851 -0.443128 0
M  V30 7932 N 753.418 -4.60456 -0.503448 0
M  V30 7933 C 754.153 -5.71135 -0.509106 0
M  V30 7934 N 753.649 -6.91203 -0.47008 0
M  V30 7935 N 755.442 -5.59353 -0.555035 0
M  V30 7936 H 747.593 -1.96281 0.811635 0
M  V30 7937 H 749.856 -0.898041 0.303689 0
M  V30 7938 H 749.562 -3.47369 0.550236 0
M  V30 7939 H 749.436 -3.57705 -1.19694 0
M  V30 7940 H 751.823 -2.6039 -1.38857 0
M  V30 7941 H 751.904 -2.53 0.377445 0
M  V30 7942 H 751.548 -5.05653 0.477207 0
M  V30 7943 H 751.478 -5.10242 -1.30234 0
M  V30 7944 H 753.969 -3.74048 -0.538199 0
M  V30 7945 H 754.282 -7.7132 -0.478091 0
M  V30 7946 H 752.627 -6.93625 -0.436897 0
M  V30 7947 H 755.818 -4.64453 -0.583158 0
M  V30 7948 H 755.991 -6.4561 -0.555976 0
M  V30 7949 N 749.397 0.351382 -1.53633 0
M  V30 7950 C 750.345 1.45142 -1.8176 0
M  V30 7951 C 751.339 1.54819 -0.687571 0
M  V30 7952 O 752.545 1.57536 -0.870772 0
M  V30 7953 H 748.92 0.483789 -0.575719 0
M  V30 7954 H 750.891 1.1863 -2.73806 0
M  V30 7955 C 749.64 2.81779 -2.03706 0
M  V30 7956 H 748.963 2.75097 -2.90107 0
M  V30 7957 H 750.403 3.5789 -2.27356 0
M  V30 7958 C 748.862 3.26762 -0.820271 0
M  V30 7959 O 749.392 4.01697 -0.0158603 0
M  V30 7960 N 747.598 2.83472 -0.639699 0
M  V30 7961 H 747.145 2.22655 -1.29547 0
M  V30 7962 H 747.103 3.13924 0.172995 0
M  V30 7963 N 750.875 1.45233 0.611969 0
M  V30 7964 C 752.124 1.48296 1.36716 0
M  V30 7965 C 752.437 0.12706 1.95187 0
M  V30 7966 O 753.643 0.0353066 2.71477 0
M  V30 7967 C 752.099 2.61168 2.47627 0
M  V30 7968 C 751.707 4.03051 1.95587 0
M  V30 7969 C 753.451 2.73472 3.24674 0
M  V30 7970 C 751.358 5.07312 3.03954 0
M  V30 7971 H 750.288 0.5518 0.513841 0
M  V30 7972 H 752.939 1.7136 0.656359 0
M  V30 7973 H 751.321 2.31379 3.21372 0
M  V30 7974 H 752.495 4.42497 1.2858 0
M  V30 7975 H 750.81 3.95158 1.31298 0
M  V30 7976 H 753.407 3.48537 4.05494 0
M  V30 7977 H 753.75 1.79953 3.75397 0
M  V30 7978 H 754.283 3.02765 2.58028 0
M  V30 7979 H 751.022 6.02525 2.58154 0
M  V30 7980 H 750.542 4.7244 3.69541 0
M  V30 7981 H 752.221 5.31867 3.6841 0
M  V30 7982 N 752.353 -0.854086 1.3245 0
M  V30 7983 C 753.263 -1.99503 1.23434 0
M  V30 7984 C 754.279 -1.73371 0.147828 0
M  V30 7985 O 755.455 -1.97998 0.368609 0
M  V30 7986 C 752.52 -3.33192 0.958328 0
M  V30 7987 C 751.581 -3.72542 2.13333 0
M  V30 7988 C 750.814 -4.99852 1.8704 0
M  V30 7989 O 751.037 -5.64573 0.813239 0
M  V30 7990 O 749.971 -5.36345 2.73161 0
M  V30 7991 H 753.797 -2.10046 2.1935 0
M  V30 7992 H 751.382 -0.984823 1.12346 0
M  V30 7993 H 753.264 -4.13327 0.820918 0
M  V30 7994 H 751.939 -3.23687 0.0293299 0
M  V30 7995 H 750.846 -2.92981 2.32622 0
M  V30 7996 H 752.179 -3.86694 3.04514 0
M  V30 7997 N 753.831 -1.1567 -1.07043 0
M  V30 7998 C 755.078 -0.933517 -1.79699 0
M  V30 7999 C 755.406 0.539162 -1.86878 0
M  V30 8000 O 754.661 1.41592 -1.35093 0
M  V30 8001 C 754.96 -1.49677 -3.24548 0
M  V30 8002 C 754.626 -2.99047 -3.37463 0
M  V30 8003 C 753.288 -3.39824 -3.40695 0
M  V30 8004 C 755.64 -3.95027 -3.40004 0
M  V30 8005 C 752.968 -4.75215 -3.44075 0
M  V30 8006 C 755.32 -5.30295 -3.44921 0
M  V30 8007 C 753.984 -5.70562 -3.46432 0
M  V30 8008 H 753.254 -0.341598 -0.657565 0
M  V30 8009 H 755.901 -1.44263 -1.25938 0
M  V30 8010 H 754.206 -0.908915 -3.81111 0
M  V30 8011 H 755.903 -1.29986 -3.79348 0
M  V30 8012 H 752.493 -2.6653 -3.35648 0
M  V30 8013 H 756.677 -3.64596 -3.36725 0
M  V30 8014 H 751.933 -5.05754 -3.43545 0
M  V30 8015 H 756.107 -6.0446 -3.45833 0
M  V30 8016 H 753.734 -6.75456 -3.48803 0
M  V30 8017 N 755.309 1.25446 -0.953992 0
M  V30 8018 C 756.256 2.25912 -0.472485 0
M  V30 8019 C 757.226 1.59173 0.47469 0
M  V30 8020 O 758.411 1.86812 0.388082 0
M  V30 8021 C 755.551 3.44235 0.244218 0
M  V30 8022 C 754.664 4.25613 -0.740121 0
M  V30 8023 C 753.799 5.312 -0.000922267 0
M  V30 8024 C 752.838 6.04265 -0.976236 0
M  V30 8025 N 751.975 7.01589 -0.267952 0
M  V30 8026 H 756.815 2.66469 -1.3341 0
M  V30 8027 H 754.352 1.31005 -0.669045 0
M  V30 8028 H 756.31 4.11682 0.676314 0
M  V30 8029 H 754.94 3.04554 1.06988 0
M  V30 8030 H 753.992 3.57834 -1.2907 0
M  V30 8031 H 755.304 4.762 -1.48441 0
M  V30 8032 H 754.458 6.04719 0.48984 0
M  V30 8033 H 753.197 4.81484 0.776159 0
M  V30 8034 H 752.202 5.29561 -1.478 0
M  V30 8035 H 753.427 6.5607 -1.75354 0
M  V30 8036 H 751.373 6.54164 0.490403 0
M  V30 8037 H 751.29 7.4999 -0.951344 0
M  V30 8038 H 752.558 7.7924 0.201294 0
M  V30 8039 N 756.787 0.722489 1.40064 0
M  V30 8040 C 757.75 0.0830209 2.2905 0
M  V30 8041 C 758.75 -0.680208 1.45705 0
M  V30 8042 O 759.94 -0.511084 1.66534 0
M  V30 8043 C 757.072 -0.892092 3.29021 0
M  V30 8044 H 758.265 0.866848 2.87099 0
M  V30 8045 H 755.818 0.487556 1.48501 0
M  V30 8046 H 756.553 -1.70273 2.76003 0
M  V30 8047 H 756.338 -0.34761 3.90556 0
M  V30 8048 H 757.828 -1.33648 3.95636 0
M  V30 8049 N 758.265 -1.50454 0.469181 0
M  V30 8050 C 759.512 -2.02315 -0.086469 0
M  V30 8051 C 759.84 -1.3513 -1.39893 0
M  V30 8052 O 759.095 -0.465341 -1.90087 0
M  V30 8053 C 759.394 -3.55963 -0.320207 0
M  V30 8054 C 759.06 -4.41615 0.910318 0
M  V30 8055 C 757.722 -4.64743 1.2477 0
M  V30 8056 C 760.074 -4.91661 1.72971 0
M  V30 8057 C 757.402 -5.35161 2.40457 0
M  V30 8058 C 759.754 -5.6335 2.87785 0
M  V30 8059 C 758.418 -5.84732 3.2194 0
M  V30 8060 H 757.688 -0.740324 -0.0316412 0
M  V30 8061 H 760.335 -1.81087 0.622872 0
M  V30 8062 H 758.64 -3.75695 -1.11177 0
M  V30 8063 H 760.337 -3.93653 -0.764071 0
M  V30 8064 H 756.927 -4.23833 0.637467 0
M  V30 8065 H 761.111 -4.73649 1.48224 0
M  V30 8066 H 756.367 -5.49924 2.67196 0
M  V30 8067 H 760.541 -6.0111 3.51624 0
M  V30 8068 H 758.168 -6.39074 4.1169 0
M  V30 8069 N 759.743 -0.201713 -1.56304 0
M  V30 8070 C 760.992 0.435557 -1.96941 0
M  V30 8071 C 761.305 1.62299 -1.09172 0
M  V30 8072 O 762.511 2.32849 -1.3962 0
M  V30 8073 C 760.967 0.826298 -3.50286 0
M  V30 8074 C 760.575 -0.337216 -4.46729 0
M  V30 8075 C 762.319 1.43028 -3.99679 0
M  V30 8076 C 760.226 0.0748539 -5.91353 0
M  V30 8077 H 759.156 0.1665 -0.735387 0
M  V30 8078 H 761.807 -0.294781 -1.81117 0
M  V30 8079 H 760.189 1.61349 -3.61639 0
M  V30 8080 H 761.363 -1.11476 -4.47113 0
M  V30 8081 H 759.678 -0.853126 -4.07567 0
M  V30 8082 H 762.275 1.75115 -5.05212 0
M  V30 8083 H 762.618 2.33911 -3.44371 0
M  V30 8084 H 763.151 0.706924 -3.91468 0
M  V30 8085 H 759.89 -0.799957 -6.506 0
M  V30 8086 H 759.41 0.817122 -5.94208 0
M  V30 8087 H 761.089 0.508389 -6.45 0
M  V30 8088 N 761.222 1.57436 0.0718424 0
M  V30 8089 C 762.169 2.03686 1.08539 0
M  V30 8090 C 763.139 0.917474 1.38462 0
M  V30 8091 O 764.324 1.18513 1.4953 0
M  V30 8092 C 761.464 2.48566 2.39393 0
M  V30 8093 C 760.577 3.74122 2.16001 0
M  V30 8094 C 759.712 4.07786 3.40418 0
M  V30 8095 C 758.751 5.26383 3.1239 0
M  V30 8096 N 757.888 5.55685 4.29138 0
M  V30 8097 H 762.728 2.90043 0.684018 0
M  V30 8098 H 760.265 1.43438 0.326183 0
M  V30 8099 H 762.223 2.72639 3.15791 0
M  V30 8100 H 760.853 1.65186 2.77333 0
M  V30 8101 H 759.905 3.57389 1.30296 0
M  V30 8102 H 761.217 4.60659 1.91298 0
M  V30 8103 H 760.371 4.32759 4.25211 0
M  V30 8104 H 759.11 3.19817 3.68197 0
M  V30 8105 H 758.115 5.01206 2.25993 0
M  V30 8106 H 759.34 6.1597 2.85934 0
M  V30 8107 H 757.286 4.70675 4.56948 0
M  V30 8108 H 757.203 6.3664 4.07708 0
M  V30 8109 H 758.471 5.85209 5.14928 0
M  V30 8110 N 762.7 -0.34323 1.53817 0
M  V30 8111 C 763.925 -1.1079 1.75329 0
M  V30 8112 C 764.35 -1.81571 0.491293 0
M  V30 8113 O 763.708 -1.72561 -0.556089 0
M  V30 8114 C 763.756 -2.09681 2.9337 0
M  V30 8115 O 762.86 -3.17207 2.63541 0
M  V30 8116 H 762.201 -0.320402 0.581583 0
M  V30 8117 H 764.731 -0.393525 2.0078 0
M  V30 8118 H 764.741 -2.52897 3.20168 0
M  V30 8119 H 763.416 -1.5756 3.84899 0
M  V30 8120 H 761.993 -2.78806 2.47632 0
M  V30 8121 N 764.178 -1.45556 -0.604258 0
M  V30 8122 C 765.125 -1.54482 -1.71476 0
M  V30 8123 C 766.095 -0.390479 -1.61445 0
M  V30 8124 O 767.28 -0.604371 -1.80975 0
M  V30 8125 C 764.42 -1.52064 -3.09791 0
M  V30 8126 C 763.533 -2.78073 -3.30604 0
M  V30 8127 C 762.668 -2.67304 -4.59044 0
M  V30 8128 C 761.707 -3.88352 -4.73127 0
M  V30 8129 N 760.844 -3.76098 -5.9287 0
M  V30 8130 H 765.684 -2.49349 -1.63184 0
M  V30 8131 H 763.221 -1.23725 -0.795641 0
M  V30 8132 H 765.179 -1.48649 -3.89819 0
M  V30 8133 H 763.809 -0.607442 -3.17033 0
M  V30 8134 H 762.861 -2.91561 -2.44329 0
M  V30 8135 H 764.173 -3.67847 -3.36883 0
M  V30 8136 H 763.327 -2.61875 -5.47272 0
M  V30 8137 H 762.066 -1.75135 -4.55169 0
M  V30 8138 H 761.071 -3.94137 -3.83322 0
M  V30 8139 H 762.296 -4.81591 -4.78797 0
M  V30 8140 H 760.242 -2.867 -5.90033 0
M  V30 8141 H 760.159 -4.59509 -6.00323 0
M  V30 8142 H 761.427 -3.74607 -6.83586 0
M  V30 8143 N 765.656 0.84705 -1.32902 0
M  V30 8144 C 766.933 1.58583 -1.14503 0
M  V30 8145 C 767.313 2.09075 0.291724 0
M  V30 8146 O 766.661 1.88636 1.28952 0
M  V30 8147 C 766.871 2.72605 -2.17916 0
M  V30 8148 C 768.219 3.41993 -2.51646 0
M  V30 8149 O 769.243 2.82838 -2.1652 0
M  V30 8150 O 768.102 4.48761 -3.1189 0
M  V30 8151 H 765.196 0.698756 -0.442345 0
M  V30 8152 H 767.742 0.890516 -1.44457 0
M  V30 8153 H 766.514 2.32876 -3.14459 0
M  V30 8154 H 766.137 3.49807 -1.89 0
M  V30 8155 N 767.134 1.16236 1.06428 0
M  V30 8156 C 768.382 0.941171 1.78847 0
M  V30 8157 C 768.703 -0.53248 1.87589 0
M  V30 8158 O 767.973 -1.38686 1.38358 0
M  V30 8159 H 766.553 0.345228 0.66244 0
M  V30 8160 H 769.215 1.46479 1.28569 0
M  V30 8161 H 768.311 1.35871 2.80972 0
M  V30 8162 N 768.612 -1.24939 0.960631 0
M  V30 8163 C 769.84 -1.96881 0.636045 0
M  V30 8164 C 770.255 -1.71334 -0.793093 0
M  V30 8165 O 769.612 -0.992917 -1.53125 0
M  V30 8166 C 769.663 -3.50309 0.892533 0
M  V30 8167 O 769.384 -3.74977 2.26548 0
M  V30 8168 C 770.885 -4.39474 0.581159 0
M  V30 8169 H 768.105 -0.627399 0.237931 0
M  V30 8170 H 770.649 -1.58952 1.28664 0
M  V30 8171 H 768.804 -3.86326 0.288257 0
M  V30 8172 H 769.218 -4.69401 2.34014 0
M  V30 8173 H 770.692 -5.46008 0.811125 0
M  V30 8174 H 771.169 -4.3652 -0.48443 0
M  V30 8175 H 771.775 -4.09032 1.16502 0
M  V30 8176 N 770.09 -0.729906 -1.39679 0
M  V30 8177 C 771.336 -0.27603 -2.00913 0
M  V30 8178 C 771.669 1.13227 -1.57776 0
M  V30 8179 O 770.944 1.7709 -0.804319 0
M  V30 8180 C 771.227 -0.372157 -3.58172 0
M  V30 8181 C 771.08 -1.81986 -4.11341 0
M  V30 8182 C 772.399 0.248378 -4.39399 0
M  V30 8183 H 769.518 -0.101773 -0.729939 0
M  V30 8184 H 772.16 -0.925104 -1.65957 0
M  V30 8185 H 770.31 0.180459 -3.88081 0
M  V30 8186 H 771.982 -2.42896 -3.92172 0
M  V30 8187 H 770.225 -2.34287 -3.65092 0
M  V30 8188 H 770.896 -1.83842 -5.20486 0
M  V30 8189 H 773.372 -0.222645 -4.15504 0
M  V30 8190 H 772.248 0.150746 -5.48693 0
M  V30 8191 H 772.509 1.33378 -4.21501 0
M  V30 8192 N 771.568 1.50203 -0.477153 0
M  V30 8193 C 772.515 2.28656 0.31386 0
M  V30 8194 C 773.485 1.33977 0.981802 0
M  V30 8195 O 774.67 1.62919 0.993072 0
M  V30 8196 C 771.81 3.16027 1.38639 0
M  V30 8197 C 770.923 4.25743 0.732615 0
M  V30 8198 C 770.058 5.00363 1.78355 0
M  V30 8199 C 769.097 6.01945 1.11035 0
M  V30 8200 N 768.234 6.6982 2.10441 0
M  V30 8201 H 773.074 2.958 -0.361445 0
M  V30 8202 H 770.611 1.45867 -0.190093 0
M  V30 8203 H 772.569 3.6504 2.01994 0
M  V30 8204 H 771.199 2.50917 2.03077 0
M  V30 8205 H 770.251 3.80398 -0.0136546 0
M  V30 8206 H 771.563 4.98393 0.201513 0
M  V30 8207 H 770.717 5.53124 2.49276 0
M  V30 8208 H 769.456 4.27432 2.34847 0
M  V30 8209 H 768.461 5.48438 0.386797 0
M  V30 8210 H 769.686 6.76851 0.552248 0
M  V30 8211 H 767.632 5.99677 2.65939 0
M  V30 8212 H 767.549 7.38366 1.62332 0
M  V30 8213 H 768.817 7.27196 2.80724 0
M  V30 8214 N 773.046 0.209999 1.56195 0
M  V30 8215 C 774.271 -0.433064 2.02828 0
M  V30 8216 C 774.696 -1.5337 1.08901 0
M  V30 8217 O 774.054 -1.81144 0.0751132 0
M  V30 8218 C 774.102 -0.952635 3.47789 0
M  V30 8219 O 773.206 -2.0647 3.56993 0
M  V30 8220 H 772.547 -0.0994594 0.656509 0
M  V30 8221 H 775.077 0.32525 2.01998 0
M  V30 8222 H 775.087 -1.26542 3.8788 0
M  V30 8223 H 773.762 -0.147007 4.1564 0
M  V30 8224 H 772.339 -1.75942 3.28784 0
M  V30 8225 N 774.524 -1.57472 -0.0634922 0
M  V30 8226 C 775.77 -1.88792 -0.756903 0
M  V30 8227 C 776.125 -0.804679 -1.74765 0
M  V30 8228 O 775.418 0.19033 -1.90652 0
M  V30 8229 C 775.612 -3.24521 -1.49736 0
M  V30 8230 C 775.441 -4.45946 -0.579833 0
M  V30 8231 C 774.211 -5.04848 -0.213667 0
M  V30 8232 C 776.409 -5.14143 0.12703 0
M  V30 8233 N 774.391 -6.09795 0.708712 0
M  V30 8234 C 775.762 -6.1334 0.906295 0
M  V30 8235 C 777.817 -4.97508 0.197625 0
M  V30 8236 C 776.52 -6.97697 1.74961 0
M  V30 8237 C 778.546 -5.82398 1.02794 0
M  V30 8238 C 777.908 -6.81139 1.79523 0
M  V30 8239 H 774.007 -0.740235 -0.252142 0
M  V30 8240 H 776.591 -1.94692 -0.0181026 0
M  V30 8241 H 774.762 -3.19615 -2.20683 0
M  V30 8242 H 776.494 -3.43464 -2.14044 0
M  V30 8243 H 773.249 -4.70177 -0.568357 0
M  V30 8244 H 773.673 -6.66929 1.16339 0
M  V30 8245 H 778.315 -4.21077 -0.381261 0
M  V30 8246 H 776.033 -7.73496 2.33943 0
M  V30 8247 H 779.619 -5.71581 1.08565 0
M  V30 8248 H 778.499 -7.45687 2.42736 0
M  V30 8249 N 776.003 0.335068 -1.53997 0
M  V30 8250 C 776.935 1.4327 -1.78903 0
M  V30 8251 C 777.948 1.48347 -0.670598 0
M  V30 8252 O 779.137 1.51277 -0.947494 0
M  V30 8253 C 776.237 2.81878 -1.88144 0
M  V30 8254 C 775.41 3.00141 -3.18174 0
M  V30 8255 C 774.469 4.19041 -3.18263 0
M  V30 8256 O 773.495 4.12751 -3.9195 0
M  V30 8257 N 774.697 5.28004 -2.41231 0
M  V30 8258 H 777.462 1.22272 -2.73623 0
M  V30 8259 H 775.023 0.524996 -1.53152 0
M  V30 8260 H 777.015 3.59609 -1.85644 0
M  V30 8261 H 775.585 2.9598 -1.00572 0
M  V30 8262 H 774.805 2.09808 -3.33728 0
M  V30 8263 H 776.093 3.0923 -4.04047 0
M  V30 8264 H 775.491 5.35986 -1.8093 0
M  V30 8265 H 774.048 6.04196 -2.44521 0
M  V30 8266 N 777.481 1.45874 0.596531 0
M  V30 8267 C 778.709 1.54013 1.38158 0
M  V30 8268 C 779.124 0.17648 1.87973 0
M  V30 8269 O 778.481 -0.823895 1.62844 0
M  V30 8270 C 778.532 2.53363 2.57855 0
M  V30 8271 O 778.253 3.8443 2.10108 0
M  V30 8272 C 779.754 2.71308 3.50581 0
M  V30 8273 H 776.974 0.521251 0.422538 0
M  V30 8274 H 779.518 1.9116 0.726493 0
M  V30 8275 H 777.673 2.19257 3.19382 0
M  V30 8276 H 778.087 4.38384 2.87958 0
M  V30 8277 H 779.561 3.44776 4.31084 0
M  V30 8278 H 780.038 1.77728 4.01633 0
M  V30 8279 H 780.644 3.06455 2.94899 0
M  V30 8280 N 778.959 -0.83999 1.33349 0
M  V30 8281 C 780.208 -1.59011 1.2409 0
M  V30 8282 C 780.521 -1.94655 -0.192029 0
M  V30 8283 O 781.727 -2.68438 -0.406617 0
M  V30 8284 C 780.183 -2.86801 2.17425 0
M  V30 8285 C 779.791 -2.58525 3.65881 0
M  V30 8286 C 781.535 -3.64823 2.17036 0
M  V30 8287 C 779.442 -3.82404 4.51133 0
M  V30 8288 H 778.372 -0.596731 0.460899 0
M  V30 8289 H 781.023 -0.926274 1.58406 0
M  V30 8290 H 779.405 -3.54719 1.7604 0
M  V30 8291 H 780.579 -1.98824 4.15699 0
M  V30 8292 H 778.894 -1.93808 3.68548 0
M  V30 8293 H 781.491 -4.56774 2.7796 0
M  V30 8294 H 781.834 -3.99663 1.16513 0
M  V30 8295 H 782.367 -3.03826 2.56777 0
M  V30 8296 H 779.106 -3.52696 5.52527 0
M  V30 8297 H 778.626 -4.41447 4.0606 0
M  V30 8298 H 780.305 -4.49995 4.6488 0
M  V30 8299 N 780.437 -1.16799 -1.0581 0
M  V30 8300 C 781.369 -0.836774 -2.13379 0
M  V30 8301 C 782.382 0.158116 -1.6203 0
M  V30 8302 O 783.571 -0.0673211 -1.78373 0
M  V30 8303 C 780.671 -0.225959 -3.38146 0
M  V30 8304 C 779.844 -1.26217 -4.18794 0
M  V30 8305 C 778.903 -0.670257 -5.21914 0
M  V30 8306 O 777.929 -1.34042 -5.53192 0
M  V30 8307 N 779.131 0.540683 -5.77977 0
M  V30 8308 H 781.896 -1.76257 -2.42391 0
M  V30 8309 H 779.457 -1.06599 -1.21853 0
M  V30 8310 H 781.449 0.18317 -4.04285 0
M  V30 8311 H 780.019 0.603494 -3.06719 0
M  V30 8312 H 779.239 -1.84729 -3.48237 0
M  V30 8313 H 780.527 -1.9613 -4.69479 0
M  V30 8314 H 779.925 1.10322 -5.54838 0
M  V30 8315 H 778.482 0.891958 -6.45668 0
M  V30 8316 N 781.915 1.24427 -0.967243 0
M  V30 8317 C 782.847 2.24641 -0.454856 0
M  V30 8318 C 783.86 1.56849 0.436152 0
M  V30 8319 O 785.049 1.76846 0.242401 0
M  V30 8320 C 782.149 3.36954 0.362672 0
M  V30 8321 C 781.322 4.34318 -0.518324 0
M  V30 8322 C 780.381 5.25638 0.243122 0
M  V30 8323 O 779.407 5.68043 -0.362791 0
M  V30 8324 N 780.609 5.59897 1.53282 0
M  V30 8325 H 783.374 2.69238 -1.31648 0
M  V30 8326 H 780.935 1.38464 -0.839015 0
M  V30 8327 H 782.927 3.95014 0.880094 0
M  V30 8328 H 781.497 2.91646 1.12522 0
M  V30 8329 H 780.717 3.74953 -1.21672 0
M  V30 8330 H 782.005 4.96338 -1.11919 0
M  V30 8331 H 781.403 5.27373 2.04682 0
M  V30 8332 H 779.96 6.20488 1.99594 0
M  V30 8333 N 783.393 0.737304 1.3929 0
M  V30 8334 C 784.618 0.295237 2.05288 0
M  V30 8335 C 785.043 -1.06235 1.55228 0
M  V30 8336 O 784.401 -1.67365 0.697043 0
M  V30 8337 C 784.449 0.309146 3.59272 0
M  V30 8338 O 783.553 -0.702437 4.06374 0
M  V30 8339 H 782.894 0.133762 0.650387 0
M  V30 8340 H 785.424 1.00387 1.78279 0
M  V30 8341 H 785.434 0.154336 4.07708 0
M  V30 8342 H 784.109 1.29974 3.95069 0
M  V30 8343 H 782.686 -0.513574 3.69346 0
M  V30 8344 N 784.871 -1.49948 0.485112 0
M  V30 8345 C 786.117 -2.0332 -0.0571625 0
M  V30 8346 C 786.472 -1.35951 -1.36144 0
M  V30 8347 O 785.765 -0.480871 -1.85467 0
M  V30 8348 C 785.959 -3.56282 -0.282434 0
M  V30 8349 C 785.788 -4.38476 0.998455 0
M  V30 8350 C 784.558 -4.81076 1.54576 0
M  V30 8351 C 786.756 -4.78013 1.89758 0
M  V30 8352 N 784.738 -5.47641 2.77421 0
M  V30 8353 C 786.109 -5.44133 2.97186 0
M  V30 8354 C 788.164 -4.59963 1.90627 0
M  V30 8355 C 786.867 -5.94113 4.0549 0
M  V30 8356 C 788.893 -5.10893 2.97897 0
M  V30 8357 C 788.255 -5.77 4.04043 0
M  V30 8358 H 784.354 -0.781758 0.0194642 0
M  V30 8359 H 786.938 -1.833 0.65644 0
M  V30 8360 H 785.109 -3.76219 -0.965083 0
M  V30 8361 H 786.841 -3.96299 -0.820298 0
M  V30 8362 H 783.596 -4.60814 1.09304 0
M  V30 8363 H 784.02 -5.85521 3.39844 0
M  V30 8364 H 788.662 -4.08274 1.09875 0
M  V30 8365 H 786.38 -6.44832 4.8705 0
M  V30 8366 H 789.966 -4.98748 2.9957 0
M  V30 8367 H 788.846 -6.15698 4.85681 0
M  V30 8368 N 786.349 -0.21828 -1.56081 0
M  V30 8369 C 787.297 0.709679 -2.21509 0
M  V30 8370 C 788.291 1.20221 -1.19346 0
M  V30 8371 O 789.497 1.16241 -1.37433 0
M  V30 8372 H 785.872 0.247271 -0.710184 0
M  V30 8373 H 787.843 0.134386 -2.98097 0
M  V30 8374 C 786.592 1.90853 -2.90638 0
M  V30 8375 H 785.915 1.53865 -3.69006 0
M  V30 8376 H 787.355 2.53568 -3.39822 0
M  V30 8377 C 785.814 2.76189 -1.92929 0
M  V30 8378 O 786.344 3.74842 -1.44416 0
M  V30 8379 N 784.55 2.42157 -1.6065 0
M  V30 8380 H 784.097 1.61987 -2.00294 0
M  V30 8381 H 784.055 2.99534 -0.955347 0
M  V30 8382 N 787.827 1.57504 0.0551401 0
M  V30 8383 C 789.238 1.76626 0.604979 0
M  V30 8384 C 789.589 0.845978 1.77024 0
M  V30 8385 O 788.714 0.0341936 2.16373 0
M  V30 8386 C 789.309 3.203 1.10425 0
M  V30 8387 C 787.868 3.4071 1.59981 0
M  V30 8388 C 787.015 2.72258 0.526414 0
M  V30 8389 H 789.966 1.57775 -0.171072 0
M  V30 8390 H 789.987 3.25377 1.97256 0
M  V30 8391 H 789.499 3.87255 0.255939 0
M  V30 8392 H 787.6 2.78892 2.47083 0
M  V30 8393 H 787.713 4.49227 1.66528 0
M  V30 8394 H 786.077 2.35283 0.97539 0
M  V30 8395 H 786.86 3.41879 -0.311991 0
M  V30 8396 N 789.305 -0.326896 1.54172 0
M  V30 8397 C 790.551 -1.06681 1.72473 0
M  V30 8398 C 790.884 -1.87779 0.49523 0
M  V30 8399 O 790.159 -1.87754 -0.507803 0
M  V30 8400 C 790.442 -1.99429 2.99834 0
M  V30 8401 C 790.295 -1.21682 4.33028 0
M  V30 8402 C 791.614 -2.99002 3.22933 0
M  V30 8403 H 788.733 -0.386438 0.627563 0
M  V30 8404 H 791.375 -0.343779 1.86864 0
M  V30 8405 H 789.525 -2.61081 2.87696 0
M  V30 8406 H 791.197 -0.625153 4.57044 0
M  V30 8407 H 789.44 -0.519045 4.30684 0
M  V30 8408 H 790.111 -1.89766 5.18356 0
M  V30 8409 H 792.587 -2.4747 3.34511 0
M  V30 8410 H 791.463 -3.61085 4.13412 0
M  V30 8411 H 791.724 -3.71281 2.40006 0
M  V30 8412 N 790.784 -1.46188 -0.588786 0
M  V30 8413 C 792.195 -1.45421 -1.17088 0
M  V30 8414 C 792.546 -0.191801 -1.9526 0
M  V30 8415 O 791.671 0.705497 -2.04577 0
M  V30 8416 C 792.266 -2.63467 -2.13004 0
M  V30 8417 C 790.825 -2.6576 -2.6655 0
M  V30 8418 C 789.972 -2.38002 -1.42304 0
M  V30 8419 H 792.923 -1.54156 -0.377052 0
M  V30 8420 H 792.944 -2.38638 -2.96365 0
M  V30 8421 H 792.456 -3.55331 -1.56081 0
M  V30 8422 H 790.557 -1.77952 -3.27359 0
M  V30 8423 H 790.67 -3.65545 -3.09699 0
M  V30 8424 H 789.034 -1.87936 -1.71907 0
M  V30 8425 H 789.817 -3.32035 -0.872209 0
M  V30 8426 N 792.262 0.832906 -1.33792 0
M  V30 8427 C 793.192 1.95828 -1.27176 0
M  V30 8428 C 794.173 1.69427 -0.15114 0
M  V30 8429 O 795.358 1.91167 -0.341886 0
M  V30 8430 C 792.488 3.32098 -1.01629 0
M  V30 8431 C 791.442 3.72912 -2.10049 0
M  V30 8432 C 790.768 5.07054 -1.69706 0
M  V30 8433 C 792.068 3.86064 -3.51783 0
M  V30 8434 H 793.762 2.01622 -2.21334 0
M  V30 8435 H 791.308 0.96866 -1.0655 0
M  V30 8436 H 793.261 4.10402 -0.956474 0
M  V30 8437 H 791.985 3.26577 -0.0390956 0
M  V30 8438 H 790.644 2.96876 -2.15082 0
M  V30 8439 H 790.292 4.9801 -0.706737 0
M  V30 8440 H 789.992 5.35333 -2.42264 0
M  V30 8441 H 791.516 5.87827 -1.65202 0
M  V30 8442 H 792.93 4.54665 -3.49218 0
M  V30 8443 H 791.327 4.25787 -4.22878 0
M  V30 8444 H 792.397 2.88344 -3.89854 0
M  V30 8445 N 793.74 1.17359 1.05189 0
M  V30 8446 C 794.687 0.890325 2.12936 0
M  V30 8447 C 795.657 -0.165779 1.65271 0
M  V30 8448 O 796.842 -0.0285672 1.90779 0
M  V30 8449 C 793.982 0.409793 3.42658 0
M  V30 8450 C 793.095 1.53002 4.03998 0
M  V30 8451 C 792.23 1.00336 5.21638 0
M  V30 8452 C 791.269 2.09903 5.74984 0
M  V30 8453 N 790.406 1.58714 6.83926 0
M  V30 8454 H 795.246 1.81299 2.36505 0
M  V30 8455 H 792.783 0.904249 1.16025 0
M  V30 8456 H 794.741 0.112743 4.17048 0
M  V30 8457 H 793.371 -0.475915 3.19272 0
M  V30 8458 H 792.423 1.9428 3.27047 0
M  V30 8459 H 793.735 2.3564 4.39631 0
M  V30 8460 H 792.889 0.660158 6.03098 0
M  V30 8461 H 791.628 0.14642 4.8748 0
M  V30 8462 H 790.633 2.45081 4.92154 0
M  V30 8463 H 791.858 2.96013 6.1119 0
M  V30 8464 H 789.804 0.752915 6.51665 0
M  V30 8465 H 789.721 2.34959 7.18561 0
M  V30 8466 H 790.989 1.27287 7.69037 0
M  V30 8467 N 795.218 -1.23913 0.973828 0
M  V30 8468 C 796.446 -1.96195 0.656891 0
M  V30 8469 C 796.861 -1.72166 -0.774876 0
M  V30 8470 O 796.218 -1.0091 -1.52064 0
M  V30 8471 C 796.269 -3.49342 0.929638 0
M  V30 8472 O 795.99 -3.72553 2.30512 0
M  V30 8473 C 797.491 -4.38833 0.627739 0
M  V30 8474 H 794.711 -0.624841 0.244572 0
M  V30 8475 H 797.255 -1.57579 1.30343 0
M  V30 8476 H 795.41 -3.85999 0.329216 0
M  V30 8477 H 795.824 -4.66893 2.3898 0
M  V30 8478 H 797.298 -5.45117 0.868991 0
M  V30 8479 H 797.775 -4.37009 -0.438104 0
M  V30 8480 H 798.381 -4.07773 1.20834 0
M  V30 8481 N 796.696 -0.74468 -1.38897 0
M  V30 8482 C 797.924 -0.307428 -2.04603 0
M  V30 8483 C 798.339 1.06115 -1.56157 0
M  V30 8484 O 797.696 1.67233 -0.730701 0
M  V30 8485 C 797.747 -0.31101 -3.6016 0
M  V30 8486 O 797.468 -1.62557 -4.06825 0
M  V30 8487 C 798.969 0.141213 -4.43075 0
M  V30 8488 H 796.189 -0.132741 -0.657739 0
M  V30 8489 H 798.733 -1.01104 -1.77759 0
M  V30 8490 H 796.888 0.343792 -3.85872 0
M  V30 8491 H 797.302 -1.54569 -5.01207 0
M  V30 8492 H 798.776 0.0875449 -5.51931 0
M  V30 8493 H 799.253 1.18782 -4.22833 0
M  V30 8494 H 799.859 -0.484383 -4.22533 0
M  V30 8495 N 798.174 1.49689 -0.493057 0
M  V30 8496 C 799.399 2.07331 0.0535114 0
M  V30 8497 C 799.824 1.35196 1.30781 0
M  V30 8498 O 799.182 0.406246 1.7669 0
M  V30 8499 C 799.23 3.59364 0.29825 0
M  V30 8500 O 798.334 3.88819 1.37454 0
M  V30 8501 H 797.675 0.663612 -0.0227018 0
M  V30 8502 H 800.205 1.926 -0.690402 0
M  V30 8503 H 800.215 4.04515 0.532159 0
M  V30 8504 H 798.89 4.1128 -0.618207 0
M  V30 8505 H 797.467 3.55487 1.12621 0
M  V30 8506 N 799.652 0.226554 1.55963 0
M  V30 8507 C 800.602 -0.694986 2.1715 0
M  V30 8508 C 801.586 -1.15394 1.12129 0
M  V30 8509 O 802.778 -1.1071 1.38102 0
M  V30 8510 C 799.907 -1.9007 2.85882 0
M  V30 8511 C 798.993 -1.46119 3.98133 0
M  V30 8512 N 799.384 -0.734584 5.00437 0
M  V30 8513 C 797.682 -1.74809 4.10314 0
M  V30 8514 C 798.383 -0.509773 5.79462 0
M  V30 8515 N 797.359 -1.06796 5.33006 0
M  V30 8516 H 801.161 -0.131469 2.93606 0
M  V30 8517 H 798.675 0.0280165 1.62376 0
M  V30 8518 H 800.672 -2.57169 3.28131 0
M  V30 8519 H 799.332 -2.46864 2.10923 0
M  V30 8520 H 800.343 -0.386757 5.16454 0
M  V30 8521 H 797.02 -2.32887 3.46511 0
M  V30 8522 H 798.41 0.0688847 6.71865 0
M  V30 8523 N 801.13 -1.57531 -0.0467866 0
M  V30 8524 C 802.358 -1.92696 -0.753371 0
M  V30 8525 C 802.773 -0.824792 -1.69831 0
M  V30 8526 O 802.13 0.200155 -1.81399 0
M  V30 8527 C 802.181 -3.27728 -1.52566 0
M  V30 8528 O 801.902 -4.3371 -0.618674 0
M  V30 8529 C 803.403 -3.77066 -2.33101 0
M  V30 8530 H 800.623 -0.636367 -0.212788 0
M  V30 8531 H 803.167 -2.04498 -0.00959361 0
M  V30 8532 H 801.322 -3.17378 -2.22148 0
M  V30 8533 H 801.736 -5.11548 -1.15839 0
M  V30 8534 H 803.21 -4.74109 -2.82709 0
M  V30 8535 H 803.687 -3.07348 -3.13741 0
M  V30 8536 H 804.293 -3.90442 -1.68628 0
M  V30 8537 N 802.608 0.318715 -1.54344 0
M  V30 8538 C 803.833 1.07987 -1.77069 0
M  V30 8539 C 804.258 1.80766 -0.520117 0
M  V30 8540 O 803.616 1.73424 0.528566 0
M  V30 8541 C 803.664 2.04987 -2.96669 0
M  V30 8542 O 802.768 3.12974 -2.68554 0
M  V30 8543 H 802.109 0.311109 -0.586606 0
M  V30 8544 H 804.639 0.361533 -2.0138 0
M  V30 8545 H 804.649 2.47771 -3.2415 0
M  V30 8546 H 803.324 1.51417 -3.87357 0
M  V30 8547 H 801.901 2.74831 -2.52037 0
M  V30 8548 N 804.086 1.46499 0.581025 0
M  V30 8549 C 805.311 1.55708 1.37002 0
M  V30 8550 C 805.736 0.19942 1.8704 0
M  V30 8551 O 805.094 -0.820731 1.61659 0
M  V30 8552 C 805.142 2.56716 2.53238 0
M  V30 8553 O 804.246 2.10336 3.54729 0
M  V30 8554 H 803.587 0.523912 0.407937 0
M  V30 8555 H 806.117 1.92085 0.704602 0
M  V30 8556 H 806.127 2.76378 3.00132 0
M  V30 8557 H 804.802 3.55307 2.16171 0
M  V30 8558 H 803.379 2.00669 3.14303 0
M  V30 8559 N 805.565 -0.825799 1.34232 0
M  V30 8560 C 806.811 -1.58379 1.27623 0
M  V30 8561 C 807.166 -1.91789 -0.15323 0
M  V30 8562 O 806.459 -1.56965 -1.09875 0
M  V30 8563 C 806.653 -2.89362 2.09772 0
M  V30 8564 C 806.482 -2.68747 3.60562 0
M  V30 8565 C 805.252 -2.6563 4.29848 0
M  V30 8566 C 807.45 -2.40463 4.54623 0
M  V30 8567 N 805.432 -2.3653 5.66504 0
M  V30 8568 C 806.803 -2.21032 5.79262 0
M  V30 8569 C 808.858 -2.26168 4.43568 0
M  V30 8570 C 807.561 -1.88754 6.94093 0
M  V30 8571 C 809.587 -1.95284 5.58228 0
M  V30 8572 C 808.949 -1.76674 6.81884 0
M  V30 8573 H 805.048 -0.582062 0.522234 0
M  V30 8574 H 807.632 -0.968308 1.68914 0
M  V30 8575 H 805.803 -3.48838 1.70783 0
M  V30 8576 H 807.535 -3.54716 1.94831 0
M  V30 8577 H 804.29 -2.79601 3.82257 0
M  V30 8578 H 804.714 -2.24827 6.38578 0
M  V30 8579 H 809.356 -2.39262 3.48588 0
M  V30 8580 H 807.074 -1.74397 7.89057 0
M  V30 8581 H 810.66 -1.84959 5.51617 0
M  V30 8582 H 809.54 -1.53123 7.69105 0
M  V30 8583 O 807.082 -1.29565 -0.964116 0
M  V30 8584 H 807.773 -1.10499 -1.5909 0
M  V30 END ATOM
M  V30 BEGIN BOND
M  V30 END BOND
M  V30 END CTAB
M  END
$$$$
