drugbank_target|P33517 Cytochrome c oxidase subunit 1 (DB03619)
 OpenBabel12092120463D

  0  0  0     0  0            999 V3000
M  V30 BEGIN CTAB
M  V30 COUNTS 8844 9009 0 0 0
M  V30 BEGIN ATOM
M  V30 1 H -0.908 1.98254 -0.117106 0
M  V30 2 N 0 1.576 0 0
M  V30 3 C 0.933 2.03868 1.02534 0
M  V30 4 C 1.911 0.928543 1.3348 0
M  V30 5 O 3.095 1.19667 1.45644 0
M  V30 6 C 0.222 2.43627 2.35294 0
M  V30 7 C -0.732 3.65373 2.2001 0
M  V30 8 S 0.101 5.13292 1.52614 0
M  V30 9 C 1.257 5.56322 2.86805 0
M  V30 10 H 1.49 2.90518 0.631377 0
M  V30 11 H -0.977 1.52953 0.210867 0
M  V30 12 H 0.981 2.67203 3.11629 0
M  V30 13 H -0.358 1.57376 2.7183 0
M  V30 14 H -1.165 3.90944 3.18086 0
M  V30 15 H -1.563 3.418 1.51819 0
M  V30 16 H 0.729 5.58782 3.83104 0
M  V30 17 H 1.672 6.56266 2.65933 0
M  V30 18 H 2.08 4.83886 2.90714 0
M  V30 19 N 1.4781 -0.272755 1.55222 0
M  V30 20 C 2.4411 -1.32041 1.87344 0
M  V30 21 C 3.4411 -1.42342 0.74803 0
M  V30 22 O 4.6311 -1.41488 1.0162 0
M  V30 23 C 1.7631 -2.70173 2.07893 0
M  V30 24 H 2.9561 -1.04789 2.80997 0
M  V30 25 H 0.5091 -0.51083 1.47717 0
M  V30 26 H 1.2441 -3.02605 1.16622 0
M  V30 27 H 1.0291 -2.64082 2.89833 0
M  V30 28 H 2.5191 -3.45869 2.34017 0
M  V30 29 N 2.9562 -1.48159 -0.537278 0
M  V30 30 C 4.2332 -1.46291 -1.29839 0
M  V30 31 C 4.6132 -0.170613 -2.10409 0
M  V30 32 O 3.9612 0.847746 -2.12192 0
M  V30 33 C 4.1712 -2.72055 -2.18603 0
M  V30 34 C 5.5192 -3.20087 -2.7898 0
M  V30 35 O 6.5432 -2.72921 -2.28894 0
M  V30 36 O 5.4022 -4.02138 -3.70064 0
M  V30 37 H 2.4962 -0.583906 -0.585647 0
M  V30 38 H 5.0422 -1.60384 -0.554534 0
M  V30 39 H 3.8142 -3.57628 -1.58801 0
M  V30 40 H 3.4372 -2.60646 -3.00249 0
M  V30 41 N 4.4343 0.785586 -1.36625 0
M  V30 42 C 5.3973 1.87999 -1.31107 0
M  V30 43 C 6.3973 1.59316 -0.217959 0
M  V30 44 O 7.5873 1.67656 -0.472977 0
M  V30 45 C 4.7193 3.24861 -1.03334 0
M  V30 46 H 5.9123 1.94307 -2.2844 0
M  V30 47 H 3.4653 0.983813 -1.21453 0
M  V30 48 H 4.2003 3.24235 -0.0647432 0
M  V30 49 H 3.9853 3.4707 -1.82441 0
M  V30 50 H 5.4753 4.04929 -1.02088 0
M  V30 51 N 5.9124 1.20967 1.01018 0
M  V30 52 C 6.8754 0.965918 2.07853 0
M  V30 53 C 7.8754 -0.0610545 1.60684 0
M  V30 54 O 9.0654 0.175681 1.73312 0
M  V30 55 C 6.1974 0.455513 3.37843 0
M  V30 56 H 7.3904 1.91365 2.3091 0
M  V30 57 H 4.9434 1.02594 1.17916 0
M  V30 58 H 5.6784 -0.497381 3.20463 0
M  V30 59 H 5.4634 1.19622 3.73407 0
M  V30 60 H 6.9534 0.304667 4.16487 0
M  V30 61 N 7.3905 -1.2043 1.01659 0
M  V30 62 C 8.6395 -1.89118 0.701237 0
M  V30 63 C 8.9525 -1.79705 -0.772358 0
M  V30 64 O 10.1585 -2.43528 -1.20026 0
M  V30 65 C 8.6145 -3.39168 1.20388 0
M  V30 66 C 8.2225 -3.57166 2.70438 0
M  V30 67 C 9.9665 -4.1341 0.963953 0
M  V30 68 C 7.8735 -5.01042 3.14183 0
M  V30 69 H 6.8035 -0.708267 0.2586 0
M  V30 70 H 9.4545 -1.36239 1.22927 0
M  V30 71 H 7.8365 -3.91369 0.603824 0
M  V30 72 H 9.0105 -3.15351 3.35992 0
M  V30 73 H 7.3255 -2.96294 2.92572 0
M  V30 74 H 9.9225 -5.19491 1.26621 0
M  V30 75 H 10.2655 -4.16181 -0.099578 0
M  V30 76 H 10.7985 -3.67309 1.52738 0
M  V30 77 H 7.5375 -5.03426 4.19812 0
M  V30 78 H 7.0575 -5.43668 2.53348 0
M  V30 79 H 8.7365 -5.69623 3.0682 0
M  V30 80 N 8.8686 -0.792821 -1.36206 0
M  V30 81 C 9.8186 -0.166598 -2.27391 0
M  V30 82 C 10.8026 0.651479 -1.47121 0
M  V30 83 O 11.9946 0.510994 -1.69463 0
M  V30 84 C 9.1236 0.695033 -3.36191 0
M  V30 85 C 8.2096 -0.132019 -4.23894 0
M  V30 86 N 8.6006 -1.18822 -4.91645 0
M  V30 87 C 6.8986 0.0885952 -4.45912 0
M  V30 88 C 7.5996 -1.69198 -5.56549 0
M  V30 89 N 6.5756 -1.00065 -5.34311 0
M  V30 90 H 10.3776 -0.974947 -2.77258 0
M  V30 91 H 7.8916 -0.632616 -1.49572 0
M  V30 92 H 9.8886 1.1596 -4.00448 0
M  V30 93 H 8.5486 1.50189 -2.87877 0
M  V30 94 H 9.5596 -1.57069 -4.93507 0
M  V30 95 H 6.2366 0.865688 -4.08426 0
M  V30 96 H 7.6266 -2.57395 -6.20643 0
M  V30 97 N 10.3467 1.47872 -0.545128 0
M  V30 98 C 11.5947 2.02093 -0.016553 0
M  V30 99 C 11.9157 1.42305 1.3332 0
M  V30 100 O 11.1857 0.593853 1.86682 0
M  V30 101 H 9.7657 0.746993 -0.00313038 0
M  V30 102 H 12.4277 1.81414 -0.712397 0
M  V30 103 H 11.5237 3.11996 0.0805422 0
M  V30 104 N 11.8248 0.280983 1.55075 0
M  V30 105 C 12.7748 -0.618585 2.19448 0
M  V30 106 C 13.7588 -1.11401 1.16098 0
M  V30 107 O 14.9508 -1.0581 1.41891 0
M  V30 108 C 12.0798 -1.79951 2.92357 0
M  V30 109 C 11.1658 -1.321 4.03002 0
M  V30 110 N 11.5568 -0.559044 5.02701 0
M  V30 111 C 9.8548 -1.60346 4.16179 0
M  V30 112 C 10.5558 -0.306722 5.80891 0
M  V30 113 N 9.5318 -0.880825 5.36416 0
M  V30 114 H 13.3338 -0.0286638 2.93886 0
M  V30 115 H 10.8478 0.0848104 1.62178 0
M  V30 116 H 12.8448 -2.45531 3.36927 0
M  V30 117 H 11.5048 -2.39333 2.19431 0
M  V30 118 H 12.5158 -0.205827 5.17491 0
M  V30 119 H 9.1928 -2.20621 3.54447 0
M  V30 120 H 10.5828 0.30391 6.71212 0
M  V30 121 N 13.3029 -1.57598 0.00835791 0
M  V30 122 C 14.2129 -2.12385 -0.996487 0
M  V30 123 C 15.2289 -1.07108 -1.37127 0
M  V30 124 O 16.4049 -1.39055 -1.4569 0
M  V30 125 C 13.4699 -2.62314 -2.26699 0
M  V30 126 C 12.5309 -3.82225 -1.95456 0
M  V30 127 C 11.7639 -4.29763 -3.16449 0
M  V30 128 O 11.9869 -3.76584 -4.28416 0
M  V30 129 O 10.9209 -5.21832 -2.99958 0
M  V30 130 H 14.7469 -2.98479 -0.560725 0
M  V30 131 H 12.3319 -1.47903 -0.210987 0
M  V30 132 H 14.2139 -2.94589 -3.01322 0
M  V30 133 H 12.8889 -1.79313 -2.69497 0
M  V30 134 H 11.7959 -3.54909 -1.18282 0
M  V30 135 H 13.1289 -4.66324 -1.57489 0
M  V30 136 N 14.781 0.264519 -1.55364 0
M  V30 137 C 15.731 1.32966 -1.85214 0
M  V30 138 C 16.715 1.44306 -0.711653 0
M  V30 139 O 17.907 1.47844 -0.973192 0
M  V30 140 C 15.036 2.68839 -2.13495 0
M  V30 141 C 14.122 2.61575 -3.33825 0
M  V30 142 N 14.513 2.23933 -4.53528 0
M  V30 143 C 12.811 2.92621 -3.36584 0
M  V30 144 C 13.512 2.26868 -5.35636 0
M  V30 145 N 12.488 2.65677 -4.74254 0
M  V30 146 H 16.29 1.02884 -2.75304 0
M  V30 147 H 13.804 0.473157 -1.55354 0
M  V30 148 H 15.801 3.45685 -2.33039 0
M  V30 149 H 14.461 2.99802 -1.24694 0
M  V30 150 H 15.472 1.95769 -4.79474 0
M  V30 151 H 12.149 3.2824 -2.58002 0
M  V30 152 H 13.539 2.00254 -6.41364 0
M  V30 153 N 16.2591 1.48442 0.529413 0
M  V30 154 C 17.5361 1.46978 1.29062 0
M  V30 155 C 17.9161 0.181769 2.10316 0
M  V30 156 O 17.2641 -0.836481 2.12639 0
M  V30 157 C 17.4741 2.7321 2.17157 0
M  V30 158 C 18.8221 3.21562 2.77278 0
M  V30 159 O 19.8461 2.74131 2.27444 0
M  V30 160 O 18.7051 4.04094 3.67927 0
M  V30 161 H 15.7991 0.587003 0.582543 0
M  V30 162 H 18.3451 1.60676 0.546021 0
M  V30 163 H 17.1171 3.58465 1.56903 0
M  V30 164 H 16.7401 2.62235 2.98862 0
M  V30 165 N 17.7372 -0.778329 1.37039 0
M  V30 166 C 19.1532 -1.07796 1.17695 0
M  V30 167 C 19.3532 -2.01498 0.00860115 0
M  V30 168 O 18.4092 -2.43901 -0.653352 0
M  V30 169 C 19.7222 -1.68178 2.49272 0
M  V30 170 C 21.2702 -1.80467 2.55735 0
M  V30 171 C 21.7452 -2.44263 3.87427 0
M  V30 172 N 23.2362 -2.51721 3.88833 0
M  V30 173 C 23.9712 -3.01919 4.87476 0
M  V30 174 N 23.4672 -3.5234 5.96513 0
M  V30 175 N 25.2602 -3.00733 4.74885 0
M  V30 176 H 17.4112 -0.156032 2.11826 0
M  V30 177 H 19.6742 -0.131844 0.938787 0
M  V30 178 H 19.3802 -1.06796 3.35093 0
M  V30 179 H 19.2542 -2.67554 2.65885 0
M  V30 180 H 21.6412 -2.40984 1.70325 0
M  V30 181 H 21.7222 -0.798656 2.43013 0
M  V30 182 H 21.3662 -1.84388 4.73248 0
M  V30 183 H 21.2962 -3.45458 3.9745 0
M  V30 184 H 23.7872 -2.1603 3.10063 0
M  V30 185 H 24.1002 -3.89027 6.67741 0
M  V30 186 H 22.4452 -3.50462 6.00168 0
M  V30 187 H 25.6362 -2.60638 3.88826 0
M  V30 188 H 25.8092 -3.39545 5.51918 0
M  V30 189 N 19.2153 -1.21501 -1.00376 0
M  V30 190 C 20.6313 -0.972629 -1.26539 0
M  V30 191 C 20.8313 0.340257 -1.98606 0
M  V30 192 O 19.8873 1.06561 -2.28913 0
M  V30 193 C 21.2003 -2.16404 -2.08781 0
M  V30 194 C 22.7483 -2.20643 -2.22004 0
M  V30 195 C 23.2233 -3.39306 -3.07629 0
M  V30 196 N 24.7143 -3.39401 -3.15217 0
M  V30 197 C 25.4493 -4.27867 -3.81729 0
M  V30 198 N 24.9453 -5.26533 -4.5026 0
M  V30 199 N 26.7383 -4.15672 -3.78382 0
M  V30 200 H 18.8893 -2.05929 -0.520281 0
M  V30 201 H 21.1523 -0.901803 -0.292328 0
M  V30 202 H 20.8583 -3.11554 -1.63178 0
M  V30 203 H 20.7323 -2.15567 -3.09533 0
M  V30 204 H 23.1193 -1.26048 -2.66825 0
M  V30 205 H 23.2003 -2.25523 -1.20718 0
M  V30 206 H 22.8443 -4.34195 -2.63509 0
M  V30 207 H 22.7743 -3.31665 -4.09031 0
M  V30 208 H 25.2653 -2.67997 -2.66432 0
M  V30 209 H 25.5783 -5.90337 -4.98721 0
M  V30 210 H 23.9233 -5.30457 -4.49044 0
M  V30 211 H 27.1143 -3.3785 -3.23998 0
M  V30 212 H 27.2873 -4.84825 -4.2994 0
M  V30 213 N 20.6934 1.19889 -1.02296 0
M  V30 214 C 21.9414 1.89046 -0.714558 0
M  V30 215 C 22.2624 1.79636 0.758681 0
M  V30 216 O 21.5324 1.20292 1.54618 0
M  V30 217 H 20.1124 0.699802 -0.261317 0
M  V30 218 H 22.7744 1.45574 -1.29592 0
M  V30 219 H 21.8704 2.95524 -1.0036 0
M  V30 220 N 22.1715 0.800033 1.35784 0
M  V30 221 C 23.4185 0.377342 1.98953 0
M  V30 222 C 23.7465 -1.05378 1.6348 0
M  V30 223 O 23.0015 -1.74459 0.886707 0
M  V30 224 C 23.3005 0.500276 3.53881 0
M  V30 225 C 22.9665 1.89375 4.09204 0
M  V30 226 C 21.6285 2.27499 4.24025 0
M  V30 227 C 23.9805 2.8057 4.39238 0
M  V30 228 C 21.3085 3.562 4.66195 0
M  V30 229 C 23.6605 4.0871 4.82844 0
M  V30 230 C 22.3245 4.46843 4.95871 0
M  V30 231 H 21.5945 0.138079 0.728021 0
M  V30 232 H 24.2415 1.01955 1.62103 0
M  V30 233 H 22.5465 -0.225405 3.91151 0
M  V30 234 H 24.2435 0.154097 4.00704 0
M  V30 235 H 20.8335 1.58753 3.98115 0
M  V30 236 H 25.0175 2.52367 4.27346 0
M  V30 237 H 20.2735 3.85602 4.74469 0
M  V30 238 H 24.4475 4.79481 5.05046 0
M  V30 239 H 22.0745 5.46623 5.28306 0
M  V30 240 N 23.6496 -1.47581 0.552962 0
M  V30 241 C 24.8966 -2.02482 0.0273243 0
M  V30 242 C 25.2246 -1.42776 -1.32081 0
M  V30 243 O 24.4796 -0.571393 -1.87173 0
M  V30 244 C 24.7786 -3.57199 -0.119728 0
M  V30 245 C 24.4446 -4.35804 1.15697 0
M  V30 246 C 23.1066 -4.57 1.50681 0
M  V30 247 C 25.4586 -4.81167 2.00319 0
M  V30 248 C 22.7866 -5.20807 2.70142 0
M  V30 249 C 25.1386 -5.46293 3.18978 0
M  V30 250 C 23.8026 -5.65722 3.54281 0
M  V30 251 H 23.0726 -0.740933 0.00999866 0
M  V30 252 H 25.7196 -1.77302 0.72362 0
M  V30 253 H 24.0246 -3.81348 -0.89896 0
M  V30 254 H 25.7216 -3.97324 -0.541718 0
M  V30 255 H 22.3116 -4.19582 0.874561 0
M  V30 256 H 26.4956 -4.64574 1.74599 0
M  V30 257 H 21.7516 -5.34045 2.97668 0
M  V30 258 H 25.9256 -5.80407 3.84838 0
M  V30 259 H 23.5526 -6.14936 4.46942 0
M  V30 260 N 25.1277 -0.289203 -1.54924 0
M  V30 261 C 26.3557 0.326463 -2.04308 0
M  V30 262 C 26.7707 1.48413 -1.16701 0
M  V30 263 O 26.1277 1.81507 -0.190087 0
M  V30 264 C 26.1787 0.794014 -3.52672 0
M  V30 265 O 25.8997 -0.317564 -4.36948 0
M  V30 266 C 27.4007 1.47605 -4.18004 0
M  V30 267 H 24.6207 0.0726272 -0.667058 0
M  V30 268 H 27.1647 -0.425401 -2.00026 0
M  V30 269 H 25.3197 1.49593 -3.57352 0
M  V30 270 H 25.7337 0.0443186 -5.24481 0
M  V30 271 H 27.2077 1.75447 -5.23376 0
M  V30 272 H 27.6847 2.41224 -3.67025 0
M  V30 273 H 28.2907 0.81762 -4.17367 0
M  V30 274 N 26.6058 1.57591 -0.0167156 0
M  V30 275 C 28.0218 1.55946 0.339557 0
M  V30 276 C 28.2218 1.02109 1.73713 0
M  V30 277 O 27.2778 0.662303 2.43659 0
M  V30 278 C 28.5908 3.00037 0.199499 0
M  V30 279 C 30.1388 3.11805 0.273193 0
M  V30 280 C 30.6138 4.57713 0.162068 0
M  V30 281 N 32.1048 4.6268 0.219444 0
M  V30 282 C 32.8398 5.73185 0.157054 0
M  V30 283 N 32.3358 6.92786 0.0442936 0
M  V30 284 N 34.1288 5.61707 0.21014 0
M  V30 285 H 26.2798 1.90921 -0.930758 0
M  V30 286 H 28.5428 0.877674 -0.358319 0
M  V30 287 H 28.2488 3.4333 -0.76273 0
M  V30 288 H 28.1228 3.64387 0.974786 0
M  V30 289 H 30.5098 2.68433 1.22587 0
M  V30 290 H 30.5908 2.50201 -0.532256 0
M  V30 291 H 30.2348 5.01763 -0.78714 0
M  V30 292 H 30.1648 5.17283 0.986222 0
M  V30 293 H 32.6558 3.76649 0.307246 0
M  V30 294 H 32.9688 7.728 0.00304069 0
M  V30 295 H 31.3138 6.94999 0.00968457 0
M  V30 296 H 34.5048 4.6716 0.296546 0
M  V30 297 H 34.6778 6.47807 0.158054 0
M  V30 298 N 28.0839 -0.256276 1.55502 0
M  V30 299 C 29.3299 -0.982884 1.78076 0
M  V30 300 C 29.6849 -1.83319 0.584109 0
M  V30 301 O 28.9779 -1.86875 -0.422877 0
M  V30 302 C 29.1719 -1.88432 3.03691 0
M  V30 303 C 29.0009 -1.12276 4.35459 0
M  V30 304 C 27.7709 -0.831647 4.98409 0
M  V30 305 C 29.9689 -0.504933 5.11815 0
M  V30 306 N 27.9509 -0.0450423 6.13883 0
M  V30 307 C 29.3219 0.146696 6.19826 0
M  V30 308 C 31.3769 -0.414455 4.96172 0
M  V30 309 C 30.0799 0.880103 7.13895 0
M  V30 310 C 32.1059 0.305398 5.90611 0
M  V30 311 C 31.4679 0.945701 6.98023 0
M  V30 312 H 27.5669 -0.341084 0.703694 0
M  V30 313 H 30.1509 -0.256909 1.92998 0
M  V30 314 H 28.3219 -2.58241 2.90114 0
M  V30 315 H 30.0539 -2.54579 3.14598 0
M  V30 316 H 26.8089 -1.14111 4.59647 0
M  V30 317 H 27.2329 0.336079 6.76165 0
M  V30 318 H 31.8749 -0.895163 4.13215 0
M  V30 319 H 29.5929 1.37244 7.9636 0
M  V30 320 H 33.1789 0.375946 5.80584 0
M  V30 321 H 32.0589 1.49383 7.6984 0
M  V30 322 N 29.562 -1.4872 -0.521534 0
M  V30 323 C 30.809 -1.57168 -1.27689 0
M  V30 324 C 31.137 -0.249275 -1.92896 0
M  V30 325 O 30.392 0.761162 -1.80291 0
M  V30 326 C 30.691 -2.66497 -2.38148 0
M  V30 327 C 30.357 -4.08664 -1.90538 0
M  V30 328 C 29.019 -4.47357 -1.77271 0
M  V30 329 C 31.371 -4.97724 -1.54663 0
M  V30 330 C 28.699 -5.72905 -1.26478 0
M  V30 331 C 31.051 -6.2377 -1.05329 0
M  V30 332 C 29.715 -6.61311 -0.906861 0
M  V30 333 H 28.985 -0.575117 -0.467249 0
M  V30 334 H 31.632 -1.82472 -0.581051 0
M  V30 335 H 29.937 -2.35085 -3.13437 0
M  V30 336 H 31.634 -2.70246 -2.96257 0
M  V30 337 H 28.224 -3.78111 -2.01816 0
M  V30 338 H 32.408 -4.68501 -1.63768 0
M  V30 339 H 27.664 -6.00709 -1.13835 0
M  V30 340 H 31.838 -6.9217 -0.76644 0
M  V30 341 H 29.465 -7.5848 -0.511083 0
M  V30 342 N 31.0401 0.771051 -1.3745 0
M  V30 343 C 31.9731 1.89166 -1.27638 0
M  V30 344 C 32.9511 1.61842 -0.156782 0
M  V30 345 O 34.1351 1.85569 -0.331111 0
M  V30 346 C 31.2621 3.24405 -0.973621 0
M  V30 347 C 30.3081 3.70638 -2.1102 0
M  V30 348 S 31.1411 3.84228 -3.73 0
M  V30 349 C 32.2971 5.22313 -3.44876 0
M  V30 350 H 32.5301 1.972 -2.22485 0
M  V30 351 H 30.0631 0.932224 -1.23081 0
M  V30 352 H 32.0211 4.02514 -0.805766 0
M  V30 353 H 30.6821 3.14071 -0.0426279 0
M  V30 354 H 29.8751 4.68685 -1.85338 0
M  V30 355 H 29.4771 2.99632 -2.23822 0
M  V30 356 H 31.7691 6.07505 -2.99908 0
M  V30 357 H 32.7121 5.53008 -4.42253 0
M  V30 358 H 33.1201 4.90284 -2.79789 0
M  V30 359 N 32.5182 1.22032 0.997298 0
M  V30 360 C 33.7432 1.06921 1.77715 0
M  V30 361 C 34.1682 -0.376226 1.84299 0
M  V30 362 O 33.5262 -1.27165 1.29223 0
M  V30 363 C 33.5742 1.67996 3.19076 0
M  V30 364 O 32.6782 0.930653 4.01762 0
M  V30 365 H 32.0192 0.375814 0.547412 0
M  V30 366 H 34.5492 1.61737 1.25309 0
M  V30 367 H 34.5592 1.72538 3.69723 0
M  V30 368 H 33.2342 2.73182 3.13599 0
M  V30 369 H 31.8112 0.960917 3.60307 0
M  V30 370 N 33.9963 -1.19345 1.0293 0
M  V30 371 C 35.2243 -1.92997 0.745644 0
M  V30 372 C 35.6393 -1.75519 -0.695589 0
M  V30 373 O 34.9963 -1.07737 -1.47306 0
M  V30 374 C 35.0473 -3.44741 1.08792 0
M  V30 375 O 34.7683 -3.61658 2.47256 0
M  V30 376 C 36.2693 -4.35515 0.827129 0
M  V30 377 H 33.4893 -0.613042 0.272801 0
M  V30 378 H 36.0333 -1.51473 1.3739 0
M  V30 379 H 34.1883 -3.84097 0.504832 0
M  V30 380 H 34.6023 -4.55514 2.60015 0
M  V30 381 H 36.0763 -5.40589 1.11658 0
M  V30 382 H 36.5533 -4.38552 -0.238436 0
M  V30 383 H 37.1593 -4.01841 1.39297 0
M  V30 384 N 35.4744 -0.807222 -1.35358 0
M  V30 385 C 36.4224 -0.20614 -2.31685 0
M  V30 386 C 37.4164 0.644445 -1.56663 0
M  V30 387 O 38.6224 0.537538 -1.71786 0
M  V30 388 H 34.9974 -0.0479006 -0.750473 0
M  V30 389 H 36.9684 -1.03369 -2.79924 0
M  V30 390 C 35.7174 0.630212 -3.41941 0
M  V30 391 H 35.0404 -0.0149558 -3.99797 0
M  V30 392 H 36.4804 1.01716 -4.11619 0
M  V30 393 C 34.9394 1.79601 -2.85035 0
M  V30 394 O 35.4694 2.89351 -2.78637 0
M  V30 395 N 33.6754 1.60774 -2.42074 0
M  V30 396 H 33.2224 0.715009 -2.47478 0
M  V30 397 H 33.1804 2.38933 -2.04349 0
M  V30 398 N 36.9525 1.47285 -0.560781 0
M  V30 399 C 37.9025 2.27073 0.205384 0
M  V30 400 C 38.8865 1.34569 0.882044 0
M  V30 401 O 40.0785 1.58899 0.77976 0
M  V30 402 C 37.2075 3.20414 1.23247 0
M  V30 403 C 36.2935 4.20399 0.559041 0
M  V30 404 N 36.6845 5.04423 -0.372927 0
M  V30 405 C 34.9825 4.38536 0.812522 0
M  V30 406 C 35.6835 5.76655 -0.764446 0
M  V30 407 N 34.6595 5.43471 -0.11848 0
M  V30 408 H 38.4615 2.89422 -0.511117 0
M  V30 409 H 35.9755 1.57868 -0.380975 0
M  V30 410 H 37.9725 3.76262 1.79534 0
M  V30 411 H 36.6325 2.59623 1.95002 0
M  V30 412 H 37.6435 5.1248 -0.747287 0
M  V30 413 H 34.3205 3.88913 1.51832 0
M  V30 414 H 35.7105 6.54238 -1.53045 0
M  V30 415 N 38.4306 0.297415 1.54768 0
M  V30 416 C 39.3776 -0.580276 2.23386 0
M  V30 417 C 40.3476 -1.13238 1.21517 0
M  V30 418 O 41.5326 -1.17757 1.50126 0
M  V30 419 C 38.6726 -1.74801 2.97555 0
M  V30 420 C 37.7856 -1.22764 4.1419 0
M  V30 421 C 36.9206 -2.35895 4.75949 0
M  V30 422 C 35.9596 -1.80974 5.84735 0
M  V30 423 N 35.0966 -2.87664 6.40464 0
M  V30 424 H 39.9366 0.0114833 2.97998 0
M  V30 425 H 37.4736 0.0174361 1.4709 0
M  V30 426 H 39.4316 -2.43475 3.38786 0
M  V30 427 H 38.0616 -2.31145 2.25326 0
M  V30 428 H 37.1136 -0.433271 3.77924 0
M  V30 429 H 38.4256 -0.785551 4.92575 0
M  V30 430 H 37.5796 -3.12523 5.20014 0
M  V30 431 H 36.3186 -2.83429 3.96887 0
M  V30 432 H 35.3236 -1.02834 5.40097 0
M  V30 433 H 36.5486 -1.34348 6.65678 0
M  V30 434 H 34.4946 -3.34538 5.64287 0
M  V30 435 H 34.4116 -2.4794 7.14186 0
M  V30 436 H 35.6796 -3.642 6.89187 0
M  V30 437 N 39.9087 -1.5758 0.0250728 0
M  V30 438 C 41.1857 -1.82917 -0.692873 0
M  V30 439 C 41.5657 -0.908137 -1.90568 0
M  V30 440 O 40.9137 0.0372298 -2.2847 0
M  V30 441 C 41.1237 -3.32034 -1.07492 0
M  V30 442 C 42.4717 -3.98406 -1.46826 0
M  V30 443 O 43.4957 -3.36505 -1.16801 0
M  V30 444 O 42.3547 -5.07497 -2.02754 0
M  V30 445 H 39.4487 -0.754079 -0.33955 0
M  V30 446 H 41.9947 -1.69619 0.0524456 0
M  V30 447 H 40.7667 -3.90728 -0.211552 0
M  V30 448 H 40.3897 -3.50424 -1.87854 0
M  V30 449 N 41.3868 0.248026 -1.55636 0
M  V30 450 C 42.6358 0.974134 -1.76617 0
M  V30 451 C 42.9488 1.86528 -0.588796 0
M  V30 452 O 44.1548 2.62805 -0.681594 0
M  V30 453 C 42.6108 1.78213 -3.12679 0
M  V30 454 C 42.2188 0.93843 -4.38061 0
M  V30 455 C 43.9628 2.50104 -3.42999 0
M  V30 456 C 41.8698 1.74225 -5.65155 0
M  V30 457 H 40.7998 0.36745 -0.658405 0
M  V30 458 H 43.4508 0.22884 -1.82067 0
M  V30 459 H 41.8328 2.56933 -3.01333 0
M  V30 460 H 43.0068 0.193635 -4.60393 0
M  V30 461 H 41.3218 0.332905 -4.15067 0
M  V30 462 H 43.9188 3.10694 -4.3517 0
M  V30 463 H 44.2618 3.21662 -2.64271 0
M  V30 464 H 44.7948 1.78395 -3.55556 0
M  V30 465 H 41.5338 1.07043 -6.46701 0
M  V30 466 H 41.0538 2.46235 -5.46926 0
M  V30 467 H 42.7328 2.30967 -6.0437 0
M  V30 468 N 42.8649 1.48995 0.513639 0
M  V30 469 C 44.1129 1.57531 1.26604 0
M  V30 470 C 44.4339 0.258236 1.93283 0
M  V30 471 O 43.7039 -0.721502 1.8213 0
M  V30 472 H 42.2839 0.580387 0.470276 0
M  V30 473 H 44.9459 1.85552 0.596373 0
M  V30 474 H 44.0419 2.36486 2.03669 0
M  V30 475 N 44.343 -0.763751 1.37857 0
M  V30 476 C 45.589 -1.52483 1.33704 0
M  V30 477 C 45.922 -1.94051 -0.0759612 0
M  V30 478 O 45.197 -1.64675 -1.03501 0
M  V30 479 C 45.48 -2.78441 2.28348 0
M  V30 480 C 45.333 -2.43075 3.78463 0
M  V30 481 C 46.652 -3.80415 2.21298 0
M  V30 482 H 43.771 -0.553169 0.487005 0
M  V30 483 H 46.413 -0.875562 1.68624 0
M  V30 484 H 44.563 -3.33842 1.987 0
M  V30 485 H 46.235 -1.93527 4.18742 0
M  V30 486 H 44.478 -1.75666 3.96641 0
M  V30 487 H 45.149 -3.33149 4.40132 0
M  V30 488 H 47.625 -3.34527 2.47449 0
M  V30 489 H 46.501 -4.66257 2.89647 0
M  V30 490 H 46.762 -4.25262 1.20849 0
M  V30 491 N 45.8211 -1.22559 -0.990812 0
M  V30 492 C 46.7511 -1.0218 -2.09956 0
M  V30 493 C 47.7321 0.0579394 -1.70001 0
M  V30 494 O 48.9171 -0.104684 -1.93918 0
M  V30 495 C 46.0471 -0.601023 -3.4206 0
M  V30 496 C 45.0011 -1.62694 -3.95872 0
M  V30 497 C 44.3271 -1.06193 -5.24049 0
M  V30 498 C 45.6271 -3.01743 -4.2632 0
M  V30 499 H 47.3211 -1.94916 -2.27262 0
M  V30 500 H 44.8671 -0.938566 -1.09211 0
M  V30 501 H 46.8201 -0.445561 -4.19038 0
M  V30 502 H 45.5441 0.362005 -3.24588 0
M  V30 503 H 44.2031 -1.77021 -3.21028 0
M  V30 504 H 43.8511 -0.0901903 -5.02919 0
M  V30 505 H 43.5511 -1.74732 -5.61019 0
M  V30 506 H 45.0751 -0.918092 -6.03658 0
M  V30 507 H 46.4891 -2.90777 -4.94087 0
M  V30 508 H 44.8861 -3.67425 -4.74467 0
M  V30 509 H 45.9561 -3.51518 -3.34011 0
M  V30 510 N 47.2992 1.18797 -1.03562 0
M  V30 511 C 48.5292 1.92319 -0.754773 0
M  V30 512 C 48.9372 1.7612 0.691248 0
M  V30 513 O 48.2802 1.08491 1.48241 0
M  V30 514 C 48.3422 3.44284 -1.03484 0
M  V30 515 C 48.0062 3.84258 -2.47376 0
M  V30 516 C 49.0032 3.88459 -3.45537 0
M  V30 517 C 46.6882 4.15701 -2.81954 0
M  V30 518 C 48.6822 4.23545 -4.76328 0
M  V30 519 C 46.3692 4.50458 -4.12954 0
M  V30 520 C 47.3672 4.54356 -5.09951 0
M  V30 521 O 47.0552 4.88305 -6.38603 0
M  V30 522 H 46.7872 0.617527 -0.275021 0
M  V30 523 H 49.3412 1.51683 -1.38497 0
M  V30 524 H 47.5712 3.85135 -0.347513 0
M  V30 525 H 49.2602 3.99049 -0.7426 0
M  V30 526 H 50.0262 3.6431 -3.20162 0
M  V30 527 H 45.9052 4.11847 -2.0713 0
M  V30 528 H 49.4492 4.26502 -5.52035 0
M  V30 529 H 45.3462 4.74067 -4.38099 0
M  V30 530 H 46.1142 5.06227 -6.43177 0
M  V30 531 N 48.7773 0.814389 1.34928 0
M  V30 532 C 49.7073 0.244827 2.32213 0
M  V30 533 C 50.6883 -0.634024 1.57842 0
M  V30 534 O 51.8733 -0.562676 1.8587 0
M  V30 535 C 49.0033 -0.601106 3.42058 0
M  V30 536 C 47.9573 0.179896 4.27622 0
M  V30 537 C 47.2833 -0.788237 5.28858 0
M  V30 538 C 48.5833 1.38329 5.03649 0
M  V30 539 H 50.2773 1.05763 2.80097 0
M  V30 540 H 47.8233 0.510029 1.34665 0
M  V30 541 H 49.7763 -1.00968 4.09125 0
M  V30 542 H 48.5003 -1.44688 2.92802 0
M  V30 543 H 47.1593 0.569739 3.62146 0
M  V30 544 H 46.8073 -1.62973 4.75866 0
M  V30 545 H 46.5073 -0.269942 5.8698 0
M  V30 546 H 48.0313 -1.19485 5.98795 0
M  V30 547 H 49.4453 1.04918 5.63618 0
M  V30 548 H 47.8423 1.83662 5.71304 0
M  V30 549 H 48.9123 2.16592 4.33839 0
M  V30 550 N 50.2554 -1.46986 0.568584 0
M  V30 551 C 51.5024 -2.02441 0.0487986 0
M  V30 552 C 51.8304 -1.44169 -1.30559 0
M  V30 553 O 51.0854 -0.591213 -1.86556 0
M  V30 554 C 51.3844 -3.57306 -0.081836 0
M  V30 555 C 51.0504 -4.34552 1.20313 0
M  V30 556 C 49.7124 -4.55376 1.5552 0
M  V30 557 C 52.0644 -4.79016 2.05411 0
M  V30 558 C 49.3924 -5.17913 2.7565 0
M  V30 559 C 51.7444 -5.42879 3.24754 0
M  V30 560 C 50.4084 -5.61933 3.60261 0
M  V30 561 H 49.6784 -0.740785 0.0178567 0
M  V30 562 H 52.3254 -1.76525 0.742384 0
M  V30 563 H 50.6304 -3.8228 -0.858463 0
M  V30 564 H 52.3274 -3.97876 -0.499546 0
M  V30 565 H 48.9174 -4.18631 0.919014 0
M  V30 566 H 53.1014 -4.62696 1.79516 0
M  V30 567 H 48.3574 -5.30858 3.03315 0
M  V30 568 H 52.5314 -5.76293 3.90973 0
M  V30 569 H 50.1584 -6.10161 4.53439 0
M  V30 570 N 51.7335 -0.305618 -1.54608 0
M  V30 571 C 52.9615 0.304775 -2.04643 0
M  V30 572 C 53.3765 1.47167 -1.18268 0
M  V30 573 O 52.7335 1.81296 -0.209328 0
M  V30 574 C 52.7845 0.756564 -3.53495 0
M  V30 575 O 52.5055 -0.36389 -4.36586 0
M  V30 576 C 54.0065 1.43163 -4.19546 0
M  V30 577 H 51.2265 0.0655481 -0.667791 0
M  V30 578 H 53.7705 -0.446592 -1.99564 0
M  V30 579 H 51.9255 1.45794 -3.58919 0
M  V30 580 H 52.3395 -0.0113121 -5.24499 0
M  V30 581 H 53.8135 1.69886 -5.25207 0
M  V30 582 H 54.2905 2.37318 -3.69563 0
M  V30 583 H 54.8965 0.773307 -4.18211 0
M  V30 584 N 53.2116 1.57565 -0.0334293 0
M  V30 585 C 54.4596 1.91598 0.642999 0
M  V30 586 C 54.7806 0.910847 1.7242 0
M  V30 587 O 54.0506 -0.0469931 1.95844 0
M  V30 588 H 52.6306 0.707228 0.240496 0
M  V30 589 H 55.2926 1.94726 -0.0822488 0
M  V30 590 H 54.3886 2.92336 1.09298 0
M  V30 591 N 54.6897 -0.239769 1.55765 0
M  V30 592 C 55.9377 -0.964892 1.77579 0
M  V30 593 C 56.2587 -1.85582 0.598699 0
M  V30 594 O 55.5287 -1.92075 -0.385226 0
M  V30 595 H 54.1087 -0.359265 0.654933 0
M  V30 596 H 56.7707 -0.256001 1.93211 0
M  V30 597 H 55.8667 -1.58243 2.69009 0
M  V30 598 N 56.1678 -1.49265 -0.50573 0
M  V30 599 C 57.0978 -1.68495 -1.61653 0
M  V30 600 C 58.0788 -0.53366 -1.61512 0
M  V30 601 O 59.2638 -0.76897 -1.78327 0
M  V30 602 C 56.3938 -1.74709 -3.00157 0
M  V30 603 C 55.3478 -2.89581 -3.15162 0
M  V30 604 C 54.6738 -2.80903 -4.5497 0
M  V30 605 C 55.9738 -4.30578 -2.95634 0
M  V30 606 H 57.6678 -2.61493 -1.45814 0
M  V30 607 H 55.2138 -1.25838 -0.70005 0
M  V30 608 H 57.1668 -1.86748 -3.77761 0
M  V30 609 H 55.8908 -0.783067 -3.17074 0
M  V30 610 H 54.5498 -2.77136 -2.39982 0
M  V30 611 H 54.1978 -1.82419 -4.68756 0
M  V30 612 H 53.8978 -3.57999 -4.65951 0
M  V30 613 H 55.4218 -2.94944 -5.34641 0
M  V30 614 H 56.8358 -4.4373 -3.63011 0
M  V30 615 H 55.2328 -5.0886 -3.18091 0
M  V30 616 H 56.3028 -4.45352 -1.91806 0
M  V30 617 N 57.6459 0.756429 -1.3826 0
M  V30 618 C 58.8919 1.51772 -1.34511 0
M  V30 619 C 59.2249 1.94089 0.0656691 0
M  V30 620 O 58.4999 1.65221 1.02626 0
M  V30 621 C 58.7829 2.77226 -2.29821 0
M  V30 622 C 58.6359 2.41065 -3.79747 0
M  V30 623 C 59.9549 3.79236 -2.23312 0
M  V30 624 H 57.0739 0.550578 -0.489931 0
M  V30 625 H 59.7159 0.866607 -1.69086 0
M  V30 626 H 57.8659 3.32784 -2.00467 0
M  V30 627 H 59.5379 1.91303 -4.19763 0
M  V30 628 H 57.7809 1.7356 -3.97567 0
M  V30 629 H 58.4519 3.3081 -4.41892 0
M  V30 630 H 60.9279 3.3321 -2.49219 0
M  V30 631 H 59.8039 4.64714 -2.92116 0
M  V30 632 H 60.0649 4.24615 -1.23102 0
M  V30 633 N 59.124 1.23083 0.984299 0
M  V30 634 C 60.372 1.05848 1.72165 0
M  V30 635 C 60.693 -0.406049 1.90726 0
M  V30 636 O 59.963 -1.29139 1.47309 0
M  V30 637 H 58.543 0.388685 0.637913 0
M  V30 638 H 61.205 1.54736 1.18503 0
M  V30 639 H 60.301 1.54327 2.71274 0
M  V30 640 N 60.6021 -1.18246 1.0419 0
M  V30 641 C 61.5321 -2.24127 0.654914 0
M  V30 642 C 62.5131 -1.66617 -0.342451 0
M  V30 643 O 63.6981 -1.92924 -0.222277 0
M  V30 644 C 60.8281 -3.47295 0.0183757 0
M  V30 645 C 59.7821 -4.17563 0.939414 0
M  V30 646 C 59.1081 -5.34438 0.167286 0
M  V30 647 C 60.4081 -4.70917 2.25908 0
M  V30 648 H 62.1021 -2.56753 1.54007 0
M  V30 649 H 59.6481 -1.23414 0.74195 0
M  V30 650 H 61.6011 -4.20572 -0.264082 0
M  V30 651 H 60.3251 -3.13907 -0.901664 0
M  V30 652 H 58.9841 -3.46186 1.20628 0
M  V30 653 H 58.6321 -4.97298 -0.7552 0
M  V30 654 H 58.3321 -5.82388 0.780901 0
M  V30 655 H 59.8561 -6.10504 -0.108125 0
M  V30 656 H 61.2701 -5.35882 2.03724 0
M  V30 657 H 59.6671 -5.29406 2.82577 0
M  V30 658 H 60.7371 -3.88272 2.9047 0
M  V30 659 N 62.0802 -0.821533 -1.34494 0
M  V30 660 C 63.3292 -0.405355 -1.97585 0
M  V30 661 C 63.6422 1.03677 -1.65863 0
M  V30 662 O 64.8482 1.55679 -2.22433 0
M  V30 663 C 63.3042 -0.673861 -3.53535 0
M  V30 664 C 62.9122 -2.12951 -3.94152 0
M  V30 665 C 64.6562 -0.32378 -4.23263 0
M  V30 666 C 62.5632 -2.34298 -5.43009 0
M  V30 667 H 61.4932 -0.147836 -0.739365 0
M  V30 668 H 64.1442 -1.00769 -1.53355 0
M  V30 669 H 62.5262 -0.00137554 -3.96 0
M  V30 670 H 63.7002 -2.84104 -3.62797 0
M  V30 671 H 62.0152 -2.44089 -3.37356 0
M  V30 672 H 64.6122 -0.461126 -5.32708 0
M  V30 673 H 64.9552 0.731586 -4.09821 0
M  V30 674 H 65.4882 -0.950786 -3.8627 0
M  V30 675 H 62.2272 -3.38335 -5.61435 0
M  V30 676 H 61.7472 -1.67687 -5.75883 0
M  V30 677 H 63.4262 -2.16588 -6.09671 0
M  V30 678 N 63.5583 1.46682 -0.576371 0
M  V30 679 C 64.7833 2.07304 -0.0630475 0
M  V30 680 C 65.2083 1.42329 1.2298 0
M  V30 681 O 64.5663 0.504865 1.74129 0
M  V30 682 C 64.6143 3.60472 0.095895 0
M  V30 683 O 63.7183 3.95927 1.15394 0
M  V30 684 H 63.0593 0.661288 -0.0599463 0
M  V30 685 H 65.5893 1.88417 -0.797511 0
M  V30 686 H 65.5993 4.06865 0.304071 0
M  V30 687 H 64.2743 4.07157 -0.84828 0
M  V30 688 H 62.8513 3.61252 0.924724 0
M  V30 689 N 65.0364 0.313813 1.54444 0
M  V30 690 C 66.2824 -0.292108 2.00685 0
M  V30 691 C 66.6154 -1.52548 1.20177 0
M  V30 692 O 65.8904 -1.92452 0.281531 0
M  V30 693 C 66.1734 -0.635968 3.5444 0
M  V30 694 C 66.0264 0.607437 4.4568 0
M  V30 695 C 67.3454 -1.45747 4.15266 0
M  V30 696 H 64.4644 -0.104697 0.729526 0
M  V30 697 H 67.1064 0.428457 1.85106 0
M  V30 698 H 65.2564 -1.24986 3.67846 0
M  V30 699 H 66.9284 1.24581 4.44159 0
M  V30 700 H 65.1714 1.23822 4.15753 0
M  V30 701 H 65.8424 0.322515 5.51057 0
M  V30 702 H 68.3184 -0.938645 4.05375 0
M  V30 703 H 67.1944 -1.66683 5.2298 0
M  V30 704 H 67.4554 -2.45063 3.67963 0
M  V30 705 N 66.5145 -1.57545 0.0417849 0
M  V30 706 C 67.4775 -2.09885 -0.92093 0
M  V30 707 C 68.4775 -1.01648 -1.24596 0
M  V30 708 O 69.6675 -1.27759 -1.1842 0
M  V30 709 C 66.7995 -2.57527 -2.23367 0
M  V30 710 H 67.9925 -2.96236 -0.467382 0
M  V30 711 H 65.5455 -1.5493 -0.206467 0
M  V30 712 H 66.2805 -1.74542 -2.73323 0
M  V30 713 H 66.0655 -3.36613 -2.01083 0
M  V30 714 H 67.5555 -2.98201 -2.92346 0
M  V30 715 N 67.9926 0.231505 -1.5589 0
M  V30 716 C 69.2396 0.957352 -1.78441 0
M  V30 717 C 69.5676 1.84726 -0.60882 0
M  V30 718 O 68.8226 1.91416 0.40725 0
M  V30 719 C 69.1216 1.83577 -3.0665 0
M  V30 720 C 68.7876 1.09993 -4.37278 0
M  V30 721 C 67.4496 0.896629 -4.72773 0
M  V30 722 C 69.8016 0.579558 -5.17968 0
M  V30 723 C 67.1296 0.160896 -5.86479 0
M  V30 724 C 69.4816 -0.142783 -6.32439 0
M  V30 725 C 68.1456 -0.357427 -6.66542 0
M  V30 726 H 67.4156 0.35032 -0.65296 0
M  V30 727 H 70.0626 0.226259 -1.90159 0
M  V30 728 H 68.3676 2.63441 -2.90011 0
M  V30 729 H 70.0646 2.39934 -3.21298 0
M  V30 730 H 66.6546 1.26835 -4.09403 0
M  V30 731 H 70.8386 0.724125 -4.90989 0
M  V30 732 H 66.0946 -0.0157293 -6.11398 0
M  V30 733 H 70.2686 -0.553559 -6.94196 0
M  V30 734 H 67.8956 -0.929466 -7.54497 0
M  V30 735 N 69.4707 1.49531 0.497807 0
M  V30 736 C 70.6987 1.62893 1.27567 0
M  V30 737 C 71.1137 0.301585 1.86376 0
M  V30 738 O 70.4707 -0.713335 1.67982 0
M  V30 739 C 70.5217 2.70013 2.40364 0
M  V30 740 O 70.2427 3.976 1.83972 0
M  V30 741 C 71.7437 2.94109 3.31685 0
M  V30 742 H 68.9637 0.548298 0.386794 0
M  V30 743 H 71.5077 1.95584 0.597245 0
M  V30 744 H 69.6627 2.40092 3.04031 0
M  V30 745 H 70.0767 4.56631 2.58047 0
M  V30 746 H 71.5507 3.72788 4.07104 0
M  V30 747 H 72.0277 2.04147 3.88871 0
M  V30 748 H 72.6337 3.2546 2.73781 0
M  V30 749 N 70.9488 -0.749086 1.3866 0
M  V30 750 C 72.1948 -1.51056 1.35314 0
M  V30 751 C 72.5278 -1.94121 -0.0553751 0
M  V30 752 O 71.8028 -1.65763 -1.01749 0
M  V30 753 C 72.0858 -2.76003 2.31288 0
M  V30 754 C 71.9388 -2.39047 3.8102 0
M  V30 755 C 73.2578 -3.78046 2.2532 0
M  V30 756 H 70.3768 -0.547972 0.492844 0
M  V30 757 H 73.0188 -0.857628 1.69543 0
M  V30 758 H 71.1688 -3.31716 2.02229 0
M  V30 759 H 72.8408 -1.89074 4.20771 0
M  V30 760 H 71.0838 -1.71449 3.98482 0
M  V30 761 H 71.7548 -3.28462 4.4364 0
M  V30 762 H 74.2308 -3.31884 2.50983 0
M  V30 763 H 73.1068 -4.63159 2.94576 0
M  V30 764 H 73.3678 -4.23957 1.25352 0
M  V30 765 N 72.4269 -1.23603 -0.977757 0
M  V30 766 C 73.6569 -1.09487 -1.75203 0
M  V30 767 C 74.0649 0.356321 -1.85814 0
M  V30 768 O 73.4079 1.25816 -1.33851 0
M  V30 769 C 73.4699 -1.64905 -3.19447 0
M  V30 770 C 73.1339 -3.13688 -3.32338 0
M  V30 771 C 74.1309 -4.10953 -3.18455 0
M  V30 772 C 71.8159 -3.53449 -3.56902 0
M  V30 773 C 73.8099 -5.45962 -3.28944 0
M  V30 774 C 71.4969 -4.88602 -3.6703 0
M  V30 775 C 72.4949 -5.84668 -3.53062 0
M  V30 776 O 72.1829 -7.17365 -3.62826 0
M  V30 777 H 71.9149 -0.38367 -0.556573 0
M  V30 778 H 74.4689 -1.6398 -1.23693 0
M  V30 779 H 72.6989 -1.04835 -3.72218 0
M  V30 780 H 74.3879 -1.46226 -3.78646 0
M  V30 781 H 75.1539 -3.81577 -2.99372 0
M  V30 782 H 71.0329 -2.79188 -3.66844 0
M  V30 783 H 74.5769 -6.20925 -3.17958 0
M  V30 784 H 70.4739 -5.17653 -3.85623 0
M  V30 785 H 71.2419 -7.2515 -3.79605 0
M  V30 786 N 73.905 1.17692 -1.04816 0
M  V30 787 C 74.838 2.20436 -0.590173 0
M  V30 788 C 75.816 1.58115 0.379244 0
M  V30 789 O 77 1.86228 0.291762 0
M  V30 790 C 74.127 3.38424 0.136817 0
M  V30 791 C 73.173 4.19176 -0.787023 0
M  V30 792 S 74.006 4.84815 -2.27409 0
M  V30 793 C 75.162 6.06195 -1.55817 0
M  V30 794 H 75.395 2.58944 -1.46067 0
M  V30 795 H 72.928 1.28246 -0.859784 0
M  V30 796 H 74.886 4.06798 0.550076 0
M  V30 797 H 73.547 2.98312 0.983299 0
M  V30 798 H 72.74 5.03499 -0.224681 0
M  V30 799 H 72.342 3.56219 -1.13947 0
M  V30 800 H 74.634 6.72078 -0.855387 0
M  V30 801 H 75.577 6.6695 -2.37873 0
M  V30 802 H 75.985 5.54701 -1.04722 0
M  V30 803 N 75.3831 0.828654 1.34056 0
M  V30 804 C 76.7991 0.515135 1.51058 0
M  V30 805 C 76.9991 -0.959581 1.77184 0
M  V30 806 O 76.0551 -1.74382 1.82612 0
M  V30 807 C 77.3681 1.37963 2.67183 0
M  V30 808 C 78.9161 1.37735 2.81066 0
M  V30 809 C 79.3911 2.22645 4.00241 0
M  V30 810 N 80.8821 2.203 4.07458 0
M  V30 811 C 81.6171 2.82744 4.98842 0
M  V30 812 N 81.1131 3.54201 5.9541 0
M  V30 813 N 82.9061 2.72268 4.91759 0
M  V30 814 H 75.0571 1.78343 1.15358 0
M  V30 815 H 77.3201 0.760304 0.566252 0
M  V30 816 H 77.0261 2.42714 2.54525 0
M  V30 817 H 76.9001 1.0484 3.62338 0
M  V30 818 H 79.2871 0.337593 2.93163 0
M  V30 819 H 79.3681 1.74859 1.86703 0
M  V30 820 H 79.0121 3.26674 3.88905 0
M  V30 821 H 78.9421 1.82869 4.93829 0
M  V30 822 H 81.4331 1.68327 3.38341 0
M  V30 823 H 81.7461 3.9908 6.61782 0
M  V30 824 H 80.0911 3.58308 5.95517 0
M  V30 825 H 83.2821 2.16014 4.15278 0
M  V30 826 H 83.4551 3.21219 5.62781 0
M  V30 827 N 76.8612 -1.46375 0.584142 0
M  V30 828 C 77.7942 -2.27351 -0.196676 0
M  V30 829 C 78.7722 -1.35715 -0.895561 0
M  V30 830 O 79.9562 -1.65126 -0.90916 0
M  V30 831 C 77.0832 -3.13486 -1.28235 0
M  V30 832 C 76.1292 -4.20896 -0.689145 0
M  V30 833 S 76.9622 -5.33299 0.48507 0
M  V30 834 C 78.1182 -6.23 -0.601767 0
M  V30 835 H 78.3512 -2.93228 0.490395 0
M  V30 836 H 75.8842 -1.49875 0.371071 0
M  V30 837 H 77.8422 -3.63676 -1.90395 0
M  V30 838 H 76.5032 -2.4692 -1.94138 0
M  V30 839 H 75.6962 -4.80997 -1.50527 0
M  V30 840 H 75.2982 -3.73726 -0.143181 0
M  V30 841 H 77.5902 -6.60979 -1.48705 0
M  V30 842 H 78.5332 -7.0809 -0.0374799 0
M  V30 843 H 78.9412 -5.57173 -0.906557 0
M  V30 844 N 78.3393 -0.321999 -1.54275 0
M  V30 845 C 79.2493 0.553631 -2.27974 0
M  V30 846 C 80.2653 1.13054 -1.32268 0
M  V30 847 O 81.4413 1.15084 -1.6528 0
M  V30 848 C 78.5063 1.69927 -3.02201 0
M  V30 849 C 77.5673 1.15433 -4.1349 0
M  V30 850 C 76.8003 2.24537 -4.84168 0
M  V30 851 O 77.0233 3.44852 -4.5435 0
M  V30 852 O 75.9573 1.90044 -5.7111 0
M  V30 853 H 79.7833 -0.0448345 -3.03667 0
M  V30 854 H 77.3683 -0.0877418 -1.49142 0
M  V30 855 H 79.2503 2.3663 -3.48689 0
M  V30 856 H 77.9253 2.28395 -2.29385 0
M  V30 857 H 76.8323 0.452436 -3.71354 0
M  V30 858 H 78.1653 0.614805 -4.88345 0
M  V30 859 N 79.8174 1.5752 -0.0501392 0
M  V30 860 C 80.7474 2.14502 0.922566 0
M  V30 861 C 81.7284 1.06642 1.3252 0
M  V30 862 O 82.9134 1.34577 1.4001 0
M  V30 863 C 80.0434 2.68916 2.19776 0
M  V30 864 C 78.9974 3.8175 1.93523 0
M  V30 865 C 78.3234 4.22677 3.27487 0
M  V30 866 C 79.6234 5.06932 1.25765 0
M  V30 867 H 81.3174 2.9603 0.447952 0
M  V30 868 H 78.8634 1.42401 0.214024 0
M  V30 869 H 80.8164 3.07419 2.88222 0
M  V30 870 H 79.5404 1.84578 2.69441 0
M  V30 871 H 78.1994 3.43718 1.27489 0
M  V30 872 H 77.8474 3.35291 3.74952 0
M  V30 873 H 77.5474 4.98725 3.1072 0
M  V30 874 H 79.0714 4.63779 3.97166 0
M  V30 875 H 80.4854 5.42888 1.84244 0
M  V30 876 H 78.8824 5.88116 1.19328 0
M  V30 877 H 79.9524 4.84337 0.233536 0
M  V30 878 N 81.2955 -0.223234 1.56011 0
M  V30 879 C 82.2285 -1.30377 1.87289 0
M  V30 880 C 83.2065 -1.45286 0.730112 0
M  V30 881 O 84.3905 -1.61126 0.978302 0
M  V30 882 C 81.5175 -2.67431 2.07843 0
M  V30 883 C 80.5635 -2.69546 3.30526 0
M  V30 884 S 81.3965 -2.23781 4.865 0
M  V30 885 C 82.5525 -3.62714 5.10088 0
M  V30 886 H 82.7855 -1.03652 2.78646 0
M  V30 887 H 80.3185 -0.425393 1.48424 0
M  V30 888 H 82.2765 -3.46336 2.20368 0
M  V30 889 H 80.9375 -2.91381 1.17285 0
M  V30 890 H 80.1305 -3.70255 3.41947 0
M  V30 891 H 79.7325 -1.98703 3.16849 0
M  V30 892 H 82.0245 -4.58391 4.98883 0
M  V30 893 H 82.9675 -3.5621 6.11981 0
M  V30 894 H 83.3755 -3.56323 4.37829 0
M  V30 895 N 82.7736 -1.49793 -0.48987 0
M  V30 896 C 83.7366 -1.66752 -1.57246 0
M  V30 897 C 84.7366 -0.538867 -1.51502 0
M  V30 898 O 85.9266 -0.805545 -1.54456 0
M  V30 899 C 83.0586 -1.67528 -2.96896 0
M  V30 900 H 84.2516 -2.63321 -1.43534 0
M  V30 901 H 81.8046 -1.38992 -0.714914 0
M  V30 902 H 82.5396 -0.725837 -3.16073 0
M  V30 903 H 82.3246 -2.49504 -3.02473 0
M  V30 904 H 83.8146 -1.82667 -3.7553 0
M  V30 905 N 84.2517 0.741722 -1.39055 0
M  V30 906 C 85.6627 1.31966 -1.32068 0
M  V30 907 C 86.0137 1.96192 0.0180797 0
M  V30 908 O 85.1387 1.95861 0.920196 0
M  V30 909 C 85.7337 2.39954 -2.39181 0
M  V30 910 C 84.2927 2.93438 -2.35735 0
M  V30 911 C 83.4397 1.66936 -2.21422 0
M  V30 912 H 86.3907 0.539721 -1.4924 0
M  V30 913 H 86.4117 3.20182 -2.05581 0
M  V30 914 H 85.9237 1.9318 -3.36605 0
M  V30 915 H 84.0247 3.4451 -1.41929 0
M  V30 916 H 84.1377 3.4701 -3.30335 0
M  V30 917 H 82.5017 1.91016 -1.68478 0
M  V30 918 H 83.2847 1.22224 -3.20806 0
M  V30 919 N 85.7298 1.2412 0.971189 0
M  V30 920 C 86.9778 1.07668 1.71032 0
M  V30 921 C 87.2988 -0.385797 1.91146 0
M  V30 922 O 86.5688 -1.27569 1.4867 0
M  V30 923 H 85.1488 0.395429 0.633755 0
M  V30 924 H 87.8108 1.55984 1.16855 0
M  V30 925 H 86.9068 1.57195 2.69622 0
M  V30 926 N 87.2079 -1.17134 1.05439 0
M  V30 927 C 88.4539 -1.87733 0.767077 0
M  V30 928 C 88.7869 -1.8098 -0.704253 0
M  V30 929 O 88.0619 -1.21951 -1.5152 0
M  V30 930 C 88.3449 -3.37659 1.25133 0
M  V30 931 C 88.1979 -3.53149 2.78578 0
M  V30 932 C 89.5169 -4.31768 0.852324 0
M  V30 933 H 86.6359 -0.681687 0.280129 0
M  V30 934 H 89.2779 -1.37732 1.30881 0
M  V30 935 H 87.4279 -3.80373 0.790469 0
M  V30 936 H 89.0999 -3.19434 3.32806 0
M  V30 937 H 87.3429 -2.95345 3.17732 0
M  V30 938 H 88.0139 -4.58403 3.07523 0
M  V30 939 H 90.4899 -3.96909 1.24911 0
M  V30 940 H 89.3659 -5.35199 1.21873 0
M  V30 941 H 89.6269 -4.41429 -0.243485 0
M  V30 942 N 88.686 -0.835752 -1.33615 0
M  V30 943 C 89.618 -0.224151 -2.28101 0
M  V30 944 C 90.631 0.593331 -1.51603 0
M  V30 945 O 91.82 0.420911 -1.73466 0
M  V30 946 C 88.92 0.703309 -3.31522 0
M  V30 947 C 88.093 -0.0741528 -4.37337 0
M  V30 948 C 87.152 0.776176 -5.20444 0
M  V30 949 O 86.178 0.216506 -5.68788 0
M  V30 950 N 87.38 2.09401 -5.41416 0
M  V30 951 H 90.145 -1.03598 -2.81225 0
M  V30 952 H 87.706 -0.69392 -1.46275 0
M  V30 953 H 89.698 1.27707 -3.84022 0
M  V30 954 H 88.268 1.41585 -2.78698 0
M  V30 955 H 87.488 -0.82928 -3.85378 0
M  V30 956 H 88.776 -0.608863 -5.05144 0
M  V30 957 H 88.174 2.57229 -5.03835 0
M  V30 958 H 86.731 2.61633 -5.96985 0
M  V30 959 N 90.1641 1.46063 -0.591896 0
M  V30 960 C 91.4111 2.02338 -0.0809991 0
M  V30 961 C 91.7391 1.46228 1.28249 0
M  V30 962 O 90.9941 0.620818 1.85592 0
M  V30 963 C 91.2931 3.57391 0.0249813 0
M  V30 964 C 90.9591 4.32583 -1.27211 0
M  V30 965 C 89.6211 4.52844 -1.62745 0
M  V30 966 C 91.9731 4.75687 -2.13005 0
M  V30 967 C 89.3011 5.13462 -2.83855 0
M  V30 968 C 91.6531 5.37644 -3.3335 0
M  V30 969 C 90.3171 5.5613 -3.69155 0
M  V30 970 H 89.5871 0.740407 -0.0296397 0
M  V30 971 H 92.2341 1.75321 -0.770374 0
M  V30 972 H 90.5391 3.83597 0.797537 0
M  V30 973 H 92.2361 3.98621 0.436184 0
M  V30 974 H 88.8261 4.17116 -0.985499 0
M  V30 975 H 93.0101 4.59782 -1.86855 0
M  V30 976 H 88.2661 5.25965 -3.11722 0
M  V30 977 H 92.4401 5.7 -4.00092 0
M  V30 978 H 90.0671 6.0287 -4.63089 0
M  V30 979 N 91.6422 0.330177 1.54103 0
M  V30 980 C 92.5752 -0.575477 2.20825 0
M  V30 981 C 93.5532 -1.11064 1.18758 0
M  V30 982 O 94.7372 -1.17341 1.47524 0
M  V30 983 C 91.8642 -1.79032 2.87516 0
M  V30 984 C 90.9102 -1.38581 4.03358 0
M  V30 985 S 91.7432 -0.416911 5.33875 0
M  V30 986 C 92.8992 -1.63889 6.04062 0
M  V30 987 H 93.1322 -0.00872114 2.97299 0
M  V30 988 H 90.6652 0.114254 1.53977 0
M  V30 989 H 92.6232 -2.48734 3.2656 0
M  V30 990 H 91.2842 -2.32827 2.10832 0
M  V30 991 H 90.4772 -2.29123 4.48908 0
M  V30 992 H 90.0792 -0.768419 3.66021 0
M  V30 993 H 92.3712 -2.57536 6.26643 0
M  V30 994 H 93.3142 -1.22542 6.97416 0
M  V30 995 H 93.7222 -1.82887 5.34053 0
M  V30 996 N 93.1203 -1.57491 0.0584922 0
M  V30 997 C 94.3603 -1.94851 -0.617458 0
M  V30 998 C 94.7243 -0.937165 -1.67575 0
M  V30 999 O 95.9253 -1.19795 -2.40629 0
M  V30 1000 C 94.1963 -3.36955 -1.19147 0
M  V30 1001 S 95.7553 -3.96277 -1.8844 0
M  V30 1002 H 92.5733 -0.681539 -0.202547 0
M  V30 1003 H 95.1753 -1.95073 0.129176 0
M  V30 1004 H 93.8793 -4.08355 -0.409215 0
M  V30 1005 H 93.4103 -3.40245 -1.97476 0
M  V30 1006 H 95.4253 -3.82099 -3.16568 0
M  V30 1007 N 94.5984 0.214957 -1.56127 0
M  V30 1008 C 95.5614 1.24997 -1.92116 0
M  V30 1009 C 96.5614 1.39467 -0.800344 0
M  V30 1010 O 97.7514 1.37619 -1.06802 0
M  V30 1011 C 94.8834 2.62271 -2.17777 0
M  V30 1012 H 96.0764 0.942875 -2.84693 0
M  V30 1013 H 93.6294 0.455654 -1.49511 0
M  V30 1014 H 94.3644 2.98068 -1.27773 0
M  V30 1015 H 94.1494 2.53143 -2.99434 0
M  V30 1016 H 95.6394 3.36946 -2.46693 0
M  V30 1017 N 96.0765 1.50051 0.48192 0
M  V30 1018 C 96.9865 1.7089 1.60728 0
M  V30 1019 C 98.0025 0.591788 1.63627 0
M  V30 1020 O 99.1785 0.868817 1.81696 0
M  V30 1021 C 96.2435 1.78855 2.97005 0
M  V30 1022 C 95.3045 3.02537 3.04581 0
M  V30 1023 C 94.5375 3.10112 4.34357 0
M  V30 1024 O 94.7605 2.24765 5.24249 0
M  V30 1025 O 93.6945 4.02747 4.47301 0
M  V30 1026 H 97.5205 2.66264 1.46072 0
M  V30 1027 H 95.1055 1.34018 0.660264 0
M  V30 1028 H 96.9875 1.86336 3.77964 0
M  V30 1029 H 95.6625 0.866628 3.11883 0
M  V30 1030 H 94.5695 3.00563 2.22739 0
M  V30 1031 H 95.9025 3.94272 2.94636 0
M  V30 1032 N 97.5546 -0.734337 1.39446 0
M  V30 1033 C 98.5046 -1.83949 1.34709 0
M  V30 1034 C 99.4886 -1.59279 0.227851 0
M  V30 1035 O 100.681 -1.70771 0.465438 0
M  V30 1036 C 97.8096 -3.21884 1.19356 0
M  V30 1037 C 96.8956 -3.52381 2.35984 0
M  V30 1038 N 97.2866 -3.53811 3.61457 0
M  V30 1039 C 95.5846 -3.82747 2.28956 0
M  V30 1040 C 96.2856 -3.82122 4.38586 0
M  V30 1041 N 95.2616 -3.9993 3.68181 0
M  V30 1042 H 99.0636 -1.83361 2.29687 0
M  V30 1043 H 96.5776 -0.932609 1.32952 0
M  V30 1044 H 98.5746 -4.00998 1.14046 0
M  V30 1045 H 97.2346 -3.23711 0.253295 0
M  V30 1046 H 98.2456 -3.35107 3.94872 0
M  V30 1047 H 94.9226 -3.92175 1.43194 0
M  V30 1048 H 96.3126 -3.89691 5.47349 0
M  V30 1049 N 99.0327 -1.24633 -0.964593 0
M  V30 1050 C 99.9627 -1.06611 -2.07741 0
M  V30 1051 C 100.944 0.0218666 -1.70086 0
M  V30 1052 O 102.129 -0.145793 -1.93652 0
M  V30 1053 C 99.2587 -0.673444 -3.40708 0
M  V30 1054 C 98.2127 -1.71054 -3.92332 0
M  V30 1055 C 97.5387 -1.17285 -5.21678 0
M  V30 1056 C 98.8387 -3.10718 -4.19824 0
M  V30 1057 H 100.533 -1.99693 -2.23076 0
M  V30 1058 H 98.0787 -0.96152 -1.07195 0
M  V30 1059 H 100.032 -0.534345 -4.17998 0
M  V30 1060 H 98.7557 0.293073 -3.25282 0
M  V30 1061 H 97.4147 -1.83791 -3.17201 0
M  V30 1062 H 97.0627 -0.196847 -5.02615 0
M  V30 1063 H 96.7627 -1.86592 -5.57187 0
M  V30 1064 H 98.2867 -1.04593 -6.01575 0
M  V30 1065 H 99.7007 -3.01192 -4.87808 0
M  V30 1066 H 98.0977 -3.77406 -4.66567 0
M  V30 1067 H 99.1677 -3.58524 -3.26479 0
M  V30 1068 N 100.511 1.16574 -1.06058 0
M  V30 1069 C 101.421 2.2452 -0.680282 0
M  V30 1070 C 102.437 1.71348 0.302604 0
M  V30 1071 O 103.613 2.00822 0.152513 0
M  V30 1072 C 100.678 3.46629 -0.0700315 0
M  V30 1073 C 99.7388 4.14849 -1.10448 0
M  V30 1074 C 98.9718 5.31129 -0.523256 0
M  V30 1075 O 99.1948 5.66514 0.664709 0
M  V30 1076 O 98.1288 5.88526 -1.26179 0
M  V30 1077 H 101.955 2.59355 -1.58015 0
M  V30 1078 H 99.5398 1.24043 -0.832694 0
M  V30 1079 H 101.422 4.20543 0.268667 0
M  V30 1080 H 100.097 3.13573 0.803353 0
M  V30 1081 H 99.0038 3.42916 -1.49532 0
M  V30 1082 H 100.337 4.51954 -1.94931 0
M  V30 1083 N 101.989 0.842826 1.3317 0
M  V30 1084 C 103.214 0.453129 2.02389 0
M  V30 1085 C 103.639 -0.939105 1.6298 0
M  V30 1086 O 102.997 -1.61472 0.8244 0
M  V30 1087 C 103.045 0.586094 3.55805 0
M  V30 1088 O 102.149 -0.386029 4.10589 0
M  V30 1089 H 101.49 0.183664 0.638094 0
M  V30 1090 H 104.02 1.13875 1.69981 0
M  V30 1091 H 104.03 0.469209 4.05293 0
M  V30 1092 H 102.705 1.6014 3.83833 0
M  V30 1093 H 101.282 -0.226371 3.72212 0
M  V30 1094 N 103.467 -1.45747 0.599634 0
M  V30 1095 C 104.715 -2.01893 0.0915472 0
M  V30 1096 C 105.036 -1.47155 -1.27946 0
M  V30 1097 O 104.306 -0.66273 -1.84349 0
M  V30 1098 H 102.886 -0.746363 0.0308524 0
M  V30 1099 H 105.548 -1.78645 0.779237 0
M  V30 1100 H 104.644 -3.1208 0.0353086 0
M  V30 1101 N 104.945 -0.338344 -1.53925 0
M  V30 1102 C 105.875 0.51328 -2.27789 0
M  V30 1103 C 106.856 1.107 -1.29149 0
M  V30 1104 O 108.041 1.12937 -1.57984 0
M  V30 1105 C 105.171 1.66697 -3.04679 0
M  V30 1106 C 104.125 1.20183 -4.1078 0
M  V30 1107 C 103.451 2.44363 -4.75595 0
M  V30 1108 C 104.751 0.30605 -5.21403 0
M  V30 1109 H 106.445 -0.102883 -2.99223 0
M  V30 1110 H 103.991 -0.0509219 -1.4391 0
M  V30 1111 H 105.944 2.26915 -3.55088 0
M  V30 1112 H 104.668 2.30995 -2.30887 0
M  V30 1113 H 103.327 0.622499 -3.61276 0
M  V30 1114 H 102.975 3.07057 -3.98403 0
M  V30 1115 H 102.675 2.13925 -5.47275 0
M  V30 1116 H 104.199 3.05317 -5.28786 0
M  V30 1117 H 105.613 0.814929 -5.67478 0
M  V30 1118 H 104.01 0.0937929 -6.00027 0
M  V30 1119 H 105.08 -0.65921 -4.80398 0
M  V30 1120 N 106.423 1.57458 -0.0668435 0
M  V30 1121 C 107.669 1.93587 0.6043 0
M  V30 1122 C 108.002 0.946722 1.69561 0
M  V30 1123 O 107.277 -0.0248516 1.94484 0
M  V30 1124 C 107.56 3.40014 1.18585 0
M  V30 1125 C 107.413 4.49685 0.101529 0
M  V30 1126 C 108.732 3.87154 2.09284 0
M  V30 1127 H 105.851 0.703958 0.218202 0
M  V30 1128 H 108.493 1.89542 -0.131804 0
M  V30 1129 H 106.643 3.43592 1.81319 0
M  V30 1130 H 108.315 4.5823 -0.531279 0
M  V30 1131 H 106.558 4.30059 -0.568487 0
M  V30 1132 H 107.229 5.49266 0.54874 0
M  V30 1133 H 109.705 3.85551 1.56491 0
M  V30 1134 H 108.581 4.90231 2.46911 0
M  V30 1135 H 108.842 3.2481 2.99918 0
M  V30 1136 N 107.901 -0.206675 1.56239 0
M  V30 1137 C 108.848 -1.25617 1.93621 0
M  V30 1138 C 109.818 -1.45824 0.795274 0
M  V30 1139 O 111.003 -1.59148 1.05245 0
M  V30 1140 C 108.143 -2.59839 2.27107 0
M  V30 1141 C 107.256 -2.47308 3.54207 0
M  V30 1142 C 106.391 -3.74155 3.7707 0
M  V30 1143 C 105.43 -3.56407 4.97635 0
M  V30 1144 N 104.567 -4.75238 5.1681 0
M  V30 1145 H 109.407 -0.930383 2.83104 0
M  V30 1146 H 106.944 -0.448065 1.4011 0
M  V30 1147 H 108.902 -3.38021 2.44535 0
M  V30 1148 H 107.532 -2.90485 1.40778 0
M  V30 1149 H 106.584 -1.60483 3.4489 0
M  V30 1150 H 107.896 -2.30122 4.42544 0
M  V30 1151 H 107.05 -4.60778 3.94675 0
M  V30 1152 H 105.789 -3.94282 2.87042 0
M  V30 1153 H 104.794 -2.68168 4.79964 0
M  V30 1154 H 106.019 -3.37736 5.89161 0
M  V30 1155 H 103.965 -4.95651 4.29728 0
M  V30 1156 H 103.882 -4.60835 5.99306 0
M  V30 1157 H 105.15 -5.63246 5.38864 0
M  V30 1158 N 109.379 -1.50304 -0.473955 0
M  V30 1159 C 110.627 -1.60832 -1.22382 0
M  V30 1160 C 110.948 -0.30939 -1.9253 0
M  V30 1161 O 110.218 0.67296 -1.83978 0
M  V30 1162 H 108.798 -0.592652 -0.454723 0
M  V30 1163 H 111.46 -1.87068 -0.546968 0
M  V30 1164 H 110.556 -2.41803 -1.97327 0
M  V30 1165 N 110.857 0.726932 -1.39834 0
M  V30 1166 C 112.104 1.48664 -1.37496 0
M  V30 1167 C 112.432 1.94482 0.0264678 0
M  V30 1168 O 111.687 1.67692 1.00886 0
M  V30 1169 C 111.986 2.73495 -2.30077 0
M  V30 1170 C 111.652 2.46502 -3.77555 0
M  V30 1171 C 110.314 2.3885 -4.17737 0
M  V30 1172 C 112.666 2.23604 -4.70798 0
M  V30 1173 C 109.994 2.06352 -5.49214 0
M  V30 1174 C 112.346 1.92622 -6.02561 0
M  V30 1175 C 111.01 1.83444 -6.41798 0
M  V30 1176 H 110.28 0.544001 -0.503135 0
M  V30 1177 H 112.927 0.833657 -1.72402 0
M  V30 1178 H 111.232 3.43575 -1.88317 0
M  V30 1179 H 112.929 3.31549 -2.25558 0
M  V30 1180 H 109.519 2.5334 -3.45712 0
M  V30 1181 H 113.703 2.28479 -4.40581 0
M  V30 1182 H 108.959 1.97776 -5.78528 0
M  V30 1183 H 113.133 1.73914 -6.74334 0
M  V30 1184 H 110.76 1.58029 -7.43593 0
M  V30 1185 N 112.336 1.25143 0.95797 0
M  V30 1186 C 113.583 1.09692 1.70217 0
M  V30 1187 C 113.911 -0.362654 1.91089 0
M  V30 1188 O 113.166 -1.28386 1.47701 0
M  V30 1189 C 113.465 1.79272 3.09187 0
M  V30 1190 C 113.131 3.29196 3.08125 0
M  V30 1191 C 111.793 3.70096 3.07543 0
M  V30 1192 C 114.145 4.24995 3.0171 0
M  V30 1193 C 111.473 5.05213 2.9829 0
M  V30 1194 C 113.825 5.60132 2.93999 0
M  V30 1195 C 112.489 6.00365 2.9175 0
M  V30 1196 H 111.759 0.401393 0.622868 0
M  V30 1197 H 114.406 1.55372 1.11945 0
M  V30 1198 H 112.711 1.26014 3.70982 0
M  V30 1199 H 114.408 1.64773 3.65583 0
M  V30 1200 H 110.998 2.96651 3.09348 0
M  V30 1201 H 115.182 3.9439 3.01281 0
M  V30 1202 H 110.438 5.35569 2.94916 0
M  V30 1203 H 114.612 6.3406 2.87996 0
M  V30 1204 H 112.239 7.05023 2.84336 0
M  V30 1205 N 113.814 -1.1601 1.06675 0
M  V30 1206 C 114.746 -2.20115 0.638921 0
M  V30 1207 C 115.759 -1.59916 -0.305057 0
M  V30 1208 O 116.948 -1.78245 -0.0954446 0
M  V30 1209 C 114.048 -3.38798 -0.0830083 0
M  V30 1210 C 113.221 -4.2855 0.875426 0
M  V30 1211 C 112.28 -5.25849 0.192042 0
M  V30 1212 O 111.306 -5.63102 0.830921 0
M  V30 1213 N 112.508 -5.70648 -1.06493 0
M  V30 1214 H 115.273 -2.57439 1.53444 0
M  V30 1215 H 112.834 -1.31057 0.950557 0
M  V30 1216 H 114.826 -4.00936 -0.550685 0
M  V30 1217 H 113.396 -2.99947 -0.880386 0
M  V30 1218 H 112.616 -3.63617 1.52238 0
M  V30 1219 H 113.904 -4.85393 1.52548 0
M  V30 1220 H 113.302 -5.42482 -1.60405 0
M  V30 1221 H 111.859 -6.34859 -1.47641 0
M  V30 1222 N 115.292 -0.849877 -1.32721 0
M  V30 1223 C 116.517 -0.463856 -2.02146 0
M  V30 1224 C 116.942 0.930449 -1.63476 0
M  V30 1225 O 116.3 1.61033 -0.832952 0
M  V30 1226 C 116.348 -0.604955 -3.55489 0
M  V30 1227 O 115.452 0.36425 -4.10788 0
M  V30 1228 H 114.793 -0.187046 -0.637111 0
M  V30 1229 H 117.323 -1.14775 -1.69375 0
M  V30 1230 H 117.333 -0.490696 -4.05038 0
M  V30 1231 H 116.008 -1.62174 -3.82978 0
M  V30 1232 H 114.585 0.206628 -3.72327 0
M  V30 1233 N 116.77 1.45427 -0.607355 0
M  V30 1234 C 117.7 2.3329 0.0989352 0
M  V30 1235 C 118.681 1.46816 0.859007 0
M  V30 1236 O 119.866 1.75588 0.829604 0
M  V30 1237 C 116.996 3.29518 1.09705 0
M  V30 1238 C 115.95 4.25626 0.450206 0
M  V30 1239 C 115.276 5.11542 1.55655 0
M  V30 1240 C 116.576 5.18505 -0.628455 0
M  V30 1241 H 118.27 2.92595 -0.634716 0
M  V30 1242 H 115.816 1.40696 -0.306681 0
M  V30 1243 H 117.769 3.89855 1.59971 0
M  V30 1244 H 116.493 2.68372 1.86129 0
M  V30 1245 H 115.152 3.66586 -0.0315886 0
M  V30 1246 H 114.8 4.46765 2.31107 0
M  V30 1247 H 114.5 5.76647 1.12925 0
M  V30 1248 H 116.024 5.74748 2.06148 0
M  V30 1249 H 117.438 5.72916 -0.209877 0
M  V30 1250 H 115.835 5.92085 -0.977489 0
M  V30 1251 H 116.905 4.60948 -1.50514 0
M  V30 1252 N 118.248 0.346503 1.53744 0
M  V30 1253 C 119.494 -0.242135 2.01954 0
M  V30 1254 C 119.849 -1.47962 1.22984 0
M  V30 1255 O 119.142 -1.89077 0.309924 0
M  V30 1256 C 119.336 -0.605809 3.52228 0
M  V30 1257 C 119.165 0.594882 4.45748 0
M  V30 1258 C 117.935 1.1011 4.93157 0
M  V30 1259 C 120.133 1.45425 4.93311 0
M  V30 1260 N 118.115 2.26381 5.70636 0
M  V30 1261 C 119.486 2.46383 5.68942 0
M  V30 1262 C 121.541 1.47935 4.75415 0
M  V30 1263 C 120.244 3.49684 6.28581 0
M  V30 1264 C 122.27 2.50119 5.35905 0
M  V30 1265 C 121.632 3.49803 6.11406 0
M  V30 1266 H 117.731 -0.0518296 0.780281 0
M  V30 1267 H 120.315 0.486736 1.88518 0
M  V30 1268 H 118.486 -1.30378 3.65864 0
M  V30 1269 H 120.218 -1.17789 3.87179 0
M  V30 1270 H 116.973 0.668721 4.68855 0
M  V30 1271 H 117.397 2.85094 6.14044 0
M  V30 1272 H 122.039 0.722274 4.16585 0
M  V30 1273 H 119.757 4.26285 6.86518 0
M  V30 1274 H 123.343 2.52892 5.23963 0
M  V30 1275 H 122.223 4.27576 6.5738 0
M  V30 1276 N 119.726 -1.57421 0.075193 0
M  V30 1277 C 121.137 -1.81021 -0.456964 0
M  V30 1278 C 121.488 -0.98936 -1.69429 0
M  V30 1279 O 120.613 -0.212865 -2.15351 0
M  V30 1280 C 121.208 -3.28329 -0.83581 0
M  V30 1281 C 119.767 -3.52764 -1.31281 0
M  V30 1282 C 118.914 -2.75676 -0.299648 0
M  V30 1283 H 121.865 -1.55822 0.300856 0
M  V30 1284 H 121.886 -3.40564 -1.69696 0
M  V30 1285 H 121.398 -3.88046 0.0649238 0
M  V30 1286 H 119.499 -2.98355 -2.23193 0
M  V30 1287 H 119.612 -4.61451 -1.28839 0
M  V30 1288 H 117.976 -2.42538 -0.777641 0
M  V30 1289 H 118.759 -3.38132 0.593417 0
M  V30 1290 N 121.204 0.198386 -1.56346 0
M  V30 1291 C 122.429 0.939682 -1.84891 0
M  V30 1292 C 122.854 1.76202 -0.658369 0
M  V30 1293 O 122.212 1.76993 0.392851 0
M  V30 1294 C 122.26 1.81428 -3.11635 0
M  V30 1295 O 121.364 2.91265 -2.91956 0
M  V30 1296 H 120.705 0.264807 -0.608912 0
M  V30 1297 H 123.235 0.204695 -2.03573 0
M  V30 1298 H 123.245 2.21958 -3.42343 0
M  V30 1299 H 121.92 1.21004 -3.97908 0
M  V30 1300 H 120.497 2.54514 -2.72538 0
M  V30 1301 N 122.682 1.50554 0.465978 0
M  V30 1302 C 123.645 1.69233 1.54574 0
M  V30 1303 C 124.645 0.562901 1.50626 0
M  V30 1304 O 125.835 0.830016 1.53155 0
M  V30 1305 C 122.967 1.7223 2.94193 0
M  V30 1306 H 124.16 2.65571 1.39327 0
M  V30 1307 H 121.713 1.40111 0.692711 0
M  V30 1308 H 122.448 0.77603 3.14878 0
M  V30 1309 H 122.233 2.54285 2.98466 0
M  V30 1310 H 123.723 1.88618 3.72576 0
M  V30 1311 N 124.16 -0.719506 1.40217 0
M  V30 1312 C 125.406 -1.48152 1.38488 0
M  V30 1313 C 125.739 -1.94195 -0.0141867 0
M  V30 1314 O 125.014 -1.67884 -0.982096 0
M  V30 1315 C 125.297 -2.71035 2.37091 0
M  V30 1316 C 125.15 -2.30912 3.86005 0
M  V30 1317 C 126.469 -3.73182 2.33288 0
M  V30 1318 H 123.588 -0.537395 0.504357 0
M  V30 1319 H 126.23 -0.821472 1.71324 0
M  V30 1320 H 124.38 -3.27352 2.0922 0
M  V30 1321 H 126.052 -1.80107 4.24687 0
M  V30 1322 H 124.295 -1.62958 4.02029 0
M  V30 1323 H 124.966 -3.18978 4.50508 0
M  V30 1324 H 127.442 -3.26485 2.57966 0
M  V30 1325 H 126.318 -4.56806 3.04334 0
M  V30 1326 H 126.579 -4.21202 1.34317 0
M  V30 1327 N 125.638 -1.25649 -0.95132 0
M  V30 1328 C 126.548 -1.08073 -2.08224 0
M  V30 1329 C 127.564 -0.0169666 -1.73992 0
M  V30 1330 O 128.74 -0.218593 -2.0021 0
M  V30 1331 C 125.805 -0.704922 -3.39458 0
M  V30 1332 C 124.866 -1.84699 -3.87537 0
M  V30 1333 C 124.099 -1.48902 -5.12508 0
M  V30 1334 O 124.322 -0.386156 -5.69091 0
M  V30 1335 O 123.256 -2.32033 -5.55378 0
M  V30 1336 H 127.082 -2.02924 -2.25954 0
M  V30 1337 H 124.667 -1.04618 -1.06656 0
M  V30 1338 H 126.549 -0.507609 -4.18332 0
M  V30 1339 H 125.224 0.214291 -3.2299 0
M  V30 1340 H 124.131 -2.09919 -3.09653 0
M  V30 1341 H 125.464 -2.74557 -4.08509 0
M  V30 1342 N 127.117 1.15442 -1.07289 0
M  V30 1343 C 128.065 2.22225 -0.686952 0
M  V30 1344 C 129.059 1.66688 0.30193 0
M  V30 1345 O 130.265 1.79236 0.165712 0
M  V30 1346 H 126.64 0.723783 -0.204064 0
M  V30 1347 H 128.611 2.52056 -1.5972 0
M  V30 1348 C 127.36 3.47556 -0.100149 0
M  V30 1349 H 126.683 3.90612 -0.852211 0
M  V30 1350 H 128.123 4.23794 0.132235 0
M  V30 1351 C 126.582 3.16337 1.159 0
M  V30 1352 O 127.112 3.33074 2.24555 0
M  V30 1353 N 125.318 2.70385 1.06491 0
M  V30 1354 H 124.865 2.56966 0.180668 0
M  V30 1355 H 124.823 2.49871 1.90819 0
M  V30 1356 N 128.595 0.856903 1.32268 0
M  V30 1357 C 129.835 0.467705 1.98977 0
M  V30 1358 C 130.199 -0.959231 1.66321 0
M  V30 1359 O 131.4 -1.4531 2.26138 0
M  V30 1360 C 129.671 0.70256 3.50427 0
M  V30 1361 S 131.23 0.411269 4.36868 0
M  V30 1362 H 128.048 0.175121 0.689096 0
M  V30 1363 H 130.65 1.1101 1.60925 0
M  V30 1364 H 129.354 1.74012 3.71683 0
M  V30 1365 H 128.885 0.0466707 3.93372 0
M  V30 1366 H 130.9 -0.761799 4.90317 0
M  V30 1367 N 130.073 -1.45103 0.615059 0
M  V30 1368 C 131.301 -2.06553 0.11977 0
M  V30 1369 C 131.716 -1.45842 -1.19898 0
M  V30 1370 O 131.073 -0.575325 -1.73194 0
M  V30 1371 C 131.124 -3.61495 -0.018364 0
M  V30 1372 O 130.845 -4.19942 1.24822 0
M  V30 1373 C 132.346 -4.39947 -0.544237 0
M  V30 1374 H 129.566 -0.667096 0.0722739 0
M  V30 1375 H 132.11 -1.8623 0.84491 0
M  V30 1376 H 130.265 -3.81135 -0.693865 0
M  V30 1377 H 130.679 -5.13204 1.0827 0
M  V30 1378 H 132.153 -5.48838 -0.589953 0
M  V30 1379 H 132.63 -4.10255 -1.56805 0
M  V30 1380 H 133.236 -4.25188 0.0974703 0
M  V30 1381 N 131.551 -0.354651 -1.53558 0
M  V30 1382 C 132.962 0.126902 -1.86268 0
M  V30 1383 C 133.313 1.49075 -1.27558 0
M  V30 1384 O 132.438 2.08105 -0.5934 0
M  V30 1385 C 133.033 0.237046 -3.3797 0
M  V30 1386 C 131.592 0.662842 -3.70518 0
M  V30 1387 C 130.739 -0.196652 -2.76602 0
M  V30 1388 H 133.69 -0.573849 -1.47962 0
M  V30 1389 H 133.711 1.06259 -3.65362 0
M  V30 1390 H 133.223 -0.755725 -3.80671 0
M  V30 1391 H 131.324 1.66424 -3.33367 0
M  V30 1392 H 131.437 0.445034 -4.77029 0
M  V30 1393 H 129.801 0.332763 -2.52517 0
M  V30 1394 H 130.584 -1.18676 -3.22135 0
M  V30 1395 N 133.029 1.57378 -0.0835403 0
M  V30 1396 C 133.977 2.14602 0.89714 0
M  V30 1397 C 134.971 1.08589 1.30018 0
M  V30 1398 O 136.177 1.26952 1.27606 0
M  V30 1399 H 132.552 0.686346 0.3073 0
M  V30 1400 H 134.523 2.95845 0.38969 0
M  V30 1401 C 133.272 2.73188 2.15089 0
M  V30 1402 H 132.595 3.54442 1.84962 0
M  V30 1403 H 134.035 3.1681 2.81793 0
M  V30 1404 C 132.494 1.68517 2.91725 0
M  V30 1405 O 133.024 1.11718 3.85852 0
M  V30 1406 N 131.23 1.39277 2.55049 0
M  V30 1407 H 130.777 1.85655 1.78577 0
M  V30 1408 H 130.735 0.694791 3.06627 0
M  V30 1409 N 134.507 -0.190092 1.56449 0
M  V30 1410 C 135.755 -0.907908 1.80559 0
M  V30 1411 C 136.076 -1.83583 0.657438 0
M  V30 1412 O 135.346 -1.93203 -0.323924 0
M  V30 1413 H 133.926 -0.338247 0.666032 0
M  V30 1414 H 136.588 -0.194403 1.93928 0
M  V30 1415 H 135.684 -1.49604 2.73907 0
M  V30 1416 N 135.985 -1.50799 -0.457987 0
M  V30 1417 C 136.935 -1.67003 -1.55222 0
M  V30 1418 C 137.919 -0.52434 -1.52117 0
M  V30 1419 O 139.111 -0.779345 -1.58919 0
M  V30 1420 C 136.24 -1.77956 -2.93576 0
M  V30 1421 C 135.326 -2.98243 -3.01516 0
M  V30 1422 N 135.717 -4.21732 -2.79241 0
M  V30 1423 C 134.015 -2.97072 -3.32662 0
M  V30 1424 C 134.716 -5.02817 -2.92489 0
M  V30 1425 N 133.692 -4.37038 -3.23262 0
M  V30 1426 H 137.494 -2.60163 -1.36721 0
M  V30 1427 H 135.008 -1.48163 -0.664952 0
M  V30 1428 H 137.005 -1.87671 -3.72271 0
M  V30 1429 H 135.665 -0.859634 -3.13114 0
M  V30 1430 H 136.676 -4.51016 -2.54567 0
M  V30 1431 H 133.353 -2.14631 -3.58106 0
M  V30 1432 H 134.743 -6.11054 -2.79396 0
M  V30 1433 N 137.463 0.71206 -1.40597 0
M  V30 1434 C 138.393 1.83889 -1.43899 0
M  V30 1435 C 139.374 1.67442 -0.299504 0
M  V30 1436 O 140.559 1.87421 -0.508624 0
M  V30 1437 C 137.689 3.21877 -1.30431 0
M  V30 1438 C 136.643 3.53002 -2.42019 0
M  V30 1439 C 135.969 4.90172 -2.13626 0
M  V30 1440 C 137.269 3.53643 -3.84362 0
M  V30 1441 H 138.963 1.81383 -2.38203 0
M  V30 1442 H 136.509 0.871237 -1.14654 0
M  V30 1443 H 138.462 4.00404 -1.31357 0
M  V30 1444 H 137.186 3.24968 -0.326049 0
M  V30 1445 H 135.845 2.76818 -2.40349 0
M  V30 1446 H 135.493 4.89869 -1.14182 0
M  V30 1447 H 135.193 5.11962 -2.88389 0
M  V30 1448 H 136.717 5.71028 -2.1624 0
M  V30 1449 H 138.131 4.22203 -3.87837 0
M  V30 1450 H 136.528 3.86961 -4.58673 0
M  V30 1451 H 137.598 2.52954 -4.13693 0
M  V30 1452 N 138.941 1.26152 0.944643 0
M  V30 1453 C 140.187 1.12665 1.69346 0
M  V30 1454 C 140.542 -0.3273 1.89596 0
M  V30 1455 O 139.835 -1.23717 1.46303 0
M  V30 1456 C 140.029 1.82541 3.07268 0
M  V30 1457 C 139.858 3.34582 3.00475 0
M  V30 1458 C 138.628 4.03863 3.03681 0
M  V30 1459 C 140.826 4.30828 2.80877 0
M  V30 1460 N 138.808 5.42603 2.87151 0
M  V30 1461 C 140.179 5.5672 2.7288 0
M  V30 1462 C 142.234 4.21122 2.65633 0
M  V30 1463 C 140.937 6.74013 2.51196 0
M  V30 1464 C 142.963 5.38118 2.45323 0
M  V30 1465 C 142.325 6.62955 2.38055 0
M  V30 1466 H 138.424 0.467041 0.627214 0
M  V30 1467 H 141.008 1.59391 1.11815 0
M  V30 1468 H 139.179 1.38296 3.62945 0
M  V30 1469 H 140.911 1.61708 3.70989 0
M  V30 1470 H 137.666 3.55198 3.1326 0
M  V30 1471 H 138.09 6.15443 2.82063 0
M  V30 1472 H 142.732 3.25344 2.70021 0
M  V30 1473 H 140.45 7.6989 2.4555 0
M  V30 1474 H 144.036 5.32475 2.34439 0
M  V30 1475 H 142.916 7.51959 2.22546 0
M  V30 1476 N 140.419 -1.14872 1.07899 0
M  V30 1477 C 141.367 -2.21857 0.698727 0
M  V30 1478 C 142.361 -1.66845 -0.293086 0
M  V30 1479 O 143.567 -1.79321 -0.156204 0
M  V30 1480 H 139.942 -0.722691 0.207899 0
M  V30 1481 H 141.913 -2.51205 1.61054 0
M  V30 1482 C 140.662 -3.47498 0.11858 0
M  V30 1483 H 139.985 -3.90154 0.872914 0
M  V30 1484 H 141.425 -4.23858 -0.109759 0
M  V30 1485 C 139.884 -3.16947 -1.1422 0
M  V30 1486 O 140.414 -3.3426 -2.22785 0
M  V30 1487 N 138.62 -2.70946 -1.05055 0
M  V30 1488 H 138.167 -2.57058 -0.167038 0
M  V30 1489 H 138.125 -2.50879 -1.89491 0
M  V30 1490 N 141.898 -0.863906 -1.31812 0
M  V30 1491 C 143.144 -0.472535 -1.97218 0
M  V30 1492 C 143.477 0.971394 -1.68159 0
M  V30 1493 O 142.752 1.68309 -0.974798 0
M  V30 1494 C 143.035 -0.723054 -3.52766 0
M  V30 1495 C 142.888 -2.21608 -3.91421 0
M  V30 1496 C 144.207 -0.185522 -4.39709 0
M  V30 1497 H 141.326 -0.173158 -0.71637 0
M  V30 1498 H 143.968 -1.08403 -1.56041 0
M  V30 1499 H 142.118 -0.202577 -3.87971 0
M  V30 1500 H 143.79 -2.80334 -3.66347 0
M  V30 1501 H 142.033 -2.691 -3.40246 0
M  V30 1502 H 142.704 -2.34203 -4.99853 0
M  V30 1503 H 145.18 -0.630726 -4.11292 0
M  V30 1504 H 144.056 -0.390306 -5.47511 0
M  V30 1505 H 144.317 0.912229 -4.32586 0
M  V30 1506 N 143.376 1.44774 -0.622745 0
M  V30 1507 C 144.309 2.27792 0.136329 0
M  V30 1508 C 145.287 1.38041 0.859264 0
M  V30 1509 O 146.471 1.67478 0.86506 0
M  V30 1510 C 143.598 3.16776 1.19878 0
M  V30 1511 C 142.644 4.22575 0.57731 0
M  V30 1512 S 143.477 5.31825 -0.626294 0
M  V30 1513 C 144.633 6.24377 0.436378 0
M  V30 1514 H 144.866 2.91824 -0.567967 0
M  V30 1515 H 142.399 1.48838 -0.410677 0
M  V30 1516 H 144.357 3.68596 1.80686 0
M  V30 1517 H 143.018 2.5198 1.87523 0
M  V30 1518 H 142.211 4.84818 1.37721 0
M  V30 1519 H 141.813 3.73974 0.0440439 0
M  V30 1520 H 144.105 6.64689 1.31128 0
M  V30 1521 H 145.048 7.07941 -0.150271 0
M  V30 1522 H 145.456 5.59381 0.758513 0
M  V30 1523 N 144.854 0.36279 1.53368 0
M  V30 1524 C 146.103 -0.22888 2.00397 0
M  V30 1525 C 146.416 -1.50096 1.25421 0
M  V30 1526 O 147.622 -2.17106 1.63025 0
M  V30 1527 C 146.078 -0.458417 3.56969 0
M  V30 1528 C 145.686 0.798877 4.4082 0
M  V30 1529 C 147.43 -1.00789 4.12361 0
M  V30 1530 C 145.337 0.539078 5.88938 0
M  V30 1531 H 144.267 -0.089305 0.748693 0
M  V30 1532 H 146.918 0.481099 1.77081 0
M  V30 1533 H 145.3 -1.22959 3.76427 0
M  V30 1534 H 146.474 1.57262 4.33134 0
M  V30 1535 H 144.789 1.27137 3.96516 0
M  V30 1536 H 147.386 -1.21754 5.20653 0
M  V30 1537 H 147.729 -1.9692 3.66781 0
M  V30 1538 H 148.262 -0.296961 3.9669 0
M  V30 1539 H 145.001 1.47064 6.3879 0
M  V30 1540 H 144.521 -0.196222 5.99479 0
M  V30 1541 H 146.2 0.163542 6.46793 0
M  V30 1542 N 146.332 -1.57332 0.0918853 0
M  V30 1543 C 147.56 -1.98574 -0.581048 0
M  V30 1544 C 147.975 -0.970903 -1.61923 0
M  V30 1545 O 147.332 0.0399054 -1.82456 0
M  V30 1546 C 147.383 -3.39872 -1.23164 0
M  V30 1547 O 147.104 -4.37469 -0.234989 0
M  V30 1548 C 148.605 -3.96099 -1.99049 0
M  V30 1549 H 145.825 -0.65261 -0.156018 0
M  V30 1550 H 148.369 -2.0379 0.170225 0
M  V30 1551 H 146.524 -3.35679 -1.93386 0
M  V30 1552 H 146.938 -5.19751 -0.70418 0
M  V30 1553 H 148.412 -4.97127 -2.39934 0
M  V30 1554 H 148.889 -3.3374 -2.85507 0
M  V30 1555 H 149.495 -4.03755 -1.3365 0
M  V30 1556 N 147.81 0.181792 -1.56548 0
M  V30 1557 C 149.058 0.89832 -1.81038 0
M  V30 1558 C 149.379 1.83232 -0.667164 0
M  V30 1559 O 148.649 1.93372 0.313673 0
M  V30 1560 H 147.229 0.33471 -0.667816 0
M  V30 1561 H 149.891 0.184116 -1.94028 0
M  V30 1562 H 148.987 1.4815 -2.74696 0
M  V30 1563 N 149.288 1.51039 0.449983 0
M  V30 1564 C 150.238 1.67824 1.54335 0
M  V30 1565 C 151.222 0.5324 1.51836 0
M  V30 1566 O 152.414 0.787762 1.58503 0
M  V30 1567 C 149.543 1.7951 2.92628 0
M  V30 1568 C 148.629 2.99838 2.9993 0
M  V30 1569 N 149.02 4.23207 2.77001 0
M  V30 1570 C 147.318 2.98832 3.31082 0
M  V30 1571 C 148.019 5.04361 2.89818 0
M  V30 1572 N 146.995 4.38746 3.2094 0
M  V30 1573 H 150.797 2.60884 1.35339 0
M  V30 1574 H 148.311 1.48513 0.657085 0
M  V30 1575 H 150.308 1.89642 3.7127 0
M  V30 1576 H 148.968 0.876227 3.12654 0
M  V30 1577 H 149.979 4.5236 2.52172 0
M  V30 1578 H 146.656 2.16527 3.56963 0
M  V30 1579 H 148.046 6.12528 2.76151 0
M  V30 1580 N 150.766 -0.704594 1.40972 0
M  V30 1581 C 152.014 -1.46169 1.39568 0
M  V30 1582 C 152.335 -1.95 0.00253745 0
M  V30 1583 O 151.605 -1.71095 -0.954114 0
M  V30 1584 H 150.185 -0.542326 0.513704 0
M  V30 1585 H 152.847 -0.834553 1.76128 0
M  V30 1586 H 151.943 -2.32922 2.07735 0
M  V30 1587 N 152.244 -1.26651 -0.937939 0
M  V30 1588 C 153.493 -1.11775 -1.67897 0
M  V30 1589 C 153.806 0.33794 -1.92659 0
M  V30 1590 O 155.012 0.607434 -2.64618 0
M  V30 1591 C 153.468 -1.9523 -3.02346 0
M  V30 1592 C 153.076 -3.45393 -2.8532 0
M  V30 1593 C 154.82 -1.88972 -3.80118 0
M  V30 1594 C 152.727 -4.21083 -4.15263 0
M  V30 1595 H 151.657 -0.414696 -0.629717 0
M  V30 1596 H 154.308 -1.50988 -1.04283 0
M  V30 1597 H 152.69 -1.48853 -3.66959 0
M  V30 1598 H 153.864 -3.99561 -2.29537 0
M  V30 1599 H 152.179 -3.52921 -2.20988 0
M  V30 1600 H 154.776 -2.42805 -4.76392 0
M  V30 1601 H 155.119 -0.86113 -4.07296 0
M  V30 1602 H 155.652 -2.33189 -3.22285 0
M  V30 1603 H 152.391 -5.24425 -3.93267 0
M  V30 1604 H 151.911 -3.71695 -4.70747 0
M  V30 1605 H 153.59 -4.29706 -4.83696 0
M  V30 1606 N 153.722 1.14298 -1.08507 0
M  V30 1607 C 154.652 2.21542 -0.737646 0
M  V30 1608 C 155.633 1.67773 0.280377 0
M  V30 1609 O 156.818 1.93616 0.150521 0
M  V30 1610 C 153.948 3.46988 -0.147259 0
M  V30 1611 C 152.902 4.13789 -1.09374 0
M  V30 1612 C 152.228 5.33449 -0.365524 0
M  V30 1613 C 153.528 4.62208 -2.4323 0
M  V30 1614 H 155.222 2.5086 -1.6343 0
M  V30 1615 H 152.768 1.20576 -0.787243 0
M  V30 1616 H 154.721 4.21262 0.107808 0
M  V30 1617 H 153.445 3.17037 0.784538 0
M  V30 1618 H 152.104 3.4147 -1.33393 0
M  V30 1619 H 151.752 4.99759 0.57011 0
M  V30 1620 H 151.452 5.79088 -0.996512 0
M  V30 1621 H 152.976 6.10485 -0.118534 0
M  V30 1622 H 154.39 5.27952 -2.23472 0
M  V30 1623 H 152.787 5.18553 -3.02031 0
M  V30 1624 H 153.857 3.77224 -3.04681 0
M  V30 1625 N 155.201 0.870884 1.31352 0
M  V30 1626 C 156.134 0.271983 2.26573 0
M  V30 1627 C 157.112 -0.599385 1.51149 0
M  V30 1628 O 158.296 -0.552605 1.80218 0
M  V30 1629 C 155.423 -0.614801 3.33073 0
M  V30 1630 C 154.469 0.185342 4.26097 0
M  V30 1631 S 155.302 1.56444 5.12138 0
M  V30 1632 C 156.458 0.683807 6.22153 0
M  V30 1633 H 156.691 1.07916 2.77023 0
M  V30 1634 H 154.224 0.669459 1.39132 0
M  V30 1635 H 156.182 -1.12074 3.94905 0
M  V30 1636 H 154.843 -1.39593 2.81376 0
M  V30 1637 H 154.036 -0.490771 5.01605 0
M  V30 1638 H 153.638 0.623415 3.68768 0
M  V30 1639 H 155.93 -0.10521 6.77418 0
M  V30 1640 H 156.873 1.41004 6.93919 0
M  V30 1641 H 157.281 0.250952 5.63942 0
M  V30 1642 N 156.679 -1.44442 0.630414 0
M  V30 1643 C 157.612 -2.27862 -0.124247 0
M  V30 1644 C 158.59 -1.38495 -0.851931 0
M  V30 1645 O 159.774 -1.67935 -0.856166 0
M  V30 1646 C 156.901 -3.17407 -1.18197 0
M  V30 1647 C 155.947 -4.22875 -0.554892 0
M  V30 1648 S 156.78 -5.31485 0.654489 0
M  V30 1649 C 157.936 -6.246 -0.40326 0
M  V30 1650 H 158.169 -2.91519 0.583435 0
M  V30 1651 H 155.702 -1.48618 0.418565 0
M  V30 1652 H 157.66 -3.69549 -1.78728 0
M  V30 1653 H 156.321 -2.52971 -1.86184 0
M  V30 1654 H 155.514 -4.85542 -1.35148 0
M  V30 1655 H 155.116 -3.73992 -0.0242105 0
M  V30 1656 H 157.408 -6.65375 -1.27602 0
M  V30 1657 H 158.351 -7.07851 0.187813 0
M  V30 1658 H 158.759 -5.59775 -0.728837 0
M  V30 1659 N 158.157 -0.370918 -1.53173 0
M  V30 1660 C 159.404 0.217102 -2.01333 0
M  V30 1661 C 159.732 1.48338 -1.25802 0
M  V30 1662 O 158.987 1.92698 -0.34146 0
M  V30 1663 C 159.286 0.549696 -3.53147 0
M  V30 1664 C 158.952 -0.622872 -4.46577 0
M  V30 1665 C 157.614 -0.944595 -4.71838 0
M  V30 1666 C 159.966 -1.40819 -5.01816 0
M  V30 1667 C 157.294 -2.05351 -5.49589 0
M  V30 1668 C 159.646 -2.50757 -5.80778 0
M  V30 1669 C 158.31 -2.83458 -6.04324 0
M  V30 1670 H 157.58 0.0794431 -0.736729 0
M  V30 1671 H 160.227 -0.504481 -1.84736 0
M  V30 1672 H 158.532 1.35237 -3.6772 0
M  V30 1673 H 160.229 1.017 -3.87889 0
M  V30 1674 H 156.819 -0.36209 -4.27068 0
M  V30 1675 H 161.003 -1.17289 -4.82242 0
M  V30 1676 H 156.259 -2.3108 -5.6605 0
M  V30 1677 H 160.433 -3.12022 -6.22588 0
M  V30 1678 H 158.06 -3.69508 -6.64355 0
M  V30 1679 N 159.635 1.57281 -0.100228 0
M  V30 1680 C 160.882 1.94537 0.562268 0
M  V30 1681 C 161.21 0.982315 1.67871 0
M  V30 1682 O 160.465 0.00280936 1.957 0
M  V30 1683 C 160.764 3.38305 1.15259 0
M  V30 1684 C 160.43 4.50618 0.159409 0
M  V30 1685 C 159.092 4.81066 -0.113741 0
M  V30 1686 C 161.444 5.18615 -0.518461 0
M  V30 1687 C 158.772 5.76835 -1.07137 0
M  V30 1688 C 161.124 6.15412 -1.46459 0
M  V30 1689 C 159.788 6.44262 -1.74592 0
M  V30 1690 H 159.058 0.711863 0.205748 0
M  V30 1691 H 161.705 1.90679 -0.17715 0
M  V30 1692 H 160.01 3.38766 1.96836 0
M  V30 1693 H 161.707 3.64435 1.67297 0
M  V30 1694 H 158.297 4.2689 0.382491 0
M  V30 1695 H 162.481 4.95264 -0.320581 0
M  V30 1696 H 157.737 5.975 -1.29628 0
M  V30 1697 H 161.911 6.67194 -1.99564 0
M  V30 1698 H 159.538 7.1828 -2.48953 0
M  V30 1699 N 161.113 -0.173488 1.56642 0
M  V30 1700 C 162.359 -0.891784 1.8214 0
M  V30 1701 C 162.692 -1.8199 0.677736 0
M  V30 1702 O 161.967 -1.91842 -0.320446 0
M  V30 1703 C 162.25 -1.68933 3.18015 0
M  V30 1704 C 162.103 -0.784487 4.42906 0
M  V30 1705 C 163.422 -2.65748 3.50808 0
M  V30 1706 H 160.541 -0.322761 0.662567 0
M  V30 1707 H 163.183 -0.158095 1.89341 0
M  V30 1708 H 161.333 -2.31482 3.12007 0
M  V30 1709 H 163.005 -0.172046 4.60979 0
M  V30 1710 H 161.248 -0.0924117 4.33702 0
M  V30 1711 H 161.919 -1.37799 5.34524 0
M  V30 1712 H 164.395 -2.13327 3.57255 0
M  V30 1713 H 163.271 -3.18619 4.4696 0
M  V30 1714 H 163.532 -3.45842 2.75401 0
M  V30 1715 N 162.591 -1.51276 -0.441967 0
M  V30 1716 C 163.837 -1.63958 -1.19355 0
M  V30 1717 C 164.17 -0.352543 -1.90973 0
M  V30 1718 O 163.445 0.647627 -1.83401 0
M  V30 1719 C 163.728 -2.83979 -2.21422 0
M  V30 1720 C 163.581 -4.22646 -1.53918 0
M  V30 1721 C 164.9 -2.99521 -3.22451 0
M  V30 1722 H 162.019 -0.596709 -0.432559 0
M  V30 1723 H 164.661 -1.83748 -0.483398 0
M  V30 1724 H 162.811 -2.67237 -2.81987 0
M  V30 1725 H 164.483 -4.51045 -0.967256 0
M  V30 1726 H 162.726 -4.25558 -0.841615 0
M  V30 1727 H 163.397 -5.02609 -2.28229 0
M  V30 1728 H 165.873 -3.14944 -2.71937 0
M  V30 1729 H 164.749 -3.85072 -3.91166 0
M  V30 1730 H 165.01 -2.11391 -3.88287 0
M  V30 1731 N 164.069 0.697108 -1.41344 0
M  V30 1732 C 165.318 1.45279 -1.39918 0
M  V30 1733 C 165.631 1.95597 -0.0109624 0
M  V30 1734 O 166.837 2.71208 0.125919 0
M  V30 1735 C 165.293 2.62695 -2.46007 0
M  V30 1736 C 164.901 2.19169 -3.90729 0
M  V30 1737 C 166.645 3.40336 -2.53715 0
M  V30 1738 C 164.552 3.33535 -4.88373 0
M  V30 1739 H 163.482 0.545692 -0.520323 0
M  V30 1740 H 166.133 0.756929 -1.67161 0
M  V30 1741 H 164.515 3.34541 -2.11892 0
M  V30 1742 H 165.689 1.54623 -4.34083 0
M  V30 1743 H 164.004 1.54525 -3.86666 0
M  V30 1744 H 166.601 4.2547 -3.2385 0
M  V30 1745 H 166.944 3.85418 -1.5735 0
M  V30 1746 H 167.477 2.75546 -2.86913 0
M  V30 1747 H 164.216 2.93468 -5.86137 0
M  V30 1748 H 163.736 3.96936 -4.49668 0
M  V30 1749 H 165.415 3.99335 -5.09059 0
M  V30 1750 N 165.547 1.27147 0.931209 0
M  V30 1751 C 166.958 1.12044 1.49342 0
M  V30 1752 C 167.309 -0.295795 1.93957 0
M  V30 1753 O 166.434 -1.18835 1.80852 0
M  V30 1754 C 167.029 2.02781 2.71414 0
M  V30 1755 C 165.588 1.91794 3.2387 0
M  V30 1756 C 164.735 1.95543 1.96617 0
M  V30 1757 H 167.686 1.40091 0.745672 0
M  V30 1758 H 167.707 1.58156 3.46074 0
M  V30 1759 H 167.219 3.05848 2.38911 0
M  V30 1760 H 165.32 0.916992 3.6114 0
M  V30 1761 H 165.433 2.77852 3.90302 0
M  V30 1762 H 163.797 1.39722 2.12955 0
M  V30 1763 H 164.58 3.00259 1.66432 0
M  V30 1764 N 167.025 -1.13721 1.09112 0
M  V30 1765 C 167.988 -2.17222 0.731241 0
M  V30 1766 C 168.988 -1.59035 -0.237566 0
M  V30 1767 O 170.178 -1.74192 -0.0161704 0
M  V30 1768 C 167.31 -3.40804 0.0808443 0
M  V30 1769 H 168.503 -2.50573 1.64783 0
M  V30 1770 H 166.056 -1.28493 0.889897 0
M  V30 1771 H 166.791 -3.1304 -0.847127 0
M  V30 1772 H 166.576 -3.84306 0.777896 0
M  V30 1773 H 168.066 -4.1731 -0.155657 0
M  V30 1774 N 168.503 -0.877838 -1.30888 0
M  V30 1775 C 169.433 -0.35534 -2.3078 0
M  V30 1776 C 170.414 0.557994 -1.60687 0
M  V30 1777 O 171.599 0.473355 -1.88343 0
M  V30 1778 C 168.729 0.437221 -3.44537 0
M  V30 1779 C 167.683 -0.383715 -4.26276 0
M  V30 1780 C 167.009 0.535014 -5.32017 0
M  V30 1781 C 168.309 -1.62201 -4.96476 0
M  V30 1782 H 170.003 -1.19007 -2.74732 0
M  V30 1783 H 167.549 -0.573698 -1.32078 0
M  V30 1784 H 169.502 0.813334 -4.13477 0
M  V30 1785 H 168.226 1.30553 -2.99372 0
M  V30 1786 H 166.885 -0.741874 -3.59015 0
M  V30 1787 H 166.533 1.40083 -4.831 0
M  V30 1788 H 166.233 -0.0104211 -5.87599 0
M  V30 1789 H 167.757 0.907799 -6.03814 0
M  V30 1790 H 169.171 -1.31689 -5.5797 0
M  V30 1791 H 167.568 -2.10711 -5.61891 0
M  V30 1792 H 168.638 -2.37044 -4.23011 0
M  V30 1793 N 169.982 1.44106 -0.638065 0
M  V30 1794 C 171.229 2.01978 -0.14533 0
M  V30 1795 C 171.557 1.50234 1.23532 0
M  V30 1796 O 170.812 0.679548 1.83523 0
M  V30 1797 C 171.111 3.5729 -0.0887327 0
M  V30 1798 C 170.777 4.28317 -1.40909 0
M  V30 1799 C 169.439 4.47437 -1.77069 0
M  V30 1800 C 171.791 4.6867 -2.28031 0
M  V30 1801 C 169.119 5.04171 -3.00047 0
M  V30 1802 C 171.471 5.26766 -3.50286 0
M  V30 1803 C 170.135 5.44104 -3.86661 0
M  V30 1804 H 169.405 0.739089 -0.0531801 0
M  V30 1805 H 172.052 1.72781 -0.825761 0
M  V30 1806 H 170.357 3.8594 0.675095 0
M  V30 1807 H 172.054 3.99807 0.309145 0
M  V30 1808 H 168.644 4.1377 -1.1177 0
M  V30 1809 H 172.828 4.53604 -2.01388 0
M  V30 1810 H 168.084 5.15782 -3.28298 0
M  V30 1811 H 172.258 5.56983 -4.18023 0
M  V30 1812 H 169.885 5.87832 -4.82034 0
M  V30 1813 N 171.46 0.379036 1.52974 0
M  V30 1814 C 172.708 -0.206014 2.01047 0
M  V30 1815 C 173.029 -1.48175 1.26765 0
M  V30 1816 O 172.299 -1.92085 0.384743 0
M  V30 1817 H 170.879 -0.0791184 0.742798 0
M  V30 1818 H 173.541 0.508366 1.88153 0
M  V30 1819 H 172.637 -0.423501 3.09213 0
M  V30 1820 N 172.938 -1.57226 0.108567 0
M  V30 1821 C 174.186 -1.94448 -0.550853 0
M  V30 1822 C 174.507 -0.992074 -1.67878 0
M  V30 1823 O 173.777 -0.0465 -1.95845 0
M  V30 1824 H 172.357 -0.717897 -0.206479 0
M  V30 1825 H 175.019 -1.94112 0.175062 0
M  V30 1826 H 174.115 -2.97218 -0.952259 0
M  V30 1827 N 174.416 0.165178 -1.56732 0
M  V30 1828 C 175.663 0.880807 -1.8234 0
M  V30 1829 C 175.991 1.81977 -0.686621 0
M  V30 1830 O 175.246 1.92971 0.325697 0
M  V30 1831 C 175.545 1.70405 -3.1416 0
M  V30 1832 C 175.211 0.913475 -4.4155 0
M  V30 1833 C 173.873 0.695303 -4.7615 0
M  V30 1834 C 176.225 0.359349 -5.1996 0
M  V30 1835 C 173.553 -0.0879947 -5.86634 0
M  V30 1836 C 175.905 -0.410893 -6.31264 0
M  V30 1837 C 174.569 -0.639808 -6.64427 0
M  V30 1838 H 173.839 0.32231 -0.667231 0
M  V30 1839 H 176.486 0.145402 -1.90947 0
M  V30 1840 H 174.791 2.50903 -3.00923 0
M  V30 1841 H 176.488 2.26091 -3.31186 0
M  V30 1842 H 173.078 1.09357 -4.14414 0
M  V30 1843 H 177.262 0.515228 -4.93618 0
M  V30 1844 H 172.518 -0.27503 -6.10781 0
M  V30 1845 H 176.692 -0.847494 -6.91224 0
M  V30 1846 H 174.319 -1.24864 -7.49875 0
M  V30 1847 N 175.894 1.51508 0.433938 0
M  V30 1848 C 177.142 1.6402 1.18075 0
M  V30 1849 C 177.463 0.360328 1.91642 0
M  V30 1850 O 176.733 -0.623945 1.85698 0
M  V30 1851 H 175.313 0.6045 0.43885 0
M  V30 1852 H 177.975 1.88452 0.497178 0
M  V30 1853 H 177.071 2.46949 1.90847 0
M  V30 1854 N 177.372 -0.689602 1.41712 0
M  V30 1855 C 178.32 -1.82475 1.44242 0
M  V30 1856 C 179.314 -1.66354 0.319774 0
M  V30 1857 O 180.52 -1.73143 0.492089 0
M  V30 1858 H 176.895 -0.601416 0.451445 0
M  V30 1859 H 178.866 -1.77458 2.39899 0
M  V30 1860 C 177.615 -3.20535 1.3473 0
M  V30 1861 H 176.938 -3.33559 2.20405 0
M  V30 1862 H 178.378 -4.00023 1.40562 0
M  V30 1863 C 176.837 -3.36846 0.0603281 0
M  V30 1864 O 177.367 -3.91656 -0.892663 0
M  V30 1865 N 175.573 -2.90595 -0.0177039 0
M  V30 1866 H 175.12 -2.46178 0.758572 0
M  V30 1867 H 175.078 -3.01886 -0.878201 0
M  V30 1868 N 178.85 -1.27639 -0.924453 0
M  V30 1869 C 180.08 -1.16819 -1.70402 0
M  V30 1870 C 180.488 0.277191 -1.87158 0
M  V30 1871 O 179.831 1.20025 -1.39067 0
M  V30 1872 C 179.893 -1.78305 -3.12166 0
M  V30 1873 C 179.557 -3.27502 -3.18734 0
M  V30 1874 C 180.554 -4.2409 -3.00738 0
M  V30 1875 C 178.239 -3.68269 -3.4159 0
M  V30 1876 C 180.233 -5.59422 -3.05492 0
M  V30 1877 C 177.92 -5.0373 -3.45977 0
M  V30 1878 C 178.918 -5.99116 -3.27946 0
M  V30 1879 O 178.606 -7.32108 -3.32074 0
M  V30 1880 H 178.338 -0.406931 -0.539799 0
M  V30 1881 H 180.892 -1.69078 -1.16626 0
M  V30 1882 H 179.122 -1.20528 -3.67437 0
M  V30 1883 H 180.811 -1.62154 -3.72103 0
M  V30 1884 H 181.577 -3.93931 -2.82919 0
M  V30 1885 H 177.456 -2.94496 -3.54673 0
M  V30 1886 H 181 -6.33852 -2.91337 0
M  V30 1887 H 176.897 -5.33543 -3.63321 0
M  V30 1888 H 177.665 -7.40598 -3.48507 0
M  V30 1889 N 180.328 1.1314 -1.09713 0
M  V30 1890 C 181.575 1.84484 -0.834987 0
M  V30 1891 C 181.903 1.83689 0.639418 0
M  V30 1892 O 181.158 1.2724 1.4869 0
M  V30 1893 C 181.457 3.32167 -1.3191 0
M  V30 1894 C 181.123 3.53139 -2.80363 0
M  V30 1895 C 179.785 3.58571 -3.20905 0
M  V30 1896 C 182.137 3.60866 -3.76065 0
M  V30 1897 C 179.465 3.69267 -4.55916 0
M  V30 1898 C 181.817 3.73089 -5.10869 0
M  V30 1899 C 180.481 3.76775 -5.50996 0
M  V30 1900 H 179.751 0.675073 -0.305544 0
M  V30 1901 H 182.398 1.33554 -1.37243 0
M  V30 1902 H 180.703 3.85469 -0.701517 0
M  V30 1903 H 182.4 3.85821 -1.09284 0
M  V30 1904 H 178.99 3.49569 -2.47991 0
M  V30 1905 H 183.174 3.55946 -3.45855 0
M  V30 1906 H 178.43 3.70388 -4.86438 0
M  V30 1907 H 182.604 3.78011 -5.84877 0
M  V30 1908 H 180.231 3.84815 -6.55608 0
M  V30 1909 N 181.806 0.884767 1.30421 0
M  V30 1910 C 182.739 0.295999 2.26272 0
M  V30 1911 C 183.717 -0.58332 1.51777 0
M  V30 1912 O 184.901 -0.53346 1.80794 0
M  V30 1913 C 182.028 -0.57944 3.33707 0
M  V30 1914 C 181.074 0.230525 4.25877 0
M  V30 1915 S 181.907 1.61867 5.1045 0
M  V30 1916 C 183.063 0.749756 6.21393 0
M  V30 1917 H 183.296 1.10848 2.75862 0
M  V30 1918 H 180.829 0.684178 1.38414 0
M  V30 1919 H 182.787 -1.07879 3.96071 0
M  V30 1920 H 181.448 -1.36601 2.82841 0
M  V30 1921 H 180.641 -0.437542 5.02097 0
M  V30 1922 H 180.243 0.662493 3.68086 0
M  V30 1923 H 182.535 -0.0333547 6.77492 0
M  V30 1924 H 183.478 1.48356 6.92384 0
M  V30 1925 H 183.886 0.310751 5.63644 0
M  V30 1926 N 183.284 -1.43765 0.645699 0
M  V30 1927 C 184.695 -1.85193 0.236719 0
M  V30 1928 C 185.046 -1.54045 -1.21509 0
M  V30 1929 O 184.171 -0.985694 -1.92647 0
M  V30 1930 C 184.766 -3.36151 0.422845 0
M  V30 1931 C 183.325 -3.76338 0.0682492 0
M  V30 1932 C 182.472 -2.67538 0.729306 0
M  V30 1933 H 185.423 -1.34025 0.849883 0
M  V30 1934 H 185.444 -3.79032 -0.333904 0
M  V30 1935 H 184.956 -3.5879 1.47958 0
M  V30 1936 H 183.057 -3.59312 -0.986179 0
M  V30 1937 H 183.17 -4.76603 0.488469 0
M  V30 1938 H 181.534 -2.54176 0.163235 0
M  V30 1939 H 182.317 -2.93006 1.78892 0
M  V30 1940 N 184.763 -0.387143 -1.52771 0
M  V30 1941 C 185.693 0.440551 -2.29306 0
M  V30 1942 C 186.674 1.06535 -1.32606 0
M  V30 1943 O 187.859 1.07853 -1.61497 0
M  V30 1944 C 184.989 1.56919 -3.09829 0
M  V30 1945 C 183.943 1.07054 -4.14395 0
M  V30 1946 C 183.269 2.29109 -4.83129 0
M  V30 1947 C 184.569 0.140015 -5.22112 0
M  V30 1948 H 186.263 -0.198026 -2.98744 0
M  V30 1949 H 183.809 -0.09668 -1.43675 0
M  V30 1950 H 185.762 2.15503 -3.62128 0
M  V30 1951 H 184.486 2.23532 -2.3812 0
M  V30 1952 H 183.145 0.507247 -3.63074 0
M  V30 1953 H 182.793 2.94227 -4.0797 0
M  V30 1954 H 182.493 1.96406 -5.53804 0
M  V30 1955 H 184.017 2.88339 -5.38231 0
M  V30 1956 H 185.431 0.633978 -5.69784 0
M  V30 1957 H 183.828 -0.0971485 -6.00021 0
M  V30 1958 H 184.898 -0.811711 -4.78058 0
M  V30 1959 N 186.241 1.57166 -0.116904 0
M  V30 1960 C 187.191 2.11756 0.845178 0
M  V30 1961 C 188.175 1.03783 1.22955 0
M  V30 1962 O 189.367 1.3002 1.20099 0
M  V30 1963 C 186.496 2.71886 2.09602 0
M  V30 1964 C 185.582 3.86937 1.7361 0
M  V30 1965 N 185.973 4.94073 1.08284 0
M  V30 1966 C 184.271 3.97082 2.03082 0
M  V30 1967 C 184.972 5.74477 0.913855 0
M  V30 1968 N 183.948 5.2423 1.43818 0
M  V30 1969 H 187.75 2.91967 0.336523 0
M  V30 1970 H 185.264 1.62174 0.0856332 0
M  V30 1971 H 187.261 3.09338 2.79492 0
M  V30 1972 H 185.921 1.93138 2.61013 0
M  V30 1973 H 186.932 5.12483 0.747067 0
M  V30 1974 H 183.609 3.29372 2.56554 0
M  V30 1975 H 184.999 6.70701 0.40125 0
M  V30 1976 N 187.719 -0.156864 1.56817 0
M  V30 1977 C 188.968 -0.869504 1.81996 0
M  V30 1978 C 189.281 -1.82777 0.696545 0
M  V30 1979 O 190.487 -2.58384 0.833658 0
M  V30 1980 C 188.943 -1.59679 3.22538 0
M  V30 1981 C 188.551 -0.681431 4.42787 0
M  V30 1982 C 190.295 -2.2968 3.56997 0
M  V30 1983 C 188.202 -1.40978 5.74351 0
M  V30 1984 H 187.132 -0.328438 0.678708 0
M  V30 1985 H 189.783 -0.1223 1.83092 0
M  V30 1986 H 188.165 -2.38927 3.158 0
M  V30 1987 H 189.339 0.0751166 4.60739 0
M  V30 1988 H 187.654 -0.0903431 4.16302 0
M  V30 1989 H 190.251 -2.84794 4.52544 0
M  V30 1990 H 190.594 -3.05707 2.82576 0
M  V30 1991 H 191.127 -1.57361 3.65352 0
M  V30 1992 H 187.866 -0.691561 6.51842 0
M  V30 1993 H 187.386 -2.13929 5.60352 0
M  V30 1994 H 189.065 -1.95337 6.16808 0
M  V30 1995 N 189.197 -1.51736 -0.425897 0
M  V30 1996 C 190.445 -1.64644 -1.17204 0
M  V30 1997 C 190.766 -0.370486 -1.91448 0
M  V30 1998 O 190.036 0.614088 -1.86026 0
M  V30 1999 H 188.616 -0.606819 -0.435638 0
M  V30 2000 H 191.278 -1.88713 -0.487177 0
M  V30 2001 H 190.374 -2.47958 -1.89534 0
M  V30 2002 N 190.675 0.682077 -1.42076 0
M  V30 2003 C 191.638 1.77756 -1.44691 0
M  V30 2004 C 192.638 1.5726 -0.335535 0
M  V30 2005 O 193.828 1.63686 -0.596037 0
M  V30 2006 C 190.96 3.16301 -1.27146 0
M  V30 2007 H 192.153 1.76826 -2.42224 0
M  V30 2008 H 189.706 0.891012 -1.28416 0
M  V30 2009 H 190.441 3.22862 -0.305075 0
M  V30 2010 H 190.226 3.32581 -2.07683 0
M  V30 2011 H 191.716 3.96241 -1.31843 0
M  V30 2012 N 192.153 1.28127 0.917671 0
M  V30 2013 C 193.564 1.13622 1.48145 0
M  V30 2014 C 193.915 -0.275207 1.9426 0
M  V30 2015 O 193.04 -1.1691 1.82102 0
M  V30 2016 C 193.635 2.05648 2.69248 0
M  V30 2017 C 192.194 1.95219 3.21818 0
M  V30 2018 C 191.341 1.97618 1.94532 0
M  V30 2019 H 194.292 1.40874 0.730772 0
M  V30 2020 H 194.313 1.61818 3.44377 0
M  V30 2021 H 193.825 3.08365 2.35653 0
M  V30 2022 H 191.926 0.955244 3.60147 0
M  V30 2023 H 192.039 2.81976 3.87333 0
M  V30 2024 H 190.403 1.41973 2.11461 0
M  V30 2025 H 191.186 3.02007 1.63238 0
M  V30 2026 N 193.631 -1.12557 1.10312 0
M  V30 2027 C 194.908 -1.80363 0.756878 0
M  V30 2028 C 195.288 -1.97067 -0.756824 0
M  V30 2029 O 194.636 -1.54601 -1.68259 0
M  V30 2030 C 194.846 -3.14812 1.50647 0
M  V30 2031 C 196.194 -3.90029 1.67817 0
M  V30 2032 O 197.218 -3.24464 1.46974 0
M  V30 2033 O 196.077 -5.07652 2.02365 0
M  V30 2034 H 193.171 -0.780667 0.272926 0
M  V30 2035 H 195.717 -1.19404 1.20586 0
M  V30 2036 H 194.489 -2.97936 2.53672 0
M  V30 2037 H 194.112 -3.83478 1.05026 0
M  V30 2038 N 195.109 -0.891671 -1.2995 0
M  V30 2039 C 196.042 -0.307994 -2.26112 0
M  V30 2040 C 197.02 0.575262 -1.52084 0
M  V30 2041 O 198.204 0.523864 -1.81074 0
M  V30 2042 C 195.331 0.561734 -3.34009 0
M  V30 2043 C 194.377 -0.253107 -4.25748 0
M  V30 2044 S 195.21 -1.64572 -5.09584 0
M  V30 2045 C 196.366 -0.782699 -6.20987 0
M  V30 2046 H 196.599 -1.12309 -2.75271 0
M  V30 2047 H 194.132 -0.691509 -1.38049 0
M  V30 2048 H 196.09 1.05777 -3.96638 0
M  V30 2049 H 194.751 1.35099 -2.83561 0
M  V30 2050 H 193.944 0.410908 -5.02322 0
M  V30 2051 H 193.546 -0.682004 -3.67729 0
M  V30 2052 H 195.838 -0.00257476 -6.775 0
M  V30 2053 H 196.781 -1.52026 -6.91588 0
M  V30 2054 H 197.189 -0.340638 -5.63471 0
M  V30 2055 N 196.587 1.43421 -0.653314 0
M  V30 2056 C 197.55 2.29182 0.0287951 0
M  V30 2057 C 198.55 1.42213 0.750465 0
M  V30 2058 O 199.74 1.63843 0.591701 0
M  V30 2059 C 196.872 3.24278 1.05151 0
M  V30 2060 H 198.065 2.90985 -0.725786 0
M  V30 2061 H 195.618 1.50702 -0.414545 0
M  V30 2062 H 196.353 2.6737 1.83532 0
M  V30 2063 H 196.138 3.88396 0.537687 0
M  V30 2064 H 197.628 3.88647 1.52786 0
M  V30 2065 N 198.065 0.39524 1.52563 0
M  V30 2066 C 199.312 -0.185044 2.01653 0
M  V30 2067 C 199.64 -1.46317 1.28146 0
M  V30 2068 O 198.895 -1.9213 0.372074 0
M  V30 2069 C 199.194 -0.493444 3.53977 0
M  V30 2070 C 198.86 0.69384 4.4553 0
M  V30 2071 C 197.522 1.01954 4.70275 0
M  V30 2072 C 199.874 1.48785 4.99512 0
M  V30 2073 C 197.202 2.14069 5.46252 0
M  V30 2074 C 199.554 2.59965 5.76716 0
M  V30 2075 C 198.218 2.93037 5.99738 0
M  V30 2076 H 197.488 -0.0677123 0.7379 0
M  V30 2077 H 200.135 0.533807 1.8391 0
M  V30 2078 H 198.44 -1.29369 3.69825 0
M  V30 2079 H 200.137 -0.955163 3.89458 0
M  V30 2080 H 196.727 0.429987 4.26438 0
M  V30 2081 H 200.911 1.24946 4.80315 0
M  V30 2082 H 196.167 2.40056 5.62302 0
M  V30 2083 H 200.341 3.21887 6.17545 0
M  V30 2084 H 197.968 3.8003 6.58393 0
M  V30 2085 N 199.544 -1.57102 0.125237 0
M  V30 2086 C 200.955 -1.82384 -0.399142 0
M  V30 2087 C 201.306 -1.04276 -1.66195 0
M  V30 2088 O 200.431 -0.281269 -2.14564 0
M  V30 2089 C 201.026 -3.30821 -0.730932 0
M  V30 2090 C 199.585 -3.56762 -1.19992 0
M  V30 2091 C 198.732 -2.7649 -0.211792 0
M  V30 2092 H 201.683 -1.54786 0.350277 0
M  V30 2093 H 201.704 -3.4579 -1.58775 0
M  V30 2094 H 201.216 -3.87643 0.188345 0
M  V30 2095 H 199.317 -3.05305 -2.13588 0
M  V30 2096 H 199.43 -4.65317 -1.14093 0
M  V30 2097 H 197.794 -2.4489 -0.700085 0
M  V30 2098 H 198.577 -3.36073 0.700691 0
M  V30 2099 N 201.022 0.148545 -1.56898 0
M  V30 2100 C 202.438 0.501131 -1.51528 0
M  V30 2101 C 202.638 1.83458 -0.833399 0
M  V30 2102 O 201.694 2.49259 -0.40328 0
M  V30 2103 C 203.007 0.512864 -2.96294 0
M  V30 2104 C 204.555 0.598487 -3.07225 0
M  V30 2105 C 205.03 0.640897 -4.53494 0
M  V30 2106 N 206.521 0.703163 -4.57832 0
M  V30 2107 C 207.256 0.756935 -5.68382 0
M  V30 2108 N 206.752 0.770147 -6.88506 0
M  V30 2109 N 208.545 0.797698 -5.56411 0
M  V30 2110 H 200.696 -0.725532 -1.99624 0
M  V30 2111 H 202.959 -0.264358 -0.910395 0
M  V30 2112 H 202.665 -0.398691 -3.49433 0
M  V30 2113 H 202.539 1.35133 -3.52163 0
M  V30 2114 H 204.926 1.50046 -2.54106 0
M  V30 2115 H 205.007 -0.267093 -2.54402 0
M  V30 2116 H 204.651 -0.256915 -5.0725 0
M  V30 2117 H 204.581 1.52295 -5.04097 0
M  V30 2118 H 207.072 0.700314 -3.71354 0
M  V30 2119 H 207.385 0.812983 -7.68512 0
M  V30 2120 H 205.73 0.738049 -6.9107 0
M  V30 2121 H 208.921 0.784535 -4.61479 0
M  V30 2122 H 209.094 0.83614 -6.42583 0
M  V30 2123 N 202.5 1.5196 0.417844 0
M  V30 2124 C 203.433 1.69387 1.52916 0
M  V30 2125 C 204.411 0.541419 1.53321 0
M  V30 2126 O 205.595 0.767695 1.72159 0
M  V30 2127 C 202.722 1.72525 2.91467 0
M  V30 2128 C 201.768 2.93967 3.09008 0
M  V30 2129 S 202.601 4.54461 2.83242 0
M  V30 2130 C 203.757 4.60372 4.24038 0
M  V30 2131 H 203.99 2.63382 1.37903 0
M  V30 2132 H 201.523 1.41889 0.608845 0
M  V30 2133 H 203.481 1.75018 3.7132 0
M  V30 2134 H 202.142 0.796733 3.03827 0
M  V30 2135 H 201.335 2.92619 4.10353 0
M  V30 2136 H 200.937 2.89316 2.37007 0
M  V30 2137 H 203.229 4.37213 5.17544 0
M  V30 2138 H 204.172 5.62273 4.30412 0
M  V30 2139 H 204.58 3.89492 4.08602 0
M  V30 2140 N 203.978 -0.674533 1.42435 0
M  V30 2141 C 204.926 -1.80934 1.46169 0
M  V30 2142 C 205.92 -1.66006 0.3374 0
M  V30 2143 O 207.126 -1.72611 0.510425 0
M  V30 2144 H 203.501 -0.596594 0.457798 0
M  V30 2145 H 205.472 -1.74903 2.41767 0
M  V30 2146 C 204.221 -3.19088 1.38123 0
M  V30 2147 H 203.544 -3.31203 2.23931 0
M  V30 2148 H 204.984 -3.9851 1.44797 0
M  V30 2149 C 203.443 -3.36763 0.0960517 0
M  V30 2150 O 203.973 -3.92581 -0.851073 0
M  V30 2151 N 202.179 -2.90597 0.0131186 0
M  V30 2152 H 201.726 -2.45359 0.784639 0
M  V30 2153 H 201.684 -3.028 -0.846133 0
M  V30 2154 N 205.456 -1.28612 -0.910864 0
M  V30 2155 C 206.404 -1.1265 -2.03501 0
M  V30 2156 C 207.398 -0.0450054 -1.6934 0
M  V30 2157 O 208.604 -0.203988 -1.7884 0
M  V30 2158 H 204.979 -0.347639 -0.666822 0
M  V30 2159 H 206.95 -2.07849 -2.14106 0
M  V30 2160 C 205.699 -0.808143 -3.38178 0
M  V30 2161 H 205.022 -1.63231 -3.6496 0
M  V30 2162 H 206.462 -0.736426 -4.17556 0
M  V30 2163 C 204.921 0.488226 -3.33344 0
M  V30 2164 O 205.451 1.51766 -3.71927 0
M  V30 2165 N 203.657 0.490009 -2.86439 0
M  V30 2166 H 203.204 -0.348161 -2.55236 0
M  V30 2167 H 203.162 1.35741 -2.83587 0
M  V30 2168 N 206.934 1.1197 -1.10907 0
M  V30 2169 C 207.864 2.19928 -0.784473 0
M  V30 2170 C 208.845 1.6833 0.244726 0
M  V30 2171 O 210.03 1.93892 0.109418 0
M  V30 2172 C 207.16 3.46597 -0.220827 0
M  V30 2173 C 206.114 4.11376 -1.18127 0
M  V30 2174 C 205.44 5.32554 -0.478594 0
M  V30 2175 C 206.74 4.56945 -2.52979 0
M  V30 2176 H 208.434 2.47337 -1.68715 0
M  V30 2177 H 205.98 1.18879 -0.812642 0
M  V30 2178 H 207.933 4.21396 0.0184278 0
M  V30 2179 H 206.657 3.1863 0.717113 0
M  V30 2180 H 205.316 3.38564 -1.40606 0
M  V30 2181 H 204.964 5.00856 0.463976 0
M  V30 2182 H 204.664 5.76844 -1.11912 0
M  V30 2183 H 206.188 6.10096 -0.248 0
M  V30 2184 H 207.602 5.23093 -2.3462 0
M  V30 2185 H 205.999 5.1203 -3.12962 0
M  V30 2186 H 207.069 3.70676 -3.12614 0
M  V30 2187 N 208.412 0.89855 1.29475 0
M  V30 2188 C 209.637 0.538561 2.00285 0
M  V30 2189 C 210.062 -0.869135 1.66816 0
M  V30 2190 O 209.42 -1.57831 0.892145 0
M  V30 2191 C 209.468 0.736475 3.52999 0
M  V30 2192 O 208.572 -0.211537 4.11857 0
M  V30 2193 H 207.913 0.210563 0.62973 0
M  V30 2194 H 210.443 1.20982 1.64998 0
M  V30 2195 H 210.453 0.640685 4.02938 0
M  V30 2196 H 209.128 1.76276 3.76696 0
M  V30 2197 H 207.705 -0.0682991 3.72837 0
M  V30 2198 N 209.89 -1.43072 0.660911 0
M  V30 2199 C 211.12 -2.05769 0.185153 0
M  V30 2200 C 211.528 -1.49668 -1.15742 0
M  V30 2201 O 210.871 -0.625649 -1.72717 0
M  V30 2202 C 210.933 -3.59489 0.0278237 0
M  V30 2203 C 210.597 -4.38212 1.2969 0
M  V30 2204 C 211.594 -4.69772 2.22734 0
M  V30 2205 C 209.279 -4.7809 1.54063 0
M  V30 2206 C 211.273 -5.40129 3.38437 0
M  V30 2207 C 208.96 -5.4819 2.70058 0
M  V30 2208 C 209.958 -5.79132 3.62071 0
M  V30 2209 O 209.646 -6.47798 4.76039 0
M  V30 2210 H 209.378 -0.669873 0.0908086 0
M  V30 2211 H 211.932 -1.84436 0.90402 0
M  V30 2212 H 210.162 -3.79426 -0.746489 0
M  V30 2213 H 211.851 -4.03862 -0.406275 0
M  V30 2214 H 212.617 -4.39476 2.05149 0
M  V30 2215 H 208.496 -4.53408 0.833215 0
M  V30 2216 H 212.04 -5.64198 4.10277 0
M  V30 2217 H 207.937 -5.77902 2.87574 0
M  V30 2218 H 208.705 -6.66283 4.75404 0
M  V30 2219 N 211.368 -0.403325 -1.52352 0
M  V30 2220 C 212.614 0.167015 -2.02713 0
M  V30 2221 C 212.969 1.43296 -1.28391 0
M  V30 2222 O 212.262 1.87796 -0.379885 0
M  V30 2223 C 212.456 0.474665 -3.54234 0
M  V30 2224 C 212.285 -0.759909 -4.43233 0
M  V30 2225 C 211.055 -1.28338 -4.88731 0
M  V30 2226 C 213.253 -1.63634 -4.87574 0
M  V30 2227 N 211.235 -2.47404 -5.6184 0
M  V30 2228 C 212.606 -2.67329 -5.59406 0
M  V30 2229 C 214.661 -1.65478 -4.69597 0
M  V30 2230 C 213.364 -3.72773 -6.15169 0
M  V30 2231 C 215.39 -2.69837 -5.26253 0
M  V30 2232 C 214.752 -3.72253 -5.98002 0
M  V30 2233 H 210.851 0.0228343 -0.781667 0
M  V30 2234 H 213.435 -0.556368 -1.86581 0
M  V30 2235 H 211.606 1.16709 -3.7045 0
M  V30 2236 H 213.338 1.03338 -3.91284 0
M  V30 2237 H 210.093 -0.842273 -4.6605 0
M  V30 2238 H 210.517 -3.07688 -6.0304 0
M  V30 2239 H 215.159 -0.876389 -4.13617 0
M  V30 2240 H 212.877 -4.51471 -6.70223 0
M  V30 2241 H 216.463 -2.72164 -5.14216 0
M  V30 2242 H 215.343 -4.51679 -6.41058 0
M  V30 2243 N 212.846 1.57033 -0.133567 0
M  V30 2244 C 213.776 2.1909 0.807567 0
M  V30 2245 C 214.757 1.13517 1.26681 0
M  V30 2246 O 215.942 1.41809 1.32679 0
M  V30 2247 C 213.072 2.80188 2.05212 0
M  V30 2248 C 212.026 3.91471 1.73015 0
M  V30 2249 C 211.352 4.39443 3.04622 0
M  V30 2250 C 212.652 5.12886 0.987168 0
M  V30 2251 H 214.346 2.97988 0.290403 0
M  V30 2252 H 211.892 1.43335 0.138239 0
M  V30 2253 H 213.845 3.22264 2.71521 0
M  V30 2254 H 212.569 1.98601 2.59278 0
M  V30 2255 H 211.228 3.49993 1.0909 0
M  V30 2256 H 210.876 3.54695 3.56651 0
M  V30 2257 H 210.576 5.14495 2.83847 0
M  V30 2258 H 212.1 4.8418 3.72024 0
M  V30 2259 H 213.514 5.51891 1.55208 0
M  V30 2260 H 211.911 5.93615 0.87985 0
M  V30 2261 H 212.981 4.84894 -0.0235286 0
M  V30 2262 N 214.325 -0.140222 1.56975 0
M  V30 2263 C 215.555 -0.865181 1.87612 0
M  V30 2264 C 215.963 -1.74942 0.72055 0
M  V30 2265 O 215.306 -1.80917 -0.318561 0
M  V30 2266 C 215.368 -1.76782 3.13031 0
M  V30 2267 C 215.032 -1.06005 4.44536 0
M  V30 2268 C 216.029 -0.410768 5.18275 0
M  V30 2269 C 213.714 -1.04754 4.91255 0
M  V30 2270 C 215.708 0.241572 6.36942 0
M  V30 2271 C 213.395 -0.391394 6.09845 0
M  V30 2272 C 214.393 0.252029 6.82535 0
M  V30 2273 O 214.081 0.897757 7.98871 0
M  V30 2274 H 213.813 -0.255188 0.625983 0
M  V30 2275 H 216.367 -0.135653 2.04952 0
M  V30 2276 H 214.597 -2.53846 2.91718 0
M  V30 2277 H 216.286 -2.36533 3.29859 0
M  V30 2278 H 217.052 -0.412195 4.83245 0
M  V30 2279 H 212.931 -1.53777 4.34596 0
M  V30 2280 H 216.475 0.744375 6.93617 0
M  V30 2281 H 212.372 -0.387656 6.44335 0
M  V30 2282 H 213.14 0.800102 8.1458 0
M  V30 2283 N 215.803 -1.52179 -0.40978 0
M  V30 2284 C 217.049 -1.66453 -1.15851 0
M  V30 2285 C 217.382 -0.392972 -1.90182 0
M  V30 2286 O 216.657 0.608579 -1.84734 0
M  V30 2287 C 216.94 -2.88612 -2.15349 0
M  V30 2288 C 216.793 -4.25815 -1.44918 0
M  V30 2289 C 218.112 -3.06294 -3.16026 0
M  V30 2290 H 215.231 -0.60575 -0.419805 0
M  V30 2291 H 217.873 -1.84732 -0.444314 0
M  V30 2292 H 216.023 -2.73158 -2.76255 0
M  V30 2293 H 217.695 -4.52995 -0.871365 0
M  V30 2294 H 215.938 -4.27247 -0.751159 0
M  V30 2295 H 216.609 -5.07337 -2.17516 0
M  V30 2296 H 219.085 -3.20641 -2.65195 0
M  V30 2297 H 217.961 -3.93283 -3.8291 0
M  V30 2298 H 218.222 -2.19579 -3.83715 0
M  V30 2299 N 217.281 0.66697 -1.42791 0
M  V30 2300 C 218.244 1.76211 -1.46568 0
M  V30 2301 C 219.244 1.56896 -0.352196 0
M  V30 2302 O 220.434 1.63044 -0.613364 0
M  V30 2303 C 217.566 3.14935 -1.30494 0
M  V30 2304 H 218.759 1.74247 -2.44086 0
M  V30 2305 H 216.312 0.877342 -1.29354 0
M  V30 2306 H 217.047 3.2252 -0.339301 0
M  V30 2307 H 216.832 3.30359 -2.11199 0
M  V30 2308 H 218.322 3.94821 -1.36038 0
M  V30 2309 N 218.759 1.29093 0.90403 0
M  V30 2310 C 220.007 1.16583 1.65085 0
M  V30 2311 C 220.328 -0.283933 1.92922 0
M  V30 2312 O 219.598 -1.19509 1.55224 0
M  V30 2313 H 218.178 0.428467 0.611903 0
M  V30 2314 H 220.84 1.61959 1.08422 0
M  V30 2315 H 219.936 1.71266 2.6091 0
M  V30 2316 N 220.237 -1.11381 1.11499 0
M  V30 2317 C 221.465 -1.86934 0.88675 0
M  V30 2318 C 221.88 -1.80195 -0.563476 0
M  V30 2319 O 221.237 -1.18367 -1.38908 0
M  V30 2320 C 221.288 -3.35722 1.34064 0
M  V30 2321 O 221.009 -3.4232 2.73401 0
M  V30 2322 C 222.51 -4.2818 1.14791 0
M  V30 2323 H 219.73 -0.591117 0.317523 0
M  V30 2324 H 222.274 -1.40865 1.48248 0
M  V30 2325 H 220.429 -3.79294 0.788355 0
M  V30 2326 H 220.843 -4.34971 2.93087 0
M  V30 2327 H 222.317 -5.30817 1.5145 0
M  V30 2328 H 222.794 -4.39113 0.0875279 0
M  V30 2329 H 223.4 -3.90402 1.68721 0
M  V30 2330 N 221.715 -0.905404 -1.28997 0
M  V30 2331 C 222.94 -0.549175 -1.99997 0
M  V30 2332 C 223.365 0.860276 -1.67275 0
M  V30 2333 O 222.723 1.57355 -0.900502 0
M  V30 2334 C 222.771 -0.755185 -3.52604 0
M  V30 2335 O 221.875 0.189692 -4.11964 0
M  V30 2336 H 221.216 -0.213899 -0.628604 0
M  V30 2337 H 223.746 -1.21856 -1.64354 0
M  V30 2338 H 223.756 -0.662045 -4.02593 0
M  V30 2339 H 222.431 -1.78271 -3.75755 0
M  V30 2340 H 221.008 0.0485257 -3.72868 0
M  V30 2341 N 223.193 1.4272 -0.668489 0
M  V30 2342 C 224.123 2.335 -0.000100175 0
M  V30 2343 C 225.104 1.50328 0.795964 0
M  V30 2344 O 226.289 1.78949 0.754385 0
M  V30 2345 C 223.419 3.33874 0.956302 0
M  V30 2346 C 222.373 4.27152 0.269278 0
M  V30 2347 C 221.699 5.17684 1.33818 0
M  V30 2348 C 222.999 5.15373 -0.847805 0
M  V30 2349 H 224.693 2.89639 -0.758244 0
M  V30 2350 H 222.239 1.39269 -0.366079 0
M  V30 2351 H 224.192 3.9629 1.43292 0
M  V30 2352 H 222.916 2.76025 1.74579 0
M  V30 2353 H 221.575 3.66123 -0.187042 0
M  V30 2354 H 221.223 4.56165 2.1195 0
M  V30 2355 H 220.923 5.80918 0.883659 0
M  V30 2356 H 222.447 5.82974 1.81586 0
M  V30 2357 H 223.861 5.7151 -0.452681 0
M  V30 2358 H 222.258 5.87407 -1.22773 0
M  V30 2359 H 223.328 4.5415 -1.69929 0
M  V30 2360 N 224.671 0.411399 1.52136 0
M  V30 2361 C 225.634 -0.401089 2.25663 0
M  V30 2362 C 226.634 -0.971732 1.28117 0
M  V30 2363 O 227.824 -0.850254 1.52041 0
M  V30 2364 C 224.956 -1.56483 3.02863 0
M  V30 2365 H 226.149 0.24295 2.98914 0
M  V30 2366 H 223.702 0.163968 1.55438 0
M  V30 2367 H 224.437 -2.24567 2.33967 0
M  V30 2368 H 224.222 -1.16211 3.74483 0
M  V30 2369 H 225.712 -2.13951 3.58629 0
M  V30 2370 N 226.149 -1.5696 0.141893 0
M  V30 2371 C 227.395 -1.9625 -0.511248 0
M  V30 2372 C 227.728 -1.02654 -1.64851 0
M  V30 2373 O 227.003 -0.0679676 -1.94381 0
M  V30 2374 C 227.286 -3.45285 -1.02227 0
M  V30 2375 C 227.139 -4.49658 0.113138 0
M  V30 2376 C 228.458 -3.96698 -1.90574 0
M  V30 2377 H 225.577 -0.713567 -0.184367 0
M  V30 2378 H 228.219 -1.88698 0.222087 0
M  V30 2379 H 226.369 -3.51852 -1.64719 0
M  V30 2380 H 228.041 -4.55174 0.749302 0
M  V30 2381 H 226.284 -4.26857 0.773026 0
M  V30 2382 H 226.955 -5.51258 -0.286053 0
M  V30 2383 H 229.431 -3.92578 -1.37918 0
M  V30 2384 H 228.307 -5.01453 -2.2324 0
M  V30 2385 H 228.568 -3.3875 -2.84079 0
M  V30 2386 N 227.627 0.131896 -1.57047 0
M  V30 2387 C 228.59 1.14638 -1.98471 0
M  V30 2388 C 229.59 1.35029 -0.873148 0
M  V30 2389 O 230.78 1.31764 -1.13946 0
M  V30 2390 C 227.912 2.50358 -2.31373 0
M  V30 2391 H 229.105 0.79064 -2.8929 0
M  V30 2392 H 226.658 0.375761 -1.51716 0
M  V30 2393 H 227.393 2.90876 -1.43393 0
M  V30 2394 H 227.178 2.36915 -3.12432 0
M  V30 2395 H 228.668 3.23395 -2.64207 0
M  V30 2396 N 229.106 1.52395 0.401703 0
M  V30 2397 C 230.331 1.70972 1.17403 0
M  V30 2398 C 230.756 0.421615 1.83314 0
M  V30 2399 O 230.114 -0.621564 1.70312 0
M  V30 2400 C 230.162 2.85151 2.20728 0
M  V30 2401 O 229.266 2.51238 3.27037 0
M  V30 2402 H 228.607 0.568927 0.342372 0
M  V30 2403 H 231.137 1.99131 0.469891 0
M  V30 2404 H 231.147 3.10279 2.64936 0
M  V30 2405 H 229.822 3.78603 1.7214 0
M  V30 2406 H 228.399 2.36808 2.88057 0
M  V30 2407 N 230.584 -0.659388 1.43143 0
M  V30 2408 C 231.514 -1.78422 1.50625 0
M  V30 2409 C 232.495 -1.66216 0.361443 0
M  V30 2410 O 233.68 -1.85404 0.577834 0
M  V30 2411 C 230.81 -3.16815 1.42287 0
M  V30 2412 C 229.764 -3.43777 2.54954 0
M  V30 2413 C 229.09 -4.81905 2.31671 0
M  V30 2414 C 230.39 -3.39134 3.97222 0
M  V30 2415 H 232.084 -1.72417 2.44771 0
M  V30 2416 H 229.63 -0.828084 1.17808 0
M  V30 2417 H 231.583 -3.95253 1.46127 0
M  V30 2418 H 230.307 -3.23534 0.446435 0
M  V30 2419 H 228.966 -2.67707 2.50457 0
M  V30 2420 H 228.614 -4.85294 1.32284 0
M  V30 2421 H 228.314 -5.00906 3.07192 0
M  V30 2422 H 229.838 -5.62609 2.37284 0
M  V30 2423 H 231.252 -4.07518 4.03239 0
M  V30 2424 H 229.649 -3.69671 4.72719 0
M  V30 2425 H 230.719 -2.37426 4.22797 0
M  V30 2426 N 232.062 -1.29571 -0.897171 0
M  V30 2427 C 233.309 -1.17689 -1.6479 0
M  V30 2428 C 233.637 0.27107 -1.92602 0
M  V30 2429 O 232.892 1.21193 -1.53658 0
M  V30 2430 C 233.191 -1.9382 -3.00281 0
M  V30 2431 C 232.857 -3.43522 -2.92068 0
M  V30 2432 C 231.519 -3.84348 -2.89535 0
M  V30 2433 C 233.871 -4.38906 -2.81089 0
M  V30 2434 C 231.199 -5.18869 -2.73846 0
M  V30 2435 C 233.551 -5.73521 -2.66939 0
M  V30 2436 C 232.215 -6.13601 -2.62774 0
M  V30 2437 H 231.485 -0.430654 -0.603008 0
M  V30 2438 H 234.132 -1.60536 -1.04404 0
M  V30 2439 H 232.437 -1.4357 -3.64547 0
M  V30 2440 H 234.134 -1.82028 -3.57305 0
M  V30 2441 H 230.724 -3.11072 -2.94842 0
M  V30 2442 H 234.908 -4.08315 -2.82121 0
M  V30 2443 H 230.164 -5.4903 -2.69027 0
M  V30 2444 H 234.338 -6.47078 -2.57416 0
M  V30 2445 H 231.965 -7.17786 -2.50375 0
M  V30 2446 N 233.54 1.10788 -1.12088 0
M  V30 2447 C 234.503 2.15207 -0.788577 0
M  V30 2448 C 235.503 1.59609 0.195317 0
M  V30 2449 O 236.693 1.74174 -0.0300193 0
M  V30 2450 C 233.825 3.4047 -0.171174 0
M  V30 2451 H 235.018 2.46116 -1.71368 0
M  V30 2452 H 232.571 1.26089 -0.923652 0
M  V30 2453 H 233.306 3.15176 0.763832 0
M  V30 2454 H 233.091 3.82109 -0.879514 0
M  V30 2455 H 234.581 4.17576 0.04496 0
M  V30 2456 N 235.018 0.912232 1.28515 0
M  V30 2457 C 236.429 0.591352 1.77087 0
M  V30 2458 C 236.78 -0.8933 1.74684 0
M  V30 2459 O 235.905 -1.69876 1.34056 0
M  V30 2460 C 236.5 1.06668 3.2157 0
M  V30 2461 C 235.059 0.79675 3.67871 0
M  V30 2462 C 234.206 1.23427 2.48316 0
M  V30 2463 H 237.157 1.09365 1.15 0
M  V30 2464 H 237.178 0.407455 3.78312 0
M  V30 2465 H 236.69 2.14726 3.23287 0
M  V30 2466 H 234.791 -0.270679 3.71616 0
M  V30 2467 H 234.904 1.40343 4.58084 0
M  V30 2468 H 233.268 0.653036 2.46186 0
M  V30 2469 H 234.051 2.32316 2.52753 0
M  V30 2470 N 236.496 -1.42363 0.676048 0
M  V30 2471 C 237.744 -2.01123 0.198437 0
M  V30 2472 C 238.065 -1.53731 -1.19966 0
M  V30 2473 O 237.335 -0.759518 -1.80577 0
M  V30 2474 H 235.915 -0.743678 0.0703721 0
M  V30 2475 H 238.577 -1.74263 0.872837 0
M  V30 2476 H 237.673 -3.11454 0.200686 0
M  V30 2477 N 237.974 -0.419461 -1.51915 0
M  V30 2478 C 239.222 0.152637 -2.01523 0
M  V30 2479 C 239.543 1.44762 -1.30649 0
M  V30 2480 O 238.813 1.90997 -0.435535 0
M  V30 2481 H 237.393 0.0593966 -0.744635 0
M  V30 2482 H 240.055 -0.558073 -1.86739 0
M  V30 2483 H 239.151 0.341369 -3.10227 0
M  V30 2484 N 239.452 1.56882 -0.150215 0
M  V30 2485 C 240.4 2.18214 0.805313 0
M  V30 2486 C 241.394 1.14006 1.25296 0
M  V30 2487 O 242.6 1.3225 1.22107 0
M  V30 2488 H 238.975 0.698762 0.277913 0
M  V30 2489 H 240.946 2.97231 0.263862 0
M  V30 2490 C 239.695 2.82065 2.03309 0
M  V30 2491 H 239.018 3.61968 1.69763 0
M  V30 2492 H 240.458 3.28477 2.68103 0
M  V30 2493 C 238.917 1.80739 2.84315 0
M  V30 2494 O 239.447 1.27983 3.80767 0
M  V30 2495 N 237.653 1.4997 2.48913 0
M  V30 2496 H 237.2 1.93062 1.70542 0
M  V30 2497 H 237.158 0.824217 3.03404 0
M  V30 2498 N 240.93 -0.123565 1.57115 0
M  V30 2499 C 242.178 -0.83051 1.84247 0
M  V30 2500 C 242.499 -1.80629 0.73471 0
M  V30 2501 O 241.769 -1.94403 -0.241688 0
M  V30 2502 H 240.349 -0.309694 0.679778 0
M  V30 2503 H 243.011 -0.111976 1.94578 0
M  V30 2504 H 242.107 -1.37852 2.80006 0
M  V30 2505 N 242.408 -1.52605 -0.393616 0
M  V30 2506 C 243.34 -1.73303 -1.49995 0
M  V30 2507 C 244.353 -0.613473 -1.50799 0
M  V30 2508 O 245.542 -0.889049 -1.54784 0
M  V30 2509 C 242.642 -1.77245 -2.88855 0
M  V30 2510 C 241.815 -3.06483 -3.12069 0
M  V30 2511 C 240.874 -3.02033 -4.30886 0
M  V30 2512 O 239.9 -3.75907 -4.27414 0
M  V30 2513 N 241.102 -2.20897 -5.36828 0
M  V30 2514 H 243.867 -2.68756 -1.32629 0
M  V30 2515 H 241.428 -1.51036 -0.583083 0
M  V30 2516 H 243.42 -1.7178 -3.66434 0
M  V30 2517 H 241.99 -0.891993 -2.99603 0
M  V30 2518 H 241.21 -3.25474 -2.22396 0
M  V30 2519 H 242.498 -3.91947 -3.2443 0
M  V30 2520 H 241.896 -1.60336 -5.42502 0
M  V30 2521 H 240.453 -2.21275 -6.13091 0
M  V30 2522 N 243.887 0.651787 -1.4349 0
M  V30 2523 C 244.817 1.77621 -1.51569 0
M  V30 2524 C 245.798 1.66022 -0.370253 0
M  V30 2525 O 246.983 1.85095 -0.587658 0
M  V30 2526 C 244.113 3.16056 -1.43966 0
M  V30 2527 C 243.067 3.4242 -2.56774 0
M  V30 2528 C 242.393 4.8067 -2.34223 0
M  V30 2529 C 243.693 3.37023 -3.99015 0
M  V30 2530 H 245.387 1.71117 -2.45681 0
M  V30 2531 H 242.933 0.821825 -1.18246 0
M  V30 2532 H 244.886 3.94472 -1.48221 0
M  V30 2533 H 243.61 3.23293 -0.463586 0
M  V30 2534 H 242.269 2.66375 -2.51873 0
M  V30 2535 H 241.917 4.84585 -1.34856 0
M  V30 2536 H 241.617 4.9927 -3.09844 0
M  V30 2537 H 243.141 5.61342 -2.40265 0
M  V30 2538 H 244.555 4.05374 -4.05395 0
M  V30 2539 H 242.952 3.67159 -4.74673 0
M  V30 2540 H 244.022 2.3518 -4.2405 0
M  V30 2541 N 245.365 1.30045 0.890287 0
M  V30 2542 C 246.613 1.18327 1.63839 0
M  V30 2543 C 246.934 -0.263455 1.93212 0
M  V30 2544 O 246.204 -1.17856 1.56482 0
M  V30 2545 H 244.784 0.434933 0.607324 0
M  V30 2546 H 247.446 1.631 1.06698 0
M  V30 2547 H 246.542 1.74024 2.59079 0
M  V30 2548 N 246.843 -1.10192 1.12674 0
M  V30 2549 C 248.068 -1.86523 0.906853 0
M  V30 2550 C 248.493 -1.80221 -0.538711 0
M  V30 2551 O 247.851 -1.17396 -1.38158 0
M  V30 2552 C 247.899 -3.32758 1.3894 0
M  V30 2553 O 247.003 -4.08449 0.5695 0
M  V30 2554 H 246.344 -0.578678 0.325619 0
M  V30 2555 H 248.874 -1.39203 1.49946 0
M  V30 2556 H 248.884 -3.83608 1.38958 0
M  V30 2557 H 247.559 -3.36661 2.44197 0
M  V30 2558 H 246.136 -3.67427 0.636528 0
M  V30 2559 N 248.321 -0.919034 -1.28029 0
M  V30 2560 C 249.569 -0.553838 -1.94363 0
M  V30 2561 C 249.89 0.906357 -1.72656 0
M  V30 2562 O 249.16 1.64143 -1.0693 0
M  V30 2563 H 247.74 -0.201834 -0.719216 0
M  V30 2564 H 250.402 -1.16954 -1.55909 0
M  V30 2565 H 249.498 -0.752758 -3.02886 0
M  V30 2566 N 249.799 1.42003 -0.683588 0
M  V30 2567 C 251.048 2.00638 -0.206681 0
M  V30 2568 C 251.361 1.5472 1.19671 0
M  V30 2569 O 252.567 2.05833 1.77045 0
M  V30 2570 C 251.023 3.58487 -0.318632 0
M  V30 2571 C 250.631 4.1339 -1.72663 0
M  V30 2572 C 252.375 4.24384 0.0991141 0
M  V30 2573 C 250.282 5.63633 -1.79087 0
M  V30 2574 H 249.212 0.750408 -0.0735107 0
M  V30 2575 H 251.863 1.62624 -0.850048 0
M  V30 2576 H 250.245 3.94047 0.392781 0
M  V30 2577 H 251.419 3.89273 -2.46583 0
M  V30 2578 H 249.734 3.59976 -2.09299 0
M  V30 2579 H 252.331 5.34652 0.0713833 0
M  V30 2580 H 252.674 4.00505 1.13586 0
M  V30 2581 H 253.207 3.93816 -0.561599 0
M  V30 2582 H 249.946 5.92323 -2.80774 0
M  V30 2583 H 249.466 5.89714 -1.09535 0
M  V30 2584 H 251.145 6.28201 -1.5483 0
M  V30 2585 N 251.277 0.427512 1.51691 0
M  V30 2586 C 252.525 -0.141948 2.01601 0
M  V30 2587 C 252.846 -1.44067 1.31414 0
M  V30 2588 O 252.116 -1.90763 0.445658 0
M  V30 2589 H 250.696 -0.0554468 0.744939 0
M  V30 2590 H 253.358 0.567968 1.86441 0
M  V30 2591 H 252.454 -0.324913 3.10404 0
M  V30 2592 N 252.755 -1.56801 0.158532 0
M  V30 2593 C 254.001 -1.97559 -0.483957 0
M  V30 2594 C 254.356 -1.04239 -1.61716 0
M  V30 2595 O 253.649 -0.079603 -1.91435 0
M  V30 2596 C 253.843 -3.4235 -1.02623 0
M  V30 2597 C 253.672 -4.49669 0.0528929 0
M  V30 2598 C 252.442 -5.02838 0.498234 0
M  V30 2599 C 254.64 -5.0725 0.848616 0
M  V30 2600 N 252.622 -5.93775 1.559 0
M  V30 2601 C 253.993 -5.94506 1.7596 0
M  V30 2602 C 256.048 -4.89788 0.895121 0
M  V30 2603 C 254.751 -6.66169 2.71314 0
M  V30 2604 C 256.777 -5.62161 1.83654 0
M  V30 2605 C 256.139 -6.49134 2.73503 0
M  V30 2606 H 252.238 -0.768332 -0.145566 0
M  V30 2607 H 254.822 -1.93012 0.255799 0
M  V30 2608 H 252.993 -3.47467 -1.73555 0
M  V30 2609 H 254.725 -3.70145 -1.63629 0
M  V30 2610 H 251.48 -4.73498 0.0983222 0
M  V30 2611 H 251.904 -6.43948 2.08949 0
M  V30 2612 H 256.546 -4.22255 0.21453 0
M  V30 2613 H 254.264 -7.32923 3.40367 0
M  V30 2614 H 257.85 -5.5064 1.87847 0
M  V30 2615 H 256.73 -7.04153 3.45163 0
M  V30 2616 N 254.233 0.115231 -1.57178 0
M  V30 2617 C 255.479 0.82357 -1.85325 0
M  V30 2618 C 255.812 1.79349 -0.744814 0
M  V30 2619 O 255.087 1.92899 0.249024 0
M  V30 2620 C 255.37 1.57014 -3.24066 0
M  V30 2621 C 255.223 0.619565 -4.45513 0
M  V30 2622 C 256.542 2.52545 -3.60429 0
M  V30 2623 H 253.661 0.297948 -0.674089 0
M  V30 2624 H 256.303 0.0877138 -1.89797 0
M  V30 2625 H 254.453 2.19742 -3.20383 0
M  V30 2626 H 256.125 0.000837639 -4.613 0
M  V30 2627 H 254.368 -0.0686174 -4.33746 0
M  V30 2628 H 255.039 1.17866 -5.3927 0
M  V30 2629 H 257.515 1.9992 -3.64926 0
M  V30 2630 H 256.391 3.01811 -4.58477 0
M  V30 2631 H 256.652 3.35383 -2.88047 0
M  V30 2632 N 255.711 1.52812 0.385517 0
M  V30 2633 C 256.641 1.80808 1.47752 0
M  V30 2634 C 257.622 0.660318 1.5676 0
M  V30 2635 O 258.807 0.908246 1.71652 0
M  V30 2636 C 255.937 1.98008 2.85324 0
M  V30 2637 C 254.891 3.13709 2.91154 0
M  V30 2638 C 254.217 3.16169 4.31209 0
M  V30 2639 C 255.517 4.52709 2.60483 0
M  V30 2640 H 257.211 2.72253 1.24573 0
M  V30 2641 H 254.757 1.31003 0.597839 0
M  V30 2642 H 256.71 2.16176 3.61726 0
M  V30 2643 H 255.434 1.03255 3.09848 0
M  V30 2644 H 254.093 2.95329 2.17201 0
M  V30 2645 H 253.741 2.19092 4.52778 0
M  V30 2646 H 253.441 3.93894 4.36029 0
M  V30 2647 H 254.965 3.36496 5.09512 0
M  V30 2648 H 256.379 4.71173 3.26602 0
M  V30 2649 H 254.776 5.32528 2.76648 0
M  V30 2650 H 255.846 4.59186 1.55809 0
M  V30 2651 N 257.189 -0.644168 1.43834 0
M  V30 2652 C 258.419 -1.42939 1.49171 0
M  V30 2653 C 258.827 -1.88874 0.111048 0
M  V30 2654 O 258.17 -1.60656 -0.8908 0
M  V30 2655 C 258.232 -2.69151 2.38324 0
M  V30 2656 C 257.896 -2.45097 3.85715 0
M  V30 2657 C 258.893 -2.07747 4.76589 0
M  V30 2658 C 256.578 -2.59141 4.30292 0
M  V30 2659 C 258.572 -1.8475 6.10038 0
M  V30 2660 C 256.259 -2.35759 5.63792 0
M  V30 2661 C 257.257 -1.9862 6.53482 0
M  V30 2662 O 256.945 -1.75489 7.84512 0
M  V30 2663 H 256.677 -0.445271 0.508635 0
M  V30 2664 H 259.231 -0.79621 1.8934 0
M  V30 2665 H 257.461 -3.3506 1.93058 0
M  V30 2666 H 259.15 -3.31123 2.3476 0
M  V30 2667 H 259.916 -1.96465 4.43426 0
M  V30 2668 H 255.795 -2.87022 3.60749 0
M  V30 2669 H 259.339 -1.55686 6.80006 0
M  V30 2670 H 255.236 -2.46646 5.9652 0
M  V30 2671 H 256.004 -1.89841 7.9618 0
M  V30 2672 N 258.668 -1.30515 -0.883378 0
M  V30 2673 C 260.079 -1.17509 -1.45081 0
M  V30 2674 C 260.43 0.223605 -1.94922 0
M  V30 2675 O 259.555 1.12041 -1.85137 0
M  V30 2676 C 260.15 -2.12715 -2.63701 0
M  V30 2677 C 258.709 -2.03682 -3.16529 0
M  V30 2678 C 257.856 -2.02706 -1.89224 0
M  V30 2679 H 260.807 -1.42762 -0.693165 0
M  V30 2680 H 260.828 -1.70891 -3.39965 0
M  V30 2681 H 260.34 -3.14505 -2.27395 0
M  V30 2682 H 258.441 -1.05039 -3.57488 0
M  V30 2683 H 258.554 -2.92146 -3.7972 0
M  V30 2684 H 256.918 -1.4753 -2.07622 0
M  V30 2685 H 257.701 -3.06229 -1.55174 0
M  V30 2686 N 260.146 1.09593 -1.13257 0
M  V30 2687 C 261.557 1.63229 -0.906274 0
M  V30 2688 C 261.908 1.8811 0.557578 0
M  V30 2689 O 261.033 1.62953 1.42391 0
M  V30 2690 C 261.628 2.96535 -1.63867 0
M  V30 2691 C 260.187 3.47003 -1.45828 0
M  V30 2692 C 259.334 2.2145 -1.66898 0
M  V30 2693 H 262.285 0.92978 -1.28611 0
M  V30 2694 H 262.306 3.64411 -1.09476 0
M  V30 2695 H 261.818 2.78394 -2.70404 0
M  V30 2696 H 259.919 3.70272 -0.415848 0
M  V30 2697 H 260.032 4.24551 -2.2202 0
M  V30 2698 H 258.396 2.30022 -1.09371 0
M  V30 2699 H 259.179 2.0583 -2.74752 0
M  V30 2700 N 261.624 0.925811 1.2754 0
M  V30 2701 C 262.554 0.440748 2.29303 0
M  V30 2702 C 263.535 -0.497971 1.62648 0
M  V30 2703 O 264.72 -0.403126 1.8997 0
M  V30 2704 C 261.85 -0.309048 3.45922 0
M  V30 2705 C 260.804 0.54166 4.24559 0
M  V30 2706 C 260.13 -0.337191 5.33636 0
M  V30 2707 C 261.43 1.80516 4.90114 0
M  V30 2708 H 263.124 1.29121 2.70126 0
M  V30 2709 H 260.67 0.622323 1.29858 0
M  V30 2710 H 262.623 -0.659315 4.1621 0
M  V30 2711 H 261.347 -1.19352 3.04011 0
M  V30 2712 H 260.006 0.874609 3.56014 0
M  V30 2713 H 259.654 -1.22056 4.87966 0
M  V30 2714 H 259.354 0.228497 5.87156 0
M  V30 2715 H 260.878 -0.683072 6.06767 0
M  V30 2716 H 262.292 1.52307 5.52698 0
M  V30 2717 H 260.689 2.3142 5.53683 0
M  V30 2718 H 261.759 2.52581 4.13921 0
M  V30 2719 N 263.102 -1.41638 0.69111 0
M  V30 2720 C 264.327 -2.06148 0.227583 0
M  V30 2721 C 264.752 -1.51652 -1.11281 0
M  V30 2722 O 264.11 -0.64164 -1.69566 0
M  V30 2723 C 264.158 -3.60095 0.190858 0
M  V30 2724 O 263.262 -4.03845 -0.835664 0
M  V30 2725 H 262.603 -0.654434 0.112306 0
M  V30 2726 H 265.133 -1.81484 0.944714 0
M  V30 2727 H 265.143 -4.07995 0.020207 0
M  V30 2728 H 263.818 -3.99129 1.16915 0
M  V30 2729 H 262.395 -3.67458 -0.63473 0
M  V30 2730 N 264.58 -0.43555 -1.51462 0
M  V30 2731 C 265.808 0.130242 -2.0649 0
M  V30 2732 C 266.223 1.36614 -1.30315 0
M  V30 2733 O 265.58 1.78869 -0.362223 0
M  V30 2734 C 265.631 0.454253 -3.58635 0
M  V30 2735 O 265.352 -0.73259 -4.31931 0
M  V30 2736 C 266.853 1.07091 -4.3017 0
M  V30 2737 H 264.073 0.00871669 -0.670943 0
M  V30 2738 H 266.617 -0.614117 -1.95061 0
M  V30 2739 H 264.772 1.14851 -3.69984 0
M  V30 2740 H 265.186 -0.455787 -5.22516 0
M  V30 2741 H 266.66 1.24764 -5.37716 0
M  V30 2742 H 267.137 2.05144 -3.88346 0
M  V30 2743 H 267.743 0.416089 -4.2326 0
M  V30 2744 N 266.058 1.56714 -0.166846 0
M  V30 2745 C 267.283 2.01557 0.488833 0
M  V30 2746 C 267.708 1.0463 1.56314 0
M  V30 2747 O 267.066 0.0251304 1.81283 0
M  V30 2748 C 267.114 3.4503 1.04818 0
M  V30 2749 O 266.218 3.51163 2.16236 0
M  V30 2750 H 265.559 0.653516 0.117526 0
M  V30 2751 H 268.089 2.02818 -0.269421 0
M  V30 2752 H 268.099 3.84243 1.37191 0
M  V30 2753 H 266.774 4.15077 0.261572 0
M  V30 2754 H 265.351 3.23807 1.84942 0
M  V30 2755 N 267.536 -0.106894 1.57237 0
M  V30 2756 C 268.446 -1.14911 2.0453 0
M  V30 2757 C 269.462 -1.44592 0.96795 0
M  V30 2758 O 270.638 -1.55468 1.2803 0
M  V30 2759 C 267.703 -2.45272 2.45036 0
M  V30 2760 C 266.764 -2.22879 3.66911 0
M  V30 2761 C 265.997 -3.47024 4.05475 0
M  V30 2762 O 266.22 -4.54804 3.44252 0
M  V30 2763 O 265.154 -3.3731 4.98504 0
M  V30 2764 H 268.98 -0.777461 2.9358 0
M  V30 2765 H 266.565 -0.318563 1.45964 0
M  V30 2766 H 268.447 -3.22055 2.71769 0
M  V30 2767 H 267.122 -2.81886 1.59129 0
M  V30 2768 H 266.029 -1.43915 3.45311 0
M  V30 2769 H 267.362 -1.91163 4.53561 0
M  V30 2770 N 269.014 -1.53014 -0.377408 0
M  V30 2771 C 270.239 -1.72818 -1.14668 0
M  V30 2772 C 270.664 -0.450725 -1.8262 0
M  V30 2773 O 270.022 0.59439 -1.7128 0
M  V30 2774 C 270.07 -2.88627 -2.16164 0
M  V30 2775 O 269.174 -2.56409 -3.22998 0
M  V30 2776 H 268.515 -0.574301 -0.333278 0
M  V30 2777 H 271.045 -1.99853 -0.438152 0
M  V30 2778 H 271.055 -3.14455 -2.59966 0
M  V30 2779 H 269.73 -3.81294 -1.66095 0
M  V30 2780 H 268.307 -2.4136 -2.84253 0
M  V30 2781 N 270.492 0.636531 -1.44174 0
M  V30 2782 C 271.74 1.39343 -1.46383 0
M  V30 2783 C 272.061 1.94766 -0.0955715 0
M  V30 2784 O 271.331 1.75452 0.871395 0
M  V30 2785 H 269.911 0.517199 -0.538994 0
M  V30 2786 H 272.573 0.74957 -1.7991 0
M  V30 2787 H 271.669 2.22746 -2.18611 0
M  V30 2788 N 271.97 1.30982 0.876444 0
M  V30 2789 C 273.2 1.23063 1.65949 0
M  V30 2790 C 273.608 -0.207537 1.88058 0
M  V30 2791 O 272.951 -1.14781 1.43426 0
M  V30 2792 C 273.013 1.89768 3.05333 0
M  V30 2793 C 272.677 3.39106 3.0636 0
M  V30 2794 C 273.674 4.3496 2.84791 0
M  V30 2795 C 271.359 3.80693 3.27686 0
M  V30 2796 C 273.353 5.70375 2.84519 0
M  V30 2797 C 271.04 5.16223 3.27043 0
M  V30 2798 C 272.038 6.10875 3.05485 0
M  V30 2799 O 271.726 7.43928 3.04674 0
M  V30 2800 H 271.458 0.426685 0.524324 0
M  V30 2801 H 274.012 1.7329 1.10271 0
M  V30 2802 H 272.242 1.34082 3.6271 0
M  V30 2803 H 273.931 1.75853 3.65829 0
M  V30 2804 H 274.697 4.0416 2.68103 0
M  V30 2805 H 270.576 3.07457 3.43499 0
M  V30 2806 H 274.12 6.44228 2.67611 0
M  V30 2807 H 270.017 5.4666 3.43269 0
M  V30 2808 H 270.785 7.53022 3.2078 0
M  V30 2809 N 273.449 -1.08991 1.13837 0
M  V30 2810 C 274.674 -1.85551 0.926585 0
M  V30 2811 C 275.099 -1.80782 -0.519566 0
M  V30 2812 O 274.457 -1.18855 -1.36906 0
M  V30 2813 C 274.505 -3.31266 1.42462 0
M  V30 2814 O 273.609 -4.07822 0.612789 0
M  V30 2815 H 272.95 -0.575192 0.331738 0
M  V30 2816 H 275.48 -1.37604 1.51414 0
M  V30 2817 H 275.49 -3.82112 1.43019 0
M  V30 2818 H 274.165 -3.34052 2.47754 0
M  V30 2819 H 272.742 -3.66731 0.675463 0
M  V30 2820 N 274.927 -0.932562 -1.27047 0
M  V30 2821 C 276.155 -0.592031 -1.98249 0
M  V30 2822 C 276.57 0.831062 -1.69525 0
M  V30 2823 O 275.927 1.55299 -0.958561 0
M  V30 2824 C 275.978 -0.814279 -3.5221 0
M  V30 2825 O 275.699 -2.18139 -3.7993 0
M  V30 2826 C 277.2 -0.483121 -4.4066 0
M  V30 2827 H 274.42 -0.223896 -0.632544 0
M  V30 2828 H 276.964 -1.25091 -1.61779 0
M  V30 2829 H 275.119 -0.20213 -3.86872 0
M  V30 2830 H 275.533 -2.235 -4.74498 0
M  V30 2831 H 277.007 -0.689298 -5.47679 0
M  V30 2832 H 277.484 0.581546 -4.35333 0
M  V30 2833 H 278.09 -1.07362 -4.11526 0
M  V30 2834 N 276.405 1.4127 -0.698611 0
M  V30 2835 C 277.682 1.94955 -0.158762 0
M  V30 2836 C 278.062 1.63781 1.33188 0
M  V30 2837 O 277.41 0.946423 2.07979 0
M  V30 2838 C 277.62 3.46044 -0.453309 0
M  V30 2839 C 278.968 4.22872 -0.382707 0
M  V30 2840 O 279.992 3.54076 -0.388396 0
M  V30 2841 O 278.851 5.45407 -0.345463 0
M  V30 2842 H 275.945 0.82683 -0.0167505 0
M  V30 2843 H 278.491 1.50971 -0.77498 0
M  V30 2844 H 277.263 3.62028 -1.48498 0
M  V30 2845 H 276.886 3.97128 0.19373 0
M  V30 2846 N 277.883 0.443576 1.51229 0
M  V30 2847 C 278.813 -0.355142 2.30783 0
M  V30 2848 C 279.794 -1.0154 1.36468 0
M  V30 2849 O 280.979 -1.01785 1.65389 0
M  V30 2850 C 278.109 -1.45312 3.15439 0
M  V30 2851 C 277.063 -0.916002 4.18083 0
M  V30 2852 C 276.389 -2.1102 4.91299 0
M  V30 2853 C 277.689 0.0538602 5.22272 0
M  V30 2854 H 279.383 0.308767 2.97804 0
M  V30 2855 H 276.929 0.149937 1.43217 0
M  V30 2856 H 278.882 -2.01914 3.69876 0
M  V30 2857 H 277.606 -2.14541 2.46252 0
M  V30 2858 H 276.265 -0.372145 3.64706 0
M  V30 2859 H 275.913 -2.78882 4.18609 0
M  V30 2860 H 275.613 -1.75717 5.60712 0
M  V30 2861 H 277.137 -2.68164 5.48562 0
M  V30 2862 H 278.551 -0.422069 5.71744 0
M  V30 2863 H 276.948 0.319776 5.99247 0
M  V30 2864 H 278.018 0.98858 4.74716 0
M  V30 2865 N 279.361 -1.56624 0.175154 0
M  V30 2866 C 280.324 -2.16934 -0.739738 0
M  V30 2867 C 281.324 -1.11842 -1.15533 0
M  V30 2868 O 282.514 -1.37335 -1.07167 0
M  V30 2869 C 279.646 -2.75531 -2.00738 0
M  V30 2870 H 280.839 -2.99131 -0.214639 0
M  V30 2871 H 278.392 -1.56123 -0.0744197 0
M  V30 2872 H 279.127 -1.97078 -2.57548 0
M  V30 2873 H 278.912 -3.52444 -1.71831 0
M  V30 2874 H 280.402 -3.21904 -2.66021 0
M  V30 2875 N 280.839 0.0985539 -1.57292 0
M  V30 2876 C 282.088 0.801358 -1.85098 0
M  V30 2877 C 282.401 1.80066 -0.763902 0
M  V30 2878 O 283.607 2.55112 -0.928981 0
M  V30 2879 C 282.063 1.47599 -3.28242 0
M  V30 2880 C 281.671 0.516624 -4.45011 0
M  V30 2881 C 283.415 2.16272 -3.65276 0
M  V30 2882 C 281.322 1.19564 -5.79188 0
M  V30 2883 H 280.252 0.303022 -0.69043 0
M  V30 2884 H 282.903 0.0542623 -1.8342 0
M  V30 2885 H 281.285 2.27042 -3.2445 0
M  V30 2886 H 282.459 -0.246065 -4.60143 0
M  V30 2887 H 280.774 -0.064227 -4.1635 0
M  V30 2888 H 283.371 2.67802 -4.62803 0
M  V30 2889 H 283.714 2.95009 -2.93727 0
M  V30 2890 H 284.247 1.43693 -3.70941 0
M  V30 2891 H 280.986 0.449157 -6.53959 0
M  V30 2892 H 280.506 1.92984 -5.67906 0
M  V30 2893 H 282.185 1.7231 -6.23633 0
M  V30 2894 N 282.317 1.53212 0.369288 0
M  V30 2895 C 283.564 1.69215 1.11232 0
M  V30 2896 C 283.892 0.442048 1.8941 0
M  V30 2897 O 283.147 -0.575944 1.87033 0
M  V30 2898 C 283.446 2.89101 2.10132 0
M  V30 2899 C 283.112 4.25758 1.48463 0
M  V30 2900 C 281.774 4.6292 1.31372 0
M  V30 2901 C 284.126 5.10757 1.03811 0
M  V30 2902 C 281.454 5.82722 0.68207 0
M  V30 2903 C 283.806 6.31201 0.420487 0
M  V30 2904 C 282.47 6.67079 0.237038 0
M  V30 2905 H 281.74 0.619201 0.407027 0
M  V30 2906 H 284.387 1.87391 0.394552 0
M  V30 2907 H 282.692 2.65421 2.88199 0
M  V30 2908 H 284.389 2.98676 2.6757 0
M  V30 2909 H 280.979 3.96494 1.62758 0
M  V30 2910 H 285.163 4.82599 1.1581 0
M  V30 2911 H 280.419 6.09113 0.528316 0
M  V30 2912 H 284.593 6.96368 0.0662874 0
M  V30 2913 H 282.22 7.59774 -0.254477 0
M  V30 2914 N 283.795 -0.628877 1.44509 0
M  V30 2915 C 284.758 -1.72263 1.51188 0
M  V30 2916 C 285.758 -1.55907 0.39367 0
M  V30 2917 O 286.948 -1.61361 0.656377 0
M  V30 2918 C 284.08 -3.11365 1.38798 0
M  V30 2919 H 285.273 -1.67714 2.4862 0
M  V30 2920 H 282.826 -0.842737 1.31634 0
M  V30 2921 H 283.561 -3.21507 0.424693 0
M  V30 2922 H 283.346 -3.24644 2.19884 0
M  V30 2923 H 284.836 -3.91075 1.46458 0
M  V30 2924 N 285.273 -1.31445 -0.869486 0
M  V30 2925 C 286.519 -1.21337 -1.62496 0
M  V30 2926 C 286.852 0.227872 -1.92858 0
M  V30 2927 O 286.127 1.16094 -1.56053 0
M  V30 2928 C 286.41 -2.05814 -2.95487 0
M  V30 2929 C 286.263 -3.5824 -2.72 0
M  V30 2930 C 287.582 -1.9079 -3.96594 0
M  V30 2931 H 284.701 -0.442135 -0.589649 0
M  V30 2932 H 287.343 -1.6124 -1.00507 0
M  V30 2933 H 285.493 -1.71913 -3.48394 0
M  V30 2934 H 287.165 -4.0228 -2.25762 0
M  V30 2935 H 285.408 -3.81647 -2.06224 0
M  V30 2936 H 286.079 -4.12657 -3.66631 0
M  V30 2937 H 288.555 -2.20459 -3.52898 0
M  V30 2938 H 287.431 -2.52199 -4.87531 0
M  V30 2939 H 287.692 -0.871341 -4.33428 0
M  V30 2940 N 286.751 1.08385 -1.14413 0
M  V30 2941 C 287.701 2.13509 -0.79987 0
M  V30 2942 C 288.685 1.5951 0.211059 0
M  V30 2943 O 289.877 1.76995 0.0133694 0
M  V30 2944 C 287.006 3.42162 -0.279297 0
M  V30 2945 C 286.092 4.03042 -1.31976 0
M  V30 2946 N 286.483 4.38327 -2.52395 0
M  V30 2947 C 284.781 4.30379 -1.17004 0
M  V30 2948 C 285.482 4.86428 -3.19003 0
M  V30 2949 N 284.458 4.84547 -2.46405 0
M  V30 2950 H 288.26 2.38609 -1.7159 0
M  V30 2951 H 285.774 1.2572 -1.02802 0
M  V30 2952 H 287.771 4.16898 -0.0143688 0
M  V30 2953 H 286.431 3.18511 0.630923 0
M  V30 2954 H 287.442 4.29349 -2.89621 0
M  V30 2955 H 284.119 4.16281 -0.318854 0
M  V30 2956 H 285.509 5.23107 -4.21674 0
M  V30 2957 N 288.23 0.939286 1.26551 0
M  V30 2958 C 289.16 0.465044 2.28822 0
M  V30 2959 C 290.141 -0.480692 1.63167 0
M  V30 2960 O 291.326 -0.382955 1.90387 0
M  V30 2961 C 288.456 -0.27234 3.46231 0
M  V30 2962 C 287.41 0.58666 4.2396 0
M  V30 2963 C 286.736 -0.280573 5.33963 0
M  V30 2964 C 288.036 1.85704 4.88171 0
M  V30 2965 H 289.73 1.31979 2.68741 0
M  V30 2966 H 287.276 0.636061 1.29191 0
M  V30 2967 H 289.229 -0.615133 4.16886 0
M  V30 2968 H 287.953 -1.16121 3.0526 0
M  V30 2969 H 286.612 0.91232 3.55067 0
M  V30 2970 H 286.26 -1.16874 4.89234 0
M  V30 2971 H 285.96 0.29076 5.8688 0
M  V30 2972 H 287.484 -0.618678 6.07458 0
M  V30 2973 H 288.898 1.58161 5.51052 0
M  V30 2974 H 287.295 2.37279 5.51197 0
M  V30 2975 H 288.365 2.56957 4.11219 0
M  V30 2976 N 289.708 -1.40897 0.706093 0
M  V30 2977 C 290.933 -2.05895 0.249435 0
M  V30 2978 C 291.358 -1.52823 -1.09666 0
M  V30 2979 O 290.716 -0.659589 -1.68876 0
M  V30 2980 C 290.764 -3.59872 0.22904 0
M  V30 2981 O 289.868 -4.04708 -0.792784 0
M  V30 2982 H 289.209 -0.653206 0.119241 0
M  V30 2983 H 291.739 -1.80471 0.96391 0
M  V30 2984 H 291.749 -4.07951 0.0634791 0
M  V30 2985 H 290.424 -3.97866 1.21141 0
M  V30 2986 H 289.001 -3.68111 -0.59572 0
M  V30 2987 N 291.186 -0.45159 -1.50991 0
M  V30 2988 C 292.434 0.109857 -2.01801 0
M  V30 2989 C 292.755 1.41958 -1.3369 0
M  V30 2990 O 292.025 1.9003 -0.475951 0
M  V30 2991 H 290.605 0.0435884 -0.745727 0
M  V30 2992 H 293.267 -0.597557 -1.85514 0
M  V30 2993 H 292.363 0.275489 -3.10882 0
M  V30 2994 N 292.664 1.56529 -0.183458 0
M  V30 2995 C 293.627 2.17324 0.728223 0
M  V30 2996 C 294.627 1.12453 1.14939 0
M  V30 2997 O 295.817 1.37902 1.06437 0
M  V30 2998 C 292.949 2.76591 1.99274 0
M  V30 2999 H 294.142 2.99241 0.198772 0
M  V30 3000 H 291.695 1.5616 0.0661391 0
M  V30 3001 H 292.43 1.98441 2.56499 0
M  V30 3002 H 292.215 3.5335 1.69959 0
M  V30 3003 H 293.705 3.23311 2.6431 0
M  V30 3004 N 294.142 -0.090211 1.57342 0
M  V30 3005 C 295.367 -0.810082 1.90925 0
M  V30 3006 C 295.792 -1.71248 0.778187 0
M  V30 3007 O 295.15 -1.79278 -0.269991 0
M  V30 3008 C 295.198 -1.59529 3.23393 0
M  V30 3009 O 294.302 -2.70461 3.11327 0
M  V30 3010 H 293.643 -0.222231 0.625707 0
M  V30 3011 H 296.173 -0.0639716 2.045 0
M  V30 3012 H 296.183 -1.97847 3.5682 0
M  V30 3013 H 294.858 -0.933055 4.05299 0
M  V30 3014 H 293.435 -2.35135 2.89423 0
M  V30 3015 N 295.62 -1.53406 -0.361157 0
M  V30 3016 C 296.845 -1.74024 -1.12829 0
M  V30 3017 C 297.27 -0.470069 -1.82132 0
M  V30 3018 O 296.628 0.57619 -1.719 0
M  V30 3019 C 296.676 -2.90903 -2.13091 0
M  V30 3020 O 295.78 -2.59821 -3.20261 0
M  V30 3021 H 295.121 -0.577804 -0.327168 0
M  V30 3022 H 297.651 -2.00307 -0.41693 0
M  V30 3023 H 297.661 -3.17194 -2.56616 0
M  V30 3024 H 296.336 -3.83034 -1.62042 0
M  V30 3025 H 294.913 -2.44362 -2.81677 0
M  V30 3026 N 297.098 0.621204 -1.44841 0
M  V30 3027 C 298.347 1.37658 -1.47422 0
M  V30 3028 C 298.66 1.95264 -0.114629 0
M  V30 3029 O 299.866 2.71494 -0.0180199 0
M  V30 3030 C 298.322 2.49285 -2.59586 0
M  V30 3031 C 297.93 1.98149 -4.01797 0
M  V30 3032 C 299.674 3.26409 -2.71399 0
M  V30 3033 C 297.581 3.07178 -5.05367 0
M  V30 3034 H 296.511 0.517344 -0.548517 0
M  V30 3035 H 299.162 0.667257 -1.70938 0
M  V30 3036 H 297.544 3.22839 -2.29328 0
M  V30 3037 H 298.718 1.31395 -4.41669 0
M  V30 3038 H 297.033 1.33812 -3.94314 0
M  V30 3039 H 299.63 4.07706 -3.45948 0
M  V30 3040 H 299.973 3.76535 -1.77559 0
M  V30 3041 H 300.506 2.5995 -3.01116 0
M  V30 3042 H 297.245 2.61985 -6.00869 0
M  V30 3043 H 296.765 3.72542 -4.70077 0
M  V30 3044 H 298.444 3.71789 -5.29511 0
M  V30 3045 N 298.576 1.31904 0.862503 0
M  V30 3046 C 299.506 1.22782 1.98612 0
M  V30 3047 C 300.487 0.113362 1.69722 0
M  V30 3048 O 301.672 0.299218 1.91881 0
M  V30 3049 C 298.802 0.942058 3.34279 0
M  V30 3050 C 297.756 2.0169 3.77499 0
M  V30 3051 C 297.082 1.58369 5.10709 0
M  V30 3052 C 298.382 3.43096 3.93805 0
M  V30 3053 H 300.076 2.16788 2.06502 0
M  V30 3054 H 297.622 1.04366 0.992154 0
M  V30 3055 H 299.575 0.864818 4.1243 0
M  V30 3056 H 298.299 -0.0336603 3.26583 0
M  V30 3057 H 296.958 2.08416 3.01593 0
M  V30 3058 H 296.606 0.595628 4.99461 0
M  V30 3059 H 296.306 2.30279 5.40597 0
M  V30 3060 H 297.83 1.52067 5.91361 0
M  V30 3061 H 299.244 3.39003 4.62331 0
M  V30 3062 H 297.641 4.13288 4.35101 0
M  V30 3063 H 298.711 3.83334 2.96957 0
M  V30 3064 N 300.054 -1.07777 1.14986 0
M  V30 3065 C 301.302 -1.79934 0.920235 0
M  V30 3066 C 301.623 -1.86955 -0.554336 0
M  V30 3067 O 300.893 -1.36731 -1.40291 0
M  V30 3068 H 299.473 -0.666424 0.337473 0
M  V30 3069 H 302.135 -1.3027 1.44968 0
M  V30 3070 H 301.231 -2.82539 1.32583 0
M  V30 3071 N 301.532 -0.945985 -1.26051 0
M  V30 3072 C 302.495 -0.463897 -2.24456 0
M  V30 3073 C 303.495 0.427655 -1.55009 0
M  V30 3074 O 304.685 0.226157 -1.72726 0
M  V30 3075 C 301.817 0.330812 -3.39291 0
M  V30 3076 H 303.01 -1.33357 -2.68619 0
M  V30 3077 H 300.563 -0.728416 -1.38289 0
M  V30 3078 H 301.298 1.21852 -3.00537 0
M  V30 3079 H 301.083 -0.308679 -3.90883 0
M  V30 3080 H 302.573 0.657865 -4.12386 0
M  V30 3081 N 303.011 1.40521 -0.713556 0
M  V30 3082 C 304.26 2.00155 -0.249192 0
M  V30 3083 C 304.573 1.57224 1.16362 0
M  V30 3084 O 305.779 2.09542 1.72639 0
M  V30 3085 C 304.235 3.5773 -0.3946 0
M  V30 3086 C 303.843 4.09635 -1.81392 0
M  V30 3087 C 305.587 4.24499 0.00907364 0
M  V30 3088 C 303.494 5.59707 -1.91003 0
M  V30 3089 H 302.424 0.74868 -0.0894114 0
M  V30 3090 H 305.075 1.60784 -0.884352 0
M  V30 3091 H 303.457 3.94792 0.30911 0
M  V30 3092 H 304.631 3.83955 -2.54785 0
M  V30 3093 H 302.946 3.55456 -2.16888 0
M  V30 3094 H 305.543 5.34683 -0.0420404 0
M  V30 3095 H 305.886 4.02824 1.05065 0
M  V30 3096 H 306.419 3.92536 -0.645007 0
M  V30 3097 H 303.158 5.86234 -2.93275 0
M  V30 3098 H 302.678 5.87258 -1.22019 0
M  V30 3099 H 304.357 6.24776 -1.6812 0
M  V30 3100 N 304.489 0.459591 1.5075 0
M  V30 3101 C 305.437 -0.354678 2.2988 0
M  V30 3102 C 306.431 -1.00086 1.36672 0
M  V30 3103 O 307.637 -0.933277 1.53915 0
M  V30 3104 H 304.012 -0.13321 0.740107 0
M  V30 3105 H 305.983 0.333269 2.96533 0
M  V30 3106 C 304.732 -1.43073 3.169 0
M  V30 3107 H 304.055 -0.942882 3.88523 0
M  V30 3108 H 305.495 -1.97328 3.75284 0
M  V30 3109 C 303.954 -2.42633 2.33732 0
M  V30 3110 O 304.484 -3.47658 2.01238 0
M  V30 3111 N 302.69 -2.14066 1.9653 0
M  V30 3112 H 302.237 -1.28685 2.23155 0
M  V30 3113 H 302.195 -2.80917 1.41185 0
M  V30 3114 N 305.967 -1.56429 0.191757 0
M  V30 3115 C 306.9 -2.14829 -0.76967 0
M  V30 3116 C 307.878 -1.08405 -1.2119 0
M  V30 3117 O 309.062 -1.36498 -1.30002 0
M  V30 3118 C 306.189 -2.70446 -2.03903 0
M  V30 3119 C 305.235 -3.89428 -1.7392 0
M  V30 3120 S 306.068 -5.28048 -0.890265 0
M  V30 3121 C 307.224 -5.87085 -2.16984 0
M  V30 3122 H 307.457 -2.96042 -0.273204 0
M  V30 3123 H 304.99 -1.54383 -0.0231975 0
M  V30 3124 H 306.948 -3.03134 -2.76803 0
M  V30 3125 H 305.609 -1.89281 -2.50662 0
M  V30 3126 H 304.802 -4.26742 -2.68155 0
M  V30 3127 H 304.404 -3.57732 -1.09103 0
M  V30 3128 H 306.696 -6.01244 -3.12269 0
M  V30 3129 H 307.639 -6.83747 -1.84108 0
M  V30 3130 H 308.047 -5.15663 -2.29678 0
M  V30 3131 N 307.445 0.0818655 -1.57387 0
M  V30 3132 C 308.694 0.781681 -1.85937 0
M  V30 3133 C 309.007 1.79246 -0.782957 0
M  V30 3134 O 310.213 2.54112 -0.955987 0
M  V30 3135 C 308.669 1.44109 -3.29789 0
M  V30 3136 C 308.277 0.469396 -4.45534 0
M  V30 3137 C 310.021 2.12386 -3.67549 0
M  V30 3138 C 307.928 1.13415 -5.80423 0
M  V30 3139 H 306.858 0.295682 -0.693605 0
M  V30 3140 H 309.509 0.0348051 -1.83467 0
M  V30 3141 H 307.891 2.23588 -3.2684 0
M  V30 3142 H 309.065 -0.294856 -4.59856 0
M  V30 3143 H 307.38 -0.108383 -4.16259 0
M  V30 3144 H 309.977 2.62878 -4.65617 0
M  V30 3145 H 310.32 2.91877 -2.96839 0
M  V30 3146 H 310.853 1.39751 -3.72444 0
M  V30 3147 H 307.592 0.379771 -6.54399 0
M  V30 3148 H 307.112 1.8695 -5.69921 0
M  V30 3149 H 308.791 1.65686 -6.25426 0
M  V30 3150 N 308.923 1.53595 0.353017 0
M  V30 3151 C 310.151 1.74311 1.1146 0
M  V30 3152 C 310.566 0.477854 1.82653 0
M  V30 3153 O 309.923 -0.549977 1.74016 0
M  V30 3154 C 309.974 2.91694 2.13534 0
M  V30 3155 O 309.695 4.13325 1.45238 0
M  V30 3156 C 311.196 3.24384 3.02142 0
M  V30 3157 H 308.416 0.582669 0.332773 0
M  V30 3158 H 310.96 2.00386 0.408107 0
M  V30 3159 H 309.115 2.67977 2.79763 0
M  V30 3160 H 309.529 4.79148 2.13349 0
M  V30 3161 H 311.003 4.09893 3.69718 0
M  V30 3162 H 311.48 2.40282 3.67643 0
M  V30 3163 H 312.086 3.50073 2.41514 0
M  V30 3164 N 310.401 -0.613514 1.45168 0
M  V30 3165 C 311.629 -1.39946 1.5239 0
M  V30 3166 C 312.044 -1.88167 0.154531 0
M  V30 3167 O 311.401 -1.61872 -0.842843 0
M  V30 3168 C 311.452 -2.60795 2.50337 0
M  V30 3169 O 311.173 -2.1458 3.81952 0
M  V30 3170 C 312.674 -3.53723 2.67198 0
M  V30 3171 H 309.894 -0.428593 0.516284 0
M  V30 3172 H 312.438 -0.748753 1.903 0
M  V30 3173 H 310.593 -3.21919 2.15515 0
M  V30 3174 H 311.007 -2.93055 4.34993 0
M  V30 3175 H 312.481 -4.35079 3.39721 0
M  V30 3176 H 312.958 -4.0368 1.73029 0
M  V30 3177 H 313.564 -2.98456 3.02992 0
M  V30 3178 N 311.879 -1.3236 -0.855495 0
M  V30 3179 C 313.126 -1.22872 -1.60962 0
M  V30 3180 C 313.454 0.209658 -1.93367 0
M  V30 3181 O 312.709 1.16243 -1.57436 0
M  V30 3182 C 313.008 -2.03275 -2.93963 0
M  V30 3183 C 312.674 -3.5264 -2.80991 0
M  V30 3184 C 311.336 -3.93364 -2.7716 0
M  V30 3185 C 313.688 -4.47626 -2.66983 0
M  V30 3186 C 311.016 -5.27319 -2.572 0
M  V30 3187 C 313.368 -5.81723 -2.48558 0
M  V30 3188 C 312.032 -6.2165 -2.4312 0
M  V30 3189 H 311.302 -0.44962 -0.589001 0
M  V30 3190 H 313.949 -1.63777 -0.992442 0
M  V30 3191 H 312.254 -1.55095 -3.59795 0
M  V30 3192 H 313.951 -1.93303 -3.51333 0
M  V30 3193 H 310.541 -3.20295 -2.84797 0
M  V30 3194 H 314.725 -4.17084 -2.68988 0
M  V30 3195 H 309.981 -5.57311 -2.51424 0
M  V30 3196 H 314.155 -6.5494 -2.36699 0
M  V30 3197 H 311.782 -7.25388 -2.27412 0
M  V30 3198 N 313.357 1.07166 -1.15556 0
M  V30 3199 C 314.287 2.16403 -0.877046 0
M  V30 3200 C 315.268 1.69217 0.173111 0
M  V30 3201 O 316.453 1.94181 0.027084 0
M  V30 3202 C 313.583 3.45349 -0.367632 0
M  V30 3203 C 312.537 4.05995 -1.35468 0
M  V30 3204 C 311.863 5.30045 -0.704038 0
M  V30 3205 C 313.163 4.45804 -2.72132 0
M  V30 3206 H 314.857 2.39959 -1.79053 0
M  V30 3207 H 312.403 1.15325 -0.862331 0
M  V30 3208 H 314.356 4.21095 -0.160317 0
M  V30 3209 H 313.08 3.21385 0.581326 0
M  V30 3210 H 311.739 3.32296 -1.54839 0
M  V30 3211 H 311.387 5.02373 0.251128 0
M  V30 3212 H 311.087 5.71579 -1.36277 0
M  V30 3213 H 312.611 6.08495 -0.50654 0
M  V30 3214 H 314.025 5.12671 -2.56595 0
M  V30 3215 H 312.422 4.98296 -3.34397 0
M  V30 3216 H 313.492 3.57083 -3.28054 0
M  V30 3217 N 314.835 0.952656 1.25548 0
M  V30 3218 C 315.783 0.462354 2.27958 0
M  V30 3219 C 316.777 -0.46634 1.62855 0
M  V30 3220 O 317.983 -0.343287 1.76696 0
M  V30 3221 H 314.358 0.13101 0.7405 0
M  V30 3222 H 316.329 1.33839 2.66702 0
M  V30 3223 C 315.078 -0.24628 3.46827 0
M  V30 3224 H 314.401 0.459192 3.97154 0
M  V30 3225 H 315.841 -0.553393 4.20373 0
M  V30 3226 C 314.3 -1.4681 3.0323 0
M  V30 3227 O 314.83 -2.56591 3.09069 0
M  V30 3228 N 313.036 -1.32874 2.58443 0
M  V30 3229 H 312.583 -0.435536 2.53891 0
M  V30 3230 H 312.541 -2.14742 2.29637 0
M  V30 3231 N 316.313 -1.40141 0.720998 0
M  V30 3232 C 317.246 -2.2819 0.020916 0
M  V30 3233 C 318.224 -1.43633 -0.762129 0
M  V30 3234 O 319.408 -1.7304 -0.747633 0
M  V30 3235 C 316.535 -3.24281 -0.977715 0
M  V30 3236 C 315.581 -4.25548 -0.284836 0
M  V30 3237 S 316.414 -5.26247 0.991169 0
M  V30 3238 C 317.57 -6.259 -0.0052214 0
M  V30 3239 H 317.803 -2.87218 0.767649 0
M  V30 3240 H 315.336 -1.45656 0.512233 0
M  V30 3241 H 317.294 -3.80167 -1.54865 0
M  V30 3242 H 315.955 -2.643 -1.69719 0
M  V30 3243 H 315.148 -4.93154 -1.03996 0
M  V30 3244 H 314.75 -3.73389 0.213684 0
M  V30 3245 H 317.042 -6.72143 -0.850279 0
M  V30 3246 H 317.985 -7.05224 0.637599 0
M  V30 3247 H 318.393 -5.63277 -0.371366 0
M  V30 3248 N 317.792 -0.46758 -1.50504 0
M  V30 3249 C 319.208 -0.121533 -1.59137 0
M  V30 3250 C 319.408 1.3717 -1.47603 0
M  V30 3251 O 318.464 2.14464 -1.33272 0
M  V30 3252 C 319.777 -0.6686 -2.93173 0
M  V30 3253 C 321.325 -0.631716 -3.06559 0
M  V30 3254 C 321.8 -1.15627 -4.43164 0
M  V30 3255 N 323.291 -1.11553 -4.49567 0
M  V30 3256 C 324.026 -1.49195 -5.5365 0
M  V30 3257 N 323.522 -1.94269 -6.65005 0
M  V30 3258 N 325.315 -1.4082 -5.44175 0
M  V30 3259 H 317.466 -1.4388 -1.56245 0
M  V30 3260 H 319.729 -0.594784 -0.738198 0
M  V30 3261 H 319.435 -1.71453 -3.07078 0
M  V30 3262 H 319.309 -0.11021 -3.77039 0
M  V30 3263 H 321.696 0.405297 -2.92304 0
M  V30 3264 H 321.777 -1.22687 -2.24458 0
M  V30 3265 H 321.421 -2.1919 -4.58168 0
M  V30 3266 H 321.351 -0.537365 -5.23851 0
M  V30 3267 H 323.842 -0.784895 -3.69659 0
M  V30 3268 H 324.155 -2.21148 -7.40482 0
M  V30 3269 H 322.5 -1.98219 -6.66134 0
M  V30 3270 H 325.691 -1.0545 -4.56068 0
M  V30 3271 H 325.864 -1.70481 -6.25172 0
M  V30 3272 N 319.27 1.56325 -0.20005 0
M  V30 3273 C 320.233 2.18084 0.705132 0
M  V30 3274 C 321.233 1.13666 1.1374 0
M  V30 3275 O 322.423 1.39023 1.04968 0
M  V30 3276 C 319.555 2.78689 1.96329 0
M  V30 3277 H 320.748 2.99435 0.167023 0
M  V30 3278 H 318.301 1.56221 0.0495725 0
M  V30 3279 H 319.036 2.0115 2.5438 0
M  V30 3280 H 318.821 3.55133 1.66202 0
M  V30 3281 H 320.311 3.26096 2.60866 0
M  V30 3282 N 320.748 -0.0735177 1.57428 0
M  V30 3283 C 322.159 -0.625551 1.75908 0
M  V30 3284 C 322.51 -1.78 0.825261 0
M  V30 3285 O 321.635 -2.16398 0.00893964 0
M  V30 3286 C 322.23 -1.14155 3.18989 0
M  V30 3287 C 320.789 -1.63946 3.38819 0
M  V30 3288 C 319.936 -0.558151 2.71625 0
M  V30 3289 H 322.887 0.152647 1.57964 0
M  V30 3290 H 322.908 -2.0104 3.23053 0
M  V30 3291 H 322.42 -0.301116 3.8693 0
M  V30 3292 H 320.521 -2.50321 2.7599 0
M  V30 3293 H 320.634 -1.71759 4.47253 0
M  V30 3294 H 318.998 -1.00278 2.34129 0
M  V30 3295 H 319.781 0.272071 3.4222 0
M  V30 3296 N 322.226 -1.5378 -0.344866 0
M  V30 3297 C 323.474 -1.70625 -1.08311 0
M  V30 3298 C 323.795 -0.471447 -1.89215 0
M  V30 3299 O 323.065 0.514616 -1.8902 0
M  V30 3300 H 321.645 -0.629058 -0.402859 0
M  V30 3301 H 324.307 -1.9103 -0.386459 0
M  V30 3302 H 323.403 -2.57656 -1.76124 0
M  V30 3303 N 323.704 0.605807 -1.45491 0
M  V30 3304 C 324.637 1.73022 -1.48791 0
M  V30 3305 C 325.615 1.58917 -0.344112 0
M  V30 3306 O 326.799 1.80453 -0.544876 0
M  V30 3307 C 323.926 3.10865 -1.34463 0
M  V30 3308 C 322.972 3.43554 -2.5273 0
M  V30 3309 S 323.805 3.38196 -4.15191 0
M  V30 3310 C 324.961 4.78616 -4.03333 0
M  V30 3311 H 325.194 1.69961 -2.43928 0
M  V30 3312 H 322.727 0.782611 -1.33096 0
M  V30 3313 H 324.685 3.90398 -1.26884 0
M  V30 3314 H 323.346 3.1144 -0.40794 0
M  V30 3315 H 322.539 4.43924 -2.38637 0
M  V30 3316 H 322.141 2.71541 -2.5718 0
M  V30 3317 H 324.433 5.68463 -3.68587 0
M  V30 3318 H 325.376 4.97767 -5.03621 0
M  V30 3319 H 325.784 4.54381 -3.34959 0
M  V30 3320 N 325.182 1.32811 0.848464 0
M  V30 3321 C 326.41 1.26739 1.63538 0
M  V30 3322 C 326.825 -0.163484 1.88091 0
M  V30 3323 O 326.182 -1.10258 1.45429 0
M  V30 3324 C 326.233 2.03013 2.99112 0
M  V30 3325 O 325.954 3.40518 2.75643 0
M  V30 3326 C 327.455 2.04038 3.93552 0
M  V30 3327 H 324.675 0.437024 0.509167 0
M  V30 3328 H 327.219 1.75033 1.05753 0
M  V30 3329 H 325.374 1.58426 3.53525 0
M  V30 3330 H 325.788 3.79635 3.61908 0
M  V30 3331 H 327.262 2.61877 4.85926 0
M  V30 3332 H 327.739 1.0282 4.26995 0
M  V30 3333 H 328.345 2.486 3.45077 0
M  V30 3334 N 326.66 -1.06551 1.16123 0
M  V30 3335 C 327.593 -2.13382 0.80892 0
M  V30 3336 C 328.571 -1.61128 -0.21827 0
M  V30 3337 O 329.755 -1.88219 -0.102952 0
M  V30 3338 C 326.882 -3.38083 0.204303 0
M  V30 3339 C 325.928 -4.09133 1.20469 0
M  V30 3340 S 326.761 -4.5948 2.75024 0
M  V30 3341 C 327.917 -5.87446 2.16005 0
M  V30 3342 H 328.15 -2.42937 1.71373 0
M  V30 3343 H 325.683 -1.18947 0.984428 0
M  V30 3344 H 327.641 -4.10268 -0.138081 0
M  V30 3345 H 326.302 -3.0669 -0.678234 0
M  V30 3346 H 325.495 -4.98685 0.730019 0
M  V30 3347 H 325.097 -3.4295 1.49202 0
M  V30 3348 H 327.389 -6.60065 1.5271 0
M  V30 3349 H 328.332 -6.39639 3.03756 0
M  V30 3350 H 328.74 -5.41354 1.59989 0
M  V30 3351 N 328.138 -0.959301 -1.25041 0
M  V30 3352 C 329.088 -0.453888 -2.23436 0
M  V30 3353 C 330.072 0.459461 -1.542 0
M  V30 3354 O 331.264 0.291752 -1.74579 0
M  V30 3355 C 328.393 0.262667 -3.42294 0
M  V30 3356 C 327.479 -0.669022 -4.1879 0
M  V30 3357 N 327.87 -1.80267 -4.72586 0
M  V30 3358 C 326.168 -0.47814 -4.4343 0
M  V30 3359 C 326.869 -2.38475 -5.3057 0
M  V30 3360 N 325.845 -1.67078 -5.17287 0
M  V30 3361 H 329.647 -1.319 -2.6264 0
M  V30 3362 H 327.161 -0.817358 -1.40332 0
M  V30 3363 H 329.158 0.641911 -4.11929 0
M  V30 3364 H 327.818 1.12432 -3.04613 0
M  V30 3365 H 328.829 -2.18442 -4.69578 0
M  V30 3366 H 325.506 0.340249 -4.16111 0
M  V30 3367 H 326.896 -3.34094 -5.8295 0
M  V30 3368 N 329.616 1.39756 -0.72842 0
M  V30 3369 C 330.563 2.30647 -0.0841519 0
M  V30 3370 C 331.533 1.48869 0.7367 0
M  V30 3371 O 332.718 1.77574 0.698015 0
M  V30 3372 C 329.858 3.35165 0.822091 0
M  V30 3373 C 328.971 4.31999 -0.0106663 0
M  V30 3374 C 328.106 5.23585 0.896241 0
M  V30 3375 C 327.145 6.12072 0.0583381 0
M  V30 3376 N 326.282 6.96035 0.920818 0
M  V30 3377 H 331.122 2.85173 -0.864891 0
M  V30 3378 H 328.659 1.40422 -0.438179 0
M  V30 3379 H 330.617 3.94345 1.36189 0
M  V30 3380 H 329.247 2.8211 1.56888 0
M  V30 3381 H 328.299 3.74492 -0.66781 0
M  V30 3382 H 329.611 4.9443 -0.658825 0
M  V30 3383 H 328.765 5.87759 1.50412 0
M  V30 3384 H 327.504 4.61459 1.57819 0
M  V30 3385 H 326.509 5.46916 -0.562389 0
M  V30 3386 H 327.734 6.76261 -0.6203 0
M  V30 3387 H 325.68 6.36485 1.58818 0
M  V30 3388 H 325.597 7.55284 0.32899 0
M  V30 3389 H 326.865 7.64646 1.51447 0
M  V30 3390 N 331.094 0.475555 1.50254 0
M  V30 3391 C 332.34 -0.0780073 2.0265 0
M  V30 3392 C 332.673 -1.38968 1.35652 0
M  V30 3393 O 331.948 -1.8839 0.483691 0
M  V30 3394 C 332.231 -0.257161 3.59181 0
M  V30 3395 C 332.084 1.07585 4.36744 0
M  V30 3396 C 333.403 -1.00965 4.28362 0
M  V30 3397 H 330.522 -0.0268758 0.73651 0
M  V30 3398 H 333.164 0.622015 1.7953 0
M  V30 3399 H 331.314 -0.853412 3.79011 0
M  V30 3400 H 332.986 1.70902 4.28474 0
M  V30 3401 H 331.229 1.6714 4.00308 0
M  V30 3402 H 331.9 0.904088 5.44546 0
M  V30 3403 H 334.376 -0.504214 4.13034 0
M  V30 3404 H 333.252 -1.10381 5.37687 0
M  V30 3405 H 333.513 -2.04731 3.91839 0
M  V30 3406 N 332.573 -1.56217 0.208337 0
M  V30 3407 C 333.984 -1.84243 -0.301904 0
M  V30 3408 C 334.335 -1.12939 -1.60434 0
M  V30 3409 O 333.46 -0.39461 -2.12772 0
M  V30 3410 C 334.055 -3.34231 -0.554543 0
M  V30 3411 C 332.614 -3.62621 -1.00912 0
M  V30 3412 C 331.761 -2.77224 -0.064933 0
M  V30 3413 H 334.712 -1.52712 0.431833 0
M  V30 3414 H 334.733 -3.5372 -1.40223 0
M  V30 3415 H 334.245 -3.86099 0.393561 0
M  V30 3416 H 332.346 -3.16197 -1.97104 0
M  V30 3417 H 332.459 -4.7071 -0.892674 0
M  V30 3418 H 330.823 -2.48256 -0.56929 0
M  V30 3419 H 331.606 -3.31887 0.877851 0
M  V30 3420 N 334.051 0.0651679 -1.57465 0
M  V30 3421 C 334.981 1.07693 -2.07182 0
M  V30 3422 C 335.962 1.39962 -0.966673 0
M  V30 3423 O 337.147 1.49475 -1.2398 0
M  V30 3424 C 334.277 2.3885 -2.52127 0
M  V30 3425 C 333.231 2.20917 -3.66579 0
M  V30 3426 C 332.557 3.57515 -3.97601 0
M  V30 3427 C 333.857 1.62493 -4.9638 0
M  V30 3428 H 335.551 0.663199 -2.91962 0
M  V30 3429 H 333.097 0.317569 -1.40455 0
M  V30 3430 H 335.05 3.09928 -2.85522 0
M  V30 3431 H 333.774 2.82215 -1.64384 0
M  V30 3432 H 332.433 1.52279 -3.33477 0
M  V30 3433 H 332.081 3.98463 -3.06979 0
M  V30 3434 H 331.781 3.46353 -4.74672 0
M  V30 3435 H 333.305 4.30013 -4.33499 0
M  V30 3436 H 334.719 2.23445 -5.27963 0
M  V30 3437 H 333.116 1.62009 -5.77818 0
M  V30 3438 H 334.186 0.587041 -4.81333 0
M  V30 3439 N 335.529 1.53961 0.336706 0
M  V30 3440 C 336.776 1.71536 1.07618 0
M  V30 3441 C 337.104 0.482125 1.8843 0
M  V30 3442 O 336.359 -0.536142 1.88213 0
M  V30 3443 C 336.658 2.93493 2.03953 0
M  V30 3444 C 336.324 4.28811 1.39399 0
M  V30 3445 C 334.986 4.65602 1.21523 0
M  V30 3446 C 337.338 5.12844 0.929541 0
M  V30 3447 C 334.666 5.84037 0.558312 0
M  V30 3448 C 337.018 6.31951 0.286505 0
M  V30 3449 C 335.682 6.67432 0.0954869 0
M  V30 3450 H 334.952 0.627696 0.393801 0
M  V30 3451 H 337.599 1.88186 0.354715 0
M  V30 3452 H 335.904 2.71475 2.82504 0
M  V30 3453 H 337.601 3.04285 2.61174 0
M  V30 3454 H 334.191 3.99858 1.54311 0
M  V30 3455 H 338.375 4.84947 1.05548 0
M  V30 3456 H 333.631 6.10097 0.398995 0
M  V30 3457 H 337.805 6.96352 -0.0814376 0
M  V30 3458 H 335.432 7.59063 -0.415579 0
M  V30 3459 N 337.007 -0.598083 1.45811 0
M  V30 3460 C 337.97 -1.69018 1.54808 0
M  V30 3461 C 338.97 -1.55037 0.426652 0
M  V30 3462 O 340.16 -1.59932 0.690456 0
M  V30 3463 C 337.292 -3.0835 1.45371 0
M  V30 3464 H 338.485 -1.62403 2.52121 0
M  V30 3465 H 336.038 -0.814626 1.33392 0
M  V30 3466 H 336.773 -3.20534 0.492793 0
M  V30 3467 H 336.558 -3.19907 2.26721 0
M  V30 3468 H 338.048 -3.8788 1.54721 0
M  V30 3469 N 338.485 -1.33259 -0.841409 0
M  V30 3470 C 339.731 -1.25766 -1.59857 0
M  V30 3471 C 340.086 0.175602 -1.91597 0
M  V30 3472 O 339.379 1.117 -1.55672 0
M  V30 3473 C 339.573 -2.06381 -2.9179 0
M  V30 3474 C 339.402 -3.57401 -2.72937 0
M  V30 3475 C 338.172 -4.26718 -2.70628 0
M  V30 3476 C 340.37 -4.51786 -2.45753 0
M  V30 3477 N 338.352 -5.63705 -2.43125 0
M  V30 3478 C 339.723 -5.76643 -2.27777 0
M  V30 3479 C 341.778 -4.40898 -2.31329 0
M  V30 3480 C 340.481 -6.91842 -1.96841 0
M  V30 3481 C 342.507 -5.55911 -2.01786 0
M  V30 3482 C 341.869 -6.79776 -1.8462 0
M  V30 3483 H 337.968 -0.515406 -0.588117 0
M  V30 3484 H 340.552 -1.67772 -0.987955 0
M  V30 3485 H 338.723 -1.667 -3.50807 0
M  V30 3486 H 340.455 -1.90678 -3.56965 0
M  V30 3487 H 337.21 -3.78968 -2.84043 0
M  V30 3488 H 337.634 -6.35911 -2.32265 0
M  V30 3489 H 342.276 -3.45772 -2.43314 0
M  V30 3490 H 339.994 -7.86968 -1.83594 0
M  V30 3491 H 343.58 -5.49421 -1.91384 0
M  V30 3492 H 342.46 -7.67266 -1.62088 0
M  V30 3493 N 339.963 1.05934 -1.16686 0
M  V30 3494 C 341.188 1.83029 -0.975455 0
M  V30 3495 C 341.613 1.82096 0.471452 0
M  V30 3496 O 340.971 1.22443 1.33706 0
M  V30 3497 C 341.019 3.27372 -1.51195 0
M  V30 3498 O 340.123 4.06054 -0.720701 0
M  V30 3499 H 339.464 0.566194 -0.346872 0
M  V30 3500 H 341.994 1.33541 -1.55009 0
M  V30 3501 H 342.004 3.78186 -1.53099 0
M  V30 3502 H 340.679 3.27366 -2.56523 0
M  V30 3503 H 339.256 3.64812 -0.772458 0
M  V30 3504 N 341.441 0.965919 1.2453 0
M  V30 3505 C 342.69 0.622437 1.91856 0
M  V30 3506 C 343.003 -0.846006 1.76358 0
M  V30 3507 O 344.209 -1.29993 2.38357 0
M  V30 3508 C 342.665 1.0626 3.43856 0
M  V30 3509 C 342.273 2.55437 3.68043 0
M  V30 3510 C 344.017 0.792183 4.17043 0
M  V30 3511 C 341.924 2.93196 5.13605 0
M  V30 3512 H 340.854 0.229092 0.718354 0
M  V30 3513 H 343.505 1.17189 1.41206 0
M  V30 3514 H 341.887 0.441476 3.93531 0
M  V30 3515 H 343.061 3.22665 3.28974 0
M  V30 3516 H 341.376 2.8007 3.08139 0
M  V30 3517 H 343.973 1.05031 5.24283 0
M  V30 3518 H 344.316 -0.271584 4.15413 0
M  V30 3519 H 344.849 1.37419 3.73311 0
M  V30 3520 H 341.588 3.98636 5.20355 0
M  V30 3521 H 341.108 2.30651 5.53679 0
M  V30 3522 H 342.787 2.83004 5.81823 0
M  V30 3523 N 342.919 -1.39368 0.735821 0
M  V30 3524 C 344.166 -2.00497 0.284123 0
M  V30 3525 C 344.494 -1.58387 -1.12889 0
M  V30 3526 O 343.749 -0.804359 -1.78406 0
M  V30 3527 C 344.048 -3.5583 0.334651 0
M  V30 3528 C 343.714 -4.17593 1.7008 0
M  V30 3529 C 342.376 -4.34176 2.07472 0
M  V30 3530 C 344.728 -4.51848 2.59775 0
M  V30 3531 C 342.056 -4.82304 3.34065 0
M  V30 3532 C 344.408 -5.01384 3.85741 0
M  V30 3533 C 343.072 -5.16175 4.23225 0
M  V30 3534 H 342.342 -0.73367 0.103968 0
M  V30 3535 H 344.989 -1.66683 0.942825 0
M  V30 3536 H 343.294 -3.89674 -0.407625 0
M  V30 3537 H 344.991 -4.00986 -0.0329927 0
M  V30 3538 H 341.581 -4.05087 1.40008 0
M  V30 3539 H 345.765 -4.38653 2.32157 0
M  V30 3540 H 341.021 -4.91941 3.63049 0
M  V30 3541 H 345.195 -5.26863 4.55399 0
M  V30 3542 H 342.822 -5.5323 5.21384 0
M  V30 3543 N 344.397 -0.483516 -1.5 0
M  V30 3544 C 345.643 0.0672592 -2.02688 0
M  V30 3545 C 345.976 1.38247 -1.36387 0
M  V30 3546 O 345.251 1.88131 -0.493675 0
M  V30 3547 C 345.534 0.238109 -3.59312 0
M  V30 3548 C 345.387 -1.099 -4.36168 0
M  V30 3549 C 346.706 0.986916 -4.28892 0
M  V30 3550 H 343.825 0.0229696 -0.736642 0
M  V30 3551 H 346.467 -0.631527 -1.79197 0
M  V30 3552 H 344.617 0.8333 -3.79458 0
M  V30 3553 H 346.289 -1.73172 -4.27562 0
M  V30 3554 H 344.532 -1.69261 -3.99416 0
M  V30 3555 H 345.203 -0.932954 -5.44059 0
M  V30 3556 H 347.679 0.482302 -4.13295 0
M  V30 3557 H 346.555 1.07527 -5.38265 0
M  V30 3558 H 346.816 2.0265 -3.92919 0
M  V30 3559 N 345.875 1.56104 -0.216619 0
M  V30 3560 C 347.103 2.02563 0.421413 0
M  V30 3561 C 347.518 1.0965 1.53695 0
M  V30 3562 O 346.875 0.10521 1.82196 0
M  V30 3563 C 346.926 3.48584 0.957665 0
M  V30 3564 O 346.647 4.37953 -0.113389 0
M  V30 3565 C 348.148 4.10664 1.66943 0
M  V30 3566 H 345.368 0.662944 0.103665 0
M  V30 3567 H 347.912 2.01793 -0.331629 0
M  V30 3568 H 346.067 3.49985 1.661 0
M  V30 3569 H 346.481 5.23704 0.288932 0
M  V30 3570 H 347.955 5.14622 1.99671 0
M  V30 3571 H 348.432 3.55373 2.58083 0
M  V30 3572 H 349.038 4.13098 1.01142 0
M  V30 3573 N 347.353 -0.0568162 1.57498 0
M  V30 3574 C 348.316 -1.05038 2.03715 0
M  V30 3575 C 349.316 -1.30709 0.936577 0
M  V30 3576 O 350.506 -1.26178 1.20103 0
M  V30 3577 C 347.638 -2.39034 2.43055 0
M  V30 3578 H 348.831 -0.651715 2.92733 0
M  V30 3579 H 346.384 -0.302947 1.53336 0
M  V30 3580 H 347.119 -2.83703 1.57108 0
M  V30 3581 H 346.904 -2.21739 3.2338 0
M  V30 3582 H 348.394 -3.10421 2.79336 0
M  V30 3583 N 348.832 -1.54138 -0.328536 0
M  V30 3584 C 350.078 -1.73297 -1.06488 0
M  V30 3585 C 350.433 -0.497958 -1.85844 0
M  V30 3586 O 349.726 0.509591 -1.84699 0
M  V30 3587 C 349.92 -2.9457 -2.02393 0
M  V30 3588 C 349.749 -4.29747 -1.32467 0
M  V30 3589 C 348.519 -4.93987 -1.06324 0
M  V30 3590 C 350.717 -5.08903 -0.743137 0
M  V30 3591 N 348.699 -6.13005 -0.331359 0
M  V30 3592 C 350.07 -6.19836 -0.142602 0
M  V30 3593 C 352.125 -4.93699 -0.64546 0
M  V30 3594 C 350.828 -7.17224 0.546125 0
M  V30 3595 C 352.854 -5.91393 0.0295558 0
M  V30 3596 C 352.216 -7.01674 0.619056 0
M  V30 3597 H 348.315 -0.687017 -0.373539 0
M  V30 3598 H 350.899 -1.91589 -0.346659 0
M  V30 3599 H 349.07 -2.77752 -2.71493 0
M  V30 3600 H 350.802 -3.0238 -2.68977 0
M  V30 3601 H 347.557 -4.53824 -1.35428 0
M  V30 3602 H 347.981 -6.76997 0.0202939 0
M  V30 3603 H 352.623 -4.08589 -1.08695 0
M  V30 3604 H 350.341 -8.01896 0.999459 0
M  V30 3605 H 353.927 -5.81706 0.104705 0
M  V30 3606 H 352.807 -7.75971 1.13309 0
M  V30 3607 N 350.31 0.590341 -1.46126 0
M  V30 3608 C 351.24 1.71032 -1.58966 0
M  V30 3609 C 352.221 1.64302 -0.440335 0
M  V30 3610 O 353.406 1.82436 -0.665634 0
M  V30 3611 C 350.536 3.09665 -1.57241 0
M  V30 3612 C 349.49 3.31221 -2.71066 0
M  V30 3613 C 348.816 4.70303 -2.54399 0
M  V30 3614 C 350.116 3.19796 -4.1295 0
M  V30 3615 H 351.81 1.60543 -2.52718 0
M  V30 3616 H 349.356 0.770933 -1.21625 0
M  V30 3617 H 351.309 3.87831 -1.64819 0
M  V30 3618 H 350.033 3.21036 -0.600289 0
M  V30 3619 H 348.692 2.55452 -2.62944 0
M  V30 3620 H 348.34 4.78429 -1.55288 0
M  V30 3621 H 348.04 4.85679 -3.30741 0
M  V30 3622 H 349.564 5.50647 -2.63857 0
M  V30 3623 H 350.978 3.87815 -4.22223 0
M  V30 3624 H 349.375 3.46696 -4.89818 0
M  V30 3625 H 350.445 2.16983 -4.33643 0
M  V30 3626 N 351.788 1.33704 0.83433 0
M  V30 3627 C 353.037 1.24763 1.58484 0
M  V30 3628 C 353.35 -0.183775 1.94735 0
M  V30 3629 O 354.556 -0.395234 2.68608 0
M  V30 3630 C 353.012 2.18638 2.85876 0
M  V30 3631 C 352.62 3.66974 2.56971 0
M  V30 3632 C 354.364 2.18581 3.63899 0
M  V30 3633 C 352.271 4.5275 3.80488 0
M  V30 3634 H 351.201 0.463425 0.594772 0
M  V30 3635 H 353.852 1.58797 0.919551 0
M  V30 3636 H 352.234 1.77542 3.5397 0
M  V30 3637 H 353.408 4.16538 1.9706 0
M  V30 3638 H 351.723 3.69366 1.92244 0
M  V30 3639 H 354.32 2.79894 4.55591 0
M  V30 3640 H 354.663 1.18207 3.99165 0
M  V30 3641 H 355.196 2.58062 3.02735 0
M  V30 3642 H 351.935 5.54017 3.5035 0
M  V30 3643 H 351.455 4.07927 4.39722 0
M  V30 3644 H 353.134 4.66784 4.4802 0
M  V30 3645 N 353.266 -1.05314 1.17247 0
M  V30 3646 C 354.196 -2.1498 0.911362 0
M  V30 3647 C 355.177 -1.69471 -0.146169 0
M  V30 3648 O 356.362 -1.942 0.003812 0
M  V30 3649 C 353.492 -3.4472 0.422528 0
M  V30 3650 C 352.446 -4.03789 1.4191 0
M  V30 3651 C 351.772 -5.28858 0.788274 0
M  V30 3652 C 353.072 -4.41418 2.7919 0
M  V30 3653 H 354.766 -2.3708 1.82848 0
M  V30 3654 H 352.312 -1.13938 0.880569 0
M  V30 3655 H 354.265 -4.20787 0.227289 0
M  V30 3656 H 352.989 -3.22269 -0.530123 0
M  V30 3657 H 351.648 -3.2979 1.60106 0
M  V30 3658 H 351.296 -5.02709 -0.171173 0
M  V30 3659 H 350.996 -5.69338 1.45353 0
M  V30 3660 H 352.52 -6.07612 0.603282 0
M  V30 3661 H 353.934 -5.08524 2.64719 0
M  V30 3662 H 352.331 -4.92913 3.42282 0
M  V30 3663 H 353.401 -3.51819 3.33693 0
M  V30 3664 N 354.744 -0.972509 -1.24016 0
M  V30 3665 C 355.674 -0.525548 -2.27509 0
M  V30 3666 C 356.655 0.437262 -1.64384 0
M  V30 3667 O 357.84 0.332343 -1.91335 0
M  V30 3668 C 354.97 0.180448 -3.46831 0
M  V30 3669 C 353.924 -0.698859 -4.22256 0
M  V30 3670 C 353.25 0.138903 -5.3452 0
M  V30 3671 C 354.55 -1.98582 -4.83076 0
M  V30 3672 H 356.244 -1.39058 -2.65148 0
M  V30 3673 H 353.79 -0.67009 -1.27459 0
M  V30 3674 H 355.743 0.504387 -4.18371 0
M  V30 3675 H 354.467 1.07987 -3.08231 0
M  V30 3676 H 353.126 -1.00614 -3.52523 0
M  V30 3677 H 352.774 1.03862 -4.9216 0
M  V30 3678 H 352.474 -0.446259 -5.85903 0
M  V30 3679 H 353.998 0.457404 -6.08884 0
M  V30 3680 H 355.412 -1.72715 -5.46665 0
M  V30 3681 H 353.809 -2.5181 -5.44713 0
M  V30 3682 H 354.879 -2.67769 -4.04262 0
M  V30 3683 N 356.222 1.38976 -0.743202 0
M  V30 3684 C 357.185 2.28901 -0.117014 0
M  V30 3685 C 358.185 1.46698 0.658503 0
M  V30 3686 O 359.375 1.67274 0.486305 0
M  V30 3687 C 356.507 3.30309 0.84315 0
M  V30 3688 H 357.7 2.8578 -0.909373 0
M  V30 3689 H 355.253 1.47761 -0.509547 0
M  V30 3690 H 355.988 2.785 1.66157 0
M  V30 3691 H 355.773 3.91029 0.289594 0
M  V30 3692 H 357.263 3.97577 1.2776 0
M  V30 3693 N 357.7 0.491464 1.49741 0
M  V30 3694 C 358.63 -0.28154 2.31796 0
M  V30 3695 C 359.611 -0.971473 1.3963 0
M  V30 3696 O 360.796 -0.964719 1.68543 0
M  V30 3697 C 357.926 -1.35203 3.19902 0
M  V30 3698 C 356.88 -0.782529 4.20786 0
M  V30 3699 C 356.206 -1.95283 4.97764 0
M  V30 3700 C 357.506 0.21999 5.21837 0
M  V30 3701 H 359.2 0.403355 2.96671 0
M  V30 3702 H 356.746 0.195425 1.42668 0
M  V30 3703 H 358.699 -1.90045 3.76113 0
M  V30 3704 H 357.423 -2.06598 2.52953 0
M  V30 3705 H 356.082 -0.255928 3.65706 0
M  V30 3706 H 355.73 -2.65423 4.2727 0
M  V30 3707 H 355.43 -1.57789 5.66018 0
M  V30 3708 H 356.954 -2.50577 5.56816 0
M  V30 3709 H 358.368 -0.23996 5.72798 0
M  V30 3710 H 356.765 0.51026 5.97927 0
M  V30 3711 H 357.835 1.13911 4.7133 0
M  V30 3712 N 359.178 -1.55987 0.224894 0
M  V30 3713 C 360.589 -1.84553 -0.282345 0
M  V30 3714 C 360.94 -1.14634 -1.59227 0
M  V30 3715 O 360.065 -0.417155 -2.12341 0
M  V30 3716 C 360.66 -3.348 -0.519062 0
M  V30 3717 C 359.219 -3.63671 -0.970604 0
M  V30 3718 C 358.366 -2.77277 -0.0355261 0
M  V30 3719 H 361.317 -1.52245 0.448006 0
M  V30 3720 H 361.338 -3.55187 -1.36463 0
M  V30 3721 H 360.85 -3.8566 0.43449 0
M  V30 3722 H 358.951 -3.1827 -1.9374 0
M  V30 3723 H 359.064 -4.71631 -0.842698 0
M  V30 3724 H 357.428 -2.48846 -0.542927 0
M  V30 3725 H 358.211 -3.30937 0.913003 0
M  V30 3726 N 360.656 0.0484629 -1.57525 0
M  V30 3727 C 361.902 0.744226 -1.88651 0
M  V30 3728 C 362.235 1.76029 -0.820212 0
M  V30 3729 O 361.51 1.93782 0.166985 0
M  V30 3730 C 361.793 1.43128 -3.30434 0
M  V30 3731 C 361.646 0.43005 -4.47739 0
M  V30 3732 C 362.965 2.37031 -3.70816 0
M  V30 3733 H 360.084 0.269089 -0.68612 0
M  V30 3734 H 362.726 0.00713532 -1.89999 0
M  V30 3735 H 360.876 2.05956 -3.29415 0
M  V30 3736 H 362.548 -0.194816 -4.60888 0
M  V30 3737 H 360.791 -0.252522 -4.33064 0
M  V30 3738 H 361.462 0.948874 -5.43783 0
M  V30 3739 H 363.938 1.84263 -3.73077 0
M  V30 3740 H 362.814 2.82094 -4.70865 0
M  V30 3741 H 363.075 3.22864 -3.02012 0
M  V30 3742 N 362.134 1.5431 0.320358 0
M  V30 3743 C 363.064 1.86912 1.3995 0
M  V30 3744 C 364.045 0.726211 1.53819 0
M  V30 3745 O 365.23 0.980233 1.67646 0
M  V30 3746 C 362.36 2.09932 2.7667 0
M  V30 3747 C 361.314 3.25776 2.77586 0
M  V30 3748 C 360.64 3.34173 4.17412 0
M  V30 3749 C 361.94 4.6335 2.41048 0
M  V30 3750 H 363.634 2.77292 1.12914 0
M  V30 3751 H 361.18 1.33421 0.541738 0
M  V30 3752 H 363.133 2.31324 3.52232 0
M  V30 3753 H 361.857 1.16304 3.0519 0
M  V30 3754 H 360.516 3.04276 2.04479 0
M  V30 3755 H 360.164 2.38098 4.43078 0
M  V30 3756 H 359.864 4.12033 4.18931 0
M  V30 3757 H 361.388 3.57803 4.94782 0
M  V30 3758 H 362.802 4.84602 3.06324 0
M  V30 3759 H 361.199 5.43782 2.53813 0
M  V30 3760 H 362.269 4.65381 1.36193 0
M  V30 3761 N 363.613 -0.582584 1.46437 0
M  V30 3762 C 364.576 -1.67366 1.56592 0
M  V30 3763 C 365.576 -1.54575 0.443072 0
M  V30 3764 O 366.766 -1.59191 0.707381 0
M  V30 3765 C 363.898 -3.06791 1.48634 0
M  V30 3766 H 365.091 -1.5972 2.5383 0
M  V30 3767 H 362.644 -0.800432 1.34249 0
M  V30 3768 H 363.379 -3.19993 0.526763 0
M  V30 3769 H 363.164 -3.17484 2.30101 0
M  V30 3770 H 364.654 -3.86218 1.58826 0
M  V30 3771 N 365.091 -1.34144 -0.827227 0
M  V30 3772 C 366.339 -1.26009 -1.58007 0
M  V30 3773 C 366.66 0.170971 -1.94249 0
M  V30 3774 O 365.93 1.10256 -1.61927 0
M  V30 3775 H 364.51 -0.463414 -0.585881 0
M  V30 3776 H 367.172 -1.68005 -0.987951 0
M  V30 3777 H 366.268 -1.86187 -2.50481 0
M  V30 3778 N 366.569 1.04691 -1.17803 0
M  V30 3779 C 367.532 2.10724 -0.901545 0
M  V30 3780 C 368.532 1.6042 0.110437 0
M  V30 3781 O 369.722 1.7377 -0.122303 0
M  V30 3782 C 366.854 3.39084 -0.351409 0
M  V30 3783 H 368.047 2.36686 -1.84174 0
M  V30 3784 H 365.6 1.21015 -0.98919 0
M  V30 3785 H 366.335 3.18782 0.59569 0
M  V30 3786 H 366.12 3.76909 -1.08083 0
M  V30 3787 H 367.61 4.17227 -0.176451 0
M  V30 3788 N 368.047 0.979072 1.23499 0
M  V30 3789 C 369.296 0.642751 1.91185 0
M  V30 3790 C 369.609 -0.827253 1.77245 0
M  V30 3791 O 370.815 -1.27458 2.39722 0
M  V30 3792 C 369.271 1.09901 3.42709 0
M  V30 3793 C 368.879 2.59327 3.65313 0
M  V30 3794 C 370.623 0.836371 4.16179 0
M  V30 3795 C 368.53 2.98627 5.10467 0
M  V30 3796 H 367.46 0.236698 0.715884 0
M  V30 3797 H 370.111 1.1868 1.39955 0
M  V30 3798 H 368.493 0.48319 3.93041 0
M  V30 3799 H 369.667 3.26136 3.25533 0
M  V30 3800 H 367.982 2.83323 3.05151 0
M  V30 3801 H 370.579 1.10586 5.23139 0
M  V30 3802 H 370.922 -0.227509 4.15678 0
M  V30 3803 H 371.455 1.41371 3.71832 0
M  V30 3804 H 368.194 4.04133 5.16098 0
M  V30 3805 H 367.714 2.3651 5.51201 0
M  V30 3806 H 369.393 2.89159 5.78788 0
M  V30 3807 N 369.525 -1.3858 0.750561 0
M  V30 3808 C 370.753 -2.04471 0.316098 0
M  V30 3809 C 371.168 -1.56606 -1.05452 0
M  V30 3810 O 370.525 -0.737784 -1.66922 0
M  V30 3811 C 370.576 -3.60025 0.326275 0
M  V30 3812 O 370.297 -4.06133 1.6428 0
M  V30 3813 C 371.798 -4.43131 -0.122429 0
M  V30 3814 H 369.018 -0.65717 0.135528 0
M  V30 3815 H 371.562 -1.77329 1.01857 0
M  V30 3816 H 369.717 -3.86014 -0.327431 0
M  V30 3817 H 370.131 -5.00547 1.56693 0
M  V30 3818 H 371.605 -5.51963 -0.0641473 0
M  V30 3819 H 372.082 -4.23333 -1.16988 0
M  V30 3820 H 372.688 -4.22323 0.50229 0
M  V30 3821 N 371.003 -0.499398 -1.49478 0
M  V30 3822 C 371.936 0.326491 -2.25852 0
M  V30 3823 C 372.914 0.971776 -1.30366 0
M  V30 3824 O 374.098 1.00219 -1.59651 0
M  V30 3825 C 371.225 1.45969 -3.05632 0
M  V30 3826 C 370.271 0.928938 -4.16261 0
M  V30 3827 S 371.104 -0.179012 -5.35201 0
M  V30 3828 C 372.26 0.957389 -6.18534 0
M  V30 3829 H 372.493 -0.321746 -2.95554 0
M  V30 3830 H 370.026 -0.284674 -1.51753 0
M  V30 3831 H 371.984 2.109 -3.52181 0
M  V30 3832 H 370.645 2.07953 -2.35402 0
M  V30 3833 H 369.838 1.77813 -4.71592 0
M  V30 3834 H 369.44 0.356869 -3.72293 0
M  V30 3835 H 371.732 1.86296 -6.51383 0
M  V30 3836 H 372.675 0.442733 -7.06715 0
M  V30 3837 H 373.083 1.224 -5.5107 0
M  V30 3838 N 372.481 1.55866 -0.233164 0
M  V30 3839 C 373.411 2.23783 0.666599 0
M  V30 3840 C 374.392 1.21343 1.19205 0
M  V30 3841 O 375.577 1.4996 1.23392 0
M  V30 3842 C 372.707 2.92671 1.86978 0
M  V30 3843 C 371.661 4.01682 1.47768 0
M  V30 3844 C 370.987 4.57926 2.76058 0
M  V30 3845 C 372.287 5.18126 0.658993 0
M  V30 3846 H 373.981 2.99232 0.100306 0
M  V30 3847 H 371.527 1.43924 0.046804 0
M  V30 3848 H 373.48 3.3888 2.50476 0
M  V30 3849 H 372.204 2.14688 2.46123 0
M  V30 3850 H 370.863 3.56222 0.866106 0
M  V30 3851 H 370.511 3.76659 3.33372 0
M  V30 3852 H 370.211 5.31505 2.50552 0
M  V30 3853 H 371.735 5.06859 3.40479 0
M  V30 3854 H 373.149 5.60644 1.19795 0
M  V30 3855 H 371.546 5.98009 0.500552 0
M  V30 3856 H 372.616 4.83763 -0.331856 0
M  V30 3857 N 373.959 -0.0401083 1.57549 0
M  V30 3858 C 374.889 -1.04384 2.08869 0
M  V30 3859 C 375.87 -1.38407 0.988817 0
M  V30 3860 O 377.055 -1.47483 1.26342 0
M  V30 3861 C 374.185 -2.34808 2.55895 0
M  V30 3862 C 373.139 -2.15057 3.70047 0
M  V30 3863 C 372.465 -3.51145 4.03239 0
M  V30 3864 C 373.765 -1.54576 4.98902 0
M  V30 3865 H 375.459 -0.616666 2.92981 0
M  V30 3866 H 373.005 -0.295184 1.40942 0
M  V30 3867 H 374.958 -3.05346 2.90417 0
M  V30 3868 H 373.682 -2.79565 1.68853 0
M  V30 3869 H 372.341 -1.46954 3.35857 0
M  V30 3870 H 371.989 -3.93529 3.13279 0
M  V30 3871 H 371.689 -3.38758 4.80122 0
M  V30 3872 H 373.213 -4.23062 4.40285 0
M  V30 3873 H 374.627 -2.15017 5.31451 0
M  V30 3874 H 373.024 -1.52796 5.80322 0
M  V30 3875 H 374.094 -0.51039 4.82206 0
M  V30 3876 N 375.437 -1.54477 -0.31217 0
M  V30 3877 C 376.665 -1.77205 -1.068 0
M  V30 3878 C 377.08 -0.526114 -1.81321 0
M  V30 3879 O 376.437 0.503647 -1.75413 0
M  V30 3880 C 376.488 -2.97253 -2.05725 0
M  V30 3881 O 376.209 -4.1703 -1.34228 0
M  V30 3882 C 377.71 -3.32281 -2.93435 0
M  V30 3883 H 374.93 -0.591287 -0.317208 0
M  V30 3884 H 377.474 -2.01398 -0.354834 0
M  V30 3885 H 375.629 -2.753 -2.72559 0
M  V30 3886 H 376.043 -4.84636 -2.00571 0
M  V30 3887 H 377.517 -4.19551 -3.58721 0
M  V30 3888 H 377.994 -2.49945 -3.61143 0
M  V30 3889 H 378.6 -3.56353 -2.32147 0
M  V30 3890 N 376.915 0.57481 -1.46744 0
M  V30 3891 C 378.192 1.3352 -1.4294 0
M  V30 3892 C 378.572 2.10775 -0.117009 0
M  V30 3893 O 377.92 2.09966 0.901474 0
M  V30 3894 C 378.13 2.25456 -2.66403 0
M  V30 3895 C 379.478 2.87035 -3.12883 0
M  V30 3896 O 380.502 2.35766 -2.67007 0
M  V30 3897 O 379.361 3.80179 -3.92589 0
M  V30 3898 H 376.455 0.600318 -0.568812 0
M  V30 3899 H 379.001 0.595171 -1.58921 0
M  V30 3900 H 377.773 1.67851 -3.53471 0
M  V30 3901 H 377.396 3.06785 -2.52921 0
M  V30 3902 N 378.394 1.34581 0.820102 0
M  V30 3903 C 379.81 1.14325 1.11364 0
M  V30 3904 C 380.01 -0.0533648 2.01429 0
M  V30 3905 O 379.066 -0.728044 2.41776 0
M  V30 3906 C 380.379 2.43983 1.75764 0
M  V30 3907 C 381.927 2.50065 1.88246 0
M  V30 3908 C 382.402 3.79732 2.56061 0
M  V30 3909 N 383.893 3.80908 2.63558 0
M  V30 3910 C 384.628 4.77961 3.16766 0
M  V30 3911 N 384.124 5.85397 3.70517 0
M  V30 3912 N 385.917 4.65413 3.15194 0
M  V30 3913 H 378.068 2.11246 0.221096 0
M  V30 3914 H 380.331 0.934289 0.160649 0
M  V30 3915 H 380.037 3.31651 1.1705 0
M  V30 3916 H 379.911 2.57531 2.75604 0
M  V30 3917 H 382.298 1.62834 2.46108 0
M  V30 3918 H 382.379 2.40442 0.873006 0
M  V30 3919 H 382.023 4.67354 1.98853 0
M  V30 3920 H 381.953 3.86639 3.57516 0
M  V30 3921 H 384.444 3.03274 2.25463 0
M  V30 3922 H 384.757 6.55463 4.09376 0
M  V30 3923 H 383.102 5.89107 3.68752 0
M  V30 3924 H 386.293 3.80627 2.72471 0
M  V30 3925 H 386.466 5.41216 3.56356 0
M  V30 3926 N 379.872 -1.04064 1.18357 0
M  V30 3927 C 380.82 -2.14187 0.907007 0
M  V30 3928 C 381.814 -1.68879 -0.132725 0
M  V30 3929 O 383.02 -1.79993 0.0154248 0
M  V30 3930 H 379.395 -0.699585 0.275835 0
M  V30 3931 H 381.366 -2.34711 1.84264 0
M  V30 3932 C 380.115 -3.44785 0.449254 0
M  V30 3933 H 379.438 -3.80058 1.24081 0
M  V30 3934 H 380.878 -4.22974 0.294737 0
M  V30 3935 C 379.337 -3.26391 -0.834909 0
M  V30 3936 O 379.867 -3.53973 -1.89911 0
M  V30 3937 N 378.073 -2.79726 -0.787523 0
M  V30 3938 H 377.62 -2.5748 0.0787347 0
M  V30 3939 H 377.578 -2.67798 -1.64716 0
M  V30 3940 N 381.35 -0.985608 -1.22978 0
M  V30 3941 C 382.597 -0.657386 -1.91532 0
M  V30 3942 C 382.925 0.809707 -1.76845 0
M  V30 3943 O 382.18 1.60021 -1.12658 0
M  V30 3944 C 382.479 -1.00014 -3.43121 0
M  V30 3945 C 382.145 -2.4583 -3.77993 0
M  V30 3946 C 380.807 -2.85679 -3.87222 0
M  V30 3947 C 383.159 -3.40378 -3.94705 0
M  V30 3948 C 380.487 -4.19081 -4.10595 0
M  V30 3949 C 382.839 -4.73429 -4.1958 0
M  V30 3950 C 381.503 -5.1303 -4.27032 0
M  V30 3951 H 380.773 -0.240555 -0.700867 0
M  V30 3952 H 383.42 -1.24044 -1.45895 0
M  V30 3953 H 381.725 -0.335072 -3.90365 0
M  V30 3954 H 383.422 -0.724322 -3.94404 0
M  V30 3955 H 380.012 -2.13939 -3.71387 0
M  V30 3956 H 384.196 -3.10766 -3.8696 0
M  V30 3957 H 379.452 -4.49362 -4.14589 0
M  V30 3958 H 383.626 -5.46644 -4.31455 0
M  V30 3959 H 381.253 -6.16418 -4.44896 0
M  V30 3960 N 382.828 1.3818 -0.7579 0
M  V30 3961 C 384.076 1.99624 -0.315361 0
M  V30 3962 C 384.397 1.60464 1.10799 0
M  V30 3963 O 383.667 0.863507 1.75842 0
M  V30 3964 H 382.247 0.73831 -0.113611 0
M  V30 3965 H 384.909 1.68878 -0.972952 0
M  V30 3966 H 384.005 3.09754 -0.381931 0
M  V30 3967 N 384.306 0.507319 1.49211 0
M  V30 3968 C 385.534 -0.0315749 2.06876 0
M  V30 3969 C 385.949 -1.30241 1.36685 0
M  V30 3970 O 385.306 -1.76937 0.447152 0
M  V30 3971 C 385.357 -0.282627 3.60393 0
M  V30 3972 O 385.078 0.937835 4.27944 0
M  V30 3973 C 386.579 -0.864453 4.3479 0
M  V30 3974 H 383.799 0.0233048 0.670595 0
M  V30 3975 H 386.343 0.706484 1.91909 0
M  V30 3976 H 384.498 -0.97068 3.75042 0
M  V30 3977 H 384.912 0.704567 5.19746 0
M  V30 3978 H 386.386 -0.989664 5.43056 0
M  V30 3979 H 386.863 -1.86382 3.97692 0
M  V30 3980 H 387.469 -0.213672 4.24763 0
M  V30 3981 N 385.784 -1.5574 0.241426 0
M  V30 3982 C 387.012 -2.03208 -0.389134 0
M  V30 3983 C 387.427 -1.12082 -1.51931 0
M  V30 3984 O 386.784 -0.134183 -1.82006 0
M  V30 3985 C 386.835 -3.50064 -0.902087 0
M  V30 3986 O 386.556 -4.37717 0.18305 0
M  V30 3987 C 388.057 -4.13268 -1.60389 0
M  V30 3988 H 385.277 -0.664509 -0.0931053 0
M  V30 3989 H 387.821 -2.0124 0.36369 0
M  V30 3990 H 385.976 -3.52583 -1.60511 0
M  V30 3991 H 386.39 -5.24097 -0.205579 0
M  V30 3992 H 387.864 -5.17733 -1.91458 0
M  V30 3993 H 388.341 -3.59434 -2.52397 0
M  V30 3994 H 388.947 -4.14655 -0.945576 0
M  V30 3995 N 387.262 0.0317525 -1.57568 0
M  V30 3996 C 388.509 0.723104 -1.89149 0
M  V30 3997 C 388.837 1.75504 -0.838377 0
M  V30 3998 O 388.092 1.95037 0.160982 0
M  V30 3999 C 388.391 1.43167 -3.27472 0
M  V30 4000 C 388.057 0.535972 -4.47703 0
M  V30 4001 C 386.719 0.289262 -4.8033 0
M  V30 4002 C 389.071 -0.0826125 -5.21135 0
M  V30 4003 C 386.399 -0.584853 -5.83778 0
M  V30 4004 C 388.751 -0.944414 -6.25511 0
M  V30 4005 C 387.415 -1.20061 -6.56614 0
M  V30 4006 H 386.685 0.264602 -0.692146 0
M  V30 4007 H 389.332 -0.0169496 -1.91492 0
M  V30 4008 H 387.637 2.24497 -3.21105 0
M  V30 4009 H 389.334 1.97209 -3.49155 0
M  V30 4010 H 385.924 0.738414 -4.22191 0
M  V30 4011 H 390.108 0.0950302 -4.96209 0
M  V30 4012 H 385.364 -0.79168 -6.06253 0
M  V30 4013 H 389.538 -1.43026 -6.81554 0
M  V30 4014 H 387.165 -1.87967 -7.36595 0
M  V30 4015 N 388.74 1.54641 0.303973 0
M  V30 4016 C 389.987 1.7378 1.03955 0
M  V30 4017 C 390.315 0.521986 1.87365 0
M  V30 4018 O 389.57 -0.496099 1.89308 0
M  V30 4019 C 389.869 2.97753 1.97681 0
M  V30 4020 C 389.535 4.31671 1.30271 0
M  V30 4021 C 388.197 4.68075 1.11619 0
M  V30 4022 C 390.549 5.147 0.82055 0
M  V30 4023 C 387.877 5.8509 0.434304 0
M  V30 4024 C 390.229 6.32416 0.152395 0
M  V30 4025 C 388.893 6.67484 -0.0461067 0
M  V30 4026 H 388.163 0.635908 0.380398 0
M  V30 4027 H 390.81 1.88896 0.314718 0
M  V30 4028 H 389.115 2.77406 2.76682 0
M  V30 4029 H 390.812 3.09756 2.54661 0
M  V30 4030 H 387.402 4.03041 1.45795 0
M  V30 4031 H 391.586 4.87077 0.952374 0
M  V30 4032 H 386.842 6.10806 0.269495 0
M  V30 4033 H 391.016 6.96023 -0.229126 0
M  V30 4034 H 388.643 7.58011 -0.576494 0
M  V30 4035 N 390.218 -0.567019 1.47046 0
M  V30 4036 C 391.15 -1.68985 1.54844 0
M  V30 4037 C 392.163 -1.56869 0.435431 0
M  V30 4038 O 393.352 -1.64006 0.70457 0
M  V30 4039 C 390.452 -3.07373 1.42742 0
M  V30 4040 C 389.625 -3.45339 2.6844 0
M  V30 4041 C 388.684 -4.62849 2.50314 0
M  V30 4042 O 387.71 -4.67922 3.24095 0
M  V30 4043 N 388.912 -5.58726 1.57499 0
M  V30 4044 H 391.677 -1.62745 2.51663 0
M  V30 4045 H 389.238 -0.753411 1.43302 0
M  V30 4046 H 391.23 -3.83803 1.28365 0
M  V30 4047 H 389.8 -3.07893 0.540445 0
M  V30 4048 H 389.02 -2.58455 2.97648 0
M  V30 4049 H 390.308 -3.67476 3.51907 0
M  V30 4050 H 389.706 -5.57376 0.966876 0
M  V30 4051 H 388.263 -6.34523 1.49078 0
M  V30 4052 N 391.696 -1.35014 -0.812953 0
M  V30 4053 C 393.107 -1.25035 -1.38648 0
M  V30 4054 C 393.458 0.119967 -1.95833 0
M  V30 4055 O 392.583 1.02069 -1.90816 0
M  V30 4056 C 393.178 -2.26394 -2.52054 0
M  V30 4057 C 391.737 -2.20175 -3.05287 0
M  V30 4058 C 390.884 -2.12451 -1.78213 0
M  V30 4059 H 393.835 -1.46235 -0.616516 0
M  V30 4060 H 393.856 -1.88672 -3.30429 0
M  V30 4061 H 393.368 -3.26116 -2.10404 0
M  V30 4062 H 391.469 -1.23841 -3.51417 0
M  V30 4063 H 391.582 -3.11863 -3.63701 0
M  V30 4064 H 389.946 -1.58328 -1.9951 0
M  V30 4065 H 390.729 -3.14024 -1.38723 0
M  V30 4066 N 393.175 1.03435 -1.18907 0
M  V30 4067 C 394.4 1.80919 -1.01406 0
M  V30 4068 C 394.825 1.83055 0.432721 0
M  V30 4069 O 394.183 1.25252 1.31079 0
M  V30 4070 C 394.231 3.24091 -1.58105 0
M  V30 4071 O 393.335 4.04434 -0.806669 0
M  V30 4072 H 392.676 0.558709 -0.358803 0
M  V30 4073 H 395.206 1.30223 -1.57807 0
M  V30 4074 H 395.216 3.74853 -1.61087 0
M  V30 4075 H 393.891 3.21851 -2.6341 0
M  V30 4076 H 392.468 3.63091 -0.849666 0
M  V30 4077 N 394.653 0.992116 1.22453 0
M  V30 4078 C 395.901 0.666215 1.90804 0
M  V30 4079 C 396.222 -0.804152 1.77647 0
M  V30 4080 O 395.492 -1.57629 1.16318 0
M  V30 4081 H 394.072 0.243423 0.706225 0
M  V30 4082 H 396.734 1.25845 1.48825 0
M  V30 4083 H 395.83 0.928069 2.97982 0
M  V30 4084 N 396.131 -1.37776 0.765217 0
M  V30 4085 C 397.379 -1.99454 0.325943 0
M  V30 4086 C 397.7 -1.61049 -1.09947 0
M  V30 4087 O 396.97 -0.872821 -1.75381 0
M  V30 4088 H 395.55 -0.737697 0.117525 0
M  V30 4089 H 398.212 -1.68359 0.981895 0
M  V30 4090 H 397.308 -3.09547 0.398353 0
M  V30 4091 N 397.609 -0.515225 -1.4894 0
M  V30 4092 C 398.857 0.0241671 -2.02086 0
M  V30 4093 C 399.178 1.3616 -1.3959 0
M  V30 4094 O 398.448 1.87841 -0.556121 0
M  V30 4095 H 397.028 0.0119203 -0.746905 0
M  V30 4096 H 399.69 -0.675702 -1.82812 0
M  V30 4097 H 398.786 0.143385 -3.1177 0
M  V30 4098 N 399.087 1.5561 -0.249682 0
M  V30 4099 C 400.364 1.90932 0.424761 0
M  V30 4100 C 400.744 1.17078 1.75658 0
M  V30 4101 O 400.092 0.289176 2.26663 0
M  V30 4102 C 400.302 3.43975 0.590109 0
M  V30 4103 C 401.65 4.15281 0.884714 0
M  V30 4104 O 402.674 3.49729 0.67587 0
M  V30 4105 O 401.533 5.31236 1.28259 0
M  V30 4106 H 398.627 0.794815 0.228468 0
M  V30 4107 H 401.173 1.67135 -0.293954 0
M  V30 4108 H 399.945 3.89748 -0.34818 0
M  V30 4109 H 399.568 3.73644 1.35926 0
M  V30 4110 N 400.565 -0.0233959 1.57583 0
M  V30 4111 C 401.976 -0.56927 1.77809 0
M  V30 4112 C 402.327 -1.75284 0.881472 0
M  V30 4113 O 401.452 -2.1626 0.0777805 0
M  V30 4114 C 402.047 -1.03949 3.22459 0
M  V30 4115 C 400.606 -1.53084 3.43864 0
M  V30 4116 C 399.753 -0.471454 2.73263 0
M  V30 4117 H 402.704 0.202825 1.57399 0
M  V30 4118 H 402.725 -1.90661 3.29285 0
M  V30 4119 H 402.237 -0.177865 3.87692 0
M  V30 4120 H 400.338 -2.41414 2.83814 0
M  V30 4121 H 400.451 -1.57443 4.52491 0
M  V30 4122 H 398.815 -0.927788 2.37201 0
M  V30 4123 H 399.598 0.380808 3.41181 0
M  V30 4124 N 402.043 -1.548 -0.295768 0
M  V30 4125 C 403.289 -1.74588 -1.03184 0
M  V30 4126 C 403.622 -0.532962 -1.86744 0
M  V30 4127 O 402.897 0.469872 -1.88739 0
M  V30 4128 C 403.18 -3.03791 -1.93347 0
M  V30 4129 C 403.033 -4.35392 -1.12933 0
M  V30 4130 C 404.352 -3.28892 -2.92435 0
M  V30 4131 H 401.471 -0.635221 -0.373715 0
M  V30 4132 H 404.113 -1.87519 -0.30606 0
M  V30 4133 H 402.263 -2.92898 -2.55232 0
M  V30 4134 H 403.935 -4.58211 -0.532943 0
M  V30 4135 H 402.178 -4.31642 -0.432168 0
M  V30 4136 H 402.849 -5.22074 -1.79284 0
M  V30 4137 H 405.325 -3.39429 -2.4068 0
M  V30 4138 H 404.201 -4.20603 -3.52682 0
M  V30 4139 H 404.462 -2.47437 -3.6637 0
M  V30 4140 N 403.521 0.559213 -1.47345 0
M  V30 4141 C 404.451 1.67622 -1.62558 0
M  V30 4142 C 405.432 1.63331 -0.475087 0
M  V30 4143 O 406.617 1.80983 -0.704182 0
M  V30 4144 C 403.747 3.0626 -1.63774 0
M  V30 4145 C 402.701 3.25397 -2.7803 0
M  V30 4146 C 402.027 4.64801 -2.64318 0
M  V30 4147 C 403.327 3.10965 -4.19641 0
M  V30 4148 H 405.021 1.55146 -2.56067 0
M  V30 4149 H 402.567 0.744961 -1.23233 0
M  V30 4150 H 404.52 3.84247 -1.73008 0
M  V30 4151 H 403.244 3.1969 -0.66825 0
M  V30 4152 H 401.903 2.49817 -2.68304 0
M  V30 4153 H 401.551 4.75028 -1.65401 0
M  V30 4154 H 401.251 4.78555 -3.40968 0
M  V30 4155 H 402.775 5.44926 -2.75478 0
M  V30 4156 H 404.189 3.78772 -4.30354 0
M  V30 4157 H 402.586 3.36229 -4.97062 0
M  V30 4158 H 403.656 2.07736 -4.38148 0
M  V30 4159 N 404.999 1.35443 0.805782 0
M  V30 4160 C 406.229 1.31687 1.59192 0
M  V30 4161 C 406.637 -0.10756 1.88894 0
M  V30 4162 O 405.98 -1.07017 1.49309 0
M  V30 4163 C 406.042 2.05686 2.94845 0
M  V30 4164 C 405.706 3.54868 2.87954 0
M  V30 4165 C 406.703 4.49444 2.61335 0
M  V30 4166 C 404.388 3.97528 3.07046 0
M  V30 4167 C 406.382 5.84655 2.53885 0
M  V30 4168 C 404.069 5.32833 2.99219 0
M  V30 4169 C 405.067 6.26209 2.72674 0
M  V30 4170 O 404.755 7.59032 2.64811 0
M  V30 4171 H 404.487 0.453878 0.50097 0
M  V30 4172 H 407.041 1.78892 1.0093 0
M  V30 4173 H 405.271 1.5312 3.55093 0
M  V30 4174 H 406.96 1.94998 3.55993 0
M  V30 4175 H 407.726 4.17804 2.46303 0
M  V30 4176 H 403.605 3.25233 3.26718 0
M  V30 4177 H 407.149 6.57508 2.33086 0
M  V30 4178 H 403.046 5.64087 3.13809 0
M  V30 4179 H 403.814 7.68967 2.80413 0
M  V30 4180 N 406.477 -1.02803 1.19454 0
M  V30 4181 C 407.409 -2.11181 0.890807 0
M  V30 4182 C 408.422 -1.6238 -0.116829 0
M  V30 4183 O 409.611 -1.78144 0.112694 0
M  V30 4184 C 406.711 -3.37461 0.311942 0
M  V30 4185 C 405.884 -4.15446 1.36834 0
M  V30 4186 C 404.943 -5.20039 0.802864 0
M  V30 4187 O 403.969 -5.49602 1.48077 0
M  V30 4188 N 405.171 -5.79165 -0.393417 0
M  V30 4189 H 407.936 -2.37827 1.82369 0
M  V30 4190 H 405.497 -1.19101 1.09666 0
M  V30 4191 H 407.489 -4.0462 -0.0802225 0
M  V30 4192 H 406.059 -3.08156 -0.52524 0
M  V30 4193 H 405.279 -3.43423 1.93531 0
M  V30 4194 H 406.567 -4.64335 2.08015 0
M  V30 4195 H 405.965 -5.57466 -0.961658 0
M  V30 4196 H 404.522 -6.47729 -0.727351 0
M  V30 4197 N 407.956 -0.998596 -1.21925 0
M  V30 4198 C 408.906 -0.524743 -2.21879 0
M  V30 4199 C 409.89 0.41017 -1.55584 0
M  V30 4200 O 411.082 0.236063 -1.75419 0
M  V30 4201 C 408.211 0.153636 -3.42956 0
M  V30 4202 C 407.297 -0.801918 -4.16449 0
M  V30 4203 N 407.688 -1.95211 -4.66611 0
M  V30 4204 C 405.986 -0.618972 -4.41684 0
M  V30 4205 C 406.687 -2.55234 -5.22715 0
M  V30 4206 N 405.663 -1.83451 -5.1171 0
M  V30 4207 H 409.465 -1.40189 -2.58311 0
M  V30 4208 H 406.979 -0.86159 -1.3766 0
M  V30 4209 H 408.976 0.510534 -4.13762 0
M  V30 4210 H 407.636 1.02684 -3.08036 0
M  V30 4211 H 408.647 -2.33271 -4.62391 0
M  V30 4212 H 405.324 0.207694 -4.16983 0
M  V30 4213 H 406.714 -3.52471 -5.72026 0
M  V30 4214 N 409.434 1.37368 -0.772513 0
M  V30 4215 C 410.683 1.98918 -0.333861 0
M  V30 4216 C 410.996 1.62017 1.09589 0
M  V30 4217 O 412.202 2.16676 1.63596 0
M  V30 4218 C 410.658 3.55735 -0.545971 0
M  V30 4219 C 410.266 4.01573 -1.98603 0
M  V30 4220 C 412.01 4.24156 -0.170979 0
M  V30 4221 C 409.917 5.51102 -2.1457 0
M  V30 4222 H 408.847 0.744214 -0.121085 0
M  V30 4223 H 411.498 1.56888 -0.95175 0
M  V30 4224 H 409.88 3.95748 0.141387 0
M  V30 4225 H 411.054 3.72803 -2.7084 0
M  V30 4226 H 409.369 3.45937 -2.31769 0
M  V30 4227 H 411.966 5.34024 -0.26878 0
M  V30 4228 H 412.309 4.06917 0.878855 0
M  V30 4229 H 412.842 3.89447 -0.810914 0
M  V30 4230 H 409.581 5.73268 -3.17875 0
M  V30 4231 H 409.101 5.81554 -1.46817 0
M  V30 4232 H 410.78 6.17083 -1.94468 0
M  V30 4233 N 410.912 0.523116 1.48665 0
M  V30 4234 C 411.842 -0.23231 2.32342 0
M  V30 4235 C 412.823 -0.941637 1.41659 0
M  V30 4236 O 414.008 -0.928751 1.70552 0
M  V30 4237 C 411.138 -1.28387 3.22698 0
M  V30 4238 C 410.092 -0.693098 4.22351 0
M  V30 4239 C 409.418 -1.8468 5.01794 0
M  V30 4240 C 410.718 0.33063 5.21252 0
M  V30 4241 H 412.412 0.466192 2.95748 0
M  V30 4242 H 409.958 0.225643 1.42221 0
M  V30 4243 H 411.911 -1.82024 3.80059 0
M  V30 4244 H 410.635 -2.01186 2.57278 0
M  V30 4245 H 409.294 -0.178299 3.66166 0
M  V30 4246 H 408.942 -2.56301 4.32804 0
M  V30 4247 H 408.642 -1.45747 5.69238 0
M  V30 4248 H 410.166 -2.38709 5.62006 0
M  V30 4249 H 411.58 -0.118407 5.73178 0
M  V30 4250 H 409.977 0.636974 5.9671 0
M  V30 4251 H 411.047 1.23883 4.68808 0
M  V30 4252 N 412.39 -1.55475 0.257931 0
M  V30 4253 C 413.636 -2.00237 -0.357338 0
M  V30 4254 C 413.991 -1.14313 -1.54759 0
M  V30 4255 O 413.284 -0.201187 -1.90541 0
M  V30 4256 C 413.478 -3.48183 -0.806433 0
M  V30 4257 C 413.307 -4.48422 0.338758 0
M  V30 4258 C 412.077 -4.98651 0.817011 0
M  V30 4259 C 414.275 -5.00827 1.16949 0
M  V30 4260 N 412.257 -5.82658 1.93346 0
M  V30 4261 C 413.628 -5.82113 2.13413 0
M  V30 4262 C 415.683 -4.83104 1.2048 0
M  V30 4263 C 414.386 -6.47566 3.13131 0
M  V30 4264 C 416.412 -5.49343 2.19034 0
M  V30 4265 C 415.774 -6.30427 3.14232 0
M  V30 4266 H 411.873 -0.776034 -0.0964083 0
M  V30 4267 H 414.457 -1.90995 0.37803 0
M  V30 4268 H 412.628 -3.57801 -1.51107 0
M  V30 4269 H 414.36 -3.79802 -1.39758 0
M  V30 4270 H 411.115 -4.71914 0.39925 0
M  V30 4271 H 411.539 -6.29356 2.49478 0
M  V30 4272 H 416.181 -4.20036 0.482634 0
M  V30 4273 H 413.899 -7.09793 3.8629 0
M  V30 4274 H 417.485 -5.37579 2.22485 0
M  V30 4275 H 416.365 -6.80777 3.89246 0
M  V30 4276 N 413.868 0.0150385 -1.57593 0
M  V30 4277 C 415.115 0.703001 -1.89906 0
M  V30 4278 C 415.443 1.74604 -0.856944 0
M  V30 4279 O 414.698 1.95197 0.140287 0
M  V30 4280 C 414.997 1.39686 -3.28972 0
M  V30 4281 C 414.663 0.488457 -4.48246 0
M  V30 4282 C 413.325 0.2383 -4.8061 0
M  V30 4283 C 415.677 -0.137881 -5.21018 0
M  V30 4284 C 413.005 -0.646738 -5.83125 0
M  V30 4285 C 415.357 -1.0107 -6.24474 0
M  V30 4286 C 414.021 -1.27019 -6.55303 0
M  V30 4287 H 413.291 0.257246 -0.694914 0
M  V30 4288 H 415.938 -0.037259 -1.91464 0
M  V30 4289 H 414.243 2.21079 -3.23468 0
M  V30 4290 H 415.94 1.93495 -3.51227 0
M  V30 4291 H 412.53 0.693593 -4.22951 0
M  V30 4292 H 416.714 0.0423953 -4.96282 0
M  V30 4293 H 411.97 -0.855937 -6.05379 0
M  V30 4294 H 416.144 -1.50247 -6.79999 0
M  V30 4295 H 413.771 -1.95769 -7.3456 0
M  V30 4296 N 415.346 1.54954 0.287554 0
M  V30 4297 C 416.593 1.74873 1.02106 0
M  V30 4298 C 416.921 0.541829 1.86801 0
M  V30 4299 O 416.176 -0.475992 1.89823 0
M  V30 4300 C 416.475 2.99833 1.94512 0
M  V30 4301 C 416.141 4.33029 1.25686 0
M  V30 4302 C 414.803 4.69233 1.06649 0
M  V30 4303 C 417.155 5.15542 0.765913 0
M  V30 4304 C 414.483 5.85518 0.372222 0
M  V30 4305 C 416.835 6.32542 0.0853101 0
M  V30 4306 C 415.499 6.67398 -0.1169 0
M  V30 4307 H 414.769 0.639906 0.373632 0
M  V30 4308 H 417.416 1.89219 0.294665 0
M  V30 4309 H 415.721 2.80325 2.73725 0
M  V30 4310 H 417.418 3.1244 2.51361 0
M  V30 4311 H 414.008 4.04564 1.41512 0
M  V30 4312 H 418.192 4.88059 0.90066 0
M  V30 4313 H 413.448 6.11057 0.204695 0
M  V30 4314 H 417.622 6.95741 -0.302936 0
M  V30 4315 H 415.249 7.57357 -0.656859 0
M  V30 4316 N 416.824 -0.551391 1.4764 0
M  V30 4317 C 418.072 -1.30572 1.54258 0
M  V30 4318 C 418.393 -1.93877 0.208963 0
M  V30 4319 O 417.663 -1.80234 -0.767619 0
M  V30 4320 H 416.243 -0.484894 0.568231 0
M  V30 4321 H 418.905 -0.643402 1.83974 0
M  V30 4322 H 418.001 -2.09621 2.31226 0
M  V30 4323 N 418.302 -1.35869 -0.798587 0
M  V30 4324 C 419.252 -1.25982 -1.90033 0
M  V30 4325 C 420.236 -0.153303 -1.60168 0
M  V30 4326 O 421.428 -0.38527 -1.72756 0
M  V30 4327 C 418.557 -1.04211 -3.27101 0
M  V30 4328 C 417.643 -2.19289 -3.63006 0
M  V30 4329 N 418.034 -3.44559 -3.70287 0
M  V30 4330 C 416.332 -2.10852 -3.93011 0
M  V30 4331 C 417.033 -4.20283 -4.02166 0
M  V30 4332 N 416.009 -3.49124 -4.16669 0
M  V30 4333 H 419.811 -2.20883 -1.93876 0
M  V30 4334 H 417.325 -1.28457 -0.993614 0
M  V30 4335 H 419.322 -0.952155 -4.05881 0
M  V30 4336 H 417.982 -0.102013 -3.2454 0
M  V30 4337 H 418.993 -3.7881 -3.53162 0
M  V30 4338 H 415.67 -1.24744 -3.98428 0
M  V30 4339 H 417.06 -5.28575 -4.14799 0
M  V30 4340 N 419.78 1.02168 -1.19998 0
M  V30 4341 C 421.191 1.57135 -1.00825 0
M  V30 4342 C 421.542 1.91276 0.436818 0
M  V30 4343 O 420.667 1.71679 1.3174 0
M  V30 4344 C 421.262 2.85514 -1.82393 0
M  V30 4345 C 419.821 3.37027 -1.67601 0
M  V30 4346 C 418.968 2.10388 -1.80644 0
M  V30 4347 H 421.919 0.846106 -1.34264 0
M  V30 4348 H 421.94 3.56711 -1.32429 0
M  V30 4349 H 421.452 2.60634 -2.87561 0
M  V30 4350 H 419.553 3.66878 -0.650485 0
M  V30 4351 H 419.666 4.09572 -2.4857 0
M  V30 4352 H 418.03 2.22601 -1.23778 0
M  V30 4353 H 418.813 1.8794 -2.87286 0
M  V30 4354 N 421.258 1.00505 1.21394 0
M  V30 4355 C 422.168 0.574806 2.27449 0
M  V30 4356 C 423.184 -0.382206 1.6975 0
M  V30 4357 O 424.36 -0.246027 1.99892 0
M  V30 4358 C 421.425 -0.0917414 3.46579 0
M  V30 4359 C 420.486 0.909758 4.1955 0
M  V30 4360 C 419.719 0.274924 5.32991 0
M  V30 4361 O 419.942 -0.928254 5.62796 0
M  V30 4362 O 418.876 0.985877 5.93771 0
M  V30 4363 H 422.702 1.45744 2.66444 0
M  V30 4364 H 420.287 0.773923 1.27792 0
M  V30 4365 H 422.169 -0.464551 4.18832 0
M  V30 4366 H 420.844 -0.948755 3.09484 0
M  V30 4367 H 419.751 1.33372 3.49518 0
M  V30 4368 H 421.084 1.73636 4.60555 0
M  V30 4369 N 422.737 -1.36956 0.779787 0
M  V30 4370 C 423.983 -1.99787 0.348281 0
M  V30 4371 C 424.316 -1.61756 -1.07465 0
M  V30 4372 O 423.591 -0.867639 -1.74075 0
M  V30 4373 C 423.874 -3.56597 0.50104 0
M  V30 4374 C 423.727 -4.04513 1.96697 0
M  V30 4375 C 425.046 -4.40008 -0.0898097 0
M  V30 4376 H 422.165 -0.725796 0.128022 0
M  V30 4377 H 424.807 -1.62514 0.984331 0
M  V30 4378 H 422.957 -3.88479 -0.0404347 0
M  V30 4379 H 424.629 -3.83161 2.56876 0
M  V30 4380 H 422.872 -3.56408 2.47297 0
M  V30 4381 H 423.543 -5.1352 2.02486 0
M  V30 4382 H 426.019 -4.14431 0.372293 0
M  V30 4383 H 424.895 -5.4888 0.0471605 0
M  V30 4384 H 425.156 -4.26035 -1.18096 0
M  V30 4385 N 424.215 -0.530993 -1.48385 0
M  V30 4386 C 425.445 -0.00133928 -2.066 0
M  V30 4387 C 425.853 1.28599 -1.38777 0
M  V30 4388 O 425.196 1.77599 -0.469495 0
M  V30 4389 C 425.258 0.292137 -3.58311 0
M  V30 4390 C 424.922 -0.901864 -4.48013 0
M  V30 4391 C 425.919 -1.80053 -4.87726 0
M  V30 4392 C 423.604 -1.10915 -4.89901 0
M  V30 4393 C 425.598 -2.89038 -5.68098 0
M  V30 4394 C 423.285 -2.20213 -5.70043 0
M  V30 4395 C 424.283 -3.09107 -6.0905 0
M  V30 4396 O 423.971 -4.16514 -6.87583 0
M  V30 4397 H 423.703 -0.0308475 -0.675296 0
M  V30 4398 H 426.257 -0.736335 -1.91748 0
M  V30 4399 H 424.487 1.08112 -3.7128 0
M  V30 4400 H 426.176 0.763994 -3.98645 0
M  V30 4401 H 426.942 -1.65234 -4.55986 0
M  V30 4402 H 422.821 -0.426498 -4.59023 0
M  V30 4403 H 426.365 -3.58451 -5.98464 0
M  V30 4404 H 422.262 -2.35016 -6.01197 0
M  V30 4405 H 423.03 -4.14237 -7.05939 0
M  V30 4406 N 425.693 1.55336 -0.266172 0
M  V30 4407 C 426.942 1.98574 0.353749 0
M  V30 4408 C 427.255 1.15789 1.57646 0
M  V30 4409 O 428.461 1.49129 2.26876 0
M  V30 4410 C 426.917 3.53403 0.680747 0
M  V30 4411 C 426.525 4.44953 -0.52165 0
M  V30 4412 C 428.269 4.05251 1.26379 0
M  V30 4413 C 426.176 5.91156 -0.169736 0
M  V30 4414 H 425.106 0.741643 0.135949 0
M  V30 4415 H 427.757 1.79743 -0.369421 0
M  V30 4416 H 426.139 3.68001 1.46257 0
M  V30 4417 H 427.313 4.42121 -1.29869 0
M  V30 4418 H 425.628 4.03691 -1.02093 0
M  V30 4419 H 428.225 5.12021 1.54074 0
M  V30 4420 H 428.568 3.53749 2.19471 0
M  V30 4421 H 429.101 3.94057 0.544447 0
M  V30 4422 H 425.84 6.46736 -1.0683 0
M  V30 4423 H 425.36 5.97079 0.570717 0
M  V30 4424 H 427.039 6.4655 0.241245 0
M  V30 4425 N 427.171 -0.0066808 1.57599 0
M  V30 4426 C 428.42 -0.692078 1.89455 0
M  V30 4427 C 428.733 -1.75306 0.867586 0
M  V30 4428 O 429.939 -2.49262 1.07614 0
M  V30 4429 C 428.395 -1.2821 3.36289 0
M  V30 4430 C 428.003 -0.256291 4.47266 0
M  V30 4431 C 429.747 -1.94608 3.77264 0
M  V30 4432 C 427.654 -0.855927 5.85173 0
M  V30 4433 H 426.584 -0.262252 0.706923 0
M  V30 4434 H 429.235 0.052769 1.83424 0
M  V30 4435 H 427.617 -2.0774 3.37135 0
M  V30 4436 H 428.791 0.513923 4.57925 0
M  V30 4437 H 427.106 0.306862 4.15268 0
M  V30 4438 H 429.703 -2.40364 4.77629 0
M  V30 4439 H 430.046 -2.77382 3.10427 0
M  V30 4440 H 430.579 -1.21822 3.78688 0
M  V30 4441 H 427.318 -0.0671161 6.55466 0
M  V30 4442 H 426.838 -1.59546 5.78191 0
M  V30 4443 H 428.517 -1.35658 6.32618 0
M  V30 4444 N 428.649 -1.55105 -0.279332 0
M  V30 4445 C 429.895 -1.75672 -1.01327 0
M  V30 4446 C 430.228 -0.552739 -1.86168 0
M  V30 4447 O 429.503 0.449827 -1.89227 0
M  V30 4448 C 429.786 -3.05825 -1.90114 0
M  V30 4449 C 429.639 -4.36565 -1.08309 0
M  V30 4450 C 430.958 -3.31975 -2.8893 0
M  V30 4451 H 428.077 -0.639149 -0.366957 0
M  V30 4452 H 430.719 -1.87833 -0.286154 0
M  V30 4453 H 428.869 -2.95588 -2.52111 0
M  V30 4454 H 430.541 -4.58751 -0.484314 0
M  V30 4455 H 428.784 -4.32076 -0.386362 0
M  V30 4456 H 429.455 -5.23946 -1.73737 0
M  V30 4457 H 431.931 -3.41963 -2.37067 0
M  V30 4458 H 430.807 -4.2432 -3.48201 0
M  V30 4459 H 431.068 -2.51309 -3.63725 0
M  V30 4460 N 430.127 0.543554 -1.4793 0
M  V30 4461 C 431.057 1.65888 -1.64327 0
M  V30 4462 C 432.038 1.62818 -0.492383 0
M  V30 4463 O 433.223 1.80226 -0.723338 0
M  V30 4464 C 430.353 3.04506 -1.67013 0
M  V30 4465 C 429.307 3.2243 -2.81466 0
M  V30 4466 C 428.633 4.61972 -2.69233 0
M  V30 4467 C 429.933 3.06496 -4.22915 0
M  V30 4468 H 431.627 1.52421 -2.57698 0
M  V30 4469 H 429.173 0.731849 -1.24016 0
M  V30 4470 H 431.126 3.82391 -1.77074 0
M  V30 4471 H 429.85 3.18964 -0.70212 0
M  V30 4472 H 428.509 2.46957 -2.70938 0
M  V30 4473 H 428.157 4.73247 -1.7043 0
M  V30 4474 H 427.857 4.74911 -3.46025 0
M  V30 4475 H 429.381 5.41974 -2.81242 0
M  V30 4476 H 430.795 3.74186 -4.34348 0
M  V30 4477 H 429.192 3.30938 -5.006 0
M  V30 4478 H 430.262 2.03077 -4.40327 0
M  V30 4479 N 431.605 1.3629 0.791371 0
M  V30 4480 C 433.016 1.27225 1.36641 0
M  V30 4481 C 433.367 -0.0887968 1.95999 0
M  V30 4482 O 432.492 -0.990207 1.92416 0
M  V30 4483 C 433.087 2.30375 2.48421 0
M  V30 4484 C 431.646 2.25004 3.01746 0
M  V30 4485 C 430.793 2.15259 1.7481 0
M  V30 4486 H 433.744 1.47198 0.593173 0
M  V30 4487 H 433.765 1.93905 3.27385 0
M  V30 4488 H 433.277 3.29422 2.05189 0
M  V30 4489 H 431.378 1.29417 3.49403 0
M  V30 4490 H 431.491 3.1761 3.58693 0
M  V30 4491 H 429.855 1.61482 1.96966 0
M  V30 4492 H 430.638 3.16191 1.33709 0
M  V30 4493 N 433.083 -1.0153 1.20538 0
M  V30 4494 C 434.046 -2.0826 0.957098 0
M  V30 4495 C 435.046 -1.60657 -0.0678655 0
M  V30 4496 O 436.236 -1.73385 0.168332 0
M  V30 4497 C 433.368 -3.38033 0.441188 0
M  V30 4498 H 434.561 -2.31719 1.90384 0
M  V30 4499 H 432.114 -1.1835 1.02093 0
M  V30 4500 H 432.849 -3.20249 -0.510961 0
M  V30 4501 H 432.634 -3.73911 1.18038 0
M  V30 4502 H 434.124 -4.16613 0.287009 0
M  V30 4503 N 434.561 -1.01147 -1.20859 0
M  V30 4504 C 435.808 -0.697865 -1.90095 0
M  V30 4505 C 436.136 0.772014 -1.78522 0
M  V30 4506 O 435.391 1.57595 -1.16027 0
M  V30 4507 C 435.69 -1.0727 -3.40922 0
M  V30 4508 C 435.356 -2.53792 -3.72693 0
M  V30 4509 C 434.018 -2.93829 -3.81075 0
M  V30 4510 C 436.37 -3.48674 -3.87397 0
M  V30 4511 C 433.698 -4.27696 -4.01613 0
M  V30 4512 C 436.05 -4.82223 -4.09444 0
M  V30 4513 C 434.714 -5.21973 -4.16054 0
M  V30 4514 H 433.984 -0.255367 -0.695607 0
M  V30 4515 H 436.631 -1.27111 -1.43231 0
M  V30 4516 H 434.936 -0.417799 -3.89566 0
M  V30 4517 H 436.633 -0.807818 -3.92779 0
M  V30 4518 H 433.223 -2.21768 -3.66765 0
M  V30 4519 H 437.407 -3.18904 -3.80281 0
M  V30 4520 H 432.663 -4.58055 -4.04964 0
M  V30 4521 H 436.837 -5.55672 -4.19763 0
M  V30 4522 H 434.464 -6.25717 -4.31721 0
M  V30 4523 N 436.039 1.36541 -0.78704 0
M  V30 4524 C 437.287 1.98911 -0.357633 0
M  V30 4525 C 437.608 1.62778 1.07371 0
M  V30 4526 O 436.878 0.900612 1.73971 0
M  V30 4527 H 435.458 0.735734 -0.129246 0
M  V30 4528 H 438.12 1.66776 -1.00855 0
M  V30 4529 H 437.216 3.08874 -0.447549 0
M  V30 4530 N 437.518 0.538854 1.48102 0
M  V30 4531 C 438.767 0.0059532 2.01699 0
M  V30 4532 C 439.08 -1.34476 1.42041 0
M  V30 4533 O 440.286 -1.96653 1.87189 0
M  V30 4534 C 438.742 -0.0397627 3.59878 0
M  V30 4535 C 438.35 1.30659 4.28523 0
M  V30 4536 C 440.094 -0.521024 4.2129 0
M  V30 4537 C 438.001 1.22098 5.78659 0
M  V30 4538 H 436.931 -0.00154456 0.753998 0
M  V30 4539 H 439.582 0.683963 1.70277 0
M  V30 4540 H 437.964 -0.783037 3.88181 0
M  V30 4541 H 439.138 2.06613 4.11883 0
M  V30 4542 H 437.453 1.7243 3.79021 0
M  V30 4543 H 440.05 -0.603184 5.31287 0
M  V30 4544 H 440.393 -1.52885 3.8721 0
M  V30 4545 H 440.926 0.166834 3.9745 0
M  V30 4546 H 437.665 2.20424 6.17328 0
M  V30 4547 H 437.185 0.50295 5.97688 0
M  V30 4548 H 438.864 0.915345 6.40492 0
M  V30 4549 N 438.996 -1.55193 0.274407 0
M  V30 4550 C 440.242 -1.99877 -0.343086 0
M  V30 4551 C 440.575 -1.16256 -1.55558 0
M  V30 4552 O 439.85 -0.232462 -1.93106 0
M  V30 4553 C 440.133 -3.52706 -0.725965 0
M  V30 4554 C 439.986 -4.47081 0.493818 0
M  V30 4555 C 441.305 -4.11422 -1.56268 0
M  V30 4556 H 438.424 -0.726625 -0.123229 0
M  V30 4557 H 441.066 -1.86136 0.38121 0
M  V30 4558 H 439.216 -3.64546 -1.34307 0
M  V30 4559 H 440.888 -4.47186 1.13237 0
M  V30 4560 H 439.131 -4.1877 1.13201 0
M  V30 4561 H 439.802 -5.51699 0.18217 0
M  V30 4562 H 442.278 -4.02855 -1.04151 0
M  V30 4563 H 441.154 -5.18568 -1.79939 0
M  V30 4564 H 441.415 -3.61607 -2.54348 0
M  V30 4565 N 440.474 -0.00167713 -1.576 0
M  V30 4566 C 441.699 0.69739 -1.95323 0
M  V30 4567 C 442.124 1.6642 -0.876706 0
M  V30 4568 O 441.482 1.80548 0.165007 0
M  V30 4569 C 441.53 1.40403 -3.32144 0
M  V30 4570 O 440.634 2.5185 -3.26566 0
M  V30 4571 H 439.975 0.185373 -0.637599 0
M  V30 4572 H 442.505 -0.0553665 -2.04525 0
M  V30 4573 H 442.515 1.76707 -3.67748 0
M  V30 4574 H 441.19 0.695167 -4.10049 0
M  V30 4575 H 439.767 2.17861 -3.0264 0
M  V30 4576 N 441.952 1.55251 0.271103 0
M  V30 4577 C 442.902 1.84649 1.33749 0
M  V30 4578 C 443.886 0.705529 1.44607 0
M  V30 4579 O 445.078 0.966916 1.48256 0
M  V30 4580 C 442.207 2.12354 2.69742 0
M  V30 4581 C 441.293 3.32714 2.62988 0
M  V30 4582 N 441.684 4.52575 2.25853 0
M  V30 4583 C 439.982 3.35341 2.94045 0
M  V30 4584 C 440.683 5.34669 2.29136 0
M  V30 4585 N 439.659 4.73123 2.67685 0
M  V30 4586 H 443.461 2.74865 1.0405 0
M  V30 4587 H 440.975 1.55152 0.479738 0
M  V30 4588 H 442.972 2.31572 3.4667 0
M  V30 4589 H 441.632 1.23422 3.00328 0
M  V30 4590 H 442.643 4.78639 1.978 0
M  V30 4591 H 439.32 2.56608 3.2933 0
M  V30 4592 H 440.71 6.40509 2.02971 0
M  V30 4593 N 443.43 -0.535701 1.48216 0
M  V30 4594 C 444.676 -1.29375 1.56173 0
M  V30 4595 C 445.009 -1.92804 0.232429 0
M  V30 4596 O 444.284 -1.78992 -0.761048 0
M  V30 4597 C 444.567 -2.38747 2.69577 0
M  V30 4598 C 444.42 -1.80046 4.12193 0
M  V30 4599 C 445.739 -3.40551 2.78771 0
M  V30 4600 H 442.858 -0.469027 0.568491 0
M  V30 4601 H 445.5 -0.597358 1.80365 0
M  V30 4602 H 443.65 -2.98147 2.4908 0
M  V30 4603 H 445.322 -1.24742 4.44114 0
M  V30 4604 H 443.565 -1.10609 4.19462 0
M  V30 4605 H 444.236 -2.59212 4.87353 0
M  V30 4606 H 446.712 -2.91099 2.97322 0
M  V30 4607 H 445.588 -4.1448 3.59857 0
M  V30 4608 H 445.849 -4.00746 1.86696 0
M  V30 4609 N 444.908 -1.36708 -0.784132 0
M  V30 4610 C 446.157 -1.30559 -1.53744 0
M  V30 4611 C 446.47 0.111374 -1.95283 0
M  V30 4612 O 447.676 0.29527 -2.6989 0
M  V30 4613 C 446.132 -2.29098 -2.77565 0
M  V30 4614 C 445.74 -3.76258 -2.43174 0
M  V30 4615 C 447.484 -2.31936 -3.55536 0
M  V30 4616 C 445.391 -4.6656 -3.63422 0
M  V30 4617 H 444.321 -0.48518 -0.577162 0
M  V30 4618 H 446.972 -1.62101 -0.859981 0
M  V30 4619 H 445.354 -1.90557 -3.47137 0
M  V30 4620 H 446.528 -4.23565 -1.81465 0
M  V30 4621 H 444.843 -3.76246 -1.78403 0
M  V30 4622 H 447.44 -2.9661 -4.44889 0
M  V30 4623 H 447.783 -1.3294 -3.94503 0
M  V30 4624 H 448.316 -2.6912 -2.92949 0
M  V30 4625 H 445.055 -5.66638 -3.29547 0
M  V30 4626 H 444.575 -4.23966 -4.24279 0
M  V30 4627 H 446.254 -4.8309 -4.30387 0
M  V30 4628 N 446.386 1.0089 -1.21074 0
M  V30 4629 C 447.349 2.0775 -0.968129 0
M  V30 4630 C 448.349 1.6069 0.0593445 0
M  V30 4631 O 449.539 1.73293 -0.177525 0
M  V30 4632 C 446.671 3.37794 -0.459108 0
M  V30 4633 H 447.864 2.30707 -1.9161 0
M  V30 4634 H 445.417 1.17807 -1.02719 0
M  V30 4635 H 446.152 3.20516 0.49397 0
M  V30 4636 H 445.937 3.7328 -1.20019 0
M  V30 4637 H 447.427 4.16454 -0.309099 0
M  V30 4638 N 447.864 1.01787 1.20321 0
M  V30 4639 C 449.092 0.727194 1.937 0
M  V30 4640 C 449.507 -0.712305 1.74848 0
M  V30 4641 O 448.864 -1.48327 1.06327 0
M  V30 4642 C 448.915 1.05497 3.45764 0
M  V30 4643 O 448.636 2.43794 3.64 0
M  V30 4644 C 450.137 0.785534 4.36285 0
M  V30 4645 H 447.357 0.266939 0.615617 0
M  V30 4646 H 449.901 1.35939 1.52777 0
M  V30 4647 H 448.056 0.468158 3.84561 0
M  V30 4648 H 448.47 2.55656 4.57974 0
M  V30 4649 H 449.944 1.06495 5.4163 0
M  V30 4650 H 450.421 -0.280273 4.38305 0
M  V30 4651 H 451.027 1.35456 4.03152 0
M  V30 4652 N 449.342 -1.36122 0.79427 0
M  V30 4653 C 450.589 -1.99111 0.368905 0
M  V30 4654 C 450.917 -1.63032 -1.0607 0
M  V30 4655 O 450.172 -0.879303 -1.74833 0
M  V30 4656 C 450.471 -3.5409 0.48527 0
M  V30 4657 C 450.137 -4.10003 1.87638 0
M  V30 4658 C 448.799 -4.24986 2.257 0
M  V30 4659 C 451.151 -4.40423 2.78706 0
M  V30 4660 C 448.479 -4.67701 3.54221 0
M  V30 4661 C 450.831 -4.84573 4.0666 0
M  V30 4662 C 449.495 -4.97761 4.44737 0
M  V30 4663 H 448.765 -0.7286 0.134992 0
M  V30 4664 H 451.412 -1.62534 1.01267 0
M  V30 4665 H 449.717 -3.91052 -0.241984 0
M  V30 4666 H 451.414 -4.00766 0.137109 0
M  V30 4667 H 448.004 -3.98784 1.57064 0
M  V30 4668 H 452.188 -4.28412 2.50553 0
M  V30 4669 H 447.444 -4.761 3.83587 0
M  V30 4670 H 451.618 -5.07074 4.77336 0
M  V30 4671 H 449.245 -5.30618 5.44379 0
M  V30 4672 N 450.82 -0.546701 -1.47814 0
M  V30 4673 C 451.783 0.196287 -2.28358 0
M  V30 4674 C 452.783 0.852437 -1.36346 0
M  V30 4675 O 453.973 0.709913 -1.59078 0
M  V30 4676 C 451.105 1.28579 -3.15722 0
M  V30 4677 H 452.298 -0.511086 -2.95513 0
M  V30 4678 H 449.851 -0.303248 -1.5333 0
M  V30 4679 H 450.586 2.0259 -2.53235 0
M  V30 4680 H 450.371 0.820229 -3.83425 0
M  V30 4681 H 451.861 1.80793 -3.76435 0
M  V30 4682 N 452.299 1.55045 -0.282633 0
M  V30 4683 C 453.246 2.22822 0.601566 0
M  V30 4684 C 454.216 1.20431 1.14392 0
M  V30 4685 O 455.401 1.48996 1.19184 0
M  V30 4686 C 452.541 2.95873 1.77632 0
M  V30 4687 C 451.654 4.12999 1.26711 0
M  V30 4688 C 450.789 4.73676 2.40426 0
M  V30 4689 C 449.828 5.82981 1.86545 0
M  V30 4690 N 448.965 6.3769 2.93762 0
M  V30 4691 H 453.805 2.97995 0.0169528 0
M  V30 4692 H 451.342 1.471 -0.00339964 0
M  V30 4693 H 453.3 3.36447 2.46697 0
M  V30 4694 H 451.93 2.2311 2.33285 0
M  V30 4695 H 450.982 3.77494 0.469314 0
M  V30 4696 H 452.294 4.91803 0.832518 0
M  V30 4697 H 451.448 5.17008 3.17471 0
M  V30 4698 H 450.187 3.94164 2.87203 0
M  V30 4699 H 449.192 5.39092 1.07983 0
M  V30 4700 H 450.417 6.64366 1.40694 0
M  V30 4701 H 448.363 5.61069 3.39908 0
M  V30 4702 H 448.28 7.11788 2.54744 0
M  V30 4703 H 449.548 6.8568 3.7076 0
M  V30 4704 N 453.777 0.010035 1.57597 0
M  V30 4705 C 454.724 -0.978122 2.09049 0
M  V30 4706 C 455.694 -1.33509 0.988159 0
M  V30 4707 O 456.879 -1.43172 1.26121 0
M  V30 4708 C 454.019 -2.26158 2.60666 0
M  V30 4709 C 453.132 -1.96275 3.84838 0
M  V30 4710 C 452.267 -3.18776 4.24918 0
M  V30 4711 C 451.306 -2.84625 5.41899 0
M  V30 4712 N 450.443 -3.99693 5.77226 0
M  V30 4713 H 455.283 -0.532431 2.93205 0
M  V30 4714 H 452.82 -0.251234 1.44939 0
M  V30 4715 H 454.778 -3.01202 2.88675 0
M  V30 4716 H 453.408 -2.68378 1.79369 0
M  V30 4717 H 452.46 -1.11555 3.63675 0
M  V30 4718 H 453.772 -1.67111 4.69974 0
M  V30 4719 H 452.926 -4.02157 4.54262 0
M  V30 4720 H 451.665 -3.51087 3.38511 0
M  V30 4721 H 450.67 -1.99653 5.12268 0
M  V30 4722 H 451.895 -2.53551 6.29991 0
M  V30 4723 H 449.841 -4.31882 4.93776 0
M  V30 4724 H 449.758 -3.74087 6.56959 0
M  V30 4725 H 451.026 -4.83834 6.11167 0
M  V30 4726 N 455.255 -1.55392 -0.262866 0
M  V30 4727 C 456.666 -1.67079 -0.833158 0
M  V30 4728 C 457.017 -0.604539 -1.86654 0
M  V30 4729 O 456.142 0.252138 -2.14926 0
M  V30 4730 C 456.737 -3.02891 -1.51797 0
M  V30 4731 C 455.296 -3.16571 -2.03617 0
M  V30 4732 C 454.443 -2.62909 -0.881701 0
M  V30 4733 H 457.394 -1.58652 -0.0389986 0
M  V30 4734 H 457.415 -2.96445 -2.38538 0
M  V30 4735 H 456.927 -3.80473 -0.765619 0
M  V30 4736 H 455.028 -2.43782 -2.81782 0
M  V30 4737 H 455.141 -4.23271 -2.24452 0
M  V30 4738 H 453.505 -2.20324 -1.27786 0
M  V30 4739 H 454.288 -3.43003 -0.14269 0
M  V30 4740 N 456.733 0.527833 -1.48498 0
M  V30 4741 C 457.982 1.28003 -1.55878 0
M  V30 4742 C 458.295 1.9414 -0.238577 0
M  V30 4743 O 459.501 2.7083 -0.190643 0
M  V30 4744 C 457.957 2.32272 -2.74914 0
M  V30 4745 C 457.565 1.72196 -4.13585 0
M  V30 4746 C 459.309 3.08488 -2.91608 0
M  V30 4747 C 457.216 2.74417 -5.23879 0
M  V30 4748 H 456.146 0.481413 -0.580308 0
M  V30 4749 H 458.797 0.557195 -1.74836 0
M  V30 4750 H 457.179 3.07601 -2.49395 0
M  V30 4751 H 458.353 1.03041 -4.49132 0
M  V30 4752 H 456.668 1.08464 -4.02025 0
M  V30 4753 H 459.265 3.84879 -3.71177 0
M  V30 4754 H 459.608 3.64481 -2.01145 0
M  V30 4755 H 460.141 2.40274 -3.17038 0
M  V30 4756 H 456.88 2.23242 -6.16314 0
M  V30 4757 H 456.4 3.41893 -4.92818 0
M  V30 4758 H 458.079 3.37362 -5.52083 0
M  V30 4759 N 458.211 1.37122 0.776871 0
M  V30 4760 C 459.458 1.32047 1.53524 0
M  V30 4761 C 459.786 -0.0965631 1.9426 0
M  V30 4762 O 459.041 -1.06866 1.63945 0
M  V30 4763 C 459.34 2.20068 2.81611 0
M  V30 4764 C 459.006 3.68423 2.59953 0
M  V30 4765 C 457.668 4.08854 2.53755 0
M  V30 4766 C 460.02 4.62431 2.40431 0
M  V30 4767 C 457.348 5.41417 2.26018 0
M  V30 4768 C 459.7 5.95225 2.14219 0
M  V30 4769 C 458.364 6.34767 2.06462 0
M  V30 4770 H 457.634 0.483196 0.561785 0
M  V30 4771 H 460.281 1.69284 0.895268 0
M  V30 4772 H 458.586 1.75809 3.50141 0
M  V30 4773 H 460.283 2.13458 3.39465 0
M  V30 4774 H 456.873 3.36354 2.65638 0
M  V30 4775 H 461.057 4.32057 2.44213 0
M  V30 4776 H 456.313 5.71022 2.18504 0
M  V30 4777 H 460.487 6.67626 1.98112 0
M  V30 4778 H 458.114 7.37413 1.84733 0
M  V30 4779 N 459.689 -1.00246 1.21608 0
M  V30 4780 C 460.937 -1.73717 1.0328 0
M  V30 4781 C 461.258 -1.90102 -0.434318 0
M  V30 4782 O 460.528 -1.45376 -1.31311 0
M  V30 4783 H 459.108 -0.643613 0.379172 0
M  V30 4784 H 461.77 -1.20787 1.52959 0
M  V30 4785 H 460.866 -2.73535 1.50283 0
M  V30 4786 N 461.167 -1.02423 -1.1978 0
M  V30 4787 C 462.397 -0.736387 -1.93031 0
M  V30 4788 C 462.805 0.708023 -1.75453 0
M  V30 4789 O 462.148 1.4927 -1.07071 0
M  V30 4790 C 462.21 -1.00194 -3.45255 0
M  V30 4791 C 461.874 -2.43698 -3.86601 0
M  V30 4792 C 462.871 -3.41814 -3.91738 0
M  V30 4793 C 460.556 -2.77975 -4.18372 0
M  V30 4794 C 462.55 -4.72265 -4.28071 0
M  V30 4795 C 460.237 -4.08636 -4.54378 0
M  V30 4796 C 461.235 -5.05592 -4.59201 0
M  V30 4797 O 460.923 -6.33914 -4.94376 0
M  V30 4798 H 460.655 -0.269116 -0.620123 0
M  V30 4799 H 463.209 -1.37043 -1.52998 0
M  V30 4800 H 461.439 -0.310747 -3.85449 0
M  V30 4801 H 463.128 -0.704488 -3.9974 0
M  V30 4802 H 463.894 -3.16671 -3.67348 0
M  V30 4803 H 459.773 -2.0319 -4.13805 0
M  V30 4804 H 463.317 -5.4794 -4.3175 0
M  V30 4805 H 459.214 -4.33556 -4.78226 0
M  V30 4806 H 459.982 -6.38317 -5.12341 0
M  V30 4807 N 462.645 1.35699 -0.801477 0
M  V30 4808 C 463.575 2.32436 -0.222658 0
M  V30 4809 C 464.556 1.5723 0.649057 0
M  V30 4810 O 465.741 1.85324 0.580387 0
M  V30 4811 C 462.871 3.41469 0.633719 0
M  V30 4812 C 461.825 4.27774 -0.139083 0
M  V30 4813 C 461.151 5.28082 0.838666 0
M  V30 4814 C 462.451 5.04946 -1.33517 0
M  V30 4815 H 464.145 2.81094 -1.03086 0
M  V30 4816 H 461.691 1.35146 -0.497155 0
M  V30 4817 H 463.644 4.08143 1.04868 0
M  V30 4818 H 462.368 2.91408 1.47475 0
M  V30 4819 H 461.027 3.62673 -0.535156 0
M  V30 4820 H 460.675 4.7429 1.67506 0
M  V30 4821 H 460.375 5.86695 0.32594 0
M  V30 4822 H 461.899 5.97628 1.25194 0
M  V30 4823 H 463.313 5.64593 -0.995349 0
M  V30 4824 H 461.71 5.7303 -1.78202 0
M  V30 4825 H 462.78 4.35886 -2.12442 0
M  V30 4826 N 464.123 0.554532 1.47522 0
M  V30 4827 C 465.534 0.120446 1.86311 0
M  V30 4828 C 465.885 -1.30904 1.46145 0
M  V30 4829 O 465.01 -1.98434 0.863294 0
M  V30 4830 C 465.605 0.211808 3.38137 0
M  V30 4831 C 464.164 -0.167224 3.76028 0
M  V30 4832 C 463.311 0.560576 2.71575 0
M  V30 4833 H 466.262 0.764408 1.39077 0
M  V30 4834 H 466.283 -0.570275 3.76202 0
M  V30 4835 H 465.795 1.25232 3.6734 0
M  V30 4836 H 463.896 -1.20894 3.52442 0
M  V30 4837 H 464.009 0.189473 4.78725 0
M  V30 4838 H 462.373 0.00396836 2.547 0
M  V30 4839 H 463.156 1.60219 3.0362 0
M  V30 4840 N 465.601 -1.54893 0.290851 0
M  V30 4841 C 466.534 -2.19289 -0.631489 0
M  V30 4842 C 467.512 -1.15893 -1.14051 0
M  V30 4843 O 468.696 -1.4449 -1.21058 0
M  V30 4844 C 465.823 -2.82866 -1.86291 0
M  V30 4845 C 464.869 -3.997 -1.48801 0
M  V30 4846 S 465.702 -5.32641 -0.552644 0
M  V30 4847 C 466.858 -5.99696 -1.79209 0
M  V30 4848 H 467.091 -2.9718 -0.0843791 0
M  V30 4849 H 464.624 -1.54218 0.075031 0
M  V30 4850 H 466.582 -3.20124 -2.56964 0
M  V30 4851 H 465.243 -2.04839 -2.38117 0
M  V30 4852 H 464.436 -4.42932 -2.40473 0
M  V30 4853 H 464.038 -3.63947 -0.861321 0
M  V30 4854 H 466.33 -6.19886 -2.734 0
M  V30 4855 H 467.273 -6.94071 -1.40251 0
M  V30 4856 H 467.681 -5.29226 -1.96419 0
M  V30 4857 N 467.08 -0.0183926 -1.57589 0
M  V30 4858 C 468.326 0.663543 -1.91638 0
M  V30 4859 C 468.659 1.72392 -0.894134 0
M  V30 4860 O 467.934 1.94316 0.0846449 0
M  V30 4861 C 468.217 1.28984 -3.36207 0
M  V30 4862 C 468.07 0.239761 -4.49161 0
M  V30 4863 C 469.389 2.2109 -3.80536 0
M  V30 4864 H 466.508 0.239746 -0.696915 0
M  V30 4865 H 469.15 -0.073456 -1.89858 0
M  V30 4866 H 467.3 1.91799 -3.37854 0
M  V30 4867 H 468.972 -0.390119 -4.59647 0
M  V30 4868 H 467.215 -0.435972 -4.31604 0
M  V30 4869 H 467.886 0.717383 -5.47319 0
M  V30 4870 H 470.362 1.68273 -3.80557 0
M  V30 4871 H 469.238 2.61869 -4.82406 0
M  V30 4872 H 469.499 3.09764 -3.15434 0
M  V30 4873 N 468.558 1.5553 0.254621 0
M  V30 4874 C 469.788 1.80784 1.00004 0
M  V30 4875 C 470.196 0.59071 1.79742 0
M  V30 4876 O 469.539 -0.449988 1.78103 0
M  V30 4877 C 469.601 2.99268 1.99196 0
M  V30 4878 C 469.265 4.35595 1.38224 0
M  V30 4879 C 470.262 5.13884 0.788611 0
M  V30 4880 C 467.947 4.82281 1.40393 0
M  V30 4881 C 469.941 6.37004 0.224783 0
M  V30 4882 C 467.628 6.05351 0.836243 0
M  V30 4883 C 468.626 6.82551 0.24769 0
M  V30 4884 O 468.314 8.03297 -0.311249 0
M  V30 4885 H 468.046 0.60565 0.300274 0
M  V30 4886 H 470.6 2.03411 0.285143 0
M  V30 4887 H 468.83 2.72377 2.74496 0
M  V30 4888 H 470.519 3.11682 2.60018 0
M  V30 4889 H 471.285 4.78938 0.764423 0
M  V30 4890 H 467.164 4.22189 1.85142 0
M  V30 4891 H 470.708 6.97203 -0.235235 0
M  V30 4892 H 466.605 6.39776 0.857733 0
M  V30 4893 H 467.373 8.1825 -0.20237 0
M  V30 4894 N 470.036 -0.519951 1.48776 0
M  V30 4895 C 470.999 -1.60574 1.6355 0
M  V30 4896 C 471.999 -1.52557 0.508234 0
M  V30 4897 O 473.189 -1.56047 0.774262 0
M  V30 4898 C 470.321 -3.00211 1.61512 0
M  V30 4899 H 471.514 -1.4881 2.60376 0
M  V30 4900 H 469.067 -0.742772 1.37523 0
M  V30 4901 H 469.802 -3.17471 0.662009 0
M  V30 4902 H 469.587 -3.07439 2.43359 0
M  V30 4903 H 471.077 -3.79134 1.75064 0
M  V30 4904 N 471.514 -1.37532 -0.769588 0
M  V30 4905 C 472.447 -1.27839 -1.8903 0
M  V30 4906 C 473.425 -0.158504 -1.61826 0
M  V30 4907 O 474.609 -0.333086 -1.85534 0
M  V30 4908 C 471.736 -0.977072 -3.24301 0
M  V30 4909 C 470.782 -2.11414 -3.70414 0
M  V30 4910 S 471.615 -3.73409 -3.83831 0
M  V30 4911 C 472.771 -3.45432 -5.21946 0
M  V30 4912 H 473.004 -2.22694 -1.96963 0
M  V30 4913 H 470.537 -1.2318 -0.930914 0
M  V30 4914 H 472.495 -0.810049 -4.02428 0
M  V30 4915 H 471.156 -0.0459701 -3.14066 0
M  V30 4916 H 470.349 -1.85837 -4.68488 0
M  V30 4917 H 469.951 -2.24141 -2.99394 0
M  V30 4918 H 472.243 -3.00554 -6.07185 0
M  V30 4919 H 473.186 -4.42841 -5.52537 0
M  V30 4920 H 473.594 -2.80311 -4.89986 0
M  V30 4921 N 472.992 0.995999 -1.22138 0
M  V30 4922 C 474.238 1.73767 -1.04561 0
M  V30 4923 C 474.571 1.89633 0.418698 0
M  V30 4924 O 473.846 1.43723 1.3105 0
M  V30 4925 C 474.129 3.14505 -1.75382 0
M  V30 4926 C 473.982 3.06306 -3.29388 0
M  V30 4927 C 475.301 4.13615 -1.50369 0
M  V30 4928 H 472.42 0.630728 -0.38125 0
M  V30 4929 H 475.062 1.16057 -1.50435 0
M  V30 4930 H 473.212 3.63775 -1.36383 0
M  V30 4931 H 474.884 2.64681 -3.77812 0
M  V30 4932 H 473.127 2.43186 -3.59226 0
M  V30 4933 H 473.798 4.05884 -3.74116 0
M  V30 4934 H 476.274 3.73089 -1.84239 0
M  V30 4935 H 475.15 5.10212 -2.02421 0
M  V30 4936 H 475.411 4.39949 -0.435611 0
M  V30 4937 N 474.47 1.03057 1.19235 0
M  V30 4938 C 475.433 0.617418 2.20727 0
M  V30 4939 C 476.433 -0.319856 1.57587 0
M  V30 4940 O 477.623 -0.106633 1.73873 0
M  V30 4941 C 474.755 -0.096296 3.40764 0
M  V30 4942 H 475.948 1.51544 2.58794 0
M  V30 4943 H 473.501 0.821949 1.32942 0
M  V30 4944 H 474.236 -1.00859 3.08217 0
M  V30 4945 H 474.021 0.577217 3.87828 0
M  V30 4946 H 475.511 -0.372219 4.15938 0
M  V30 4947 N 475.948 -1.35272 0.808662 0
M  V30 4948 C 477.197 -1.97963 0.386483 0
M  V30 4949 C 477.51 -1.64866 -1.05255 0
M  V30 4950 O 478.716 -2.20937 -1.57794 0
M  V30 4951 C 477.172 -3.54162 0.640096 0
M  V30 4952 C 476.78 -3.96166 2.0918 0
M  V30 4953 C 478.524 -4.23553 0.283376 0
M  V30 4954 C 476.431 -5.4522 2.29106 0
M  V30 4955 H 475.361 -0.740742 0.140774 0
M  V30 4956 H 478.012 -1.5431 0.993012 0
M  V30 4957 H 476.394 -3.95983 -0.0364117 0
M  V30 4958 H 477.568 -3.65491 2.80629 0
M  V30 4959 H 475.883 -3.3967 2.40859 0
M  V30 4960 H 478.48 -5.33124 0.410273 0
M  V30 4961 H 478.823 -4.09105 -0.770659 0
M  V30 4962 H 479.356 -3.8716 0.913884 0
M  V30 4963 H 476.095 -5.64638 3.32962 0
M  V30 4964 H 475.615 -5.77457 1.62184 0
M  V30 4965 H 477.294 -6.1171 2.1076 0
M  V30 4966 N 477.426 -0.562348 -1.47226 0
M  V30 4967 C 478.674 -0.0401371 -2.0206 0
M  V30 4968 C 478.995 1.3165 -1.43852 0
M  V30 4969 O 478.265 1.85976 -0.615599 0
M  V30 4970 H 476.845 -0.0118479 -0.746906 0
M  V30 4971 H 479.507 -0.73352 -1.8057 0
M  V30 4972 H 478.603 0.0441254 -3.12069 0
M  V30 4973 N 478.904 1.54736 -0.299062 0
M  V30 4974 C 480.15 2.00397 0.311244 0
M  V30 4975 C 480.483 1.18716 1.53688 0
M  V30 4976 O 479.758 0.263154 1.92712 0
M  V30 4977 C 480.041 3.53817 0.669761 0
M  V30 4978 C 479.894 4.46239 -0.564882 0
M  V30 4979 C 481.213 4.13856 1.49702 0
M  V30 4980 H 478.332 0.728493 0.111653 0
M  V30 4981 H 480.974 1.85506 -0.410774 0
M  V30 4982 H 479.124 3.66637 1.28491 0
M  V30 4983 H 480.796 4.45328 -1.20337 0
M  V30 4984 H 479.039 4.16916 -1.19849 0
M  V30 4985 H 479.71 5.5134 -0.269918 0
M  V30 4986 H 482.186 4.04461 0.977284 0
M  V30 4987 H 481.062 5.21365 1.71666 0
M  V30 4988 H 481.323 3.65608 2.48563 0
M  V30 4989 N 480.382 0.0267497 1.57577 0
M  V30 4990 C 481.312 -0.954308 2.13108 0
M  V30 4991 C 482.293 -1.34088 1.04663 0
M  V30 4992 O 483.478 -1.41992 1.32484 0
M  V30 4993 C 480.608 -2.23744 2.65624 0
M  V30 4994 C 479.562 -1.99168 3.78835 0
M  V30 4995 C 478.888 -3.33726 4.17769 0
M  V30 4996 C 480.188 -1.33277 5.0501 0
M  V30 4997 H 481.882 -0.491848 2.95332 0
M  V30 4998 H 479.428 -0.23514 1.42067 0
M  V30 4999 H 481.381 -2.92754 3.03106 0
M  V30 5000 H 480.105 -2.72151 1.80558 0
M  V30 5001 H 478.764 -1.32577 3.41788 0
M  V30 5002 H 478.412 -3.79888 3.29688 0
M  V30 5003 H 478.112 -3.18089 4.94058 0
M  V30 5004 H 479.636 -4.04008 4.57832 0
M  V30 5005 H 481.05 -1.92283 5.40093 0
M  V30 5006 H 479.447 -1.28045 5.8628 0
M  V30 5007 H 480.517 -0.305411 4.83937 0
M  V30 5008 N 481.861 -1.55662 -0.24637 0
M  V30 5009 C 483.109 -1.77168 -0.972411 0
M  V30 5010 C 483.43 -0.590827 -1.85834 0
M  V30 5011 O 482.7 0.393365 -1.9191 0
M  V30 5012 H 481.28 -0.653405 -0.362038 0
M  V30 5013 H 483.942 -1.93101 -0.264189 0
M  V30 5014 H 483.038 -2.68335 -1.59382 0
M  V30 5015 N 483.339 0.512053 -1.4905 0
M  V30 5016 C 484.586 1.26686 -1.57978 0
M  V30 5017 C 484.914 1.92733 -0.261553 0
M  V30 5018 O 484.169 1.80772 0.749667 0
M  V30 5019 C 484.468 2.36446 -2.68008 0
M  V30 5020 C 484.134 1.87932 -4.09869 0
M  V30 5021 C 482.796 1.74419 -4.48477 0
M  V30 5022 C 485.148 1.5149 -4.98698 0
M  V30 5023 C 482.476 1.22827 -5.73699 0
M  V30 5024 C 484.828 1.01355 -6.24428 0
M  V30 5025 C 483.492 0.864735 -6.61875 0
M  V30 5026 H 482.762 0.463577 -0.578081 0
M  V30 5027 H 485.409 0.569421 -1.82838 0
M  V30 5028 H 483.714 3.11933 -2.37076 0
M  V30 5029 H 485.411 2.9453 -2.72127 0
M  V30 5030 H 482.001 1.99405 -3.79389 0
M  V30 5031 H 486.185 1.60782 -4.69535 0
M  V30 5032 H 481.441 1.10008 -6.01422 0
M  V30 5033 H 485.615 0.722351 -6.92644 0
M  V30 5034 H 483.242 0.462777 -7.5879 0
M  V30 5035 N 484.817 1.37938 0.762283 0
M  V30 5036 C 486.063 1.33866 1.52341 0
M  V30 5037 C 486.396 -0.0738961 1.94059 0
M  V30 5038 O 485.671 -1.03326 1.64785 0
M  V30 5039 C 485.954 2.28644 2.78197 0
M  V30 5040 C 485.807 3.78722 2.42672 0
M  V30 5041 C 487.126 2.21702 3.80179 0
M  V30 5042 H 484.245 0.487593 0.55265 0
M  V30 5043 H 486.887 1.68717 0.873767 0
M  V30 5044 H 485.037 1.99055 3.33631 0
M  V30 5045 H 486.709 4.18948 1.93081 0
M  V30 5046 H 484.952 3.96827 1.75244 0
M  V30 5047 H 485.623 4.40486 3.3268 0
M  V30 5048 H 488.099 2.47805 3.34263 0
M  V30 5049 H 486.975 2.90143 4.65949 0
M  V30 5050 H 487.236 1.21301 4.25133 0
M  V30 5051 N 486.295 -0.989507 1.22664 0
M  V30 5052 C 487.541 -1.7321 1.05481 0
M  V30 5053 C 487.874 -1.89852 -0.408635 0
M  V30 5054 O 487.149 -1.44416 -1.30285 0
M  V30 5055 C 487.432 -3.1357 1.77047 0
M  V30 5056 C 487.285 -3.04555 3.31008 0
M  V30 5057 C 488.604 -4.12812 1.5256 0
M  V30 5058 H 485.723 -0.628697 0.384589 0
M  V30 5059 H 488.365 -1.15258 1.51049 0
M  V30 5060 H 486.515 -3.63046 1.3831 0
M  V30 5061 H 488.187 -2.62674 3.7921 0
M  V30 5062 H 486.43 -2.41278 3.6051 0
M  V30 5063 H 487.101 -4.03894 3.76263 0
M  V30 5064 H 489.577 -3.72106 1.86215 0
M  V30 5065 H 488.453 -5.09132 2.05124 0
M  V30 5066 H 488.714 -4.39711 0.458936 0
M  V30 5067 N 487.773 -1.03688 -1.18687 0
M  V30 5068 C 489.019 -0.74888 -1.89112 0
M  V30 5069 C 489.374 0.715345 -1.78607 0
M  V30 5070 O 488.667 1.51498 -1.17299 0
M  V30 5071 C 488.861 -1.14477 -3.3857 0
M  V30 5072 C 488.69 -2.64594 -3.63621 0
M  V30 5073 C 487.46 -3.31685 -3.812 0
M  V30 5074 C 489.658 -3.62811 -3.64517 0
M  V30 5075 N 487.64 -4.70822 -3.93955 0
M  V30 5076 C 489.011 -4.87603 -3.8294 0
M  V30 5077 C 491.066 -3.56495 -3.47585 0
M  V30 5078 C 489.769 -6.0684 -3.86184 0
M  V30 5079 C 491.795 -4.75155 -3.52111 0
M  V30 5080 C 491.157 -5.98765 -3.71026 0
M  V30 5081 H 487.256 -0.32603 -0.710794 0
M  V30 5082 H 489.84 -1.3258 -1.42586 0
M  V30 5083 H 488.011 -0.595974 -3.838 0
M  V30 5084 H 489.743 -0.808187 -3.96548 0
M  V30 5085 H 486.498 -2.82091 -3.80423 0
M  V30 5086 H 486.922 -5.43122 -4.04163 0
M  V30 5087 H 491.564 -2.61907 -3.31911 0
M  V30 5088 H 489.282 -7.01788 -4.00648 0
M  V30 5089 H 492.868 -4.71905 -3.40289 0
M  V30 5090 H 491.748 -6.89047 -3.74412 0
M  V30 5091 N 489.251 1.34841 -0.815825 0
M  V30 5092 C 490.214 2.27959 -0.238185 0
M  V30 5093 C 491.214 1.49983 0.579816 0
M  V30 5094 O 492.404 1.69617 0.396953 0
M  V30 5095 C 489.536 3.34314 0.666876 0
M  V30 5096 H 490.729 2.80558 -1.05958 0
M  V30 5097 H 488.282 1.44852 -0.587156 0
M  V30 5098 H 489.017 2.86916 1.5116 0
M  V30 5099 H 488.802 3.92014 0.0819106 0
M  V30 5100 H 490.292 4.0379 1.06506 0
M  V30 5101 N 490.729 0.570148 1.46925 0
M  V30 5102 C 491.679 -0.190921 2.27199 0
M  V30 5103 C 492.663 -0.873457 1.35128 0
M  V30 5104 O 493.855 -0.769627 1.59392 0
M  V30 5105 C 490.984 -1.21204 3.21192 0
M  V30 5106 C 490.07 -0.532261 4.20747 0
M  V30 5107 N 490.461 0.405038 5.04176 0
M  V30 5108 C 488.759 -0.784582 4.39045 0
M  V30 5109 C 489.46 0.801149 5.76157 0
M  V30 5110 N 488.436 0.153082 5.43384 0
M  V30 5111 H 492.238 0.529535 2.8909 0
M  V30 5112 H 489.752 0.391019 1.57622 0
M  V30 5113 H 491.749 -1.77135 3.77398 0
M  V30 5114 H 490.409 -1.93345 2.6086 0
M  V30 5115 H 491.42 0.779903 5.11994 0
M  V30 5116 H 488.097 -1.49352 3.89872 0
M  V30 5117 H 489.487 1.57208 6.5325 0
M  V30 5118 N 492.207 -1.54576 0.307264 0
M  V30 5119 C 493.157 -2.20467 -0.581249 0
M  V30 5120 C 494.141 -1.17972 -1.09414 0
M  V30 5121 O 495.333 -1.43667 -1.03387 0
M  V30 5122 C 492.462 -2.95369 -1.74963 0
M  V30 5123 C 491.548 -4.05186 -1.25241 0
M  V30 5124 N 491.939 -5.03577 -0.47364 0
M  V30 5125 C 490.237 -4.18841 -1.53259 0
M  V30 5126 C 490.938 -5.81328 -0.208083 0
M  V30 5127 N 489.914 -5.37834 -0.789651 0
M  V30 5128 H 493.716 -2.93892 0.0212221 0
M  V30 5129 H 491.23 -1.62011 0.112325 0
M  V30 5130 H 493.227 -3.41046 -2.39777 0
M  V30 5131 H 491.887 -2.23461 -2.35574 0
M  V30 5132 H 492.898 -5.17766 -0.117963 0
M  V30 5133 H 489.575 -3.58141 -2.14573 0
M  V30 5134 H 490.965 -6.706 0.417793 0
M  V30 5135 N 493.685 -0.035106 -1.57561 0
M  V30 5136 C 494.618 0.979673 -2.06101 0
M  V30 5137 C 495.596 1.31378 -0.958046 0
M  V30 5138 O 496.78 1.42942 -1.22881 0
M  V30 5139 C 493.907 2.29809 -2.48808 0
M  V30 5140 C 492.953 2.11817 -3.70184 0
M  V30 5141 S 493.786 1.41143 -5.16565 0
M  V30 5142 C 494.942 2.74341 -5.62572 0
M  V30 5143 H 495.175 0.566506 -2.91853 0
M  V30 5144 H 492.708 0.176744 -1.53385 0
M  V30 5145 H 494.666 3.056 -2.74078 0
M  V30 5146 H 493.327 2.68257 -1.63392 0
M  V30 5147 H 492.52 3.09299 -3.97933 0
M  V30 5148 H 492.122 1.44168 -3.45097 0
M  V30 5149 H 494.414 3.70562 -5.67177 0
M  V30 5150 H 495.357 2.51249 -6.62027 0
M  V30 5151 H 495.765 2.79863 -4.90242 0
M  V30 5152 N 495.163 1.55791 0.238111 0
M  V30 5153 C 496.393 1.81834 0.980809 0
M  V30 5154 C 496.801 0.609741 1.79106 0
M  V30 5155 O 496.144 -0.431073 1.78571 0
M  V30 5156 C 496.206 3.01363 1.96011 0
M  V30 5157 C 495.87 4.37037 1.33597 0
M  V30 5158 C 496.867 5.14692 0.734063 0
M  V30 5159 C 494.552 4.83743 1.3527 0
M  V30 5160 C 496.546 6.37206 0.157208 0
M  V30 5161 C 494.233 6.06204 0.77199 0
M  V30 5162 C 495.231 6.82775 0.175282 0
M  V30 5163 O 494.919 8.02922 -0.396432 0
M  V30 5164 H 494.651 0.6088 0.293834 0
M  V30 5165 H 497.205 2.03702 0.263552 0
M  V30 5166 H 495.435 2.75273 2.71591 0
M  V30 5167 H 497.124 3.14422 2.56697 0
M  V30 5168 H 497.89 4.79722 0.713582 0
M  V30 5169 H 493.769 4.24129 1.80653 0
M  V30 5170 H 497.313 6.96915 -0.30917 0
M  V30 5171 H 493.21 6.4065 0.789828 0
M  V30 5172 H 493.978 8.17989 -0.289145 0
M  V30 5173 N 496.642 -0.504142 1.49319 0
M  V30 5174 C 497.87 -1.28256 1.62351 0
M  V30 5175 C 498.285 -1.86502 0.293682 0
M  V30 5176 O 497.642 -1.67678 -0.720449 0
M  V30 5177 C 497.693 -2.41507 2.68992 0
M  V30 5178 O 497.414 -1.85656 3.96817 0
M  V30 5179 C 498.915 -3.32929 2.927 0
M  V30 5180 H 496.135 -0.389115 0.546654 0
M  V30 5181 H 498.679 -0.605531 1.95329 0
M  V30 5182 H 496.834 -3.05046 2.38801 0
M  V30 5183 H 497.248 -2.59981 4.55533 0
M  V30 5184 H 498.722 -4.0868 3.71058 0
M  V30 5185 H 499.199 -3.89733 2.02496 0
M  V30 5186 H 499.805 -2.75158 3.24296 0
M  V30 5187 N 498.12 -1.38341 -0.754957 0
M  V30 5188 C 499.083 -1.35262 -1.85032 0
M  V30 5189 C 500.083 -0.253393 -1.58791 0
M  V30 5190 O 501.273 -0.510205 -1.66561 0
M  V30 5191 C 498.405 -1.10544 -3.22479 0
M  V30 5192 H 499.598 -2.32712 -1.8917 0
M  V30 5193 H 497.151 -1.23614 -0.956515 0
M  V30 5194 H 497.886 -0.136952 -3.24011 0
M  V30 5195 H 497.671 -1.90127 -3.4292 0
M  V30 5196 H 499.161 -1.11082 -4.02555 0
M  V30 5197 N 499.598 0.982988 -1.23187 0
M  V30 5198 C 500.846 1.72052 -1.06031 0
M  V30 5199 C 501.167 1.90769 0.404019 0
M  V30 5200 O 500.437 1.47446 1.28982 0
M  V30 5201 H 499.017 0.637499 -0.389363 0
M  V30 5202 H 501.679 1.18338 -1.54862 0
M  V30 5203 H 500.775 2.7111 -1.54615 0
M  V30 5204 N 501.076 1.04316 1.18135 0
M  V30 5205 C 502.006 0.657299 2.24058 0
M  V30 5206 C 502.987 -0.340678 1.66654 0
M  V30 5207 O 504.172 -0.220223 1.92947 0
M  V30 5208 C 501.302 0.0220715 3.47293 0
M  V30 5209 C 500.256 0.943857 4.17463 0
M  V30 5210 C 499.582 0.172973 5.3442 0
M  V30 5211 C 500.882 2.26409 4.70677 0
M  V30 5212 H 502.576 1.5428 2.56589 0
M  V30 5213 H 500.122 0.743263 1.23335 0
M  V30 5214 H 502.075 -0.259607 4.206 0
M  V30 5215 H 500.799 -0.898323 3.14003 0
M  V30 5216 H 499.458 1.20996 3.46057 0
M  V30 5217 H 499.106 -0.749907 4.97379 0
M  V30 5218 H 498.806 0.787098 5.82304 0
M  V30 5219 H 500.33 -0.101628 6.10515 0
M  V30 5220 H 501.744 2.04294 5.35665 0
M  V30 5221 H 500.141 2.8314 5.29105 0
M  V30 5222 H 501.211 2.90883 3.87962 0
M  V30 5223 N 502.554 -1.34406 0.822964 0
M  V30 5224 C 503.779 -2.0304 0.423034 0
M  V30 5225 C 504.204 -1.61568 -0.963196 0
M  V30 5226 O 503.562 -0.800339 -1.62678 0
M  V30 5227 C 503.61 -3.56636 0.53321 0
M  V30 5228 O 502.714 -4.09971 -0.446939 0
M  V30 5229 H 502.055 -0.64075 0.174171 0
M  V30 5230 H 504.585 -1.71653 1.11339 0
M  V30 5231 H 504.595 -4.05945 0.408991 0
M  V30 5232 H 503.27 -3.86168 1.54425 0
M  V30 5233 H 501.847 -3.71835 -0.281601 0
M  V30 5234 N 504.032 -0.577932 -1.46621 0
M  V30 5235 C 504.962 0.145917 -2.33044 0
M  V30 5236 C 505.943 0.888412 -1.45056 0
M  V30 5237 O 507.128 0.864812 -1.73881 0
M  V30 5238 C 504.258 1.16322 -3.27241 0
M  V30 5239 C 503.212 0.535868 -4.24632 0
M  V30 5240 C 502.538 1.65929 -5.08303 0
M  V30 5241 C 503.838 -0.523861 -5.19666 0
M  V30 5242 H 505.532 -0.575636 -2.93814 0
M  V30 5243 H 503.078 -0.278272 -1.41286 0
M  V30 5244 H 505.031 1.67793 -3.86553 0
M  V30 5245 H 503.755 1.91498 -2.64567 0
M  V30 5246 H 502.414 0.0422759 -3.66576 0
M  V30 5247 H 502.062 2.40061 -4.42018 0
M  V30 5248 H 501.762 1.2452 -5.74255 0
M  V30 5249 H 503.286 2.17686 -5.70478 0
M  V30 5250 H 504.7 -0.0944059 -5.73222 0
M  V30 5251 H 503.097 -0.858 -5.93935 0
M  V30 5252 H 504.167 -1.41197 -4.63887 0
M  V30 5253 N 505.51 1.54411 -0.315457 0
M  V30 5254 C 506.738 2.04833 0.291738 0
M  V30 5255 C 507.153 1.19203 1.46411 0
M  V30 5256 O 506.51 0.220867 1.81159 0
M  V30 5257 C 506.561 3.53969 0.73404 0
M  V30 5258 O 506.282 4.36346 -0.391682 0
M  V30 5259 C 507.783 4.2045 1.40489 0
M  V30 5260 H 505.003 0.668195 0.0612947 0
M  V30 5261 H 507.547 1.99276 -0.45929 0
M  V30 5262 H 505.702 3.5984 1.43506 0
M  V30 5263 H 506.116 5.24481 -0.0447088 0
M  V30 5264 H 507.59 5.26278 1.66539 0
M  V30 5265 H 508.067 3.71067 2.3496 0
M  V30 5266 H 508.673 4.18694 0.746662 0
M  V30 5267 N 506.988 0.0434614 1.5754 0
M  V30 5268 C 507.92 -0.962586 2.08007 0
M  V30 5269 C 508.933 -1.27972 1.00634 0
M  V30 5270 O 510.122 -1.24186 1.28219 0
M  V30 5271 C 507.222 -2.28621 2.50171 0
M  V30 5272 C 506.395 -2.15214 3.80791 0
M  V30 5273 C 505.454 -3.30633 4.09351 0
M  V30 5274 O 504.48 -3.0688 4.79388 0
M  V30 5275 N 505.682 -4.54873 3.60654 0
M  V30 5276 H 508.447 -0.531891 2.94942 0
M  V30 5277 H 506.008 -0.142965 1.61268 0
M  V30 5278 H 508 -3.04689 2.66359 0
M  V30 5279 H 506.57 -2.63283 1.68525 0
M  V30 5280 H 505.79 -1.23785 3.74261 0
M  V30 5281 H 507.078 -2.03475 4.66343 0
M  V30 5282 H 506.476 -4.77063 3.04019 0
M  V30 5283 H 505.033 -5.2806 3.82094 0
M  V30 5284 N 508.466 -1.55915 -0.229846 0
M  V30 5285 C 509.398 -1.88209 -1.30805 0
M  V30 5286 C 510.411 -0.769672 -1.43457 0
M  V30 5287 O 511.6 -1.04792 -1.44502 0
M  V30 5288 C 508.7 -2.06829 -2.68468 0
M  V30 5289 C 507.873 -3.37798 -2.77869 0
M  V30 5290 C 506.932 -3.45952 -3.96489 0
M  V30 5291 O 505.958 -4.19043 -3.85216 0
M  V30 5292 N 507.16 -2.76488 -5.10426 0
M  V30 5293 H 509.925 -2.81286 -1.03431 0
M  V30 5294 H 507.486 -1.5636 -0.41991 0
M  V30 5295 H 509.478 -2.09608 -3.46189 0
M  V30 5296 H 508.048 -1.20416 -2.88477 0
M  V30 5297 H 507.268 -3.4719 -1.86689 0
M  V30 5298 H 508.556 -4.24091 -2.81113 0
M  V30 5299 H 507.954 -2.16868 -5.2248 0
M  V30 5300 H 506.511 -2.84938 -5.8622 0
M  V30 5301 N 509.944 0.496216 -1.49584 0
M  V30 5302 C 511.169 1.27865 -1.63295 0
M  V30 5303 C 511.594 1.85592 -0.306156 0
M  V30 5304 O 510.952 1.66092 0.726851 0
M  V30 5305 C 511 2.38128 -2.7079 0
M  V30 5306 O 510.104 3.42108 -2.30296 0
M  V30 5307 H 509.445 0.377279 -0.546403 0
M  V30 5308 H 511.975 0.593497 -1.95803 0
M  V30 5309 H 511.985 2.8382 -2.93104 0
M  V30 5310 H 510.66 1.95479 -3.67098 0
M  V30 5311 H 509.237 3.02301 -2.18331 0
M  V30 5312 N 511.423 1.38739 0.74761 0
M  V30 5313 C 512.653 1.3832 1.53464 0
M  V30 5314 C 513.061 -0.0273464 1.8918 0
M  V30 5315 O 512.404 -1.00588 1.53713 0
M  V30 5316 C 512.466 2.18007 2.85855 0
M  V30 5317 C 512.13 3.66762 2.72644 0
M  V30 5318 C 513.127 4.60124 2.42037 0
M  V30 5319 C 510.812 4.10193 2.89909 0
M  V30 5320 C 512.806 5.94897 2.28859 0
M  V30 5321 C 510.493 5.45045 2.7635 0
M  V30 5322 C 511.491 6.37211 2.45869 0
M  V30 5323 O 511.179 7.69581 2.3238 0
M  V30 5324 H 510.911 0.474718 0.481268 0
M  V30 5325 H 513.465 1.83012 0.932518 0
M  V30 5326 H 511.695 1.68043 3.48279 0
M  V30 5327 H 513.384 2.09921 3.47402 0
M  V30 5328 H 514.15 4.27874 2.28361 0
M  V30 5329 H 510.029 3.38797 3.1263 0
M  V30 5330 H 513.573 6.66802 2.04989 0
M  V30 5331 H 509.47 5.76889 2.89601 0
M  V30 5332 H 510.238 7.80169 2.47546 0
M  V30 5333 N 512.901 -0.976442 1.23707 0
M  V30 5334 C 514.148 -1.71827 1.07153 0
M  V30 5335 C 514.476 -1.9053 -0.390982 0
M  V30 5336 O 513.731 -1.45779 -1.30564 0
M  V30 5337 C 514.03 -3.11814 1.74662 0
M  V30 5338 C 513.696 -3.12978 3.24585 0
M  V30 5339 C 512.358 -3.13003 3.6549 0
M  V30 5340 C 514.71 -3.07986 4.20469 0
M  V30 5341 C 512.038 -3.05757 5.00729 0
M  V30 5342 C 514.39 -3.02282 5.55705 0
M  V30 5343 C 513.054 -3.00631 5.95968 0
M  V30 5344 H 512.324 -0.628758 0.392102 0
M  V30 5345 H 514.971 -1.14239 1.53693 0
M  V30 5346 H 513.276 -3.72812 1.20492 0
M  V30 5347 H 514.973 -3.67989 1.59328 0
M  V30 5348 H 511.563 -3.13718 2.92026 0
M  V30 5349 H 515.747 -3.07103 3.89874 0
M  V30 5350 H 511.003 -3.02834 5.31132 0
M  V30 5351 H 515.177 -2.97376 6.29714 0
M  V30 5352 H 512.804 -2.94771 7.00724 0
M  V30 5353 N 514.379 -1.04941 -1.1758 0
M  V30 5354 C 515.312 -0.592518 -2.20373 0
M  V30 5355 C 516.29 0.377561 -1.58156 0
M  V30 5356 O 517.474 0.28978 -1.86259 0
M  V30 5357 C 514.601 0.133215 -3.38438 0
M  V30 5358 C 513.647 -0.791484 -4.19092 0
M  V30 5359 S 514.48 -2.27925 -4.84572 0
M  V30 5360 C 515.636 -1.56462 -6.06028 0
M  V30 5361 H 515.869 -1.46342 -2.58788 0
M  V30 5362 H 513.402 -0.861148 -1.28155 0
M  V30 5363 H 515.36 0.545746 -4.06856 0
M  V30 5364 H 514.021 0.980124 -2.98416 0
M  V30 5365 H 513.214 -0.230039 -5.03475 0
M  V30 5366 H 512.816 -1.14326 -3.56098 0
M  V30 5367 H 515.108 -0.862539 -6.71987 0
M  V30 5368 H 516.051 -2.38583 -6.66696 0
M  V30 5369 H 516.459 -1.05313 -5.5459 0
M  V30 5370 N 515.857 1.33968 -0.830081 0
M  V30 5371 C 516.79 2.27303 -0.202182 0
M  V30 5372 C 517.768 1.49235 0.645581 0
M  V30 5373 O 518.952 1.78433 0.607762 0
M  V30 5374 C 516.079 3.31025 0.716932 0
M  V30 5375 C 515.125 4.26466 -0.0542271 0
M  V30 5376 S 515.958 5.16707 -1.40622 0
M  V30 5377 C 517.114 6.23962 -0.492167 0
M  V30 5378 H 517.347 2.8021 -0.99346 0
M  V30 5379 H 514.88 1.41124 -0.626359 0
M  V30 5380 H 516.838 3.91271 1.24165 0
M  V30 5381 H 515.499 2.76951 1.4818 0
M  V30 5382 H 514.692 4.99858 0.644785 0
M  V30 5383 H 514.294 3.7051 -0.509722 0
M  V30 5384 H 516.586 6.76774 0.31347 0
M  V30 5385 H 517.529 6.97927 -1.19599 0
M  V30 5386 H 517.937 5.64447 -0.0774176 0
M  V30 5387 N 517.335 0.585699 1.46312 0
M  V30 5388 C 518.298 -0.135673 2.28798 0
M  V30 5389 C 519.298 -0.815988 1.38558 0
M  V30 5390 O 520.488 -0.667487 1.60904 0
M  V30 5391 C 517.62 -1.20163 3.1902 0
M  V30 5392 H 518.813 0.589257 2.94054 0
M  V30 5393 H 516.366 0.343794 1.52472 0
M  V30 5394 H 517.101 -1.95804 2.58517 0
M  V30 5395 H 516.886 -0.718282 3.85465 0
M  V30 5396 H 518.376 -1.70749 3.81096 0
M  V30 5397 N 518.813 -1.54241 0.323641 0
M  V30 5398 C 520.041 -2.04985 -0.280871 0
M  V30 5399 C 520.456 -1.19978 -1.45777 0
M  V30 5400 O 519.813 -0.230471 -1.81039 0
M  V30 5401 C 519.864 -3.54353 -0.715258 0
M  V30 5402 O 519.585 -4.36132 0.414817 0
M  V30 5403 C 521.086 -4.21189 -1.38257 0
M  V30 5404 H 518.306 -0.66851 -0.0577502 0
M  V30 5405 H 520.85 -1.99029 0.469852 0
M  V30 5406 H 519.005 -3.60596 -1.41596 0
M  V30 5407 H 519.419 -5.2445 0.0725227 0
M  V30 5408 H 520.893 -5.27154 -1.63745 0
M  V30 5409 H 521.37 -3.72307 -2.32989 0
M  V30 5410 H 521.976 -4.19085 -0.724447 0
M  V30 5411 N 520.291 -0.0518155 -1.57515 0
M  V30 5412 C 521.224 0.957758 -2.07129 0
M  V30 5413 C 522.202 1.30355 -0.971927 0
M  V30 5414 O 523.386 1.41631 -1.2439 0
M  V30 5415 C 520.513 2.27157 -2.51232 0
M  V30 5416 C 519.559 2.07879 -3.72409 0
M  V30 5417 S 520.392 1.35656 -5.18033 0
M  V30 5418 C 521.548 2.68359 -5.65451 0
M  V30 5419 H 521.781 0.53552 -2.92437 0
M  V30 5420 H 519.314 0.160465 -1.53564 0
M  V30 5421 H 521.272 3.02676 -2.77304 0
M  V30 5422 H 519.933 2.66509 -1.66228 0
M  V30 5423 H 519.126 3.05061 -4.01191 0
M  V30 5424 H 518.728 1.40499 -3.46606 0
M  V30 5425 H 521.02 3.64526 -5.71076 0
M  V30 5426 H 521.963 2.44213 -6.64654 0
M  V30 5427 H 522.371 2.74647 -4.93183 0
M  V30 5428 N 521.769 1.56035 0.221574 0
M  V30 5429 C 523.015 1.79312 0.947372 0
M  V30 5430 C 523.348 0.621453 1.83988 0
M  V30 5431 O 522.623 -0.379287 1.90766 0
M  V30 5432 C 522.906 3.1267 1.78633 0
M  V30 5433 C 522.759 4.40284 0.920312 0
M  V30 5434 C 524.078 3.4247 2.7641 0
M  V30 5435 H 521.197 0.652328 0.342982 0
M  V30 5436 H 523.839 1.88765 0.216244 0
M  V30 5437 H 521.989 3.04741 2.40967 0
M  V30 5438 H 523.661 4.60232 0.313718 0
M  V30 5439 H 521.904 4.33212 0.225734 0
M  V30 5440 H 522.575 5.30033 1.54171 0
M  V30 5441 H 525.051 3.50526 2.24211 0
M  V30 5442 H 523.927 4.3695 3.32213 0
M  V30 5443 H 524.188 2.64635 3.54148 0
M  V30 5444 N 523.247 -0.488276 1.49845 0
M  V30 5445 C 524.496 -1.23826 1.59217 0
M  V30 5446 C 524.809 -1.93439 0.289966 0
M  V30 5447 O 526.015 -2.70229 0.262382 0
M  V30 5448 C 524.471 -2.24902 2.80976 0
M  V30 5449 C 524.079 -1.6117 4.18005 0
M  V30 5450 C 525.823 -3.00648 2.99685 0
M  V30 5451 C 523.73 -2.60431 5.3097 0
M  V30 5452 H 522.66 -0.465858 0.592868 0
M  V30 5453 H 525.311 -0.510645 1.76252 0
M  V30 5454 H 523.693 -3.0088 2.57463 0
M  V30 5455 H 524.867 -0.910968 4.51706 0
M  V30 5456 H 523.182 -0.97767 4.0476 0
M  V30 5457 H 525.779 -3.74903 3.81251 0
M  V30 5458 H 526.122 -3.5902 2.10738 0
M  V30 5459 H 526.655 -2.31784 3.23297 0
M  V30 5460 H 523.394 -2.06823 6.22017 0
M  V30 5461 H 522.914 -3.28707 5.01709 0
M  V30 5462 H 524.593 -3.22606 5.60834 0
M  V30 5463 N 524.725 -1.39134 -0.740242 0
M  V30 5464 C 525.688 -1.37217 -1.83587 0
M  V30 5465 C 526.688 -0.270221 -1.58513 0
M  V30 5466 O 527.878 -0.527843 -1.6601 0
M  V30 5467 C 525.01 -1.13959 -3.21288 0
M  V30 5468 H 526.203 -2.34705 -1.86691 0
M  V30 5469 H 523.756 -1.24622 -0.94335 0
M  V30 5470 H 524.491 -0.17131 -3.23847 0
M  V30 5471 H 524.276 -1.93754 -3.40884 0
M  V30 5472 H 525.766 -1.15346 -4.01354 0
M  V30 5473 N 526.204 0.969867 -1.24223 0
M  V30 5474 C 527.45 1.7151 -1.08223 0
M  V30 5475 C 527.783 1.90478 0.37838 0
M  V30 5476 O 527.058 1.4647 1.27971 0
M  V30 5477 C 527.341 3.10714 -1.82013 0
M  V30 5478 C 527.194 2.9925 -3.35811 0
M  V30 5479 C 528.513 4.10332 -1.59108 0
M  V30 5480 H 525.632 0.622499 -0.394543 0
M  V30 5481 H 528.274 1.1284 -1.52863 0
M  V30 5482 H 526.424 3.608 -1.44068 0
M  V30 5483 H 528.096 2.56608 -3.83341 0
M  V30 5484 H 526.339 2.35512 -3.64303 0
M  V30 5485 H 527.01 3.97857 -3.82641 0
M  V30 5486 H 529.486 3.69097 -1.92111 0
M  V30 5487 H 528.362 5.05804 -2.13198 0
M  V30 5488 H 528.623 4.38926 -0.528832 0
M  V30 5489 N 527.682 1.05563 1.17022 0
M  V30 5490 C 529.093 0.793475 1.69 0
M  V30 5491 C 529.444 -0.683882 1.83895 0
M  V30 5492 O 528.569 -1.53116 1.5292 0
M  V30 5493 C 529.164 1.43376 3.06967 0
M  V30 5494 C 527.723 1.21956 3.56095 0
M  V30 5495 C 526.87 1.51494 2.3226 0
M  V30 5496 H 529.821 1.22008 1.01487 0
M  V30 5497 H 529.842 0.845068 3.70997 0
M  V30 5498 H 529.354 2.50899 2.96093 0
M  V30 5499 H 527.455 0.163749 3.7224 0
M  V30 5500 H 527.568 1.92713 4.38633 0
M  V30 5501 H 525.932 0.935175 2.3691 0
M  V30 5502 H 526.715 2.60159 2.23992 0
M  V30 5503 N 529.16 -1.33526 0.837174 0
M  V30 5504 C 530.388 -2.02047 0.445494 0
M  V30 5505 C 530.803 -1.62995 -0.952788 0
M  V30 5506 O 530.16 -0.842447 -1.61892 0
M  V30 5507 C 530.211 -3.57221 0.554577 0
M  V30 5508 O 529.932 -3.94863 1.89776 0
M  V30 5509 C 531.433 -4.43012 0.159634 0
M  V30 5510 H 528.653 -0.647221 0.177048 0
M  V30 5511 H 531.197 -1.70492 1.12928 0
M  V30 5512 H 529.352 -3.87315 -0.0812781 0
M  V30 5513 H 529.766 -4.89569 1.88208 0
M  V30 5514 H 531.24 -5.51253 0.28701 0
M  V30 5515 H 531.717 -4.29916 -0.898289 0
M  V30 5516 H 532.323 -4.18274 0.769855 0
M  V30 5517 N 530.638 -0.59345 -1.46 0
M  V30 5518 C 531.886 -0.082988 -2.0193 0
M  V30 5519 C 532.207 1.28569 -1.46612 0
M  V30 5520 O 531.477 1.84629 -0.654909 0
M  V30 5521 H 530.057 -0.0276882 -0.746487 0
M  V30 5522 H 532.719 -0.771657 -1.78973 0
M  V30 5523 H 531.815 -0.022079 -3.12092 0
M  V30 5524 N 532.116 1.54067 -0.331816 0
M  V30 5525 C 533.365 1.99895 0.269209 0
M  V30 5526 C 533.678 1.22371 1.52593 0
M  V30 5527 O 534.884 1.58618 2.20347 0
M  V30 5528 C 533.34 3.55972 0.530244 0
M  V30 5529 C 532.948 4.4234 -0.709901 0
M  V30 5530 C 534.692 4.10247 1.09077 0
M  V30 5531 C 532.599 5.89905 -0.420312 0
M  V30 5532 H 531.529 0.746741 0.104371 0
M  V30 5533 H 534.18 1.78014 -0.445324 0
M  V30 5534 H 532.562 3.73873 1.30518 0
M  V30 5535 H 533.736 4.36215 -1.48504 0
M  V30 5536 H 532.051 3.98997 -1.19123 0
M  V30 5537 H 534.648 5.18095 1.32219 0
M  V30 5538 H 534.991 3.62739 2.0427 0
M  V30 5539 H 535.524 3.96011 0.376824 0
M  V30 5540 H 532.263 6.41623 -1.34164 0
M  V30 5541 H 531.783 5.98962 0.316962 0
M  V30 5542 H 533.462 6.46991 -0.0331956 0
M  V30 5543 N 533.594 0.0601682 1.57485 0
M  V30 5544 C 534.541 -0.91112 2.12055 0
M  V30 5545 C 535.511 -1.30298 1.03013 0
M  V30 5546 O 536.696 -1.39087 1.30612 0
M  V30 5547 C 533.836 -2.1775 2.67729 0
M  V30 5548 C 532.949 -1.83933 3.90887 0
M  V30 5549 C 532.084 -3.05096 4.34845 0
M  V30 5550 C 531.123 -2.67241 5.5068 0
M  V30 5551 N 530.26 -3.81127 5.8965 0
M  V30 5552 H 535.1 -0.43888 2.9475 0
M  V30 5553 H 532.637 -0.204995 1.45665 0
M  V30 5554 H 534.595 -2.91866 2.98111 0
M  V30 5555 H 533.225 -2.62535 1.87816 0
M  V30 5556 H 532.277 -0.999287 3.6704 0
M  V30 5557 H 533.589 -1.52074 4.75052 0
M  V30 5558 H 532.743 -3.87502 4.66827 0
M  V30 5559 H 531.482 -3.40139 3.49509 0
M  V30 5560 H 530.487 -1.83254 5.18361 0
M  V30 5561 H 531.712 -2.3338 6.37738 0
M  V30 5562 H 529.658 -4.15954 5.07266 0
M  V30 5563 H 529.575 -3.52997 6.68528 0
M  V30 5564 H 530.843 -4.64145 6.2625 0
M  V30 5565 N 535.072 -1.5615 -0.213296 0
M  V30 5566 C 536.321 -1.78743 -0.93455 0
M  V30 5567 C 536.634 -0.630199 -1.8517 0
M  V30 5568 O 537.84 -0.739966 -2.61222 0
M  V30 5569 C 536.296 -3.16571 -1.71203 0
M  V30 5570 C 535.904 -4.40043 -0.840617 0
M  V30 5571 C 537.648 -3.48485 -2.42401 0
M  V30 5572 C 535.555 -5.68895 -1.61592 0
M  V30 5573 H 534.485 -0.666426 -0.352692 0
M  V30 5574 H 537.136 -1.82532 -0.188227 0
M  V30 5575 H 535.518 -3.06981 -2.50157 0
M  V30 5576 H 536.692 -4.6071 -0.0910326 0
M  V30 5577 H 535.007 -4.15706 -0.240365 0
M  V30 5578 H 537.604 -4.41983 -3.00924 0
M  V30 5579 H 537.947 -2.71371 -3.15695 0
M  V30 5580 H 538.48 -3.59442 -1.7043 0
M  V30 5581 H 535.219 -6.48925 -0.926106 0
M  V30 5582 H 534.739 -5.52275 -2.33991 0
M  V30 5583 H 536.418 -6.09365 -2.17447 0
M  V30 5584 N 536.55 0.480323 -1.50102 0
M  V30 5585 C 537.797 1.23307 -1.60629 0
M  V30 5586 C 538.125 1.92135 -0.302375 0
M  V30 5587 O 537.38 1.82321 0.711154 0
M  V30 5588 C 537.679 2.30708 -2.72963 0
M  V30 5589 C 537.345 1.79195 -4.13763 0
M  V30 5590 C 536.007 1.64867 -4.52076 0
M  V30 5591 C 538.359 1.40878 -5.018 0
M  V30 5592 C 535.687 1.10631 -5.76175 0
M  V30 5593 C 538.039 0.880872 -6.26437 0
M  V30 5594 C 536.703 0.724146 -6.6356 0
M  V30 5595 H 535.973 0.451211 -0.587784 0
M  V30 5596 H 538.62 0.53051 -1.84005 0
M  V30 5597 H 536.925 3.06834 -2.43639 0
M  V30 5598 H 538.622 2.88692 -2.78313 0
M  V30 5599 H 535.212 1.91313 -3.83533 0
M  V30 5600 H 539.396 1.50786 -4.7284 0
M  V30 5601 H 534.652 0.972263 -6.0362 0
M  V30 5602 H 538.826 0.575269 -6.9402 0
M  V30 5603 H 536.453 0.301722 -7.59601 0
M  V30 5604 N 538.028 1.39524 0.732853 0
M  V30 5605 C 539.253 1.40329 1.52717 0
M  V30 5606 C 539.678 0.000286574 1.881 0
M  V30 5607 O 539.036 -0.987262 1.52062 0
M  V30 5608 C 539.084 2.28464 2.78992 0
M  V30 5609 O 538.188 1.716 3.75003 0
M  V30 5610 H 537.529 0.47778 0.461109 0
M  V30 5611 H 540.059 1.83546 0.903996 0
M  V30 5612 H 540.069 2.43051 3.27705 0
M  V30 5613 H 538.744 3.30425 2.52572 0
M  V30 5614 H 537.321 1.66267 3.33781 0
M  V30 5615 N 539.506 -0.963266 1.24736 0
M  V30 5616 C 540.752 -1.71 1.10139 0
M  V30 5617 C 541.107 -1.89089 -0.35541 0
M  V30 5618 O 540.4 -1.44451 -1.25875 0
M  V30 5619 C 540.594 -3.09944 1.7796 0
M  V30 5620 C 540.423 -3.05408 3.30085 0
M  V30 5621 C 539.193 -3.09643 3.99311 0
M  V30 5622 C 541.391 -2.87241 4.26611 0
M  V30 5623 N 539.373 -2.95174 5.3828 0
M  V30 5624 C 540.744 -2.81114 5.52607 0
M  V30 5625 C 542.799 -2.71856 4.17132 0
M  V30 5626 C 541.502 -2.61174 6.70209 0
M  V30 5627 C 543.528 -2.53284 5.34417 0
M  V30 5628 C 542.89 -2.4787 6.59348 0
M  V30 5629 H 538.989 -0.634078 0.457678 0
M  V30 5630 H 541.573 -1.14169 1.57713 0
M  V30 5631 H 539.744 -3.64958 1.32893 0
M  V30 5632 H 541.476 -3.73348 1.56183 0
M  V30 5633 H 538.231 -3.18498 3.50508 0
M  V30 5634 H 538.655 -2.91168 6.11188 0
M  V30 5635 H 543.297 -2.74821 3.21299 0
M  V30 5636 H 541.015 -2.56952 7.6616 0
M  V30 5637 H 544.601 -2.42317 5.28936 0
M  V30 5638 H 543.481 -2.33685 7.48573 0
M  V30 5639 N 540.985 -1.06182 -1.16461 0
M  V30 5640 C 542.234 -0.772927 -1.86303 0
M  V30 5641 C 542.547 0.703187 -1.82523 0
M  V30 5642 O 543.753 1.10641 -2.47933 0
M  V30 5643 C 542.209 -1.33249 -3.34324 0
M  V30 5644 C 541.817 -2.83876 -3.46581 0
M  V30 5645 C 543.561 -1.12108 -4.09429 0
M  V30 5646 C 541.468 -3.33082 -4.88682 0
M  V30 5647 H 540.398 -0.285452 -0.697878 0
M  V30 5648 H 543.049 -1.28039 -1.31447 0
M  V30 5649 H 541.431 -0.7528 -3.88779 0
M  V30 5650 H 542.605 -3.47786 -3.02293 0
M  V30 5651 H 540.92 -3.03671 -2.84909 0
M  V30 5652 H 543.517 -1.46361 -5.14279 0
M  V30 5653 H 543.86 -0.0593832 -4.16258 0
M  V30 5654 H 544.393 -1.6665 -3.6121 0
M  V30 5655 H 541.132 -4.38726 -4.87032 0
M  V30 5656 H 540.652 -2.73919 -5.33599 0
M  V30 5657 H 542.331 -3.28344 -5.57494 0
M  V30 5658 N 542.463 1.3308 -0.844243 0
M  V30 5659 C 543.426 2.27403 -0.286485 0
M  V30 5660 C 544.426 1.51179 0.547872 0
M  V30 5661 O 545.616 1.70421 0.360886 0
M  V30 5662 C 542.748 3.35653 0.595813 0
M  V30 5663 H 543.941 2.78248 -1.11885 0
M  V30 5664 H 541.494 1.43574 -0.617749 0
M  V30 5665 H 542.229 2.90058 1.4504 0
M  V30 5666 H 542.014 3.921 -0.00125994 0
M  V30 5667 H 543.504 4.05958 0.979168 0
M  V30 5668 N 543.941 0.601185 1.45683 0
M  V30 5669 C 545.169 0.100054 2.06658 0
M  V30 5670 C 545.584 -1.21285 1.44691 0
M  V30 5671 O 544.941 -1.73735 0.558772 0
M  V30 5672 C 544.992 -0.0528579 3.61461 0
M  V30 5673 O 544.713 1.20809 4.21114 0
M  V30 5674 C 546.214 -0.586193 4.39407 0
M  V30 5675 H 543.434 0.065905 0.667756 0
M  V30 5676 H 545.978 0.827101 1.87028 0
M  V30 5677 H 544.133 -0.730203 3.80456 0
M  V30 5678 H 544.547 1.03368 5.14213 0
M  V30 5679 H 546.021 -0.642297 5.4825 0
M  V30 5680 H 546.498 -1.60713 4.0874 0
M  V30 5681 H 547.104 0.0568935 4.25262 0
M  V30 5682 N 545.419 -1.53889 0.339982 0
M  V30 5683 C 546.352 -2.21187 -0.561405 0
M  V30 5684 C 547.33 -1.19463 -1.10306 0
M  V30 5685 O 548.514 -1.48268 -1.164 0
M  V30 5686 C 545.641 -2.8865 -1.77198 0
M  V30 5687 C 544.687 -4.04232 -1.3601 0
M  V30 5688 S 545.52 -5.34129 -0.382909 0
M  V30 5689 C 546.676 -6.05094 -1.60039 0
M  V30 5690 H 546.909 -2.97298 0.0102092 0
M  V30 5691 H 544.442 -1.53901 0.124056 0
M  V30 5692 H 546.4 -3.28138 -2.4665 0
M  V30 5693 H 545.061 -2.12311 -2.3148 0
M  V30 5694 H 544.254 -4.50358 -2.2626 0
M  V30 5695 H 543.856 -3.66503 -0.745098 0
M  V30 5696 H 546.148 -6.2827 -2.53541 0
M  V30 5697 H 547.091 -6.98182 -1.18099 0
M  V30 5698 H 547.499 -5.35207 -1.79483 0
M  V30 5699 N 546.897 -0.0685191 -1.57451 0
M  V30 5700 C 548.143 0.596247 -1.94465 0
M  V30 5701 C 548.498 1.67417 -0.948117 0
M  V30 5702 O 547.791 1.91576 0.0301056 0
M  V30 5703 C 547.985 1.22051 -3.35914 0
M  V30 5704 C 547.814 0.204586 -4.49234 0
M  V30 5705 C 546.584 -0.20959 -5.04865 0
M  V30 5706 C 548.782 -0.556872 -5.11276 0
M  V30 5707 N 546.764 -1.21656 -6.01725 0
M  V30 5708 C 548.135 -1.41642 -6.03604 0
M  V30 5709 C 550.19 -0.613297 -4.94108 0
M  V30 5710 C 548.893 -2.32737 -6.80607 0
M  V30 5711 C 550.919 -1.51174 -5.71752 0
M  V30 5712 C 550.281 -2.35898 -6.63726 0
M  V30 5713 H 546.38 0.189307 -0.75874 0
M  V30 5714 H 548.964 -0.144899 -1.9416 0
M  V30 5715 H 547.135 1.9316 -3.36963 0
M  V30 5716 H 548.867 1.84548 -3.60172 0
M  V30 5717 H 545.622 0.172871 -4.73284 0
M  V30 5718 H 546.046 -1.71746 -6.54853 0
M  V30 5719 H 550.688 0.0275228 -4.22791 0
M  V30 5720 H 548.406 -2.97856 -7.51204 0
M  V30 5721 H 551.992 -1.5602 -5.6049 0
M  V30 5722 H 550.872 -3.04291 -7.22756 0
M  V30 5723 N 548.375 1.56261 0.205012 0
M  V30 5724 C 549.623 1.79684 0.925096 0
M  V30 5725 C 549.944 0.63989 1.84202 0
M  V30 5726 O 549.214 -0.342345 1.92885 0
M  V30 5727 H 547.794 0.662774 0.344587 0
M  V30 5728 H 550.456 1.93734 0.212899 0
M  V30 5729 H 549.552 2.72467 1.52211 0
M  V30 5730 N 549.853 -0.472356 1.50355 0
M  V30 5731 C 551.101 -1.22211 1.60962 0
M  V30 5732 C 551.422 -1.92497 0.311439 0
M  V30 5733 O 550.692 -1.8405 -0.671002 0
M  V30 5734 H 549.272 -0.454092 0.593135 0
M  V30 5735 H 551.934 -0.544977 1.87126 0
M  V30 5736 H 551.03 -1.9707 2.42012 0
M  V30 5737 N 551.331 -1.39911 -0.725443 0
M  V30 5738 C 552.556 -1.41137 -1.5197 0
M  V30 5739 C 552.981 -0.010262 -1.88097 0
M  V30 5740 O 552.339 0.979184 -1.52583 0
M  V30 5741 C 552.387 -2.2994 -2.77777 0
M  V30 5742 O 551.491 -1.73586 -3.74088 0
M  V30 5743 H 550.832 -0.480219 -0.458569 0
M  V30 5744 H 553.362 -1.84023 -0.894249 0
M  V30 5745 H 553.372 -2.44785 -3.26411 0
M  V30 5746 H 552.047 -3.31759 -2.50816 0
M  V30 5747 H 550.624 -1.68035 -3.32894 0
M  V30 5748 N 552.809 0.956637 -1.25245 0
M  V30 5749 C 554.058 1.69537 -1.0927 0
M  V30 5750 C 554.371 1.92136 0.366503 0
M  V30 5751 O 555.577 2.63687 0.64665 0
M  V30 5752 C 554.033 3.05211 -1.9072 0
M  V30 5753 C 553.641 2.90416 -3.41119 0
M  V30 5754 C 555.385 3.82882 -1.83308 0
M  V30 5755 C 553.292 4.21468 -4.14872 0
M  V30 5756 H 552.222 0.635804 -0.405302 0
M  V30 5757 H 554.873 1.06513 -1.49423 0
M  V30 5758 H 553.255 3.69128 -1.43389 0
M  V30 5759 H 554.429 2.35444 -3.9611 0
M  V30 5760 H 552.744 2.26203 -3.49602 0
M  V30 5761 H 555.341 4.79944 -2.35706 0
M  V30 5762 H 555.684 4.0853 -0.800572 0
M  V30 5763 H 556.217 3.25711 -2.28379 0
M  V30 5764 H 552.956 4.01009 -5.18529 0
M  V30 5765 H 552.476 4.76213 -3.64665 0
M  V30 5766 H 554.155 4.90022 -4.22478 0
M  V30 5767 N 554.287 1.06798 1.15896 0
M  V30 5768 C 555.197 0.694564 2.24083 0
M  V30 5769 C 556.213 -0.291687 1.71538 0
M  V30 5770 O 557.389 -0.139723 2.00915 0
M  V30 5771 C 554.454 0.0921014 3.46578 0
M  V30 5772 C 553.515 1.13087 4.14137 0
M  V30 5773 C 552.748 0.557064 5.30785 0
M  V30 5774 O 552.971 -0.628623 5.66925 0
M  V30 5775 O 551.905 1.29924 5.8771 0
M  V30 5776 H 555.731 1.59663 2.58344 0
M  V30 5777 H 553.316 0.840575 1.2351 0
M  V30 5778 H 555.198 -0.241884 4.20705 0
M  V30 5779 H 553.873 -0.78337 3.14078 0
M  V30 5780 H 552.78 1.51712 3.41957 0
M  V30 5781 H 554.113 1.97805 4.50704 0
M  V30 5782 N 555.766 -1.3263 0.851289 0
M  V30 5783 C 556.696 -2.31449 0.308771 0
M  V30 5784 C 557.677 -1.59531 -0.590255 0
M  V30 5785 O 558.862 -1.87351 -0.511205 0
M  V30 5786 C 555.992 -3.43586 -0.506548 0
M  V30 5787 C 554.946 -4.26963 0.297753 0
M  V30 5788 C 554.272 -5.30831 -0.642094 0
M  V30 5789 C 555.572 -4.99643 1.52166 0
M  V30 5790 H 557.266 -2.77074 1.13447 0
M  V30 5791 H 554.812 -1.33207 0.546971 0
M  V30 5792 H 556.765 -4.11754 -0.896474 0
M  V30 5793 H 555.489 -2.96681 -1.36558 0
M  V30 5794 H 554.148 -3.60437 0.669391 0
M  V30 5795 H 553.796 -4.8018 -1.49788 0
M  V30 5796 H 553.496 -5.87501 -0.107968 0
M  V30 5797 H 555.02 -6.01862 -1.02927 0
M  V30 5798 H 556.434 -5.6051 1.20421 0
M  V30 5799 H 554.831 -5.66022 1.99347 0
M  V30 5800 H 555.901 -4.27701 2.28474 0
M  V30 5801 N 557.244 -0.608902 -1.45362 0
M  V30 5802 C 558.191 0.109172 -2.30542 0
M  V30 5803 C 559.161 0.858704 -1.42181 0
M  V30 5804 O 560.346 0.844178 -1.71109 0
M  V30 5805 C 557.486 1.09971 -3.27109 0
M  V30 5806 C 556.599 0.350911 -4.30572 0
M  V30 5807 C 555.734 1.33129 -5.14247 0
M  V30 5808 C 554.773 0.570377 -6.09437 0
M  V30 5809 N 553.91 1.5001 -6.85887 0
M  V30 5810 H 558.75 -0.623195 -2.91411 0
M  V30 5811 H 556.287 -0.319122 -1.43597 0
M  V30 5812 H 558.245 1.68714 -3.81564 0
M  V30 5813 H 556.875 1.79947 -2.67991 0
M  V30 5814 H 555.927 -0.352054 -3.78767 0
M  V30 5815 H 557.239 -0.242725 -4.98209 0
M  V30 5816 H 556.393 1.99074 -5.73109 0
M  V30 5817 H 555.132 1.95885 -4.46632 0
M  V30 5818 H 554.137 -0.102702 -5.49704 0
M  V30 5819 H 555.362 -0.0521607 -6.7908 0
M  V30 5820 H 553.308 2.11529 -6.2096 0
M  V30 5821 H 553.225 0.959934 -7.49881 0
M  V30 5822 H 554.493 2.14909 -7.49289 0
M  V30 5823 N 558.722 1.53707 -0.348139 0
M  V30 5824 C 559.95 2.05406 0.248224 0
M  V30 5825 C 560.365 1.22282 1.43849 0
M  V30 5826 O 559.722 0.259244 1.80649 0
M  V30 5827 C 559.773 3.55446 0.658793 0
M  V30 5828 O 559.494 4.35417 -0.484149 0
M  V30 5829 C 560.995 4.23335 1.31539 0
M  V30 5830 H 558.215 0.669344 0.0471075 0
M  V30 5831 H 560.759 1.98257 -0.501456 0
M  V30 5832 H 558.914 3.62803 1.35841 0
M  V30 5833 H 559.328 5.24268 -0.155949 0
M  V30 5834 H 560.802 5.29692 1.55338 0
M  V30 5835 H 561.279 3.75967 2.27036 0
M  V30 5836 H 561.885 4.20184 0.657683 0
M  V30 5837 N 560.2 0.0768682 1.57412 0
M  V30 5838 C 561.611 -0.455037 1.8107 0
M  V30 5839 C 561.962 -1.69323 0.991162 0
M  V30 5840 O 561.087 -2.15328 0.215156 0
M  V30 5841 C 561.682 -0.832316 3.28417 0
M  V30 5842 C 560.241 -1.30906 3.52903 0
M  V30 5843 C 559.388 -0.296714 2.75708 0
M  V30 5844 H 562.339 0.302514 1.5579 0
M  V30 5845 H 562.36 -1.69333 3.40744 0
M  V30 5846 H 561.872 0.0690532 3.88039 0
M  V30 5847 H 559.973 -2.22875 2.98592 0
M  V30 5848 H 560.086 -1.28348 4.61588 0
M  V30 5849 H 558.45 -0.775059 2.42621 0
M  V30 5850 H 559.233 0.597015 3.38069 0
M  V30 5851 N 561.678 -1.56367 -0.196722 0
M  V30 5852 C 562.611 -1.89475 -1.2718 0
M  V30 5853 C 563.589 -0.754667 -1.44026 0
M  V30 5854 O 564.773 -1.00551 -1.59442 0
M  V30 5855 C 561.9 -2.12352 -2.63864 0
M  V30 5856 C 560.946 -3.35053 -2.63897 0
M  V30 5857 S 561.779 -4.90228 -2.15492 0
M  V30 5858 C 562.935 -5.16171 -3.54004 0
M  V30 5859 H 563.168 -2.80365 -0.989075 0
M  V30 5860 H 560.701 -1.49125 -0.40014 0
M  V30 5861 H 562.659 -2.26214 -3.42545 0
M  V30 5862 H 561.32 -1.22214 -2.89349 0
M  V30 5863 H 560.513 -3.48182 -3.64397 0
M  V30 5864 H 560.115 -3.20176 -1.93296 0
M  V30 5865 H 562.407 -5.06591 -4.49857 0
M  V30 5866 H 563.35 -6.17938 -3.45771 0
M  V30 5867 H 563.758 -4.43814 -3.48841 0
M  V30 5868 N 563.156 0.464375 -1.50603 0
M  V30 5869 C 564.086 1.56944 -1.72889 0
M  V30 5870 C 565.067 1.59979 -0.577997 0
M  V30 5871 O 566.252 1.76138 -0.817855 0
M  V30 5872 C 563.382 2.95225 -1.8292 0
M  V30 5873 C 562.336 3.07056 -2.98162 0
M  V30 5874 C 561.662 4.47051 -2.93343 0
M  V30 5875 C 562.962 2.83648 -4.38567 0
M  V30 5876 H 564.656 1.38547 -2.65415 0
M  V30 5877 H 562.202 0.665082 -1.27721 0
M  V30 5878 H 564.155 3.72467 -1.97095 0
M  V30 5879 H 562.879 3.14793 -0.870209 0
M  V30 5880 H 561.538 2.32248 -2.83648 0
M  V30 5881 H 561.186 4.63547 -1.95276 0
M  V30 5882 H 560.886 4.55902 -3.70712 0
M  V30 5883 H 562.41 5.26304 -3.09575 0
M  V30 5884 H 563.824 3.50636 -4.53572 0
M  V30 5885 H 562.221 3.03937 -5.17438 0
M  V30 5886 H 563.291 1.79451 -4.50472 0
M  V30 5887 N 564.634 1.40294 0.718013 0
M  V30 5888 C 565.88 1.39648 1.47885 0
M  V30 5889 C 566.235 -0.0023879 1.924 0
M  V30 5890 O 565.528 -0.972304 1.65096 0
M  V30 5891 C 565.722 2.31814 2.72024 0
M  V30 5892 C 565.551 3.80523 2.3965 0
M  V30 5893 C 564.321 4.49351 2.3111 0
M  V30 5894 C 566.519 4.72077 2.04079 0
M  V30 5895 N 564.501 5.83305 1.91385 0
M  V30 5896 C 565.872 5.94809 1.74935 0
M  V30 5897 C 567.927 4.59935 1.90694 0
M  V30 5898 C 566.63 7.06755 1.33753 0
M  V30 5899 C 568.656 5.7182 1.50915 0
M  V30 5900 C 568.018 6.93637 1.22668 0
M  V30 5901 H 564.117 0.566263 0.539324 0
M  V30 5902 H 566.701 1.75986 0.832891 0
M  V30 5903 H 564.872 1.97607 3.34374 0
M  V30 5904 H 566.604 2.22042 3.38348 0
M  V30 5905 H 563.359 4.03002 2.4877 0
M  V30 5906 H 563.783 6.54239 1.74068 0
M  V30 5907 H 568.425 3.66274 2.11194 0
M  V30 5908 H 566.143 8.00302 1.11995 0
M  V30 5909 H 569.729 5.64421 1.4114 0
M  V30 5910 H 568.609 7.78743 0.923502 0
M  V30 5911 N 566.112 -0.949982 1.2575 0
M  V30 5912 C 567.075 -2.02894 1.06615 0
M  V30 5913 C 568.075 -1.60791 0.0173905 0
M  V30 5914 O 569.265 -1.72249 0.260003 0
M  V30 5915 C 566.397 -3.35219 0.619751 0
M  V30 5916 H 567.59 -2.21302 2.02399 0
M  V30 5917 H 565.143 -1.12772 1.08223 0
M  V30 5918 H 565.878 -3.22508 -0.340486 0
M  V30 5919 H 565.663 -3.67129 1.37692 0
M  V30 5920 H 567.153 -4.14505 0.507443 0
M  V30 5921 N 567.59 -1.07411 -1.15328 0
M  V30 5922 C 568.52 -0.716472 -2.22236 0
M  V30 5923 C 569.501 0.296373 -1.67498 0
M  V30 5924 O 570.686 0.168989 -1.93463 0
M  V30 5925 C 567.816 -0.114142 -3.47112 0
M  V30 5926 C 566.77 -1.05421 -4.14814 0
M  V30 5927 C 566.096 -0.314604 -5.33774 0
M  V30 5928 C 567.396 -2.38808 -4.64508 0
M  V30 5929 H 569.09 -1.61029 -2.52408 0
M  V30 5930 H 566.636 -0.775702 -1.21321 0
M  V30 5931 H 568.589 0.148001 -4.2114 0
M  V30 5932 H 567.313 0.814755 -3.16274 0
M  V30 5933 H 565.972 -1.30128 -3.42728 0
M  V30 5934 H 565.62 0.617772 -4.99192 0
M  V30 5935 H 565.32 -0.941209 -5.80013 0
M  V30 5936 H 566.844 -0.0602747 -6.1057 0
M  V30 5937 H 568.258 -2.18424 -5.3006 0
M  V30 5938 H 566.655 -2.97069 -5.21412 0
M  V30 5939 H 567.725 -3.01067 -3.80114 0
M  V30 5940 N 569.068 1.32177 -0.85831 0
M  V30 5941 C 570.316 1.96735 -0.462568 0
M  V30 5942 C 570.637 1.6824 0.985911 0
M  V30 5943 O 569.907 0.991564 1.68952 0
M  V30 5944 H 568.487 0.727849 -0.168064 0
M  V30 5945 H 571.149 1.61195 -1.09554 0
M  V30 5946 H 570.245 3.06068 -0.610647 0
M  V30 5947 N 570.547 0.616602 1.45037 0
M  V30 5948 C 571.794 0.115331 2.02171 0
M  V30 5949 C 572.122 -1.25748 1.48383 0
M  V30 5950 O 571.377 -1.84511 0.652229 0
M  V30 5951 C 571.676 0.0356829 3.57382 0
M  V30 5952 C 571.342 1.34535 4.30362 0
M  V30 5953 C 570.004 1.70408 4.50016 0
M  V30 5954 C 572.356 2.21049 4.72003 0
M  V30 5955 C 569.684 2.92529 5.0857 0
M  V30 5956 C 572.036 3.42427 5.31908 0
M  V30 5957 C 570.7 3.78541 5.49784 0
M  V30 5958 H 569.97 0.0422024 0.739797 0
M  V30 5959 H 572.617 0.80002 1.73988 0
M  V30 5960 H 570.922 -0.732314 3.84895 0
M  V30 5961 H 572.619 -0.368463 3.99304 0
M  V30 5962 H 569.209 1.05615 4.15383 0
M  V30 5963 H 573.393 1.94632 4.56544 0
M  V30 5964 H 568.649 3.20605 5.20598 0
M  V30 5965 H 572.823 4.09709 5.63127 0
M  V30 5966 H 570.45 4.73255 5.94923 0
M  V30 5967 N 572.025 -1.5352 0.356285 0
M  V30 5968 C 572.955 -2.28372 -0.486661 0
M  V30 5969 C 573.936 -1.30432 -1.09185 0
M  V30 5970 O 575.121 -1.59291 -1.11085 0
M  V30 5971 C 572.251 -3.06604 -1.63129 0
M  V30 5972 C 571.205 -4.12154 -1.15381 0
M  V30 5973 C 570.531 -4.78415 -2.38796 0
M  V30 5974 C 571.831 -5.21724 -0.245179 0
M  V30 5975 H 573.525 -2.99083 0.137797 0
M  V30 5976 H 571.071 -1.43841 0.0677134 0
M  V30 5977 H 573.024 -3.57712 -2.22755 0
M  V30 5978 H 571.748 -2.33568 -2.28284 0
M  V30 5979 H 570.407 -3.61978 -0.580294 0
M  V30 5980 H 570.055 -4.01959 -3.02387 0
M  V30 5981 H 569.755 -5.49734 -2.07524 0
M  V30 5982 H 571.279 -5.32313 -2.99125 0
M  V30 5983 H 572.693 -5.68391 -0.748646 0
M  V30 5984 H 571.09 -6.00095 -0.0237608 0
M  V30 5985 H 572.16 -4.79596 0.715229 0
M  V30 5986 N 573.503 -0.0852151 -1.57369 0
M  V30 5987 C 574.75 0.580806 -1.93992 0
M  V30 5988 C 575.078 1.68801 -0.966252 0
M  V30 5989 O 574.333 1.95694 0.0158649 0
M  V30 5990 C 574.632 1.18482 -3.3719 0
M  V30 5991 C 574.298 0.2024 -4.50446 0
M  V30 5992 C 572.96 -0.0678318 -4.81152 0
M  V30 5993 C 575.312 -0.46895 -5.19086 0
M  V30 5994 C 572.64 -1.01627 -5.77831 0
M  V30 5995 C 574.992 -1.4058 -6.16782 0
M  V30 5996 C 573.656 -1.68436 -6.45899 0
M  V30 5997 H 572.926 0.212532 -0.709867 0
M  V30 5998 H 575.573 -0.158947 -1.90839 0
M  V30 5999 H 573.878 2.0006 -3.36873 0
M  V30 6000 H 575.575 1.70767 -3.62822 0
M  V30 6001 H 572.165 0.423208 -4.26505 0
M  V30 6002 H 576.349 -0.273307 -4.95547 0
M  V30 6003 H 571.605 -1.2392 -5.9871 0
M  V30 6004 H 575.779 -1.93188 -6.69068 0
M  V30 6005 H 573.406 -2.42088 -7.20623 0
M  V30 6006 N 574.981 1.5647 0.188427 0
M  V30 6007 C 575.911 1.98101 1.23606 0
M  V30 6008 C 576.892 0.853961 1.47111 0
M  V30 6009 O 578.077 1.11879 1.58735 0
M  V30 6010 C 575.207 2.32624 2.57882 0
M  V30 6011 C 574.161 3.48129 2.48978 0
M  V30 6012 C 573.487 3.68347 3.87588 0
M  V30 6013 C 574.787 4.82112 2.00911 0
M  V30 6014 H 576.481 2.85864 0.890068 0
M  V30 6015 H 574.027 1.37532 0.426714 0
M  V30 6016 H 575.98 2.60343 3.3136 0
M  V30 6017 H 574.704 1.41751 2.94235 0
M  V30 6018 H 573.363 3.20511 1.77956 0
M  V30 6019 H 573.011 2.74793 4.21305 0
M  V30 6020 H 572.711 4.46055 3.82503 0
M  V30 6021 H 574.235 3.98449 4.62678 0
M  V30 6022 H 575.649 5.08819 2.64151 0
M  V30 6023 H 574.046 5.63337 2.06814 0
M  V30 6024 H 575.116 4.75249 0.96262 0
M  V30 6025 N 576.459 -0.456382 1.50847 0
M  V30 6026 C 577.706 -1.20736 1.62571 0
M  V30 6027 C 578.034 -1.9163 0.332904 0
M  V30 6028 O 577.289 -1.8343 -0.682058 0
M  V30 6029 C 577.588 -2.26336 2.76599 0
M  V30 6030 C 577.254 -1.7259 4.16562 0
M  V30 6031 C 575.916 -1.57654 4.54641 0
M  V30 6032 C 578.268 -1.32877 5.03977 0
M  V30 6033 C 575.596 -1.0145 5.77862 0
M  V30 6034 C 577.948 -0.7811 6.27759 0
M  V30 6035 C 576.612 -0.618488 6.64628 0
M  V30 6036 H 575.882 -0.441803 0.594888 0
M  V30 6037 H 578.529 -0.501169 1.84826 0
M  V30 6038 H 576.834 -3.0292 2.48489 0
M  V30 6039 H 578.531 -2.84227 2.82871 0
M  V30 6040 H 575.121 -1.85187 3.86528 0
M  V30 6041 H 579.305 -1.43245 4.75179 0
M  V30 6042 H 574.561 -0.876109 6.0509 0
M  V30 6043 H 578.735 -0.464783 6.94847 0
M  V30 6044 H 576.362 -0.180838 7.59985 0
M  V30 6045 N 577.937 -1.40673 -0.710563 0
M  V30 6046 C 579.165 -1.42547 -1.4996 0
M  V30 6047 C 579.58 -0.0265485 -1.88781 0
M  V30 6048 O 578.937 0.950694 -1.55782 0
M  V30 6049 C 578.988 -2.32071 -2.77173 0
M  V30 6050 O 578.709 -3.66518 -2.39992 0
M  V30 6051 C 580.21 -2.42591 -3.71032 0
M  V30 6052 H 577.43 -0.486025 -0.462623 0
M  V30 6053 H 579.974 -1.84783 -0.876102 0
M  V30 6054 H 578.129 -1.93184 -3.35795 0
M  V30 6055 H 578.543 -4.14115 -3.21884 0
M  V30 6056 H 580.017 -3.09429 -4.57119 0
M  V30 6057 H 580.494 -1.4525 -4.14486 0
M  V30 6058 H 581.1 -2.82051 -3.18319 0
M  V30 6059 N 579.415 0.9433 -1.26252 0
M  V30 6060 C 580.661 1.69175 -1.11837 0
M  V30 6061 C 580.994 1.91238 0.337891 0
M  V30 6062 O 580.269 1.49152 1.24836 0
M  V30 6063 C 580.552 3.06783 -1.88563 0
M  V30 6064 C 580.405 2.9206 -3.42083 0
M  V30 6065 C 581.724 4.06865 -1.67776 0
M  V30 6066 H 578.843 0.61399 -0.407658 0
M  V30 6067 H 581.485 1.09572 -1.55222 0
M  V30 6068 H 579.635 3.57663 -1.51689 0
M  V30 6069 H 581.307 2.48419 -3.88698 0
M  V30 6070 H 579.55 2.27731 -3.69217 0
M  V30 6071 H 580.221 3.89651 -3.90994 0
M  V30 6072 H 582.697 3.64939 -1.99897 0
M  V30 6073 H 581.573 5.01168 -2.23879 0
M  V30 6074 H 581.834 4.37705 -0.621816 0
M  V30 6075 N 580.893 1.08022 1.14757 0
M  V30 6076 C 582.141 0.805913 1.85336 0
M  V30 6077 C 582.462 -0.670162 1.83122 0
M  V30 6078 O 581.732 -1.48567 1.2769 0
M  V30 6079 H 580.312 0.295138 0.686223 0
M  V30 6080 H 582.974 1.36538 1.3908 0
M  V30 6081 H 582.07 1.14655 2.90277 0
M  V30 6082 N 582.371 -1.3172 0.865308 0
M  V30 6083 C 583.619 -1.96487 0.472995 0
M  V30 6084 C 583.94 -1.68761 -0.976975 0
M  V30 6085 O 583.21 -1.00051 -1.68424 0
M  V30 6086 H 581.79 -0.726947 0.171922 0
M  V30 6087 H 584.452 -1.60612 1.10407 0
M  V30 6088 H 583.548 -3.0574 0.62687 0
M  V30 6089 N 583.85 -0.624285 -1.44708 0
M  V30 6090 C 585.096 -0.126237 -2.02407 0
M  V30 6091 C 585.428 1.24618 -1.48943 0
M  V30 6092 O 584.704 1.82569 -0.670742 0
M  V30 6093 C 584.986 -0.105449 -3.59946 0
M  V30 6094 C 584.84 -1.50972 -4.23707 0
M  V30 6095 C 586.159 0.573629 -4.36346 0
M  V30 6096 H 583.278 -0.0473472 -0.735478 0
M  V30 6097 H 585.92 -0.799452 -1.72362 0
M  V30 6098 H 584.07 0.46783 -3.85673 0
M  V30 6099 H 585.742 -2.13136 -4.0911 0
M  V30 6100 H 583.985 -2.0656 -3.81465 0
M  V30 6101 H 584.656 -1.44727 -5.32689 0
M  V30 6102 H 587.132 0.0861787 -4.16011 0
M  V30 6103 H 586.008 0.557338 -5.46063 0
M  V30 6104 H 586.269 1.64276 -4.10446 0
M  V30 6105 N 585.328 1.53329 -0.364422 0
M  V30 6106 C 586.556 2.05657 0.226424 0
M  V30 6107 C 586.971 1.23801 1.42544 0
M  V30 6108 O 586.328 0.27839 1.80364 0
M  V30 6109 C 586.379 3.56125 0.621056 0
M  V30 6110 O 586.1 4.34879 -0.530304 0
M  V30 6111 C 587.601 4.24706 1.27041 0
M  V30 6112 H 584.821 0.669806 0.0400056 0
M  V30 6113 H 587.365 1.97714 -0.522456 0
M  V30 6114 H 585.52 3.64223 1.31985 0
M  V30 6115 H 585.934 5.24073 -0.211546 0
M  V30 6116 H 587.408 5.3131 1.49711 0
M  V30 6117 H 587.885 3.78354 2.23036 0
M  V30 6118 H 588.491 4.20858 0.613079 0
M  V30 6119 N 586.806 0.0935595 1.57322 0
M  V30 6120 C 588.054 -0.569383 1.93913 0
M  V30 6121 C 588.375 -1.68817 0.976009 0
M  V30 6122 O 587.645 -1.9588 0.0278099 0
M  V30 6123 H 586.225 -0.21332 0.715894 0
M  V30 6124 H 588.887 0.156531 1.9427 0
M  V30 6125 H 587.983 -0.980577 2.96296 0
M  V30 6126 N 588.284 -1.56567 -0.180126 0
M  V30 6127 C 589.533 -1.80685 -0.896426 0
M  V30 6128 C 589.846 -0.669335 -1.83791 0
M  V30 6129 O 591.052 -0.795209 -2.59593 0
M  V30 6130 C 589.508 -3.20132 -1.6445 0
M  V30 6131 C 589.116 -4.41727 -0.747088 0
M  V30 6132 C 590.86 -3.53549 -2.34955 0
M  V30 6133 C 588.767 -5.72195 -1.49489 0
M  V30 6134 H 587.697 -0.673758 -0.338477 0
M  V30 6135 H 590.348 -1.8289 -0.149467 0
M  V30 6136 H 588.73 -3.12218 -2.43589 0
M  V30 6137 H 589.904 -4.608 0.00671129 0
M  V30 6138 H 588.219 -4.16122 -0.152134 0
M  V30 6139 H 590.816 -4.48267 -2.91481 0
M  V30 6140 H 591.159 -2.78006 -3.09868 0
M  V30 6141 H 591.692 -3.62976 -1.62768 0
M  V30 6142 H 588.431 -6.50743 -0.788251 0
M  V30 6143 H 587.951 -5.57115 -2.22224 0
M  V30 6144 H 589.63 -6.1384 -2.04472 0
M  V30 6145 N 589.762 0.448376 -1.51087 0
M  V30 6146 C 591.008 1.20049 -1.6345 0
M  V30 6147 C 591.341 1.91121 -0.344444 0
M  V30 6148 O 590.616 1.83125 0.655396 0
M  V30 6149 C 590.899 2.22624 -2.83038 0
M  V30 6150 C 590.752 1.55708 -4.21989 0
M  V30 6151 C 592.071 3.23718 -2.98152 0
M  V30 6152 H 589.19 0.435085 -0.59487 0
M  V30 6153 H 591.832 0.491183 -1.83541 0
M  V30 6154 H 589.982 2.83117 -2.66039 0
M  V30 6155 H 591.654 0.986367 -4.50631 0
M  V30 6156 H 589.897 0.859647 -4.25197 0
M  V30 6157 H 590.568 2.30357 -5.01637 0
M  V30 6158 H 593.044 2.73269 -3.13788 0
M  V30 6159 H 591.92 3.92795 -3.83411 0
M  V30 6160 H 592.181 3.89179 -2.09743 0
M  V30 6161 N 591.24 1.41047 0.703093 0
M  V30 6162 C 592.17 1.45067 1.82969 0
M  V30 6163 C 593.151 0.31016 1.67248 0
M  V30 6164 O 594.336 0.520548 1.87093 0
M  V30 6165 C 591.466 1.32478 3.2104 0
M  V30 6166 C 590.42 2.44262 3.51454 0
M  V30 6167 C 589.746 2.16742 4.88801 0
M  V30 6168 C 591.046 3.86606 3.51189 0
M  V30 6169 H 592.74 2.39353 1.79863 0
M  V30 6170 H 590.286 1.15206 0.863919 0
M  V30 6171 H 592.239 1.33904 3.99559 0
M  V30 6172 H 590.963 0.346735 3.24754 0
M  V30 6173 H 589.622 2.42107 2.75282 0
M  V30 6174 H 589.27 1.17299 4.89132 0
M  V30 6175 H 588.97 2.91643 5.10116 0
M  V30 6176 H 590.494 2.19872 5.69639 0
M  V30 6177 H 591.908 3.90517 4.19725 0
M  V30 6178 H 590.305 4.61128 3.84033 0
M  V30 6179 H 591.375 4.15296 2.50315 0
M  V30 6180 N 592.718 -0.936591 1.26751 0
M  V30 6181 C 593.943 -1.72288 1.15462 0
M  V30 6182 C 594.368 -1.85915 -0.285887 0
M  V30 6183 O 593.726 -1.35272 -1.20711 0
M  V30 6184 C 593.774 -3.10503 1.83359 0
M  V30 6185 O 592.878 -3.96745 1.1255 0
M  V30 6186 H 592.219 -0.52843 0.402067 0
M  V30 6187 H 594.749 -1.17271 1.67656 0
M  V30 6188 H 594.759 -3.60867 1.90365 0
M  V30 6189 H 593.434 -2.99901 2.88153 0
M  V30 6190 H 592.011 -3.55191 1.13551 0
M  V30 6191 N 594.196 -1.08629 -1.14182 0
M  V30 6192 C 595.128 -0.676189 -2.18998 0
M  V30 6193 C 596.141 0.277871 -1.60411 0
M  V30 6194 O 597.33 0.0651771 -1.78381 0
M  V30 6195 C 594.43 0.0254916 -3.3889 0
M  V30 6196 C 593.603 -0.948039 -4.27002 0
M  V30 6197 C 592.662 -0.281268 -5.25448 0
M  V30 6198 O 591.688 -0.926378 -5.61611 0
M  V30 6199 N 592.89 0.967923 -5.72374 0
M  V30 6200 H 595.655 -1.57792 -2.54798 0
M  V30 6201 H 593.216 -0.972665 -1.29425 0
M  V30 6202 H 595.208 0.482554 -4.01813 0
M  V30 6203 H 593.778 0.829348 -3.01398 0
M  V30 6204 H 592.998 -1.58388 -3.6098 0
M  V30 6205 H 594.286 -1.60765 -4.82734 0
M  V30 6206 H 593.684 1.51175 -5.45126 0
M  V30 6207 H 592.241 1.36844 -6.37273 0
M  V30 6208 N 595.674 1.31259 -0.872281 0
M  V30 6209 C 596.637 2.26744 -0.334656 0
M  V30 6210 C 597.637 1.52307 0.515681 0
M  V30 6211 O 598.827 1.71148 0.324656 0
M  V30 6212 C 595.959 3.36841 0.524482 0
M  V30 6213 H 597.152 2.75812 -1.17762 0
M  V30 6214 H 594.705 1.42232 -0.648064 0
M  V30 6215 H 595.44 2.93069 1.38855 0
M  V30 6216 H 595.225 3.92009 -0.0844299 0
M  V30 6217 H 596.715 4.07944 0.892838 0
M  V30 6218 N 597.152 0.631951 1.44375 0
M  V30 6219 C 598.377 0.142146 2.06912 0
M  V30 6220 C 598.802 -1.17456 1.4692 0
M  V30 6221 O 598.16 -1.72074 0.570975 0
M  V30 6222 C 598.208 0.0417952 3.60576 0
M  V30 6223 O 597.312 -1.00194 4.00044 0
M  V30 6224 H 596.653 0.0851491 0.658518 0
M  V30 6225 H 599.183 0.868863 1.85235 0
M  V30 6226 H 599.193 -0.148517 4.0773 0
M  V30 6227 H 597.868 1.0031 4.03622 0
M  V30 6228 H 596.445 -0.786131 3.64519 0
M  V30 6229 N 598.631 -1.53133 0.372548 0
M  V30 6230 C 599.877 -2.01654 -0.215277 0
M  V30 6231 C 600.21 -1.25914 -1.47849 0
M  V30 6232 O 599.485 -0.3548 -1.91237 0
M  V30 6233 C 599.768 -3.56609 -0.500187 0
M  V30 6234 C 599.621 -4.43036 0.777145 0
M  V30 6235 C 600.94 -4.20528 -1.29786 0
M  V30 6236 H 598.059 -0.732991 -0.0767686 0
M  V30 6237 H 600.701 -1.83335 0.498814 0
M  V30 6238 H 598.851 -3.7235 -1.10852 0
M  V30 6239 H 600.523 -4.39079 1.41447 0
M  V30 6240 H 598.766 -4.10723 1.39604 0
M  V30 6241 H 599.437 -5.49424 0.532662 0
M  V30 6242 H 601.913 -4.08663 -0.783198 0
M  V30 6243 H 600.789 -5.28962 -1.46596 0
M  V30 6244 H 601.05 -3.77051 -2.30836 0
M  V30 6245 N 600.109 -0.101901 -1.5727 0
M  V30 6246 C 601.386 0.602832 -1.86079 0
M  V30 6247 C 601.766 1.85912 -1 0
M  V30 6248 O 601.114 2.28379 -0.0742488 0
M  V30 6249 C 601.324 0.911694 -3.36881 0
M  V30 6250 C 602.672 1.2722 -4.05093 0
M  V30 6251 O 603.696 1.0025 -3.41802 0
M  V30 6252 O 602.555 1.7776 -5.16782 0
M  V30 6253 H 599.649 0.302366 -0.769743 0
M  V30 6254 H 602.195 -0.135113 -1.69161 0
M  V30 6255 H 600.967 0.0207256 -3.91295 0
M  V30 6256 H 600.59 1.70538 -3.59169 0
M  V30 6257 N 601.587 1.56661 0.17182 0
M  V30 6258 C 603.003 1.50768 0.52357 0
M  V30 6259 C 603.203 0.806072 1.84675 0
M  V30 6260 O 602.259 0.366233 2.4983 0
M  V30 6261 C 603.572 2.955 0.556793 0
M  V30 6262 C 605.12 3.06303 0.644029 0
M  V30 6263 C 605.595 4.52492 0.708148 0
M  V30 6264 N 607.086 4.56737 0.771051 0
M  V30 6265 C 607.821 5.67196 0.841229 0
M  V30 6266 N 607.317 6.87287 0.872272 0
M  V30 6267 N 609.11 5.55165 0.88021 0
M  V30 6268 H 601.261 2.00679 -0.695817 0
M  V30 6269 H 603.524 0.914219 -0.250814 0
M  V30 6270 H 603.23 3.49986 -0.346774 0
M  V30 6271 H 603.104 3.50119 1.40346 0
M  V30 6272 H 605.491 2.51851 1.53802 0
M  V30 6273 H 605.572 2.5477 -0.229297 0
M  V30 6274 H 605.216 5.07575 -0.181585 0
M  V30 6275 H 605.146 5.01781 1.59761 0
M  V30 6276 H 607.637 3.70274 0.755364 0
M  V30 6277 H 607.95 7.6722 0.92698 0
M  V30 6278 H 606.295 6.89898 0.840557 0
M  V30 6279 H 609.486 4.60263 0.852956 0
M  V30 6280 H 609.659 6.41271 0.931439 0
M  V30 6281 N 603.065 -0.440357 1.51323 0
M  V30 6282 C 604.295 -1.21079 1.67402 0
M  V30 6283 C 604.703 -1.85555 0.369599 0
M  V30 6284 O 604.046 -1.71375 -0.661525 0
M  V30 6285 C 604.108 -2.33839 2.73056 0
M  V30 6286 C 603.772 -1.89755 4.15743 0
M  V30 6287 C 604.769 -1.40268 5.0062 0
M  V30 6288 C 602.454 -1.97539 4.61826 0
M  V30 6289 C 604.448 -0.991474 6.29642 0
M  V30 6290 C 602.135 -1.56029 5.90845 0
M  V30 6291 C 603.133 -1.06915 6.7458 0
M  V30 6292 O 602.821 -0.659933 8.01187 0
M  V30 6293 H 602.553 -0.371133 0.56501 0
M  V30 6294 H 605.107 -0.528409 1.98487 0
M  V30 6295 H 603.337 -3.05345 2.37279 0
M  V30 6296 H 605.026 -2.95713 2.78044 0
M  V30 6297 H 605.792 -1.33652 4.66221 0
M  V30 6298 H 601.671 -2.34713 3.96776 0
M  V30 6299 H 605.215 -0.607425 6.9495 0
M  V30 6300 H 601.112 -1.62315 6.24759 0
M  V30 6301 H 601.88 -0.786052 8.14717 0
M  V30 6302 N 604.543 -1.41418 -0.695603 0
M  V30 6303 C 605.773 -1.43921 -1.48224 0
M  V30 6304 C 606.181 -0.0428855 -1.89151 0
M  V30 6305 O 605.524 0.948138 -1.5734 0
M  V30 6306 C 605.586 -2.28466 -2.77567 0
M  V30 6307 C 605.25 -3.76629 -2.58844 0
M  V30 6308 C 606.247 -4.6879 -2.24793 0
M  V30 6309 C 603.932 -4.2067 -2.74485 0
M  V30 6310 C 605.926 -6.02981 -2.06622 0
M  V30 6311 C 603.613 -5.54926 -2.55931 0
M  V30 6312 C 604.611 -6.45897 -2.2205 0
M  V30 6313 O 604.299 -7.77675 -2.03657 0
M  V30 6314 H 604.031 -0.492252 -0.463318 0
M  V30 6315 H 606.585 -1.86347 -0.863952 0
M  V30 6316 H 604.815 -1.80853 -3.41802 0
M  V30 6317 H 606.504 -2.2267 -3.39371 0
M  V30 6318 H 607.27 -4.36055 -2.12323 0
M  V30 6319 H 603.149 -3.50167 -2.9984 0
M  V30 6320 H 606.693 -6.73951 -1.80099 0
M  V30 6321 H 602.59 -5.8724 -2.67991 0
M  V30 6322 H 603.358 -7.88819 -2.1842 0
M  V30 6323 N 606.021 0.929856 -1.27246 0
M  V30 6324 C 606.971 2.01629 -1.06442 0
M  V30 6325 C 607.955 1.60899 0.00687842 0
M  V30 6326 O 609.147 1.75733 -0.211407 0
M  V30 6327 C 606.276 3.35849 -0.711361 0
M  V30 6328 C 605.362 3.8303 -1.82069 0
M  V30 6329 N 605.753 4.02743 -3.05993 0
M  V30 6330 C 604.051 4.12046 -1.70687 0
M  V30 6331 C 604.752 4.42001 -3.78167 0
M  V30 6332 N 603.728 4.4935 -3.05918 0
M  V30 6333 H 607.53 2.14898 -2.00489 0
M  V30 6334 H 605.044 1.11654 -1.17929 0
M  V30 6335 H 607.041 4.13343 -0.543442 0
M  V30 6336 H 605.701 3.23944 0.221517 0
M  V30 6337 H 606.712 3.89112 -3.41778 0
M  V30 6338 H 603.389 4.08866 -0.844681 0
M  V30 6339 H 604.779 4.6535 -4.84664 0
M  V30 6340 N 607.499 1.09233 1.13605 0
M  V30 6341 C 608.776 0.739633 1.81077 0
M  V30 6342 C 609.156 -0.775595 1.96336 0
M  V30 6343 O 608.504 -1.69726 1.52988 0
M  V30 6344 C 608.714 1.47636 3.16235 0
M  V30 6345 C 610.062 1.64087 3.91613 0
M  V30 6346 O 611.086 1.43871 3.25852 0
M  V30 6347 O 609.945 1.97511 5.0956 0
M  V30 6348 H 607.039 0.265464 0.783236 0
M  V30 6349 H 609.585 1.19441 1.20549 0
M  V30 6350 H 608.357 2.50818 3.00344 0
M  V30 6351 H 607.98 1.01362 3.84462 0
M  V30 6352 N 608.977 -1.30795 0.87923 0
M  V30 6353 C 610.205 -2.00527 0.509548 0
M  V30 6354 C 610.62 -1.65944 -0.90045 0
M  V30 6355 O 609.977 -0.893525 -1.5913 0
M  V30 6356 C 610.028 -3.55276 0.667943 0
M  V30 6357 O 609.749 -3.88625 2.02242 0
M  V30 6358 C 611.25 -4.4228 0.300494 0
M  V30 6359 H 608.47 -0.641261 0.197549 0
M  V30 6360 H 611.014 -1.66813 1.18295 0
M  V30 6361 H 609.169 -3.87377 0.0419843 0
M  V30 6362 H 609.583 -4.83334 2.03688 0
M  V30 6363 H 611.057 -5.50061 0.462242 0
M  V30 6364 H 611.534 -4.32556 -0.76106 0
M  V30 6365 H 612.14 -4.15613 0.902536 0
M  V30 6366 N 610.455 -0.639598 -1.44038 0
M  V30 6367 C 611.685 -0.154586 -2.06021 0
M  V30 6368 C 612.093 1.17951 -1.47933 0
M  V30 6369 O 611.436 1.73627 -0.59994 0
M  V30 6370 C 611.498 0.0255459 -3.59491 0
M  V30 6371 C 611.162 -1.2317 -4.40089 0
M  V30 6372 C 612.159 -2.15735 -4.73027 0
M  V30 6373 C 609.844 -1.46949 -4.80324 0
M  V30 6374 C 611.838 -3.30382 -5.45093 0
M  V30 6375 C 609.525 -2.61891 -5.52138 0
M  V30 6376 C 610.523 -3.53433 -5.84443 0
M  V30 6377 O 610.211 -4.6637 -6.54793 0
M  V30 6378 H 609.943 -0.0808543 -0.671147 0
M  V30 6379 H 612.497 -0.876541 -1.85758 0
M  V30 6380 H 610.727 0.802733 -3.78276 0
M  V30 6381 H 612.416 0.466184 -4.03214 0
M  V30 6382 H 613.182 -1.98602 -4.42473 0
M  V30 6383 H 609.061 -0.765815 -4.54595 0
M  V30 6384 H 612.605 -4.01856 -5.70226 0
M  V30 6385 H 608.502 -2.78964 -5.82108 0
M  V30 6386 H 609.27 -4.6546 -6.73267 0
M  V30 6387 N 611.933 1.52934 -0.380664 0
M  V30 6388 C 613.163 2.05587 0.204302 0
M  V30 6389 C 613.571 1.25288 1.41773 0
M  V30 6390 O 612.914 0.290394 1.8139 0
M  V30 6391 C 612.976 3.53624 0.647324 0
M  V30 6392 C 612.64 4.54765 -0.451465 0
M  V30 6393 C 613.637 5.03226 -1.30614 0
M  V30 6394 C 611.322 4.98508 -0.616025 0
M  V30 6395 C 613.316 5.94046 -2.31058 0
M  V30 6396 C 611.003 5.89131 -1.62381 0
M  V30 6397 C 612.001 6.36792 -2.46952 0
M  V30 6398 O 611.689 7.25626 -3.46009 0
M  V30 6399 H 611.421 0.675013 0.0365198 0
M  V30 6400 H 613.975 1.98125 -0.541827 0
M  V30 6401 H 612.205 3.58676 1.44529 0
M  V30 6402 H 613.894 3.89061 1.15698 0
M  V30 6403 H 614.66 4.70167 -1.19027 0
M  V30 6404 H 610.539 4.60989 0.0324987 0
M  V30 6405 H 614.083 6.3117 -2.97104 0
M  V30 6406 H 609.98 6.21603 -1.7401 0
M  V30 6407 H 610.748 7.43664 -3.41916 0
M  V30 6408 N 613.412 0.11024 1.57214 0
M  V30 6409 C 614.658 -0.550684 1.9518 0
M  V30 6410 C 614.991 -1.66885 0.993122 0
M  V30 6411 O 614.266 -1.94479 0.0287907 0
M  V30 6412 C 614.549 -1.09163 3.43155 0
M  V30 6413 C 614.402 0.0225198 4.49794 0
M  V30 6414 C 615.721 -1.98527 3.92778 0
M  V30 6415 H 612.84 -0.198706 0.709708 0
M  V30 6416 H 615.482 0.184024 1.89107 0
M  V30 6417 H 613.632 -1.71775 3.48462 0
M  V30 6418 H 615.304 0.657443 4.56591 0
M  V30 6419 H 613.547 0.686868 4.28328 0
M  V30 6420 H 614.218 -0.39706 5.5057 0
M  V30 6421 H 616.694 -1.458 3.8972 0
M  V30 6422 H 615.57 -2.33298 4.96853 0
M  V30 6423 H 615.831 -2.90846 3.32958 0
M  V30 6424 N 614.89 -1.56749 -0.16351 0
M  V30 6425 C 616.136 -1.82704 -0.880168 0
M  V30 6426 C 616.469 -0.689311 -1.81555 0
M  V30 6427 O 615.744 0.308224 -1.92042 0
M  V30 6428 C 616.027 -3.19084 -1.66905 0
M  V30 6429 C 615.88 -4.43397 -0.756269 0
M  V30 6430 C 617.199 -3.52493 -2.63509 0
M  V30 6431 H 614.318 -0.664608 -0.318535 0
M  V30 6432 H 616.96 -1.89438 -0.146036 0
M  V30 6433 H 615.11 -3.13475 -2.2949 0
M  V30 6434 H 616.782 -4.61079 -0.14269 0
M  V30 6435 H 615.025 -4.33752 -0.0647944 0
M  V30 6436 H 615.696 -5.3539 -1.34393 0
M  V30 6437 H 618.172 -3.58606 -2.11047 0
M  V30 6438 H 617.048 -4.48979 -3.15767 0
M  V30 6439 H 617.309 -2.77597 -3.44082 0
M  V30 6440 N 616.368 0.432326 -1.51554 0
M  V30 6441 C 617.331 1.50765 -1.72634 0
M  V30 6442 C 618.331 1.49334 -0.596314 0
M  V30 6443 O 619.521 1.51268 -0.863925 0
M  V30 6444 C 616.653 2.90284 -1.7874 0
M  V30 6445 H 617.846 1.33377 -2.68609 0
M  V30 6446 H 615.399 0.661329 -1.4162 0
M  V30 6447 H 616.134 3.13071 -0.845977 0
M  V30 6448 H 615.919 2.92727 -2.6087 0
M  V30 6449 H 617.409 3.68282 -1.96871 0
M  V30 6450 N 617.846 1.41785 0.688094 0
M  V30 6451 C 618.796 1.40684 1.79421 0
M  V30 6452 C 619.78 0.280096 1.58443 0
M  V30 6453 O 620.972 0.521332 1.69148 0
M  V30 6454 C 618.101 1.29874 3.17785 0
M  V30 6455 C 617.187 2.47442 3.44432 0
M  V30 6456 N 617.578 3.72895 3.41736 0
M  V30 6457 C 615.876 2.41416 3.75013 0
M  V30 6458 C 616.577 4.50912 3.67496 0
M  V30 6459 N 615.553 3.81131 3.87608 0
M  V30 6460 H 619.355 2.35591 1.7571 0
M  V30 6461 H 616.869 1.35946 0.888393 0
M  V30 6462 H 618.866 1.27168 3.97031 0
M  V30 6463 H 617.526 0.359587 3.22703 0
M  V30 6464 H 618.537 4.05676 3.21943 0
M  V30 6465 H 615.214 1.56011 3.87256 0
M  V30 6466 H 616.604 5.59865 3.71484 0
M  V30 6467 N 619.324 -0.923095 1.27737 0
M  V30 6468 C 620.571 -1.67127 1.14345 0
M  V30 6469 C 620.899 -1.92017 -0.30982 0
M  V30 6470 O 620.154 -1.51185 -1.24264 0
M  V30 6471 C 620.453 -3.04125 1.8773 0
M  V30 6472 C 620.119 -2.98929 3.37568 0
M  V30 6473 C 618.781 -2.9722 3.78436 0
M  V30 6474 C 621.133 -2.89875 4.33154 0
M  V30 6475 C 618.461 -2.84244 5.13247 0
M  V30 6476 C 620.813 -2.7844 5.68026 0
M  V30 6477 C 619.477 -2.75083 6.08182 0
M  V30 6478 H 618.747 -0.611562 0.418417 0
M  V30 6479 H 621.394 -1.07618 1.584 0
M  V30 6480 H 619.699 -3.67366 1.36196 0
M  V30 6481 H 621.396 -3.609 1.74792 0
M  V30 6482 H 617.986 -3.0105 3.05069 0
M  V30 6483 H 622.17 -2.9029 4.02548 0
M  V30 6484 H 617.426 -2.80034 5.43499 0
M  V30 6485 H 621.6 -2.70401 6.4176 0
M  V30 6486 H 619.227 -2.64786 7.12596 0
M  V30 6487 N 620.802 -1.09834 -1.13024 0
M  V30 6488 C 621.752 -0.710899 -2.16634 0
M  V30 6489 C 622.736 0.276836 -1.58501 0
M  V30 6490 O 623.928 0.0865457 -1.76788 0
M  V30 6491 C 621.057 -0.137574 -3.43024 0
M  V30 6492 C 620.143 -1.15198 -4.08155 0
M  V30 6493 N 620.534 -2.34054 -4.48388 0
M  V30 6494 C 618.832 -0.991074 -4.34849 0
M  V30 6495 C 619.533 -2.98616 -4.99203 0
M  V30 6496 N 618.509 -2.26159 -4.94321 0
M  V30 6497 H 622.311 -1.61576 -2.455 0
M  V30 6498 H 619.825 -0.975158 -1.29863 0
M  V30 6499 H 621.822 0.158031 -4.166 0
M  V30 6500 H 620.482 0.762088 -3.1563 0
M  V30 6501 H 621.493 -2.7162 -4.40957 0
M  V30 6502 H 618.17 -0.146448 -4.17243 0
M  V30 6503 H 619.56 -3.99683 -5.40096 0
M  V30 6504 N 622.28 1.30327 -0.886154 0
M  V30 6505 C 623.51 1.99964 -0.519421 0
M  V30 6506 C 623.918 1.66593 0.89686 0
M  V30 6507 O 623.261 0.899886 1.60149 0
M  V30 6508 C 623.323 3.54187 -0.615795 0
M  V30 6509 C 622.987 4.11078 -1.9966 0
M  V30 6510 C 623.984 4.26985 -2.96614 0
M  V30 6511 C 621.669 4.46429 -2.30231 0
M  V30 6512 C 623.663 4.77456 -4.22273 0
M  V30 6513 C 621.35 4.966 -3.56135 0
M  V30 6514 C 622.348 5.12066 -4.5197 0
M  V30 6515 O 622.036 5.61154 -5.7564 0
M  V30 6516 H 621.768 0.645979 -0.199217 0
M  V30 6517 H 624.322 1.67154 -1.19368 0
M  V30 6518 H 622.552 3.86528 0.115448 0
M  V30 6519 H 624.241 4.05065 -0.26017 0
M  V30 6520 H 625.007 3.99975 -2.74308 0
M  V30 6521 H 620.886 4.33658 -1.56404 0
M  V30 6522 H 624.43 4.89444 -4.97082 0
M  V30 6523 H 620.327 5.23045 -3.78277 0
M  V30 6524 H 621.095 5.79494 -5.78039 0
M  V30 6525 N 623.758 0.647228 1.43697 0
M  V30 6526 C 625.004 0.158422 2.0218 0
M  V30 6527 C 625.337 -1.22233 1.50907 0
M  V30 6528 O 624.612 -1.81478 0.699702 0
M  V30 6529 C 624.895 0.1627 3.59732 0
M  V30 6530 C 624.748 1.57694 4.21251 0
M  V30 6531 C 626.067 -0.504138 4.37203 0
M  V30 6532 H 623.186 0.059042 0.734631 0
M  V30 6533 H 625.828 0.826772 1.71069 0
M  V30 6534 H 623.978 -0.406414 3.86368 0
M  V30 6535 H 625.65 2.19618 4.05667 0
M  V30 6536 H 623.893 2.12603 3.7813 0
M  V30 6537 H 624.564 1.53183 5.3032 0
M  V30 6538 H 627.04 -0.0199841 4.16095 0
M  V30 6539 H 625.916 -0.470394 5.46881 0
M  V30 6540 H 626.177 -1.57726 4.13007 0
M  V30 6541 N 625.236 -1.5273 0.388769 0
M  V30 6542 C 626.169 -2.22861 -0.490752 0
M  V30 6543 C 627.147 -1.22912 -1.06449 0
M  V30 6544 O 628.331 -1.51896 -1.11624 0
M  V30 6545 C 625.458 -2.94141 -1.67925 0
M  V30 6546 C 624.504 -4.08355 -1.23081 0
M  V30 6547 S 625.337 -5.35077 -0.212786 0
M  V30 6548 C 626.493 -6.09879 -1.40708 0
M  V30 6549 H 626.726 -2.97115 0.104787 0
M  V30 6550 H 624.259 -1.53428 0.172956 0
M  V30 6551 H 626.217 -3.35818 -2.36085 0
M  V30 6552 H 624.878 -2.19568 -2.24608 0
M  V30 6553 H 624.071 -4.57328 -2.11818 0
M  V30 6554 H 623.673 -3.68688 -0.628121 0
M  V30 6555 H 625.965 -6.36018 -2.33424 0
M  V30 6556 H 626.908 -7.01586 -0.958271 0
M  V30 6557 H 627.316 -5.40646 -1.62364 0
M  V30 6558 N 626.714 -0.118576 -1.57153 0
M  V30 6559 C 627.939 0.550582 -1.99958 0
M  V30 6560 C 628.364 1.59458 -0.997736 0
M  V30 6561 O 627.722 1.81274 0.0306269 0
M  V30 6562 C 627.77 1.15379 -3.41643 0
M  V30 6563 O 626.874 2.26932 -3.44348 0
M  V30 6564 H 626.215 0.137567 -0.649593 0
M  V30 6565 H 628.745 -0.206926 -2.03551 0
M  V30 6566 H 628.755 1.48942 -3.79843 0
M  V30 6567 H 627.43 0.389087 -4.14076 0
M  V30 6568 H 626.007 1.94812 -3.17967 0
M  V30 6569 N 628.193 1.56834 0.155195 0
M  V30 6570 C 629.123 2.00678 1.19376 0
M  V30 6571 C 630.104 0.884973 1.45266 0
M  V30 6572 O 631.289 1.1522 1.56326 0
M  V30 6573 C 628.419 2.38042 2.5289 0
M  V30 6574 C 627.373 3.53332 2.41538 0
M  V30 6575 C 626.699 3.76485 3.79688 0
M  V30 6576 C 627.999 4.86265 1.9064 0
M  V30 6577 H 629.693 2.87688 0.829232 0
M  V30 6578 H 627.239 1.38407 0.397445 0
M  V30 6579 H 629.192 2.67314 3.25763 0
M  V30 6580 H 627.916 1.4796 2.91162 0
M  V30 6581 H 626.575 3.24213 1.71117 0
M  V30 6582 H 626.223 2.83667 4.15382 0
M  V30 6583 H 625.923 4.54068 3.72956 0
M  V30 6584 H 627.447 4.08174 4.54122 0
M  V30 6585 H 628.861 5.14308 2.53299 0
M  V30 6586 H 627.258 5.67597 1.94818 0
M  V30 6587 H 628.328 4.77184 0.861596 0
M  V30 6588 N 629.671 -0.424282 1.51781 0
M  V30 6589 C 630.919 -1.17028 1.64769 0
M  V30 6590 C 631.24 -1.91409 0.372523 0
M  V30 6591 O 630.51 -1.86091 -0.612108 0
M  V30 6592 H 629.09 -0.434992 0.607282 0
M  V30 6593 H 631.752 -0.485169 1.88765 0
M  V30 6594 H 630.848 -1.8927 2.4816 0
M  V30 6595 N 631.149 -1.42148 -0.680565 0
M  V30 6596 C 632.112 -1.4488 -1.77602 0
M  V30 6597 C 633.112 -0.337209 -1.57224 0
M  V30 6598 O 634.302 -0.597778 -1.63622 0
M  V30 6599 C 631.434 -1.27483 -3.16166 0
M  V30 6600 H 632.627 -2.42412 -1.76568 0
M  V30 6601 H 630.18 -1.28511 -0.889645 0
M  V30 6602 H 630.915 -0.30851 -3.22829 0
M  V30 6603 H 630.7 -2.08037 -3.3236 0
M  V30 6604 H 632.19 -1.32265 -3.96101 0
M  V30 6605 N 632.627 0.916307 -1.28225 0
M  V30 6606 C 633.873 1.66765 -1.154 0
M  V30 6607 C 634.206 1.91912 0.297251 0
M  V30 6608 O 633.481 1.51766 1.21644 0
M  V30 6609 C 633.764 3.02715 -1.95028 0
M  V30 6610 C 633.617 2.84738 -3.48201 0
M  V30 6611 C 634.936 4.03215 -1.76369 0
M  V30 6612 H 632.055 0.605205 -0.42059 0
M  V30 6613 H 634.697 1.06255 -1.57512 0
M  V30 6614 H 632.847 3.54365 -1.59242 0
M  V30 6615 H 634.519 2.40118 -3.9388 0
M  V30 6616 H 632.762 2.19848 -3.73964 0
M  V30 6617 H 633.433 3.8127 -3.99171 0
M  V30 6618 H 635.909 3.60617 -2.07593 0
M  V30 6619 H 634.785 4.96306 -2.34459 0
M  V30 6620 H 635.046 4.36288 -0.71452 0
M  V30 6621 N 634.105 1.10431 1.1244 0
M  V30 6622 C 635.352 0.846717 1.83948 0
M  V30 6623 C 635.68 -0.627709 1.84093 0
M  V30 6624 O 634.935 -1.47876 1.28184 0
M  V30 6625 C 635.234 1.34022 3.3132 0
M  V30 6626 C 634.9 2.82606 3.51347 0
M  V30 6627 C 633.562 3.23182 3.56521 0
M  V30 6628 C 635.914 3.78356 3.58464 0
M  V30 6629 C 633.242 4.58258 3.66356 0
M  V30 6630 C 635.594 5.13234 3.69829 0
M  V30 6631 C 634.258 5.53384 3.73259 0
M  V30 6632 H 633.528 0.309836 0.673114 0
M  V30 6633 H 636.175 1.38091 1.32677 0
M  V30 6634 H 634.48 0.726047 3.85014 0
M  V30 6635 H 636.177 1.11739 3.85118 0
M  V30 6636 H 632.767 2.50212 3.47983 0
M  V30 6637 H 636.951 3.48115 3.53737 0
M  V30 6638 H 632.207 4.88787 3.67284 0
M  V30 6639 H 636.381 5.87272 3.74279 0
M  V30 6640 H 634.008 6.58045 3.80633 0
M  V30 6641 N 635.583 -1.29855 0.893053 0
M  V30 6642 C 636.831 -1.9544 0.514566 0
M  V30 6643 C 637.152 -1.70795 -0.940959 0
M  V30 6644 O 636.422 -1.03601 -1.66264 0
M  V30 6645 H 635.002 -0.723137 0.187302 0
M  V30 6646 H 637.664 -1.58234 1.13789 0
M  V30 6647 H 636.76 -3.04341 0.691581 0
M  V30 6648 N 637.061 -0.65484 -1.43351 0
M  V30 6649 C 638.31 -0.166215 -2.01014 0
M  V30 6650 C 638.623 1.22764 -1.52278 0
M  V30 6651 O 639.829 1.81156 -2.02224 0
M  V30 6652 C 638.285 -0.246341 -3.59056 0
M  V30 6653 C 637.893 -1.64299 -4.16785 0
M  V30 6654 C 639.637 0.184597 -4.24098 0
M  V30 6655 C 637.544 -1.67695 -5.67126 0
M  V30 6656 H 636.474 -0.0583769 -0.751737 0
M  V30 6657 H 639.125 -0.817111 -1.64303 0
M  V30 6658 H 637.507 0.472092 -3.93176 0
M  V30 6659 H 638.681 -2.3869 -3.94162 0
M  V30 6660 H 636.996 -2.02004 -3.6412 0
M  V30 6661 H 639.593 0.179088 -5.344 0
M  V30 6662 H 639.936 1.21632 -3.98135 0
M  V30 6663 H 640.469 -0.482141 -3.94867 0
M  V30 6664 H 637.208 -2.68783 -5.9786 0
M  V30 6665 H 636.728 -0.976313 -5.91801 0
M  V30 6666 H 638.407 -1.42142 -6.31193 0
M  V30 6667 N 638.539 1.52521 -0.396863 0
M  V30 6668 C 639.786 2.01672 0.182898 0
M  V30 6669 C 640.114 1.28302 1.46181 0
M  V30 6670 O 639.369 0.374118 1.92091 0
M  V30 6671 C 639.668 3.5403 0.489677 0
M  V30 6672 C 639.334 4.45456 -0.698581 0
M  V30 6673 C 637.996 4.70166 -1.02454 0
M  V30 6674 C 640.348 4.99354 -1.49316 0
M  V30 6675 C 637.676 5.46024 -2.1465 0
M  V30 6676 C 640.028 5.76439 -2.60579 0
M  V30 6677 C 638.692 5.99426 -2.93675 0
M  V30 6678 H 637.962 0.737971 0.066927 0
M  V30 6679 H 640.609 1.83853 -0.535764 0
M  V30 6680 H 638.914 3.69963 1.28976 0
M  V30 6681 H 640.611 3.8956 0.951018 0
M  V30 6682 H 637.201 4.26392 -0.434525 0
M  V30 6683 H 641.385 4.80182 -1.25457 0
M  V30 6684 H 636.641 5.62046 -2.40654 0
M  V30 6685 H 640.815 6.17202 -3.22544 0
M  V30 6686 H 638.442 6.57988 -3.80731 0
M  V30 6687 N 640.017 0.126909 1.57088 0
M  V30 6688 C 640.98 -0.806097 2.14557 0
M  V30 6689 C 641.98 -1.18918 1.08236 0
M  V30 6690 O 643.17 -1.11339 1.33975 0
M  V30 6691 C 640.302 -2.09116 2.69227 0
M  V30 6692 H 641.495 -0.306522 2.98329 0
M  V30 6693 H 639.048 -0.122393 1.5582 0
M  V30 6694 H 639.783 -2.63486 1.89065 0
M  V30 6695 H 639.568 -1.82588 3.46993 0
M  V30 6696 H 641.058 -2.75794 3.13572 0
M  V30 6697 N 641.495 -1.56914 -0.146875 0
M  V30 6698 C 642.743 -1.82994 -0.85777 0
M  V30 6699 C 643.064 -0.707814 -1.817 0
M  V30 6700 O 642.334 0.270521 -1.94023 0
M  V30 6701 H 640.914 -0.675106 -0.319751 0
M  V30 6702 H 643.576 -1.9439 -0.140849 0
M  V30 6703 H 642.672 -2.77928 -1.41994 0
M  V30 6704 N 642.974 0.416227 -1.52004 0
M  V30 6705 C 644.223 1.16088 -1.64944 0
M  V30 6706 C 644.536 1.91835 -0.381928 0
M  V30 6707 O 645.742 2.6867 -0.391013 0
M  V30 6708 C 644.198 2.1124 -2.91386 0
M  V30 6709 C 643.806 1.41042 -4.25219 0
M  V30 6710 C 645.55 2.86008 -3.13688 0
M  V30 6711 C 643.457 2.34801 -5.42791 0
M  V30 6712 H 642.387 0.437041 -0.61442 0
M  V30 6713 H 645.038 0.425971 -1.78487 0
M  V30 6714 H 643.42 2.88254 -2.71525 0
M  V30 6715 H 644.594 0.694416 -4.55538 0
M  V30 6716 H 642.909 0.78344 -4.08964 0
M  V30 6717 H 645.506 3.56286 -3.98703 0
M  V30 6718 H 645.849 3.48556 -2.27628 0
M  V30 6719 H 646.382 2.16095 -3.33988 0
M  V30 6720 H 643.121 1.7691 -6.31176 0
M  V30 6721 H 642.641 3.04395 -5.16821 0
M  V30 6722 H 644.32 2.9548 -5.75587 0
M  V30 6723 N 644.452 1.42507 0.673017 0
M  V30 6724 C 645.682 1.46261 1.45916 0
M  V30 6725 C 646.09 0.0729724 1.89059 0
M  V30 6726 O 645.433 -0.922987 1.58829 0
M  V30 6727 C 645.495 2.32853 2.73898 0
M  V30 6728 C 645.159 3.80699 2.52819 0
M  V30 6729 C 646.156 4.72307 2.17306 0
M  V30 6730 C 643.841 4.24983 2.67758 0
M  V30 6731 C 645.835 6.06192 1.97003 0
M  V30 6732 C 643.522 5.58927 2.4707 0
M  V30 6733 C 644.52 6.49348 2.11746 0
M  V30 6734 O 644.208 7.80817 1.91259 0
M  V30 6735 H 643.94 0.499561 0.455428 0
M  V30 6736 H 646.494 1.87697 0.834196 0
M  V30 6737 H 644.724 1.86268 3.38882 0
M  V30 6738 H 646.413 2.28041 3.35786 0
M  V30 6739 H 647.179 4.39378 2.05359 0
M  V30 6740 H 643.058 3.54893 2.94231 0
M  V30 6741 H 646.602 6.76731 1.69355 0
M  V30 6742 H 642.499 5.91429 2.58615 0
M  V30 6743 H 643.267 7.92194 2.05843 0
M  V30 6744 N 645.93 -0.909495 1.28709 0
M  V30 6745 C 647.177 -1.65905 1.16111 0
M  V30 6746 C 647.505 -1.92334 -0.289436 0
M  V30 6747 O 646.76 -1.52495 -1.22653 0
M  V30 6748 C 647.059 -3.02117 1.90945 0
M  V30 6749 C 646.725 -2.95332 3.40719 0
M  V30 6750 C 645.387 -2.93189 3.81567 0
M  V30 6751 C 647.739 -2.85264 4.36204 0
M  V30 6752 C 645.067 -2.78784 5.16233 0
M  V30 6753 C 647.419 -2.724 5.70948 0
M  V30 6754 C 646.083 -2.68617 6.11066 0
M  V30 6755 H 645.353 -0.60709 0.42488 0
M  V30 6756 H 648 -1.05932 1.59533 0
M  V30 6757 H 646.305 -3.65901 1.40085 0
M  V30 6758 H 648.002 -3.59026 1.7861 0
M  V30 6759 H 644.592 -2.97797 3.08245 0
M  V30 6760 H 648.776 -2.86005 4.05605 0
M  V30 6761 H 644.032 -2.74254 5.46438 0
M  V30 6762 H 648.206 -2.63579 6.44592 0
M  V30 6763 H 645.833 -2.57213 7.15364 0
M  V30 6764 N 647.408 -1.11026 -1.11852 0
M  V30 6765 C 648.654 -0.867633 -1.83967 0
M  V30 6766 C 649.009 0.600309 -1.82795 0
M  V30 6767 O 648.302 1.43731 -1.26696 0
M  V30 6768 C 648.496 -1.35777 -3.30604 0
M  V30 6769 C 648.325 -2.87183 -3.46058 0
M  V30 6770 C 647.095 -3.55256 -3.59334 0
M  V30 6771 C 649.293 -3.85258 -3.40706 0
M  V30 6772 N 647.275 -4.94923 -3.63215 0
M  V30 6773 C 648.646 -5.1097 -3.51155 0
M  V30 6774 C 650.701 -3.77879 -3.2421 0
M  V30 6775 C 649.404 -6.30171 -3.46809 0
M  V30 6776 C 651.43 -4.96586 -3.2118 0
M  V30 6777 C 650.792 -6.21149 -3.32196 0
M  V30 6778 H 646.891 -0.370574 -0.688621 0
M  V30 6779 H 649.475 -1.41379 -1.33865 0
M  V30 6780 H 647.646 -0.83885 -3.79233 0
M  V30 6781 H 649.378 -1.05874 -3.90606 0
M  V30 6782 H 646.133 -3.05714 -3.61713 0
M  V30 6783 H 646.557 -5.67726 -3.68804 0
M  V30 6784 H 651.199 -2.82485 -3.14582 0
M  V30 6785 H 648.917 -7.25847 -3.55206 0
M  V30 6786 H 652.503 -4.92591 -3.09589 0
M  V30 6787 H 651.383 -7.11463 -3.29834 0
M  V30 6788 N 648.886 1.2938 -0.899927 0
M  V30 6789 C 650.135 1.9483 -0.521937 0
M  V30 6790 C 650.448 1.71725 0.936473 0
M  V30 6791 O 651.654 2.31282 1.42199 0
M  V30 6792 C 650.11 3.48911 -0.88255 0
M  V30 6793 C 649.718 3.80815 -2.35974 0
M  V30 6794 C 651.462 4.20595 -0.57448 0
M  V30 6795 C 649.369 5.28142 -2.66121 0
M  V30 6796 H 648.299 0.729285 -0.191468 0
M  V30 6797 H 650.95 1.47103 -1.09695 0
M  V30 6798 H 649.332 3.95293 -0.236459 0
M  V30 6799 H 650.506 3.45291 -3.05141 0
M  V30 6800 H 648.821 3.22271 -2.63686 0
M  V30 6801 H 651.418 5.29031 -0.776556 0
M  V30 6802 H 651.761 4.13442 0.487005 0
M  V30 6803 H 652.294 3.79945 -1.17842 0
M  V30 6804 H 649.033 5.4036 -3.71068 0
M  V30 6805 H 648.553 5.64913 -2.01578 0
M  V30 6806 H 650.232 5.95738 -2.52399 0
M  V30 6807 N 650.364 0.662433 1.43002 0
M  V30 6808 C 651.612 0.179237 2.01304 0
M  V30 6809 C 651.933 -1.21428 1.52579 0
M  V30 6810 O 651.203 -1.81294 0.742252 0
M  V30 6811 H 649.783 0.0632725 0.744316 0
M  V30 6812 H 652.445 0.856169 1.75088 0
M  V30 6813 H 651.541 0.170957 3.11631 0
M  V30 6814 N 651.842 -1.52309 0.404946 0
M  V30 6815 C 652.789 -2.26898 -0.422597 0
M  V30 6816 C 653.759 -1.2914 -1.04461 0
M  V30 6817 O 654.944 -1.57996 -1.06967 0
M  V30 6818 C 652.084 -3.09053 -1.53559 0
M  V30 6819 C 651.197 -4.21762 -0.934908 0
M  V30 6820 C 650.332 -4.91283 -2.02025 0
M  V30 6821 C 649.371 -5.95962 -1.39628 0
M  V30 6822 N 648.508 -6.59017 -2.42159 0
M  V30 6823 H 653.348 -2.97188 0.219903 0
M  V30 6824 H 650.885 -1.46607 0.120282 0
M  V30 6825 H 652.843 -3.54987 -2.19181 0
M  V30 6826 H 651.473 -2.40942 -2.14818 0
M  V30 6827 H 650.525 -3.80029 -0.167854 0
M  V30 6828 H 651.837 -4.96864 -0.439073 0
M  V30 6829 H 650.991 -5.40601 -2.75383 0
M  V30 6830 H 649.73 -4.15741 -2.54973 0
M  V30 6831 H 648.735 -5.45968 -0.648023 0
M  V30 6832 H 649.96 -6.73445 -0.874553 0
M  V30 6833 H 647.906 -5.86306 -2.94247 0
M  V30 6834 H 647.823 -7.2978 -1.97376 0
M  V30 6835 H 649.091 -7.12974 -3.15099 0
M  V30 6836 N 653.32 -0.135238 -1.57019 0
M  V30 6837 C 654.253 0.846618 -2.11914 0
M  V30 6838 C 655.231 1.25019 -1.03966 0
M  V30 6839 O 656.415 1.34838 -1.31723 0
M  V30 6840 C 653.542 2.1352 -2.6292 0
M  V30 6841 C 652.588 1.87846 -3.82905 0
M  V30 6842 S 653.421 1.08005 -5.24495 0
M  V30 6843 C 654.577 2.38008 -5.78881 0
M  V30 6844 H 654.81 0.379752 -2.94865 0
M  V30 6845 H 652.343 0.0788387 -1.54199 0
M  V30 6846 H 654.301 2.87551 -2.92958 0
M  V30 6847 H 652.962 2.57323 -1.80121 0
M  V30 6848 H 652.155 2.83365 -4.16797 0
M  V30 6849 H 651.757 1.21929 -3.53567 0
M  V30 6850 H 654.049 3.33742 -5.89595 0
M  V30 6851 H 654.992 2.08638 -6.76665 0
M  V30 6852 H 655.4 2.48119 -5.07048 0
M  V30 6853 N 654.798 1.5699 0.138552 0
M  V30 6854 C 656.023 1.88344 0.86841 0
M  V30 6855 C 656.448 0.725159 1.7356 0
M  V30 6856 O 655.806 -0.324992 1.78363 0
M  V30 6857 C 655.854 3.18334 1.69398 0
M  V30 6858 O 654.958 3.02863 2.79907 0
M  V30 6859 H 654.299 0.618577 0.241367 0
M  V30 6860 H 656.829 2.04207 0.126826 0
M  V30 6861 H 656.839 3.50567 2.08726 0
M  V30 6862 H 655.514 4.02238 1.05725 0
M  V30 6863 H 654.091 2.82056 2.43924 0
M  V30 6864 N 656.276 -0.40816 1.52223 0
M  V30 6865 C 657.524 -1.15274 1.66001 0
M  V30 6866 C 657.845 -1.91003 0.392803 0
M  V30 6867 O 657.115 -1.8673 -0.592336 0
M  V30 6868 H 655.695 -0.428526 0.611861 0
M  V30 6869 H 658.357 -0.46512 1.89269 0
M  V30 6870 H 657.453 -1.86628 2.50153 0
M  V30 6871 N 657.755 -1.42862 -0.66545 0
M  V30 6872 C 659.171 -1.25993 -0.979687 0
M  V30 6873 C 659.371 -0.170831 -2.00775 0
M  V30 6874 O 658.427 0.454827 -2.4837 0
M  V30 6875 C 659.74 -2.62005 -1.47559 0
M  V30 6876 C 661.288 -2.69437 -1.59288 0
M  V30 6877 C 661.763 -4.05838 -2.12272 0
M  V30 6878 N 663.254 -4.0784 -2.19592 0
M  V30 6879 C 663.989 -5.10205 -2.61684 0
M  V30 6880 N 663.485 -6.22949 -3.03161 0
M  V30 6881 N 665.278 -4.9756 -2.61516 0
M  V30 6882 H 657.429 -2.12395 0.0150493 0
M  V30 6883 H 659.692 -0.946355 -0.0558187 0
M  V30 6884 H 659.398 -3.42605 -0.794654 0
M  V30 6885 H 659.272 -2.86566 -2.45275 0
M  V30 6886 H 661.659 -1.89178 -2.26486 0
M  V30 6887 H 661.74 -2.48655 -0.600374 0
M  V30 6888 H 661.384 -4.86559 -1.4568 0
M  V30 6889 H 661.314 -4.23977 -3.12331 0
M  V30 6890 H 663.805 -3.26452 -1.90361 0
M  V30 6891 H 664.118 -6.96899 -3.33993 0
M  V30 6892 H 662.463 -6.2644 -3.00995 0
M  V30 6893 H 665.654 -4.08551 -2.28481 0
M  V30 6894 H 665.827 -5.77468 -2.93999 0
M  V30 6895 N 659.233 0.902656 -1.29189 0
M  V30 6896 C 660.165 2.01149 -1.09872 0
M  V30 6897 C 661.178 1.62732 -0.0471046 0
M  V30 6898 O 662.367 1.76107 -0.29132 0
M  V30 6899 C 659.467 3.32612 -0.649818 0
M  V30 6900 C 658.64 3.99574 -1.7793 0
M  V30 6901 C 657.699 5.09325 -1.32191 0
M  V30 6902 O 656.725 5.31919 -2.02611 0
M  V30 6903 N 657.927 5.80185 -0.191171 0
M  V30 6904 H 660.692 2.18276 -2.05368 0
M  V30 6905 H 658.253 1.07466 -1.2109 0
M  V30 6906 H 660.245 4.03375 -0.327199 0
M  V30 6907 H 658.815 3.11876 0.212597 0
M  V30 6908 H 658.035 3.22213 -2.27095 0
M  V30 6909 H 659.323 4.41056 -2.53668 0
M  V30 6910 H 658.721 5.64312 0.396016 0
M  V30 6911 H 657.278 6.5176 0.0721001 0
M  V30 6912 N 660.711 1.11618 1.11262 0
M  V30 6913 C 661.941 0.88745 1.86569 0
M  V30 6914 C 662.349 -0.56636 1.80524 0
M  V30 6915 O 661.692 -1.40289 1.18594 0
M  V30 6916 C 661.754 1.27313 3.36202 0
M  V30 6917 C 661.418 2.73649 3.66013 0
M  V30 6918 C 662.415 3.71863 3.63337 0
M  V30 6919 C 660.1 3.10342 3.9496 0
M  V30 6920 C 662.094 5.04788 3.89188 0
M  V30 6921 C 659.781 4.43451 4.20469 0
M  V30 6922 C 660.779 5.40484 4.17572 0
M  V30 6923 O 660.467 6.71195 4.42439 0
M  V30 6924 H 660.199 0.317543 0.596777 0
M  V30 6925 H 662.753 1.48768 1.41624 0
M  V30 6926 H 660.983 0.616062 3.81761 0
M  V30 6927 H 662.672 1.01991 3.92877 0
M  V30 6928 H 663.438 3.44861 3.41022 0
M  V30 6929 H 659.317 2.35431 3.9635 0
M  V30 6930 H 662.861 5.80516 3.86842 0
M  V30 6931 H 658.758 4.70187 4.42261 0
M  V30 6932 H 659.526 6.77012 4.59997 0
M  V30 6933 N 662.189 -1.289 0.906776 0
M  V30 6934 C 663.6 -1.77336 0.58384 0
M  V30 6935 C 663.951 -1.74304 -0.900697 0
M  V30 6936 O 663.076 -1.33335 -1.70443 0
M  V30 6937 C 663.671 -3.22019 1.05304 0
M  V30 6938 C 662.23 -3.68205 0.781148 0
M  V30 6939 C 661.377 -2.48837 1.22373 0
M  V30 6940 H 664.328 -1.15462 1.08877 0
M  V30 6941 H 664.349 -3.78481 0.391414 0
M  V30 6942 H 663.861 -3.24194 2.13353 0
M  V30 6943 H 661.962 -3.71497 -0.28643 0
M  V30 6944 H 662.075 -4.58675 1.384 0
M  V30 6945 H 660.439 -2.46461 0.642594 0
M  V30 6946 H 661.222 -2.53736 2.31242 0
M  V30 6947 N 663.667 -0.670007 -1.42649 0
M  V30 6948 C 664.577 0.0114788 -2.34597 0
M  V30 6949 C 665.593 0.794055 -1.54825 0
M  V30 6950 O 666.769 0.737472 -1.87412 0
M  V30 6951 C 663.834 0.954436 -3.33304 0
M  V30 6952 C 662.895 0.166925 -4.28975 0
M  V30 6953 C 662.128 1.06497 -5.22967 0
M  V30 6954 O 662.351 2.30446 -5.21777 0
M  V30 6955 O 661.285 0.528347 -5.99577 0
M  V30 6956 H 665.111 -0.745794 -2.944 0
M  V30 6957 H 662.696 -0.430228 -1.43071 0
M  V30 6958 H 664.578 1.49589 -3.93956 0
M  V30 6959 H 663.253 1.69164 -2.7598 0
M  V30 6960 H 662.16 -0.418515 -3.71752 0
M  V30 6961 H 663.493 -0.531067 -4.89327 0
M  V30 6962 N 665.145 1.52092 -0.413018 0
M  V30 6963 C 666.391 2.02815 0.154104 0
M  V30 6964 C 666.746 1.293 1.42475 0
M  V30 6965 O 666.039 0.391835 1.87551 0
M  V30 6966 C 666.233 3.54529 0.4521 0
M  V30 6967 C 666.062 4.4274 -0.788116 0
M  V30 6968 C 664.832 4.87903 -1.31447 0
M  V30 6969 C 667.03 4.86522 -1.66735 0
M  V30 6970 N 665.012 5.60254 -2.50976 0
M  V30 6971 C 666.383 5.57692 -2.70886 0
M  V30 6972 C 668.438 4.68534 -1.68465 0
M  V30 6973 C 667.141 6.12783 -3.76682 0
M  V30 6974 C 669.167 5.24524 -2.73182 0
M  V30 6975 C 668.529 5.9562 -3.76054 0
M  V30 6976 H 664.628 0.781796 0.0178567 0
M  V30 6977 H 667.212 1.86223 -0.568237 0
M  V30 6978 H 665.383 3.71186 1.14348 0
M  V30 6979 H 667.115 3.91934 1.00844 0
M  V30 6980 H 663.87 4.65504 -0.871931 0
M  V30 6981 H 664.294 6.01069 -3.11521 0
M  V30 6982 H 668.936 4.13051 -0.902708 0
M  V30 6983 H 666.654 6.67335 -4.55729 0
M  V30 6984 H 670.24 5.12473 -2.75433 0
M  V30 6985 H 669.12 6.38169 -4.55752 0
M  V30 6986 N 666.623 0.143563 1.56945 0
M  V30 6987 C 667.586 -0.783295 2.154 0
M  V30 6988 C 668.586 -1.17763 1.09492 0
M  V30 6989 O 669.776 -1.09912 1.35148 0
M  V30 6990 C 666.908 -2.06248 2.7143 0
M  V30 6991 H 668.101 -0.274863 2.98638 0
M  V30 6992 H 665.654 -0.105859 1.55941 0
M  V30 6993 H 666.389 -2.61466 1.91849 0
M  V30 6994 H 666.174 -1.78897 3.4891 0
M  V30 6995 H 667.664 -2.72453 3.16479 0
M  V30 6996 N 668.101 -1.57061 -0.130224 0
M  V30 6997 C 669.349 -1.83893 -0.838313 0
M  V30 6998 C 669.67 -0.727046 -1.80939 0
M  V30 6999 O 668.94 0.249927 -1.94299 0
M  V30 7000 H 667.52 -0.67846 -0.312573 0
M  V30 7001 H 670.182 -1.94529 -0.120224 0
M  V30 7002 H 669.278 -2.79419 -1.39038 0
M  V30 7003 N 669.579 0.400081 -1.52437 0
M  V30 7004 C 670.526 1.48803 -1.76426 0
M  V30 7005 C 671.496 1.5461 -0.607032 0
M  V30 7006 O 672.681 1.71041 -0.845563 0
M  V30 7007 C 669.821 2.86156 -1.92896 0
M  V30 7008 C 668.934 2.89587 -3.20567 0
M  V30 7009 C 668.069 4.18296 -3.27417 0
M  V30 7010 C 667.108 4.15736 -4.49255 0
M  V30 7011 N 666.245 5.36032 -4.53447 0
M  V30 7012 H 671.085 1.27649 -2.69276 0
M  V30 7013 H 668.622 0.619451 -1.33421 0
M  V30 7014 H 670.58 3.65901 -2.00429 0
M  V30 7015 H 669.21 3.05785 -1.03418 0
M  V30 7016 H 668.262 2.02278 -3.22161 0
M  V30 7017 H 669.574 2.83562 -4.10358 0
M  V30 7018 H 668.728 5.06439 -3.34072 0
M  V30 7019 H 667.467 4.27028 -2.35581 0
M  V30 7020 H 666.472 3.25982 -4.42737 0
M  V30 7021 H 667.697 4.08636 -5.42396 0
M  V30 7022 H 665.643 5.45415 -3.64498 0
M  V30 7023 H 665.56 5.32038 -5.37096 0
M  V30 7024 H 666.828 6.26104 -4.64343 0
M  V30 7025 N 671.057 1.43213 0.657864 0
M  V30 7026 C 671.987 1.50815 1.78262 0
M  V30 7027 C 672.968 0.363211 1.66177 0
M  V30 7028 O 674.153 0.579806 1.85343 0
M  V30 7029 C 671.283 1.42625 3.16663 0
M  V30 7030 C 670.237 2.5532 3.43505 0
M  V30 7031 C 669.563 2.32184 4.81658 0
M  V30 7032 C 670.863 3.97583 3.38711 0
M  V30 7033 H 672.557 2.44954 1.72157 0
M  V30 7034 H 670.103 1.17896 0.82683 0
M  V30 7035 H 672.056 1.46548 3.95097 0
M  V30 7036 H 670.78 0.449877 3.23487 0
M  V30 7037 H 669.439 2.50742 2.6744 0
M  V30 7038 H 669.087 1.32801 4.85153 0
M  V30 7039 H 668.787 3.07724 5.00579 0
M  V30 7040 H 670.311 2.37883 5.62356 0
M  V30 7041 H 671.725 4.03673 4.07089 0
M  V30 7042 H 670.122 4.73112 3.69168 0
M  V30 7043 H 671.192 4.23049 2.36976 0
M  V30 7044 N 672.536 -0.895792 1.29666 0
M  V30 7045 C 673.486 -1.98736 1.1175 0
M  V30 7046 C 674.47 -1.6086 0.0357834 0
M  V30 7047 O 675.662 -1.75111 0.257926 0
M  V30 7048 C 672.791 -3.33845 0.800156 0
M  V30 7049 C 671.877 -3.78068 1.9216 0
M  V30 7050 N 672.268 -3.94489 3.16563 0
M  V30 7051 C 670.566 -4.07376 1.81552 0
M  V30 7052 C 671.267 -4.31819 3.89753 0
M  V30 7053 N 670.243 -4.41081 3.17724 0
M  V30 7054 H 674.045 -2.09507 2.06117 0
M  V30 7055 H 671.559 -1.08488 1.20848 0
M  V30 7056 H 673.556 -4.11757 0.652841 0
M  V30 7057 H 672.216 -3.24417 -0.135551 0
M  V30 7058 H 673.227 -3.79914 3.51974 0
M  V30 7059 H 669.904 -4.06483 0.952787 0
M  V30 7060 H 671.294 -4.52337 4.96831 0
M  V30 7061 N 674.014 -1.12206 -1.10668 0
M  V30 7062 C 675.261 -0.875875 -1.82578 0
M  V30 7063 C 675.589 0.598342 -1.85068 0
M  V30 7064 O 674.844 1.45818 -1.3052 0
M  V30 7065 C 675.143 -1.39276 -3.29146 0
M  V30 7066 C 674.809 -2.8816 -3.46806 0
M  V30 7067 C 673.471 -3.28813 -3.51334 0
M  V30 7068 C 675.823 -3.8401 -3.52399 0
M  V30 7069 C 673.151 -4.64028 -3.59019 0
M  V30 7070 C 675.503 -5.19053 -3.61617 0
M  V30 7071 C 674.167 -5.59252 -3.64408 0
M  V30 7072 H 673.437 -0.320505 -0.6681 0
M  V30 7073 H 676.084 -1.40184 -1.30464 0
M  V30 7074 H 674.389 -0.787207 -3.8381 0
M  V30 7075 H 676.086 -1.17851 -3.83291 0
M  V30 7076 H 672.676 -2.55716 -3.43958 0
M  V30 7077 H 676.86 -3.53698 -3.48154 0
M  V30 7078 H 672.116 -4.94568 -3.59461 0
M  V30 7079 H 676.29 -5.93152 -3.64889 0
M  V30 7080 H 673.917 -6.64017 -3.70116 0
M  V30 7081 N 675.492 1.28418 -0.913599 0
M  V30 7082 C 676.738 1.95627 -0.556933 0
M  V30 7083 C 677.093 1.706 0.889565 0
M  V30 7084 O 676.386 1.01637 1.6242 0
M  V30 7085 C 676.58 3.48283 -0.802099 0
M  V30 7086 C 676.409 3.88151 -2.27088 0
M  V30 7087 C 675.179 4.1232 -2.92096 0
M  V30 7088 C 677.377 3.98819 -3.24728 0
M  V30 7089 N 675.359 4.3886 -4.29272 0
M  V30 7090 C 676.73 4.29571 -4.47067 0
M  V30 7091 C 678.785 3.81342 -3.20129 0
M  V30 7092 C 677.488 4.44667 -5.65388 0
M  V30 7093 C 679.514 3.97656 -4.37749 0
M  V30 7094 C 678.876 4.2878 -5.58862 0
M  V30 7095 H 674.975 0.739715 -0.253664 0
M  V30 7096 H 677.559 1.55074 -1.1773 0
M  V30 7097 H 675.73 3.87826 -0.211007 0
M  V30 7098 H 677.462 4.02623 -0.409478 0
M  V30 7099 H 674.217 4.06611 -2.42826 0
M  V30 7100 H 674.641 4.56214 -5.00198 0
M  V30 7101 H 679.283 3.56331 -2.2757 0
M  V30 7102 H 677.001 4.68509 -6.58426 0
M  V30 7103 H 680.587 3.85569 -4.35692 0
M  V30 7104 H 679.467 4.41136 -6.48359 0
M  V30 7105 N 676.97 0.677563 1.42291 0
M  V30 7106 C 677.903 -0.0492638 2.28147 0
M  V30 7107 C 678.881 -0.805936 1.41221 0
M  V30 7108 O 680.065 -0.80049 1.70659 0
M  V30 7109 C 677.192 -1.07697 3.21122 0
M  V30 7110 C 676.238 -0.41556 4.24471 0
M  V30 7111 S 677.071 0.828876 5.29046 0
M  V30 7112 C 678.227 -0.197687 6.25588 0
M  V30 7113 H 678.46 0.678965 2.89443 0
M  V30 7114 H 675.993 0.467201 1.47162 0
M  V30 7115 H 677.951 -1.66482 3.75225 0
M  V30 7116 H 676.612 -1.77766 2.58956 0
M  V30 7117 H 675.805 -1.19112 4.89723 0
M  V30 7118 H 675.407 0.0987632 3.7387 0
M  V30 7119 H 677.699 -1.05656 6.69211 0
M  V30 7120 H 678.642 0.420437 7.06851 0
M  V30 7121 H 679.05 -0.544401 5.61869 0
M  V30 7122 N 678.448 -1.51871 0.421078 0
M  V30 7123 C 679.381 -2.23851 -0.443369 0
M  V30 7124 C 680.359 -1.25142 -1.03818 0
M  V30 7125 O 681.543 -1.5423 -1.08377 0
M  V30 7126 C 678.67 -2.97637 -1.61648 0
M  V30 7127 C 677.716 -4.10873 -1.14391 0
M  V30 7128 S 678.549 -5.35408 -0.0992403 0
M  V30 7129 C 679.705 -6.12726 -1.27739 0
M  V30 7130 H 679.938 -2.96826 0.167786 0
M  V30 7131 H 677.471 -1.53027 0.205461 0
M  V30 7132 H 679.429 -3.40751 -2.28909 0
M  V30 7133 H 678.09 -2.24282 -2.199 0
M  V30 7134 H 677.283 -4.61718 -2.02069 0
M  V30 7135 H 676.885 -3.69937 -0.549775 0
M  V30 7136 H 679.177 -6.40827 -2.19881 0
M  V30 7137 H 680.12 -7.03461 -0.809239 0
M  V30 7138 H 680.528 -5.43968 -1.5086 0
M  V30 7139 N 679.926 -0.151884 -1.56866 0
M  V30 7140 C 681.173 0.498004 -1.96281 0
M  V30 7141 C 681.501 1.64551 -1.03698 0
M  V30 7142 O 680.756 1.95585 -0.0671497 0
M  V30 7143 C 681.055 1.04074 -3.41911 0
M  V30 7144 C 680.721 0.0111688 -4.50899 0
M  V30 7145 C 679.383 -0.271844 -4.80432 0
M  V30 7146 C 681.735 -0.68869 -5.1663 0
M  V30 7147 C 679.063 -1.26044 -5.73001 0
M  V30 7148 C 681.415 -1.66613 -6.10264 0
M  V30 7149 C 680.079 -1.9568 -6.38174 0
M  V30 7150 H 679.349 0.182233 -0.718242 0
M  V30 7151 H 681.996 -0.239746 -1.89993 0
M  V30 7152 H 680.301 1.85592 -3.45055 0
M  V30 7153 H 681.998 1.55224 -3.69738 0
M  V30 7154 H 678.588 0.241932 -4.27917 0
M  V30 7155 H 682.772 -0.48324 -4.93942 0
M  V30 7156 H 678.028 -1.49202 -5.92915 0
M  V30 7157 H 682.202 -2.21392 -6.60272 0
M  V30 7158 H 679.829 -2.72434 -7.09707 0
M  V30 7159 N 681.404 1.57128 0.121893 0
M  V30 7160 C 682.65 1.84974 0.831418 0
M  V30 7161 C 682.983 0.737204 1.79663 0
M  V30 7162 O 682.258 -0.257199 1.92792 0
M  V30 7163 C 682.541 3.23397 1.58386 0
M  V30 7164 C 682.394 4.45246 0.638445 0
M  V30 7165 C 683.713 3.59355 2.54071 0
M  V30 7166 H 680.832 0.67282 0.300803 0
M  V30 7167 H 683.474 1.89759 0.0957587 0
M  V30 7168 H 681.624 3.19449 2.21098 0
M  V30 7169 H 683.296 4.61295 0.0203925 0
M  V30 7170 H 681.539 4.33771 -0.05023 0
M  V30 7171 H 682.21 5.38765 1.20151 0
M  V30 7172 H 684.686 3.64075 2.01465 0
M  V30 7173 H 683.562 4.57193 3.03752 0
M  V30 7174 H 683.823 2.86622 3.36601 0
M  V30 7175 N 682.882 -0.391992 1.52647 0
M  V30 7176 C 684.13 -1.13507 1.67214 0
M  V30 7177 C 684.451 -1.90575 0.41304 0
M  V30 7178 O 683.721 -1.87348 -0.572498 0
M  V30 7179 H 682.301 -0.422013 0.616372 0
M  V30 7180 H 684.963 -0.44502 1.89751 0
M  V30 7181 H 684.059 -1.83964 2.52118 0
M  V30 7182 N 684.36 -1.4356 -0.65026 0
M  V30 7183 C 685.323 -1.48615 -1.74489 0
M  V30 7184 C 686.323 -0.370483 -1.56474 0
M  V30 7185 O 687.513 -0.632351 -1.62317 0
M  V30 7186 C 684.645 -1.34161 -3.13391 0
M  V30 7187 H 685.838 -2.46103 -1.71387 0
M  V30 7188 H 683.391 -1.30369 -0.862186 0
M  V30 7189 H 684.126 -0.376918 -3.22102 0
M  V30 7190 H 683.911 -2.1504 -3.27872 0
M  V30 7191 H 685.401 -1.40637 -3.93206 0
M  V30 7192 N 685.838 0.888903 -1.30139 0
M  V30 7193 C 686.786 2.0156 -1.16088 0
M  V30 7194 C 687.78 1.69239 -0.0737413 0
M  V30 7195 O 688.986 1.78468 -0.234313 0
M  V30 7196 H 685.361 0.660825 -0.358907 0
M  V30 7197 H 687.332 2.10547 -2.11453 0
M  V30 7198 C 686.081 3.36758 -0.865426 0
M  V30 7199 H 685.404 3.62137 -1.69402 0
M  V30 7200 H 686.844 4.16246 -0.807192 0
M  V30 7201 C 685.303 3.34124 0.431577 0
M  V30 7202 O 685.833 3.7445 1.45431 0
M  V30 7203 N 684.039 2.87229 0.441321 0
M  V30 7204 H 683.586 2.54609 -0.391433 0
M  V30 7205 H 683.544 2.8585 1.30909 0
M  V30 7206 N 687.317 1.12792 1.10072 0
M  V30 7207 C 688.247 0.821688 2.18565 0
M  V30 7208 C 689.228 -0.21612 1.68721 0
M  V30 7209 O 690.413 -0.0764932 1.94049 0
M  V30 7210 C 687.543 0.279624 3.46172 0
M  V30 7211 C 686.497 1.25092 4.09312 0
M  V30 7212 C 685.823 0.568916 5.31665 0
M  V30 7213 C 687.123 2.60699 4.52585 0
M  V30 7214 H 688.817 1.72888 2.44438 0
M  V30 7215 H 686.363 0.832702 1.17482 0
M  V30 7216 H 688.316 0.053099 4.21367 0
M  V30 7217 H 687.04 -0.662929 3.19801 0
M  V30 7218 H 685.699 1.46332 3.36129 0
M  V30 7219 H 685.347 -0.378898 5.01571 0
M  V30 7220 H 685.047 1.21687 5.74862 0
M  V30 7221 H 686.571 0.351517 6.09587 0
M  V30 7222 H 687.985 2.43465 5.19035 0
M  V30 7223 H 686.382 3.21608 5.06644 0
M  V30 7224 H 687.452 3.1886 3.65317 0
M  V30 7225 N 688.795 -1.27931 0.920396 0
M  V30 7226 C 690.023 -1.98805 0.573087 0
M  V30 7227 C 690.438 -1.68724 -0.847201 0
M  V30 7228 O 689.795 -0.943699 -1.56207 0
M  V30 7229 C 689.846 -3.52971 0.780633 0
M  V30 7230 O 689.567 -3.81994 2.14504 0
M  V30 7231 C 691.068 -4.411 0.44105 0
M  V30 7232 H 688.288 -0.634651 0.21785 0
M  V30 7233 H 690.832 -1.62965 1.23542 0
M  V30 7234 H 688.987 -3.87048 0.165204 0
M  V30 7235 H 689.401 -4.76609 2.18962 0
M  V30 7236 H 690.875 -5.48312 0.637006 0
M  V30 7237 H 691.352 -4.34758 -0.62306 0
M  V30 7238 H 691.958 -4.12532 1.0343 0
M  V30 7239 N 690.273 -0.685099 -1.4193 0
M  V30 7240 C 691.52 -0.211658 -2.01391 0
M  V30 7241 C 691.848 1.18526 -1.54214 0
M  V30 7242 O 691.103 1.81189 -0.739519 0
M  V30 7243 C 691.402 -0.206154 -3.56805 0
M  V30 7244 C 691.068 -1.54915 -4.23453 0
M  V30 7245 C 689.73 -1.91684 -4.41373 0
M  V30 7246 C 692.082 -2.43317 -4.60919 0
M  V30 7247 C 689.41 -3.16461 -4.94034 0
M  V30 7248 C 691.762 -3.67415 -5.14965 0
M  V30 7249 C 690.426 -4.04341 -5.31098 0
M  V30 7250 H 689.696 -0.0774511 -0.736941 0
M  V30 7251 H 692.343 -0.882121 -1.69973 0
M  V30 7252 H 690.648 0.547841 -3.87951 0
M  V30 7253 H 692.345 0.17753 -4.00607 0
M  V30 7254 H 688.935 -1.25314 -4.09871 0
M  V30 7255 H 693.119 -2.16192 -4.46738 0
M  V30 7256 H 688.375 -3.45078 -5.04709 0
M  V30 7257 H 692.549 -4.3611 -5.42938 0
M  V30 7258 H 690.176 -5.01101 -5.71666 0
M  V30 7259 N 691.751 1.51645 -0.429126 0
M  V30 7260 C 692.998 2.02015 0.140079 0
M  V30 7261 C 693.326 1.31374 1.43427 0
M  V30 7262 O 692.581 0.414779 1.91254 0
M  V30 7263 C 692.88 3.54989 0.414472 0
M  V30 7264 C 692.546 4.43874 -0.792911 0
M  V30 7265 C 691.208 4.67887 -1.12404 0
M  V30 7266 C 693.56 4.96074 -1.59875 0
M  V30 7267 C 690.888 5.41348 -2.26184 0
M  V30 7268 C 693.24 5.70782 -2.72747 0
M  V30 7269 C 691.904 5.93062 -3.06324 0
M  V30 7270 H 691.174 0.739225 0.0512585 0
M  V30 7271 H 693.821 1.82675 -0.574641 0
M  V30 7272 H 692.126 3.72615 1.21099 0
M  V30 7273 H 693.823 3.91489 0.868173 0
M  V30 7274 H 690.413 4.25374 -0.524871 0
M  V30 7275 H 694.597 4.77412 -1.35614 0
M  V30 7276 H 689.853 5.56815 -2.52522 0
M  V30 7277 H 694.027 6.10221 -3.35564 0
M  V30 7278 H 691.654 6.49764 -3.94602 0
M  V30 7279 N 693.229 0.160201 1.56784 0
M  V30 7280 C 694.64 -0.358417 1.83227 0
M  V30 7281 C 694.991 -1.63831 1.07952 0
M  V30 7282 O 694.116 -2.13885 0.328995 0
M  V30 7283 C 694.711 -0.657058 3.32368 0
M  V30 7284 C 693.27 -1.12015 3.59346 0
M  V30 7285 C 692.417 -0.15015 2.76893 0
M  V30 7286 H 695.368 0.384669 1.53967 0
M  V30 7287 H 695.389 -1.51033 3.49241 0
M  V30 7288 H 694.901 0.274647 3.87127 0
M  V30 7289 H 693.002 -2.06734 3.09987 0
M  V30 7290 H 693.115 -1.037 4.67743 0
M  V30 7291 H 691.479 -0.645361 2.46388 0
M  V30 7292 H 692.262 0.775379 3.34429 0
M  V30 7293 N 694.707 -1.5719 -0.113559 0
M  V30 7294 C 695.639 -1.97393 -1.16484 0
M  V30 7295 C 696.652 -0.873964 -1.37352 0
M  V30 7296 O 697.841 -1.15222 -1.36331 0
M  V30 7297 C 694.941 -2.26174 -2.52386 0
M  V30 7298 C 694.114 -3.57479 -2.52046 0
M  V30 7299 C 693.173 -3.74409 -3.69735 0
M  V30 7300 O 692.199 -4.46463 -3.53071 0
M  V30 7301 N 693.401 -3.13588 -4.88511 0
M  V30 7302 H 696.166 -2.88184 -0.822814 0
M  V30 7303 H 693.727 -1.59044 -0.302769 0
M  V30 7304 H 695.719 -2.3471 -3.29687 0
M  V30 7305 H 694.289 -1.41483 -2.7875 0
M  V30 7306 H 693.509 -3.60081 -1.60421 0
M  V30 7307 H 694.797 -4.43775 -2.48881 0
M  V30 7308 H 694.195 -2.55026 -5.04953 0
M  V30 7309 H 692.752 -3.27637 -5.63469 0
M  V30 7310 N 696.185 0.383891 -1.52853 0
M  V30 7311 C 697.135 1.46892 -1.74375 0
M  V30 7312 C 698.119 1.49378 -0.597909 0
M  V30 7313 O 699.311 1.54929 -0.855929 0
M  V30 7314 C 696.44 2.84547 -1.92063 0
M  V30 7315 C 695.526 2.8661 -3.12594 0
M  V30 7316 N 695.917 2.58339 -4.3485 0
M  V30 7317 C 694.215 3.17777 -3.12944 0
M  V30 7318 C 694.916 2.67616 -5.16485 0
M  V30 7319 N 693.892 3.01561 -4.52285 0
M  V30 7320 H 697.694 1.23869 -2.66522 0
M  V30 7321 H 695.208 0.591895 -1.51229 0
M  V30 7322 H 697.205 3.62674 -2.05604 0
M  V30 7323 H 695.865 3.08549 -1.01133 0
M  V30 7324 H 696.876 2.32266 -4.62896 0
M  V30 7325 H 693.553 3.47211 -2.31842 0
M  V30 7326 H 694.943 2.4926 -6.23955 0
M  V30 7327 N 697.663 1.43903 0.642637 0
M  V30 7328 C 698.91 1.46079 1.40239 0
M  V30 7329 C 699.238 0.0890335 1.94296 0
M  V30 7330 O 698.493 -0.907533 1.73385 0
M  V30 7331 C 698.792 2.45907 2.59354 0
M  V30 7332 C 698.458 3.91522 2.23654 0
M  V30 7333 C 697.12 4.31179 2.1363 0
M  V30 7334 C 699.472 4.83242 1.95261 0
M  V30 7335 C 696.8 5.60495 1.73384 0
M  V30 7336 C 699.152 6.12933 1.56511 0
M  V30 7337 C 697.816 6.51556 1.4502 0
M  V30 7338 H 697.086 0.534542 0.513172 0
M  V30 7339 H 699.733 1.77047 0.72984 0
M  V30 7340 H 698.038 2.08381 3.3179 0
M  V30 7341 H 699.735 2.44842 3.17574 0
M  V30 7342 H 696.325 3.60142 2.32369 0
M  V30 7343 H 700.509 4.53367 2.0192 0
M  V30 7344 H 695.765 5.89249 1.63082 0
M  V30 7345 H 699.939 6.83469 1.33576 0
M  V30 7346 H 697.566 7.51663 1.13606 0
M  V30 7347 N 699.141 -0.881989 1.30609 0
M  V30 7348 C 700.071 -2.00413 1.1982 0
M  V30 7349 C 701.052 -1.69871 0.0881538 0
M  V30 7350 O 702.237 -1.92304 0.2707 0
M  V30 7351 C 699.367 -3.35641 0.89233 0
M  V30 7352 C 698.321 -3.80451 1.96064 0
M  V30 7353 C 697.647 -5.13003 1.5077 0
M  V30 7354 C 698.947 -3.98855 3.37213 0
M  V30 7355 H 700.641 -2.09698 2.13699 0
M  V30 7356 H 698.187 -1.00754 1.02882 0
M  V30 7357 H 700.14 -4.13669 0.803497 0
M  V30 7358 H 698.864 -3.26497 -0.0821381 0
M  V30 7359 H 697.523 -3.04654 2.03916 0
M  V30 7360 H 697.171 -5.0029 0.521417 0
M  V30 7361 H 696.871 -5.43956 2.22229 0
M  V30 7362 H 698.395 -5.93554 1.43271 0
M  V30 7363 H 699.809 -4.67312 3.32103 0
M  V30 7364 H 698.206 -4.41188 4.06784 0
M  V30 7365 H 699.276 -3.02614 3.78883 0
M  V30 7366 N 700.619 -1.13374 -1.09472 0
M  V30 7367 C 701.867 -0.893422 -1.8128 0
M  V30 7368 C 702.188 0.582029 -1.86111 0
M  V30 7369 O 701.458 1.42305 -1.34633 0
M  V30 7370 H 700.038 -0.327543 -0.67136 0
M  V30 7371 H 702.7 -1.43018 -1.32408 0
M  V30 7372 H 701.796 -1.28374 -2.84476 0
M  V30 7373 N 702.098 1.27442 -0.927168 0
M  V30 7374 C 703.514 1.46754 -0.627329 0
M  V30 7375 C 703.714 1.83902 0.823549 0
M  V30 7376 O 702.77 1.95215 1.60148 0
M  V30 7377 C 704.083 2.56045 -1.57674 0
M  V30 7378 C 705.631 2.69906 -1.58491 0
M  V30 7379 C 706.106 3.82355 -2.52128 0
M  V30 7380 N 707.597 3.89728 -2.50332 0
M  V30 7381 C 708.332 4.76155 -3.19475 0
M  V30 7382 N 707.828 5.67073 -3.97995 0
M  V30 7383 N 709.621 4.6988 -3.08496 0
M  V30 7384 H 701.772 1.01613 -1.86517 0
M  V30 7385 H 704.035 0.507443 -0.800753 0
M  V30 7386 H 703.741 2.35542 -2.61176 0
M  V30 7387 H 703.615 3.53423 -1.31804 0
M  V30 7388 H 706.002 2.89792 -0.557208 0
M  V30 7389 H 706.083 1.73018 -1.8841 0
M  V30 7390 H 705.727 3.63224 -3.55008 0
M  V30 7391 H 705.657 4.7867 -2.19505 0
M  V30 7392 H 708.148 3.24717 -1.93306 0
M  V30 7393 H 708.461 6.2988 -4.4774 0
M  V30 7394 H 706.806 5.6687 -4.02098 0
M  V30 7395 H 709.997 3.97848 -2.46646 0
M  V30 7396 H 710.17 5.37017 -3.62652 0
M  V30 7397 N 703.576 0.692616 1.41565 0
M  V30 7398 C 704.508 -0.0137132 2.29196 0
M  V30 7399 C 705.521 -0.747417 1.44629 0
M  V30 7400 O 706.71 -0.598611 1.68163 0
M  V30 7401 C 703.81 -1.04347 3.22436 0
M  V30 7402 C 702.983 -0.379985 4.35746 0
M  V30 7403 C 702.042 -1.31195 5.09583 0
M  V30 7404 O 701.068 -0.805455 5.63472 0
M  V30 7405 N 702.27 -2.64443 5.16769 0
M  V30 7406 H 705.035 0.738614 2.90456 0
M  V30 7407 H 702.596 0.538415 1.52685 0
M  V30 7408 H 704.588 -1.6686 3.687 0
M  V30 7409 H 703.158 -1.69736 2.62504 0
M  V30 7410 H 702.378 0.424975 3.91903 0
M  V30 7411 H 703.666 0.0814904 5.08735 0
M  V30 7412 H 703.064 -3.08114 4.74428 0
M  V30 7413 H 701.621 -3.22159 5.66619 0
M  V30 7414 N 705.054 -1.51416 0.437162 0
M  V30 7415 C 706.302 -2.01687 -0.129108 0
M  V30 7416 C 706.623 -1.32329 -1.43227 0
M  V30 7417 O 705.893 -0.457796 -1.90476 0
M  V30 7418 H 704.473 -0.745277 -0.0507023 0
M  V30 7419 H 707.135 -1.86075 0.579828 0
M  V30 7420 H 706.231 -3.10605 -0.305141 0
M  V30 7421 N 706.532 -0.168513 -1.56696 0
M  V30 7422 C 707.465 0.801477 -2.13662 0
M  V30 7423 C 708.443 1.22786 -1.06594 0
M  V30 7424 O 709.627 1.32014 -1.34554 0
M  V30 7425 C 706.754 2.07896 -2.6739 0
M  V30 7426 C 705.8 1.79681 -3.86803 0
M  V30 7427 S 706.633 0.968556 -5.26668 0
M  V30 7428 C 707.789 2.25676 -5.83799 0
M  V30 7429 H 708.022 0.317121 -2.95604 0
M  V30 7430 H 705.555 0.0461132 -1.54331 0
M  V30 7431 H 707.513 2.81272 -2.98992 0
M  V30 7432 H 706.174 2.53445 -1.85539 0
M  V30 7433 H 705.367 2.74461 -4.22714 0
M  V30 7434 H 704.969 1.14402 -3.56073 0
M  V30 7435 H 707.261 3.2116 -5.96542 0
M  V30 7436 H 708.204 1.94238 -6.80939 0
M  V30 7437 H 708.612 2.37308 -5.12197 0
M  V30 7438 N 708.01 1.57248 0.105221 0
M  V30 7439 C 709.421 1.74612 0.660865 0
M  V30 7440 C 709.772 0.789231 1.79626 0
M  V30 7441 O 708.897 -0.0346611 2.16372 0
M  V30 7442 C 709.492 3.16624 1.20559 0
M  V30 7443 C 708.051 3.35447 1.7074 0
M  V30 7444 C 707.198 2.70445 0.612764 0
M  V30 7445 H 710.149 1.5824 -0.12079 0
M  V30 7446 H 710.17 3.18937 2.07508 0
M  V30 7447 H 709.682 3.86245 0.379012 0
M  V30 7448 H 707.783 2.7089 2.5583 0
M  V30 7449 H 707.896 4.43702 1.80736 0
M  V30 7450 H 706.26 2.32061 1.04975 0
M  V30 7451 H 707.043 3.42699 -0.203066 0
M  V30 7452 N 709.488 -0.375779 1.53054 0
M  V30 7453 C 710.904 -0.716764 1.426 0
M  V30 7454 C 711.104 -1.93651 0.556931 0
M  V30 7455 O 710.16 -2.52475 0.0354461 0
M  V30 7456 C 711.473 -0.939499 2.85646 0
M  V30 7457 C 713.021 -1.04015 2.95212 0
M  V30 7458 C 713.496 -1.29543 4.39298 0
M  V30 7459 N 714.987 -1.36335 4.42682 0
M  V30 7460 C 715.722 -1.57778 5.51266 0
M  V30 7461 N 715.218 -1.76604 6.69913 0
M  V30 7462 N 717.011 -1.60065 5.38828 0
M  V30 7463 H 709.162 0.42664 2.08071 0
M  V30 7464 H 711.425 0.128758 0.939215 0
M  V30 7465 H 711.131 -0.115189 3.51511 0
M  V30 7466 H 711.005 -1.85048 3.2869 0
M  V30 7467 H 713.392 -1.85501 2.29507 0
M  V30 7468 H 713.473 -0.106785 2.55577 0
M  V30 7469 H 713.117 -0.485611 5.05573 0
M  V30 7470 H 713.047 -2.24184 4.76497 0
M  V30 7471 H 715.538 -1.23441 3.5717 0
M  V30 7472 H 715.851 -1.9251 7.48438 0
M  V30 7473 H 714.196 -1.73802 6.72917 0
M  V30 7474 H 717.387 -1.44917 4.45103 0
M  V30 7475 H 717.56 -1.76435 6.23518 0
M  V30 7476 N 710.966 -1.44241 -0.634997 0
M  V30 7477 C 712.382 -1.28043 -0.952742 0
M  V30 7478 C 712.582 -0.21338 -2.00367 0
M  V30 7479 O 711.638 0.402042 -2.49279 0
M  V30 7480 C 712.951 -2.65076 -1.41968 0
M  V30 7481 C 714.499 -2.72755 -1.53537 0
M  V30 7482 C 714.974 -4.10249 -2.03616 0
M  V30 7483 N 716.465 -4.12406 -2.10892 0
M  V30 7484 C 717.2 -5.15641 -2.50803 0
M  V30 7485 N 716.696 -6.29239 -2.89879 0
M  V30 7486 N 718.489 -5.02995 -2.50903 0
M  V30 7487 H 710.64 -2.12315 0.060098 0
M  V30 7488 H 712.903 -0.947326 -0.0357325 0
M  V30 7489 H 712.609 -3.44213 -0.721804 0
M  V30 7490 H 712.483 -2.91704 -2.39141 0
M  V30 7491 H 714.87 -1.93939 -2.22422 0
M  V30 7492 H 714.951 -2.49872 -0.547496 0
M  V30 7493 H 714.595 -4.8954 -1.35327 0
M  V30 7494 H 714.525 -4.30507 -3.03268 0
M  V30 7495 H 717.016 -3.30417 -1.83393 0
M  V30 7496 H 717.329 -7.03827 -3.19135 0
M  V30 7497 H 715.674 -6.32683 -2.8764 0
M  V30 7498 H 718.865 -4.13306 -2.19763 0
M  V30 7499 H 719.038 -5.83574 -2.81683 0
M  V30 7500 N 712.444 0.87505 -1.31075 0
M  V30 7501 C 713.674 1.65818 -1.2324 0
M  V30 7502 C 714.082 1.8808 0.205536 0
M  V30 7503 O 713.425 1.43548 1.14628 0
M  V30 7504 C 713.487 3.05131 -1.90093 0
M  V30 7505 C 713.151 3.05999 -3.39432 0
M  V30 7506 C 714.148 2.84328 -4.35263 0
M  V30 7507 C 711.833 3.27281 -3.81041 0
M  V30 7508 C 713.827 2.83912 -5.70678 0
M  V30 7509 C 711.514 3.26493 -5.16571 0
M  V30 7510 C 712.512 3.04834 -6.112 0
M  V30 7511 O 712.2 3.03882 -7.44252 0
M  V30 7512 H 711.932 0.52387 -0.427242 0
M  V30 7513 H 714.486 1.10086 -1.73408 0
M  V30 7514 H 712.716 3.62568 -1.34468 0
M  V30 7515 H 714.405 3.65641 -1.76242 0
M  V30 7516 H 715.171 2.67673 -4.04445 0
M  V30 7517 H 711.05 3.43171 -3.07822 0
M  V30 7518 H 714.594 2.66925 -6.44513 0
M  V30 7519 H 710.491 3.42687 -5.47025 0
M  V30 7520 H 711.259 3.19979 -7.53363 0
M  V30 7521 N 713.922 1.13953 1.08869 0
M  V30 7522 C 715.171 0.899431 1.80536 0
M  V30 7523 C 715.484 -0.575781 1.86933 0
M  V30 7524 O 716.69 -0.932988 2.54966 0
M  V30 7525 C 715.146 1.55963 3.24351 0
M  V30 7526 C 714.754 3.07077 3.26202 0
M  V30 7527 C 716.498 1.40046 4.00733 0
M  V30 7528 C 714.405 3.65955 4.64576 0
M  V30 7529 H 713.335 0.332849 0.676556 0
M  V30 7530 H 715.986 1.3679 1.22314 0
M  V30 7531 H 714.368 1.01883 3.82669 0
M  V30 7532 H 715.542 3.67785 2.77617 0
M  V30 7533 H 713.857 3.22576 2.63312 0
M  V30 7534 H 716.454 1.81441 5.02974 0
M  V30 7535 H 716.797 0.345993 4.1486 0
M  V30 7536 H 717.33 1.91137 3.48872 0
M  V30 7537 H 714.069 4.71234 4.55652 0
M  V30 7538 H 713.589 3.10027 5.13462 0
M  V30 7539 H 715.268 3.65968 5.33551 0
M  V30 7540 N 715.4 -1.26948 0.933913 0
M  V30 7541 C 716.677 -1.89212 0.495784 0
M  V30 7542 C 717.057 -1.84469 -1.02637 0
M  V30 7543 O 716.405 -1.29409 -1.88323 0
M  V30 7544 C 716.615 -3.32865 1.0489 0
M  V30 7545 C 717.963 -4.09749 1.11315 0
M  V30 7546 O 718.987 -3.41905 0.998966 0
M  V30 7547 O 717.846 -5.31061 1.28983 0
M  V30 7548 H 714.94 -0.811284 0.160459 0
M  V30 7549 H 717.486 -1.35171 1.02601 0
M  V30 7550 H 716.258 -3.30642 2.09265 0
M  V30 7551 H 715.881 -3.94435 0.500692 0
M  V30 7552 N 716.879 -0.700114 -1.41195 0
M  V30 7553 C 718.109 -0.241828 -2.0518 0
M  V30 7554 C 718.517 1.1157 -1.52803 0
M  V30 7555 O 717.86 1.70926 -0.673042 0
M  V30 7556 C 717.922 -0.12695 -3.59276 0
M  V30 7557 C 717.586 -1.41725 -4.34469 0
M  V30 7558 C 718.583 -2.35604 -4.63451 0
M  V30 7559 C 716.268 -1.67189 -4.73659 0
M  V30 7560 C 718.262 -3.53204 -5.3059 0
M  V30 7561 C 715.949 -2.85073 -5.40534 0
M  V30 7562 C 716.947 -3.77904 -5.68927 0
M  V30 7563 O 716.635 -4.93723 -6.34424 0
M  V30 7564 H 716.367 -0.109247 -0.667114 0
M  V30 7565 H 718.921 -0.954538 -1.81873 0
M  V30 7566 H 717.151 0.641571 -3.81341 0
M  V30 7567 H 718.84 0.294748 -4.04828 0
M  V30 7568 H 719.606 -2.1719 -4.33651 0
M  V30 7569 H 715.485 -0.957935 -4.50937 0
M  V30 7570 H 719.029 -4.25679 -5.52669 0
M  V30 7571 H 714.926 -3.03402 -5.69752 0
M  V30 7572 H 715.694 -4.93597 -6.5292 0
M  V30 7573 N 718.357 1.51182 -0.445186 0
M  V30 7574 C 719.768 1.86693 0.0160999 0
M  V30 7575 C 720.119 1.36183 1.4124 0
M  V30 7576 O 719.244 0.715895 2.04215 0
M  V30 7577 C 719.839 3.38781 0.0359918 0
M  V30 7578 C 718.398 3.73799 0.441715 0
M  V30 7579 C 717.545 2.74947 -0.360511 0
M  V30 7580 H 720.496 1.44294 -0.660674 0
M  V30 7581 H 720.517 3.71026 0.843813 0
M  V30 7582 H 720.029 3.75513 -0.980378 0
M  V30 7583 H 718.13 3.42659 1.4634 0
M  V30 7584 H 718.243 4.78829 0.16106 0
M  V30 7585 H 716.607 2.54047 0.182269 0
M  V30 7586 H 717.39 3.14521 -1.3759 0
M  V30 7587 N 719.835 0.176821 1.56605 0
M  V30 7588 C 720.745 -0.763682 2.21822 0
M  V30 7589 C 721.761 -1.24889 1.21156 0
M  V30 7590 O 722.937 -1.29987 1.53836 0
M  V30 7591 C 720.002 -1.97352 2.8505 0
M  V30 7592 C 719.063 -1.53466 4.00932 0
M  V30 7593 C 718.296 -2.68682 4.61135 0
M  V30 7594 O 718.519 -3.85694 4.20234 0
M  V30 7595 O 717.453 -2.42442 5.50913 0
M  V30 7596 H 721.279 -0.238363 3.02763 0
M  V30 7597 H 718.864 -0.0516331 1.49311 0
M  V30 7598 H 720.746 -2.68096 3.25119 0
M  V30 7599 H 719.421 -2.48779 2.07101 0
M  V30 7600 H 718.328 -0.796551 3.65521 0
M  V30 7601 H 719.661 -1.06724 4.8049 0
M  V30 7602 N 721.313 -1.57302 -0.09688 0
M  V30 7603 C 722.276 -2.00976 -1.10188 0
M  V30 7604 C 723.276 -0.903009 -1.3305 0
M  V30 7605 O 724.466 -1.16853 -1.29194 0
M  V30 7606 C 721.598 -2.36893 -2.45142 0
M  V30 7607 H 722.791 -2.9098 -0.726003 0
M  V30 7608 H 720.344 -1.52515 -0.341872 0
M  V30 7609 H 721.079 -1.49837 -2.8761 0
M  V30 7610 H 720.864 -3.17632 -2.29897 0
M  V30 7611 H 722.354 -2.71345 -3.1743 0
M  V30 7612 N 722.791 0.367657 -1.53252 0
M  V30 7613 C 724.038 1.11052 -1.69333 0
M  V30 7614 C 724.366 1.89363 -0.444064 0
M  V30 7615 O 723.621 1.87094 0.573953 0
M  V30 7616 C 723.92 2.09825 -2.89324 0
M  V30 7617 C 723.586 1.4801 -4.25915 0
M  V30 7618 C 722.248 1.30879 -4.6306 0
M  V30 7619 C 724.6 1.03268 -5.10867 0
M  V30 7620 C 721.928 0.675868 -5.82794 0
M  V30 7621 C 724.28 0.41377 -6.31245 0
M  V30 7622 C 722.944 0.229939 -6.67104 0
M  V30 7623 H 722.214 0.406367 -0.619634 0
M  V30 7624 H 724.861 0.392558 -1.87433 0
M  V30 7625 H 723.166 2.87917 -2.65728 0
M  V30 7626 H 724.863 2.67252 -2.98961 0
M  V30 7627 H 721.453 1.62336 -3.96667 0
M  V30 7628 H 725.637 1.15297 -4.82722 0
M  V30 7629 H 720.893 0.521833 -6.09169 0
M  V30 7630 H 725.067 0.0588768 -6.96375 0
M  V30 7631 H 722.694 -0.262562 -7.59746 0
M  V30 7632 N 724.269 1.44576 0.627338 0
M  V30 7633 C 725.232 1.51372 1.72102 0
M  V30 7634 C 726.232 0.395329 1.55865 0
M  V30 7635 O 727.422 0.658094 1.61291 0
M  V30 7636 C 724.554 1.39129 3.11217 0
M  V30 7637 H 725.747 2.48798 1.6745 0
M  V30 7638 H 723.3 1.31724 0.841336 0
M  V30 7639 H 724.035 0.428114 3.21462 0
M  V30 7640 H 723.82 2.20229 3.24409 0
M  V30 7641 H 725.31 1.46874 3.90919 0
M  V30 7642 N 725.747 -0.868086 1.31537 0
M  V30 7643 C 726.975 -1.65402 1.24298 0
M  V30 7644 C 727.39 -1.87827 -0.191389 0
M  V30 7645 O 726.747 -1.43776 -1.12404 0
M  V30 7646 C 726.798 -3.02093 1.9855 0
M  V30 7647 O 726.519 -2.80668 3.36388 0
M  V30 7648 C 728.02 -3.96538 1.98173 0
M  V30 7649 H 725.24 -0.515598 0.429417 0
M  V30 7650 H 727.784 -1.0834 1.73444 0
M  V30 7651 H 725.939 -3.55838 1.53161 0
M  V30 7652 H 726.353 -3.67504 3.74221 0
M  V30 7653 H 727.827 -4.8976 2.54635 0
M  V30 7654 H 728.304 -4.28474 0.964697 0
M  V30 7655 H 728.91 -3.48729 2.4345 0
M  V30 7656 N 727.225 -1.14528 -1.08264 0
M  V30 7657 C 728.471 -0.925721 -1.81113 0
M  V30 7658 C 728.826 0.54185 -1.84612 0
M  V30 7659 O 728.119 1.39628 -1.31205 0
M  V30 7660 C 728.313 -1.46226 -3.26117 0
M  V30 7661 C 728.142 -2.98047 -3.36746 0
M  V30 7662 C 726.912 -3.66508 -3.4785 0
M  V30 7663 C 729.11 -3.95903 -3.28277 0
M  V30 7664 N 727.092 -5.06227 -3.47285 0
M  V30 7665 C 728.463 -5.21883 -3.34721 0
M  V30 7666 C 730.518 -3.88002 -3.12024 0
M  V30 7667 C 729.221 -6.40886 -3.26585 0
M  V30 7668 C 731.247 -5.06553 -3.05219 0
M  V30 7669 C 730.609 -6.31403 -3.12266 0
M  V30 7670 H 726.708 -0.392294 -0.676483 0
M  V30 7671 H 729.292 -1.45567 -1.293 0
M  V30 7672 H 727.463 -0.959076 -3.76373 0
M  V30 7673 H 729.195 -1.18247 -3.8704 0
M  V30 7674 H 725.95 -3.17067 -3.51804 0
M  V30 7675 H 726.374 -5.79172 -3.50555 0
M  V30 7676 H 731.016 -2.9235 -3.05436 0
M  V30 7677 H 728.734 -7.36781 -3.31934 0
M  V30 7678 H 732.32 -5.02191 -2.93761 0
M  V30 7679 H 731.2 -7.21596 -3.07032 0
M  V30 7680 N 728.703 1.26451 -0.940633 0
M  V30 7681 C 729.651 2.28389 -0.440581 0
M  V30 7682 C 730.645 1.62402 0.481859 0
M  V30 7683 O 731.851 1.76361 0.360132 0
M  V30 7684 H 728.226 0.741716 -0.123938 0
M  V30 7685 H 730.197 2.67967 -1.31288 0
M  V30 7686 C 728.946 3.46576 0.279364 0
M  V30 7687 H 728.269 3.97574 -0.421274 0
M  V30 7688 H 729.709 4.19826 0.59348 0
M  V30 7689 C 728.168 3.01815 1.49697 0
M  V30 7690 O 728.698 3.06607 2.59529 0
M  V30 7691 N 726.904 2.57163 1.35334 0
M  V30 7692 H 726.451 2.53464 0.459743 0
M  V30 7693 H 726.409 2.27578 2.16923 0
M  V30 7694 N 730.181 0.707592 1.40822 0
M  V30 7695 C 731.428 0.243671 2.01029 0
M  V30 7696 C 731.756 -1.16057 1.5608 0
M  V30 7697 O 731.011 -1.7999 0.768251 0
M  V30 7698 C 731.31 0.262892 3.56432 0
M  V30 7699 C 730.976 1.61632 4.20935 0
M  V30 7700 C 729.638 1.98682 4.38268 0
M  V30 7701 C 731.99 2.50619 4.5699 0
M  V30 7702 C 729.318 3.2428 4.88937 0
M  V30 7703 C 731.67 3.75562 5.09054 0
M  V30 7704 C 730.334 4.12739 5.24598 0
M  V30 7705 H 729.604 0.0891654 0.735616 0
M  V30 7706 H 732.251 0.909051 1.68548 0
M  V30 7707 H 730.556 -0.486052 3.88773 0
M  V30 7708 H 732.253 -0.113775 4.00839 0
M  V30 7709 H 728.843 1.31818 4.07826 0
M  V30 7710 H 733.027 2.23272 4.43242 0
M  V30 7711 H 728.283 3.53064 4.99155 0
M  V30 7712 H 732.457 4.44692 5.35931 0
M  V30 7713 H 730.084 5.10132 5.63622 0
M  V30 7714 N 731.66 -1.50943 0.453197 0
M  V30 7715 C 732.906 -2.02512 -0.108082 0
M  V30 7716 C 733.239 -1.33574 -1.40967 0
M  V30 7717 O 732.514 -0.455671 -1.89087 0
M  V30 7718 C 732.797 -3.58759 -0.310453 0
M  V30 7719 C 732.65 -4.38293 1.0109 0
M  V30 7720 C 733.969 -4.26816 -1.07313 0
M  V30 7721 H 731.088 -0.73603 -0.0378064 0
M  V30 7722 H 733.73 -1.80433 0.595295 0
M  V30 7723 H 731.88 -3.77702 -0.909582 0
M  V30 7724 H 733.552 -4.30964 1.64523 0
M  V30 7725 H 731.795 -4.02745 1.61179 0
M  V30 7726 H 732.466 -5.45828 0.82315 0
M  V30 7727 H 734.942 -4.1224 -0.565473 0
M  V30 7728 H 733.818 -5.35989 -1.1835 0
M  V30 7729 H 734.079 -3.88757 -2.10525 0
M  V30 7730 N 733.138 -0.185124 -1.56509 0
M  V30 7731 C 734.363 0.465278 -2.02114 0
M  V30 7732 C 734.788 1.55083 -1.06447 0
M  V30 7733 O 734.146 1.81241 -0.0462852 0
M  V30 7734 C 734.194 1.00784 -3.46229 0
M  V30 7735 O 733.298 2.12123 -3.53663 0
M  V30 7736 H 732.639 0.109891 -0.654843 0
M  V30 7737 H 735.169 -0.293072 -2.0249 0
M  V30 7738 H 735.179 1.32697 -3.85818 0
M  V30 7739 H 733.854 0.213113 -4.15354 0
M  V30 7740 H 732.431 1.8115 -3.25943 0
M  V30 7741 N 734.616 1.57351 0.0885366 0
M  V30 7742 C 735.841 1.91011 0.80805 0
M  V30 7743 C 736.266 0.780009 1.71165 0
M  V30 7744 O 735.624 -0.268083 1.79307 0
M  V30 7745 C 735.672 3.23562 1.59185 0
M  V30 7746 O 734.776 3.11615 2.7013 0
M  V30 7747 H 734.117 0.625943 0.221565 0
M  V30 7748 H 736.647 2.04507 0.0617954 0
M  V30 7749 H 736.657 3.5703 1.97468 0
M  V30 7750 H 735.332 4.05398 0.928741 0
M  V30 7751 H 733.909 2.89673 2.34827 0
M  V30 7752 N 736.094 -0.359525 1.53444 0
M  V30 7753 C 737.024 -1.44662 1.8329 0
M  V30 7754 C 738.005 -1.55617 0.68683 0
M  V30 7755 O 739.19 -1.70086 0.93725 0
M  V30 7756 C 736.32 -2.81923 2.02822 0
M  V30 7757 C 735.274 -2.85787 3.18606 0
M  V30 7758 C 734.6 -4.25781 3.23442 0
M  V30 7759 C 735.9 -2.52762 4.57065 0
M  V30 7760 H 737.594 -1.19934 2.74329 0
M  V30 7761 H 735.14 -0.575517 1.31999 0
M  V30 7762 H 737.093 -3.58005 2.22285 0
M  V30 7763 H 735.817 -3.08051 1.085 0
M  V30 7764 H 734.476 -2.12157 2.98973 0
M  V30 7765 H 734.124 -4.48994 2.26745 0
M  V30 7766 H 733.824 -4.29281 4.01238 0
M  V30 7767 H 735.348 -5.03727 3.45096 0
M  V30 7768 H 736.762 -3.18557 4.76649 0
M  V30 7769 H 735.159 -2.67569 5.37147 0
M  V30 7770 H 736.229 -1.47993 4.61764 0
M  V30 7771 N 737.572 -1.44907 -0.619662 0
M  V30 7772 C 738.82 -1.47999 -1.37625 0
M  V30 7773 C 739.141 -0.118295 -1.94641 0
M  V30 7774 O 738.411 0.85086 -1.76457 0
M  V30 7775 H 736.991 -0.544993 -0.510873 0
M  V30 7776 H 739.653 -1.80772 -0.728522 0
M  V30 7777 H 738.749 -2.21196 -2.20179 0
M  V30 7778 N 739.05 0.861098 -1.31996 0
M  V30 7779 C 740.013 1.95068 -1.20338 0
M  V30 7780 C 741.013 1.60289 -0.128114 0
M  V30 7781 O 742.203 1.70048 -0.378044 0
M  V30 7782 C 739.335 3.30153 -0.849205 0
M  V30 7783 H 740.528 2.06833 -2.17164 0
M  V30 7784 H 738.081 1.05049 -1.15734 0
M  V30 7785 H 738.816 3.24087 0.117508 0
M  V30 7786 H 738.601 3.56771 -1.62655 0
M  V30 7787 H 740.091 4.10025 -0.791782 0
M  V30 7788 N 740.528 1.15101 1.07655 0
M  V30 7789 C 741.775 0.923974 1.80191 0
M  V30 7790 C 742.103 -0.549065 1.86589 0
M  V30 7791 O 741.358 -1.42307 1.3434 0
M  V30 7792 C 741.657 1.47954 3.25337 0
M  V30 7793 C 741.323 2.97253 3.39044 0
M  V30 7794 C 739.985 3.38012 3.42493 0
M  V30 7795 C 742.337 3.93219 3.42094 0
M  V30 7796 C 739.665 4.73384 3.4659 0
M  V30 7797 C 742.017 5.28458 3.47728 0
M  V30 7798 C 740.681 5.68717 3.49453 0
M  V30 7799 H 739.951 0.338106 0.659367 0
M  V30 7800 H 742.598 1.43594 1.26701 0
M  V30 7801 H 740.903 0.888691 3.81588 0
M  V30 7802 H 742.6 1.27972 3.80032 0
M  V30 7803 H 739.19 2.64746 3.37057 0
M  V30 7804 H 743.374 3.62805 3.38654 0
M  V30 7805 H 738.63 5.03925 3.46222 0
M  V30 7806 H 742.804 6.02618 3.49034 0
M  V30 7807 H 740.431 6.73596 3.5238 0
M  V30 7808 N 742.006 -1.2595 0.947325 0
M  V30 7809 C 742.936 -2.28521 0.479604 0
M  V30 7810 C 743.917 -1.63469 -0.470293 0
M  V30 7811 O 745.102 -1.90627 -0.370824 0
M  V30 7812 C 742.232 -3.46397 -0.250289 0
M  V30 7813 C 741.186 -4.23578 0.613643 0
M  V30 7814 C 740.512 -5.34131 -0.246568 0
M  V30 7815 C 741.812 -4.86979 1.88809 0
M  V30 7816 H 743.506 -2.67895 1.33688 0
M  V30 7817 H 741.052 -1.28783 0.644274 0
M  V30 7818 H 743.005 -4.17269 -0.588576 0
M  V30 7819 H 741.729 -3.05993 -1.14175 0
M  V30 7820 H 740.388 -3.54478 0.93491 0
M  V30 7821 H 740.036 -4.89968 -1.13756 0
M  V30 7822 H 739.736 -5.86683 0.328123 0
M  V30 7823 H 741.26 -6.07839 -0.579986 0
M  V30 7824 H 742.674 -5.50034 1.61666 0
M  V30 7825 H 741.071 -5.49675 2.40784 0
M  V30 7826 H 742.141 -4.09575 2.5957 0
M  V30 7827 N 743.484 -0.715051 -1.40445 0
M  V30 7828 C 744.709 -0.26254 -2.05732 0
M  V30 7829 C 745.134 1.08691 -1.53519 0
M  V30 7830 O 744.492 1.68453 -0.670328 0
M  V30 7831 C 744.54 -0.25195 -3.59719 0
M  V30 7832 O 743.644 0.766998 -4.05205 0
M  V30 7833 H 742.985 -0.123398 -0.652433 0
M  V30 7834 H 745.515 -0.975382 -1.79854 0
M  V30 7835 H 745.525 -0.0894537 -4.07902 0
M  V30 7836 H 744.2 -1.23672 -3.97087 0
M  V30 7837 H 742.777 0.572269 -3.68483 0
M  V30 7838 N 744.962 1.50701 -0.461195 0
M  V30 7839 C 746.209 2.02267 0.0971971 0
M  V30 7840 C 746.537 1.34387 1.40608 0
M  V30 7841 O 745.792 0.455254 1.90331 0
M  V30 7842 C 746.091 3.55788 0.33908 0
M  V30 7843 C 745.757 4.42092 -0.886885 0
M  V30 7844 C 744.419 4.65398 -1.22304 0
M  V30 7845 C 746.771 4.92571 -1.70361 0
M  V30 7846 C 744.099 5.36429 -2.37616 0
M  V30 7847 C 746.451 5.64868 -2.84793 0
M  V30 7848 C 745.115 5.86431 -3.18834 0
M  V30 7849 H 744.385 0.740146 0.0355669 0
M  V30 7850 H 747.032 1.81415 -0.61326 0
M  V30 7851 H 745.337 3.751 1.13168 0
M  V30 7852 H 747.034 3.93243 0.784937 0
M  V30 7853 H 743.624 4.24165 -0.614981 0
M  V30 7854 H 747.808 4.74428 -1.4571 0
M  V30 7855 H 743.064 5.51333 -2.64276 0
M  V30 7856 H 747.238 6.02966 -3.48432 0
M  V30 7857 H 744.865 6.41248 -4.08296 0
M  V30 7858 N 746.441 0.193421 1.56409 0
M  V30 7859 C 747.404 -0.714371 2.17783 0
M  V30 7860 C 748.404 -1.1422 1.13183 0
M  V30 7861 O 749.594 -1.05557 1.38576 0
M  V30 7862 C 746.726 -1.97509 2.77855 0
M  V30 7863 H 747.919 -0.179714 2.99361 0
M  V30 7864 H 745.472 -0.0561944 1.56199 0
M  V30 7865 H 746.207 -2.5523 2.0007 0
M  V30 7866 H 745.992 -1.67706 3.54425 0
M  V30 7867 H 747.482 -2.62246 3.24987 0
M  V30 7868 N 747.919 -1.57396 -0.0801906 0
M  V30 7869 C 749.144 -1.91437 -0.797909 0
M  V30 7870 C 749.569 -0.789075 -1.70749 0
M  V30 7871 O 748.927 0.25857 -1.79447 0
M  V30 7872 C 748.975 -3.24402 -1.57467 0
M  V30 7873 O 748.079 -3.13043 -2.68473 0
M  V30 7874 H 747.42 -0.627109 -0.218243 0
M  V30 7875 H 749.95 -2.04537 -0.050949 0
M  V30 7876 H 749.96 -3.58072 -1.95571 0
M  V30 7877 H 748.635 -4.05884 -0.907229 0
M  V30 7878 H 747.212 -2.90915 -2.33287 0
M  V30 7879 N 749.397 0.351382 -1.53633 0
M  V30 7880 C 750.644 1.0925 -1.70502 0
M  V30 7881 C 750.972 1.88881 -0.464123 0
M  V30 7882 O 750.227 1.87693 0.554077 0
M  V30 7883 C 750.526 2.06744 -2.91533 0
M  V30 7884 C 750.192 1.43484 -4.27461 0
M  V30 7885 C 748.854 1.2596 -4.64422 0
M  V30 7886 C 751.206 0.978436 -5.11934 0
M  V30 7887 C 748.534 0.614017 -5.83478 0
M  V30 7888 C 750.886 0.346795 -6.31649 0
M  V30 7889 C 749.55 0.15917 -6.6731 0
M  V30 7890 H 748.82 0.399773 -0.623909 0
M  V30 7891 H 751.467 0.372656 -1.87839 0
M  V30 7892 H 749.772 2.85082 -2.68767 0
M  V30 7893 H 751.469 2.64066 -3.01778 0
M  V30 7894 H 748.059 1.5812 -3.98367 0
M  V30 7895 H 752.243 1.1017 -4.83918 0
M  V30 7896 H 747.499 0.457194 -6.09688 0
M  V30 7897 H 751.673 -0.0149864 -6.96398 0
M  V30 7898 H 749.3 -0.343129 -7.59425 0
M  V30 7899 N 750.875 1.45233 0.611969 0
M  V30 7900 C 751.805 1.5641 1.73373 0
M  V30 7901 C 752.786 0.415896 1.64937 0
M  V30 7902 O 753.971 0.638478 1.83404 0
M  V30 7903 C 751.101 1.52627 3.11965 0
M  V30 7904 C 750.055 2.66119 3.35208 0
M  V30 7905 C 749.381 2.4739 4.74028 0
M  V30 7906 C 750.681 4.08157 3.25891 0
M  V30 7907 H 752.375 2.50307 1.64277 0
M  V30 7908 H 749.921 1.20467 0.788904 0
M  V30 7909 H 751.874 1.59043 3.90235 0
M  V30 7910 H 750.598 0.552564 3.21892 0
M  V30 7911 H 749.257 2.59123 2.59327 0
M  V30 7912 H 748.905 1.48168 4.80682 0
M  V30 7913 H 748.605 3.23494 4.90536 0
M  V30 7914 H 750.129 2.55653 5.54503 0
M  V30 7915 H 751.543 4.1642 3.9404 0
M  V30 7916 H 749.94 4.84617 3.5393 0
M  V30 7917 H 751.01 4.30374 2.23397 0
M  V30 7918 N 752.353 -0.854086 1.3245 0
M  V30 7919 C 753.6 -1.60831 1.23043 0
M  V30 7920 C 753.928 -1.93389 -0.2076 0
M  V30 7921 O 753.183 -1.5756 -1.16075 0
M  V30 7922 C 753.482 -2.93746 2.03587 0
M  V30 7923 C 753.148 -2.80615 3.52939 0
M  V30 7924 C 751.81 -2.76742 3.93659 0
M  V30 7925 C 754.162 -2.66507 4.4791 0
M  V30 7926 C 751.49 -2.56638 5.27592 0
M  V30 7927 C 753.842 -2.47939 5.81987 0
M  V30 7928 C 752.506 -2.42458 6.21909 0
M  V30 7929 H 751.776 -0.588523 0.450247 0
M  V30 7930 H 754.423 -0.990699 1.63882 0
M  V30 7931 H 752.728 -3.5963 1.55478 0
M  V30 7932 H 754.425 -3.51127 1.93677 0
M  V30 7933 H 751.015 -2.84456 3.20598 0
M  V30 7934 H 755.199 -2.68544 4.1737 0
M  V30 7935 H 750.455 -2.50831 5.57579 0
M  V30 7936 H 754.629 -2.36002 6.55192 0
M  V30 7937 H 752.256 -2.2664 7.2563 0
M  V30 7938 N 753.831 -1.1567 -1.07043 0
M  V30 7939 C 755.078 -0.933517 -1.79699 0
M  V30 7940 C 755.406 0.539162 -1.86878 0
M  V30 7941 O 754.661 1.41592 -1.35093 0
M  V30 7942 C 754.96 -1.49677 -3.24548 0
M  V30 7943 C 754.626 -2.99047 -3.37463 0
M  V30 7944 C 753.288 -3.39824 -3.40695 0
M  V30 7945 C 755.64 -3.95027 -3.40004 0
M  V30 7946 C 752.968 -4.75215 -3.44075 0
M  V30 7947 C 755.32 -5.30295 -3.44921 0
M  V30 7948 C 753.984 -5.70562 -3.46432 0
M  V30 7949 H 753.254 -0.341598 -0.657565 0
M  V30 7950 H 755.901 -1.44263 -1.25938 0
M  V30 7951 H 754.206 -0.908915 -3.81111 0
M  V30 7952 H 755.903 -1.29986 -3.79348 0
M  V30 7953 H 752.493 -2.6653 -3.35648 0
M  V30 7954 H 756.677 -3.64596 -3.36725 0
M  V30 7955 H 751.933 -5.05754 -3.43545 0
M  V30 7956 H 756.107 -6.0446 -3.45833 0
M  V30 7957 H 753.734 -6.75456 -3.48803 0
M  V30 7958 N 755.309 1.25446 -0.953992 0
M  V30 7959 C 756.239 2.28264 -0.491717 0
M  V30 7960 C 757.22 1.63717 0.461617 0
M  V30 7961 O 758.405 1.90821 0.36071 0
M  V30 7962 C 755.535 3.46525 0.231915 0
M  V30 7963 C 754.489 4.23247 -0.636098 0
M  V30 7964 C 753.815 5.34254 0.218238 0
M  V30 7965 C 755.115 4.85971 -1.91389 0
M  V30 7966 H 756.809 2.67183 -1.35106 0
M  V30 7967 H 754.355 1.2844 -0.651095 0
M  V30 7968 H 756.308 4.17576 0.566439 0
M  V30 7969 H 755.032 3.06594 1.12551 0
M  V30 7970 H 753.691 3.53978 -0.953696 0
M  V30 7971 H 753.339 4.90564 1.11156 0
M  V30 7972 H 753.039 5.86501 -0.359232 0
M  V30 7973 H 754.563 6.08138 0.547743 0
M  V30 7974 H 755.977 5.49168 -1.64581 0
M  V30 7975 H 754.374 5.48391 -2.43696 0
M  V30 7976 H 755.444 4.08192 -2.61738 0
M  V30 7977 N 756.787 0.722489 1.40064 0
M  V30 7978 C 758.035 0.264455 2.00362 0
M  V30 7979 C 758.356 -1.14847 1.57592 0
M  V30 7980 O 757.626 -1.77982 0.818477 0
M  V30 7981 H 756.206 0.0947846 0.740962 0
M  V30 7982 H 758.868 0.929659 1.71299 0
M  V30 7983 H 757.964 0.302977 3.10626 0
M  V30 7984 N 758.265 -1.50454 0.469181 0
M  V30 7985 C 759.511 -2.02615 -0.0865971 0
M  V30 7986 C 759.844 -1.35062 -1.39542 0
M  V30 7987 O 759.119 -0.475701 -1.88593 0
M  V30 7988 C 759.402 -3.59068 -0.272385 0
M  V30 7989 C 759.255 -4.37196 1.05733 0
M  V30 7990 C 760.574 -4.2793 -1.0278 0
M  V30 7991 H 757.693 -0.736389 -0.0299977 0
M  V30 7992 H 760.335 -1.79792 0.614399 0
M  V30 7993 H 758.485 -3.78646 -0.869471 0
M  V30 7994 H 760.157 -4.29195 1.69084 0
M  V30 7995 H 758.4 -4.01013 1.65442 0
M  V30 7996 H 759.071 -5.44924 0.880997 0
M  V30 7997 H 761.547 -4.12816 -0.521718 0
M  V30 7998 H 760.423 -5.37214 -1.12659 0
M  V30 7999 H 760.684 -3.90968 -2.0639 0
M  V30 8000 N 759.743 -0.201713 -1.56304 0
M  V30 8001 C 760.992 0.435557 -1.96941 0
M  V30 8002 C 761.305 1.62299 -1.09172 0
M  V30 8003 O 762.511 2.32849 -1.3962 0
M  V30 8004 C 760.967 0.826298 -3.50286 0
M  V30 8005 C 760.575 -0.337216 -4.46729 0
M  V30 8006 C 762.319 1.43028 -3.99679 0
M  V30 8007 C 760.226 0.0748539 -5.91353 0
M  V30 8008 H 759.156 0.1665 -0.735387 0
M  V30 8009 H 761.807 -0.294781 -1.81117 0
M  V30 8010 H 760.189 1.61349 -3.61639 0
M  V30 8011 H 761.363 -1.11476 -4.47113 0
M  V30 8012 H 759.678 -0.853126 -4.07567 0
M  V30 8013 H 762.275 1.75115 -5.05212 0
M  V30 8014 H 762.618 2.33911 -3.44371 0
M  V30 8015 H 763.151 0.706924 -3.91468 0
M  V30 8016 H 759.89 -0.799957 -6.506 0
M  V30 8017 H 759.41 0.817122 -5.94208 0
M  V30 8018 H 761.089 0.508389 -6.45 0
M  V30 8019 N 761.222 1.57436 0.0718424 0
M  V30 8020 C 762.469 1.87248 0.771007 0
M  V30 8021 C 762.797 0.793441 1.7758 0
M  V30 8022 O 762.052 -0.210565 1.94564 0
M  V30 8023 C 762.351 3.23723 1.51455 0
M  V30 8024 C 762.017 4.46194 0.649736 0
M  V30 8025 C 760.679 4.79438 0.411409 0
M  V30 8026 C 763.031 5.21176 0.05004 0
M  V30 8027 C 760.359 5.85077 -0.436096 0
M  V30 8028 C 762.711 6.27712 -0.784919 0
M  V30 8029 C 761.375 6.59457 -1.03312 0
M  V30 8030 H 760.645 0.685188 0.282132 0
M  V30 8031 H 763.292 1.91474 0.0317896 0
M  V30 8032 H 761.597 3.15287 2.32597 0
M  V30 8033 H 763.294 3.44023 2.06031 0
M  V30 8034 H 759.884 4.20175 0.84562 0
M  V30 8035 H 764.068 4.95806 0.221282 0
M  V30 8036 H 759.324 6.08071 -0.637136 0
M  V30 8037 H 763.498 6.84974 -1.25635 0
M  V30 8038 H 761.125 7.4114 -1.6916 0
M  V30 8039 N 762.7 -0.34323 1.53817 0
M  V30 8040 C 763.93 -1.10188 1.74763 0
M  V30 8041 C 764.338 -1.82829 0.486856 0
M  V30 8042 O 763.681 -1.75236 -0.551198 0
M  V30 8043 C 763.743 -2.16 2.87375 0
M  V30 8044 C 763.407 -1.62931 4.26969 0
M  V30 8045 C 764.404 -1.08147 5.08528 0
M  V30 8046 C 762.089 -1.67769 4.73454 0
M  V30 8047 C 764.083 -0.589039 6.34672 0
M  V30 8048 C 761.77 -1.18138 5.99572 0
M  V30 8049 C 762.768 -0.637979 6.80014 0
M  V30 8050 O 762.456 -0.149073 8.03762 0
M  V30 8051 H 762.188 -0.33445 0.587469 0
M  V30 8052 H 764.742 -0.401109 2.01445 0
M  V30 8053 H 762.972 -2.89637 2.56218 0
M  V30 8054 H 764.661 -2.77432 2.96287 0
M  V30 8055 H 765.427 -1.03732 4.73777 0
M  V30 8056 H 761.306 -2.09004 4.10899 0
M  V30 8057 H 764.85 -0.164233 6.97407 0
M  V30 8058 H 760.747 -1.22254 6.33817 0
M  V30 8059 H 761.515 -0.266332 8.18067 0
M  V30 8060 N 764.178 -1.45556 -0.604258 0
M  V30 8061 C 765.406 -1.53278 -1.38973 0
M  V30 8062 C 765.821 -0.166509 -1.88064 0
M  V30 8063 O 765.178 0.832519 -1.62405 0
M  V30 8064 C 765.229 -2.51992 -2.59195 0
M  V30 8065 O 764.95 -3.8331 -2.12143 0
M  V30 8066 C 766.451 -2.69445 -3.52015 0
M  V30 8067 H 763.671 -0.519003 -0.425297 0
M  V30 8068 H 766.215 -1.90773 -0.736621 0
M  V30 8069 H 764.37 -2.17561 -3.2054 0
M  V30 8070 H 764.784 -4.3685 -2.90279 0
M  V30 8071 H 766.258 -3.42485 -4.32907 0
M  V30 8072 H 766.735 -1.75596 -4.0257 0
M  V30 8073 H 767.341 -3.04886 -2.9652 0
M  V30 8074 N 765.656 0.84705 -1.32902 0
M  V30 8075 C 766.586 1.97166 -1.25091 0
M  V30 8076 C 767.567 1.69578 -0.133161 0
M  V30 8077 O 768.752 1.91519 -0.321591 0
M  V30 8078 C 765.882 3.33157 -0.981006 0
M  V30 8079 C 764.836 3.75119 -2.06082 0
M  V30 8080 C 764.162 5.08826 -1.64318 0
M  V30 8081 C 765.462 3.89774 -3.47669 0
M  V30 8082 H 767.156 2.03958 -2.19184 0
M  V30 8083 H 764.702 0.979907 -1.05517 0
M  V30 8084 H 766.655 4.11393 -0.912891 0
M  V30 8085 H 765.379 3.266 -0.00445559 0
M  V30 8086 H 764.038 2.9914 -2.11921 0
M  V30 8087 H 763.686 4.98732 -0.653876 0
M  V30 8088 H 763.386 5.37873 -2.36572 0
M  V30 8089 H 764.91 5.89546 -1.58958 0
M  V30 8090 H 766.324 4.58343 -3.44376 0
M  V30 8091 H 764.721 4.30248 -4.18338 0
M  V30 8092 H 765.791 2.92463 -3.86773 0
M  V30 8093 N 767.134 1.16236 1.06428 0
M  V30 8094 C 768.362 0.967184 1.82902 0
M  V30 8095 C 768.777 -0.484601 1.82475 0
M  V30 8096 O 768.134 -1.33631 1.24294 0
M  V30 8097 C 768.185 1.48534 3.29576 0
M  V30 8098 O 767.906 2.88026 3.3011 0
M  V30 8099 C 769.407 1.33298 4.22784 0
M  V30 8100 H 766.627 0.342923 0.576754 0
M  V30 8101 H 769.171 1.54232 1.34286 0
M  V30 8102 H 767.326 0.952513 3.75508 0
M  V30 8103 H 767.74 3.11721 4.21818 0
M  V30 8104 H 769.214 1.74385 5.23731 0
M  V30 8105 H 769.691 0.278356 4.38317 0
M  V30 8106 H 770.297 1.85535 3.82697 0
M  V30 8107 N 768.612 -1.24939 0.960631 0
M  V30 8108 C 770.028 -1.45039 0.666018 0
M  V30 8109 C 770.228 -1.86021 -0.774501 0
M  V30 8110 O 769.284 -1.99392 -1.54916 0
M  V30 8111 C 770.597 -2.51775 1.64408 0
M  V30 8112 C 772.145 -2.6561 1.65592 0
M  V30 8113 C 772.62 -3.75536 2.62177 0
M  V30 8114 N 774.111 -3.82954 2.60577 0
M  V30 8115 C 774.846 -4.67517 3.31987 0
M  V30 8116 N 774.342 -5.56321 4.1289 0
M  V30 8117 N 776.135 -4.61535 3.20845 0
M  V30 8118 H 768.286 -0.96632 1.89145 0
M  V30 8119 H 770.549 -0.486034 0.813926 0
M  V30 8120 H 770.255 -2.28534 2.67329 0
M  V30 8121 H 770.129 -3.49804 1.41128 0
M  V30 8122 H 772.516 -2.88212 0.633846 0
M  V30 8123 H 772.597 -1.67962 1.92931 0
M  V30 8124 H 772.241 -3.53684 3.64514 0
M  V30 8125 H 772.171 -4.72682 2.32119 0
M  V30 8126 H 774.662 -3.19478 2.01847 0
M  V30 8127 H 774.975 -6.17787 4.64283 0
M  V30 8128 H 773.32 -5.5601 4.16987 0
M  V30 8129 H 776.511 -3.91169 2.57108 0
M  V30 8130 H 776.684 -5.27214 3.76762 0
M  V30 8131 N 770.09 -0.729906 -1.39679 0
M  V30 8132 C 771.338 -0.275077 -2.00219 0
M  V30 8133 C 771.659 1.1401 -1.58199 0
M  V30 8134 O 770.929 1.77546 -0.827904 0
M  V30 8135 H 769.509 -0.0987127 -0.740449 0
M  V30 8136 H 772.171 -0.93873 -1.70804 0
M  V30 8137 H 771.267 -0.319446 -3.10461 0
M  V30 8138 N 771.568 1.50203 -0.477153 0
M  V30 8139 C 772.531 2.27194 0.302599 0
M  V30 8140 C 773.531 1.32221 0.915112 0
M  V30 8141 O 774.721 1.55593 0.783348 0
M  V30 8142 C 771.853 3.0938 1.43167 0
M  V30 8143 H 773.046 2.97575 -0.372678 0
M  V30 8144 H 770.599 1.54578 -0.231392 0
M  V30 8145 H 771.334 2.43509 2.14182 0
M  V30 8146 H 771.119 3.79181 0.998197 0
M  V30 8147 H 772.609 3.67592 1.98157 0
M  V30 8148 N 773.046 0.209999 1.56195 0
M  V30 8149 C 774.462 -0.145598 1.58934 0
M  V30 8150 C 774.662 -1.59868 1.22656 0
M  V30 8151 O 773.718 -2.33689 0.956336 0
M  V30 8152 C 775.031 0.170243 3.00218 0
M  V30 8153 C 776.579 0.111548 3.12801 0
M  V30 8154 C 777.054 0.400904 4.56242 0
M  V30 8155 N 778.545 0.350058 4.61875 0
M  V30 8156 C 779.28 0.547598 5.70779 0
M  V30 8157 N 778.776 0.806291 6.88092 0
M  V30 8158 N 780.569 0.480827 5.6004 0
M  V30 8159 H 772.72 1.15804 1.78054 0
M  V30 8160 H 774.983 0.463326 0.827063 0
M  V30 8161 H 774.689 1.17833 3.31373 0
M  V30 8162 H 774.563 -0.520208 3.73596 0
M  V30 8163 H 776.95 -0.887162 2.81449 0
M  V30 8164 H 777.031 0.835302 2.41777 0
M  V30 8165 H 776.675 1.397 4.8831 0
M  V30 8166 H 776.605 -0.34391 5.25476 0
M  V30 8167 H 779.096 0.157334 3.77572 0
M  V30 8168 H 779.409 0.945433 7.66995 0
M  V30 8169 H 777.754 0.843355 6.89864 0
M  V30 8170 H 780.945 0.279037 4.67268 0
M  V30 8171 H 781.118 0.638189 6.4485 0
M  V30 8172 N 774.524 -1.57472 -0.0634922 0
M  V30 8173 C 775.77 -1.87932 -0.762194 0
M  V30 8174 C 776.103 -0.803377 -1.76804 0
M  V30 8175 O 775.378 0.185468 -1.93614 0
M  V30 8176 C 775.661 -3.29053 -1.46275 0
M  V30 8177 C 775.514 -4.47309 -0.472755 0
M  V30 8178 C 776.833 -3.68537 -2.40558 0
M  V30 8179 H 773.952 -0.683521 -0.275624 0
M  V30 8180 H 776.594 -1.89983 -0.0252651 0
M  V30 8181 H 774.744 -3.27435 -2.0909 0
M  V30 8182 H 776.416 -4.61053 0.150828 0
M  V30 8183 H 774.659 -4.33286 0.211187 0
M  V30 8184 H 775.33 -5.42853 -1.00072 0
M  V30 8185 H 777.806 -3.71302 -1.87814 0
M  V30 8186 H 776.682 -4.68152 -2.86574 0
M  V30 8187 H 776.943 -2.98917 -3.25731 0
M  V30 8188 N 776.003 0.335068 -1.53997 0
M  V30 8189 C 777.231 1.09418 -1.756 0
M  V30 8190 C 777.646 1.82083 -0.499138 0
M  V30 8191 O 777.003 1.74646 0.529631 0
M  V30 8192 C 777.054 2.10115 -2.94166 0
M  V30 8193 O 776.775 1.40404 -4.14992 0
M  V30 8194 C 778.276 2.98336 -3.27888 0
M  V30 8195 H 775.496 0.32595 -0.586513 0
M  V30 8196 H 778.04 0.384693 -2.00849 0
M  V30 8197 H 776.195 2.76616 -2.71224 0
M  V30 8198 H 776.609 2.07743 -4.81605 0
M  V30 8199 H 778.083 3.6491 -4.1418 0
M  V30 8200 H 778.56 3.64814 -2.44556 0
M  V30 8201 H 779.166 2.37412 -3.52868 0
M  V30 8202 N 777.481 1.45874 0.596531 0
M  V30 8203 C 778.444 1.54988 1.68853 0
M  V30 8204 C 779.444 0.428302 1.54991 0
M  V30 8205 O 780.634 0.692158 1.59859 0
M  V30 8206 C 777.766 1.457 3.08195 0
M  V30 8207 H 778.959 2.52294 1.62135 0
M  V30 8208 H 776.512 1.33479 0.813206 0
M  V30 8209 H 777.247 0.496204 3.20481 0
M  V30 8210 H 777.032 2.27061 3.19665 0
M  V30 8211 H 778.522 1.55133 3.87716 0
M  V30 8212 N 778.959 -0.83999 1.33349 0
M  V30 8213 C 779.907 -1.97113 1.23488 0
M  V30 8214 C 780.901 -1.68849 0.136503 0
M  V30 8215 O 782.107 -1.77476 0.300389 0
M  V30 8216 H 778.482 -0.647049 0.383185 0
M  V30 8217 H 780.453 -2.02554 2.19122 0
M  V30 8218 C 779.202 -3.33314 0.989815 0
M  V30 8219 H 778.525 -3.556 1.82726 0
M  V30 8220 H 779.965 -4.12963 0.961123 0
M  V30 8221 C 778.424 -3.35496 -0.307272 0
M  V30 8222 O 778.954 -3.79589 -1.31434 0
M  V30 8223 N 777.16 -2.88669 -0.334414 0
M  V30 8224 H 776.707 -2.5298 0.485659 0
M  V30 8225 H 776.665 -2.90512 -1.20209 0
M  V30 8226 N 780.437 -1.16799 -1.0581 0
M  V30 8227 C 781.385 -0.875111 -2.1551 0
M  V30 8228 C 782.379 0.157781 -1.68664 0
M  V30 8229 O 783.585 0.011297 -1.79996 0
M  V30 8230 H 779.96 -0.26542 -0.703602 0
M  V30 8231 H 781.931 -1.8076 -2.37421 0
M  V30 8232 C 780.68 -0.39802 -3.45414 0
M  V30 8233 H 780.003 -1.18425 -3.81858 0
M  V30 8234 H 781.443 -0.231913 -4.23365 0
M  V30 8235 C 779.902 0.88327 -3.25115 0
M  V30 8236 O 780.432 1.95145 -3.51114 0
M  V30 8237 N 778.638 0.828961 -2.78526 0
M  V30 8238 H 778.185 -0.0405029 -2.57568 0
M  V30 8239 H 778.143 1.68673 -2.65324 0
M  V30 8240 N 781.915 1.24427 -0.967243 0
M  V30 8241 C 783.145 1.96256 -0.64554 0
M  V30 8242 C 783.553 1.71959 0.789098 0
M  V30 8243 O 782.896 0.999913 1.54102 0
M  V30 8244 C 782.958 3.49553 -0.839798 0
M  V30 8245 C 782.622 3.97548 -2.25399 0
M  V30 8246 C 783.619 4.07257 -3.23168 0
M  V30 8247 C 781.304 4.30884 -2.58156 0
M  V30 8248 C 783.298 4.49635 -4.51782 0
M  V30 8249 C 780.985 4.72946 -3.86996 0
M  V30 8250 C 781.983 4.82286 -4.83621 0
M  V30 8251 O 781.671 5.23409 -6.10162 0
M  V30 8252 H 781.403 0.632002 -0.239895 0
M  V30 8253 H 783.957 1.59224 -1.29757 0
M  V30 8254 H 782.187 3.86479 -0.130603 0
M  V30 8255 H 783.876 4.02591 -0.517249 0
M  V30 8256 H 784.642 3.8172 -2.9919 0
M  V30 8257 H 780.521 4.22833 -1.83666 0
M  V30 8258 H 784.065 4.5684 -5.27203 0
M  V30 8259 H 779.962 4.9793 -4.10775 0
M  V30 8260 H 780.73 5.4156 -6.13722 0
M  V30 8261 N 783.393 0.737304 1.3929 0
M  V30 8262 C 784.639 0.295581 2.01241 0
M  V30 8263 C 784.994 -1.10561 1.57461 0
M  V30 8264 O 784.287 -1.74346 0.7946 0
M  V30 8265 C 784.481 0.338438 3.55794 0
M  V30 8266 C 784.31 1.74225 4.14579 0
M  V30 8267 C 783.08 2.35502 4.47065 0
M  V30 8268 C 785.278 2.69623 4.37959 0
M  V30 8269 N 783.26 3.68014 4.91365 0
M  V30 8270 C 784.631 3.86873 4.84489 0
M  V30 8271 C 786.686 2.67355 4.2003 0
M  V30 8272 C 785.389 5.02193 5.14971 0
M  V30 8273 C 787.415 3.8182 4.51627 0
M  V30 8274 C 786.777 4.97806 4.98366 0
M  V30 8275 H 782.876 0.154468 0.766592 0
M  V30 8276 H 785.46 0.963768 1.69173 0
M  V30 8277 H 783.631 -0.299406 3.87244 0
M  V30 8278 H 785.363 -0.122053 4.04516 0
M  V30 8279 H 782.118 1.87406 4.34943 0
M  V30 8280 H 782.542 4.36051 5.17869 0
M  V30 8281 H 787.184 1.78876 3.83097 0
M  V30 8282 H 784.902 5.913 5.50809 0
M  V30 8283 H 788.488 3.81366 4.39376 0
M  V30 8284 H 787.368 5.84909 5.22351 0
M  V30 8285 N 784.871 -1.49948 0.485112 0
M  V30 8286 C 785.819 -2.30449 -0.315609 0
M  V30 8287 C 786.813 -1.38351 -0.977516 0
M  V30 8288 O 788.019 -1.55477 -0.907019 0
M  V30 8289 H 784.394 -0.742262 -0.120629 0
M  V30 8290 H 786.365 -2.95925 0.383552 0
M  V30 8291 C 785.114 -3.19283 -1.37673 0
M  V30 8292 H 784.437 -3.90067 -0.876801 0
M  V30 8293 H 785.877 -3.78579 -1.90929 0
M  V30 8294 C 784.336 -2.37817 -2.38631 0
M  V30 8295 O 784.866 -2.0711 -3.44192 0
M  V30 8296 N 783.072 -2.00135 -2.107 0
M  V30 8297 H 782.619 -2.25307 -1.24878 0
M  V30 8298 H 782.577 -1.45933 -2.7848 0
M  V30 8299 N 786.349 -0.21828 -1.56081 0
M  V30 8300 C 787.259 0.704602 -2.23769 0
M  V30 8301 C 788.275 1.21633 -1.24425 0
M  V30 8302 O 789.451 1.25862 -1.57228 0
M  V30 8303 C 786.516 1.89725 -2.90182 0
M  V30 8304 C 785.577 1.42782 -4.0486 0
M  V30 8305 C 784.81 2.56361 -4.68097 0
M  V30 8306 O 785.033 3.74417 -4.30312 0
M  V30 8307 O 783.967 2.2775 -5.57148 0
M  V30 8308 H 787.793 0.158007 -3.03289 0
M  V30 8309 H 785.378 0.0120279 -1.49395 0
M  V30 8310 H 787.26 2.59382 -3.32113 0
M  V30 8311 H 785.935 2.432 -2.13624 0
M  V30 8312 H 784.842 0.699359 -3.67505 0
M  V30 8313 H 786.175 0.939474 -4.83151 0
M  V30 8314 N 787.827 1.57504 0.0551401 0
M  V30 8315 C 788.777 2.0128 1.071 0
M  V30 8316 C 789.761 0.897592 1.33537 0
M  V30 8317 O 790.953 1.16151 1.33558 0
M  V30 8318 C 788.082 2.47414 2.37994 0
M  V30 8319 C 787.168 3.65703 2.14761 0
M  V30 8320 N 787.559 4.79323 1.61504 0
M  V30 8321 C 785.857 3.72574 2.45162 0
M  V30 8322 C 786.558 5.61089 1.53472 0
M  V30 8323 N 785.534 5.05426 2.00114 0
M  V30 8324 H 789.336 2.86558 0.652829 0
M  V30 8325 H 786.85 1.60274 0.26193 0
M  V30 8326 H 788.847 2.77023 3.11551 0
M  V30 8327 H 787.507 1.6353 2.80514 0
M  V30 8328 H 788.518 5.01284 1.30134 0
M  V30 8329 H 785.195 2.99439 2.90934 0
M  V30 8330 H 786.585 6.62328 1.13008 0
M  V30 8331 N 789.305 -0.326896 1.54172 0
M  V30 8332 C 790.268 -1.38515 1.8261 0
M  V30 8333 C 791.268 -1.44872 0.697771 0
M  V30 8334 O 792.458 -1.44957 0.966078 0
M  V30 8335 C 789.59 -2.77281 1.98313 0
M  V30 8336 H 790.783 -1.14556 2.77159 0
M  V30 8337 H 788.336 -0.562199 1.45839 0
M  V30 8338 H 789.071 -3.065 1.05964 0
M  V30 8339 H 788.856 -2.74061 2.80416 0
M  V30 8340 H 790.346 -3.53845 2.21773 0
M  V30 8341 N 790.784 -1.46188 -0.588786 0
M  V30 8342 C 792.061 -1.41659 -1.34878 0
M  V30 8343 C 792.441 -0.0968913 -2.10878 0
M  V30 8344 O 791.789 0.921468 -2.09096 0
M  V30 8345 C 791.999 -2.6424 -2.27988 0
M  V30 8346 C 793.347 -3.1013 -2.90008 0
M  V30 8347 O 794.371 -2.64745 -2.38303 0
M  V30 8348 O 793.23 -3.88944 -3.83908 0
M  V30 8349 H 790.324 -0.563058 -0.605718 0
M  V30 8350 H 792.87 -1.58346 -0.610309 0
M  V30 8351 H 791.642 -3.51853 -1.71217 0
M  V30 8352 H 791.265 -2.49982 -3.09184 0
M  V30 8353 N 792.262 0.832906 -1.33792 0
M  V30 8354 C 793.49 1.62048 -1.28639 0
M  V30 8355 C 793.905 1.88269 0.141522 0
M  V30 8356 O 793.262 1.46706 1.08553 0
M  V30 8357 C 793.313 2.96722 -2.0649 0
M  V30 8358 O 793.034 2.7165 -3.43712 0
M  V30 8359 C 794.535 3.91144 -2.08617 0
M  V30 8360 H 791.755 0.504032 -0.442937 0
M  V30 8361 H 794.299 1.03704 -1.76255 0
M  V30 8362 H 792.454 3.51652 -1.62541 0
M  V30 8363 H 792.868 3.57453 -3.83833 0
M  V30 8364 H 794.342 4.82837 -2.67531 0
M  V30 8365 H 794.819 4.25766 -1.07796 0
M  V30 8366 H 795.425 3.42152 -2.52611 0
M  V30 8367 N 793.74 1.17359 1.05189 0
M  V30 8368 C 794.67 0.91365 2.14883 0
M  V30 8369 C 795.651 -0.144365 1.69486 0
M  V30 8370 O 796.836 0.00587861 1.94199 0
M  V30 8371 C 793.966 0.426196 3.44675 0
M  V30 8372 C 792.92 1.4234 4.03638 0
M  V30 8373 C 792.246 0.793902 5.28773 0
M  V30 8374 C 793.546 2.7966 4.41121 0
M  V30 8375 H 795.24 1.831 2.36885 0
M  V30 8376 H 792.786 0.881781 1.13845 0
M  V30 8377 H 794.739 0.231767 4.20762 0
M  V30 8378 H 793.463 -0.526693 3.22325 0
M  V30 8379 H 792.122 1.60457 3.2962 0
M  V30 8380 H 791.77 -0.165824 5.02727 0
M  V30 8381 H 791.47 1.45959 5.69183 0
M  V30 8382 H 792.994 0.609747 6.07548 0
M  V30 8383 H 794.408 2.6526 5.08242 0
M  V30 8384 H 792.805 3.42807 4.92548 0
M  V30 8385 H 793.875 3.34068 3.51464 0
M  V30 8386 N 795.218 -1.23913 0.973828 0
M  V30 8387 C 796.128 -2.28838 0.516735 0
M  V30 8388 C 797.144 -1.68723 -0.425282 0
M  V30 8389 O 798.32 -1.99201 -0.296819 0
M  V30 8390 C 795.385 -3.46233 -0.179914 0
M  V30 8391 C 794.446 -4.21729 0.80269 0
M  V30 8392 C 793.679 -5.33518 0.139191 0
M  V30 8393 O 793.902 -5.60252 -1.07118 0
M  V30 8394 O 792.836 -5.96088 0.834447 0
M  V30 8395 H 796.662 -2.70067 1.38916 0
M  V30 8396 H 794.247 -1.2972 0.74115 0
M  V30 8397 H 796.129 -4.17514 -0.570991 0
M  V30 8398 H 794.804 -3.06969 -1.02721 0
M  V30 8399 H 793.711 -3.52799 1.24434 0
M  V30 8400 H 795.044 -4.64825 1.61859 0
M  V30 8401 N 796.696 -0.74468 -1.38897 0
M  V30 8402 C 797.942 -0.306249 -2.01081 0
M  V30 8403 C 798.297 1.09724 -1.58046 0
M  V30 8404 O 797.59 1.73923 -0.803834 0
M  V30 8405 C 797.784 -0.357302 -3.55609 0
M  V30 8406 C 797.613 -1.76421 -4.13649 0
M  V30 8407 C 796.383 -2.3787 -4.4581 0
M  V30 8408 C 798.581 -2.71942 -4.36523 0
M  V30 8409 N 796.563 -3.70614 -4.89406 0
M  V30 8410 C 797.934 -3.89437 -4.8243 0
M  V30 8411 C 799.989 -2.69579 -4.18607 0
M  V30 8412 C 798.692 -5.04917 -5.123 0
M  V30 8413 C 800.718 -3.8421 -4.49596 0
M  V30 8414 C 800.08 -5.00442 -4.95719 0
M  V30 8415 H 796.179 -0.158531 -0.765762 0
M  V30 8416 H 798.763 -0.972726 -1.6866 0
M  V30 8417 H 796.934 0.278865 -3.87398 0
M  V30 8418 H 798.666 0.100599 -4.04575 0
M  V30 8419 H 795.421 -1.8971 -4.33943 0
M  V30 8420 H 795.845 -4.38791 -5.1555 0
M  V30 8421 H 800.487 -1.80905 -3.82143 0
M  V30 8422 H 798.205 -5.94213 -5.47665 0
M  V30 8423 H 801.791 -3.83691 -4.37347 0
M  V30 8424 H 800.671 -5.87671 -5.19242 0
M  V30 8425 N 798.174 1.49689 -0.493057 0
M  V30 8426 C 799.402 2.06836 0.0513141 0
M  V30 8427 C 799.817 1.35436 1.31539 0
M  V30 8428 O 799.174 0.430248 1.77356 0
M  V30 8429 C 799.225 3.60107 0.317003 0
M  V30 8430 O 798.946 4.2882 -0.896957 0
M  V30 8431 C 800.447 4.33945 0.905902 0
M  V30 8432 H 797.667 0.670787 -0.0169048 0
M  V30 8433 H 800.211 1.92574 -0.688139 0
M  V30 8434 H 798.366 3.74099 1.00642 0
M  V30 8435 H 798.78 5.20395 -0.654939 0
M  V30 8436 H 800.254 5.42087 1.04144 0
M  V30 8437 H 800.731 3.95895 1.90168 0
M  V30 8438 H 801.337 4.2454 0.254195 0
M  V30 8439 N 799.652 0.226554 1.55963 0
M  V30 8440 C 800.582 -0.676079 2.23498 0
M  V30 8441 C 801.563 -1.19718 1.20837 0
M  V30 8442 O 802.748 -1.24027 1.49436 0
M  V30 8443 C 799.878 -1.88217 2.91876 0
M  V30 8444 C 798.832 -1.4947 4.01052 0
M  V30 8445 C 798.158 -2.77997 4.56751 0
M  V30 8446 C 799.458 -0.680951 5.17842 0
M  V30 8447 H 801.152 -0.112989 2.99187 0
M  V30 8448 H 798.698 -0.0529046 1.43903 0
M  V30 8449 H 800.651 -2.51911 3.37815 0
M  V30 8450 H 799.375 -2.47031 2.13643 0
M  V30 8451 H 798.034 -0.881199 3.55852 0
M  V30 8452 H 797.682 -3.34966 3.75243 0
M  V30 8453 H 797.382 -2.52803 5.30438 0
M  V30 8454 H 798.906 -3.42625 5.05411 0
M  V30 8455 H 800.32 -1.22171 5.60131 0
M  V30 8456 H 798.717 -0.525898 5.97791 0
M  V30 8457 H 799.787 0.311346 4.83899 0
M  V30 8458 N 801.13 -1.57531 -0.0467866 0
M  V30 8459 C 802.358 -1.92696 -0.753371 0
M  V30 8460 C 802.773 -0.824792 -1.69831 0
M  V30 8461 O 802.13 0.200155 -1.81399 0
M  V30 8462 C 802.181 -3.27728 -1.52566 0
M  V30 8463 O 801.902 -4.3371 -0.618674 0
M  V30 8464 C 803.403 -3.77066 -2.33101 0
M  V30 8465 H 800.623 -0.636367 -0.212788 0
M  V30 8466 H 803.167 -2.04498 -0.00959361 0
M  V30 8467 H 801.322 -3.17378 -2.22148 0
M  V30 8468 H 801.736 -5.11548 -1.15839 0
M  V30 8469 H 803.21 -4.74109 -2.82709 0
M  V30 8470 H 803.687 -3.07348 -3.13741 0
M  V30 8471 H 804.293 -3.90442 -1.68628 0
M  V30 8472 N 802.608 0.318715 -1.54344 0
M  V30 8473 C 803.833 1.07987 -1.77069 0
M  V30 8474 C 804.258 1.80766 -0.520117 0
M  V30 8475 O 803.616 1.73424 0.528566 0
M  V30 8476 C 803.664 2.04987 -2.96669 0
M  V30 8477 O 802.768 3.12974 -2.68554 0
M  V30 8478 H 802.109 0.311109 -0.586606 0
M  V30 8479 H 804.639 0.361533 -2.0138 0
M  V30 8480 H 804.649 2.47771 -3.2415 0
M  V30 8481 H 803.324 1.51417 -3.87357 0
M  V30 8482 H 801.901 2.74831 -2.52037 0
M  V30 8483 N 804.086 1.46499 0.581025 0
M  V30 8484 C 805.497 1.4604 1.16315 0
M  V30 8485 C 805.848 0.202154 1.95156 0
M  V30 8486 O 804.973 -0.694638 2.04948 0
M  V30 8487 C 805.568 2.64593 2.11604 0
M  V30 8488 C 804.127 2.6717 2.65136 0
M  V30 8489 C 803.274 2.38753 1.4104 0
M  V30 8490 H 806.225 1.54354 0.368871 0
M  V30 8491 H 806.246 2.40207 2.95095 0
M  V30 8492 H 805.758 3.56154 1.54194 0
M  V30 8493 H 803.859 1.79685 3.26411 0
M  V30 8494 H 803.972 3.67182 3.07757 0
M  V30 8495 H 802.336 1.88845 1.70908 0
M  V30 8496 H 803.119 3.32493 0.854588 0
M  V30 8497 N 805.565 -0.825799 1.34232 0
M  V30 8498 C 806.976 -1.39835 1.23706 0
M  V30 8499 C 807.327 -1.95709 -0.138649 0
M  V30 8500 O 806.452 -1.89833 -1.03886 0
M  V30 8501 C 807.047 -2.54203 2.23978 0
M  V30 8502 C 805.606 -3.07374 2.17251 0
M  V30 8503 C 804.753 -1.80232 2.10741 0
M  V30 8504 H 807.704 -0.630442 1.4564 0
M  V30 8505 H 807.725 -3.32214 1.8551 0
M  V30 8506 H 807.237 -2.13506 3.24094 0
M  V30 8507 H 805.338 -3.52583 1.20483 0
M  V30 8508 H 805.451 -3.6666 3.08379 0
M  V30 8509 H 803.815 -2.01012 1.56417 0
M  V30 8510 H 804.598 -1.41713 3.12686 0
M  V30 8511 N 807.043 -1.17915 -1.04565 0
M  V30 8512 C 808.454 -0.976383 -1.59134 0
M  V30 8513 C 808.805 0.475267 -1.90357 0
M  V30 8514 O 807.93 1.35172 -1.6899 0
M  V30 8515 C 808.525 -1.76604 -2.89131 0
M  V30 8516 C 807.084 -1.60777 -3.40335 0
M  V30 8517 C 806.231 -1.76369 -2.13985 0
M  V30 8518 H 809.182 -1.32532 -0.872985 0
M  V30 8519 H 809.203 -1.25215 -3.59307 0
M  V30 8520 H 808.715 -2.82252 -2.66375 0
M  V30 8521 H 806.816 -0.576436 -3.68114 0
M  V30 8522 H 806.929 -2.40268 -4.14497 0
M  V30 8523 H 805.293 -1.19268 -2.25049 0
M  V30 8524 H 806.076 -2.83441 -1.9369 0
M  V30 8525 N 808.521 1.23394 -0.980386 0
M  V30 8526 C 809.431 2.28561 -0.528864 0
M  V30 8527 C 810.447 1.68946 0.416329 0
M  V30 8528 O 811.623 1.99355 0.286251 0
M  V30 8529 C 808.688 3.46323 0.16155 0
M  V30 8530 C 807.749 4.21297 -0.825044 0
M  V30 8531 C 806.982 5.33437 -0.167483 0
M  V30 8532 O 807.205 5.60812 1.04146 0
M  V30 8533 O 806.139 5.95637 -0.866047 0
M  V30 8534 H 809.965 2.69326 -1.40346 0
M  V30 8535 H 807.55 1.29325 -0.748019 0
M  V30 8536 H 809.432 4.17811 0.548841 0
M  V30 8537 H 808.107 3.0751 1.01092 0
M  V30 8538 H 807.014 3.52134 -1.26303 0
M  V30 8539 H 808.347 4.6396 -1.64322 0
M  V30 8540 N 809.999 0.752036 1.385 0
M  V30 8541 C 810.949 0.0990189 2.27785 0
M  V30 8542 C 811.933 -0.694867 1.45122 0
M  V30 8543 O 813.125 -0.561077 1.67872 0
M  V30 8544 C 810.254 -0.794531 3.33979 0
M  V30 8545 C 809.34 0.00611984 4.241 0
M  V30 8546 N 809.731 1.04174 4.94956 0
M  V30 8547 C 808.029 -0.220934 4.45452 0
M  V30 8548 C 808.73 1.52601 5.61327 0
M  V30 8549 N 807.706 0.84159 5.37046 0
M  V30 8550 H 811.508 0.892208 2.8003 0
M  V30 8551 H 809.022 0.587934 1.51384 0
M  V30 8552 H 811.019 -1.27797 3.96829 0
M  V30 8553 H 809.679 -1.58669 2.83292 0
M  V30 8554 H 810.69 1.42349 4.97953 0
M  V30 8555 H 807.367 -0.986556 4.05676 0
M  V30 8556 H 808.757 2.38857 6.2801 0
M  V30 8557 N 811.477 -1.49425 0.500989 0
M  V30 8558 C 812.705 -2.06861 -0.0403443 0
M  V30 8559 C 813.12 -1.36132 -1.30819 0
M  V30 8560 O 812.477 -0.439647 -1.77125 0
M  V30 8561 C 812.528 -3.6027 -0.297902 0
M  V30 8562 O 812.249 -4.28338 0.919686 0
M  V30 8563 C 813.75 -4.34419 -0.882876 0
M  V30 8564 H 810.97 -0.670688 0.0204619 0
M  V30 8565 H 813.514 -1.92207 0.698342 0
M  V30 8566 H 811.669 -3.74627 -0.98657 0
M  V30 8567 H 812.083 -5.2004 0.682528 0
M  V30 8568 H 813.557 -5.42631 -1.01268 0
M  V30 8569 H 814.034 -3.96898 -1.88066 0
M  V30 8570 H 814.64 -4.24669 -0.231677 0
M  V30 8571 N 812.955 -0.234822 -1.55841 0
M  V30 8572 C 814.202 0.39326 -1.98645 0
M  V30 8573 C 814.53 1.58823 -1.12274 0
M  V30 8574 O 813.785 1.94954 -0.170731 0
M  V30 8575 C 814.084 0.858032 -3.46947 0
M  V30 8576 C 813.75 -0.227858 -4.50324 0
M  V30 8577 C 812.412 -0.526128 -4.78315 0
M  V30 8578 C 814.764 -0.961576 -5.12253 0
M  V30 8579 C 812.092 -1.5624 -5.65514 0
M  V30 8580 C 814.444 -1.98728 -6.00575 0
M  V30 8581 C 813.108 -2.29233 -6.26904 0
M  V30 8582 H 812.378 0.143904 -0.726892 0
M  V30 8583 H 815.025 -0.34012 -1.88455 0
M  V30 8584 H 813.33 1.67041 -3.54408 0
M  V30 8585 H 815.027 1.35407 -3.77447 0
M  V30 8586 H 811.617 0.0147624 -4.28597 0
M  V30 8587 H 815.801 -0.744388 -4.90686 0
M  V30 8588 H 811.057 -1.80422 -5.84173 0
M  V30 8589 H 815.231 -2.5608 -6.47608 0
M  V30 8590 H 812.858 -3.09671 -6.94268 0
M  V30 8591 N 814.433 1.57553 0.0384317 0
M  V30 8592 C 815.343 2.09333 1.0591 0
M  V30 8593 C 816.359 1.0299 1.40247 0
M  V30 8594 O 817.535 1.34669 1.49754 0
M  V30 8595 C 814.6 2.55468 2.34386 0
M  V30 8596 C 813.661 3.76254 2.06716 0
M  V30 8597 C 812.894 4.20179 3.29067 0
M  V30 8598 O 813.117 3.637 4.39407 0
M  V30 8599 O 812.051 5.12697 3.15317 0
M  V30 8600 H 815.877 2.96683 0.649087 0
M  V30 8601 H 813.462 1.47211 0.254802 0
M  V30 8602 H 815.344 2.85514 3.09935 0
M  V30 8603 H 814.019 1.71234 2.74701 0
M  V30 8604 H 812.926 3.51241 1.28766 0
M  V30 8605 H 814.259 4.61443 1.71263 0
M  V30 8606 N 815.911 -0.310526 1.54511 0
M  V30 8607 C 816.843 -1.40405 1.8116 0
M  V30 8608 C 817.856 -1.47261 0.694114 0
M  V30 8609 O 819.045 -1.49751 0.971441 0
M  V30 8610 C 816.145 -2.78849 1.92604 0
M  V30 8611 C 815.318 -2.95041 3.22908 0
M  V30 8612 C 814.377 -4.13925 3.24889 0
M  V30 8613 O 813.403 -4.06463 3.98467 0
M  V30 8614 N 814.605 -5.24099 2.496 0
M  V30 8615 H 817.37 -1.17903 2.75534 0
M  V30 8616 H 814.931 -0.500564 1.53967 0
M  V30 8617 H 816.923 -3.5661 1.91342 0
M  V30 8618 H 815.493 -2.94342 1.05268 0
M  V30 8619 H 814.713 -2.04472 3.37023 0
M  V30 8620 H 816.001 -3.02763 4.08916 0
M  V30 8621 H 815.399 -5.33039 1.89435 0
M  V30 8622 H 813.956 -6.0023 2.54102 0
M  V30 8623 N 817.389 -1.46805 -0.573248 0
M  V30 8624 C 818.319 -1.60951 -1.69165 0
M  V30 8625 C 819.3 -0.45948 -1.63777 0
M  V30 8626 O 820.485 -0.68688 -1.81647 0
M  V30 8627 C 817.615 -1.60844 -3.07809 0
M  V30 8628 C 816.569 -2.74913 -3.28035 0
M  V30 8629 C 815.895 -2.59871 -4.67302 0
M  V30 8630 C 817.195 -4.16654 -3.14955 0
M  V30 8631 H 818.889 -2.54574 -1.57582 0
M  V30 8632 H 816.435 -1.22516 -0.756686 0
M  V30 8633 H 818.388 -1.69334 -3.85881 0
M  V30 8634 H 817.112 -0.637714 -3.20314 0
M  V30 8635 H 815.771 -2.65908 -2.52366 0
M  V30 8636 H 815.419 -1.60861 -4.76585 0
M  V30 8637 H 815.119 -3.36386 -4.81786 0
M  V30 8638 H 816.643 -2.70265 -5.4753 0
M  V30 8639 H 818.057 -4.26721 -3.82861 0
M  V30 8640 H 816.454 -4.93831 -3.40956 0
M  V30 8641 H 817.524 -4.36146 -2.11908 0
M  V30 8642 N 818.867 0.818669 -1.34668 0
M  V30 8643 C 820.278 1.39177 -1.24446 0
M  V30 8644 C 820.629 1.9578 0.128268 0
M  V30 8645 O 819.754 1.90382 1.02877 0
M  V30 8646 C 820.349 2.53012 -2.25323 0
M  V30 8647 C 818.908 3.06218 -2.18878 0
M  V30 8648 C 818.055 1.79112 -2.11694 0
M  V30 8649 H 821.006 0.622709 -1.45973 0
M  V30 8650 H 821.027 3.31226 -1.8727 0
M  V30 8651 H 820.539 2.11784 -3.25221 0
M  V30 8652 H 818.64 3.51939 -1.22351 0
M  V30 8653 H 818.753 3.65019 -3.10319 0
M  V30 8654 H 817.117 2.0018 -1.57481 0
M  V30 8655 H 817.9 1.40053 -3.13433 0
M  V30 8656 N 820.346 1.18468 1.03938 0
M  V30 8657 C 821.293 0.912859 2.1198 0
M  V30 8658 C 822.263 -0.14824 1.65437 0
M  V30 8659 O 823.448 -0.008331 1.90798 0
M  V30 8660 C 820.588 0.446114 3.42204 0
M  V30 8661 C 819.701 1.57278 4.02353 0
M  V30 8662 C 818.836 1.05863 5.20544 0
M  V30 8663 C 817.875 2.1599 5.72726 0
M  V30 8664 N 817.012 1.65959 6.82204 0
M  V30 8665 H 821.852 1.83798 2.34569 0
M  V30 8666 H 819.389 0.916504 1.15059 0
M  V30 8667 H 821.347 0.15697 4.16905 0
M  V30 8668 H 819.977 -0.442025 3.19759 0
M  V30 8669 H 819.029 1.97737 3.24968 0
M  V30 8670 H 820.341 2.40289 4.37107 0
M  V30 8671 H 819.495 0.724087 6.02364 0
M  V30 8672 H 818.234 0.198116 4.87297 0
M  V30 8673 H 817.239 2.50287 4.89527 0
M  V30 8674 H 818.464 3.02479 6.08016 0
M  V30 8675 H 816.41 0.82199 6.5083 0
M  V30 8676 H 816.327 2.42567 7.16029 0
M  V30 8677 H 817.595 1.35436 7.67644 0
M  V30 8678 N 821.824 -1.22873 0.986916 0
M  V30 8679 C 823.24 -1.43594 0.696633 0
M  V30 8680 C 823.44 -1.87622 -0.734869 0
M  V30 8681 O 822.496 -2.02633 -1.50652 0
M  V30 8682 C 823.809 -2.48231 1.69711 0
M  V30 8683 C 825.357 -2.62037 1.71188 0
M  V30 8684 C 825.832 -3.6989 2.70084 0
M  V30 8685 N 827.323 -3.77341 2.68641 0
M  V30 8686 C 828.058 -4.6037 3.41829 0
M  V30 8687 N 827.554 -5.47438 4.24598 0
M  V30 8688 N 829.347 -4.54626 3.30563 0
M  V30 8689 H 821.498 -0.925982 1.91153 0
M  V30 8690 H 823.761 -0.46866 0.824052 0
M  V30 8691 H 823.467 -2.22812 2.72117 0
M  V30 8692 H 823.341 -3.46731 1.48516 0
M  V30 8693 H 825.728 -2.86803 0.694837 0
M  V30 8694 H 825.809 -1.63831 1.96451 0
M  V30 8695 H 825.453 -3.45872 3.71934 0
M  V30 8696 H 825.383 -4.67652 2.42093 0
M  V30 8697 H 827.874 -3.15124 2.08578 0
M  V30 8698 H 828.187 -6.078 4.77283 0
M  V30 8699 H 826.532 -5.4704 4.28687 0
M  V30 8700 H 829.723 -3.85627 2.65347 0
M  V30 8701 H 829.896 -5.19103 3.8786 0
M  V30 8702 N 823.302 -0.75937 -1.38099 0
M  V30 8703 C 824.212 -0.13774 -2.34195 0
M  V30 8704 C 825.228 0.693985 -1.59561 0
M  V30 8705 O 826.404 0.616792 -1.91723 0
M  V30 8706 C 823.469 0.740535 -3.38699 0
M  V30 8707 C 822.53 -0.106225 -4.29169 0
M  V30 8708 C 821.763 0.730225 -5.28681 0
M  V30 8709 O 821.986 1.96796 -5.35376 0
M  V30 8710 O 820.92 0.145969 -6.01723 0
M  V30 8711 H 824.746 -0.931512 -2.89061 0
M  V30 8712 H 822.331 -0.520345 -1.40046 0
M  V30 8713 H 824.213 1.24232 -4.02672 0
M  V30 8714 H 822.888 1.51271 -2.8618 0
M  V30 8715 H 821.795 -0.654088 -3.68337 0
M  V30 8716 H 823.128 -0.841186 -4.84959 0
M  V30 8717 N 824.78 1.49157 -0.508906 0
M  V30 8718 C 826.057 1.95363 0.0961913 0
M  V30 8719 C 826.437 1.45064 1.53362 0
M  V30 8720 O 825.785 0.667835 2.18523 0
M  V30 8721 C 825.995 3.49 0.000688881 0
M  V30 8722 C 827.343 4.24257 0.170632 0
M  V30 8723 O 828.367 3.5612 0.0754994 0
M  V30 8724 O 827.226 5.45267 0.366957 0
M  V30 8725 H 824.32 0.821984 0.0909489 0
M  V30 8726 H 826.866 1.59769 -0.572007 0
M  V30 8727 H 825.638 3.78269 -1.00143 0
M  V30 8728 H 825.261 3.91233 0.708682 0
M  V30 8729 N 826.258 0.243083 1.55714 0
M  V30 8730 C 827.504 -0.376428 1.99886 0
M  V30 8731 C 827.859 -1.55843 1.12831 0
M  V30 8732 O 827.152 -1.90724 0.182996 0
M  V30 8733 C 827.346 -0.839621 3.47398 0
M  V30 8734 C 827.175 0.295954 4.48725 0
M  V30 8735 C 825.945 0.769392 4.99408 0
M  V30 8736 C 828.143 1.12165 5.0192 0
M  V30 8737 N 826.125 1.87778 5.84477 0
M  V30 8738 C 827.496 2.07848 5.84123 0
M  V30 8739 C 829.551 1.15864 4.84231 0
M  V30 8740 C 828.254 3.06937 6.50524 0
M  V30 8741 C 830.28 2.13782 5.51409 0
M  V30 8742 C 829.642 3.08202 6.33396 0
M  V30 8743 H 825.741 -0.103809 0.775079 0
M  V30 8744 H 828.325 0.359788 1.91347 0
M  V30 8745 H 826.496 -1.54514 3.56343 0
M  V30 8746 H 828.228 -1.43376 3.78451 0
M  V30 8747 H 824.983 0.354201 4.72274 0
M  V30 8748 H 825.407 2.43462 6.31708 0
M  V30 8749 H 830.049 0.442532 4.20478 0
M  V30 8750 H 827.767 3.79499 7.13447 0
M  V30 8751 H 831.353 2.17345 5.39678 0
M  V30 8752 H 830.233 3.82732 6.8446 0
M  V30 8753 N 827.736 -1.57571 -0.0300757 0
M  V30 8754 C 828.646 -2.09892 -1.04798 0
M  V30 8755 C 829.662 -1.03732 -1.39698 0
M  V30 8756 O 830.838 -1.35461 -1.49038 0
M  V30 8757 C 827.903 -2.56707 -2.33028 0
M  V30 8758 C 826.964 -3.77345 -2.04718 0
M  V30 8759 C 826.197 -4.21918 -3.26834 0
M  V30 8760 O 826.42 -3.66025 -4.37472 0
M  V30 8761 O 825.354 -5.14362 -3.12594 0
M  V30 8762 H 829.18 -2.97023 -0.633344 0
M  V30 8763 H 826.765 -1.47344 -0.246991 0
M  V30 8764 H 828.647 -2.87154 -3.08417 0
M  V30 8765 H 827.322 -1.72688 -2.73789 0
M  V30 8766 H 826.229 -3.51919 -1.26901 0
M  V30 8767 H 827.562 -4.62345 -1.68813 0
M  V30 8768 N 829.214 0.302327 -1.54673 0
M  V30 8769 C 830.63 0.647911 -1.45857 0
M  V30 8770 C 830.83 1.90773 -0.64869 0
M  V30 8771 O 829.886 2.52018 -0.155865 0
M  V30 8772 C 831.199 0.802144 -2.89804 0
M  V30 8773 C 832.747 0.898114 -2.99838 0
M  V30 8774 C 833.222 1.08436 -4.44978 0
M  V30 8775 N 834.713 1.15059 -4.48682 0
M  V30 8776 C 835.448 1.31296 -5.58166 0
M  V30 8777 N 834.944 1.4444 -6.77576 0
M  V30 8778 N 836.737 1.34174 -5.45851 0
M  V30 8779 H 828.888 -0.525428 -2.05798 0
M  V30 8780 H 831.151 -0.173423 -0.932002 0
M  V30 8781 H 830.857 -0.0526531 -3.51661 0
M  V30 8782 H 830.731 1.69155 -3.37145 0
M  V30 8783 H 833.118 1.7434 -2.38096 0
M  V30 8784 H 833.199 -0.0152752 -2.55795 0
M  V30 8785 H 832.843 0.243843 -5.07314 0
M  V30 8786 H 832.773 2.01195 -4.8665 0
M  V30 8787 H 835.264 1.0626 -3.62653 0
M  V30 8788 H 835.577 1.56582 -7.56771 0
M  V30 8789 H 833.922 1.41499 -6.80443 0
M  V30 8790 H 837.113 1.23516 -4.5151 0
M  V30 8791 H 837.286 1.46485 -6.31226 0
M  V30 8792 N 830.692 1.47107 0.565454 0
M  V30 8793 C 831.655 1.58535 1.65527 0
M  V30 8794 C 832.655 0.461081 1.54048 0
M  V30 8795 O 833.845 0.725911 1.58355 0
M  V30 8796 C 830.977 1.52204 3.05036 0
M  V30 8797 H 832.17 2.55676 1.56747 0
M  V30 8798 H 829.723 1.35174 0.78471 0
M  V30 8799 H 830.458 0.564071 3.19357 0
M  V30 8800 H 830.243 2.3379 3.14777 0
M  V30 8801 H 831.733 1.63322 3.84338 0
M  V30 8802 N 832.17 -0.811516 1.35101 0
M  V30 8803 C 833.581 -1.38515 1.25182 0
M  V30 8804 C 833.932 -1.95846 -0.117883 0
M  V30 8805 O 833.057 -1.90925 -1.01866 0
M  V30 8806 C 833.652 -2.51813 2.26662 0
M  V30 8807 C 832.211 -3.05052 2.20499 0
M  V30 8808 C 831.358 -1.77987 2.12641 0
M  V30 8809 H 834.309 -0.614959 1.46301 0
M  V30 8810 H 834.33 -3.30228 1.89023 0
M  V30 8811 H 833.842 -2.10057 3.2634 0
M  V30 8812 H 831.943 -3.51285 1.24215 0
M  V30 8813 H 832.056 -3.63368 3.1225 0
M  V30 8814 H 830.42 -1.99342 1.5854 0
M  V30 8815 H 831.203 -1.38389 3.14171 0
M  V30 8816 N 833.648 -1.19017 -1.03309 0
M  V30 8817 C 834.611 -0.926076 -2.09658 0
M  V30 8818 C 835.611 0.0917077 -1.60538 0
M  V30 8819 O 836.801 -0.142574 -1.73616 0
M  V30 8820 C 833.933 -0.390958 -3.38651 0
M  V30 8821 H 835.126 -1.86923 -2.3452 0
M  V30 8822 H 832.679 -1.00325 -1.19853 0
M  V30 8823 H 833.414 0.558446 -3.19456 0
M  V30 8824 H 833.199 -1.12474 -3.75622 0
M  V30 8825 H 834.689 -0.225131 -4.16993 0
M  V30 8826 N 835.127 1.22348 -0.993418 0
M  V30 8827 C 836.077 2.221 -0.515333 0
M  V30 8828 C 837.061 1.55409 0.416762 0
M  V30 8829 O 838.253 1.75317 0.243497 0
M  V30 8830 C 835.382 3.42888 0.168173 0
M  V30 8831 C 834.468 4.16786 -0.784257 0
M  V30 8832 N 834.859 4.67435 -1.93231 0
M  V30 8833 C 833.157 4.41942 -0.600243 0
M  V30 8834 C 833.858 5.23792 -2.53016 0
M  V30 8835 N 832.834 5.12483 -1.8128 0
M  V30 8836 H 836.636 2.58902 -1.39093 0
M  V30 8837 H 834.15 1.38024 -0.855747 0
M  V30 8838 H 836.147 4.13542 0.528069 0
M  V30 8839 H 834.807 3.07598 1.03989 0
M  V30 8840 H 835.818 4.63375 -2.31309 0
M  V30 8841 H 832.495 4.16891 0.225369 0
M  V30 8842 H 833.885 5.73515 -3.50043 0
M  V30 8843 O 836.644 0.903602 1.33855 0
M  V30 8844 H 837.335 0.516266 1.86693 0
M  V30 END ATOM
M  V30 BEGIN BOND
M  V30 END BOND
M  V30 END CTAB
M  END
$$$$
