drugbank_target|P16088 Pol polyprotein (DB01891; DB02333; DB03435; DB03800; DB07365; DB08253)
 OpenBabel12092119533D

  0  0  0     0  0            999 V3000
M  V30 BEGIN CTAB
M  V30 COUNTS 18060 18254 0 0 0
M  V30 BEGIN ATOM
M  V30 1 H -0.908 1.98254 -0.117106 0
M  V30 2 N 0 1.576 0 0
M  V30 3 C 0.947 2.08422 0.991413 0
M  V30 4 C 1.917 0.979638 1.34135 0
M  V30 5 O 3.102 1.25206 1.43972 0
M  V30 6 C 0.242 2.5922 2.27813 0
M  V30 7 C -0.645 3.8358 1.98722 0
M  V30 8 C -1.51 4.2288 3.21475 0
M  V30 9 C -2.471 5.40076 2.8807 0
M  V30 10 N -3.334 5.74669 4.0336 0
M  V30 11 H 1.506 2.9286 0.55109 0
M  V30 12 H -0.957 1.44776 0.260458 0
M  V30 13 H 1.001 2.86751 3.03034 0
M  V30 14 H -0.369 1.77656 2.69514 0
M  V30 15 H -1.317 3.62957 1.13869 0
M  V30 16 H -0.005 4.689 1.701 0
M  V30 17 H -0.851 4.51692 4.05042 0
M  V30 18 H -2.112 3.36268 3.53235 0
M  V30 19 H -3.107 5.10987 2.02911 0
M  V30 20 H -1.882 6.28364 2.57558 0
M  V30 21 H -3.936 4.91016 4.35017 0
M  V30 22 H -4.019 6.54563 3.78263 0
M  V30 23 H -2.751 6.08074 4.87716 0
M  V30 24 N 1.4781 -0.272755 1.55222 0
M  V30 25 C 2.3881 -1.35918 1.91216 0
M  V30 26 C 3.4041 -1.54026 0.809436 0
M  V30 27 O 4.5801 -1.68148 1.10852 0
M  V30 28 C 1.6451 -2.69834 2.17693 0
M  V30 29 C 0.7061 -2.6047 3.41253 0
M  V30 30 C -0.0609 -3.88 3.66458 0
M  V30 31 O 0.1621 -4.88693 2.94169 0
M  V30 32 O -0.9039 -3.88189 4.59992 0
M  V30 33 H 2.9221 -1.0839 2.83699 0
M  V30 34 H 0.5071 -0.471301 1.41771 0
M  V30 35 H 2.3891 -3.49017 2.36147 0
M  V30 36 H 1.0641 -2.97148 1.28392 0
M  V30 37 H -0.0289 -1.79663 3.28134 0
M  V30 38 H 1.3041 -2.38106 4.30774 0
M  V30 39 N 2.9562 -1.48159 -0.537278 0
M  V30 40 C 4.2032 -1.55804 -1.29349 0
M  V30 41 C 4.5312 -0.228802 -1.9315 0
M  V30 42 O 3.7862 0.780242 -1.79473 0
M  V30 43 C 4.0852 -2.63956 -2.40961 0
M  V30 44 C 3.7512 -4.0662 -1.94861 0
M  V30 45 C 2.4132 -4.45452 -1.82006 0
M  V30 46 C 4.7652 -4.96055 -1.59933 0
M  V30 47 C 2.0932 -5.71531 -1.32547 0
M  V30 48 C 4.4452 -6.22617 -1.11939 0
M  V30 49 C 3.1092 -6.60312 -0.976951 0
M  V30 50 H 2.3792 -0.570129 -0.473322 0
M  V30 51 H 5.0262 -1.81845 -0.600372 0
M  V30 52 H 3.3312 -2.31747 -3.15912 0
M  V30 53 H 5.0282 -2.67089 -2.99107 0
M  V30 54 H 1.6182 -3.75949 -2.05815 0
M  V30 55 H 5.8022 -4.66738 -1.68728 0
M  V30 56 H 1.0582 -5.99468 -1.202 0
M  V30 57 H 5.2322 -6.91318 -0.839811 0
M  V30 58 H 2.8592 -7.57895 -0.591501 0
M  V30 59 N 4.4343 0.785586 -1.36625 0
M  V30 60 C 5.6823 1.54057 -1.30808 0
M  V30 61 C 6.0033 1.94683 0.111157 0
M  V30 62 O 5.2733 1.65241 1.05224 0
M  V30 63 H 3.8533 0.571354 -0.481211 0
M  V30 64 H 6.5153 0.935821 -1.70963 0
M  V30 65 H 5.6113 2.44637 -1.93801 0
M  V30 66 N 5.9124 1.20967 1.01018 0
M  V30 67 C 6.8594 0.964281 2.09691 0
M  V30 68 C 7.8294 -0.107853 1.65749 0
M  V30 69 O 9.0144 0.0381987 1.90762 0
M  V30 70 C 6.1544 0.52943 3.41015 0
M  V30 71 C 5.2674 1.67043 3.98398 0
M  V30 72 C 4.4024 1.18525 5.17808 0
M  V30 73 C 3.4414 2.29892 5.67288 0
M  V30 74 N 2.5784 1.82546 6.77954 0
M  V30 75 H 7.4184 1.89463 2.30017 0
M  V30 76 H 4.9554 0.944289 1.1279 0
M  V30 77 H 6.9134 0.258588 4.16398 0
M  V30 78 H 5.5434 -0.363919 3.20742 0
M  V30 79 H 4.5954 2.05603 3.20049 0
M  V30 80 H 5.9074 2.50877 4.31117 0
M  V30 81 H 5.0614 0.870762 6.00419 0
M  V30 82 H 3.8004 0.316887 4.86669 0
M  V30 83 H 2.8054 2.6215 4.83278 0
M  V30 84 H 4.0304 3.17216 6.00459 0
M  V30 85 H 1.9764 0.980454 6.48632 0
M  V30 86 H 1.8934 2.59956 7.09901 0
M  V30 87 H 3.1614 1.54115 7.64113 0
M  V30 88 N 7.3905 -1.2043 1.01659 0
M  V30 89 C 8.3205 -2.25466 0.607226 0
M  V30 90 C 9.3015 -1.65853 -0.377716 0
M  V30 91 O 10.4865 -1.92409 -0.263149 0
M  V30 92 C 7.6165 -3.47256 -0.0552949 0
M  V30 93 C 6.5705 -4.19462 0.850632 0
M  V30 94 C 5.8965 -5.34673 0.0538859 0
M  V30 95 C 7.1965 -4.75603 2.15868 0
M  V30 96 H 8.8905 -2.59962 1.48526 0
M  V30 97 H 6.4365 -1.2496 0.715605 0
M  V30 98 H 8.3895 -4.19917 -0.353233 0
M  V30 99 H 7.1135 -3.11924 -0.968045 0
M  V30 100 H 5.7725 -3.48667 1.13257 0
M  V30 101 H 5.4205 -4.95585 -0.860514 0
M  V30 102 H 5.1205 -5.83913 0.657192 0
M  V30 103 H 6.6445 -6.10138 -0.237598 0
M  V30 104 H 8.0585 -5.40083 1.92311 0
M  V30 105 H 6.4555 -5.3528 2.71284 0
M  V30 106 H 7.5255 -3.94346 2.82169 0
M  V30 107 N 8.8686 -0.792821 -1.36206 0
M  V30 108 C 9.7786 -0.194808 -2.3379 0
M  V30 109 C 10.7946 0.654869 -1.61206 0
M  V30 110 O 11.9706 0.569856 -1.9317 0
M  V30 111 C 9.0356 0.657721 -3.40404 0
M  V30 112 C 8.0966 -0.210849 -4.28782 0
M  V30 113 C 7.3296 0.601086 -5.30304 0
M  V30 114 O 7.5526 1.83682 -5.40016 0
M  V30 115 O 6.4866 -0.000808277 -6.019 0
M  V30 116 H 10.3126 -1.00172 -2.86704 0
M  V30 117 H 7.8976 -0.554341 -1.38735 0
M  V30 118 H 9.7796 1.14375 -4.05581 0
M  V30 119 H 8.4546 1.44247 -2.89784 0
M  V30 120 H 7.3616 -0.743714 -3.66633 0
M  V30 121 H 8.6946 -0.959195 -4.82763 0
M  V30 122 N 10.3467 1.47872 -0.545128 0
M  V30 123 C 11.5947 2.02093 -0.016553 0
M  V30 124 C 11.9157 1.42305 1.3332 0
M  V30 125 O 11.1857 0.593853 1.86682 0
M  V30 126 H 9.7657 0.746993 -0.00313038 0
M  V30 127 H 12.4277 1.81414 -0.712397 0
M  V30 128 H 11.5237 3.11996 0.0805422 0
M  V30 129 N 11.8248 0.280983 1.55075 0
M  V30 130 C 13.0728 -0.333455 1.9933 0
M  V30 131 C 13.3938 -1.55937 1.17085 0
M  V30 132 O 12.6638 -1.94143 0.261805 0
M  V30 133 H 11.2438 -0.126197 0.736263 0
M  V30 134 H 13.9058 0.387678 1.91005 0
M  V30 135 H 13.0018 -0.619292 3.05894 0
M  V30 136 N 13.3029 -1.57598 0.00835791 0
M  V30 137 C 14.2659 -2.07884 -0.965242 0
M  V30 138 C 15.2659 -0.989825 -1.26725 0
M  V30 139 O 16.4559 -1.25218 -1.21104 0
M  V30 140 C 13.5879 -2.52731 -2.28779 0
M  V30 141 H 14.7809 -2.95178 -0.530112 0
M  V30 142 H 12.3339 -1.54458 -0.239283 0
M  V30 143 H 13.0689 -1.68705 -2.76964 0
M  V30 144 H 12.8539 -3.32272 -2.08177 0
M  V30 145 H 14.3439 -2.91933 -2.98605 0
M  V30 146 N 14.781 0.264519 -1.55364 0
M  V30 147 C 16.006 1.01726 -1.80739 0
M  V30 148 C 16.431 1.78836 -0.583044 0
M  V30 149 O 15.789 1.75167 0.467566 0
M  V30 150 C 15.837 1.94482 -3.03659 0
M  V30 151 O 14.941 3.03386 -2.7934 0
M  V30 152 H 14.282 0.290395 -0.597132 0
M  V30 153 H 16.812 0.290854 -2.02522 0
M  V30 154 H 16.822 2.36278 -3.32621 0
M  V30 155 H 15.497 1.37772 -3.92418 0
M  V30 156 H 14.074 2.65844 -2.61498 0
M  V30 157 N 16.2591 1.48442 0.529413 0
M  V30 158 C 17.4991 1.58086 1.29569 0
M  V30 159 C 17.8631 0.249302 1.90375 0
M  V30 160 O 19.0641 0.220738 2.67892 0
M  V30 161 C 17.3351 2.68793 2.35552 0
M  V30 162 S 18.8941 2.98207 3.21898 0
M  V30 163 H 15.7121 0.557922 0.440732 0
M  V30 164 H 18.3141 1.85966 0.603059 0
M  V30 165 H 17.0181 3.64102 1.89363 0
M  V30 166 H 16.5491 2.42817 3.09522 0
M  V30 167 H 18.5641 2.37548 4.35644 0
M  V30 168 N 17.7372 -0.778329 1.37039 0
M  V30 169 C 18.9622 -1.57248 1.35233 0
M  V30 170 C 19.3872 -1.87999 -0.0615568 0
M  V30 171 O 18.7452 -1.48734 -1.03672 0
M  V30 172 C 18.7932 -2.86353 2.19167 0
M  V30 173 O 17.8972 -3.80442 1.59178 0
M  V30 174 H 17.2382 -0.476569 0.462362 0
M  V30 175 H 19.7682 -0.963853 1.80474 0
M  V30 176 H 19.7782 -3.35519 2.32145 0
M  V30 177 H 18.4532 -2.63299 3.21942 0
M  V30 178 H 17.0302 -3.39067 1.55203 0
M  V30 179 N 19.2153 -1.21501 -1.00376 0
M  V30 180 C 20.6263 -1.03146 -1.55621 0
M  V30 181 C 20.9773 0.408375 -1.91903 0
M  V30 182 O 20.1023 1.29177 -1.73616 0
M  V30 183 C 20.6973 -1.86612 -2.82775 0
M  V30 184 C 19.2563 -1.72586 -3.34501 0
M  V30 185 C 18.4033 -1.83747 -2.07683 0
M  V30 186 H 21.3543 -1.35505 -0.826081 0
M  V30 187 H 21.3753 -1.3771 -3.54706 0
M  V30 188 H 20.8873 -2.91399 -2.56336 0
M  V30 189 H 18.9883 -0.704877 -3.65872 0
M  V30 190 H 19.1013 -2.54623 -4.05837 0
M  V30 191 H 17.4653 -1.27069 -2.20739 0
M  V30 192 H 18.2483 -2.90044 -1.83655 0
M  V30 193 N 20.6934 1.19889 -1.02296 0
M  V30 194 C 21.9184 1.9393 -0.735237 0
M  V30 195 C 22.3434 1.74639 0.698782 0
M  V30 196 O 21.7014 1.04481 1.48167 0
M  V30 197 C 21.7494 3.43916 -1.08417 0
M  V30 198 O 20.8534 4.11917 -0.199446 0
M  V30 199 H 20.1944 0.605645 -0.272196 0
M  V30 200 H 22.7244 1.52137 -1.36804 0
M  V30 201 H 22.7344 3.9456 -1.03856 0
M  V30 202 H 21.4094 3.5728 -2.12894 0
M  V30 203 H 19.9864 3.71666 -0.303136 0
M  V30 204 N 22.1715 0.800033 1.35784 0
M  V30 205 C 23.0815 0.207204 2.33683 0
M  V30 206 C 24.0975 -0.64631 1.61551 0
M  V30 207 O 25.2735 -0.559604 1.93469 0
M  V30 208 C 22.3385 -0.639659 3.40748 0
M  V30 209 C 21.3995 0.233585 4.28664 0
M  V30 210 C 20.6325 -0.572954 5.30616 0
M  V30 211 O 20.8555 -1.80816 5.40982 0
M  V30 212 O 19.7895 0.0327285 6.01891 0
M  V30 213 H 23.6155 1.01692 2.86169 0
M  V30 214 H 21.2005 0.561691 1.38439 0
M  V30 215 H 23.0825 -1.12223 4.06182 0
M  V30 216 H 21.7575 -1.42708 2.90544 0
M  V30 217 H 20.6645 0.763147 3.66233 0
M  V30 218 H 21.9975 0.984784 4.82248 0
M  V30 219 N 23.6496 -1.47581 0.552962 0
M  V30 220 C 24.8746 -2.07378 0.0300593 0
M  V30 221 C 25.2996 -1.40355 -1.25229 0
M  V30 222 O 24.6576 -0.477099 -1.7491 0
M  V30 223 C 24.7056 -3.60274 -0.153231 0
M  V30 224 O 23.8096 -3.94041 -1.21678 0
M  V30 225 H 23.1506 -0.662158 0.0494182 0
M  V30 226 H 25.6806 -1.89662 0.767434 0
M  V30 227 H 25.6906 -4.0633 -0.368761 0
M  V30 228 H 24.3656 -4.08455 0.783397 0
M  V30 229 H 22.9426 -3.59735 -0.982079 0
M  V30 230 N 25.1277 -0.289203 -1.54924 0
M  V30 231 C 26.0757 0.607966 -2.24514 0
M  V30 232 C 27.0697 1.14655 -1.24702 0
M  V30 233 O 28.2757 1.09856 -1.4259 0
M  V30 234 H 24.6507 0.21464 -0.720718 0
M  V30 235 H 26.6217 -0.00164182 -2.984 0
M  V30 236 C 25.3707 1.77406 -2.99036 0
M  V30 237 H 24.6937 1.36884 -3.75637 0
M  V30 238 H 26.1337 2.37814 -3.51028 0
M  V30 239 C 24.5927 2.67107 -2.05318 0
M  V30 240 O 25.1227 3.6787 -1.61353 0
M  V30 241 N 23.3287 2.34582 -1.71521 0
M  V30 242 H 22.8757 1.52688 -2.07471 0
M  V30 243 H 22.8337 2.94867 -1.0909 0
M  V30 244 N 26.6058 1.57591 -0.0167156 0
M  V30 245 C 27.5688 2.08393 0.954204 0
M  V30 246 C 28.5688 0.996531 1.26198 0
M  V30 247 O 29.7588 1.25858 1.20438 0
M  V30 248 C 26.8908 2.5394 2.27436 0
M  V30 249 H 28.0838 2.95455 0.514451 0
M  V30 250 H 25.6368 1.54582 0.231089 0
M  V30 251 H 26.3718 1.70171 2.76066 0
M  V30 252 H 26.1568 3.33371 2.06412 0
M  V30 253 H 27.6468 2.93512 2.97053 0
M  V30 254 N 28.0839 -0.256276 1.55502 0
M  V30 255 C 29.0469 -1.30047 1.88734 0
M  V30 256 C 30.0469 -1.4154 0.763086 0
M  V30 257 O 31.2369 -1.40403 1.03115 0
M  V30 258 C 28.3689 -2.67953 2.10747 0
M  V30 259 H 29.5619 -1.01802 2.82093 0
M  V30 260 H 27.1149 -0.495134 1.4825 0
M  V30 261 H 27.8499 -3.01351 1.19825 0
M  V30 262 H 27.6349 -2.60993 2.92617 0
M  V30 263 H 29.1249 -3.43368 2.37673 0
M  V30 264 N 29.562 -1.4872 -0.521534 0
M  V30 265 C 30.787 -1.61101 -1.30618 0
M  V30 266 C 31.212 -0.274611 -1.86085 0
M  V30 267 O 30.57 0.754937 -1.64834 0
M  V30 268 C 30.618 -2.66709 -2.4269 0
M  V30 269 O 29.722 -2.24456 -3.45967 0
M  V30 270 H 29.063 -0.539921 -0.386499 0
M  V30 271 H 31.593 -1.94767 -0.626645 0
M  V30 272 H 31.603 -2.88245 -2.88754 0
M  V30 273 H 30.278 -3.63727 -2.01682 0
M  V30 274 H 28.855 -2.13168 -3.05964 0
M  V30 275 N 31.0401 0.771051 -1.3745 0
M  V30 276 C 32.2651 1.56529 -1.36065 0
M  V30 277 C 32.6901 1.88029 0.0515859 0
M  V30 278 O 32.0481 1.49282 1.02882 0
M  V30 279 C 32.0961 2.85187 -2.20683 0
M  V30 280 O 31.2001 3.79593 -1.61193 0
M  V30 281 H 30.5411 0.47411 -0.464883 0
M  V30 282 H 33.0711 0.954269 -1.80983 0
M  V30 283 H 33.0811 3.34283 -2.33921 0
M  V30 284 H 31.7561 2.61588 -3.23334 0
M  V30 285 H 30.3331 3.38239 -1.56999 0
M  V30 286 N 32.5182 1.22032 0.997298 0
M  V30 287 C 33.4662 0.983634 2.10778 0
M  V30 288 C 34.4602 -0.0717564 1.69248 0
M  V30 289 O 35.6662 0.080304 1.79821 0
M  V30 290 H 32.0412 0.300877 0.689186 0
M  V30 291 H 34.0122 1.92606 2.27916 0
M  V30 292 C 32.7612 0.57326 3.42942 0
M  V30 293 H 32.0842 1.37702 3.75338 0
M  V30 294 H 33.5242 0.447031 4.21637 0
M  V30 295 C 31.9832 -0.7167 3.29188 0
M  V30 296 O 32.5132 -1.77027 3.60589 0
M  V30 297 N 30.7192 -0.686167 2.82383 0
M  V30 298 H 30.2662 0.171507 2.57028 0
M  V30 299 H 30.2242 -1.54955 2.73562 0
M  V30 300 N 33.9963 -1.19345 1.0293 0
M  V30 301 C 34.9593 -2.20793 0.615069 0
M  V30 302 C 35.9593 -1.57553 -0.321533 0
M  V30 303 O 37.1493 -1.73862 -0.108483 0
M  V30 304 C 34.2813 -3.40754 -0.0999222 0
M  V30 305 H 35.4743 -2.58955 1.51269 0
M  V30 306 H 33.0273 -1.3303 0.820534 0
M  V30 307 H 33.7623 -3.0811 -1.01187 0
M  V30 308 H 33.5473 -3.87889 0.57309 0
M  V30 309 H 35.0373 -4.15898 -0.376645 0
M  V30 310 N 35.4744 -0.807222 -1.35358 0
M  V30 311 C 36.7234 -0.384376 -1.98004 0
M  V30 312 C 37.0364 1.0543 -1.64754 0
M  V30 313 O 38.2424 1.58029 -2.20769 0
M  V30 314 C 36.6984 -0.636326 -3.5423 0
M  V30 315 C 36.3064 -2.08759 -3.96388 0
M  V30 316 C 38.0504 -0.278869 -4.23583 0
M  V30 317 C 35.9574 -2.28525 -5.45463 0
M  V30 318 H 34.8874 -0.139986 -0.740891 0
M  V30 319 H 37.5384 -0.991369 -1.54415 0
M  V30 320 H 35.9204 0.0406256 -3.95979 0
M  V30 321 H 37.0944 -2.8024 -3.6579 0
M  V30 322 H 35.4094 -2.40497 -3.39926 0
M  V30 323 H 38.0064 -0.404599 -5.33167 0
M  V30 324 H 38.3494 0.775012 -4.09022 0
M  V30 325 H 38.8824 -0.909764 -3.87257 0
M  V30 326 H 35.6214 -3.32361 -5.64992 0
M  V30 327 H 35.1414 -1.61569 -5.77629 0
M  V30 328 H 36.8204 -2.10109 -6.11934 0
M  V30 329 N 36.9525 1.47285 -0.560781 0
M  V30 330 C 38.1925 2.0436 -0.0404627 0
M  V30 331 C 38.5565 1.42534 1.28639 0
M  V30 332 O 39.7575 1.90677 1.89462 0
M  V30 333 C 38.0285 3.57369 0.0471856 0
M  V30 334 S 39.5875 4.3579 0.513109 0
M  V30 335 H 36.4055 0.710492 -0.0268674 0
M  V30 336 H 39.0075 1.80611 -0.748323 0
M  V30 337 H 37.7115 3.9989 -0.922817 0
M  V30 338 H 37.2425 3.8562 0.778491 0
M  V30 339 H 39.2575 4.63476 1.77212 0
M  V30 340 N 38.4306 0.297415 1.54768 0
M  V30 341 C 39.6586 -0.315623 2.04478 0
M  V30 342 C 40.0736 -1.47792 1.17486 0
M  V30 343 O 39.4306 -1.81404 0.19971 0
M  V30 344 C 39.4816 -0.7753 3.53088 0
M  V30 345 O 39.2026 0.340732 4.36773 0
M  V30 346 C 40.7036 -1.45386 4.18781 0
M  V30 347 H 37.9236 -0.0690887 0.667434 0
M  V30 348 H 40.4676 0.436003 1.99798 0
M  V30 349 H 38.6226 -1.47696 3.58141 0
M  V30 350 H 39.0366 -0.0165035 5.24497 0
M  V30 351 H 40.5106 -1.72669 5.24299 0
M  V30 352 H 40.9876 -2.39275 3.68299 0
M  V30 353 H 41.5936 -0.795475 4.17795 0
M  V30 354 N 39.9087 -1.5758 0.0250728 0
M  V30 355 C 41.1337 -1.96337 -0.668317 0
M  V30 356 C 41.5587 -0.901314 -1.651 0
M  V30 357 O 40.9167 0.138187 -1.80773 0
M  V30 358 C 40.9647 -3.34191 -1.35457 0
M  V30 359 O 40.0687 -3.30269 -2.46974 0
M  V30 360 H 39.4097 -0.640281 -0.175887 0
M  V30 361 H 41.9397 -2.0442 0.0857224 0
M  V30 362 H 41.9497 -3.70331 -1.71228 0
M  V30 363 H 40.6247 -4.11036 -0.634218 0
M  V30 364 H 39.2017 -3.05841 -2.13344 0
M  V30 365 N 41.3868 0.248026 -1.55636 0
M  V30 366 C 42.3348 1.32683 -1.91045 0
M  V30 367 C 43.3288 1.49883 -0.789401 0
M  V30 368 O 44.5348 1.51371 -0.974007 0
M  V30 369 H 40.9098 0.444272 -0.606734 0
M  V30 370 H 42.8808 1.00085 -2.81115 0
M  V30 371 C 41.6298 2.6755 -2.22064 0
M  V30 372 H 40.9528 2.55114 -3.07826 0
M  V30 373 H 42.3928 3.41912 -2.50743 0
M  V30 374 C 40.8518 3.20556 -1.0366 0
M  V30 375 O 41.3818 4.00695 -0.284016 0
M  V30 376 N 39.5878 2.78568 -0.82753 0
M  V30 377 H 39.1348 2.1351 -1.44123 0
M  V30 378 H 39.0928 3.14378 -0.0369803 0
M  V30 379 N 42.8649 1.48995 0.513639 0
M  V30 380 C 44.1129 1.57531 1.26604 0
M  V30 381 C 44.4339 0.258236 1.93283 0
M  V30 382 O 43.7039 -0.721502 1.8213 0
M  V30 383 H 42.2839 0.580387 0.470276 0
M  V30 384 H 44.9459 1.85552 0.596373 0
M  V30 385 H 44.0419 2.36486 2.03669 0
M  V30 386 N 44.343 -0.763751 1.37857 0
M  V30 387 C 45.591 -1.51957 1.33243 0
M  V30 388 C 45.912 -1.94835 -0.0801709 0
M  V30 389 O 45.182 -1.66894 -1.02582 0
M  V30 390 H 43.762 -0.563626 0.49024 0
M  V30 391 H 46.424 -0.908504 1.7243 0
M  V30 392 H 45.52 -2.41523 1.97669 0
M  V30 393 N 45.8211 -1.22559 -0.990812 0
M  V30 394 C 46.7311 -1.01394 -2.11557 0
M  V30 395 C 47.7471 0.0383962 -1.73958 0
M  V30 396 O 48.9231 -0.154787 -2.00804 0
M  V30 397 C 45.9881 -0.596569 -3.41529 0
M  V30 398 C 45.0491 -1.72276 -3.93217 0
M  V30 399 C 44.2821 -1.32521 -5.16985 0
M  V30 400 O 44.5051 -0.204909 -5.70032 0
M  V30 401 O 43.4391 -2.14247 -5.62478 0
M  V30 402 H 47.2651 -1.95633 -2.32296 0
M  V30 403 H 44.8501 -1.01172 -1.0993 0
M  V30 404 H 46.7321 -0.374263 -4.19735 0
M  V30 405 H 45.4071 0.316939 -3.22145 0
M  V30 406 H 44.3141 -1.99961 -3.16174 0
M  V30 407 H 45.6471 -2.61421 -4.17037 0
M  V30 408 N 47.2992 1.18797 -1.03562 0
M  V30 409 C 48.5272 1.92599 -0.755869 0
M  V30 410 C 48.9422 1.75886 0.686271 0
M  V30 411 O 48.2992 1.08517 1.46732 0
M  V30 412 C 48.3502 3.44159 -1.10619 0
M  V30 413 O 48.0712 3.60341 -2.4917 0
M  V30 414 C 49.5722 4.3507 -0.850214 0
M  V30 415 H 46.7922 0.611587 -0.276048 0
M  V30 416 H 49.3362 1.50742 -1.38192 0
M  V30 417 H 47.4912 3.83823 -0.525194 0
M  V30 418 H 47.9052 4.54128 -2.62427 0
M  V30 419 H 49.3792 5.39989 -1.14523 0
M  V30 420 H 49.8562 4.38673 0.215176 0
M  V30 421 H 50.4622 4.01097 -1.41426 0
M  V30 422 N 48.7773 0.814389 1.34928 0
M  V30 423 C 50.0263 0.394871 1.97797 0
M  V30 424 C 50.3393 -1.04555 1.65311 0
M  V30 425 O 51.5453 -1.56856 2.21604 0
M  V30 426 C 50.0013 0.655103 3.53888 0
M  V30 427 C 49.6093 2.10858 3.95276 0
M  V30 428 C 51.3533 0.301329 4.23429 0
M  V30 429 C 49.2603 2.31415 5.44244 0
M  V30 430 H 48.1903 0.143913 0.740139 0
M  V30 431 H 50.8413 0.999544 1.53888 0
M  V30 432 H 49.2233 -0.0196253 3.95995 0
M  V30 433 H 50.3973 2.82176 3.64298 0
M  V30 434 H 48.7123 2.42297 3.38646 0
M  V30 435 H 51.3093 0.432869 5.32945 0
M  V30 436 H 51.6523 -0.75331 4.09428 0
M  V30 437 H 52.1853 0.930288 3.86769 0
M  V30 438 H 48.9243 3.35353 5.63222 0
M  V30 439 H 48.4443 1.6463 5.76764 0
M  V30 440 H 50.1233 2.13352 6.10811 0
M  V30 441 N 50.2554 -1.46986 0.568584 0
M  V30 442 C 51.5034 -2.02041 0.0487022 0
M  V30 443 C 51.8244 -1.44408 -1.31039 0
M  V30 444 O 51.0944 -0.623477 -1.85714 0
M  V30 445 H 49.6744 -0.746849 0.015014 0
M  V30 446 H 52.3364 -1.80257 0.741168 0
M  V30 447 H 51.4324 -3.12085 -0.0308961 0
M  V30 448 N 51.7335 -0.305618 -1.54608 0
M  V30 449 C 52.9805 0.302298 -2.00231 0
M  V30 450 C 53.3085 1.5354 -1.19398 0
M  V30 451 O 52.5635 1.93973 -0.259423 0
M  V30 452 C 52.8625 0.698983 -3.50498 0
M  V30 453 C 52.5285 -0.432903 -4.48817 0
M  V30 454 C 51.1905 -0.743622 -4.75419 0
M  V30 455 C 53.5425 -1.19409 -5.07337 0
M  V30 456 C 50.8705 -1.81857 -5.57804 0
M  V30 457 C 53.2225 -2.25899 -5.90891 0
M  V30 458 C 51.8865 -2.57572 -6.15803 0
M  V30 459 H 51.1565 0.110619 -0.732697 0
M  V30 460 H 53.8035 -0.425674 -1.86709 0
M  V30 461 H 52.1085 1.50711 -3.61654 0
M  V30 462 H 53.8055 1.1806 -3.83227 0
M  V30 463 H 50.3955 -0.18063 -4.28219 0
M  V30 464 H 54.5795 -0.967295 -4.86782 0
M  V30 465 H 49.8355 -2.06864 -5.75341 0
M  V30 466 H 54.0095 -2.85335 -6.35261 0
M  V30 467 H 51.6365 -3.40998 -6.7943 0
M  V30 468 N 53.2116 1.57565 -0.0334293 0
M  V30 469 C 54.4576 1.92262 0.645226 0
M  V30 470 C 54.7906 0.910543 1.71531 0
M  V30 471 O 54.0656 -0.066099 1.94388 0
M  V30 472 C 54.3486 3.37422 1.2577 0
M  V30 473 C 54.2016 4.49369 0.196891 0
M  V30 474 C 55.5206 3.82628 2.17449 0
M  V30 475 H 52.6396 0.699171 0.233085 0
M  V30 476 H 55.2816 1.89779 -0.0915694 0
M  V30 477 H 53.4316 3.39669 1.88566 0
M  V30 478 H 55.1036 4.59254 -0.433962 0
M  V30 479 H 53.3466 4.31168 -0.477137 0
M  V30 480 H 54.0176 5.47978 0.665124 0
M  V30 481 H 56.4936 3.82145 1.64634 0
M  V30 482 H 55.3696 4.84883 2.57254 0
M  V30 483 H 55.6306 3.18376 3.0674 0
M  V30 484 N 54.6897 -0.239769 1.55765 0
M  V30 485 C 55.6377 -1.31668 1.91745 0
M  V30 486 C 56.6317 -1.49462 0.797338 0
M  V30 487 O 57.8377 -1.50852 0.982021 0
M  V30 488 H 54.2127 -0.441048 0.609082 0
M  V30 489 H 56.1837 -0.985923 2.81642 0
M  V30 490 C 54.9327 -2.66368 2.2348 0
M  V30 491 H 54.2557 -2.53478 3.09175 0
M  V30 492 H 55.6957 -3.40578 2.52553 0
M  V30 493 C 54.1547 -3.20002 1.05359 0
M  V30 494 O 54.6847 -4.00538 0.305261 0
M  V30 495 N 52.8907 -2.78126 0.842292 0
M  V30 496 H 52.4377 -2.12742 1.45253 0
M  V30 497 H 52.3957 -3.14354 0.053652 0
M  V30 498 N 56.1678 -1.49265 -0.50573 0
M  V30 499 C 57.3978 -1.61979 -1.28243 0
M  V30 500 C 57.8058 -0.288576 -1.86986 0
M  V30 501 O 57.1488 0.735408 -1.68337 0
M  V30 502 C 57.2108 -2.62632 -2.45489 0
M  V30 503 C 56.8748 -4.071 -2.07651 0
M  V30 504 C 57.8718 -4.94049 -1.61901 0
M  V30 505 C 55.5568 -4.52801 -2.17431 0
M  V30 506 C 57.5508 -6.24736 -1.26428 0
M  V30 507 C 55.2378 -5.83503 -1.8157 0
M  V30 508 C 56.2358 -6.69294 -1.36142 0
M  V30 509 O 55.9238 -7.9756 -1.00764 0
M  V30 510 H 55.6558 -0.54834 -0.395347 0
M  V30 511 H 58.2098 -1.96002 -0.614204 0
M  V30 512 H 56.4398 -2.2378 -3.15372 0
M  V30 513 H 58.1288 -2.64925 -3.07522 0
M  V30 514 H 58.8948 -4.5997 -1.53795 0
M  V30 515 H 54.7738 -3.86196 -2.51742 0
M  V30 516 H 58.3178 -6.91652 -0.908992 0
M  V30 517 H 54.2148 -6.17112 -1.89324 0
M  V30 518 H 54.9828 -8.10529 -1.13952 0
M  V30 519 N 57.6459 0.756429 -1.3826 0
M  V30 520 C 58.5939 1.89149 -1.35372 0
M  V30 521 C 59.5879 1.67691 -0.24004 0
M  V30 522 O 60.7939 1.75294 -0.408919 0
M  V30 523 H 57.1689 0.622271 -0.422236 0
M  V30 524 H 59.1399 1.88701 -2.31159 0
M  V30 525 C 57.8889 3.26599 -1.19284 0
M  V30 526 H 57.2119 3.43695 -2.0424 0
M  V30 527 H 58.6519 4.06274 -1.21316 0
M  V30 528 C 57.1109 3.3675 0.100454 0
M  V30 529 O 57.6409 3.86951 1.07851 0
M  V30 530 N 55.8469 2.90179 0.15633 0
M  V30 531 H 55.3939 2.49517 -0.640253 0
M  V30 532 H 55.3519 2.97352 1.02123 0
M  V30 533 N 59.124 1.23083 0.984299 0
M  V30 534 C 60.071 1.00854 2.07598 0
M  V30 535 C 61.041 -0.0726709 1.65941 0
M  V30 536 O 62.226 0.0786535 1.90638 0
M  V30 537 C 59.366 0.601645 3.39815 0
M  V30 538 C 58.479 1.75456 3.94765 0
M  V30 539 C 57.614 1.29482 5.15177 0
M  V30 540 C 56.653 2.41873 5.62284 0
M  V30 541 N 55.79 1.96885 6.73929 0
M  V30 542 H 60.63 1.943 2.25946 0
M  V30 543 H 58.167 0.968001 1.10762 0
M  V30 544 H 60.125 0.346854 4.15756 0
M  V30 545 H 58.755 -0.295803 3.21442 0
M  V30 546 H 57.807 2.12346 3.15616 0
M  V30 547 H 59.119 2.59965 4.25699 0
M  V30 548 H 58.273 0.997923 5.98437 0
M  V30 549 H 57.012 0.420046 4.85888 0
M  V30 550 H 56.017 2.72342 4.77608 0
M  V30 551 H 57.242 3.29881 5.93595 0
M  V30 552 H 55.188 1.11782 6.46406 0
M  V30 553 H 55.105 2.74956 7.04227 0
M  V30 554 H 56.373 1.70289 7.60672 0
M  V30 555 N 60.6021 -1.18246 1.0419 0
M  V30 556 C 61.8481 -1.88536 0.747122 0
M  V30 557 C 62.1811 -1.80223 -0.723409 0
M  V30 558 O 61.4561 -1.20337 -1.52804 0
M  V30 559 C 61.7391 -3.38968 1.21544 0
M  V30 560 C 61.5921 -3.56084 2.74816 0
M  V30 561 C 62.9111 -4.32648 0.806482 0
M  V30 562 H 60.0301 -0.684619 0.272883 0
M  V30 563 H 62.6721 -1.39113 1.29413 0
M  V30 564 H 60.8221 -3.8119 0.750081 0
M  V30 565 H 62.4941 -3.22946 3.29399 0
M  V30 566 H 60.7371 -2.98699 3.14582 0
M  V30 567 H 61.4081 -4.61639 3.02644 0
M  V30 568 H 63.8841 -3.98211 1.20695 0
M  V30 569 H 62.7601 -5.36462 1.1619 0
M  V30 570 H 63.0211 -4.41146 -0.29029 0
M  V30 571 N 62.0802 -0.821533 -1.34494 0
M  V30 572 C 63.3282 -0.408139 -1.97936 0
M  V30 573 C 63.6492 1.03193 -1.65457 0
M  V30 574 O 62.9192 1.71622 -0.944595 0
M  V30 575 H 61.4992 -0.147928 -0.732206 0
M  V30 576 H 64.1612 -1.05067 -1.64155 0
M  V30 577 H 63.2572 -0.52601 -3.07635 0
M  V30 578 N 63.5583 1.46682 -0.576371 0
M  V30 579 C 64.7863 2.06798 -0.0649635 0
M  V30 580 C 65.2013 1.42612 1.23723 0
M  V30 581 O 64.5583 0.529203 1.74659 0
M  V30 582 C 64.6093 3.6132 0.114202 0
M  V30 583 O 64.3303 4.23104 -1.13644 0
M  V30 584 C 65.8313 4.38349 0.66069 0
M  V30 585 H 63.0513 0.668778 -0.0545616 0
M  V30 586 H 65.5953 1.88404 -0.795237 0
M  V30 587 H 63.7503 3.79162 0.794673 0
M  V30 588 H 64.1643 5.15894 -0.946253 0
M  V30 589 H 65.6383 5.47081 0.73526 0
M  V30 590 H 66.1153 4.05953 1.67627 0
M  V30 591 H 66.7213 4.25297 0.0152951 0
M  V30 592 N 65.0364 0.313813 1.54444 0
M  V30 593 C 66.2644 -0.293918 2.04802 0
M  V30 594 C 66.6794 -1.46537 1.19047 0
M  V30 595 O 66.0364 -1.81182 0.218939 0
M  V30 596 C 66.0874 -0.737806 3.53891 0
M  V30 597 O 65.8084 0.387038 4.36387 0
M  V30 598 C 67.3094 -1.40936 4.203 0
M  V30 599 H 64.5294 -0.0620057 0.668129 0
M  V30 600 H 67.0734 0.457169 1.99324 0
M  V30 601 H 65.2284 -1.43889 3.59687 0
M  V30 602 H 65.6424 0.0391274 5.24485 0
M  V30 603 H 67.1164 -1.67099 5.26101 0
M  V30 604 H 67.5934 -2.35355 3.70816 0
M  V30 605 H 68.1994 -0.751117 4.18615 0
M  V30 606 N 66.5145 -1.57545 0.0417849 0
M  V30 607 C 67.7425 -1.96624 -0.643928 0
M  V30 608 C 68.1575 -0.918897 -1.64929 0
M  V30 609 O 67.5145 0.0979323 -1.82237 0
M  V30 610 C 67.5655 -3.35781 -1.33914 0
M  V30 611 O 67.2865 -4.365 -0.374048 0
M  V30 612 C 68.7875 -3.89566 -2.1155 0
M  V30 613 H 66.0075 -0.647316 -0.176702 0
M  V30 614 H 68.5515 -2.04229 0.105304 0
M  V30 615 H 66.7065 -3.29357 -2.03968 0
M  V30 616 H 67.1205 -5.17248 -0.869179 0
M  V30 617 H 68.5945 -4.89242 -2.55628 0
M  V30 618 H 69.0715 -3.24488 -2.9598 0
M  V30 619 H 69.6775 -3.99298 -1.46427 0
M  V30 620 N 67.9926 0.231505 -1.5589 0
M  V30 621 C 69.2206 0.974505 -1.82513 0
M  V30 622 C 69.6356 1.78344 -0.619591 0
M  V30 623 O 68.9926 1.77792 0.411848 0
M  V30 624 C 69.0436 1.90007 -3.07538 0
M  V30 625 O 68.7646 1.12385 -4.2344 0
M  V30 626 C 70.2656 2.75779 -3.47075 0
M  V30 627 H 67.4856 0.286065 -0.606966 0
M  V30 628 H 70.0296 0.249739 -2.02969 0
M  V30 629 H 68.1846 2.57891 -2.89086 0
M  V30 630 H 68.5986 1.75125 -4.944 0
M  V30 631 H 70.0726 3.36443 -4.37619 0
M  V30 632 H 70.5496 3.47672 -2.68367 0
M  V30 633 H 71.1556 2.13323 -3.67931 0
M  V30 634 N 69.4707 1.49531 0.497807 0
M  V30 635 C 70.4007 1.6935 1.60757 0
M  V30 636 C 71.3817 0.542218 1.61227 0
M  V30 637 O 72.5667 0.778417 1.77917 0
M  V30 638 C 69.6967 1.76298 2.99226 0
M  V30 639 C 68.6507 2.91248 3.13622 0
M  V30 640 C 67.9767 2.83312 4.53474 0
M  V30 641 C 69.2767 4.3214 2.93346 0
M  V30 642 H 70.9707 2.62263 1.44425 0
M  V30 643 H 68.5167 1.26208 0.693367 0
M  V30 644 H 70.4697 1.88749 3.76765 0
M  V30 645 H 69.1937 0.799871 3.16654 0
M  V30 646 H 67.8527 2.78404 2.38509 0
M  V30 647 H 67.5007 1.84902 4.67782 0
M  V30 648 H 67.2007 3.60465 4.64046 0
M  V30 649 H 68.7247 2.97775 5.33069 0
M  V30 650 H 70.1387 4.45649 3.60652 0
M  V30 651 H 68.5357 5.1054 3.15387 0
M  V30 652 H 69.6057 4.46363 1.89441 0
M  V30 653 N 70.9488 -0.749086 1.3866 0
M  V30 654 C 71.8588 -1.89358 1.38494 0
M  V30 655 C 72.8748 -1.71708 0.281476 0
M  V30 656 O 74.0508 -1.94554 0.520643 0
M  V30 657 C 71.1158 -3.24782 1.21316 0
M  V30 658 C 70.1768 -3.54926 2.41508 0
M  V30 659 C 69.4098 -4.83888 2.2514 0
M  V30 660 O 69.6328 -5.56592 1.24746 0
M  V30 661 O 68.5668 -5.13612 3.13826 0
M  V30 662 H 72.3928 -1.92452 2.34938 0
M  V30 663 H 69.9778 -0.894981 1.19626 0
M  V30 664 H 71.8598 -4.05739 1.13814 0
M  V30 665 H 70.5348 -3.2249 0.279592 0
M  V30 666 H 69.4418 -2.74112 2.54585 0
M  V30 667 H 70.7748 -3.61983 3.3351 0
M  V30 668 N 72.4269 -1.23603 -0.977757 0
M  V30 669 C 73.3739 -1.01954 -2.07061 0
M  V30 670 C 74.3439 0.0638697 -1.65977 0
M  V30 671 O 75.5289 -0.0887624 -1.90593 0
M  V30 672 C 72.6689 -0.619658 -3.39491 0
M  V30 673 C 71.7819 -1.77547 -3.93829 0
M  V30 674 C 70.9169 -1.32212 -5.14484 0
M  V30 675 C 69.9559 -2.44852 -5.60994 0
M  V30 676 N 69.0929 -2.00456 -6.72876 0
M  V30 677 H 73.9329 -1.95495 -2.24913 0
M  V30 678 H 71.4699 -0.973861 -1.10247 0
M  V30 679 H 73.4279 -0.368898 -4.15566 0
M  V30 680 H 72.0579 0.278752 -3.21594 0
M  V30 681 H 71.1099 -2.14016 -3.14486 0
M  V30 682 H 72.4219 -2.62219 -4.24314 0
M  V30 683 H 71.5759 -1.02965 -5.97899 0
M  V30 684 H 70.3149 -0.445808 -4.85658 0
M  V30 685 H 69.3199 -2.74871 -4.76157 0
M  V30 686 H 70.5449 -3.33024 -5.91837 0
M  V30 687 H 68.4909 -1.15208 -6.45804 0
M  V30 688 H 68.4079 -2.78687 -7.02759 0
M  V30 689 H 69.6759 -1.7432 -7.59758 0
M  V30 690 N 73.905 1.17692 -1.04816 0
M  V30 691 C 75.321 1.39863 -0.768794 0
M  V30 692 C 75.521 1.91118 0.638451 0
M  V30 693 O 74.577 2.10036 1.40146 0
M  V30 694 C 75.89 2.39274 -1.82122 0
M  V30 695 C 77.438 2.52987 -1.843 0
M  V30 696 C 77.913 3.55669 -2.88555 0
M  V30 697 N 79.404 3.63183 -2.87493 0
M  V30 698 C 80.139 4.42381 -3.64811 0
M  V30 699 N 79.635 5.25125 -4.51903 0
M  V30 700 N 81.428 4.37217 -3.53267 0
M  V30 701 H 73.579 0.82752 -1.95617 0
M  V30 702 H 75.842 0.426123 -0.846831 0
M  V30 703 H 75.548 2.08678 -2.83102 0
M  V30 704 H 75.422 3.38725 -1.65967 0
M  V30 705 H 77.809 2.82896 -0.839869 0
M  V30 706 H 77.89 1.53623 -2.04532 0
M  V30 707 H 77.534 3.26499 -3.89051 0
M  V30 708 H 77.464 4.54728 -2.65575 0
M  V30 709 H 79.955 3.04103 -2.24343 0
M  V30 710 H 80.268 5.82728 -5.07591 0
M  V30 711 H 78.613 5.24519 -4.55966 0
M  V30 712 H 81.804 3.71626 -2.84625 0
M  V30 713 H 81.977 4.98696 -4.13771 0
M  V30 714 N 75.3831 0.828654 1.34056 0
M  V30 715 C 76.7941 0.477534 1.8049 0
M  V30 716 C 77.1451 -1.00258 1.6865 0
M  V30 717 O 76.2701 -1.78057 1.22982 0
M  V30 718 C 76.8651 0.860018 3.27703 0
M  V30 719 C 75.4241 0.561185 3.72193 0
M  V30 720 C 74.5711 1.07385 2.55663 0
M  V30 721 H 77.5221 1.0183 1.21722 0
M  V30 722 H 77.5431 0.166038 3.80138 0
M  V30 723 H 77.0551 1.93731 3.36288 0
M  V30 724 H 75.1561 -0.506465 3.69142 0
M  V30 725 H 75.2691 1.10926 4.66082 0
M  V30 726 H 73.6331 0.495149 2.49841 0
M  V30 727 H 74.4161 2.15771 2.67016 0
M  V30 728 N 76.8612 -1.46375 0.584142 0
M  V30 729 C 77.7712 -2.34115 -0.150728 0
M  V30 730 C 78.7872 -1.49838 -0.884567 0
M  V30 731 O 79.9632 -1.82704 -0.847429 0
M  V30 732 C 77.0282 -3.2705 -1.15062 0
M  V30 733 C 76.0892 -4.27228 -0.421293 0
M  V30 734 C 75.3222 -5.15722 -1.37355 0
M  V30 735 O 75.5452 -5.07176 -2.61014 0
M  V30 736 O 74.4792 -5.95383 -0.883355 0
M  V30 737 H 78.3052 -2.98309 0.569708 0
M  V30 738 H 75.8902 -1.45373 0.344535 0
M  V30 739 H 77.7722 -3.84381 -1.72712 0
M  V30 740 H 76.4472 -2.65451 -1.8525 0
M  V30 741 H 75.3542 -3.7358 0.197085 0
M  V30 742 H 76.6872 -4.91616 0.239641 0
M  V30 743 N 78.3393 -0.321999 -1.54275 0
M  V30 744 C 79.5883 0.281931 -1.9972 0
M  V30 745 C 79.9013 1.53369 -1.21397 0
M  V30 746 O 81.1073 2.21352 -1.57211 0
M  V30 747 C 79.5633 0.5529 -3.55628 0
M  V30 748 C 79.1713 -0.681721 -4.42783 0
M  V30 749 C 80.9153 1.11687 -4.09544 0
M  V30 750 C 78.8223 -0.382742 -5.9016 0
M  V30 751 H 77.7523 0.109124 -0.746062 0
M  V30 752 H 80.4033 -0.43398 -1.78294 0
M  V30 753 H 78.7853 1.32896 -3.73035 0
M  V30 754 H 79.9593 -1.45723 -4.37151 0
M  V30 755 H 78.2743 -1.1658 -3.99748 0
M  V30 756 H 80.8713 1.35515 -5.17242 0
M  V30 757 H 81.2143 2.06575 -3.61431 0
M  V30 758 H 81.7473 0.402032 -3.95763 0
M  V30 759 H 78.4863 -1.30076 -6.42464 0
M  V30 760 H 78.0063 0.355094 -5.98748 0
M  V30 761 H 79.6853 0.00800157 -6.47 0
M  V30 762 N 79.8174 1.5752 -0.0501392 0
M  V30 763 C 80.7474 2.14502 0.922566 0
M  V30 764 C 81.7284 1.06642 1.3252 0
M  V30 765 O 82.9134 1.34577 1.4001 0
M  V30 766 C 80.0434 2.68916 2.19776 0
M  V30 767 C 78.9974 3.8175 1.93523 0
M  V30 768 C 78.3234 4.22677 3.27487 0
M  V30 769 C 79.6234 5.06932 1.25765 0
M  V30 770 H 81.3174 2.9603 0.447952 0
M  V30 771 H 78.8634 1.42401 0.214024 0
M  V30 772 H 80.8164 3.07419 2.88222 0
M  V30 773 H 79.5404 1.84578 2.69441 0
M  V30 774 H 78.1994 3.43718 1.27489 0
M  V30 775 H 77.8474 3.35291 3.74952 0
M  V30 776 H 77.5474 4.98725 3.1072 0
M  V30 777 H 79.0714 4.63779 3.97166 0
M  V30 778 H 80.4854 5.42888 1.84244 0
M  V30 779 H 78.8824 5.88116 1.19328 0
M  V30 780 H 79.9524 4.84337 0.233536 0
M  V30 781 N 81.2955 -0.223234 1.56011 0
M  V30 782 C 82.5445 -0.945912 1.78144 0
M  V30 783 C 82.8575 -1.85567 0.618396 0
M  V30 784 O 84.0635 -2.61688 0.723318 0
M  V30 785 C 82.5195 -1.73216 3.15475 0
M  V30 786 C 82.1275 -0.868619 4.39499 0
M  V30 787 C 83.8715 -2.44615 3.46935 0
M  V30 788 C 81.7785 -1.65212 5.67855 0
M  V30 789 H 80.7085 -0.356929 0.664167 0
M  V30 790 H 83.3595 -0.199845 1.82409 0
M  V30 791 H 81.7415 -2.52107 3.05382 0
M  V30 792 H 82.9155 -0.120366 4.60643 0
M  V30 793 H 81.2305 -0.26683 4.15544 0
M  V30 794 H 83.8275 -3.03732 4.40058 0
M  V30 795 H 84.1705 -3.17417 2.69355 0
M  V30 796 H 84.7035 -1.72715 3.58349 0
M  V30 797 H 81.4425 -0.967407 6.48322 0
M  V30 798 H 80.9625 -2.37503 5.50774 0
M  V30 799 H 82.6415 -2.21322 6.07968 0
M  V30 800 N 82.7736 -1.49793 -0.48987 0
M  V30 801 C 84.0206 -1.59841 -1.24327 0
M  V30 802 C 84.3486 -0.290135 -1.92324 0
M  V30 803 O 83.6036 0.722749 -1.81865 0
M  V30 804 C 83.9026 -2.71488 -2.32441 0
M  V30 805 C 83.5686 -4.12614 -1.81826 0
M  V30 806 C 82.2306 -4.51017 -1.67742 0
M  V30 807 C 84.5826 -5.00892 -1.4407 0
M  V30 808 C 81.9106 -5.75459 -1.14297 0
M  V30 809 C 84.2626 -6.25863 -0.920742 0
M  V30 810 C 82.9266 -6.63086 -0.766383 0
M  V30 811 H 82.1966 -0.584899 -0.454944 0
M  V30 812 H 84.8436 -1.83663 -0.542215 0
M  V30 813 H 83.1486 -2.4168 -3.0838 0
M  V30 814 H 84.8456 -2.76469 -2.90458 0
M  V30 815 H 81.4356 -3.82307 -1.93751 0
M  V30 816 H 85.6196 -4.7187 -1.53794 0
M  V30 817 H 80.8756 -6.02989 -1.01068 0
M  V30 818 H 85.0496 -6.9364 -0.619448 0
M  V30 819 H 82.6766 -7.59393 -0.350083 0
M  V30 820 N 84.2517 0.741722 -1.39055 0
M  V30 821 C 85.4977 1.50336 -1.36113 0
M  V30 822 C 85.8307 1.94148 0.0450796 0
M  V30 823 O 85.1057 1.66301 1.00868 0
M  V30 824 C 85.3887 2.74773 -2.32749 0
M  V30 825 C 85.2417 2.37023 -3.82283 0
M  V30 826 C 86.5607 3.76846 -2.27322 0
M  V30 827 H 83.6797 0.545351 -0.495743 0
M  V30 828 H 86.3217 0.848624 -1.69995 0
M  V30 829 H 84.4717 3.30639 -2.03986 0
M  V30 830 H 86.1437 1.8684 -4.21768 0
M  V30 831 H 84.3867 1.69334 -3.99385 0
M  V30 832 H 85.0577 3.26104 -4.45376 0
M  V30 833 H 87.5337 3.30548 -2.5274 0
M  V30 834 H 86.4097 4.6159 -2.97028 0
M  V30 835 H 86.6707 4.23286 -1.27599 0
M  V30 836 N 85.7298 1.2412 0.971189 0
M  V30 837 C 86.6778 1.02812 2.08644 0
M  V30 838 C 87.6718 -0.0358403 1.69362 0
M  V30 839 O 88.8778 0.118429 1.7961 0
M  V30 840 H 85.2528 0.315428 0.682649 0
M  V30 841 H 87.2238 1.97397 2.23779 0
M  V30 842 C 85.9728 0.645874 3.41649 0
M  V30 843 H 85.2958 1.45632 3.72332 0
M  V30 844 H 86.7358 0.536366 4.20594 0
M  V30 845 C 85.1948 -0.646713 3.30635 0
M  V30 846 O 85.7248 -1.69338 3.64263 0
M  V30 847 N 83.9308 -0.626115 2.83775 0
M  V30 848 H 83.4778 0.225988 2.56607 0
M  V30 849 H 83.4358 -1.49117 2.76788 0
M  V30 850 N 87.2079 -1.17134 1.05439 0
M  V30 851 C 88.4559 -1.87085 0.764429 0
M  V30 852 C 88.7769 -1.81584 -0.710787 0
M  V30 853 O 88.0469 -1.24349 -1.51374 0
M  V30 854 H 86.6269 -0.692627 0.279779 0
M  V30 855 H 89.2889 -1.42087 1.33406 0
M  V30 856 H 88.3849 -2.92759 1.0816 0
M  V30 857 N 88.686 -0.835752 -1.33615 0
M  V30 858 C 89.916 -0.442701 -2.01801 0
M  V30 859 C 90.324 0.959807 -1.63047 0
M  V30 860 O 89.667 1.63468 -0.838088 0
M  V30 861 C 89.729 -0.480125 -3.56279 0
M  V30 862 C 89.393 -1.8382 -4.18401 0
M  V30 863 C 90.39 -2.80097 -4.37998 0
M  V30 864 C 88.075 -2.13019 -4.54894 0
M  V30 865 C 90.069 -4.03736 -4.9323 0
M  V30 866 C 87.756 -3.36916 -5.09834 0
M  V30 867 C 88.754 -4.32091 -5.28948 0
M  V30 868 O 88.442 -5.53797 -5.82721 0
M  V30 869 H 88.174 -0.17441 -0.653114 0
M  V30 870 H 90.728 -1.129 -1.71589 0
M  V30 871 H 88.958 0.262931 -3.85805 0
M  V30 872 H 90.647 -0.105335 -4.05763 0
M  V30 873 H 91.413 -2.58838 -4.10156 0
M  V30 874 H 87.292 -1.39733 -4.39313 0
M  V30 875 H 90.836 -4.78034 -5.08064 0
M  V30 876 H 86.733 -3.58033 -5.37106 0
M  V30 877 H 87.501 -5.55494 -6.0114 0
M  V30 878 N 90.1641 1.46063 -0.591896 0
M  V30 879 C 91.5751 1.85944 -0.167822 0
M  V30 880 C 91.9261 1.49429 1.27143 0
M  V30 881 O 91.0511 0.913515 1.96173 0
M  V30 882 C 91.6461 3.37489 -0.297794 0
M  V30 883 C 90.2051 3.76332 0.0714732 0
M  V30 884 C 89.3521 2.7006 -0.629509 0
M  V30 885 H 92.3031 1.37087 -0.799555 0
M  V30 886 H 92.3241 3.77532 0.474349 0
M  V30 887 H 91.8361 3.64034 -1.3454 0
M  V30 888 H 89.9371 3.55405 1.11886 0
M  V30 889 H 90.0501 4.78088 -0.311245 0
M  V30 890 H 88.4141 2.54607 -0.0687867 0
M  V30 891 H 89.1971 2.99444 -1.67894 0
M  V30 892 N 91.6422 0.330177 1.54103 0
M  V30 893 C 92.8912 -0.271336 1.99867 0
M  V30 894 C 93.2042 -1.52723 1.22209 0
M  V30 895 O 94.4102 -2.20515 1.58383 0
M  V30 896 C 92.8662 -0.534032 3.55916 0
M  V30 897 C 92.4742 0.705193 4.42415 0
M  V30 898 C 94.2182 -1.09514 4.1013 0
M  V30 899 C 92.1252 0.414035 5.89949 0
M  V30 900 H 91.0552 -0.105166 0.74663 0
M  V30 901 H 93.7062 0.443429 1.78062 0
M  V30 902 H 92.0882 -1.30915 3.73734 0
M  V30 903 H 93.2622 1.4804 4.36372 0
M  V30 904 H 91.5772 1.18698 3.99124 0
M  V30 905 H 94.1742 -1.3277 5.17954 0
M  V30 906 H 94.5172 -2.04656 3.62521 0
M  V30 907 H 95.0502 -0.381038 3.95971 0
M  V30 908 H 91.7892 1.33481 6.41766 0
M  V30 909 H 91.3092 -0.323336 5.98928 0
M  V30 910 H 92.9882 0.0263105 6.46995 0
M  V30 911 N 93.1203 -1.57491 0.0584922 0
M  V30 912 C 94.0673 -2.11958 -0.913376 0
M  V30 913 C 95.0373 -1.02875 -1.30407 0
M  V30 914 O 96.2223 -1.30464 -1.39226 0
M  V30 915 C 93.3623 -2.67497 -2.18035 0
M  V30 916 C 92.4753 -3.90691 -1.84349 0
M  V30 917 C 91.6103 -4.3452 -3.05559 0
M  V30 918 C 90.6493 -5.50395 -2.67827 0
M  V30 919 N 89.7863 -5.89244 -3.81754 0
M  V30 920 H 94.6263 -2.94704 -0.442017 0
M  V30 921 H 92.1633 -1.45643 -0.206545 0
M  V30 922 H 94.1213 -2.978 -2.92183 0
M  V30 923 H 92.7513 -1.87537 -2.62735 0
M  V30 924 H 91.8033 -3.66934 -1.00319 0
M  V30 925 H 93.1153 -4.7489 -1.5258 0
M  V30 926 H 92.2693 -4.66414 -3.87998 0
M  V30 927 H 91.0083 -3.49147 -3.40511 0
M  V30 928 H 90.0133 -5.18165 -1.83806 0
M  V30 929 H 91.2383 -6.3749 -2.34059 0
M  V30 930 H 89.1843 -5.06823 -4.16493 0
M  V30 931 H 89.1013 -6.68151 -3.53708 0
M  V30 932 H 90.3693 -6.25756 -4.64811 0
M  V30 933 N 94.5984 0.214957 -1.56127 0
M  V30 934 C 95.8454 0.938372 -1.79446 0
M  V30 935 C 96.1734 1.8407 -0.628378 0
M  V30 936 O 95.4284 1.91837 0.386925 0
M  V30 937 C 95.7274 1.80314 -3.0858 0
M  V30 938 C 95.3934 1.05349 -4.3842 0
M  V30 939 C 94.0554 0.846435 -4.73697 0
M  V30 940 C 96.4074 0.524588 -5.18553 0
M  V30 941 C 93.7354 0.098683 -5.86617 0
M  V30 942 C 96.0874 -0.209853 -6.32252 0
M  V30 943 C 94.7514 -0.428102 -6.66126 0
M  V30 944 H 94.0214 0.343375 -0.656639 0
M  V30 945 H 96.6684 0.206077 -1.90388 0
M  V30 946 H 94.9734 2.6035 -2.92789 0
M  V30 947 H 96.6704 2.36513 -3.23825 0
M  V30 948 H 93.2604 1.22486 -4.10725 0
M  V30 949 H 97.4444 0.672008 -4.91729 0
M  V30 950 H 92.7004 -0.0805753 -6.11347 0
M  V30 951 H 96.8744 -0.627157 -6.9357 0
M  V30 952 H 94.5014 -1.00944 -7.53468 0
M  V30 953 N 96.0765 1.50051 0.48192 0
M  V30 954 C 97.0065 1.71046 1.58951 0
M  V30 955 C 97.9875 0.559288 1.60642 0
M  V30 956 O 99.1725 0.797243 1.77081 0
M  V30 957 C 96.3025 1.79462 2.97339 0
M  V30 958 C 95.2565 2.94558 3.10515 0
M  V30 959 C 94.5825 2.88105 4.50444 0
M  V30 960 C 95.8825 4.35227 2.88747 0
M  V30 961 H 97.5765 2.6378 1.41635 0
M  V30 962 H 95.1225 1.26936 0.679942 0
M  V30 963 H 97.0755 1.92734 3.74742 0
M  V30 964 H 95.7995 0.833412 3.15788 0
M  V30 965 H 94.4585 2.80918 2.35543 0
M  V30 966 H 94.1065 1.89853 4.65795 0
M  V30 967 H 93.8065 3.65366 4.60197 0
M  V30 968 H 95.3305 3.03412 5.29881 0
M  V30 969 H 96.7445 4.49449 3.55905 0
M  V30 970 H 95.1415 5.13856 3.09955 0
M  V30 971 H 96.2115 4.48347 1.84696 0
M  V30 972 N 97.5546 -0.734337 1.39446 0
M  V30 973 C 98.4846 -1.86155 1.40955 0
M  V30 974 C 99.4656 -1.67898 0.272827 0
M  V30 975 O 100.651 -1.88207 0.478743 0
M  V30 976 C 97.7806 -3.23912 1.25294 0
M  V30 977 C 96.7346 -3.56808 2.36373 0
M  V30 978 C 96.0606 -4.93508 2.058 0
M  V30 979 C 97.3606 -3.59713 3.78687 0
M  V30 980 H 99.0546 -1.8515 2.35287 0
M  V30 981 H 96.6006 -0.889367 1.13253 0
M  V30 982 H 98.5536 -4.02443 1.2497 0
M  V30 983 H 97.2776 -3.25446 0.274308 0
M  V30 984 H 95.9366 -2.80606 2.35914 0
M  V30 985 H 95.5846 -4.91623 1.06374 0
M  V30 986 H 95.2846 -5.16486 2.80208 0
M  V30 987 H 96.8086 -5.74396 2.07128 0
M  V30 988 H 98.2226 -4.2832 3.81071 0
M  V30 989 H 96.6196 -3.94209 4.52459 0
M  V30 990 H 97.6896 -2.59504 4.09617 0
M  V30 991 N 99.0327 -1.24633 -0.964593 0
M  V30 992 C 100.31 -0.995809 -1.68354 0
M  V30 993 C 100.69 0.480964 -2.05548 0
M  V30 994 O 100.038 1.45599 -1.76105 0
M  V30 995 C 100.248 -1.92177 -2.91323 0
M  V30 996 C 101.596 -2.19446 -3.63495 0
M  V30 997 O 102.62 -1.89855 -3.01386 0
M  V30 998 O 101.479 -2.69714 -4.75307 0
M  V30 999 H 98.5727 -0.376854 -0.736146 0
M  V30 1000 H 101.119 -1.35745 -1.0184 0
M  V30 1001 H 99.8907 -2.91938 -2.60553 0
M  V30 1002 H 99.5137 -1.56349 -3.65569 0
M  V30 1003 N 100.511 1.16574 -1.06058 0
M  V30 1004 C 101.739 1.90952 -0.796552 0
M  V30 1005 C 102.154 1.77302 0.648808 0
M  V30 1006 O 101.511 1.11605 1.44397 0
M  V30 1007 C 101.562 3.41736 -1.17894 0
M  V30 1008 O 101.283 3.54975 -2.56758 0
M  V30 1009 C 102.784 4.33169 -0.942308 0
M  V30 1010 H 100.004 0.605594 -0.288959 0
M  V30 1011 H 102.548 1.47777 -1.41358 0
M  V30 1012 H 100.703 3.82623 -0.606491 0
M  V30 1013 H 101.117 4.4846 -2.72 0
M  V30 1014 H 102.591 5.37439 -1.25952 0
M  V30 1015 H 103.068 4.3903 0.122078 0
M  V30 1016 H 103.674 3.98007 -1.49902 0
M  V30 1017 N 101.989 0.842826 1.3317 0
M  V30 1018 C 103.237 0.439577 1.97262 0
M  V30 1019 C 103.558 -1.00548 1.67078 0
M  V30 1020 O 102.828 -1.70098 0.971779 0
M  V30 1021 H 101.408 0.159558 0.72976 0
M  V30 1022 H 104.07 1.07665 1.62463 0
M  V30 1023 H 103.166 0.574886 3.0676 0
M  V30 1024 N 103.467 -1.45747 0.599634 0
M  V30 1025 C 104.43 -2.28917 -0.113835 0
M  V30 1026 C 105.43 -1.3933 -0.802729 0
M  V30 1027 O 106.62 -1.61534 -0.652103 0
M  V30 1028 C 103.752 -3.20152 -1.17114 0
M  V30 1029 H 104.945 -2.93478 0.617289 0
M  V30 1030 H 102.498 -1.52137 0.358327 0
M  V30 1031 H 103.233 -2.60374 -1.93329 0
M  V30 1032 H 103.018 -3.86133 -0.681468 0
M  V30 1033 H 104.508 -3.82708 -1.67105 0
M  V30 1034 N 104.945 -0.338344 -1.53925 0
M  V30 1035 C 106.222 0.314774 -1.93051 0
M  V30 1036 C 106.602 1.68669 -1.26941 0
M  V30 1037 O 105.95 2.24636 -0.418445 0
M  V30 1038 C 106.16 0.392249 -3.46789 0
M  V30 1039 C 107.508 0.645554 -4.19664 0
M  V30 1040 O 108.532 0.474575 -3.53024 0
M  V30 1041 O 107.391 0.976408 -5.37707 0
M  V30 1042 H 104.485 0.182598 -0.80659 0
M  V30 1043 H 107.031 -0.389141 -1.65178 0
M  V30 1044 H 105.803 -0.570702 -3.87116 0
M  V30 1045 H 105.426 1.14316 -3.80812 0
M  V30 1046 N 106.423 1.57458 -0.0668435 0
M  V30 1047 C 107.672 1.92477 0.602947 0
M  V30 1048 C 107.985 0.948419 1.71068 0
M  V30 1049 O 109.191 1.19124 2.43971 0
M  V30 1050 C 107.647 3.41903 1.12383 0
M  V30 1051 C 107.255 4.47975 0.04737 0
M  V30 1052 C 108.999 3.85931 1.76797 0
M  V30 1053 C 106.906 5.88529 0.582022 0
M  V30 1054 H 105.836 0.718387 0.22899 0
M  V30 1055 H 108.487 1.82978 -0.138276 0
M  V30 1056 H 106.869 3.46459 1.91787 0
M  V30 1057 H 108.043 4.55029 -0.726978 0
M  V30 1058 H 106.358 4.13384 -0.500243 0
M  V30 1059 H 108.955 4.88322 2.17821 0
M  V30 1060 H 109.298 3.23029 2.62599 0
M  V30 1061 H 109.831 3.83958 1.04024 0
M  V30 1062 H 106.57 6.55065 -0.238721 0
M  V30 1063 H 106.09 5.85004 1.324 0
M  V30 1064 H 107.769 6.38258 1.05999 0
M  V30 1065 N 107.901 -0.206675 1.56239 0
M  V30 1066 C 109.129 -0.945345 1.8404 0
M  V30 1067 C 109.544 -1.77336 0.647885 0
M  V30 1068 O 108.901 -1.78425 -0.383511 0
M  V30 1069 C 108.952 -1.8509 3.10522 0
M  V30 1070 O 108.673 -1.05634 4.25174 0
M  V30 1071 C 110.174 -2.70222 3.51418 0
M  V30 1072 H 107.394 -0.276372 0.61144 0
M  V30 1073 H 109.938 -0.217417 2.03341 0
M  V30 1074 H 108.093 -2.53259 2.93153 0
M  V30 1075 H 108.507 -1.67238 4.97124 0
M  V30 1076 H 109.981 -3.29438 4.42916 0
M  V30 1077 H 110.458 -3.43358 2.73864 0
M  V30 1078 H 111.064 -2.07443 3.71278 0
M  V30 1079 N 109.379 -1.50304 -0.473955 0
M  V30 1080 C 110.628 -1.60392 -1.22301 0
M  V30 1081 C 110.941 -0.308411 -1.93153 0
M  V30 1082 O 112.147 -0.288156 -2.69966 0
M  V30 1083 C 110.603 -2.83109 -2.2221 0
M  V30 1084 C 110.211 -4.19524 -1.57173 0
M  V30 1085 C 111.955 -3.0254 -2.97775 0
M  V30 1086 C 109.862 -5.33431 -2.55353 0
M  V30 1087 H 108.792 -0.597286 -0.460179 0
M  V30 1088 H 111.443 -1.76731 -0.493803 0
M  V30 1089 H 109.825 -2.60322 -2.9841 0
M  V30 1090 H 110.999 -4.52554 -0.867824 0
M  V30 1091 H 109.314 -4.05674 -0.939002 0
M  V30 1092 H 111.911 -3.84811 -3.71248 0
M  V30 1093 H 112.254 -2.14154 -3.56992 0
M  V30 1094 H 112.787 -3.25494 -2.28688 0
M  V30 1095 H 109.526 -6.23962 -2.00878 0
M  V30 1096 H 109.046 -5.04823 -3.23904 0
M  V30 1097 H 110.725 -5.63887 -3.17239 0
M  V30 1098 N 110.857 0.726932 -1.39834 0
M  V30 1099 C 111.787 1.85405 -1.41941 0
M  V30 1100 C 112.768 1.67751 -0.281728 0
M  V30 1101 O 113.953 1.8795 -0.488717 0
M  V30 1102 C 111.083 3.23243 -1.2701 0
M  V30 1103 C 110.037 3.55549 -2.38262 0
M  V30 1104 C 109.363 4.9241 -2.08415 0
M  V30 1105 C 110.663 3.577 -3.80589 0
M  V30 1106 H 112.357 1.83899 -2.36266 0
M  V30 1107 H 109.903 0.883349 -1.13723 0
M  V30 1108 H 111.856 4.01775 -1.27103 0
M  V30 1109 H 110.58 3.25296 -0.291564 0
M  V30 1110 H 109.239 2.79351 -2.37399 0
M  V30 1111 H 108.887 4.91052 -1.0898 0
M  V30 1112 H 108.587 5.14992 -2.82943 0
M  V30 1113 H 110.111 5.73289 -2.10171 0
M  V30 1114 H 111.525 4.26293 -3.83337 0
M  V30 1115 H 109.922 3.91804 -4.54543 0
M  V30 1116 H 110.992 2.57328 -4.10987 0
M  V30 1117 N 112.336 1.25143 0.95797 0
M  V30 1118 C 113.284 1.05019 2.07542 0
M  V30 1119 C 114.278 -0.0178751 1.69391 0
M  V30 1120 O 115.484 0.137472 1.79474 0
M  V30 1121 H 111.859 0.32265 0.679265 0
M  V30 1122 H 113.83 1.99759 2.21673 0
M  V30 1123 C 112.579 0.682074 3.40944 0
M  V30 1124 H 111.902 1.49573 3.70767 0
M  V30 1125 H 113.342 0.580945 4.20001 0
M  V30 1126 C 111.801 -0.611608 3.31302 0
M  V30 1127 O 112.331 -1.65465 3.66038 0
M  V30 1128 N 110.537 -0.595982 2.84423 0
M  V30 1129 H 110.084 0.253192 2.56353 0
M  V30 1130 H 110.042 -1.46173 2.78354 0
M  V30 1131 N 113.814 -1.1601 1.06675 0
M  V30 1132 C 115.23 -1.38622 0.790948 0
M  V30 1133 C 115.43 -1.92109 -0.607965 0
M  V30 1134 O 114.486 -2.12239 -1.36787 0
M  V30 1135 C 115.799 -2.36347 1.85905 0
M  V30 1136 C 117.347 -2.50023 1.88301 0
M  V30 1137 C 117.822 -3.51033 2.94176 0
M  V30 1138 N 119.313 -3.58563 2.93235 0
M  V30 1139 C 120.048 -4.36521 3.71803 0
M  V30 1140 N 119.544 -5.17869 4.602 0
M  V30 1141 N 121.337 -4.31541 3.60178 0
M  V30 1142 H 113.488 -0.796294 1.96908 0
M  V30 1143 H 115.751 -0.412597 0.853503 0
M  V30 1144 H 115.457 -2.04147 2.86386 0
M  V30 1145 H 115.331 -3.36042 1.71334 0
M  V30 1146 H 117.718 -2.81524 0.884769 0
M  V30 1147 H 117.799 -1.5035 2.06951 0
M  V30 1148 H 117.443 -3.20268 3.94196 0
M  V30 1149 H 117.373 -4.50445 2.72776 0
M  V30 1150 H 119.864 -3.00496 2.29152 0
M  V30 1151 H 120.177 -5.74578 5.16797 0
M  V30 1152 H 118.522 -5.17199 4.64253 0
M  V30 1153 H 121.713 -3.67051 2.90502 0
M  V30 1154 H 121.886 -4.9205 4.21653 0
M  V30 1155 N 115.292 -0.849877 -1.32721 0
M  V30 1156 C 116.708 -0.539102 -1.50219 0
M  V30 1157 C 116.908 0.931271 -1.78689 0
M  V30 1158 O 115.964 1.71455 -1.85363 0
M  V30 1159 C 117.277 -1.42196 -2.64954 0
M  V30 1160 C 118.825 -1.42189 -2.78839 0
M  V30 1161 C 119.3 -2.28985 -3.96648 0
M  V30 1162 N 120.791 -2.26754 -4.03902 0
M  V30 1163 C 121.526 -2.90644 -4.94281 0
M  V30 1164 N 121.022 -3.63629 -5.897 0
M  V30 1165 N 122.815 -2.80057 -4.87365 0
M  V30 1166 H 114.966 -1.80156 -1.12506 0
M  V30 1167 H 117.229 -0.769217 -0.554085 0
M  V30 1168 H 116.935 -2.46733 -2.50631 0
M  V30 1169 H 116.809 -1.10591 -3.60624 0
M  V30 1170 H 119.196 -0.38419 -2.92588 0
M  V30 1171 H 119.277 -1.77807 -1.83898 0
M  V30 1172 H 118.921 -3.32819 -3.83658 0
M  V30 1173 H 118.851 -1.90702 -4.90857 0
M  V30 1174 H 121.342 -1.73688 -3.3562 0
M  V30 1175 H 121.655 -4.09558 -6.55349 0
M  V30 1176 H 120 -3.67737 -5.89741 0
M  V30 1177 H 123.191 -2.22593 -4.11789 0
M  V30 1178 H 123.364 -3.30132 -5.57599 0
M  V30 1179 N 116.77 1.45427 -0.607355 0
M  V30 1180 C 118.047 1.9557 -0.0344566 0
M  V30 1181 C 118.427 1.54979 1.43334 0
M  V30 1182 O 117.775 0.812241 2.13576 0
M  V30 1183 C 117.985 3.48226 -0.232321 0
M  V30 1184 C 119.333 4.2445 -0.113001 0
M  V30 1185 O 120.357 3.55829 -0.162431 0
M  V30 1186 O 119.216 5.465 0.00209442 0
M  V30 1187 H 116.31 0.826222 0.0358667 0
M  V30 1188 H 118.856 1.55594 -0.6774 0
M  V30 1189 H 117.628 3.70739 -1.25174 0
M  V30 1190 H 117.251 3.95092 0.445896 0
M  V30 1191 N 118.248 0.346503 1.53744 0
M  V30 1192 C 119.495 -0.249104 2.00962 0
M  V30 1193 C 119.823 -1.5032 1.23426 0
M  V30 1194 O 119.078 -1.93217 0.310761 0
M  V30 1195 C 119.377 -0.605809 3.52228 0
M  V30 1196 C 119.043 0.551747 4.47512 0
M  V30 1197 C 117.705 0.86941 4.73281 0
M  V30 1198 C 120.057 1.32818 5.03993 0
M  V30 1199 C 117.385 1.96582 5.52786 0
M  V30 1200 C 119.737 2.41486 5.84694 0
M  V30 1201 C 118.401 2.73808 6.08757 0
M  V30 1202 H 117.671 -0.0911538 0.735372 0
M  V30 1203 H 120.318 0.475027 1.85515 0
M  V30 1204 H 118.623 -1.4107 3.65522 0
M  V30 1205 H 120.32 -1.07858 3.86222 0
M  V30 1206 H 116.91 0.294102 4.2759 0
M  V30 1207 H 121.094 1.09602 4.84047 0
M  V30 1208 H 116.35 2.22045 5.69654 0
M  V30 1209 H 120.524 3.02078 6.27473 0
M  V30 1210 H 118.151 3.58892 6.7015 0
M  V30 1211 N 119.726 -1.57421 0.075193 0
M  V30 1212 C 120.658 -2.09904 -0.920483 0
M  V30 1213 C 121.671 -1.03191 -1.25918 0
M  V30 1214 O 122.86 -1.30695 -1.21577 0
M  V30 1215 C 119.96 -2.54726 -2.23534 0
M  V30 1216 C 119.133 -3.8505 -2.07498 0
M  V30 1217 C 118.192 -4.15929 -3.22319 0
M  V30 1218 O 117.218 -4.85474 -2.9716 0
M  V30 1219 N 118.42 -3.69745 -4.47514 0
M  V30 1220 H 121.185 -2.95954 -0.472359 0
M  V30 1221 H 118.746 -1.61523 -0.110444 0
M  V30 1222 H 120.738 -2.72443 -2.9926 0
M  V30 1223 H 119.308 -1.73795 -2.59835 0
M  V30 1224 H 118.528 -3.76679 -1.16219 0
M  V30 1225 H 119.816 -4.70348 -1.94038 0
M  V30 1226 H 119.214 -3.13569 -4.7084 0
M  V30 1227 H 117.771 -3.92655 -5.20255 0
M  V30 1228 N 121.204 0.198386 -1.56346 0
M  V30 1229 C 122.45 0.920648 -1.80698 0
M  V30 1230 C 122.783 1.83045 -0.648697 0
M  V30 1231 O 122.058 1.91308 0.350925 0
M  V30 1232 C 122.341 1.73971 -3.15287 0
M  V30 1233 C 122.194 0.85485 -4.41602 0
M  V30 1234 C 123.513 2.71296 -3.46535 0
M  V30 1235 H 120.632 0.333261 -0.657348 0
M  V30 1236 H 123.274 0.188198 -1.89066 0
M  V30 1237 H 121.424 2.36416 -3.08285 0
M  V30 1238 H 123.096 0.245362 -4.60647 0
M  V30 1239 H 121.339 0.161398 -4.335 0
M  V30 1240 H 122.01 1.46286 -5.32264 0
M  V30 1241 H 124.486 2.18983 -3.53816 0
M  V30 1242 H 123.362 3.2569 -4.41834 0
M  V30 1243 H 123.623 3.5018 -2.69864 0
M  V30 1244 N 122.682 1.50554 0.465978 0
M  V30 1245 C 123.629 1.6979 1.56333 0
M  V30 1246 C 124.599 0.539239 1.57103 0
M  V30 1247 O 125.784 0.770401 1.74555 0
M  V30 1248 C 122.924 1.80273 2.94271 0
M  V30 1249 C 122.037 3.07674 3.0325 0
M  V30 1250 C 121.172 3.08922 4.32135 0
M  V30 1251 C 120.211 4.30755 4.34875 0
M  V30 1252 N 119.348 4.29714 5.55239 0
M  V30 1253 H 124.188 2.63472 1.39235 0
M  V30 1254 H 121.725 1.30602 0.676873 0
M  V30 1255 H 123.683 1.84332 3.74269 0
M  V30 1256 H 122.313 0.900258 3.09992 0
M  V30 1257 H 121.365 3.13062 2.16094 0
M  V30 1258 H 122.677 3.97642 3.01135 0
M  V30 1259 H 121.831 3.11738 5.20485 0
M  V30 1260 H 120.57 2.16792 4.36866 0
M  V30 1261 H 119.575 4.28146 3.44922 0
M  V30 1262 H 120.8 5.24117 4.31831 0
M  V30 1263 H 118.746 3.4044 5.60746 0
M  V30 1264 H 118.663 5.13456 5.54886 0
M  V30 1265 H 119.931 4.36683 6.457 0
M  V30 1266 N 124.16 -0.719506 1.40217 0
M  V30 1267 C 125.108 -1.85493 1.40339 0
M  V30 1268 C 126.102 -1.66995 0.284415 0
M  V30 1269 O 127.308 -1.74148 0.455252 0
M  V30 1270 H 123.683 -0.610857 0.438586 0
M  V30 1271 H 125.654 -1.82506 2.36081 0
M  V30 1272 C 124.403 -3.23321 1.27901 0
M  V30 1273 H 123.726 -3.38159 2.1328 0
M  V30 1274 H 125.166 -4.02914 1.32045 0
M  V30 1275 C 123.625 -3.36898 -0.0111355 0
M  V30 1276 O 124.155 -3.89674 -0.975538 0
M  V30 1277 N 122.361 -2.90492 -0.0793393 0
M  V30 1278 H 121.908 -2.47731 0.706183 0
M  V30 1279 H 121.866 -2.99955 -0.942038 0
M  V30 1280 N 125.638 -1.25649 -0.95132 0
M  V30 1281 C 126.863 -1.13443 -1.73624 0
M  V30 1282 C 127.288 0.307565 -1.85568 0
M  V30 1283 O 126.646 1.22282 -1.33854 0
M  V30 1284 C 126.694 -1.79723 -3.12621 0
M  V30 1285 O 125.798 -1.07912 -3.98031 0
M  V30 1286 H 125.139 -0.395872 -0.533086 0
M  V30 1287 H 127.669 -1.66276 -1.1922 0
M  V30 1288 H 127.679 -1.86141 -3.63064 0
M  V30 1289 H 126.354 -2.84633 -3.03244 0
M  V30 1290 H 124.931 -1.09398 -3.56492 0
M  V30 1291 N 127.117 1.15442 -1.07289 0
M  V30 1292 C 128.366 1.85557 -0.790669 0
M  V30 1293 C 128.679 1.83186 0.685739 0
M  V30 1294 O 129.885 2.48977 1.0827 0
M  V30 1295 C 128.341 3.33038 -1.36433 0
M  V30 1296 C 127.949 3.43856 -2.8717 0
M  V30 1297 C 129.693 4.0834 -1.1601 0
M  V30 1298 C 127.6 4.85482 -3.3773 0
M  V30 1299 H 126.53 0.695122 -0.292098 0
M  V30 1300 H 129.181 1.30219 -1.29287 0
M  V30 1301 H 127.563 3.88043 -0.789864 0
M  V30 1302 H 128.737 2.98961 -3.50655 0
M  V30 1303 H 127.052 2.81998 -3.06376 0
M  V30 1304 H 129.649 5.12859 -1.51262 0
M  V30 1305 H 129.992 4.16182 -0.0991007 0
M  V30 1306 H 130.525 3.59603 -1.70089 0
M  V30 1307 H 127.264 4.82823 -4.43353 0
M  V30 1308 H 126.784 5.30961 -2.78999 0
M  V30 1309 H 128.463 5.54335 -3.33648 0
M  V30 1310 N 128.595 0.856903 1.32268 0
M  V30 1311 C 129.505 0.306131 2.32594 0
M  V30 1312 C 130.521 -0.577209 1.64147 0
M  V30 1313 O 131.697 -0.477043 1.95669 0
M  V30 1314 C 128.762 -0.494561 3.43154 0
M  V30 1315 C 127.823 0.415186 4.27288 0
M  V30 1316 C 127.056 -0.347387 5.32568 0
M  V30 1317 O 127.279 -1.57708 5.48165 0
M  V30 1318 O 126.213 0.287982 6.01211 0
M  V30 1319 H 130.039 1.13737 2.81598 0
M  V30 1320 H 127.624 0.619902 1.35932 0
M  V30 1321 H 129.506 -0.948944 4.10576 0
M  V30 1322 H 128.181 -1.30257 2.96336 0
M  V30 1323 H 127.088 0.917793 3.62667 0
M  V30 1324 H 128.421 1.18844 4.77637 0
M  V30 1325 N 130.073 -1.45103 0.615059 0
M  V30 1326 C 131.021 -2.32331 -0.111791 0
M  V30 1327 C 132.015 -1.46409 -0.852102 0
M  V30 1328 O 133.221 -1.62849 -0.766821 0
M  V30 1329 H 129.596 -0.749993 -0.0549072 0
M  V30 1330 H 131.567 -2.91407 0.642225 0
M  V30 1331 C 130.316 -3.3015 -1.09071 0
M  V30 1332 H 129.639 -3.96265 -0.530485 0
M  V30 1333 H 131.079 -3.93898 -1.56908 0
M  V30 1334 C 129.538 -2.57875 -2.168 0
M  V30 1335 O 130.068 -2.36567 -3.24652 0
M  V30 1336 N 128.274 -2.17884 -1.92289 0
M  V30 1337 H 127.821 -2.35413 -1.04587 0
M  V30 1338 H 127.779 -1.6985 -2.64572 0
M  V30 1339 N 131.551 -0.354651 -1.53558 0
M  V30 1340 C 132.799 0.237972 -2.00694 0
M  V30 1341 C 133.12 1.50173 -1.24391 0
M  V30 1342 O 132.39 1.92673 -0.354135 0
M  V30 1343 H 130.97 0.0909256 -0.741446 0
M  V30 1344 H 133.632 -0.478368 -1.88938 0
M  V30 1345 H 132.728 0.47264 -3.085 0
M  V30 1346 N 133.029 1.57378 -0.0835403 0
M  V30 1347 C 134.445 1.57246 0.273109 0
M  V30 1348 C 134.645 1.09385 1.69225 0
M  V30 1349 O 133.701 0.765051 2.40631 0
M  V30 1350 C 135.014 3.00614 0.0720628 0
M  V30 1351 C 136.562 3.12684 0.1407 0
M  V30 1352 C 137.037 4.57989 -0.0322094 0
M  V30 1353 N 138.528 4.63194 0.0230085 0
M  V30 1354 C 139.263 5.73335 -0.0861941 0
M  V30 1355 N 138.759 6.9235 -0.24958 0
M  V30 1356 N 140.552 5.62093 -0.0282886 0
M  V30 1357 H 132.703 1.86801 -1.0109 0
M  V30 1358 H 134.966 0.861687 -0.395222 0
M  V30 1359 H 134.672 3.39786 -0.907662 0
M  V30 1360 H 134.546 3.68193 0.81936 0
M  V30 1361 H 136.933 2.73391 1.11092 0
M  V30 1362 H 137.014 2.47719 -0.637896 0
M  V30 1363 H 136.658 4.97973 -0.999247 0
M  V30 1364 H 136.588 5.21 0.765937 0
M  V30 1365 H 139.079 3.77613 0.14722 0
M  V30 1366 H 139.392 7.72117 -0.324733 0
M  V30 1367 H 137.737 6.94415 -0.285097 0
M  V30 1368 H 140.928 4.67997 0.0981408 0
M  V30 1369 H 141.101 6.47895 -0.116845 0
M  V30 1370 N 134.507 -0.190092 1.56449 0
M  V30 1371 C 135.439 -1.25973 1.91477 0
M  V30 1372 C 136.452 -1.41452 0.805931 0
M  V30 1373 O 137.641 -1.41789 1.08435 0
M  V30 1374 C 134.741 -2.63117 2.13594 0
M  V30 1375 C 133.914 -2.69182 3.4476 0
M  V30 1376 C 132.973 -3.87557 3.5593 0
M  V30 1377 O 131.999 -3.74427 4.28711 0
M  V30 1378 N 133.201 -5.03224 2.89388 0
M  V30 1379 H 135.966 -0.962394 2.83828 0
M  V30 1380 H 133.527 -0.379981 1.57378 0
M  V30 1381 H 135.519 -3.40742 2.1835 0
M  V30 1382 H 134.089 -2.85319 1.27719 0
M  V30 1383 H 133.309 -1.77793 3.51828 0
M  V30 1384 H 134.597 -2.70229 4.31107 0
M  V30 1385 H 133.995 -5.16791 2.30094 0
M  V30 1386 H 132.552 -5.78778 2.99764 0
M  V30 1387 N 135.985 -1.50799 -0.457987 0
M  V30 1388 C 136.933 -1.71162 -1.575 0
M  V30 1389 C 137.927 -0.577592 -1.59249 0
M  V30 1390 O 139.133 -0.758443 -1.63241 0
M  V30 1391 H 135.508 -0.540468 -0.522875 0
M  V30 1392 H 137.479 -2.64837 -1.37492 0
M  V30 1393 C 136.228 -1.83496 -2.95338 0
M  V30 1394 H 135.551 -2.70153 -2.94716 0
M  V30 1395 H 136.991 -2.01765 -3.72917 0
M  V30 1396 C 135.45 -0.589694 -3.31699 0
M  V30 1397 O 135.98 0.265163 -4.00824 0
M  V30 1398 N 134.186 -0.439845 -2.87252 0
M  V30 1399 H 133.733 -1.13655 -2.31172 0
M  V30 1400 H 133.691 0.392159 -3.11945 0
M  V30 1401 N 137.463 0.71206 -1.40597 0
M  V30 1402 C 138.396 1.83582 -1.35546 0
M  V30 1403 C 139.374 1.61032 -0.225284 0
M  V30 1404 O 140.558 1.83998 -0.409519 0
M  V30 1405 C 137.685 3.19983 -1.11034 0
M  V30 1406 C 136.731 3.61355 -2.2655 0
M  V30 1407 S 137.564 3.68062 -3.88961 0
M  V30 1408 C 138.72 5.07216 -3.66719 0
M  V30 1409 H 138.953 1.87586 -2.30648 0
M  V30 1410 H 136.486 0.879182 -1.26924 0
M  V30 1411 H 138.444 3.98734 -0.975761 0
M  V30 1412 H 137.105 3.13608 -0.175798 0
M  V30 1413 H 136.298 4.60403 -2.0505 0
M  V30 1414 H 135.9 2.8987 -2.36329 0
M  V30 1415 H 138.192 5.94238 -3.25404 0
M  V30 1416 H 139.135 5.33753 -4.6531 0
M  V30 1417 H 139.543 4.77976 -3.00332 0
M  V30 1418 N 138.941 1.26152 0.944643 0
M  V30 1419 C 140.19 1.10883 1.68487 0
M  V30 1420 C 140.503 -0.348153 1.92477 0
M  V30 1421 O 141.709 -0.621459 2.64292 0
M  V30 1422 C 140.165 1.93624 3.03377 0
M  V30 1423 C 139.773 3.43875 2.87148 0
M  V30 1424 C 141.517 1.86954 3.81115 0
M  V30 1425 C 139.424 4.18875 4.1749 0
M  V30 1426 H 138.354 0.41135 0.631907 0
M  V30 1427 H 141.005 1.50433 1.05082 0
M  V30 1428 H 139.387 1.46904 3.67743 0
M  V30 1429 H 140.561 3.98338 2.31653 0
M  V30 1430 H 138.876 3.51744 2.22856 0
M  V30 1431 H 141.473 2.40275 4.77673 0
M  V30 1432 H 141.816 0.839518 4.07747 0
M  V30 1433 H 142.349 2.31477 3.23517 0
M  V30 1434 H 139.088 5.22332 3.96043 0
M  V30 1435 H 138.608 3.69193 4.72712 0
M  V30 1436 H 140.287 4.27134 4.85968 0
M  V30 1437 N 140.419 -1.14872 1.07899 0
M  V30 1438 C 141.667 -1.85422 0.803941 0
M  V30 1439 C 141.988 -1.83051 -0.67211 0
M  V30 1440 O 141.258 -1.27532 -1.48703 0
M  V30 1441 H 139.838 -0.686537 0.294408 0
M  V30 1442 H 142.5 -1.39226 1.3639 0
M  V30 1443 H 141.596 -2.90399 1.14346 0
M  V30 1444 N 141.898 -0.863906 -1.31812 0
M  V30 1445 C 143.144 -0.472535 -1.97218 0
M  V30 1446 C 143.477 0.971394 -1.68159 0
M  V30 1447 O 142.752 1.68309 -0.974798 0
M  V30 1448 C 143.035 -0.723054 -3.52766 0
M  V30 1449 C 142.888 -2.21608 -3.91421 0
M  V30 1450 C 144.207 -0.185522 -4.39709 0
M  V30 1451 H 141.326 -0.173158 -0.71637 0
M  V30 1452 H 143.968 -1.08403 -1.56041 0
M  V30 1453 H 142.118 -0.202577 -3.87971 0
M  V30 1454 H 143.79 -2.80334 -3.66347 0
M  V30 1455 H 142.033 -2.691 -3.40246 0
M  V30 1456 H 142.704 -2.34203 -4.99853 0
M  V30 1457 H 145.18 -0.630726 -4.11292 0
M  V30 1458 H 144.056 -0.390306 -5.47511 0
M  V30 1459 H 144.317 0.912229 -4.32586 0
M  V30 1460 N 143.376 1.44774 -0.622745 0
M  V30 1461 C 144.624 2.01721 -0.123655 0
M  V30 1462 C 144.945 1.49172 1.25589 0
M  V30 1463 O 144.215 0.691974 1.83272 0
M  V30 1464 H 142.795 0.745777 -0.0427225 0
M  V30 1465 H 145.457 1.77382 -0.807559 0
M  V30 1466 H 144.553 3.11984 -0.0849534 0
M  V30 1467 N 144.854 0.36279 1.53368 0
M  V30 1468 C 146.102 -0.227326 2.00817 0
M  V30 1469 C 146.423 -1.49511 1.25186 0
M  V30 1470 O 145.693 -1.92482 0.364348 0
M  V30 1471 H 144.273 -0.0869923 0.741917 0
M  V30 1472 H 146.935 0.488381 1.88682 0
M  V30 1473 H 146.031 -0.456273 3.08747 0
M  V30 1474 N 146.332 -1.57332 0.0918853 0
M  V30 1475 C 147.58 -1.93853 -0.571446 0
M  V30 1476 C 147.901 -0.974212 -1.6892 0
M  V30 1477 O 147.171 -0.0257254 -1.95883 0
M  V30 1478 H 145.751 -0.715666 -0.214082 0
M  V30 1479 H 148.413 -1.94287 0.154464 0
M  V30 1480 H 147.509 -2.96191 -0.983729 0
M  V30 1481 N 147.81 0.181792 -1.56548 0
M  V30 1482 C 148.757 1.22521 -1.95595 0
M  V30 1483 C 149.727 1.4454 -0.818373 0
M  V30 1484 O 150.912 1.57454 -1.07763 0
M  V30 1485 C 148.052 2.56193 -2.31212 0
M  V30 1486 C 147.165 2.41641 -3.58097 0
M  V30 1487 C 146.3 3.68108 -3.82975 0
M  V30 1488 C 145.339 3.48445 -5.03242 0
M  V30 1489 N 144.476 4.66956 -5.24306 0
M  V30 1490 H 149.316 0.885226 -2.84548 0
M  V30 1491 H 146.853 0.425718 -1.40805 0
M  V30 1492 H 148.811 3.34088 -2.49882 0
M  V30 1493 H 147.441 2.88208 -1.45382 0
M  V30 1494 H 146.493 1.54976 -3.474 0
M  V30 1495 H 147.805 2.23052 -4.46149 0
M  V30 1496 H 146.959 4.54441 -4.01956 0
M  V30 1497 H 145.698 3.89666 -2.93278 0
M  V30 1498 H 144.703 2.60499 -4.8417 0
M  V30 1499 H 145.928 3.2832 -5.9446 0
M  V30 1500 H 143.874 4.88752 -4.37559 0
M  V30 1501 H 143.791 4.51242 -6.06561 0
M  V30 1502 H 145.059 5.54602 -5.47756 0
M  V30 1503 N 149.288 1.51039 0.449983 0
M  V30 1504 C 150.704 1.38934 0.785462 0
M  V30 1505 C 150.904 0.461817 1.96136 0
M  V30 1506 O 149.96 -0.0877389 2.52348 0
M  V30 1507 C 151.273 2.80724 1.0777 0
M  V30 1508 C 152.821 2.89787 1.1829 0
M  V30 1509 C 153.296 4.32457 1.50815 0
M  V30 1510 N 154.787 4.35505 1.57764 0
M  V30 1511 C 155.522 5.42914 1.84477 0
M  V30 1512 N 155.018 6.60502 2.09068 0
M  V30 1513 N 156.811 5.3038 1.86155 0
M  V30 1514 H 148.962 2.09904 -0.324647 0
M  V30 1515 H 151.225 0.944378 -0.0827957 0
M  V30 1516 H 150.931 3.50531 0.286498 0
M  V30 1517 H 150.805 3.19273 2.00859 0
M  V30 1518 H 153.192 2.20186 1.96474 0
M  V30 1519 H 153.273 2.54752 0.231314 0
M  V30 1520 H 152.917 5.02603 0.731622 0
M  V30 1521 H 152.847 4.64995 2.47158 0
M  V30 1522 H 155.338 3.50724 1.40715 0
M  V30 1523 H 155.651 7.38158 2.28785 0
M  V30 1524 H 153.996 6.63639 2.06416 0
M  V30 1525 H 157.187 4.37505 1.66454 0
M  V30 1526 H 157.36 6.1417 2.06637 0
M  V30 1527 N 150.766 -0.704594 1.40972 0
M  V30 1528 C 152.014 -1.46169 1.39568 0
M  V30 1529 C 152.335 -1.95 0.00253745 0
M  V30 1530 O 151.605 -1.71095 -0.954114 0
M  V30 1531 H 150.185 -0.542326 0.513704 0
M  V30 1532 H 152.847 -0.834553 1.76128 0
M  V30 1533 H 151.943 -2.32922 2.07735 0
M  V30 1534 N 152.244 -1.26651 -0.937939 0
M  V30 1535 C 153.472 -1.15173 -1.7188 0
M  V30 1536 C 153.887 0.292668 -1.86518 0
M  V30 1537 O 153.244 1.20014 -1.37488 0
M  V30 1538 C 153.295 -1.81925 -3.12387 0
M  V30 1539 O 153.016 -3.2072 -2.98446 0
M  V30 1540 C 154.517 -1.76442 -4.06673 0
M  V30 1541 H 151.737 -0.400911 -0.538063 0
M  V30 1542 H 154.281 -1.67332 -1.1756 0
M  V30 1543 H 152.436 -1.33696 -3.63599 0
M  V30 1544 H 152.85 -3.53802 -3.872 0
M  V30 1545 H 154.324 -2.27781 -5.02812 0
M  V30 1546 H 154.801 -0.731608 -4.33064 0
M  V30 1547 H 155.407 -2.24238 -3.61382 0
M  V30 1548 N 153.722 1.14298 -1.08507 0
M  V30 1549 C 154.67 2.21483 -0.710483 0
M  V30 1550 C 155.664 1.66998 0.284234 0
M  V30 1551 O 156.87 1.79401 0.146692 0
M  V30 1552 H 153.245 0.721578 -0.211729 0
M  V30 1553 H 155.216 2.50348 -1.62384 0
M  V30 1554 C 153.965 3.4743 -0.137007 0
M  V30 1555 H 153.288 3.89686 -0.893592 0
M  V30 1556 H 154.728 4.2391 0.0872789 0
M  V30 1557 C 153.187 3.17548 1.12538 0
M  V30 1558 O 153.717 3.35437 2.21009 0
M  V30 1559 N 151.923 2.71499 1.03617 0
M  V30 1560 H 151.47 2.57143 0.153403 0
M  V30 1561 H 151.428 2.51881 1.88158 0
M  V30 1562 N 155.201 0.870884 1.31352 0
M  V30 1563 C 156.431 0.496049 2.00557 0
M  V30 1564 C 156.839 -0.916241 1.65534 0
M  V30 1565 O 156.182 -1.61188 0.881134 0
M  V30 1566 C 156.244 0.574418 3.54881 0
M  V30 1567 C 155.908 1.94849 4.1338 0
M  V30 1568 C 156.905 2.91611 4.30417 0
M  V30 1569 C 154.59 2.25005 4.49086 0
M  V30 1570 C 156.584 4.16672 4.82352 0
M  V30 1571 C 154.271 3.50315 5.00722 0
M  V30 1572 C 155.269 4.45964 5.17306 0
M  V30 1573 O 154.957 5.69052 5.67833 0
M  V30 1574 H 154.689 0.191664 0.64826 0
M  V30 1575 H 157.243 1.17409 1.68536 0
M  V30 1576 H 155.473 -0.160549 3.86367 0
M  V30 1577 H 157.162 0.212879 4.05341 0
M  V30 1578 H 157.928 2.69622 4.03149 0
M  V30 1579 H 153.807 1.51332 4.35453 0
M  V30 1580 H 157.351 4.91336 4.95211 0
M  V30 1581 H 153.248 3.72147 5.27424 0
M  V30 1582 H 154.016 5.71236 5.86201 0
M  V30 1583 N 156.679 -1.44442 0.630414 0
M  V30 1584 C 157.928 -2.01267 0.132073 0
M  V30 1585 C 158.241 -1.50172 -1.25331 0
M  V30 1586 O 159.447 -1.9912 -1.84562 0
M  V30 1587 C 157.903 -3.59422 0.185362 0
M  V30 1588 C 157.511 -4.19514 1.57201 0
M  V30 1589 C 159.255 -4.23724 -0.256553 0
M  V30 1590 C 157.162 -5.69891 1.58045 0
M  V30 1591 H 156.092 -0.752619 0.0456092 0
M  V30 1592 H 158.743 -1.65666 0.789106 0
M  V30 1593 H 157.125 -3.92318 -0.538759 0
M  V30 1594 H 158.299 -3.98156 2.31966 0
M  V30 1595 H 156.614 -3.67496 1.95795 0
M  V30 1596 H 159.211 -5.34019 -0.269767 0
M  V30 1597 H 159.554 -3.96013 -1.28372 0
M  V30 1598 H 160.087 -3.95629 0.41505 0
M  V30 1599 H 156.826 -6.02336 2.58597 0
M  V30 1600 H 156.346 -5.93373 0.875725 0
M  V30 1601 H 158.025 -6.33515 1.31408 0
M  V30 1602 N 158.157 -0.370918 -1.53173 0
M  V30 1603 C 159.105 0.488101 -2.27421 0
M  V30 1604 C 160.099 1.07884 -1.30604 0
M  V30 1605 O 161.305 1.02143 -1.48212 0
M  V30 1606 H 157.68 0.176134 -0.731082 0
M  V30 1607 H 159.651 -0.159815 -2.97972 0
M  V30 1608 C 158.4 1.61306 -3.08019 0
M  V30 1609 H 157.723 1.1678 -3.82364 0
M  V30 1610 H 159.163 2.18872 -3.63141 0
M  V30 1611 C 157.622 2.55848 -2.19188 0
M  V30 1612 O 158.152 3.58799 -1.80626 0
M  V30 1613 N 156.358 2.2516 -1.83715 0
M  V30 1614 H 155.905 1.41476 -2.15273 0
M  V30 1615 H 155.863 2.8867 -1.24567 0
M  V30 1616 N 159.635 1.57281 -0.100228 0
M  V30 1617 C 160.881 1.94826 0.563101 0
M  V30 1618 C 161.214 0.982475 1.67514 0
M  V30 1619 O 160.489 0.0164069 1.94493 0
M  V30 1620 C 160.772 3.42453 1.11346 0
M  V30 1621 C 160.625 4.498 0.00612081 0
M  V30 1622 C 161.944 3.91506 2.01024 0
M  V30 1623 H 159.063 0.708428 0.203221 0
M  V30 1624 H 161.705 1.8922 -0.171979 0
M  V30 1625 H 159.855 3.47361 1.7399 0
M  V30 1626 H 161.527 4.57 -0.628357 0
M  V30 1627 H 159.77 4.28756 -0.659581 0
M  V30 1628 H 160.441 5.50306 0.432109 0
M  V30 1629 H 162.917 3.88784 1.48278 0
M  V30 1630 H 161.793 4.95358 2.36457 0
M  V30 1631 H 162.054 3.31099 2.92961 0
M  V30 1632 N 161.113 -0.173488 1.56642 0
M  V30 1633 C 162.063 -1.21941 1.92651 0
M  V30 1634 C 163.047 -1.39912 0.794577 0
M  V30 1635 O 164.239 -1.41919 1.05773 0
M  V30 1636 C 161.368 -2.55935 2.28806 0
M  V30 1637 C 160.454 -2.41667 3.48508 0
M  V30 1638 N 160.845 -1.9711 4.65813 0
M  V30 1639 C 159.143 -2.72499 3.53072 0
M  V30 1640 C 159.844 -1.95253 5.47952 0
M  V30 1641 N 158.82 -2.37575 4.88937 0
M  V30 1642 H 162.622 -0.866581 2.80834 0
M  V30 1643 H 160.136 -0.381776 1.57849 0
M  V30 1644 H 162.133 -3.31511 2.52797 0
M  V30 1645 H 160.793 -2.92022 1.41961 0
M  V30 1646 H 161.804 -1.67481 4.90072 0
M  V30 1647 H 158.481 -3.12639 2.767 0
M  V30 1648 H 159.871 -1.6252 6.51948 0
M  V30 1649 N 162.591 -1.51276 -0.441967 0
M  V30 1650 C 163.521 -1.752 -1.54361 0
M  V30 1651 C 164.502 -0.601682 -1.59103 0
M  V30 1652 O 165.687 -0.843913 -1.74905 0
M  V30 1653 C 162.817 -1.87282 -2.92477 0
M  V30 1654 C 161.771 -3.02687 -3.02596 0
M  V30 1655 C 161.097 -2.99947 -4.42647 0
M  V30 1656 C 162.397 -4.4273 -2.77106 0
M  V30 1657 H 164.091 -2.67442 -1.34592 0
M  V30 1658 H 161.637 -1.28694 -0.646048 0
M  V30 1659 H 163.59 -2.02602 -3.695 0
M  V30 1660 H 162.314 -0.916844 -3.13467 0
M  V30 1661 H 160.973 -2.87065 -2.28012 0
M  V30 1662 H 160.621 -2.02136 -4.60597 0
M  V30 1663 H 160.321 -3.77439 -4.50348 0
M  V30 1664 H 161.845 -3.17354 -5.2165 0
M  V30 1665 H 163.259 -4.58727 -3.43864 0
M  V30 1666 H 161.656 -5.21893 -2.96222 0
M  V30 1667 H 162.726 -4.53087 -1.72744 0
M  V30 1668 N 164.069 0.697108 -1.41344 0
M  V30 1669 C 164.979 1.84088 -1.45427 0
M  V30 1670 C 165.995 1.70545 -0.34501 0
M  V30 1671 O 167.171 1.92488 -0.592492 0
M  V30 1672 C 164.236 3.20056 -1.33286 0
M  V30 1673 C 163.297 3.45718 -2.54514 0
M  V30 1674 C 162.53 4.75199 -2.42944 0
M  V30 1675 O 162.753 5.51579 -1.45318 0
M  V30 1676 O 161.687 5.0161 -3.32672 0
M  V30 1677 H 165.513 1.836 -2.41919 0
M  V30 1678 H 163.098 0.849966 -1.22866 0
M  V30 1679 H 164.98 4.01236 -1.28794 0
M  V30 1680 H 163.655 3.2123 -0.39909 0
M  V30 1681 H 162.562 2.64474 -2.64583 0
M  V30 1682 H 163.895 3.49356 -3.46715 0
M  V30 1683 N 165.547 1.27147 0.931209 0
M  V30 1684 C 166.796 1.12664 1.67302 0
M  V30 1685 C 167.109 -0.327718 1.92835 0
M  V30 1686 O 168.315 -0.593392 2.64936 0
M  V30 1687 C 166.771 1.9683 3.01307 0
M  V30 1688 C 166.379 3.46901 2.83485 0
M  V30 1689 C 168.123 1.90985 3.79111 0
M  V30 1690 C 166.03 4.23279 4.13024 0
M  V30 1691 H 164.96 0.41803 0.627509 0
M  V30 1692 H 167.611 1.51539 1.03481 0
M  V30 1693 H 165.993 1.50797 3.66164 0
M  V30 1694 H 167.167 4.00773 2.27415 0
M  V30 1695 H 165.482 3.54088 2.19113 0
M  V30 1696 H 168.079 2.45328 4.75098 0
M  V30 1697 H 168.422 0.882718 4.06834 0
M  V30 1698 H 168.955 2.34895 3.21044 0
M  V30 1699 H 165.694 5.26503 3.90481 0
M  V30 1700 H 165.214 3.74186 4.6877 0
M  V30 1701 H 166.893 4.32265 4.81411 0
M  V30 1702 N 167.025 -1.13721 1.09112 0
M  V30 1703 C 168.441 -1.36914 0.820174 0
M  V30 1704 C 168.641 -1.93356 -0.567079 0
M  V30 1705 O 167.697 -2.15093 -1.32255 0
M  V30 1706 C 169.01 -2.3235 1.90877 0
M  V30 1707 C 170.558 -2.45973 1.93562 0
M  V30 1708 C 171.033 -3.44714 3.01556 0
M  V30 1709 N 172.524 -3.52263 3.00775 0
M  V30 1710 C 173.259 -4.28536 3.80978 0
M  V30 1711 N 172.755 -5.07991 4.71081 0
M  V30 1712 N 174.548 -4.23804 3.69251 0
M  V30 1713 H 166.699 -0.754348 1.98553 0
M  V30 1714 H 168.962 -0.3944 0.862063 0
M  V30 1715 H 168.668 -1.98027 2.90651 0
M  V30 1716 H 168.542 -3.32332 1.78424 0
M  V30 1717 H 170.929 -2.79584 0.944286 0
M  V30 1718 H 171.01 -1.45926 2.10093 0
M  V30 1719 H 170.654 -3.11835 4.00901 0
M  V30 1720 H 170.584 -4.44558 2.82269 0
M  V30 1721 H 173.075 -2.95567 2.35475 0
M  V30 1722 H 173.388 -5.63487 5.28869 0
M  V30 1723 H 171.733 -5.07235 4.75119 0
M  V30 1724 H 174.924 -3.60806 2.98222 0
M  V30 1725 H 175.097 -4.82995 4.31995 0
M  V30 1726 N 168.503 -0.877838 -1.30888 0
M  V30 1727 C 169.78 -0.413052 -1.91189 0
M  V30 1728 C 170.16 1.1056 -1.79832 0
M  V30 1729 O 169.508 1.93771 -1.21099 0
M  V30 1730 C 169.718 -0.903191 -3.3711 0
M  V30 1731 C 171.066 -0.93395 -4.14201 0
M  V30 1732 O 172.09 -0.849373 -3.45925 0
M  V30 1733 O 170.949 -1.05772 -5.36167 0
M  V30 1734 H 168.043 -0.125035 -0.817493 0
M  V30 1735 H 170.589 -0.966269 -1.39504 0
M  V30 1736 H 169.361 -1.94692 -3.39427 0
M  V30 1737 H 168.984 -0.328732 -3.96239 0
M  V30 1738 N 169.982 1.44106 -0.638065 0
M  V30 1739 C 170.892 2.34513 0.0637334 0
M  V30 1740 C 171.908 1.53018 0.828346 0
M  V30 1741 O 173.084 1.85723 0.779036 0
M  V30 1742 C 170.149 3.31095 1.02844 0
M  V30 1743 C 169.21 4.28497 0.26244 0
M  V30 1744 C 168.443 5.20465 1.1812 0
M  V30 1745 O 168.666 5.16514 2.42011 0
M  V30 1746 O 167.6 5.98251 0.661774 0
M  V30 1747 H 171.426 2.95989 -0.68003 0
M  V30 1748 H 169.011 1.43994 -0.398252 0
M  V30 1749 H 170.893 3.90526 1.58327 0
M  V30 1750 H 169.568 2.72144 1.7527 0
M  V30 1751 H 168.475 3.72592 -0.335602 0
M  V30 1752 H 169.808 4.90388 -0.421936 0
M  V30 1753 N 171.46 0.379036 1.52974 0
M  V30 1754 C 172.408 -0.476033 2.27677 0
M  V30 1755 C 173.402 -1.0719 1.31174 0
M  V30 1756 O 174.608 -1.01355 1.48752 0
M  V30 1757 H 170.983 -0.172255 0.732006 0
M  V30 1758 H 172.954 0.175615 2.97883 0
M  V30 1759 C 171.703 -1.5967 3.0887 0
M  V30 1760 H 171.026 -1.1475 3.82978 0
M  V30 1761 H 172.466 -2.16943 3.64296 0
M  V30 1762 C 170.925 -2.54682 2.20542 0
M  V30 1763 O 171.455 -3.57836 1.82527 0
M  V30 1764 N 169.661 -2.24183 1.84907 0
M  V30 1765 H 169.208 -1.40333 2.1602 0
M  V30 1766 H 169.166 -2.88006 1.26096 0
M  V30 1767 N 172.938 -1.57226 0.108567 0
M  V30 1768 C 174.168 -1.9889 -0.559142 0
M  V30 1769 C 174.576 -0.986889 -1.61422 0
M  V30 1770 O 173.919 0.0298705 -1.83676 0
M  V30 1771 C 173.981 -3.36952 -1.25315 0
M  V30 1772 C 173.645 -4.55679 -0.347248 0
M  V30 1773 C 174.642 -5.18281 0.409996 0
M  V30 1774 C 172.327 -5.0162 -0.261367 0
M  V30 1775 C 174.321 -6.25203 1.24096 0
M  V30 1776 C 172.008 -6.08405 0.573238 0
M  V30 1777 C 173.006 -6.70063 1.32304 0
M  V30 1778 O 172.694 -7.74788 2.14381 0
M  V30 1779 H 172.426 -0.658343 -0.153492 0
M  V30 1780 H 174.98 -2.04532 0.188584 0
M  V30 1781 H 173.21 -3.28032 -2.04773 0
M  V30 1782 H 174.899 -3.62974 -1.81673 0
M  V30 1783 H 175.665 -4.8371 0.353457 0
M  V30 1784 H 171.544 -4.53381 -0.834656 0
M  V30 1785 H 175.088 -6.73259 1.82669 0
M  V30 1786 H 170.985 -6.42406 0.631208 0
M  V30 1787 H 171.753 -7.91837 2.07209 0
M  V30 1788 N 174.416 0.165178 -1.56732 0
M  V30 1789 C 175.363 1.2044 -1.96883 0
M  V30 1790 C 176.333 1.43664 -0.833657 0
M  V30 1791 O 177.518 1.56302 -1.09427 0
M  V30 1792 C 174.658 2.53727 -2.33916 0
M  V30 1793 C 173.771 2.3783 -3.6064 0
M  V30 1794 C 172.906 3.64026 -3.86857 0
M  V30 1795 C 171.945 3.43088 -5.06909 0
M  V30 1796 N 171.082 4.61369 -5.29229 0
M  V30 1797 H 175.922 0.854996 -2.85471 0
M  V30 1798 H 173.459 0.41076 -1.41249 0
M  V30 1799 H 175.417 3.31419 -2.53411 0
M  V30 1800 H 174.047 2.8665 -1.48431 0
M  V30 1801 H 173.099 1.51282 -3.49024 0
M  V30 1802 H 174.411 2.18308 -4.4849 0
M  V30 1803 H 173.565 4.50152 -4.06753 0
M  V30 1804 H 172.304 3.86533 -2.97394 0
M  V30 1805 H 171.309 2.55349 -4.86906 0
M  V30 1806 H 172.534 3.21997 -5.97909 0
M  V30 1807 H 170.48 4.84084 -4.42718 0
M  V30 1808 H 170.397 4.44783 -6.11313 0
M  V30 1809 H 171.665 5.48761 -5.53608 0
M  V30 1810 N 175.894 1.51508 0.433938 0
M  V30 1811 C 177.122 1.68157 1.20543 0
M  V30 1812 C 177.537 0.380362 1.84929 0
M  V30 1813 O 176.894 -0.641446 1.70856 0
M  V30 1814 C 176.945 2.79965 2.28696 0
M  V30 1815 O 176.666 4.05045 1.66943 0
M  V30 1816 C 178.167 3.07912 3.18912 0
M  V30 1817 H 175.387 0.56421 0.363191 0
M  V30 1818 H 177.931 1.97941 0.513754 0
M  V30 1819 H 176.086 2.5277 2.93574 0
M  V30 1820 H 176.5 4.67165 2.38448 0
M  V30 1821 H 177.974 3.89719 3.90926 0
M  V30 1822 H 178.451 2.20456 3.79863 0
M  V30 1823 H 179.057 3.36779 2.59731 0
M  V30 1824 N 177.372 -0.689602 1.41712 0
M  V30 1825 C 178.304 -1.815 1.39966 0
M  V30 1826 C 179.317 -1.59995 0.300917 0
M  V30 1827 O 180.506 -1.69387 0.563039 0
M  V30 1828 C 177.606 -3.18364 1.16179 0
M  V30 1829 C 176.779 -3.66847 2.38206 0
M  V30 1830 C 175.838 -4.82398 2.10186 0
M  V30 1831 O 174.864 -4.93706 2.83272 0
M  V30 1832 N 176.066 -5.70064 1.0958 0
M  V30 1833 H 178.831 -1.83488 2.36965 0
M  V30 1834 H 176.392 -0.872149 1.36401 0
M  V30 1835 H 178.384 -3.93301 0.953756 0
M  V30 1836 H 176.954 -3.11365 0.27756 0
M  V30 1837 H 176.174 -2.82751 2.74673 0
M  V30 1838 H 177.462 -3.95978 3.19498 0
M  V30 1839 H 176.86 -5.63565 0.491019 0
M  V30 1840 H 175.417 -6.44874 0.947656 0
M  V30 1841 N 178.85 -1.27639 -0.924453 0
M  V30 1842 C 180.09 -1.15407 -1.68703 0
M  V30 1843 C 180.454 0.294581 -1.89727 0
M  V30 1844 O 181.655 0.539385 -2.63333 0
M  V30 1845 C 179.926 -1.9195 -3.0148 0
M  V30 1846 S 181.485 -1.95969 -3.92609 0
M  V30 1847 H 178.303 -0.411937 -0.579507 0
M  V30 1848 H 180.905 -1.61592 -1.10038 0
M  V30 1849 H 179.609 -2.96387 -2.83871 0
M  V30 1850 H 179.14 -1.46272 -3.65196 0
M  V30 1851 H 181.155 -1.05846 -4.84779 0
M  V30 1852 N 180.328 1.1314 -1.09713 0
M  V30 1853 C 181.577 1.83838 -0.829851 0
M  V30 1854 C 181.89 1.84599 0.646728 0
M  V30 1855 O 183.096 2.51218 1.02965 0
M  V30 1856 C 181.552 3.30069 -1.43466 0
M  V30 1857 C 181.16 3.37688 -2.94399 0
M  V30 1858 C 182.904 4.05788 -1.24645 0
M  V30 1859 C 180.811 4.78209 -3.47952 0
M  V30 1860 H 179.741 0.68877 -0.306777 0
M  V30 1861 H 182.392 1.27448 -1.3202 0
M  V30 1862 H 180.774 3.8628 -0.871996 0
M  V30 1863 H 181.948 2.91456 -3.56918 0
M  V30 1864 H 180.263 2.75436 -3.12289 0
M  V30 1865 H 182.86 5.09535 -1.62107 0
M  V30 1866 H 183.203 4.15878 -0.187357 0
M  V30 1867 H 183.736 3.55915 -1.77678 0
M  V30 1868 H 180.475 4.73311 -4.53495 0
M  V30 1869 H 179.995 5.24924 -2.90198 0
M  V30 1870 H 181.674 5.47133 -3.45332 0
M  V30 1871 N 181.806 0.884767 1.30421 0
M  V30 1872 C 183.053 0.503105 1.96151 0
M  V30 1873 C 183.381 -0.947676 1.69851 0
M  V30 1874 O 182.636 -1.68467 0.995861 0
M  V30 1875 C 182.935 0.724318 3.49983 0
M  V30 1876 C 182.601 2.15015 3.96332 0
M  V30 1877 C 181.263 2.54005 4.08699 0
M  V30 1878 C 183.615 3.07936 4.20505 0
M  V30 1879 C 180.943 3.85128 4.42599 0
M  V30 1880 C 183.295 4.3859 4.55874 0
M  V30 1881 C 181.959 4.77474 4.66449 0
M  V30 1882 H 181.229 0.184099 0.717766 0
M  V30 1883 H 183.876 1.12058 1.55291 0
M  V30 1884 H 182.181 0.0238086 3.91793 0
M  V30 1885 H 183.878 0.408617 3.98913 0
M  V30 1886 H 180.468 1.8375 3.87213 0
M  V30 1887 H 184.652 2.79033 4.10431 0
M  V30 1888 H 179.908 4.14996 4.48986 0
M  V30 1889 H 184.082 5.10629 4.7353 0
M  V30 1890 H 181.709 5.79115 4.92473 0
M  V30 1891 N 183.284 -1.43765 0.645699 0
M  V30 1892 C 184.532 -2.01499 0.155731 0
M  V30 1893 C 184.853 -1.51151 -1.232 0
M  V30 1894 O 184.123 -0.721044 -1.82148 0
M  V30 1895 H 182.703 -0.745003 0.0545817 0
M  V30 1896 H 185.365 -1.76075 0.835677 0
M  V30 1897 H 184.461 -3.1181 0.134577 0
M  V30 1898 N 184.763 -0.387143 -1.52771 0
M  V30 1899 C 185.711 0.463953 -2.27926 0
M  V30 1900 C 186.705 1.06493 -1.31741 0
M  V30 1901 O 187.911 1.00565 -1.49287 0
M  V30 1902 H 184.286 0.16837 -0.732909 0
M  V30 1903 H 186.257 -0.19141 -2.97785 0
M  V30 1904 C 185.006 1.5803 -3.09713 0
M  V30 1905 H 184.329 1.12718 -3.83581 0
M  V30 1906 H 185.769 2.15008 -3.65442 0
M  V30 1907 C 184.228 2.53509 -2.2189 0
M  V30 1908 O 184.758 3.56863 -1.84422 0
M  V30 1909 N 182.964 2.23199 -1.86093 0
M  V30 1910 H 182.511 1.39185 -2.16761 0
M  V30 1911 H 182.469 2.87333 -1.27621 0
M  V30 1912 N 186.241 1.57166 -0.116904 0
M  V30 1913 C 187.487 1.95412 0.542405 0
M  V30 1914 C 187.82 1.00019 1.66463 0
M  V30 1915 O 187.095 0.0370346 1.94465 0
M  V30 1916 C 187.378 3.43615 1.07708 0
M  V30 1917 C 187.231 4.49781 -0.0415868 0
M  V30 1918 C 188.55 3.93616 1.96861 0
M  V30 1919 H 185.669 0.710543 0.195696 0
M  V30 1920 H 188.311 1.89027 -0.192038 0
M  V30 1921 H 186.461 3.49187 1.70296 0
M  V30 1922 H 188.133 4.56308 -0.676793 0
M  V30 1923 H 186.376 4.28033 -0.705019 0
M  V30 1924 H 187.047 5.50733 0.373717 0
M  V30 1925 H 189.523 3.90335 1.44146 0
M  V30 1926 H 188.399 4.97838 2.3119 0
M  V30 1927 H 188.66 3.34188 2.89432 0
M  V30 1928 N 187.719 -0.156864 1.56817 0
M  V30 1929 C 188.959 -0.877453 1.84608 0
M  V30 1930 C 189.323 -1.78791 0.699845 0
M  V30 1931 O 190.524 -2.5472 0.858553 0
M  V30 1932 C 188.795 -1.63992 3.17555 0
M  V30 1933 S 190.354 -2.40729 3.66872 0
M  V30 1934 H 187.172 -0.293612 0.647544 0
M  V30 1935 H 189.774 -0.138099 1.95012 0
M  V30 1936 H 188.478 -0.962363 3.98957 0
M  V30 1937 H 188.009 -2.42038 3.10131 0
M  V30 1938 H 190.024 -3.65725 3.3535 0
M  V30 1939 N 189.197 -1.51736 -0.425897 0
M  V30 1940 C 190.443 -1.65214 -1.1761 0
M  V30 1941 C 190.776 -0.372778 -1.90589 0
M  V30 1942 O 190.051 0.628139 -1.84078 0
M  V30 1943 C 190.334 -2.86312 -2.18398 0
M  V30 1944 C 190.187 -4.24254 -1.49426 0
M  V30 1945 C 191.506 -3.02925 -3.19256 0
M  V30 1946 H 188.625 -0.601263 -0.426206 0
M  V30 1947 H 191.267 -1.8425 -0.463882 0
M  V30 1948 H 189.417 -2.70213 -2.79137 0
M  V30 1949 H 191.089 -4.52046 -0.919362 0
M  V30 1950 H 189.332 -4.26426 -0.796432 0
M  V30 1951 H 190.003 -5.05001 -2.22885 0
M  V30 1952 H 192.479 -3.1781 -2.68581 0
M  V30 1953 H 191.355 -3.89199 -3.8706 0
M  V30 1954 H 191.616 -2.15497 -3.86023 0
M  V30 1955 N 190.675 0.682077 -1.42076 0
M  V30 1956 C 191.605 1.80796 -1.47767 0
M  V30 1957 C 192.586 1.6677 -0.334954 0
M  V30 1958 O 193.771 1.863 -0.548264 0
M  V30 1959 C 190.901 3.19038 -1.37229 0
M  V30 1960 C 189.855 3.47789 -2.49453 0
M  V30 1961 C 189.181 4.8553 -2.23975 0
M  V30 1962 C 190.481 3.45411 -3.91776 0
M  V30 1963 H 192.175 1.7629 -2.41997 0
M  V30 1964 H 189.721 0.846721 -1.16476 0
M  V30 1965 H 191.674 3.97528 -1.39821 0
M  V30 1966 H 190.398 3.24204 -0.394907 0
M  V30 1967 H 189.057 2.71657 -2.46166 0
M  V30 1968 H 188.705 4.87337 -1.24547 0
M  V30 1969 H 188.405 5.0573 -2.99184 0
M  V30 1970 H 189.929 5.66312 -2.28304 0
M  V30 1971 H 191.343 4.13882 -3.96705 0
M  V30 1972 H 189.74 3.77145 -4.66778 0
M  V30 1973 H 190.81 2.44122 -4.18966 0
M  V30 1974 N 192.153 1.28127 0.917671 0
M  V30 1975 C 193.063 1.13556 2.05286 0
M  V30 1976 C 194.079 0.0630914 1.73886 0
M  V30 1977 O 195.255 0.271598 1.9956 0
M  V30 1978 C 192.32 0.794676 3.3747 0
M  V30 1979 C 191.381 1.94909 3.82504 0
M  V30 1980 C 190.614 1.62437 5.0838 0
M  V30 1981 O 190.837 0.536905 5.67867 0
M  V30 1982 O 189.771 2.46677 5.4903 0
M  V30 1983 H 193.597 2.08844 2.20495 0
M  V30 1984 H 191.182 1.07409 1.03845 0
M  V30 1985 H 193.064 0.618344 4.16839 0
M  V30 1986 H 191.739 -0.128581 3.23445 0
M  V30 1987 H 190.646 2.18055 3.03978 0
M  V30 1988 H 191.979 2.85291 4.01086 0
M  V30 1989 N 193.631 -1.12557 1.10312 0
M  V30 1990 C 194.908 -1.80363 0.756878 0
M  V30 1991 C 195.288 -1.97067 -0.756824 0
M  V30 1992 O 194.636 -1.54601 -1.68259 0
M  V30 1993 C 194.846 -3.14812 1.50647 0
M  V30 1994 C 196.194 -3.90029 1.67817 0
M  V30 1995 O 197.218 -3.24464 1.46974 0
M  V30 1996 O 196.077 -5.07652 2.02365 0
M  V30 1997 H 193.171 -0.780667 0.272926 0
M  V30 1998 H 195.717 -1.19404 1.20586 0
M  V30 1999 H 194.489 -2.97936 2.53672 0
M  V30 2000 H 194.112 -3.83478 1.05026 0
M  V30 2001 N 195.109 -0.891671 -1.2995 0
M  V30 2002 C 196.057 -0.353066 -2.29905 0
M  V30 2003 C 197.051 0.543509 -1.60444 0
M  V30 2004 O 198.257 0.4272 -1.74857 0
M  V30 2005 H 194.632 -0.095531 -0.745907 0
M  V30 2006 H 196.603 -1.20961 -2.72784 0
M  V30 2007 C 195.352 0.411475 -3.45257 0
M  V30 2008 H 194.675 -0.269182 -3.98893 0
M  V30 2009 H 196.115 0.753328 -4.17254 0
M  V30 2010 C 194.574 1.6111 -2.9588 0
M  V30 2011 O 195.104 2.71045 -2.96475 0
M  V30 2012 N 193.31 1.45054 -2.51809 0
M  V30 2013 H 192.857 0.556175 -2.51524 0
M  V30 2014 H 192.815 2.25453 -2.1913 0
M  V30 2015 N 196.587 1.43421 -0.653314 0
M  V30 2016 C 197.812 2.06678 -0.172846 0
M  V30 2017 C 198.237 1.48648 1.15262 0
M  V30 2018 O 197.595 0.596457 1.71208 0
M  V30 2019 C 197.643 3.60474 -0.0953184 0
M  V30 2020 O 196.747 4.01487 0.942442 0
M  V30 2021 H 196.088 0.657181 -0.0949155 0
M  V30 2022 H 198.618 1.83925 -0.896265 0
M  V30 2023 H 198.628 4.07905 0.0879728 0
M  V30 2024 H 197.303 4.02088 -1.06291 0
M  V30 2025 H 195.88 3.65646 0.731932 0
M  V30 2026 N 198.065 0.39524 1.52563 0
M  V30 2027 C 198.995 -0.428384 2.29537 0
M  V30 2028 C 199.976 -1.05831 1.33169 0
M  V30 2029 O 201.161 -1.06995 1.62067 0
M  V30 2030 C 198.291 -1.55274 3.10656 0
M  V30 2031 C 197.245 -1.04855 4.14957 0
M  V30 2032 C 196.571 -2.26543 4.84337 0
M  V30 2033 C 197.871 -0.112324 5.22179 0
M  V30 2034 H 199.565 0.213867 2.98635 0
M  V30 2035 H 197.111 0.104298 1.43622 0
M  V30 2036 H 199.064 -2.1358 3.63265 0
M  V30 2037 H 197.788 -2.22266 2.39302 0
M  V30 2038 H 196.447 -0.487985 3.63338 0
M  V30 2039 H 196.095 -2.92059 4.09525 0
M  V30 2040 H 195.795 -1.93466 5.54837 0
M  V30 2041 H 197.319 -2.85481 5.39753 0
M  V30 2042 H 198.733 -0.603752 5.70112 0
M  V30 2043 H 197.13 0.128968 5.99961 0
M  V30 2044 H 198.2 0.837052 4.77621 0
M  V30 2045 N 199.544 -1.57102 0.125237 0
M  V30 2046 C 200.793 -1.94582 -0.531095 0
M  V30 2047 C 201.106 -1.01126 -1.6743 0
M  V30 2048 O 202.312 -1.28097 -2.39381 0
M  V30 2049 C 200.768 -3.45839 -0.996164 0
M  V30 2050 C 200.376 -4.47842 0.118926 0
M  V30 2051 C 202.12 -3.92227 -1.62352 0
M  V30 2052 C 200.027 -5.90284 -0.363192 0
M  V30 2053 H 198.957 -0.726391 -0.20217 0
M  V30 2054 H 201.608 -1.82339 0.206092 0
M  V30 2055 H 199.99 -3.53338 -1.78796 0
M  V30 2056 H 201.164 -4.52018 0.895358 0
M  V30 2057 H 199.479 -4.11243 0.653324 0
M  V30 2058 H 202.076 -4.96069 -1.99548 0
M  V30 2059 H 202.419 -3.32552 -2.50429 0
M  V30 2060 H 202.952 -3.87554 -0.897019 0
M  V30 2061 H 199.691 -6.53728 0.481679 0
M  V30 2062 H 199.211 -5.89515 -1.10597 0
M  V30 2063 H 200.89 -6.41752 -0.822377 0
M  V30 2064 N 201.022 0.148545 -1.56898 0
M  V30 2065 C 201.954 1.20852 -1.9475 0
M  V30 2066 C 202.967 1.39265 -0.843152 0
M  V30 2067 O 204.156 1.38864 -1.12156 0
M  V30 2068 C 201.256 2.57362 -2.20495 0
M  V30 2069 C 200.429 2.59947 -3.51776 0
M  V30 2070 C 199.488 3.77984 -3.6608 0
M  V30 2071 O 198.514 3.62929 -4.38487 0
M  V30 2072 N 199.716 4.95375 -3.02629 0
M  V30 2073 H 202.481 0.886804 -2.86279 0
M  V30 2074 H 200.042 0.338121 -1.5833 0
M  V30 2075 H 202.034 3.34833 -2.27307 0
M  V30 2076 H 200.604 2.81832 -1.35238 0
M  V30 2077 H 199.824 1.68403 -3.56419 0
M  V30 2078 H 201.112 2.58704 -4.38121 0
M  V30 2079 H 200.51 5.10509 -2.43715 0
M  V30 2080 H 199.067 5.70627 -3.15004 0
M  V30 2081 N 202.5 1.5196 0.417844 0
M  V30 2082 C 203.911 1.57851 0.997 0
M  V30 2083 C 204.262 0.413714 1.91789 0
M  V30 2084 O 203.387 -0.467057 2.113 0
M  V30 2085 C 203.982 2.86085 1.81496 0
M  V30 2086 C 202.541 2.94483 2.34428 0
M  V30 2087 C 201.688 2.52707 1.14169 0
M  V30 2088 H 204.639 1.57455 0.198392 0
M  V30 2089 H 204.66 2.70947 2.67148 0
M  V30 2090 H 204.172 3.70842 1.14446 0
M  V30 2091 H 202.273 2.142 3.04875 0
M  V30 2092 H 202.386 3.98546 2.65891 0
M  V30 2093 H 200.75 2.06353 1.49301 0
M  V30 2094 H 201.533 3.39828 0.486999 0
M  V30 2095 N 203.978 -0.674533 1.42435 0
M  V30 2096 C 204.908 -1.80009 1.48724 0
M  V30 2097 C 205.889 -1.6659 0.343793 0
M  V30 2098 O 207.074 -1.86007 0.558137 0
M  V30 2099 C 204.204 -3.18306 1.38919 0
M  V30 2100 C 203.158 -3.46461 2.51294 0
M  V30 2101 C 202.484 -4.84335 2.26547 0
M  V30 2102 C 203.784 -3.43328 3.93603 0
M  V30 2103 H 205.478 -1.75004 2.42928 0
M  V30 2104 H 203.024 -0.840533 1.16923 0
M  V30 2105 H 204.977 -3.9678 1.41927 0
M  V30 2106 H 203.701 -3.2399 0.412094 0
M  V30 2107 H 202.36 -2.70348 2.47604 0
M  V30 2108 H 202.008 -4.86669 1.2713 0
M  V30 2109 H 201.708 -5.04136 3.01861 0
M  V30 2110 H 203.232 -5.65094 2.31304 0
M  V30 2111 H 204.646 -4.11772 3.98894 0
M  V30 2112 H 203.043 -3.74664 4.68771 0
M  V30 2113 H 204.113 -2.41897 4.20255 0
M  V30 2114 N 205.456 -1.28612 -0.910864 0
M  V30 2115 C 206.386 -1.15326 -2.03032 0
M  V30 2116 C 207.367 -0.0502924 -1.70026 0
M  V30 2117 O 208.552 -0.227797 -1.92859 0
M  V30 2118 C 205.682 -0.817343 -3.37545 0
M  V30 2119 C 204.636 -1.8754 -3.84724 0
M  V30 2120 C 203.962 -1.39305 -5.16235 0
M  V30 2121 C 205.262 -3.28244 -4.06267 0
M  V30 2122 H 206.956 -2.08975 -2.14406 0
M  V30 2123 H 204.502 -1.00612 -1.03021 0
M  V30 2124 H 206.455 -0.711151 -4.15356 0
M  V30 2125 H 205.179 0.154846 -3.26233 0
M  V30 2126 H 203.838 -1.97079 -3.09121 0
M  V30 2127 H 203.486 -0.409846 -5.01328 0
M  V30 2128 H 203.186 -2.10057 -5.48771 0
M  V30 2129 H 204.71 -1.30014 -5.96598 0
M  V30 2130 H 206.124 -3.21611 -4.74594 0
M  V30 2131 H 204.521 -3.96855 -4.5014 0
M  V30 2132 H 205.591 -3.72048 -3.10979 0
M  V30 2133 N 206.934 1.1197 -1.10907 0
M  V30 2134 C 208.182 1.83225 -0.852819 0
M  V30 2135 C 208.503 1.84769 0.623341 0
M  V30 2136 O 207.773 1.3143 1.45269 0
M  V30 2137 H 206.353 0.67849 -0.312507 0
M  V30 2138 H 209.015 1.3556 -1.40033 0
M  V30 2139 H 208.111 2.87265 -1.22005 0
M  V30 2140 N 208.412 0.89855 1.29475 0
M  V30 2141 C 209.828 0.594483 1.48115 0
M  V30 2142 C 210.028 -0.86431 1.82022 0
M  V30 2143 O 209.084 -1.64457 1.91599 0
M  V30 2144 C 210.397 1.51932 2.59494 0
M  V30 2145 C 211.945 1.5244 2.7337 0
M  V30 2146 C 212.42 2.43548 3.87877 0
M  V30 2147 N 213.911 2.41589 3.95208 0
M  V30 2148 C 214.646 3.08789 4.83153 0
M  V30 2149 N 214.142 3.85265 5.75798 0
M  V30 2150 N 215.935 2.97952 4.76635 0
M  V30 2151 H 208.086 1.84207 1.05742 0
M  V30 2152 H 210.349 0.789251 0.525154 0
M  V30 2153 H 210.055 2.55865 2.41301 0
M  V30 2154 H 209.929 1.23899 3.56271 0
M  V30 2155 H 212.316 0.492518 2.90961 0
M  V30 2156 H 212.397 1.8451 1.77172 0
M  V30 2157 H 212.041 3.46829 3.71041 0
M  V30 2158 H 211.971 2.08788 4.83441 0
M  V30 2159 H 214.462 1.86025 3.28943 0
M  V30 2160 H 214.775 4.33598 6.39697 0
M  V30 2161 H 213.12 3.89371 5.75687 0
M  V30 2162 H 216.311 2.37723 4.03244 0
M  V30 2163 H 216.484 3.50599 5.44962 0
M  V30 2164 N 209.89 -1.43072 0.660911 0
M  V30 2165 C 211.167 -1.95307 0.107017 0
M  V30 2166 C 211.547 -1.60192 -1.37484 0
M  V30 2167 O 210.895 -0.890949 -2.10415 0
M  V30 2168 C 211.105 -3.47124 0.361402 0
M  V30 2169 C 212.453 -4.23738 0.270455 0
M  V30 2170 O 213.477 -3.54981 0.294382 0
M  V30 2171 O 212.336 -5.46131 0.200737 0
M  V30 2172 H 209.43 -0.826984 -0.00517729 0
M  V30 2173 H 211.976 -1.52972 0.734681 0
M  V30 2174 H 210.748 -3.65837 1.38848 0
M  V30 2175 H 210.371 -3.96475 -0.298953 0
M  V30 2176 N 211.368 -0.403325 -1.52352 0
M  V30 2177 C 212.316 0.439752 -2.28405 0
M  V30 2178 C 213.31 1.05089 -1.32863 0
M  V30 2179 O 214.516 0.989759 -1.50345 0
M  V30 2180 H 210.891 0.160587 -0.734653 0
M  V30 2181 H 212.862 -0.222983 -2.97566 0
M  V30 2182 C 211.611 1.54736 -3.11371 0
M  V30 2183 H 210.934 1.08643 -3.84755 0
M  V30 2184 H 212.374 2.1112 -3.67701 0
M  V30 2185 C 210.833 2.51141 -2.24566 0
M  V30 2186 O 211.363 3.54887 -1.88196 0
M  V30 2187 N 209.569 2.21213 -1.8845 0
M  V30 2188 H 209.116 1.36878 -2.18225 0
M  V30 2189 H 209.074 2.85963 -1.30662 0
M  V30 2190 N 212.846 1.57033 -0.133567 0
M  V30 2191 C 213.779 2.11824 0.848872 0
M  V30 2192 C 214.757 1.03833 1.2513 0
M  V30 2193 O 215.941 1.31579 1.34978 0
M  V30 2194 C 213.068 2.62692 2.138 0
M  V30 2195 C 212.114 3.82705 1.88253 0
M  V30 2196 S 212.947 5.2438 1.08563 0
M  V30 2197 C 214.103 5.78627 2.38624 0
M  V30 2198 H 214.336 2.94824 0.38289 0
M  V30 2199 H 211.869 1.5419 0.0804796 0
M  V30 2200 H 213.827 2.92652 2.87863 0
M  V30 2201 H 212.488 1.79847 2.57515 0
M  V30 2202 H 211.681 4.16496 2.83809 0
M  V30 2203 H 211.283 3.53437 1.22305 0
M  V30 2204 H 213.575 5.8924 3.34369 0
M  V30 2205 H 214.518 6.76443 2.09358 0
M  V30 2206 H 214.926 5.06783 2.48658 0
M  V30 2207 N 214.325 -0.140222 1.56975 0
M  V30 2208 C 215.574 -0.850152 1.82908 0
M  V30 2209 C 215.887 -1.82028 0.715892 0
M  V30 2210 O 217.093 -2.57485 0.861016 0
M  V30 2211 C 215.549 -1.5625 3.24213 0
M  V30 2212 C 215.157 -0.63443 4.43485 0
M  V30 2213 C 216.901 -2.25881 3.59413 0
M  V30 2214 C 214.808 -1.34879 5.75814 0
M  V30 2215 H 213.738 -0.321221 0.682153 0
M  V30 2216 H 216.389 -0.102874 1.83211 0
M  V30 2217 H 214.771 -2.35565 3.18316 0
M  V30 2218 H 215.945 0.12398 4.60633 0
M  V30 2219 H 214.26 -0.0461836 4.16374 0
M  V30 2220 H 216.857 -2.79978 4.5554 0
M  V30 2221 H 217.2 -3.02693 2.85802 0
M  V30 2222 H 217.733 -1.53477 3.67001 0
M  V30 2223 H 214.472 -0.622385 6.52539 0
M  V30 2224 H 213.992 -2.07974 5.6259 0
M  V30 2225 H 215.671 -1.88784 6.18845 0
M  V30 2226 N 215.803 -1.52179 -0.40978 0
M  V30 2227 C 216.75 -1.75475 -1.49924 0
M  V30 2228 C 217.72 -0.597175 -1.54994 0
M  V30 2229 O 218.905 -0.834655 -1.71575 0
M  V30 2230 C 216.045 -1.9107 -2.87378 0
M  V30 2231 C 215.158 -3.18717 -2.91622 0
M  V30 2232 C 214.293 -3.24747 -4.20372 0
M  V30 2233 C 213.332 -4.46598 -4.18588 0
M  V30 2234 N 212.469 -4.50025 -5.38908 0
M  V30 2235 H 217.309 -2.68458 -1.29361 0
M  V30 2236 H 214.846 -1.33024 -0.627934 0
M  V30 2237 H 216.804 -1.98096 -3.6717 0
M  V30 2238 H 215.434 -1.01469 -3.06437 0
M  V30 2239 H 214.486 -3.20866 -2.04326 0
M  V30 2240 H 215.798 -4.08544 -2.86169 0
M  V30 2241 H 214.952 -3.30841 -5.08556 0
M  V30 2242 H 213.691 -2.32857 -4.28519 0
M  V30 2243 H 212.696 -4.40652 -3.28794 0
M  V30 2244 H 213.921 -5.39783 -4.12081 0
M  V30 2245 H 211.867 -3.61017 -5.47725 0
M  V30 2246 H 211.784 -5.33697 -5.35447 0
M  V30 2247 H 213.052 -4.60347 -6.29048 0
M  V30 2248 N 217.281 0.66697 -1.42791 0
M  V30 2249 C 218.528 1.42699 -1.43678 0
M  V30 2250 C 218.856 1.94419 -0.0560425 0
M  V30 2251 O 218.111 1.7182 0.936831 0
M  V30 2252 C 218.41 2.6349 -2.4147 0
M  V30 2253 C 218.076 2.30267 -3.8767 0
M  V30 2254 C 216.738 2.20918 -4.27491 0
M  V30 2255 C 219.09 2.03435 -4.79858 0
M  V30 2256 C 216.418 1.82873 -5.57471 0
M  V30 2257 C 218.77 1.66892 -6.10188 0
M  V30 2258 C 217.434 1.56058 -6.49001 0
M  V30 2259 H 216.704 0.522171 -0.525755 0
M  V30 2260 H 219.351 0.759785 -1.75783 0
M  V30 2261 H 217.656 3.35279 -2.0272 0
M  V30 2262 H 219.353 3.21684 -2.39417 0
M  V30 2263 H 215.943 2.38449 -3.56146 0
M  V30 2264 H 220.127 2.09586 -4.49875 0
M  V30 2265 H 215.383 1.7306 -5.86396 0
M  V30 2266 H 219.557 1.45157 -6.81104 0
M  V30 2267 H 217.184 1.26348 -7.49627 0
M  V30 2268 N 218.759 1.29093 0.90403 0
M  V30 2269 C 219.707 1.13727 2.02901 0
M  V30 2270 C 220.701 0.0539853 1.69314 0
M  V30 2271 O 221.907 0.213469 1.7873 0
M  V30 2272 H 218.282 0.35117 0.664969 0
M  V30 2273 H 220.253 2.08982 2.13001 0
M  V30 2274 C 219.002 0.826066 3.37745 0
M  V30 2275 H 218.325 1.65164 3.64089 0
M  V30 2276 H 219.765 0.758559 4.17159 0
M  V30 2277 C 218.224 -0.470541 3.33598 0
M  V30 2278 O 218.754 -1.49792 3.72727 0
M  V30 2279 N 216.96 -0.474812 2.86695 0
M  V30 2280 H 216.507 0.361692 2.55048 0
M  V30 2281 H 216.465 -1.34236 2.84303 0
M  V30 2282 N 220.237 -1.11381 1.11499 0
M  V30 2283 C 221.486 -1.82494 0.858993 0
M  V30 2284 C 221.799 -1.85605 -0.617278 0
M  V30 2285 O 223.005 -2.52824 -0.989552 0
M  V30 2286 C 221.461 -3.27745 1.48699 0
M  V30 2287 C 221.069 -3.32961 2.99735 0
M  V30 2288 C 222.813 -4.03754 1.31085 0
M  V30 2289 C 220.72 -4.72612 3.55516 0
M  V30 2290 H 219.65 -0.683802 0.317696 0
M  V30 2291 H 222.301 -1.25331 1.34031 0
M  V30 2292 H 220.683 -3.84844 0.933339 0
M  V30 2293 H 221.857 -2.85741 3.61509 0
M  V30 2294 H 220.172 -2.70433 3.16631 0
M  V30 2295 H 222.769 -5.06891 1.70192 0
M  V30 2296 H 223.112 -4.15527 0.253496 0
M  V30 2297 H 223.645 -3.53043 1.83318 0
M  V30 2298 H 220.384 -4.66036 4.60967 0
M  V30 2299 H 219.904 -5.2024 2.98513 0
M  V30 2300 H 221.583 -5.4157 3.53992 0
M  V30 2301 N 221.715 -0.905404 -1.28997 0
M  V30 2302 C 223.131 -0.60233 -1.47798 0
M  V30 2303 C 223.331 0.854645 -1.82478 0
M  V30 2304 O 222.387 1.63439 -1.92468 0
M  V30 2305 C 223.7 -1.53306 -2.58685 0
M  V30 2306 C 225.248 -1.53887 -2.72558 0
M  V30 2307 C 225.723 -2.45602 -3.86579 0
M  V30 2308 N 227.214 -2.43681 -3.93921 0
M  V30 2309 C 227.949 -3.11347 -4.81509 0
M  V30 2310 N 227.445 -3.88313 -5.73746 0
M  V30 2311 N 229.238 -3.00476 -4.75048 0
M  V30 2312 H 221.389 -1.84765 -1.04764 0
M  V30 2313 H 223.652 -0.792025 -0.520961 0
M  V30 2314 H 223.358 -2.57141 -2.39941 0
M  V30 2315 H 223.232 -1.25787 -3.55609 0
M  V30 2316 H 225.619 -0.507941 -2.90696 0
M  V30 2317 H 225.7 -1.85447 -1.76191 0
M  V30 2318 H 225.344 -3.48792 -3.69197 0
M  V30 2319 H 225.274 -2.11349 -4.82327 0
M  V30 2320 H 227.765 -1.87767 -3.27951 0
M  V30 2321 H 228.078 -4.36985 -6.37389 0
M  V30 2322 H 226.423 -3.92419 -5.73614 0
M  V30 2323 H 229.614 -2.39858 -4.01977 0
M  V30 2324 H 229.787 -3.53485 -5.43095 0
M  V30 2325 N 223.193 1.4272 -0.668489 0
M  V30 2326 C 224.123 2.335 -0.000100175 0
M  V30 2327 C 225.104 1.50328 0.795964 0
M  V30 2328 O 226.289 1.78949 0.754385 0
M  V30 2329 C 223.419 3.33874 0.956302 0
M  V30 2330 C 222.373 4.27152 0.269278 0
M  V30 2331 C 221.699 5.17684 1.33818 0
M  V30 2332 C 222.999 5.15373 -0.847805 0
M  V30 2333 H 224.693 2.89639 -0.758244 0
M  V30 2334 H 222.239 1.39269 -0.366079 0
M  V30 2335 H 224.192 3.9629 1.43292 0
M  V30 2336 H 222.916 2.76025 1.74579 0
M  V30 2337 H 221.575 3.66123 -0.187042 0
M  V30 2338 H 221.223 4.56165 2.1195 0
M  V30 2339 H 220.923 5.80918 0.883659 0
M  V30 2340 H 222.447 5.82974 1.81586 0
M  V30 2341 H 223.861 5.7151 -0.452681 0
M  V30 2342 H 222.258 5.87407 -1.22773 0
M  V30 2343 H 223.328 4.5415 -1.69929 0
M  V30 2344 N 224.671 0.411399 1.52136 0
M  V30 2345 C 225.917 -0.163888 2.02137 0
M  V30 2346 C 226.25 -1.44597 1.29636 0
M  V30 2347 O 225.525 -1.90272 0.403353 0
M  V30 2348 C 225.808 -0.40927 3.57767 0
M  V30 2349 C 225.661 0.889643 4.40914 0
M  V30 2350 C 226.98 -1.19042 4.23694 0
M  V30 2351 H 224.099 -0.0580896 0.734707 0
M  V30 2352 H 226.741 0.54531 1.82007 0
M  V30 2353 H 224.891 -1.0134 3.7505 0
M  V30 2354 H 226.563 1.52575 4.35337 0
M  V30 2355 H 224.806 1.50011 4.07037 0
M  V30 2356 H 225.477 0.672314 5.4789 0
M  V30 2357 H 227.953 -0.678942 4.10524 0
M  V30 2358 H 226.829 -1.33086 5.32522 0
M  V30 2359 H 227.09 -2.21166 3.82803 0
M  V30 2360 N 226.149 -1.5696 0.141893 0
M  V30 2361 C 227.082 -2.12271 -0.837627 0
M  V30 2362 C 228.06 -1.04495 -1.24578 0
M  V30 2363 O 229.244 -1.32293 -1.34278 0
M  V30 2364 C 226.371 -2.63822 -2.12404 0
M  V30 2365 C 225.417 -3.83698 -1.86221 0
M  V30 2366 S 226.25 -5.24948 -1.05781 0
M  V30 2367 C 227.406 -5.79884 -2.35552 0
M  V30 2368 H 227.639 -2.95023 -0.367249 0
M  V30 2369 H 225.172 -1.54231 -0.0723014 0
M  V30 2370 H 227.13 -2.94175 -2.86307 0
M  V30 2371 H 225.791 -1.8121 -2.56557 0
M  V30 2372 H 224.984 -4.17995 -2.81596 0
M  V30 2373 H 224.586 -3.5408 -1.20429 0
M  V30 2374 H 226.878 -5.91005 -3.31239 0
M  V30 2375 H 227.821 -6.77544 -2.05767 0
M  V30 2376 H 228.229 -5.08095 -2.45967 0
M  V30 2377 N 227.627 0.131896 -1.57047 0
M  V30 2378 C 228.59 1.14638 -1.98471 0
M  V30 2379 C 229.59 1.35029 -0.873148 0
M  V30 2380 O 230.78 1.31764 -1.13946 0
M  V30 2381 C 227.912 2.50358 -2.31373 0
M  V30 2382 H 229.105 0.79064 -2.8929 0
M  V30 2383 H 226.658 0.375761 -1.51716 0
M  V30 2384 H 227.393 2.90876 -1.43393 0
M  V30 2385 H 227.178 2.36915 -3.12432 0
M  V30 2386 H 228.668 3.23395 -2.64207 0
M  V30 2387 N 229.106 1.52395 0.401703 0
M  V30 2388 C 230.038 1.72505 1.50912 0
M  V30 2389 C 231.051 0.605468 1.51122 0
M  V30 2390 O 232.24 0.880828 1.55254 0
M  V30 2391 C 229.34 1.75711 2.89791 0
M  V30 2392 C 228.513 3.04824 3.1369 0
M  V30 2393 C 227.572 2.99743 4.32482 0
M  V30 2394 O 226.598 3.73635 4.29402 0
M  V30 2395 N 227.8 2.18047 5.37992 0
M  V30 2396 H 230.565 2.68049 1.34052 0
M  V30 2397 H 228.126 1.50724 0.591084 0
M  V30 2398 H 230.118 1.69834 3.6734 0
M  V30 2399 H 228.688 0.876092 3.00072 0
M  V30 2400 H 227.908 3.2429 2.24119 0
M  V30 2401 H 229.196 3.90221 3.26504 0
M  V30 2402 H 228.594 1.57456 5.43345 0
M  V30 2403 H 227.151 2.18021 6.14256 0
M  V30 2404 N 230.584 -0.659388 1.43143 0
M  V30 2405 C 231.833 -1.41518 1.43721 0
M  V30 2406 C 232.146 -1.95499 0.0628176 0
M  V30 2407 O 233.352 -2.71446 -0.0539683 0
M  V30 2408 C 231.808 -2.5608 2.52885 0
M  V30 2409 C 231.416 -2.08733 3.96402 0
M  V30 2410 C 233.16 -3.3349 2.62649 0
M  V30 2411 C 231.067 -3.20469 4.97045 0
M  V30 2412 H 229.997 -0.531705 0.534608 0
M  V30 2413 H 232.648 -0.712343 1.69109 0
M  V30 2414 H 231.03 -3.28805 2.20688 0
M  V30 2415 H 232.204 -1.43059 4.3803 0
M  V30 2416 H 230.519 -1.44219 3.90627 0
M  V30 2417 H 233.116 -4.16734 3.35017 0
M  V30 2418 H 233.459 -3.8111 1.67513 0
M  V30 2419 H 233.992 -2.67842 2.94118 0
M  V30 2420 H 230.731 -2.77824 5.93712 0
M  V30 2421 H 230.251 -3.84874 4.60034 0
M  V30 2422 H 231.93 -3.85698 5.19467 0
M  V30 2423 N 232.062 -1.29571 -0.897171 0
M  V30 2424 C 233.287 -1.20705 -1.68656 0
M  V30 2425 C 233.712 0.228582 -1.86706 0
M  V30 2426 O 233.07 1.16494 -1.3892 0
M  V30 2427 C 233.118 -1.9282 -3.04717 0
M  V30 2428 O 232.222 -1.24697 -3.93096 0
M  V30 2429 H 231.563 -0.418126 -0.515816 0
M  V30 2430 H 234.093 -1.71183 -1.12061 0
M  V30 2431 H 234.103 -2.01372 -3.54843 0
M  V30 2432 H 232.778 -2.97239 -2.90899 0
M  V30 2433 H 231.355 -1.2442 -3.51531 0
M  V30 2434 N 233.54 1.10788 -1.12088 0
M  V30 2435 C 234.817 1.79136 -0.785476 0
M  V30 2436 C 235.197 1.98246 0.725377 0
M  V30 2437 O 234.545 1.57258 1.65778 0
M  V30 2438 C 234.755 3.12375 -1.55636 0
M  V30 2439 C 236.103 3.8731 -1.74001 0
M  V30 2440 O 237.127 3.22085 -1.52117 0
M  V30 2441 O 235.986 5.04369 -2.10415 0
M  V30 2442 H 233.08 0.776226 -0.285311 0
M  V30 2443 H 235.626 1.1747 -1.2247 0
M  V30 2444 H 234.398 2.93863 -2.5838 0
M  V30 2445 H 234.021 3.81758 -1.11114 0
M  V30 2446 N 235.018 0.912232 1.28515 0
M  V30 2447 C 235.965 0.397954 2.27343 0
M  V30 2448 C 236.935 -0.526766 1.57526 0
M  V30 2449 O 238.12 -0.449292 1.85435 0
M  V30 2450 C 235.26 -0.357263 3.43246 0
M  V30 2451 C 234.373 0.599788 4.27816 0
M  V30 2452 C 233.508 -0.173725 5.30916 0
M  V30 2453 C 232.547 0.777039 6.07148 0
M  V30 2454 N 231.684 0.0371398 7.0209 0
M  V30 2455 H 236.524 1.24577 2.70711 0
M  V30 2456 H 234.061 0.625612 1.33133 0
M  V30 2457 H 236.019 -0.8113 4.09236 0
M  V30 2458 H 234.649 -1.16943 3.00872 0
M  V30 2459 H 233.701 1.17235 3.61884 0
M  V30 2460 H 235.013 1.32704 4.80823 0
M  V30 2461 H 234.167 -0.688394 6.02782 0
M  V30 2462 H 232.906 -0.934041 4.78672 0
M  V30 2463 H 231.911 1.3031 5.34134 0
M  V30 2464 H 233.136 1.53689 6.61481 0
M  V30 2465 H 231.082 -0.705213 6.52198 0
M  V30 2466 H 230.999 0.704249 7.52713 0
M  V30 2467 H 232.267 -0.457383 7.78157 0
M  V30 2468 N 236.496 -1.42363 0.676048 0
M  V30 2469 C 237.745 -2.00745 0.196037 0
M  V30 2470 C 238.058 -1.54083 -1.20489 0
M  V30 2471 O 239.264 -2.04891 -1.78134 0
M  V30 2472 C 237.72 -3.58651 0.299616 0
M  V30 2473 C 237.328 -4.143 1.70468 0
M  V30 2474 C 239.072 -4.24326 -0.121619 0
M  V30 2475 C 236.979 -5.64574 1.76096 0
M  V30 2476 H 235.909 -0.750787 0.0695301 0
M  V30 2477 H 238.56 -1.63072 0.841412 0
M  V30 2478 H 236.942 -3.93833 -0.413673 0
M  V30 2479 H 238.116 -3.90575 2.44515 0
M  V30 2480 H 236.431 -3.61081 2.07387 0
M  V30 2481 H 239.028 -5.34607 -0.0997362 0
M  V30 2482 H 239.371 -3.99897 -1.15708 0
M  V30 2483 H 239.904 -3.94108 0.540706 0
M  V30 2484 H 236.643 -5.93804 2.77628 0
M  V30 2485 H 236.163 -5.90286 1.06406 0
M  V30 2486 H 237.842 -6.29013 1.51496 0
M  V30 2487 N 237.974 -0.419461 -1.51915 0
M  V30 2488 C 239.385 0.0477853 -1.86639 0
M  V30 2489 C 239.736 1.43531 -1.33766 0
M  V30 2490 O 238.861 2.05401 -0.68113 0
M  V30 2491 C 239.456 0.0934885 -3.38671 0
M  V30 2492 C 238.015 0.505097 -3.72996 0
M  V30 2493 C 237.162 -0.313792 -2.75519 0
M  V30 2494 H 240.113 -0.636088 -1.45395 0
M  V30 2495 H 240.134 0.906667 -3.6954 0
M  V30 2496 H 239.646 -0.916501 -3.77123 0
M  V30 2497 H 237.747 1.52135 -3.40126 0
M  V30 2498 H 237.86 0.242309 -4.78487 0
M  V30 2499 H 236.224 0.225363 -2.53701 0
M  V30 2500 H 237.007 -1.32232 -3.16812 0
M  V30 2501 N 239.452 1.56882 -0.150215 0
M  V30 2502 C 240.698 1.96518 0.500834 0
M  V30 2503 C 241.031 1.03527 1.64304 0
M  V30 2504 O 240.306 0.0782751 1.94342 0
M  V30 2505 C 240.589 3.45822 1.00395 0
M  V30 2506 C 240.442 4.49591 -0.136983 0
M  V30 2507 C 241.761 3.97704 1.88467 0
M  V30 2508 H 238.88 0.714535 0.18058 0
M  V30 2509 H 241.522 1.88577 -0.232091 0
M  V30 2510 H 239.672 3.5272 1.62851 0
M  V30 2511 H 241.344 4.5477 -0.77343 0
M  V30 2512 H 239.587 4.26441 -0.795652 0
M  V30 2513 H 240.258 5.51402 0.256815 0
M  V30 2514 H 242.734 3.93304 1.35834 0
M  V30 2515 H 241.61 5.0263 2.20578 0
M  V30 2516 H 241.871 3.40252 2.82279 0
M  V30 2517 N 240.93 -0.123565 1.57115 0
M  V30 2518 C 242.176 -0.833386 1.84885 0
M  V30 2519 C 242.509 -1.79742 0.735292 0
M  V30 2520 O 241.784 -1.92764 -0.25925 0
M  V30 2521 C 242.067 -1.5873 3.23228 0
M  V30 2522 C 241.92 -0.643183 4.45178 0
M  V30 2523 C 243.239 -2.54453 3.59085 0
M  V30 2524 H 240.358 -0.301518 0.6725 0
M  V30 2525 H 243 -0.097778 1.89748 0
M  V30 2526 H 241.15 -2.21438 3.19214 0
M  V30 2527 H 242.822 -0.0253015 4.61293 0
M  V30 2528 H 241.065 0.0456139 4.33776 0
M  V30 2529 H 241.736 -1.20724 5.38637 0
M  V30 2530 H 244.212 -2.01853 3.63861 0
M  V30 2531 H 243.088 -3.04238 4.5687 0
M  V30 2532 H 243.349 -3.36906 2.86264 0
M  V30 2533 N 242.408 -1.52605 -0.393616 0
M  V30 2534 C 243.355 -1.77055 -1.48054 0
M  V30 2535 C 244.325 -0.61358 -1.54352 0
M  V30 2536 O 245.51 -0.852806 -1.70681 0
M  V30 2537 C 242.65 -1.94108 -2.85335 0
M  V30 2538 C 241.763 -3.21792 -2.88226 0
M  V30 2539 C 240.898 -3.29188 -4.16904 0
M  V30 2540 C 239.937 -4.51013 -4.13828 0
M  V30 2541 N 239.074 -4.55716 -5.34105 0
M  V30 2542 H 243.914 -2.69815 -1.26506 0
M  V30 2543 H 241.451 -1.33683 -0.61379 0
M  V30 2544 H 243.409 -2.01979 -3.65049 0
M  V30 2545 H 242.039 -1.04713 -3.05344 0
M  V30 2546 H 241.091 -3.23015 -2.00911 0
M  V30 2547 H 242.403 -4.11557 -2.8182 0
M  V30 2548 H 241.557 -3.36216 -5.05018 0
M  V30 2549 H 240.296 -2.37389 -4.26026 0
M  V30 2550 H 239.301 -4.44115 -3.24102 0
M  V30 2551 H 240.526 -5.44123 -4.06333 0
M  V30 2552 H 238.472 -3.66807 -5.43865 0
M  V30 2553 H 238.389 -5.39346 -5.29756 0
M  V30 2554 H 239.657 -4.66993 -6.2413 0
M  V30 2555 N 243.887 0.651787 -1.4349 0
M  V30 2556 C 245.133 1.41376 -1.45398 0
M  V30 2557 C 245.466 1.94041 -0.0784823 0
M  V30 2558 O 244.741 1.72379 0.900878 0
M  V30 2559 C 245.024 2.59414 -2.49752 0
M  V30 2560 C 244.877 2.12232 -3.96582 0
M  V30 2561 C 246.196 3.61626 -2.50827 0
M  V30 2562 H 243.315 0.512719 -0.529422 0
M  V30 2563 H 245.957 0.738796 -1.75048 0
M  V30 2564 H 244.107 3.16997 -2.246 0
M  V30 2565 H 245.779 1.59639 -4.32797 0
M  V30 2566 H 244.022 1.43592 -4.09346 0
M  V30 2567 H 244.693 2.9712 -4.65214 0
M  V30 2568 H 247.169 3.13805 -2.7325 0
M  V30 2569 H 246.045 4.41766 -3.25783 0
M  V30 2570 H 246.306 4.14314 -1.5426 0
M  V30 2571 N 245.365 1.30045 0.890287 0
M  V30 2572 C 246.312 1.15976 1.99545 0
M  V30 2573 C 247.282 0.0506202 1.66023 0
M  V30 2574 O 248.467 0.219847 1.89529 0
M  V30 2575 C 245.607 0.852054 3.34416 0
M  V30 2576 C 244.72 2.04255 3.80662 0
M  V30 2577 C 243.855 1.6734 5.04154 0
M  V30 2578 C 242.894 2.82916 5.42794 0
M  V30 2579 N 242.031 2.46333 6.57468 0
M  V30 2580 H 246.871 2.10524 2.10911 0
M  V30 2581 H 244.408 1.04749 1.03276 0
M  V30 2582 H 246.366 0.654296 4.12037 0
M  V30 2583 H 244.996 -0.0565502 3.2275 0
M  V30 2584 H 244.048 2.35172 2.98995 0
M  V30 2585 H 245.36 2.90826 4.05242 0
M  V30 2586 H 244.514 1.43908 5.89386 0
M  V30 2587 H 243.253 0.779308 4.81433 0
M  V30 2588 H 242.258 3.0702 4.56091 0
M  V30 2589 H 243.483 3.73004 5.6749 0
M  V30 2590 H 241.429 1.59423 6.36334 0
M  V30 2591 H 241.346 3.26436 6.81891 0
M  V30 2592 H 242.614 2.26244 7.45945 0
M  V30 2593 N 246.843 -1.10192 1.12674 0
M  V30 2594 C 247.776 -2.15847 0.740625 0
M  V30 2595 C 248.754 -1.60352 -0.269421 0
M  V30 2596 O 249.938 -1.87796 -0.16278 0
M  V30 2597 C 247.065 -3.38562 0.096641 0
M  V30 2598 C 246.111 -4.12758 1.07391 0
M  V30 2599 S 246.944 -4.67997 2.60267 0
M  V30 2600 C 248.1 -5.94021 1.97206 0
M  V30 2601 H 248.333 -2.48266 1.63558 0
M  V30 2602 H 245.866 -1.22019 0.946087 0
M  V30 2603 H 247.824 -4.09621 -0.268535 0
M  V30 2604 H 246.485 -3.04377 -0.775462 0
M  V30 2605 H 245.678 -5.00755 0.570997 0
M  V30 2606 H 245.28 -3.47523 1.38216 0
M  V30 2607 H 247.572 -6.64589 1.31634 0
M  V30 2608 H 248.515 -6.48979 2.83253 0
M  V30 2609 H 248.923 -5.46169 1.42686 0
M  V30 2610 N 248.321 -0.919034 -1.28029 0
M  V30 2611 C 249.268 -0.410005 -2.27129 0
M  V30 2612 C 250.238 0.518405 -1.57803 0
M  V30 2613 O 251.423 0.439451 -1.8567 0
M  V30 2614 C 248.563 0.339054 -3.4343 0
M  V30 2615 C 247.676 -0.622468 -4.27492 0
M  V30 2616 C 246.811 0.145567 -5.31001 0
M  V30 2617 C 245.85 -0.809226 -6.06727 0
M  V30 2618 N 244.987 -0.0743728 -7.02061 0
M  V30 2619 H 249.827 -1.26011 -2.70047 0
M  V30 2620 H 247.364 -0.632663 -1.328 0
M  V30 2621 H 249.322 0.789586 -4.0966 0
M  V30 2622 H 247.952 1.15346 -3.01488 0
M  V30 2623 H 247.004 -1.19153 -3.61257 0
M  V30 2624 H 248.316 -1.35252 -4.80113 0
M  V30 2625 H 247.47 0.656417 -6.03139 0
M  V30 2626 H 246.209 0.908643 -4.79161 0
M  V30 2627 H 245.214 -1.3314 -5.33436 0
M  V30 2628 H 246.439 -1.57194 -6.60656 0
M  V30 2629 H 244.385 0.670616 -6.52563 0
M  V30 2630 H 244.302 -0.744157 -7.52329 0
M  V30 2631 H 245.57 0.416109 -7.78389 0
M  V30 2632 N 249.799 1.42003 -0.683588 0
M  V30 2633 C 251.076 1.95112 -0.138075 0
M  V30 2634 C 251.456 1.62359 1.34918 0
M  V30 2635 O 250.804 0.924311 2.08971 0
M  V30 2636 C 251.014 3.46505 -0.416581 0
M  V30 2637 C 252.362 4.23254 -0.337834 0
M  V30 2638 O 253.386 3.54468 -0.35082 0
M  V30 2639 O 252.245 5.45743 -0.287596 0
M  V30 2640 H 249.339 0.826961 -0.00797996 0
M  V30 2641 H 251.885 1.51784 -0.758924 0
M  V30 2642 H 250.657 3.63582 -1.4465 0
M  V30 2643 H 250.28 3.969 0.235839 0
M  V30 2644 N 251.277 0.427512 1.51691 0
M  V30 2645 C 252.688 -0.0378867 1.86662 0
M  V30 2646 C 253.039 -1.42819 1.34525 0
M  V30 2647 O 252.164 -2.05037 0.692014 0
M  V30 2648 C 252.759 -0.0755266 3.38716 0
M  V30 2649 C 251.318 -0.485309 3.73258 0
M  V30 2650 C 250.465 0.328399 2.75349 0
M  V30 2651 H 253.416 0.64379 1.45055 0
M  V30 2652 H 253.437 -0.887056 3.70016 0
M  V30 2653 H 252.949 0.936487 3.76632 0
M  V30 2654 H 251.05 -1.50329 3.40928 0
M  V30 2655 H 251.163 -0.21693 4.78609 0
M  V30 2656 H 249.527 -0.211905 2.53817 0
M  V30 2657 H 250.31 1.3391 3.16106 0
M  V30 2658 N 252.755 -1.56801 0.158532 0
M  V30 2659 C 253.703 -2.18638 -0.793729 0
M  V30 2660 C 254.697 -1.14669 -1.24689 0
M  V30 2661 O 255.903 -1.32895 -1.21403 0
M  V30 2662 H 252.278 -0.700226 -0.274204 0
M  V30 2663 H 254.249 -2.97367 -0.248095 0
M  V30 2664 C 252.998 -2.83139 -2.0181 0
M  V30 2665 H 252.321 -3.62863 -1.67841 0
M  V30 2666 H 253.761 -3.29894 -2.66357 0
M  V30 2667 C 252.22 -1.82244 -2.83353 0
M  V30 2668 O 252.75 -1.3 -3.80083 0
M  V30 2669 N 250.956 -1.51288 -2.48114 0
M  V30 2670 H 250.503 -1.93964 -1.69516 0
M  V30 2671 H 250.461 -0.840296 -3.02963 0
M  V30 2672 N 254.233 0.115231 -1.57178 0
M  V30 2673 C 255.18 1.14115 -2.00615 0
M  V30 2674 C 256.15 1.40939 -0.878941 0
M  V30 2675 O 257.335 1.52741 -1.14345 0
M  V30 2676 C 254.475 2.46156 -2.4187 0
M  V30 2677 C 253.588 2.26236 -3.68024 0
M  V30 2678 C 252.723 3.51534 -3.98243 0
M  V30 2679 C 251.762 3.26787 -5.17568 0
M  V30 2680 N 250.899 4.44298 -5.43639 0
M  V30 2681 H 255.739 0.763743 -2.88047 0
M  V30 2682 H 253.276 0.365615 -1.42484 0
M  V30 2683 H 255.234 3.23189 -2.63827 0
M  V30 2684 H 253.864 2.81783 -1.57475 0
M  V30 2685 H 252.916 1.40102 -3.5366 0
M  V30 2686 H 254.228 2.03929 -4.55208 0
M  V30 2687 H 253.382 4.36984 -4.20868 0
M  V30 2688 H 252.121 3.76876 -3.09541 0
M  V30 2689 H 251.126 2.39729 -4.94783 0
M  V30 2690 H 252.351 3.02812 -6.0785 0
M  V30 2691 H 250.297 4.69754 -4.57895 0
M  V30 2692 H 250.214 4.25109 -6.25154 0
M  V30 2693 H 251.482 5.3087 -5.70786 0
M  V30 2694 N 255.711 1.52812 0.385517 0
M  V30 2695 C 256.959 1.67694 1.12797 0
M  V30 2696 C 257.28 0.421115 1.90399 0
M  V30 2697 O 256.55 -0.564551 1.87589 0
M  V30 2698 H 255.13 0.618155 0.419396 0
M  V30 2699 H 257.792 1.89938 0.436972 0
M  V30 2700 H 256.888 2.52896 1.82894 0
M  V30 2701 N 257.189 -0.644168 1.43834 0
M  V30 2702 C 258.6 -1.22554 1.40845 0
M  V30 2703 C 258.951 -1.9585 0.117115 0
M  V30 2704 O 258.076 -2.01734 -0.783086 0
M  V30 2705 C 258.671 -2.22907 2.55143 0
M  V30 2706 C 257.23 -2.76501 2.5539 0
M  V30 2707 C 256.377 -1.51287 2.32396 0
M  V30 2708 H 259.328 -0.43563 1.52604 0
M  V30 2709 H 259.349 -3.05259 2.2715 0
M  V30 2710 H 258.861 -1.69533 3.49114 0
M  V30 2711 H 256.962 -3.33914 1.65324 0
M  V30 2712 H 257.075 -3.23429 3.53455 0
M  V30 2713 H 255.439 -1.78957 1.81236 0
M  V30 2714 H 256.222 -0.998336 3.28463 0
M  V30 2715 N 258.668 -1.30515 -0.883378 0
M  V30 2716 C 259.6 -1.12846 -1.99496 0
M  V30 2717 C 260.613 -0.0712571 -1.62644 0
M  V30 2718 O 261.802 -0.317432 -1.75655 0
M  V30 2719 C 258.902 -0.699123 -3.3161 0
M  V30 2720 C 258.075 -1.83842 -3.96889 0
M  V30 2721 C 257.134 -1.39737 -5.07307 0
M  V30 2722 O 256.16 -2.10485 -5.28852 0
M  V30 2723 N 257.362 -0.277279 -5.79837 0
M  V30 2724 H 260.127 -2.08585 -2.15203 0
M  V30 2725 H 257.688 -1.22672 -1.05656 0
M  V30 2726 H 259.68 -0.387044 -4.02845 0
M  V30 2727 H 258.25 0.166276 -3.12157 0
M  V30 2728 H 257.47 -2.31853 -3.18807 0
M  V30 2729 H 258.758 -2.60187 -4.37241 0
M  V30 2730 H 258.156 0.3122 -5.64838 0
M  V30 2731 H 256.713 -0.0246623 -6.51795 0
M  V30 2732 N 260.146 1.09593 -1.13257 0
M  V30 2733 C 261.395 1.81105 -0.887917 0
M  V30 2734 C 261.708 1.86563 0.587672 0
M  V30 2735 O 262.914 2.54367 0.949204 0
M  V30 2736 C 261.37 3.25338 -1.53895 0
M  V30 2737 C 260.978 3.28151 -3.04994 0
M  V30 2738 C 262.722 4.01617 -1.37492 0
M  V30 2739 C 260.629 4.66897 -3.6299 0
M  V30 2740 H 259.559 0.678661 -0.328534 0
M  V30 2741 H 262.21 1.23183 -1.36008 0
M  V30 2742 H 260.592 3.8331 -0.994446 0
M  V30 2743 H 261.766 2.79953 -3.66009 0
M  V30 2744 H 260.081 2.65361 -3.20893 0
M  V30 2745 H 262.678 5.04119 -1.78235 0
M  V30 2746 H 263.021 4.15072 -0.31957 0
M  V30 2747 H 263.554 3.50082 -1.88912 0
M  V30 2748 H 260.293 4.58643 -4.68323 0
M  V30 2749 H 259.813 5.15426 -3.06752 0
M  V30 2750 H 261.492 5.3587 -3.62563 0
M  V30 2751 N 261.624 0.925811 1.2754 0
M  V30 2752 C 262.571 0.422045 2.26908 0
M  V30 2753 C 263.541 -0.510029 1.58076 0
M  V30 2754 O 264.726 -0.429599 1.85901 0
M  V30 2755 C 261.866 -0.320837 3.43605 0
M  V30 2756 C 260.979 0.64513 4.27156 0
M  V30 2757 C 260.114 -0.117405 5.3107 0
M  V30 2758 C 259.153 0.841391 6.0629 0
M  V30 2759 N 258.29 0.111604 7.02011 0
M  V30 2760 H 263.13 1.27441 2.69375 0
M  V30 2761 H 260.667 0.639697 1.32462 0
M  V30 2762 H 262.625 -0.76785 4.10073 0
M  V30 2763 H 261.255 -1.13745 3.02096 0
M  V30 2764 H 260.307 1.21067 3.6062 0
M  V30 2765 H 261.619 1.37797 4.79389 0
M  V30 2766 H 260.773 -0.624422 6.03478 0
M  V30 2767 H 259.512 -0.883219 4.79636 0
M  V30 2768 H 258.517 1.35967 5.32722 0
M  V30 2769 H 259.742 1.60696 6.59813 0
M  V30 2770 H 257.688 -0.635999 6.5291 0
M  V30 2771 H 257.605 0.784044 7.51923 0
M  V30 2772 H 258.873 -0.374823 7.78598 0
M  V30 2773 N 263.102 -1.41638 0.69111 0
M  V30 2774 C 264.034 -2.29194 -0.0161523 0
M  V30 2775 C 265.047 -1.44549 -0.748955 0
M  V30 2776 O 266.236 -1.681 -0.6004 0
M  V30 2777 C 263.336 -3.22325 -1.0469 0
M  V30 2778 C 262.509 -4.35706 -0.384621 0
M  V30 2779 C 261.568 -5.09443 -1.31737 0
M  V30 2780 O 260.594 -5.63386 -0.811451 0
M  V30 2781 N 261.796 -5.16487 -2.64993 0
M  V30 2782 H 264.561 -2.90534 0.735523 0
M  V30 2783 H 262.122 -1.52742 0.53679 0
M  V30 2784 H 264.114 -3.68522 -1.67252 0
M  V30 2785 H 262.684 -2.62323 -1.70015 0
M  V30 2786 H 261.904 -3.91948 0.420804 0
M  V30 2787 H 263.192 -5.08743 0.0760765 0
M  V30 2788 H 262.59 -4.741 -3.08619 0
M  V30 2789 H 261.147 -5.66276 -3.22761 0
M  V30 2790 N 264.58 -0.43555 -1.51462 0
M  V30 2791 C 265.826 0.123979 -2.03022 0
M  V30 2792 C 266.181 1.4054 -1.31401 0
M  V30 2793 O 265.474 1.86948 -0.419634 0
M  V30 2794 C 265.668 0.39942 -3.55161 0
M  V30 2795 C 265.497 -0.853754 -4.41521 0
M  V30 2796 C 264.267 -1.38675 -4.85898 0
M  V30 2797 C 266.465 -1.73939 -4.83994 0
M  V30 2798 N 264.447 -2.59265 -5.56466 0
M  V30 2799 C 265.818 -2.79135 -5.5361 0
M  V30 2800 C 267.873 -1.75402 -4.65981 0
M  V30 2801 C 266.576 -3.85737 -6.07124 0
M  V30 2802 C 268.602 -2.80938 -5.20411 0
M  V30 2803 C 267.964 -3.84854 -5.89972 0
M  V30 2804 H 264.063 0.00624887 -0.781975 0
M  V30 2805 H 266.647 -0.59582 -1.85359 0
M  V30 2806 H 264.818 1.08825 -3.72843 0
M  V30 2807 H 266.55 0.95015 -3.93388 0
M  V30 2808 H 263.305 -0.94094 -4.64159 0
M  V30 2809 H 263.729 -3.2041 -5.96378 0
M  V30 2810 H 268.371 -0.963926 -4.11665 0
M  V30 2811 H 266.089 -4.65586 -6.60496 0
M  V30 2812 H 269.675 -2.8301 -5.08327 0
M  V30 2813 H 268.555 -4.65176 -6.31333 0
M  V30 2814 N 266.058 1.56714 -0.166846 0
M  V30 2815 C 267.469 1.83378 0.350646 0
M  V30 2816 C 267.82 1.08646 1.63372 0
M  V30 2817 O 266.945 0.338058 2.13743 0
M  V30 2818 C 267.54 3.32643 0.642963 0
M  V30 2819 C 266.099 3.59818 1.10491 0
M  V30 2820 C 265.246 2.76954 0.138411 0
M  V30 2821 H 268.197 1.53803 -0.391193 0
M  V30 2822 H 268.218 3.49878 1.49551 0
M  V30 2823 H 267.73 3.87007 -0.291055 0
M  V30 2824 H 265.831 3.1086 2.05418 0
M  V30 2825 H 265.944 4.68178 1.01716 0
M  V30 2826 H 264.308 2.4666 0.634911 0
M  V30 2827 H 265.091 3.34097 -0.789549 0
M  V30 2828 N 267.536 -0.106894 1.57237 0
M  V30 2829 C 268.466 -1.13148 2.04254 0
M  V30 2830 C 269.447 -1.42476 0.929224 0
M  V30 2831 O 270.632 -1.52709 1.19973 0
M  V30 2832 C 267.762 -2.4545 2.45706 0
M  V30 2833 C 266.716 -2.30558 3.60592 0
M  V30 2834 C 266.042 -3.67931 3.87983 0
M  V30 2835 C 267.342 -1.75597 4.91897 0
M  V30 2836 H 269.036 -0.740374 2.90101 0
M  V30 2837 H 266.582 -0.354696 1.39563 0
M  V30 2838 H 268.535 -3.17389 2.77205 0
M  V30 2839 H 267.259 -2.86475 1.56843 0
M  V30 2840 H 265.918 -1.61067 3.29322 0
M  V30 2841 H 265.566 -4.06462 2.96306 0
M  V30 2842 H 265.266 -3.58817 4.65322 0
M  V30 2843 H 266.79 -4.41356 4.21945 0
M  V30 2844 H 268.204 -2.37364 5.21854 0
M  V30 2845 H 266.601 -1.77272 5.73319 0
M  V30 2846 H 267.671 -0.714451 4.79608 0
M  V30 2847 N 269.014 -1.53014 -0.377408 0
M  V30 2848 C 270.242 -1.72515 -1.14219 0
M  V30 2849 C 270.657 -0.448735 -1.8339 0
M  V30 2850 O 270.014 0.577592 -1.73119 0
M  V30 2851 C 270.065 -2.8826 -2.18148 0
M  V30 2852 O 269.786 -4.10962 -1.51795 0
M  V30 2853 C 271.287 -3.19536 -3.07264 0
M  V30 2854 H 268.507 -0.577301 -0.342001 0
M  V30 2855 H 271.051 -1.99712 -0.439935 0
M  V30 2856 H 269.206 -2.63492 -2.83991 0
M  V30 2857 H 269.62 -4.75693 -2.20945 0
M  V30 2858 H 271.094 -4.03959 -3.76193 0
M  V30 2859 H 271.571 -2.34403 -3.71419 0
M  V30 2860 H 272.177 -3.46186 -2.47053 0
M  V30 2861 N 270.492 0.636531 -1.44174 0
M  V30 2862 C 271.44 1.76995 -1.50915 0
M  V30 2863 C 272.434 1.65053 -0.381295 0
M  V30 2864 O 273.64 1.71197 -0.55601 0
M  V30 2865 H 270.015 0.584247 -0.473455 0
M  V30 2866 H 271.986 1.68432 -2.4632 0
M  V30 2867 C 270.735 3.15314 -1.46534 0
M  V30 2868 H 270.058 3.25149 -2.32633 0
M  V30 2869 H 271.498 3.9453 -1.55312 0
M  V30 2870 C 269.957 3.3639 -0.185305 0
M  V30 2871 O 270.487 3.94699 0.746688 0
M  V30 2872 N 268.693 2.9046 -0.0901606 0
M  V30 2873 H 268.24 2.43193 -0.849416 0
M  V30 2874 H 268.198 3.04937 0.765553 0
M  V30 2875 N 271.97 1.30982 0.876444 0
M  V30 2876 C 272.88 1.2003 2.01569 0
M  V30 2877 C 273.896 0.11838 1.73597 0
M  V30 2878 O 275.072 0.33495 1.98595 0
M  V30 2879 C 272.137 0.901637 3.34771 0
M  V30 2880 C 271.198 2.06979 3.76109 0
M  V30 2881 C 270.431 1.78529 5.02954 0
M  V30 2882 O 270.654 0.717296 5.65872 0
M  V30 2883 O 269.588 2.64019 5.40905 0
M  V30 2884 H 273.414 2.15753 2.13739 0
M  V30 2885 H 270.999 1.10658 1.00375 0
M  V30 2886 H 272.881 0.750645 4.1466 0
M  V30 2887 H 271.556 -0.0256141 3.2369 0
M  V30 2888 H 270.463 2.27616 2.96887 0
M  V30 2889 H 271.796 2.97907 3.91807 0
M  V30 2890 N 273.449 -1.08991 1.13837 0
M  V30 2891 C 274.396 -2.15748 0.819835 0
M  V30 2892 C 275.366 -1.64636 -0.220026 0
M  V30 2893 O 276.551 -1.90582 -0.0912757 0
M  V30 2894 C 273.691 -3.4382 0.296913 0
M  V30 2895 C 272.804 -4.0881 1.39636 0
M  V30 2896 C 271.939 -5.24655 0.831314 0
M  V30 2897 C 270.978 -5.81575 1.90886 0
M  V30 2898 N 270.115 -6.88774 1.36142 0
M  V30 2899 H 274.955 -2.42338 1.73426 0
M  V30 2900 H 272.492 -1.18935 0.865613 0
M  V30 2901 H 274.45 -4.17193 -0.0244339 0
M  V30 2902 H 273.08 -3.17535 -0.580628 0
M  V30 2903 H 272.132 -3.33258 1.83422 0
M  V30 2904 H 273.444 -4.47141 2.21058 0
M  V30 2905 H 272.598 -6.04942 0.461515 0
M  V30 2906 H 271.337 -4.87698 -0.013932 0
M  V30 2907 H 270.342 -4.99946 2.28767 0
M  V30 2908 H 271.567 -6.20592 2.75758 0
M  V30 2909 H 269.513 -6.53788 0.538254 0
M  V30 2910 H 269.43 -7.25898 2.11208 0
M  V30 2911 H 270.698 -7.72806 1.01933 0
M  V30 2912 N 274.927 -0.932562 -1.27047 0
M  V30 2913 C 276.176 -0.571351 -1.93439 0
M  V30 2914 C 276.489 0.892467 -1.74053 0
M  V30 2915 O 277.695 1.36267 -2.34826 0
M  V30 2916 C 276.151 -0.97106 -3.46552 0
M  V30 2917 C 275.759 -2.4559 -3.74686 0
M  V30 2918 C 277.503 -0.681333 -4.18997 0
M  V30 2919 C 275.41 -2.79475 -5.21198 0
M  V30 2920 H 274.34 -0.209966 -0.724176 0
M  V30 2921 H 276.991 -1.13403 -1.44263 0
M  V30 2922 H 275.373 -0.336983 -3.94564 0
M  V30 2923 H 276.547 -3.13829 -3.37414 0
M  V30 2924 H 274.862 -2.71802 -3.15456 0
M  V30 2925 H 277.459 -0.910939 -5.26883 0
M  V30 2926 H 277.802 0.381628 -4.14547 0
M  V30 2927 H 278.335 -1.27473 -3.76823 0
M  V30 2928 H 275.074 -3.847 -5.30741 0
M  V30 2929 H 274.594 -2.1589 -5.596 0
M  V30 2930 H 276.273 -2.67478 -5.89122 0
M  V30 2931 N 276.405 1.4127 -0.698611 0
M  V30 2932 C 277.315 2.34573 -0.0357891 0
M  V30 2933 C 278.331 1.56393 0.762701 0
M  V30 2934 O 279.507 1.8886 0.699564 0
M  V30 2935 C 276.572 3.35159 0.887089 0
M  V30 2936 C 275.633 4.29225 0.0804634 0
M  V30 2937 C 274.866 5.25006 0.959387 0
M  V30 2938 O 275.089 5.26314 2.19886 0
M  V30 2939 O 274.023 6.00519 0.407439 0
M  V30 2940 H 277.849 2.92838 -0.804957 0
M  V30 2941 H 275.434 1.42175 -0.458966 0
M  V30 2942 H 277.316 3.9689 1.41621 0
M  V30 2943 H 275.991 2.79333 1.6357 0
M  V30 2944 H 274.898 3.70833 -0.493328 0
M  V30 2945 H 276.231 4.88157 -0.629547 0
M  V30 2946 N 277.883 0.443576 1.51229 0
M  V30 2947 C 278.846 -0.353132 2.26463 0
M  V30 2948 C 279.846 -0.944338 1.3015 0
M  V30 2949 O 281.036 -0.817813 1.5381 0
M  V30 2950 C 278.168 -1.50023 3.06114 0
M  V30 2951 H 279.361 0.3063 2.98332 0
M  V30 2952 H 276.914 0.196902 1.55055 0
M  V30 2953 H 277.649 -2.19553 2.38677 0
M  V30 2954 H 277.434 -1.08241 3.76864 0
M  V30 2955 H 278.924 -2.06296 3.63087 0
M  V30 2956 N 279.361 -1.56624 0.175154 0
M  V30 2957 C 280.291 -2.21155 -0.749195 0
M  V30 2958 C 281.272 -1.16836 -1.23626 0
M  V30 2959 O 282.457 -1.45277 -1.28873 0
M  V30 2960 C 279.587 -2.8553 -1.97711 0
M  V30 2961 C 278.541 -3.95921 -1.62575 0
M  V30 2962 C 277.867 -4.47365 -2.92864 0
M  V30 2963 C 279.167 -5.15323 -0.850838 0
M  V30 2964 H 280.861 -2.98653 -0.211295 0
M  V30 2965 H 278.407 -1.43651 -0.100188 0
M  V30 2966 H 280.36 -3.2935 -2.62881 0
M  V30 2967 H 279.084 -2.05406 -2.53921 0
M  V30 2968 H 277.743 -3.52762 -0.997719 0
M  V30 2969 H 277.391 -3.64027 -3.47122 0
M  V30 2970 H 277.091 -5.21839 -2.70106 0
M  V30 2971 H 278.615 -4.93873 -3.59056 0
M  V30 2972 H 280.029 -5.55812 -1.40521 0
M  V30 2973 H 278.426 -5.95739 -0.722154 0
M  V30 2974 H 279.496 -4.84661 0.152082 0
M  V30 2975 N 280.839 0.0985539 -1.57292 0
M  V30 2976 C 282.067 0.816318 -1.90115 0
M  V30 2977 C 282.482 1.72451 -0.768509 0
M  V30 2978 O 281.839 1.80643 0.259687 0
M  V30 2979 C 281.89 1.63259 -3.22535 0
M  V30 2980 O 281.611 0.760934 -4.31441 0
M  V30 2981 C 283.112 2.45372 -3.69199 0
M  V30 2982 H 280.332 0.233595 -0.629027 0
M  V30 2983 H 282.876 0.0768229 -2.04356 0
M  V30 2984 H 281.031 2.32463 -3.09903 0
M  V30 2985 H 281.445 1.32595 -5.07463 0
M  V30 2986 H 282.919 2.98144 -4.64558 0
M  V30 2987 H 283.396 3.23677 -2.96867 0
M  V30 2988 H 284.002 1.81373 -3.84687 0
M  V30 2989 N 282.317 1.53212 0.369288 0
M  V30 2990 C 283.227 1.82342 1.47609 0
M  V30 2991 C 284.243 0.711532 1.58787 0
M  V30 2992 O 285.419 1.0012 1.74751 0
M  V30 2993 C 282.484 2.00393 2.8292 0
M  V30 2994 C 281.545 3.24297 2.81301 0
M  V30 2995 C 280.778 3.41478 4.10157 0
M  V30 2996 O 281.001 2.63033 5.06132 0
M  V30 2997 O 279.935 4.34817 4.16194 0
M  V30 2998 H 283.761 2.76366 1.25918 0
M  V30 2999 H 281.346 1.38547 0.559034 0
M  V30 3000 H 283.228 2.13859 3.63101 0
M  V30 3001 H 281.903 1.09559 3.04596 0
M  V30 3002 H 280.81 3.16257 1.99831 0
M  V30 3003 H 282.143 4.15041 2.64578 0
M  V30 3004 N 283.795 -0.628877 1.44509 0
M  V30 3005 C 285.044 -1.38437 1.4669 0
M  V30 3006 C 285.357 -1.95322 0.104272 0
M  V30 3007 O 286.563 -2.715 0.00362163 0
M  V30 3008 C 285.019 -2.50659 2.5826 0
M  V30 3009 C 284.627 -2.00277 4.0074 0
M  V30 3010 C 286.371 -3.27844 2.69664 0
M  V30 3011 C 284.278 -3.09854 5.0373 0
M  V30 3012 H 283.208 -0.520245 0.545766 0
M  V30 3013 H 285.859 -0.676313 1.70582 0
M  V30 3014 H 284.241 -3.2405 2.27612 0
M  V30 3015 H 285.415 -1.33736 4.40966 0
M  V30 3016 H 283.73 -1.35901 3.93599 0
M  V30 3017 H 286.327 -4.09534 3.43781 0
M  V30 3018 H 286.67 -3.77471 1.75559 0
M  V30 3019 H 287.203 -2.61543 2.99733 0
M  V30 3020 H 283.942 -2.65168 5.99472 0
M  V30 3021 H 283.462 -3.7503 4.68095 0
M  V30 3022 H 285.141 -3.74592 5.27532 0
M  V30 3023 N 285.273 -1.31445 -0.869486 0
M  V30 3024 C 286.519 -1.21337 -1.62496 0
M  V30 3025 C 286.852 0.227872 -1.92858 0
M  V30 3026 O 286.127 1.16094 -1.56053 0
M  V30 3027 C 286.41 -2.05814 -2.95487 0
M  V30 3028 C 286.263 -3.5824 -2.72 0
M  V30 3029 C 287.582 -1.9079 -3.96594 0
M  V30 3030 H 284.701 -0.442135 -0.589649 0
M  V30 3031 H 287.343 -1.6124 -1.00507 0
M  V30 3032 H 285.493 -1.71913 -3.48394 0
M  V30 3033 H 287.165 -4.0228 -2.25762 0
M  V30 3034 H 285.408 -3.81647 -2.06224 0
M  V30 3035 H 286.079 -4.12657 -3.66631 0
M  V30 3036 H 288.555 -2.20459 -3.52898 0
M  V30 3037 H 287.431 -2.52199 -4.87531 0
M  V30 3038 H 287.692 -0.871341 -4.33428 0
M  V30 3039 N 286.751 1.08385 -1.14413 0
M  V30 3040 C 287.661 2.18856 -0.844951 0
M  V30 3041 C 288.677 1.73121 0.174668 0
M  V30 3042 O 289.853 2.014 0.00312857 0
M  V30 3043 C 286.918 3.45155 -0.32696 0
M  V30 3044 C 285.979 4.05513 -1.40916 0
M  V30 3045 C 285.212 5.25784 -0.915793 0
M  V30 3046 O 285.435 5.69884 0.242651 0
M  V30 3047 O 284.369 5.77545 -1.69487 0
M  V30 3048 H 288.195 2.46919 -1.76818 0
M  V30 3049 H 285.78 1.17524 -0.922411 0
M  V30 3050 H 287.662 4.21377 -0.0440211 0
M  V30 3051 H 286.337 3.18668 0.568539 0
M  V30 3052 H 285.244 3.30879 -1.74556 0
M  V30 3053 H 286.577 4.3625 -2.27919 0
M  V30 3054 N 288.23 0.939286 1.26551 0
M  V30 3055 C 289.646 0.641304 1.46149 0
M  V30 3056 C 289.846 -0.805964 1.84679 0
M  V30 3057 O 288.902 -1.58278 1.96734 0
M  V30 3058 C 290.215 1.6011 2.54529 0
M  V30 3059 C 291.763 1.6106 2.68382 0
M  V30 3060 C 292.238 2.55765 3.79932 0
M  V30 3061 N 293.729 2.5404 3.87322 0
M  V30 3062 C 294.464 3.24004 4.73085 0
M  V30 3063 N 293.96 4.03388 5.63249 0
M  V30 3064 N 295.753 3.12965 4.66914 0
M  V30 3065 H 287.904 1.87478 0.998285 0
M  V30 3066 H 290.167 0.805559 0.499779 0
M  V30 3067 H 289.873 2.63412 2.33039 0
M  V30 3068 H 289.747 1.35171 3.52149 0
M  V30 3069 H 292.134 0.584835 2.89247 0
M  V30 3070 H 292.215 1.90053 1.71212 0
M  V30 3071 H 291.859 3.58458 3.5982 0
M  V30 3072 H 291.789 2.24063 4.76554 0
M  V30 3073 H 294.28 1.96396 3.22858 0
M  V30 3074 H 294.593 4.5373 6.25579 0
M  V30 3075 H 292.938 4.07489 5.63008 0
M  V30 3076 H 296.129 2.50432 3.95476 0
M  V30 3077 H 296.302 3.67759 5.33533 0
M  V30 3078 N 289.708 -1.40897 0.706093 0
M  V30 3079 C 290.638 -2.33418 0.0620085 0
M  V30 3080 C 291.619 -1.52385 -0.755827 0
M  V30 3081 O 292.804 -1.80886 -0.706674 0
M  V30 3082 C 289.934 -3.36293 -0.867445 0
M  V30 3083 C 288.888 -4.27716 -0.155932 0
M  V30 3084 C 288.214 -5.2105 -1.20046 0
M  V30 3085 C 289.514 -5.12944 0.984149 0
M  V30 3086 H 291.208 -2.87527 0.83477 0
M  V30 3087 H 288.754 -1.38249 0.402875 0
M  V30 3088 H 290.707 -3.99949 -1.32735 0
M  V30 3089 H 289.431 -2.80556 -1.67199 0
M  V30 3090 H 288.09 -3.65498 0.284047 0
M  V30 3091 H 287.738 -4.61624 -1.99781 0
M  V30 3092 H 287.438 -5.83056 -0.729328 0
M  V30 3093 H 288.962 -5.87584 -1.66066 0
M  V30 3094 H 290.376 -5.70109 0.604048 0
M  V30 3095 H 288.773 -5.83945 1.38304 0
M  V30 3096 H 289.843 -4.49485 1.81911 0
M  V30 3097 N 291.186 -0.45159 -1.50991 0
M  V30 3098 C 292.096 0.358431 -2.31846 0
M  V30 3099 C 293.112 1.01438 -1.41373 0
M  V30 3100 O 294.288 1.00663 -1.74439 0
M  V30 3101 C 291.353 1.43704 -3.15515 0
M  V30 3102 C 290.414 0.799742 -4.21785 0
M  V30 3103 C 289.647 1.82696 -5.01456 0
M  V30 3104 O 289.87 3.05105 -4.81941 0
M  V30 3105 O 288.804 1.40958 -5.85162 0
M  V30 3106 H 292.63 -0.302032 -3.02194 0
M  V30 3107 H 290.215 -0.213825 -1.47862 0
M  V30 3108 H 292.097 2.06227 -3.67489 0
M  V30 3109 H 290.772 2.08133 -2.47916 0
M  V30 3110 H 289.679 0.136084 -3.73852 0
M  V30 3111 H 291.012 0.198718 -4.91799 0
M  V30 3112 N 292.664 1.56529 -0.183458 0
M  V30 3113 C 293.611 2.18546 0.742055 0
M  V30 3114 C 294.581 1.12912 1.2182 0
M  V30 3115 O 295.766 1.41115 1.28418 0
M  V30 3116 C 292.906 2.83977 1.96089 0
M  V30 3117 C 292.019 4.04105 1.52719 0
M  V30 3118 C 291.154 4.57427 2.70063 0
M  V30 3119 C 290.193 5.69938 2.23243 0
M  V30 3120 N 289.33 6.17717 3.33722 0
M  V30 3121 H 294.17 2.97284 0.206432 0
M  V30 3122 H 291.707 1.46823 0.0901571 0
M  V30 3123 H 293.665 3.20077 2.67594 0
M  V30 3124 H 292.295 2.07822 2.47002 0
M  V30 3125 H 291.347 3.73745 0.708436 0
M  V30 3126 H 292.659 4.85513 1.1436 0
M  V30 3127 H 291.813 4.95772 3.49708 0
M  V30 3128 H 290.552 3.75101 3.11689 0
M  V30 3129 H 289.557 5.31133 1.42048 0
M  V30 3130 H 290.782 6.54073 1.82661 0
M  V30 3131 H 288.728 5.38317 3.74902 0
M  V30 3132 H 288.645 6.94146 2.99495 0
M  V30 3133 H 289.913 6.60713 4.13616 0
M  V30 3134 N 294.142 -0.090211 1.57342 0
M  V30 3135 C 295.052 -1.12735 2.05738 0
M  V30 3136 C 296.068 -1.43557 0.983231 0
M  V30 3137 O 297.244 -1.54101 1.29672 0
M  V30 3138 C 294.309 -2.42659 2.47624 0
M  V30 3139 C 293.37 -2.18975 3.69254 0
M  V30 3140 C 292.603 -3.42704 4.09133 0
M  V30 3141 O 292.826 -4.51127 3.49057 0
M  V30 3142 O 291.76 -3.32003 5.02053 0
M  V30 3143 H 295.586 -0.746279 2.94388 0
M  V30 3144 H 293.171 -0.303064 1.46294 0
M  V30 3145 H 295.053 -3.19155 2.7517 0
M  V30 3146 H 293.728 -2.80182 1.62109 0
M  V30 3147 H 292.635 -1.40244 3.46818 0
M  V30 3148 H 293.968 -1.86342 4.55563 0
M  V30 3149 N 295.62 -1.53406 -0.361157 0
M  V30 3150 C 296.868 -1.69467 -1.10115 0
M  V30 3151 C 297.189 -0.451352 -1.89705 0
M  V30 3152 O 296.459 0.534636 -1.88463 0
M  V30 3153 H 295.039 -0.624749 -0.409508 0
M  V30 3154 H 297.701 -1.90609 -0.406699 0
M  V30 3155 H 296.797 -2.55774 -1.78847 0
M  V30 3156 N 297.098 0.621204 -1.44841 0
M  V30 3157 C 298.045 1.73267 -1.5247 0
M  V30 3158 C 299.015 1.6189 -0.371611 0
M  V30 3159 O 300.2 1.81668 -0.58321 0
M  V30 3160 C 297.34 3.11545 -1.48438 0
M  V30 3161 C 296.453 3.33827 -2.74196 0
M  V30 3162 C 295.588 4.62133 -2.61929 0
M  V30 3163 C 294.627 4.77627 -3.82804 0
M  V30 3164 N 293.764 5.97219 -3.69153 0
M  V30 3165 H 298.604 1.66082 -2.47428 0
M  V30 3166 H 296.141 0.810026 -1.22788 0
M  V30 3167 H 298.099 3.91528 -1.4409 0
M  V30 3168 H 296.729 3.1772 -0.570402 0
M  V30 3169 H 295.781 2.47715 -2.88689 0
M  V30 3170 H 297.093 3.41153 -3.6389 0
M  V30 3171 H 296.247 5.50291 -2.5547 0
M  V30 3172 H 294.986 4.57182 -1.69811 0
M  V30 3173 H 293.991 3.87896 -3.89637 0
M  V30 3174 H 295.216 4.84385 -4.75971 0
M  V30 3175 H 293.162 5.93339 -2.79794 0
M  V30 3176 H 293.079 6.05644 -4.52472 0
M  V30 3177 H 294.347 6.87912 -3.66603 0
M  V30 3178 N 298.576 1.31904 0.862503 0
M  V30 3179 C 299.822 1.22197 1.61851 0
M  V30 3180 C 300.155 -0.217641 1.92977 0
M  V30 3181 O 299.43 -1.15264 1.56666 0
M  V30 3182 C 299.713 2.07378 2.94391 0
M  V30 3183 C 299.566 3.59678 2.70096 0
M  V30 3184 C 300.885 1.92891 3.95577 0
M  V30 3185 H 298.004 0.445255 0.587296 0
M  V30 3186 H 300.646 1.6177 0.99651 0
M  V30 3187 H 298.796 1.73758 3.47477 0
M  V30 3188 H 300.468 4.03472 2.23625 0
M  V30 3189 H 298.711 3.82735 2.04197 0
M  V30 3190 H 299.382 4.14595 3.64438 0
M  V30 3191 H 301.858 2.22327 3.51724 0
M  V30 3192 H 300.734 2.54781 4.86187 0
M  V30 3193 H 300.995 0.894315 4.3296 0
M  V30 3194 N 300.054 -1.07777 1.14986 0
M  V30 3195 C 301.001 -2.14867 0.842672 0
M  V30 3196 C 301.971 -1.6486 -0.202552 0
M  V30 3197 O 303.156 -1.90668 -0.0710568 0
M  V30 3198 C 300.296 -3.43486 0.333363 0
M  V30 3199 C 299.409 -4.07306 1.43965 0
M  V30 3200 C 298.544 -5.23744 0.886914 0
M  V30 3201 C 297.583 -5.79517 1.97043 0
M  V30 3202 N 296.72 -6.87291 1.4344 0
M  V30 3203 H 301.56 -2.40485 1.75986 0
M  V30 3204 H 299.097 -1.1801 0.878179 0
M  V30 3205 H 301.055 -4.17195 0.0198163 0
M  V30 3206 H 299.685 -3.18133 -0.546916 0
M  V30 3207 H 298.737 -3.31293 1.86946 0
M  V30 3208 H 300.049 -4.44771 2.25788 0
M  V30 3209 H 299.203 -6.04419 0.525651 0
M  V30 3210 H 297.942 -4.87685 0.0377957 0
M  V30 3211 H 296.947 -4.97491 2.34057 0
M  V30 3212 H 298.172 -6.17632 2.82325 0
M  V30 3213 H 296.118 -6.5318 0.607567 0
M  V30 3214 H 296.035 -7.23617 2.18895 0
M  V30 3215 H 297.303 -7.71682 1.10124 0
M  V30 3216 N 301.532 -0.945985 -1.26051 0
M  V30 3217 C 302.948 -0.649045 -1.45807 0
M  V30 3218 C 303.148 0.796158 -1.85104 0
M  V30 3219 O 302.204 1.57233 -1.97571 0
M  V30 3220 C 303.517 -1.61458 -2.53677 0
M  V30 3221 C 305.065 -1.62481 -2.67524 0
M  V30 3222 C 305.54 -2.57776 -3.7857 0
M  V30 3223 N 307.031 -2.5609 -3.85969 0
M  V30 3224 C 307.766 -3.26508 -4.7136 0
M  V30 3225 N 307.262 -4.0637 -5.61102 0
M  V30 3226 N 309.055 -3.15437 -4.65248 0
M  V30 3227 H 301.206 -1.88005 -0.988328 0
M  V30 3228 H 303.469 -0.808198 -0.4955 0
M  V30 3229 H 303.175 -2.64644 -2.31638 0
M  V30 3230 H 303.049 -1.37036 -3.51427 0
M  V30 3231 H 305.436 -0.600167 -2.88933 0
M  V30 3232 H 305.517 -1.90958 -1.70202 0
M  V30 3233 H 305.161 -3.60361 -3.57913 0
M  V30 3234 H 305.091 -2.26587 -4.75359 0
M  V30 3235 H 307.582 -1.98105 -3.21812 0
M  V30 3236 H 307.895 -4.57042 -6.23164 0
M  V30 3237 H 306.24 -4.10469 -5.60839 0
M  V30 3238 H 309.431 -2.52525 -3.94143 0
M  V30 3239 H 309.604 -3.70584 -5.31575 0
M  V30 3240 N 303.011 1.40521 -0.713556 0
M  V30 3241 C 303.974 2.29098 -0.0684347 0
M  V30 3242 C 304.974 1.45268 0.689472 0
M  V30 3243 O 306.164 1.66205 0.521677 0
M  V30 3244 C 303.296 3.28446 0.913024 0
M  V30 3245 H 304.489 2.87645 -0.84855 0
M  V30 3246 H 302.042 1.48809 -0.47809 0
M  V30 3247 H 302.777 2.74913 1.72027 0
M  V30 3248 H 302.562 3.90327 0.372472 0
M  V30 3249 H 304.052 3.94777 1.36165 0
M  V30 3250 N 304.489 0.459591 1.5075 0
M  V30 3251 C 305.766 -0.160371 1.94941 0
M  V30 3252 C 306.146 -1.58048 1.39943 0
M  V30 3253 O 305.494 -2.206 0.595629 0
M  V30 3254 C 305.704 -0.115432 3.48809 0
M  V30 3255 C 307.052 -0.310026 4.23467 0
M  V30 3256 O 308.076 -0.192543 3.55679 0
M  V30 3257 O 306.935 -0.546031 5.43765 0
M  V30 3258 H 304.029 -0.117925 0.818549 0
M  V30 3259 H 306.575 0.519169 1.61563 0
M  V30 3260 H 305.347 0.87652 3.81357 0
M  V30 3261 H 304.97 -0.836928 3.88692 0
M  V30 3262 N 305.967 -1.56429 0.191757 0
M  V30 3263 C 307.192 -2.02309 -0.456706 0
M  V30 3264 C 307.617 -1.07103 -1.5463 0
M  V30 3265 O 306.975 -0.0539677 -1.8122 0
M  V30 3266 C 307.023 -3.46654 -0.993159 0
M  V30 3267 O 306.127 -3.54559 -2.10622 0
M  V30 3268 H 305.468 -0.655303 -0.107114 0
M  V30 3269 H 307.998 -2.02364 0.301653 0
M  V30 3270 H 308.008 -3.86377 -1.31061 0
M  V30 3271 H 306.683 -4.1544 -0.195504 0
M  V30 3272 H 305.26 -3.26708 -1.79767 0
M  V30 3273 N 307.445 0.0818655 -1.57387 0
M  V30 3274 C 308.393 1.11712 -2.04018 0
M  V30 3275 C 309.387 1.40683 -0.94364 0
M  V30 3276 O 310.593 1.40209 -1.12878 0
M  V30 3277 H 306.968 0.377542 -0.650358 0
M  V30 3278 H 308.939 0.697614 -2.90131 0
M  V30 3279 C 307.688 2.42537 -2.49141 0
M  V30 3280 H 307.011 2.21092 -3.33104 0
M  V30 3281 H 308.451 3.13446 -2.85531 0
M  V30 3282 C 306.91 3.0778 -1.37014 0
M  V30 3283 O 307.44 3.95436 -0.706621 0
M  V30 3284 N 305.646 2.68242 -1.11779 0
M  V30 3285 H 305.193 1.97052 -1.65917 0
M  V30 3286 H 305.151 3.1222 -0.369594 0
M  V30 3287 N 308.923 1.53595 0.353017 0
M  V30 3288 C 309.871 1.81605 1.45335 0
M  V30 3289 C 310.865 0.685923 1.54892 0
M  V30 3290 O 312.071 0.869095 1.57628 0
M  V30 3291 H 308.446 0.575204 0.484401 0
M  V30 3292 H 310.417 2.73679 1.18921 0
M  V30 3293 C 309.166 2.03406 2.81995 0
M  V30 3294 H 308.489 2.89814 2.75405 0
M  V30 3295 H 309.929 2.26975 3.58132 0
M  V30 3296 C 308.388 0.816794 3.26849 0
M  V30 3297 O 308.918 0.0115856 4.01698 0
M  V30 3298 N 307.124 0.636682 2.8354 0
M  V30 3299 H 306.671 1.2931 2.22793 0
M  V30 3300 H 306.629 -0.176336 3.13905 0
M  V30 3301 N 310.401 -0.613514 1.45168 0
M  V30 3302 C 311.812 -1.19539 1.43413 0
M  V30 3303 C 312.163 -1.95558 0.158632 0
M  V30 3304 O 311.288 -2.0335 -0.740119 0
M  V30 3305 C 311.883 -2.17445 2.59813 0
M  V30 3306 C 310.442 -2.71022 2.61197 0
M  V30 3307 C 309.589 -1.46323 2.35552 0
M  V30 3308 H 312.54 -0.403163 1.53494 0
M  V30 3309 H 312.561 -3.00373 2.33574 0
M  V30 3310 H 312.073 -1.62089 3.52631 0
M  V30 3311 H 310.174 -3.30332 1.7237 0
M  V30 3312 H 310.287 -3.15859 3.60236 0
M  V30 3313 H 308.651 -1.75072 1.84992 0
M  V30 3314 H 309.434 -0.92844 3.30507 0
M  V30 3315 N 311.879 -1.3236 -0.855495 0
M  V30 3316 C 313.125 -1.24064 -1.61182 0
M  V30 3317 C 313.48 0.195914 -1.914 0
M  V30 3318 O 312.773 1.13345 -1.54478 0
M  V30 3319 C 312.967 -2.03275 -2.93963 0
M  V30 3320 C 312.796 -3.54486 -2.76712 0
M  V30 3321 C 311.566 -4.23824 -2.75139 0
M  V30 3322 C 313.764 -4.49154 -2.50531 0
M  V30 3323 N 311.746 -5.61095 -2.4909 0
M  V30 3324 C 313.117 -5.74195 -2.3388 0
M  V30 3325 C 315.172 -4.3842 -2.35992 0
M  V30 3326 C 313.875 -6.89716 -2.04168 0
M  V30 3327 C 315.901 -5.53739 -2.0767 0
M  V30 3328 C 315.263 -6.77779 -1.9182 0
M  V30 3329 H 311.362 -0.509139 -0.59355 0
M  V30 3330 H 313.946 -1.66715 -1.00569 0
M  V30 3331 H 312.117 -1.6297 -3.52555 0
M  V30 3332 H 313.849 -1.86881 -3.58967 0
M  V30 3333 H 310.604 -3.75934 -2.88047 0
M  V30 3334 H 311.028 -6.33411 -2.38996 0
M  V30 3335 H 315.67 -3.43172 -2.46967 0
M  V30 3336 H 313.388 -7.84977 -1.9193 0
M  V30 3337 H 316.974 -5.4736 -1.97201 0
M  V30 3338 H 315.854 -7.65504 -1.70217 0
M  V30 3339 N 313.357 1.07166 -1.15556 0
M  V30 3340 C 314.305 2.16517 -0.8499 0
M  V30 3341 C 315.299 1.68468 0.177454 0
M  V30 3342 O 316.505 1.79971 0.0323026 0
M  V30 3343 H 312.88 0.706652 -0.25719 0
M  V30 3344 H 314.851 2.39514 -1.77976 0
M  V30 3345 C 313.6 3.45855 -0.357682 0
M  V30 3346 H 312.923 3.83214 -1.13961 0
M  V30 3347 H 314.363 4.23607 -0.182489 0
M  V30 3348 C 312.822 3.24062 0.921152 0
M  V30 3349 O 313.352 3.48813 1.9923 0
M  V30 3350 N 311.558 2.77539 0.86141 0
M  V30 3351 H 311.105 2.57598 -0.0104408 0
M  V30 3352 H 311.063 2.63337 1.71758 0
M  V30 3353 N 314.835 0.952656 1.25548 0
M  V30 3354 C 316.063 0.623496 1.97282 0
M  V30 3355 C 316.478 -0.803987 1.70826 0
M  V30 3356 O 315.835 -1.53755 0.983147 0
M  V30 3357 C 315.886 0.870209 3.5087 0
M  V30 3358 O 315.607 2.24156 3.76412 0
M  V30 3359 C 317.108 0.553164 4.39835 0
M  V30 3360 H 314.328 0.233931 0.628902 0
M  V30 3361 H 316.872 1.27649 1.59768 0
M  V30 3362 H 315.027 0.263652 3.86502 0
M  V30 3363 H 315.441 2.31021 4.70882 0
M  V30 3364 H 316.915 0.776342 5.46513 0
M  V30 3365 H 317.392 -0.512215 4.36203 0
M  V30 3366 H 317.998 1.13896 4.09766 0
M  V30 3367 N 316.313 -1.40141 0.720998 0
M  V30 3368 C 317.724 -1.83678 0.334553 0
M  V30 3369 C 318.075 -1.6027 -1.13173 0
M  V30 3370 O 317.2 -1.08643 -1.87152 0
M  V30 3371 C 317.795 -3.33437 0.600437 0
M  V30 3372 C 316.354 -3.75447 0.267642 0
M  V30 3373 C 315.501 -2.63296 0.870097 0
M  V30 3374 H 318.452 -1.29331 0.919732 0
M  V30 3375 H 318.473 -3.80269 -0.132517 0
M  V30 3376 H 317.985 -3.50442 1.66768 0
M  V30 3377 H 316.086 -3.64035 -0.794329 0
M  V30 3378 H 316.199 -4.73344 0.74042 0
M  V30 3379 H 314.563 -2.52954 0.297739 0
M  V30 3380 H 315.346 -2.83112 1.94172 0
M  V30 3381 N 317.792 -0.46758 -1.50504 0
M  V30 3382 C 319.038 0.0887532 -2.02606 0
M  V30 3383 C 319.371 1.39686 -1.34913 0
M  V30 3384 O 318.646 1.88644 -0.473694 0
M  V30 3385 C 318.929 0.276206 -3.59039 0
M  V30 3386 C 318.782 -1.05267 -4.37309 0
M  V30 3387 C 320.101 1.03235 -4.27821 0
M  V30 3388 H 317.22 0.0307814 -0.736357 0
M  V30 3389 H 319.862 -0.612485 -1.79857 0
M  V30 3390 H 318.012 0.8735 -3.78553 0
M  V30 3391 H 319.684 -1.68628 -4.29374 0
M  V30 3392 H 317.927 -1.65015 -4.01189 0
M  V30 3393 H 318.598 -0.875197 -5.45018 0
M  V30 3394 H 321.074 0.526111 -4.12761 0
M  V30 3395 H 319.95 1.1323 -5.37094 0
M  V30 3396 H 320.211 2.06806 -3.90748 0
M  V30 3397 N 319.27 1.56325 -0.20005 0
M  V30 3398 C 320.517 1.97719 0.437411 0
M  V30 3399 C 320.845 1.08709 1.61284 0
M  V30 3400 O 320.1 0.127261 1.95286 0
M  V30 3401 C 320.399 3.4495 0.935103 0
M  V30 3402 C 320.065 4.5072 -0.12749 0
M  V30 3403 C 318.727 4.79368 -0.419451 0
M  V30 3404 C 321.079 5.14268 -0.847231 0
M  V30 3405 C 318.407 5.68854 -1.43604 0
M  V30 3406 C 320.759 6.04852 -1.85301 0
M  V30 3407 C 319.423 6.31855 -2.15211 0
M  V30 3408 H 318.693 0.723507 0.16006 0
M  V30 3409 H 321.34 1.89166 -0.298056 0
M  V30 3410 H 319.645 3.50599 1.74894 0
M  V30 3411 H 321.342 3.74337 1.43781 0
M  V30 3412 H 317.932 4.28458 0.11023 0
M  V30 3413 H 322.116 4.92222 -0.634901 0
M  V30 3414 H 317.372 5.88047 -1.67364 0
M  V30 3415 H 321.546 6.53152 -2.41591 0
M  V30 3416 H 319.173 7.00994 -2.94129 0
M  V30 3417 N 320.748 -0.0735177 1.57428 0
M  V30 3418 C 321.711 -1.07192 2.02589 0
M  V30 3419 C 322.711 -1.31695 0.922661 0
M  V30 3420 O 323.901 -1.27445 1.18758 0
M  V30 3421 C 321.033 -2.41599 2.40506 0
M  V30 3422 H 322.226 -0.682727 2.92025 0
M  V30 3423 H 319.779 -0.319193 1.53006 0
M  V30 3424 H 320.514 -2.85354 1.5409 0
M  V30 3425 H 320.299 -2.25156 3.21009 0
M  V30 3426 H 321.789 -3.13367 2.76027 0
M  V30 3427 N 322.226 -1.5378 -0.344866 0
M  V30 3428 C 323.475 -1.7018 -1.08267 0
M  V30 3429 C 323.788 -0.471 -1.89845 0
M  V30 3430 O 324.994 -0.515917 -2.66553 0
M  V30 3431 C 323.45 -3.00923 -1.97417 0
M  V30 3432 C 323.058 -4.31335 -1.21053 0
M  V30 3433 C 324.802 -3.26688 -2.71063 0
M  V30 3434 C 322.709 -5.53153 -2.09225 0
M  V30 3435 H 321.639 -0.634138 -0.407903 0
M  V30 3436 H 324.29 -1.8028 -0.342246 0
M  V30 3437 H 322.672 -2.84676 -2.75274 0
M  V30 3438 H 323.846 -4.58281 -0.481159 0
M  V30 3439 H 322.161 -4.12173 -0.591813 0
M  V30 3440 H 324.758 -4.1489 -3.37299 0
M  V30 3441 H 325.101 -2.43639 -3.37558 0
M  V30 3442 H 325.634 -3.43705 -2.0028 0
M  V30 3443 H 322.373 -6.38741 -1.47274 0
M  V30 3444 H 321.893 -5.30458 -2.79955 0
M  V30 3445 H 323.572 -5.88744 -2.68308 0
M  V30 3446 N 323.704 0.605807 -1.45491 0
M  V30 3447 C 324.651 1.7164 -1.54299 0
M  V30 3448 C 325.621 1.61486 -0.388761 0
M  V30 3449 O 326.806 1.81039 -0.602445 0
M  V30 3450 C 323.946 3.09953 -1.51734 0
M  V30 3451 C 323.059 3.309 -2.77721 0
M  V30 3452 C 322.194 4.59329 -2.66816 0
M  V30 3453 C 321.233 4.7354 -3.87848 0
M  V30 3454 N 320.37 5.9327 -3.75467 0
M  V30 3455 H 325.21 1.63449 -2.49176 0
M  V30 3456 H 322.747 0.796957 -1.23641 0
M  V30 3457 H 324.705 3.89977 -1.48235 0
M  V30 3458 H 323.335 3.17098 -0.604068 0
M  V30 3459 H 322.387 2.44639 -2.913 0
M  V30 3460 H 323.699 3.37274 -3.67488 0
M  V30 3461 H 322.853 5.4755 -2.61292 0
M  V30 3462 H 321.592 4.55355 -1.74651 0
M  V30 3463 H 320.597 3.83741 -3.93729 0
M  V30 3464 H 321.822 4.79309 -4.81082 0
M  V30 3465 H 319.768 5.90338 -2.86072 0
M  V30 3466 H 319.685 6.00811 -4.5887 0
M  V30 3467 H 320.953 6.83984 -3.73879 0
M  V30 3468 N 325.182 1.32811 0.848464 0
M  V30 3469 C 326.129 1.22265 1.95755 0
M  V30 3470 C 327.099 0.103413 1.65778 0
M  V30 3471 O 328.284 0.280033 1.88734 0
M  V30 3472 C 325.424 0.958014 3.31536 0
M  V30 3473 C 324.537 2.16262 3.73971 0
M  V30 3474 C 323.672 1.83295 4.98575 0
M  V30 3475 C 322.711 3.00041 5.33518 0
M  V30 3476 N 321.848 2.67125 6.49299 0
M  V30 3477 H 326.688 2.17128 2.04107 0
M  V30 3478 H 324.225 1.07982 0.998913 0
M  V30 3479 H 326.183 0.785052 4.09747 0
M  V30 3480 H 324.813 0.046159 3.22767 0
M  V30 3481 H 323.865 2.44565 2.91362 0
M  V30 3482 H 325.177 3.03572 3.95785 0
M  V30 3483 H 324.331 1.62586 5.84509 0
M  V30 3484 H 323.07 0.932078 4.7871 0
M  V30 3485 H 322.075 3.21374 4.46093 0
M  V30 3486 H 323.3 3.90869 5.55336 0
M  V30 3487 H 321.246 1.79586 6.3094 0
M  V30 3488 H 321.163 3.47965 6.71161 0
M  V30 3489 H 322.431 2.49861 7.3837 0
M  V30 3490 N 326.66 -1.06551 1.16123 0
M  V30 3491 C 327.607 -2.13961 0.865414 0
M  V30 3492 C 328.577 -1.65066 -0.185055 0
M  V30 3493 O 329.762 -1.90732 -0.05083 0
M  V30 3494 C 326.902 -3.43113 0.369776 0
M  V30 3495 C 326.015 -4.05756 1.48276 0
M  V30 3496 C 325.15 -5.22773 0.942414 0
M  V30 3497 C 324.189 -5.77395 2.03179 0
M  V30 3498 N 323.326 -6.85731 1.50721 0
M  V30 3499 H 328.166 -2.38605 1.78527 0
M  V30 3500 H 325.703 -1.17072 0.890646 0
M  V30 3501 H 327.661 -4.17151 0.0640643 0
M  V30 3502 H 326.291 -3.18695 -0.513143 0
M  V30 3503 H 325.343 -3.29292 1.9045 0
M  V30 3504 H 326.655 -4.42351 2.30493 0
M  V30 3505 H 325.809 -6.03827 0.589729 0
M  V30 3506 H 324.548 -4.87618 0.0895191 0
M  V30 3507 H 323.553 -4.94981 2.3932 0
M  V30 3508 H 324.778 -6.14603 2.8886 0
M  V30 3509 H 322.724 -6.52499 0.676811 0
M  V30 3510 H 322.641 -7.21254 2.26557 0
M  V30 3511 H 323.909 -7.7047 1.18303 0
M  V30 3512 N 328.138 -0.959301 -1.25041 0
M  V30 3513 C 329.363 -0.633507 -1.97488 0
M  V30 3514 C 329.788 0.788555 -1.70773 0
M  V30 3515 O 329.146 1.53394 -0.966431 0
M  V30 3516 C 329.194 -0.904057 -3.49083 0
M  V30 3517 O 328.298 0.0147939 -4.12397 0
M  V30 3518 H 327.639 -0.240368 -0.618966 0
M  V30 3519 H 330.169 -1.28717 -1.59038 0
M  V30 3520 H 330.179 -0.832203 -3.99423 0
M  V30 3521 H 328.854 -1.94048 -3.67856 0
M  V30 3522 H 327.431 -0.109664 -3.72739 0
M  V30 3523 N 329.616 1.39756 -0.72842 0
M  V30 3524 C 330.864 2.00248 -0.272946 0
M  V30 3525 C 331.185 1.58077 1.14178 0
M  V30 3526 O 330.455 0.826014 1.77634 0
M  V30 3527 H 329.035 0.740554 -0.0979247 0
M  V30 3528 H 331.697 1.70903 -0.936912 0
M  V30 3529 H 330.793 3.10495 -0.316142 0
M  V30 3530 N 331.094 0.475555 1.50254 0
M  V30 3531 C 332.041 -0.316293 2.28622 0
M  V30 3532 C 333.011 -0.983227 1.33873 0
M  V30 3533 O 334.196 -0.994805 1.62814 0
M  V30 3534 C 331.336 -1.38975 3.1588 0
M  V30 3535 C 330.449 -0.737146 4.25664 0
M  V30 3536 C 329.584 -1.78887 5.00173 0
M  V30 3537 C 328.623 -1.11676 6.01826 0
M  V30 3538 N 327.76 -2.11154 6.69596 0
M  V30 3539 H 332.6 0.358297 2.95838 0
M  V30 3540 H 330.137 0.188541 1.45887 0
M  V30 3541 H 332.095 -2.02383 3.64825 0
M  V30 3542 H 330.725 -2.03344 2.50701 0
M  V30 3543 H 329.777 0.0096065 3.80399 0
M  V30 3544 H 331.089 -0.206816 4.98371 0
M  V30 3545 H 330.243 -2.49865 5.52859 0
M  V30 3546 H 328.982 -2.35302 4.27182 0
M  V30 3547 H 327.987 -0.392633 5.48396 0
M  V30 3548 H 329.212 -0.55945 6.76792 0
M  V30 3549 H 327.158 -2.66577 5.99394 0
M  V30 3550 H 327.075 -1.63118 7.38193 0
M  V30 3551 H 328.343 -2.81497 7.26897 0
M  V30 3552 N 332.573 -1.56217 0.208337 0
M  V30 3553 C 333.819 -1.98998 -0.42086 0
M  V30 3554 C 334.174 -1.09331 -1.58317 0
M  V30 3555 O 333.467 -0.140466 -1.91084 0
M  V30 3556 C 333.661 -3.45441 -0.916797 0
M  V30 3557 C 333.49 -4.49273 0.195925 0
M  V30 3558 C 332.26 -5.00998 0.657956 0
M  V30 3559 C 334.458 -5.04294 1.00956 0
M  V30 3560 N 332.44 -5.88514 1.74712 0
M  V30 3561 C 333.811 -5.88607 1.94785 0
M  V30 3562 C 335.866 -4.86692 1.05049 0
M  V30 3563 C 334.569 -6.572 2.9237 0
M  V30 3564 C 336.595 -5.56034 2.01446 0
M  V30 3565 C 335.957 -6.40105 2.94016 0
M  V30 3566 H 332.056 -0.772574 -0.121048 0
M  V30 3567 H 334.64 -1.92101 0.317075 0
M  V30 3568 H 332.811 -3.52812 -1.62413 0
M  V30 3569 H 334.543 -3.75164 -1.51771 0
M  V30 3570 H 331.298 -4.72945 0.248912 0
M  V30 3571 H 331.722 -6.36975 2.2933 0
M  V30 3572 H 336.364 -4.21359 0.348759 0
M  V30 3573 H 334.082 -7.21723 3.63512 0
M  V30 3574 H 337.668 -5.44385 2.0527 0
M  V30 3575 H 336.548 -6.92816 3.6739 0
M  V30 3576 N 334.051 0.0651679 -1.57465 0
M  V30 3577 C 335.467 0.420105 -1.53972 0
M  V30 3578 C 335.667 1.78782 -0.929474 0
M  V30 3579 O 334.723 2.46771 -0.534839 0
M  V30 3580 C 336.036 0.355084 -2.98596 0
M  V30 3581 C 337.584 0.434792 -3.09965 0
M  V30 3582 C 338.059 0.399609 -4.56253 0
M  V30 3583 N 339.55 0.459488 -4.60915 0
M  V30 3584 C 340.285 0.454584 -5.71595 0
M  V30 3585 N 339.781 0.404102 -6.9162 0
M  V30 3586 N 341.574 0.501635 -5.59857 0
M  V30 3587 H 333.725 -0.830328 -1.95498 0
M  V30 3588 H 335.988 -0.312244 -0.895102 0
M  V30 3589 H 335.694 -0.583357 -3.46828 0
M  V30 3590 H 335.568 1.16275 -3.58831 0
M  V30 3591 H 337.955 1.36366 -2.61703 0
M  V30 3592 H 338.036 -0.40157 -2.52628 0
M  V30 3593 H 337.68 -0.525436 -5.05175 0
M  V30 3594 H 337.61 1.25359 -5.11461 0
M  V30 3595 H 340.101 0.502482 -3.74544 0
M  V30 3596 H 340.414 0.404468 -7.71741 0
M  V30 3597 H 338.759 0.37069 -6.94011 0
M  V30 3598 H 341.95 0.538812 -4.64989 0
M  V30 3599 H 342.123 0.494345 -6.46112 0
M  V30 3600 N 335.529 1.53961 0.336706 0
M  V30 3601 C 336.462 1.77255 1.43722 0
M  V30 3602 C 337.44 0.62193 1.50236 0
M  V30 3603 O 338.624 0.857874 1.67847 0
M  V30 3604 C 335.751 1.87733 2.81912 0
M  V30 3605 C 334.797 3.09933 2.92991 0
M  V30 3606 S 335.63 4.68836 2.58753 0
M  V30 3607 C 336.786 4.82202 3.99039 0
M  V30 3608 H 337.019 2.70322 1.23748 0
M  V30 3609 H 334.552 1.44917 0.532777 0
M  V30 3610 H 336.51 1.94455 3.61521 0
M  V30 3611 H 335.171 0.956666 2.99177 0
M  V30 3612 H 334.364 3.1396 3.94265 0
M  V30 3613 H 333.966 3.01472 2.21338 0
M  V30 3614 H 336.258 4.64032 4.9364 0
M  V30 3615 H 337.201 5.84298 4.00002 0
M  V30 3616 H 337.609 4.10604 3.87382 0
M  V30 3617 N 337.007 -0.598083 1.45811 0
M  V30 3618 C 337.937 -1.71873 1.58057 0
M  V30 3619 C 338.918 -1.64533 0.431615 0
M  V30 3620 O 340.103 -1.82787 0.65595 0
M  V30 3621 C 337.233 -3.10495 1.55597 0
M  V30 3622 C 336.187 -3.32654 2.69305 0
M  V30 3623 C 335.513 -4.71646 2.51902 0
M  V30 3624 C 336.813 -3.21981 4.11248 0
M  V30 3625 H 338.507 -1.61881 2.51863 0
M  V30 3626 H 336.053 -0.777372 1.21214 0
M  V30 3627 H 338.006 -3.88699 1.6276 0
M  V30 3628 H 336.73 -3.2135 0.583255 0
M  V30 3629 H 335.389 -2.56843 2.61586 0
M  V30 3630 H 335.037 -4.79246 1.52748 0
M  V30 3631 H 334.737 -4.87426 3.2816 0
M  V30 3632 H 336.261 -5.52038 2.60933 0
M  V30 3633 H 337.675 -3.90049 4.20161 0
M  V30 3634 H 336.072 -3.49289 4.87972 0
M  V30 3635 H 337.142 -2.1928 4.32486 0
M  V30 3636 N 338.485 -1.33259 -0.841409 0
M  V30 3637 C 339.734 -1.23921 -1.59143 0
M  V30 3638 C 340.047 0.1941 -1.94635 0
M  V30 3639 O 341.253 0.409474 -2.68394 0
M  V30 3640 C 339.709 -2.17119 -2.87032 0
M  V30 3641 C 339.317 -3.65606 -2.58914 0
M  V30 3642 C 341.061 -2.16648 -3.65053 0
M  V30 3643 C 338.968 -4.50726 -3.82884 0
M  V30 3644 H 337.898 -0.460264 -0.597221 0
M  V30 3645 H 340.549 -1.58307 -0.927959 0
M  V30 3646 H 338.931 -1.75663 -3.54906 0
M  V30 3647 H 340.105 -4.15487 -1.99267 0
M  V30 3648 H 338.42 -3.68341 -1.942 0
M  V30 3649 H 341.017 -2.77474 -4.57069 0
M  V30 3650 H 341.36 -1.16088 -3.99787 0
M  V30 3651 H 341.893 -2.56453 -3.041 0
M  V30 3652 H 338.632 -5.52151 -3.53283 0
M  V30 3653 H 338.152 -4.0559 -4.41879 0
M  V30 3654 H 339.831 -4.64401 -4.50489 0
M  V30 3655 N 339.963 1.05934 -1.16686 0
M  V30 3656 C 341.24 1.75643 -0.860747 0
M  V30 3657 C 341.62 2.01144 0.640641 0
M  V30 3658 O 340.968 1.64147 1.58959 0
M  V30 3659 C 341.178 3.05493 -1.68745 0
M  V30 3660 C 342.526 3.79581 -1.90271 0
M  V30 3661 O 343.55 3.15344 -1.65641 0
M  V30 3662 O 342.409 4.9499 -2.31618 0
M  V30 3663 H 339.503 0.763426 -0.317977 0
M  V30 3664 H 342.049 1.1217 -1.27342 0
M  V30 3665 H 340.821 2.8264 -2.70611 0
M  V30 3666 H 340.444 3.76702 -1.27206 0
M  V30 3667 N 341.441 0.965919 1.2453 0
M  V30 3668 C 342.688 0.626831 1.92554 0
M  V30 3669 C 343.016 -0.837739 1.75534 0
M  V30 3670 O 342.271 -1.61793 1.10098 0
M  V30 3671 C 342.57 0.945428 3.44669 0
M  V30 3672 C 342.236 2.39785 3.81856 0
M  V30 3673 C 340.898 2.79483 3.91718 0
M  V30 3674 C 343.25 3.34055 4.00071 0
M  V30 3675 C 340.578 4.12496 4.1721 0
M  V30 3676 C 342.93 4.66694 4.27059 0
M  V30 3677 C 341.594 5.06172 4.3514 0
M  V30 3678 H 340.864 0.229374 0.704605 0
M  V30 3679 H 343.511 1.21707 1.4785 0
M  V30 3680 H 341.816 0.272926 3.90848 0
M  V30 3681 H 343.513 0.661484 3.95507 0
M  V30 3682 H 340.103 2.08003 3.74743 0
M  V30 3683 H 344.287 3.04571 3.91855 0
M  V30 3684 H 339.543 4.42709 4.21685 0
M  V30 3685 H 343.717 5.3971 4.40097 0
M  V30 3686 H 341.344 6.09262 4.54646 0
M  V30 3687 N 342.919 -1.39368 0.735821 0
M  V30 3688 C 344.335 -1.54204 0.411492 0
M  V30 3689 C 344.535 -1.70268 -1.07755 0
M  V30 3690 O 343.591 -1.70364 -1.86366 0
M  V30 3691 C 344.904 -2.75925 1.19523 0
M  V30 3692 C 346.452 -2.89761 1.18354 0
M  V30 3693 C 346.927 -4.14421 1.94986 0
M  V30 3694 N 348.418 -4.21462 1.92156 0
M  V30 3695 C 349.153 -5.16871 2.48258 0
M  V30 3696 N 348.649 -6.18063 3.13001 0
M  V30 3697 N 350.442 -5.09093 2.38287 0
M  V30 3698 H 342.593 -1.27189 1.70108 0
M  V30 3699 H 344.856 -0.616517 0.720147 0
M  V30 3700 H 344.562 -2.70401 2.24892 0
M  V30 3701 H 344.436 -3.68614 0.800222 0
M  V30 3702 H 346.823 -2.94777 0.137975 0
M  V30 3703 H 346.904 -1.98133 1.61793 0
M  V30 3704 H 346.548 -4.10166 2.99543 0
M  V30 3705 H 346.478 -5.05095 1.48953 0
M  V30 3706 H 348.969 -3.48979 1.44991 0
M  V30 3707 H 349.282 -6.87326 3.53275 0
M  V30 3708 H 347.627 -6.18448 3.17091 0
M  V30 3709 H 350.818 -4.28973 1.8735 0
M  V30 3710 H 350.991 -5.83272 2.82308 0
M  V30 3711 N 344.397 -0.483516 -1.5 0
M  V30 3712 C 345.307 0.309172 -2.32554 0
M  V30 3713 C 346.323 0.984159 -1.43493 0
M  V30 3714 O 347.499 0.969399 -1.76535 0
M  V30 3715 C 344.564 1.36979 -3.18493 0
M  V30 3716 C 343.625 0.710095 -4.23387 0
M  V30 3717 C 342.858 1.72018 -5.05218 0
M  V30 3718 O 343.081 2.94813 -4.88305 0
M  V30 3719 O 342.015 1.28515 -5.8802 0
M  V30 3720 H 345.841 -0.366064 -3.01486 0
M  V30 3721 H 343.426 -0.24514 -1.47375 0
M  V30 3722 H 345.308 1.98385 -3.71781 0
M  V30 3723 H 343.983 2.02828 -2.52275 0
M  V30 3724 H 342.89 0.0567539 -3.74057 0
M  V30 3725 H 344.223 0.0943557 -4.9211 0
M  V30 3726 N 345.875 1.56104 -0.216619 0
M  V30 3727 C 346.805 2.23063 0.690296 0
M  V30 3728 C 347.786 1.20072 1.20485 0
M  V30 3729 O 348.971 1.48643 1.24976 0
M  V30 3730 C 346.101 2.90672 1.90072 0
M  V30 3731 C 345.055 4.00092 1.5202 0
M  V30 3732 C 344.381 4.54972 2.80899 0
M  V30 3733 C 345.681 5.17398 0.71391 0
M  V30 3734 H 347.375 2.99109 0.132038 0
M  V30 3735 H 344.921 1.43866 0.0620664 0
M  V30 3736 H 346.874 3.36204 2.54057 0
M  V30 3737 H 345.598 2.12066 2.48386 0
M  V30 3738 H 344.257 3.55283 0.903839 0
M  V30 3739 H 343.905 3.73102 3.37348 0
M  V30 3740 H 343.605 5.28817 2.56176 0
M  V30 3741 H 345.129 5.0322 3.45836 0
M  V30 3742 H 346.543 5.59342 1.25735 0
M  V30 3743 H 344.94 5.97444 0.563951 0
M  V30 3744 H 346.01 4.84088 -0.280527 0
M  V30 3745 N 347.353 -0.0568162 1.57498 0
M  V30 3746 C 348.301 -1.08452 2.05769 0
M  V30 3747 C 349.295 -1.39164 0.965903 0
M  V30 3748 O 350.501 -1.38395 1.15095 0
M  V30 3749 H 346.876 -0.367148 0.656282 0
M  V30 3750 H 348.847 -0.651368 2.91204 0
M  V30 3751 C 347.596 -2.38543 2.52968 0
M  V30 3752 H 346.919 -2.15765 3.36579 0
M  V30 3753 H 348.359 -3.08863 2.90481 0
M  V30 3754 C 346.818 -3.05562 1.41893 0
M  V30 3755 O 347.348 -3.94262 0.769442 0
M  V30 3756 N 345.554 -2.6643 1.16032 0
M  V30 3757 H 345.101 -1.94387 1.6903 0
M  V30 3758 H 345.059 -3.11593 0.419219 0
M  V30 3759 N 348.832 -1.54138 -0.328536 0
M  V30 3760 C 349.779 -1.83176 -1.40411 0
M  V30 3761 C 350.749 -0.678494 -1.5161 0
M  V30 3762 O 351.934 -0.92443 -1.6691 0
M  V30 3763 C 349.074 -2.06035 -2.76846 0
M  V30 3764 C 348.187 -3.33727 -2.74318 0
M  V30 3765 C 347.322 -3.46574 -4.02567 0
M  V30 3766 C 346.361 -4.68159 -3.94327 0
M  V30 3767 N 345.498 -4.77959 -5.14296 0
M  V30 3768 H 350.338 -2.74938 -1.14948 0
M  V30 3769 H 347.875 -1.36166 -0.556538 0
M  V30 3770 H 349.833 -2.1728 -3.56153 0
M  V30 3771 H 348.463 -1.1757 -3.00628 0
M  V30 3772 H 347.515 -3.31246 -1.8703 0
M  V30 3773 H 348.827 -4.23139 -2.64111 0
M  V30 3774 H 347.981 -3.57333 -4.90304 0
M  V30 3775 H 346.72 -2.55245 -4.15574 0
M  V30 3776 H 345.725 -4.57461 -3.04974 0
M  V30 3777 H 346.95 -5.60868 -3.82889 0
M  V30 3778 H 344.896 -3.89544 -5.27818 0
M  V30 3779 H 344.813 -5.6133 -5.06404 0
M  V30 3780 H 346.081 -4.93044 -6.03761 0
M  V30 3781 N 350.31 0.590341 -1.46126 0
M  V30 3782 C 351.24 1.71032 -1.58966 0
M  V30 3783 C 352.221 1.64302 -0.440335 0
M  V30 3784 O 353.406 1.82436 -0.665634 0
M  V30 3785 C 350.536 3.09665 -1.57241 0
M  V30 3786 C 349.49 3.31221 -2.71066 0
M  V30 3787 C 348.816 4.70303 -2.54399 0
M  V30 3788 C 350.116 3.19796 -4.1295 0
M  V30 3789 H 351.81 1.60543 -2.52718 0
M  V30 3790 H 349.356 0.770933 -1.21625 0
M  V30 3791 H 351.309 3.87831 -1.64819 0
M  V30 3792 H 350.033 3.21036 -0.600289 0
M  V30 3793 H 348.692 2.55452 -2.62944 0
M  V30 3794 H 348.34 4.78429 -1.55288 0
M  V30 3795 H 348.04 4.85679 -3.30741 0
M  V30 3796 H 349.564 5.50647 -2.63857 0
M  V30 3797 H 350.978 3.87815 -4.22223 0
M  V30 3798 H 349.375 3.46696 -4.89818 0
M  V30 3799 H 350.445 2.16983 -4.33643 0
M  V30 3800 N 351.788 1.33704 0.83433 0
M  V30 3801 C 353.016 1.28467 1.62185 0
M  V30 3802 C 353.431 -0.143526 1.88254 0
M  V30 3803 O 352.788 -1.08709 1.4659 0
M  V30 3804 C 352.839 2.06174 2.96942 0
M  V30 3805 O 352.56 3.43422 2.72016 0
M  V30 3806 C 354.061 2.08201 3.91366 0
M  V30 3807 H 351.281 0.4424 0.504503 0
M  V30 3808 H 353.825 1.76145 1.03891 0
M  V30 3809 H 351.98 1.62167 3.51825 0
M  V30 3810 H 352.394 3.83453 3.57861 0
M  V30 3811 H 353.868 2.67017 4.83121 0
M  V30 3812 H 354.345 1.07343 4.2588 0
M  V30 3813 H 354.951 2.52246 3.42421 0
M  V30 3814 N 353.266 -1.05314 1.17247 0
M  V30 3815 C 354.176 -2.16538 0.90268 0
M  V30 3816 C 355.192 -1.73523 -0.128707 0
M  V30 3817 O 356.368 -2.01337 0.0502701 0
M  V30 3818 C 353.433 -3.44167 0.418356 0
M  V30 3819 C 352.494 -4.01635 1.51618 0
M  V30 3820 C 351.727 -5.23171 1.05487 0
M  V30 3821 O 351.95 -5.70327 -0.0914715 0
M  V30 3822 O 350.884 -5.72848 1.8474 0
M  V30 3823 H 354.71 -2.42145 1.83302 0
M  V30 3824 H 352.295 -1.15037 0.953246 0
M  V30 3825 H 354.177 -4.21112 0.155726 0
M  V30 3826 H 352.852 -3.20063 -0.48385 0
M  V30 3827 H 351.759 -3.26135 1.83268 0
M  V30 3828 H 353.092 -4.30053 2.39405 0
M  V30 3829 N 354.744 -0.972509 -1.24016 0
M  V30 3830 C 355.691 -0.505969 -2.25186 0
M  V30 3831 C 356.661 0.451009 -1.5986 0
M  V30 3832 O 357.846 0.360307 -1.87367 0
M  V30 3833 C 354.986 0.193089 -3.44559 0
M  V30 3834 C 354.099 -0.803222 -4.24467 0
M  V30 3835 C 353.234 -0.0797793 -5.3114 0
M  V30 3836 C 352.273 -1.06583 -6.02749 0
M  V30 3837 N 351.41 -0.372074 -7.01113 0
M  V30 3838 H 356.25 -1.37351 -2.64459 0
M  V30 3839 H 353.787 -0.688419 -1.29997 0
M  V30 3840 H 355.745 0.615125 -4.1264 0
M  V30 3841 H 354.375 1.02455 -3.06109 0
M  V30 3842 H 353.427 -1.34368 -3.55878 0
M  V30 3843 H 354.739 -1.55494 -4.73944 0
M  V30 3844 H 353.893 0.400015 -6.0538 0
M  V30 3845 H 352.632 0.704597 -4.82583 0
M  V30 3846 H 351.637 -1.55645 -5.27309 0
M  V30 3847 H 352.862 -1.85074 -6.53395 0
M  V30 3848 H 350.808 0.393238 -6.5482 0
M  V30 3849 H 350.725 -1.06258 -7.48495 0
M  V30 3850 H 351.993 0.0855932 -7.79453 0
M  V30 3851 N 356.222 1.38976 -0.743202 0
M  V30 3852 C 357.47 1.99948 -0.29417 0
M  V30 3853 C 357.791 1.59279 1.12495 0
M  V30 3854 O 357.061 0.844808 1.76748 0
M  V30 3855 H 355.641 0.739473 -0.105774 0
M  V30 3856 H 358.303 1.699 -0.954986 0
M  V30 3857 H 357.399 3.10142 -0.349056 0
M  V30 3858 N 357.7 0.491464 1.49741 0
M  V30 3859 C 358.663 -0.280906 2.27472 0
M  V30 3860 C 359.663 -0.902454 1.33088 0
M  V30 3861 O 360.853 -0.768465 1.56334 0
M  V30 3862 C 357.985 -1.40209 3.10732 0
M  V30 3863 H 359.178 0.401056 2.97206 0
M  V30 3864 H 356.731 0.246131 1.5435 0
M  V30 3865 H 357.466 -2.11849 2.45541 0
M  V30 3866 H 357.251 -0.961969 3.80117 0
M  V30 3867 H 358.741 -1.9464 3.69466 0
M  V30 3868 N 359.178 -1.55987 0.224894 0
M  V30 3869 C 360.088 -2.24066 -0.69511 0
M  V30 3870 C 361.104 -1.24939 -1.21104 0
M  V30 3871 O 362.28 -1.5776 -1.25195 0
M  V30 3872 C 359.345 -2.90983 -1.88493 0
M  V30 3873 C 358.406 -4.05462 -1.41064 0
M  V30 3874 C 357.639 -4.69179 -2.54375 0
M  V30 3875 O 357.862 -4.31895 -3.72589 0
M  V30 3876 O 356.796 -5.58108 -2.25386 0
M  V30 3877 H 360.622 -3.03353 -0.145149 0
M  V30 3878 H 358.207 -1.49399 -0.00569476 0
M  V30 3879 H 360.089 -3.33209 -2.57972 0
M  V30 3880 H 358.764 -2.14653 -2.42293 0
M  V30 3881 H 357.671 -3.67798 -0.683774 0
M  V30 3882 H 359.004 -4.83545 -0.918985 0
M  V30 3883 N 360.656 0.0484629 -1.57525 0
M  V30 3884 C 361.902 0.744226 -1.88651 0
M  V30 3885 C 362.235 1.76029 -0.820212 0
M  V30 3886 O 361.51 1.93782 0.166985 0
M  V30 3887 C 361.793 1.43128 -3.30434 0
M  V30 3888 C 361.646 0.43005 -4.47739 0
M  V30 3889 C 362.965 2.37031 -3.70816 0
M  V30 3890 H 360.084 0.269089 -0.68612 0
M  V30 3891 H 362.726 0.00713532 -1.89999 0
M  V30 3892 H 360.876 2.05956 -3.29415 0
M  V30 3893 H 362.548 -0.194816 -4.60888 0
M  V30 3894 H 360.791 -0.252522 -4.33064 0
M  V30 3895 H 361.462 0.948874 -5.43783 0
M  V30 3896 H 363.938 1.84263 -3.73077 0
M  V30 3897 H 362.814 2.82094 -4.70865 0
M  V30 3898 H 363.075 3.22864 -3.02012 0
M  V30 3899 N 362.134 1.5431 0.320358 0
M  V30 3900 C 363.066 1.80262 1.41556 0
M  V30 3901 C 364.079 0.684723 1.477 0
M  V30 3902 O 365.268 0.961886 1.50366 0
M  V30 3903 C 362.368 1.90825 2.8007 0
M  V30 3904 C 361.541 3.21023 2.97091 0
M  V30 3905 C 360.6 3.22247 4.15985 0
M  V30 3906 O 359.626 3.95871 4.08992 0
M  V30 3907 N 360.828 2.46258 5.25678 0
M  V30 3908 H 363.593 2.74778 1.19655 0
M  V30 3909 H 361.154 1.53646 0.510358 0
M  V30 3910 H 363.146 1.89067 3.57821 0
M  V30 3911 H 361.716 1.03392 2.95006 0
M  V30 3912 H 360.936 3.35715 2.06614 0
M  V30 3913 H 362.224 4.0698 3.05361 0
M  V30 3914 H 361.622 1.86037 5.34235 0
M  V30 3915 H 360.179 2.50275 6.01835 0
M  V30 3916 N 363.613 -0.582584 1.46437 0
M  V30 3917 C 364.543 -1.70187 1.59871 0
M  V30 3918 C 365.524 -1.64066 0.449042 0
M  V30 3919 O 366.709 -1.82081 0.6753 0
M  V30 3920 C 363.839 -3.08827 1.58881 0
M  V30 3921 C 362.793 -3.29779 2.72819 0
M  V30 3922 C 362.119 -4.68947 2.5689 0
M  V30 3923 C 363.419 -3.17601 4.1464 0
M  V30 3924 H 365.113 -1.592 2.53566 0
M  V30 3925 H 362.659 -0.764472 1.22032 0
M  V30 3926 H 364.612 -3.86951 1.66873 0
M  V30 3927 H 363.336 -3.20713 0.617306 0
M  V30 3928 H 361.995 -2.54054 2.64296 0
M  V30 3929 H 361.643 -4.77599 1.57823 0
M  V30 3930 H 361.343 -4.83919 3.33312 0
M  V30 3931 H 362.867 -5.4924 2.66773 0
M  V30 3932 H 364.281 -3.8557 4.24274 0
M  V30 3933 H 362.678 -3.44094 4.9165 0
M  V30 3934 H 363.748 -2.14681 4.34788 0
M  V30 3935 N 365.091 -1.34144 -0.827227 0
M  V30 3936 C 366.339 -1.26009 -1.58007 0
M  V30 3937 C 366.66 0.170971 -1.94249 0
M  V30 3938 O 365.93 1.10256 -1.61927 0
M  V30 3939 H 364.51 -0.463414 -0.585881 0
M  V30 3940 H 367.172 -1.68005 -0.987951 0
M  V30 3941 H 366.268 -1.86187 -2.50481 0
M  V30 3942 N 366.569 1.04691 -1.17803 0
M  V30 3943 C 367.499 2.14494 -0.92275 0
M  V30 3944 C 368.48 1.69546 0.137179 0
M  V30 3945 O 369.665 1.94195 -0.0141108 0
M  V30 3946 C 366.795 3.44491 -0.440803 0
M  V30 3947 C 365.749 4.03031 -1.4405 0
M  V30 3948 C 365.075 5.28432 -0.81631 0
M  V30 3949 C 366.375 4.39932 -2.81527 0
M  V30 3950 H 368.069 2.36107 -1.84103 0
M  V30 3951 H 365.615 1.1347 -0.886599 0
M  V30 3952 H 367.568 4.2066 -0.249602 0
M  V30 3953 H 366.292 3.22546 0.513025 0
M  V30 3954 H 364.951 3.28937 -1.61853 0
M  V30 3955 H 364.599 5.02792 0.144511 0
M  V30 3956 H 364.299 5.68559 -1.48371 0
M  V30 3957 H 365.823 6.07284 -0.635496 0
M  V30 3958 H 367.237 5.07113 -2.67412 0
M  V30 3959 H 365.634 4.9109 -3.44892 0
M  V30 3960 H 366.704 3.50045 -3.35554 0
M  V30 3961 N 368.047 0.979072 1.23499 0
M  V30 3962 C 369.458 0.684391 1.73704 0
M  V30 3963 C 369.809 -0.799448 1.79174 0
M  V30 3964 O 368.934 -1.62531 1.42873 0
M  V30 3965 C 369.529 1.23564 3.15464 0
M  V30 3966 C 368.088 0.99063 3.6313 0
M  V30 3967 C 367.235 1.36416 2.41425 0
M  V30 3968 H 370.186 1.15307 1.09041 0
M  V30 3969 H 370.207 0.607417 3.7562 0
M  V30 3970 H 369.719 2.31561 3.1145 0
M  V30 3971 H 367.82 -0.0733136 3.72528 0
M  V30 3972 H 367.933 1.64427 4.5 0
M  V30 3973 H 366.297 0.782616 2.42378 0
M  V30 3974 H 367.08 2.45387 2.40083 0
M  V30 3975 N 369.525 -1.3858 0.750561 0
M  V30 3976 C 370.475 -2.27795 0.0965949 0
M  V30 3977 C 371.459 -1.45048 -0.696411 0
M  V30 3978 O 372.651 -1.67812 -0.562863 0
M  V30 3979 C 369.78 -3.33894 -0.798085 0
M  V30 3980 C 368.866 -4.241 0.0016067 0
M  V30 3981 N 369.257 -4.95067 1.03647 0
M  V30 3982 C 367.555 -4.45429 -0.225674 0
M  V30 3983 C 368.256 -5.61489 1.52004 0
M  V30 3984 N 367.232 -5.37135 0.835874 0
M  V30 3985 H 371.034 -2.80125 0.889228 0
M  V30 3986 H 368.548 -1.51446 0.586323 0
M  V30 3987 H 370.545 -3.96693 -1.28219 0
M  V30 3988 H 369.205 -2.83123 -1.5897 0
M  V30 3989 H 370.216 -4.98104 1.41819 0
M  V30 3990 H 366.893 -4.05571 -0.990872 0
M  V30 3991 H 368.283 -6.28264 2.38188 0
M  V30 3992 N 371.003 -0.499398 -1.49478 0
M  V30 3993 C 372.414 -0.051215 -1.8663 0
M  V30 3994 C 372.765 1.36238 -1.41186 0
M  V30 3995 O 371.89 2.01502 -0.789051 0
M  V30 3996 C 372.485 -0.0861651 -3.3869 0
M  V30 3997 C 371.044 0.30667 -3.75149 0
M  V30 3998 C 370.191 -0.459397 -2.73468 0
M  V30 3999 H 373.142 -0.712264 -1.41818 0
M  V30 4000 H 373.163 0.709507 -3.73826 0
M  V30 4001 H 372.675 -1.11512 -3.71735 0
M  V30 4002 H 370.776 1.33892 -3.47712 0
M  V30 4003 H 370.889 -0.0116669 -4.79099 0
M  V30 4004 H 369.253 0.0905645 -2.54539 0
M  V30 4005 H 370.036 -1.4884 -3.09357 0
M  V30 4006 N 372.481 1.55866 -0.233164 0
M  V30 4007 C 373.444 2.1953 0.658715 0
M  V30 4008 C 374.444 1.16053 1.11303 0
M  V30 4009 O 375.634 1.41218 1.01996 0
M  V30 4010 C 372.766 2.82791 1.90373 0
M  V30 4011 H 373.959 2.99721 0.10347 0
M  V30 4012 H 371.512 1.56291 0.0164245 0
M  V30 4013 H 372.247 2.06501 2.50056 0
M  V30 4014 H 372.032 3.58578 1.58632 0
M  V30 4015 H 373.522 3.31556 2.53891 0
M  V30 4016 N 373.959 -0.0401083 1.57549 0
M  V30 4017 C 375.207 -0.731677 1.8839 0
M  V30 4018 C 375.528 -1.76481 0.829425 0
M  V30 4019 O 374.798 -1.95411 -0.1383 0
M  V30 4020 H 373.378 -0.273225 0.695239 0
M  V30 4021 H 376.04 -0.00867725 1.94898 0
M  V30 4022 H 375.136 -1.22816 2.86919 0
M  V30 4023 N 375.437 -1.54477 -0.31217 0
M  V30 4024 C 376.367 -1.87652 -1.38957 0
M  V30 4025 C 377.348 -0.734358 -1.53431 0
M  V30 4026 O 378.533 -0.98911 -1.67123 0
M  V30 4027 C 375.663 -2.11396 -2.75552 0
M  V30 4028 C 374.617 -3.27243 -2.75855 0
M  V30 4029 C 373.943 -3.36382 -4.15633 0
M  V30 4030 C 375.243 -4.64622 -2.38587 0
M  V30 4031 H 376.937 -2.77887 -1.11442 0
M  V30 4032 H 374.483 -1.33707 -0.534655 0
M  V30 4033 H 376.436 -2.33189 -3.51 0
M  V30 4034 H 375.16 -1.17921 -3.04569 0
M  V30 4035 H 373.819 -3.05356 -2.02863 0
M  V30 4036 H 373.467 -2.40445 -4.41809 0
M  V30 4037 H 373.167 -4.14249 -4.1674 0
M  V30 4038 H 374.691 -3.60422 -4.92877 0
M  V30 4039 H 376.105 -4.86219 -3.03749 0
M  V30 4040 H 374.502 -5.45121 -2.50925 0
M  V30 4041 H 375.572 -4.66097 -1.33723 0
M  V30 4042 N 376.915 0.57481 -1.46744 0
M  V30 4043 C 377.847 1.69804 -1.53946 0
M  V30 4044 C 378.86 1.57098 -0.427106 0
M  V30 4045 O 380.049 1.64378 -0.695863 0
M  V30 4046 C 377.149 3.08125 -1.4111 0
M  V30 4047 C 376.322 3.46757 -2.66605 0
M  V30 4048 C 375.381 4.6417 -2.47855 0
M  V30 4049 O 374.407 4.69634 -3.21609 0
M  V30 4050 N 375.609 5.59553 -1.54534 0
M  V30 4051 H 378.374 1.64077 -2.50796 0
M  V30 4052 H 375.935 0.761 -1.429 0
M  V30 4053 H 377.927 3.84478 -1.26328 0
M  V30 4054 H 376.497 3.08175 -0.524109 0
M  V30 4055 H 375.717 2.6003 -2.96274 0
M  V30 4056 H 377.005 3.69337 -3.49954 0
M  V30 4057 H 376.403 5.57881 -0.937304 0
M  V30 4058 H 374.96 6.35304 -1.45711 0
M  V30 4059 N 378.394 1.34581 0.820102 0
M  V30 4060 C 379.643 1.26437 1.57151 0
M  V30 4061 C 379.956 -0.163111 1.94919 0
M  V30 4062 O 381.162 -0.366722 2.69012 0
M  V30 4063 C 379.618 2.21658 2.83541 0
M  V30 4064 C 379.226 3.69679 2.53065 0
M  V30 4065 C 380.97 2.22428 3.61561 0
M  V30 4066 C 378.877 4.56761 3.75664 0
M  V30 4067 H 377.807 0.469707 0.589823 0
M  V30 4068 H 380.458 1.59763 0.902656 0
M  V30 4069 H 378.84 1.81287 3.52067 0
M  V30 4070 H 380.014 4.18605 1.92631 0
M  V30 4071 H 378.329 3.71384 1.88316 0
M  V30 4072 H 380.926 2.8471 4.52597 0
M  V30 4073 H 381.269 1.22434 3.97889 0
M  V30 4074 H 381.802 2.61259 2.99981 0
M  V30 4075 H 378.541 5.57702 3.44454 0
M  V30 4076 H 378.061 4.12568 4.35371 0
M  V30 4077 H 379.74 4.71509 4.43044 0
M  V30 4078 N 379.872 -1.04064 1.18357 0
M  V30 4079 C 380.819 -2.12077 0.910603 0
M  V30 4080 C 381.789 -1.65421 -0.15 0
M  V30 4081 O 382.974 -1.90797 -0.0103614 0
M  V30 4082 C 380.114 -3.42252 0.442472 0
M  V30 4083 C 379.227 -4.0252 1.5685 0
M  V30 4084 C 378.362 -5.20657 1.05309 0
M  V30 4085 C 377.401 -5.72955 2.1538 0
M  V30 4086 N 376.538 -6.8238 1.65233 0
M  V30 4087 H 381.378 -2.34764 1.83548 0
M  V30 4088 H 378.915 -1.15157 0.915279 0
M  V30 4089 H 380.873 -4.16921 0.152534 0
M  V30 4090 H 379.503 -3.19712 -0.445428 0
M  V30 4091 H 378.555 -3.25178 1.97391 0
M  V30 4092 H 379.867 -4.37362 2.39824 0
M  V30 4093 H 379.021 -6.0244 0.717677 0
M  V30 4094 H 377.76 -4.87318 0.19293 0
M  V30 4095 H 376.765 -4.89793 2.49766 0
M  V30 4096 H 377.99 -6.08337 3.01832 0
M  V30 4097 H 375.936 -6.50917 0.815064 0
M  V30 4098 H 375.853 -7.16286 2.41805 0
M  V30 4099 H 377.121 -7.67788 1.34619 0
M  V30 4100 N 381.35 -0.985608 -1.22978 0
M  V30 4101 C 382.297 -0.529825 -2.24636 0
M  V30 4102 C 383.267 0.434028 -1.60329 0
M  V30 4103 O 384.452 0.340414 -1.87739 0
M  V30 4104 C 381.592 0.156533 -3.44745 0
M  V30 4105 C 380.705 -0.848197 -4.23591 0
M  V30 4106 C 379.84 -0.136109 -5.31026 0
M  V30 4107 C 378.879 -1.1297 -6.01585 0
M  V30 4108 N 378.016 -0.446415 -7.00679 0
M  V30 4109 H 382.856 -1.40148 -2.62988 0
M  V30 4110 H 380.393 -0.702168 -1.29259 0
M  V30 4111 H 382.351 0.571324 -4.1327 0
M  V30 4112 H 380.981 0.992025 -3.07179 0
M  V30 4113 H 380.033 -1.38135 -3.54433 0
M  V30 4114 H 381.345 -1.60512 -4.72268 0
M  V30 4115 H 380.499 0.335784 -6.0577 0
M  V30 4116 H 379.238 0.653373 -4.83304 0
M  V30 4117 H 378.243 -1.6123 -5.25628 0
M  V30 4118 H 379.468 -1.91993 -6.51395 0
M  V30 4119 H 377.414 0.323763 -6.55201 0
M  V30 4120 H 377.331 -1.1419 -7.47326 0
M  V30 4121 H 378.599 0.00291697 -7.795 0
M  V30 4122 N 382.828 1.3818 -0.7579 0
M  V30 4123 C 383.76 2.2901 -0.0932177 0
M  V30 4124 C 384.773 1.47958 0.679136 0
M  V30 4125 O 385.962 1.70773 0.519514 0
M  V30 4126 C 383.062 3.26953 0.89192 0
M  V30 4127 C 382.235 4.37045 0.176303 0
M  V30 4128 C 381.294 5.15148 1.07281 0
M  V30 4129 O 380.32 5.66616 0.541728 0
M  V30 4130 N 381.522 5.28542 2.40049 0
M  V30 4131 H 384.287 2.86694 -0.873303 0
M  V30 4132 H 381.848 1.50007 -0.609054 0
M  V30 4133 H 383.84 3.76083 1.49479 0
M  V30 4134 H 382.41 2.70136 1.57306 0
M  V30 4135 H 381.63 3.89493 -0.607328 0
M  V30 4136 H 382.918 5.07801 -0.318718 0
M  V30 4137 H 382.316 4.88285 2.85647 0
M  V30 4138 H 380.873 5.8103 2.95376 0
M  V30 4139 N 384.306 0.507319 1.49211 0
M  V30 4140 C 385.552 -0.0350047 2.0277 0
M  V30 4141 C 385.885 -1.3606 1.38569 0
M  V30 4142 O 385.16 -1.87321 0.523542 0
M  V30 4143 C 385.443 -0.180916 3.59645 0
M  V30 4144 C 385.296 1.16825 4.34364 0
M  V30 4145 C 386.615 -0.918558 4.30407 0
M  V30 4146 H 383.734 -0.0112473 0.736914 0
M  V30 4147 H 386.376 0.659956 1.7817 0
M  V30 4148 H 384.526 -0.772826 3.80736 0
M  V30 4149 H 386.198 1.79952 4.24753 0
M  V30 4150 H 384.441 1.75594 3.96673 0
M  V30 4151 H 385.112 1.01939 5.42506 0
M  V30 4152 H 387.588 -0.41649 4.1401 0
M  V30 4153 H 386.464 -0.989505 5.39907 0
M  V30 4154 H 386.725 -1.96373 3.96093 0
M  V30 4155 N 385.784 -1.5574 0.241426 0
M  V30 4156 C 387.012 -2.03208 -0.389134 0
M  V30 4157 C 387.427 -1.12082 -1.51931 0
M  V30 4158 O 386.784 -0.134183 -1.82006 0
M  V30 4159 C 386.835 -3.50064 -0.902087 0
M  V30 4160 O 386.556 -4.37717 0.18305 0
M  V30 4161 C 388.057 -4.13268 -1.60389 0
M  V30 4162 H 385.277 -0.664509 -0.0931053 0
M  V30 4163 H 387.821 -2.0124 0.36369 0
M  V30 4164 H 385.976 -3.52583 -1.60511 0
M  V30 4165 H 386.39 -5.24097 -0.205579 0
M  V30 4166 H 387.864 -5.17733 -1.91458 0
M  V30 4167 H 388.341 -3.59434 -2.52397 0
M  V30 4168 H 388.947 -4.14655 -0.945576 0
M  V30 4169 N 387.262 0.0317525 -1.57568 0
M  V30 4170 C 388.508 0.724175 -1.8943 0
M  V30 4171 C 388.841 1.75149 -0.838836 0
M  V30 4172 O 388.116 1.93948 0.146422 0
M  V30 4173 C 388.399 1.39615 -3.31933 0
M  V30 4174 C 388.252 0.382537 -4.4817 0
M  V30 4175 C 389.571 2.33084 -3.73309 0
M  V30 4176 H 386.69 0.261797 -0.688935 0
M  V30 4177 H 389.332 -0.013017 -1.89996 0
M  V30 4178 H 387.482 2.02451 -3.31581 0
M  V30 4179 H 389.154 -0.243689 -4.60656 0
M  V30 4180 H 387.397 -0.29844 -4.32772 0
M  V30 4181 H 388.068 0.891145 -5.44759 0
M  V30 4182 H 390.544 1.80295 -3.7501 0
M  V30 4183 H 389.42 2.77084 -4.73831 0
M  V30 4184 H 389.681 3.19643 -3.05419 0
M  V30 4185 N 388.74 1.54641 0.303973 0
M  V30 4186 C 389.67 1.88386 1.3796 0
M  V30 4187 C 390.651 0.742485 1.5304 0
M  V30 4188 O 391.836 0.997959 1.66597 0
M  V30 4189 C 388.966 2.12854 2.74427 0
M  V30 4190 C 387.92 3.28702 2.74115 0
M  V30 4191 C 387.246 3.38582 4.13844 0
M  V30 4192 C 388.546 4.65881 2.3612 0
M  V30 4193 H 390.24 2.78474 1.09966 0
M  V30 4194 H 387.786 1.33988 0.527556 0
M  V30 4195 H 389.739 2.35047 3.49758 0
M  V30 4196 H 388.463 1.19535 3.03939 0
M  V30 4197 H 387.122 3.06428 2.0124 0
M  V30 4198 H 386.77 2.42784 4.40528 0
M  V30 4199 H 386.47 4.16453 4.14537 0
M  V30 4200 H 387.994 3.63031 4.90959 0
M  V30 4201 H 389.408 4.87823 3.01167 0
M  V30 4202 H 387.805 5.46444 2.48031 0
M  V30 4203 H 388.875 4.66799 1.3125 0
M  V30 4204 N 390.218 -0.567019 1.47046 0
M  V30 4205 C 391.495 -1.3276 1.43646 0
M  V30 4206 C 391.875 -2.1071 0.128186 0
M  V30 4207 O 391.223 -2.10441 -0.890326 0
M  V30 4208 C 391.433 -2.2404 2.67595 0
M  V30 4209 C 392.781 -2.85372 3.14401 0
M  V30 4210 O 393.805 -2.34346 2.68254 0
M  V30 4211 O 392.664 -3.78091 3.946 0
M  V30 4212 H 389.758 -0.597293 0.571988 0
M  V30 4213 H 392.304 -0.586735 1.59234 0
M  V30 4214 H 391.076 -1.65975 3.54356 0
M  V30 4215 H 390.699 -3.05439 2.54544 0
M  V30 4216 N 391.696 -1.35014 -0.812953 0
M  V30 4217 C 392.945 -1.27269 -1.56479 0
M  V30 4218 C 393.258 0.152771 -1.95002 0
M  V30 4219 O 394.464 0.352451 -2.69203 0
M  V30 4220 C 392.92 -2.23159 -2.82362 0
M  V30 4221 C 392.528 -3.71016 -2.511 0
M  V30 4222 C 394.272 -2.24342 -3.60376 0
M  V30 4223 C 392.179 -4.58746 -3.73237 0
M  V30 4224 H 391.109 -0.472829 -0.587324 0
M  V30 4225 H 393.76 -1.6024 -0.894171 0
M  V30 4226 H 392.142 -1.83151 -3.51101 0
M  V30 4227 H 393.316 -4.1962 -1.90409 0
M  V30 4228 H 391.631 -3.72378 -1.86343 0
M  V30 4229 H 394.228 -2.87107 -4.51081 0
M  V30 4230 H 394.571 -1.24542 -3.97234 0
M  V30 4231 H 395.104 -2.62846 -2.98591 0
M  V30 4232 H 391.843 -5.59521 -3.41492 0
M  V30 4233 H 391.363 -4.14871 -4.33176 0
M  V30 4234 H 393.042 -4.73852 -4.40537 0
M  V30 4235 N 393.175 1.03435 -1.18907 0
M  V30 4236 C 394.423 1.76394 -0.986382 0
M  V30 4237 C 394.744 1.88883 0.484567 0
M  V30 4238 O 394.014 1.41843 1.3512 0
M  V30 4239 H 392.594 0.65344 -0.361975 0
M  V30 4240 H 395.256 1.248 -1.49703 0
M  V30 4241 H 394.352 2.77424 -1.42978 0
M  V30 4242 N 394.653 0.992116 1.22453 0
M  V30 4243 C 395.93 0.583508 1.86694 0
M  V30 4244 C 396.31 -0.9392 1.89056 0
M  V30 4245 O 395.658 -1.82081 1.38053 0
M  V30 4246 C 395.868 1.20304 3.2761 0
M  V30 4247 C 397.216 1.30308 4.0411 0
M  V30 4248 O 398.24 1.15737 3.36873 0
M  V30 4249 O 397.099 1.53615 5.24466 0
M  V30 4250 H 394.193 0.198129 0.802916 0
M  V30 4251 H 396.739 1.08794 1.30238 0
M  V30 4252 H 395.511 2.24461 3.2052 0
M  V30 4253 H 395.134 0.684144 3.9167 0
M  V30 4254 N 396.131 -1.37776 0.765217 0
M  V30 4255 C 397.094 -2.28686 0.153416 0
M  V30 4256 C 398.094 -1.47727 -0.635081 0
M  V30 4257 O 399.284 -1.68027 -0.459632 0
M  V30 4258 C 396.416 -3.31608 -0.790495 0
M  V30 4259 H 397.609 -2.84297 0.954723 0
M  V30 4260 H 395.162 -1.46932 0.53299 0
M  V30 4261 H 395.897 -2.81109 -1.61705 0
M  V30 4262 H 395.682 -3.9144 -0.227348 0
M  V30 4263 H 397.172 -3.99559 -1.21419 0
M  V30 4264 N 397.609 -0.515225 -1.4894 0
M  V30 4265 C 398.839 0.0205735 -2.0659 0
M  V30 4266 C 399.247 1.30064 -1.37405 0
M  V30 4267 O 398.59 1.78087 -0.450632 0
M  V30 4268 C 398.652 0.330124 -3.57981 0
M  V30 4269 C 398.316 -0.854295 -4.48944 0
M  V30 4270 C 399.313 -1.7487 -4.89609 0
M  V30 4271 C 396.998 -1.05712 -4.9105 0
M  V30 4272 C 398.992 -2.82996 -5.71132 0
M  V30 4273 C 396.679 -2.14154 -5.72347 0
M  V30 4274 C 397.677 -3.0263 -6.12294 0
M  V30 4275 O 397.365 -4.09198 -6.91962 0
M  V30 4276 H 397.097 -0.0236833 -0.675585 0
M  V30 4277 H 399.651 -0.715956 -1.92518 0
M  V30 4278 H 397.881 1.12044 -3.70112 0
M  V30 4279 H 399.57 0.806233 -3.97812 0
M  V30 4280 H 400.336 -1.60388 -4.57712 0
M  V30 4281 H 396.215 -0.377788 -4.59449 0
M  V30 4282 H 399.759 -3.52083 -6.02232 0
M  V30 4283 H 395.656 -2.28626 -6.03656 0
M  V30 4284 H 396.424 -4.06726 -7.10293 0
M  V30 4285 N 399.087 1.5561 -0.249682 0
M  V30 4286 C 400.334 1.99011 0.374287 0
M  V30 4287 C 400.662 1.13785 1.57744 0
M  V30 4288 O 399.917 0.189326 1.94782 0
M  V30 4289 C 400.216 3.4775 0.824887 0
M  V30 4290 C 399.882 4.50086 -0.270819 0
M  V30 4291 C 398.544 4.77791 -0.571746 0
M  V30 4292 C 400.896 5.11312 -1.01041 0
M  V30 4293 C 398.224 5.63997 -1.61629 0
M  V30 4294 C 400.576 5.98651 -2.0445 0
M  V30 4295 C 399.24 6.24688 -2.35204 0
M  V30 4296 H 398.51 0.728233 0.136961 0
M  V30 4297 H 401.157 1.88122 -0.358087 0
M  V30 4298 H 399.462 3.55985 1.63651 0
M  V30 4299 H 401.159 3.78721 1.31799 0
M  V30 4300 H 397.749 4.28592 -0.026136 0
M  V30 4301 H 401.933 4.89953 -0.791177 0
M  V30 4302 H 397.189 5.82425 -1.85988 0
M  V30 4303 H 401.363 6.45135 -2.62248 0
M  V30 4304 H 398.99 6.91281 -3.16282 0
M  V30 4305 N 400.565 -0.0233959 1.57583 0
M  V30 4306 C 401.793 -0.724682 1.93794 0
M  V30 4307 C 402.208 -1.68588 0.849912 0
M  V30 4308 O 401.565 -1.81676 -0.173204 0
M  V30 4309 C 401.616 -1.47684 3.29957 0
M  V30 4310 O 401.337 -0.554222 4.3458 0
M  V30 4311 C 402.838 -2.27477 3.80485 0
M  V30 4312 H 400.058 -0.203317 0.639455 0
M  V30 4313 H 402.602 0.0207653 2.04489 0
M  V30 4314 H 400.757 -2.17412 3.20641 0
M  V30 4315 H 401.171 -1.08232 5.13212 0
M  V30 4316 H 402.645 -2.7564 4.78254 0
M  V30 4317 H 403.122 -3.09144 3.11972 0
M  V30 4318 H 403.728 -1.62813 3.92902 0
M  V30 4319 N 402.043 -1.548 -0.295768 0
M  V30 4320 C 403.292 -1.73538 -1.02798 0
M  V30 4321 C 403.605 -0.531159 -1.8825 0
M  V30 4322 O 404.811 -0.600458 -2.64777 0
M  V30 4323 C 403.267 -3.07051 -1.87744 0
M  V30 4324 C 402.875 -4.34968 -1.07269 0
M  V30 4325 C 404.619 -3.35146 -2.60533 0
M  V30 4326 C 402.526 -5.5953 -1.91521 0
M  V30 4327 H 401.456 -0.646794 -0.387522 0
M  V30 4328 H 404.107 -1.81278 -0.284718 0
M  V30 4329 H 402.489 -2.93289 -2.66078 0
M  V30 4330 H 403.663 -4.5958 -0.335117 0
M  V30 4331 H 401.978 -4.13847 -0.460384 0
M  V30 4332 H 404.575 -4.2541 -3.23929 0
M  V30 4333 H 404.918 -2.54255 -3.29636 0
M  V30 4334 H 405.451 -3.49902 -1.89244 0
M  V30 4335 H 402.19 -6.43103 -1.26878 0
M  V30 4336 H 401.71 -5.39096 -2.62937 0
M  V30 4337 H 403.389 -5.96982 -2.49442 0
M  V30 4338 N 403.521 0.559213 -1.47345 0
M  V30 4339 C 404.932 1.14134 -1.47751 0
M  V30 4340 C 405.283 1.94834 -0.231103 0
M  V30 4341 O 404.408 2.05957 0.664137 0
M  V30 4342 C 405.003 2.07653 -2.67705 0
M  V30 4343 C 403.562 2.61141 -2.71076 0
M  V30 4344 C 402.709 1.3748 -2.40821 0
M  V30 4345 H 405.66 0.345917 -1.54884 0
M  V30 4346 H 405.681 2.91497 -2.44561 0
M  V30 4347 H 405.193 1.4889 -3.58404 0
M  V30 4348 H 403.294 3.23707 -1.84511 0
M  V30 4349 H 403.407 3.02272 -3.7171 0
M  V30 4350 H 401.771 1.68086 -1.91362 0
M  V30 4351 H 402.554 0.805135 -3.33725 0
M  V30 4352 N 404.999 1.35443 0.805782 0
M  V30 4353 C 405.929 1.31095 1.93226 0
M  V30 4354 C 406.91 0.185244 1.69088 0
M  V30 4355 O 408.095 0.380332 1.90439 0
M  V30 4356 C 405.225 1.08299 3.29983 0
M  V30 4357 C 404.179 2.17519 3.68605 0
M  V30 4358 C 403.505 1.79887 5.03532 0
M  V30 4359 C 404.805 3.5949 3.78898 0
M  V30 4360 H 406.499 2.25352 1.97122 0
M  V30 4361 H 404.045 1.0848 0.946996 0
M  V30 4362 H 405.998 1.03897 4.08391 0
M  V30 4363 H 404.722 0.104885 3.26432 0
M  V30 4364 H 403.381 2.2102 2.92482 0
M  V30 4365 H 403.029 0.80693 4.96485 0
M  V30 4366 H 402.729 2.53001 5.30344 0
M  V30 4367 H 404.253 1.77011 5.84379 0
M  V30 4368 H 405.667 3.58307 4.47536 0
M  V30 4369 H 404.064 4.31371 4.1718 0
M  V30 4370 H 405.134 3.95584 2.80431 0
M  V30 4371 N 406.477 -1.02803 1.19454 0
M  V30 4372 C 407.754 -1.73299 0.907013 0
M  V30 4373 C 408.134 -2.02772 -0.587086 0
M  V30 4374 O 407.482 -1.68304 -1.54551 0
M  V30 4375 C 407.692 -3.00912 1.76785 0
M  V30 4376 C 409.04 -3.74403 2.00268 0
M  V30 4377 O 410.064 -3.10841 1.73943 0
M  V30 4378 O 408.923 -4.88675 2.4466 0
M  V30 4379 H 406.017 -0.754727 0.338106 0
M  V30 4380 H 408.563 -1.08754 1.30271 0
M  V30 4381 H 407.335 -2.75366 2.7801 0
M  V30 4382 H 406.958 -3.73197 1.37149 0
M  V30 4383 N 407.956 -0.998596 -1.21925 0
M  V30 4384 C 409.367 -0.711939 -1.72593 0
M  V30 4385 C 409.718 0.770842 -1.80423 0
M  V30 4386 O 408.843 1.60237 -1.4544 0
M  V30 4387 C 409.438 -1.28567 -3.13458 0
M  V30 4388 C 407.997 -1.04828 -3.61508 0
M  V30 4389 C 407.144 -1.4024 -2.39224 0
M  V30 4390 H 410.095 -1.17027 -1.07193 0
M  V30 4391 H 410.116 -0.667098 -3.74607 0
M  V30 4392 H 409.628 -2.36486 -3.07727 0
M  V30 4393 H 407.729 0.0140383 -3.72597 0
M  V30 4394 H 407.842 -1.71566 -4.47328 0
M  V30 4395 H 406.206 -0.821077 -2.41103 0
M  V30 4396 H 406.989 -2.49176 -2.36149 0
M  V30 4397 N 409.434 1.37368 -0.772513 0
M  V30 4398 C 410.711 1.93839 -0.26188 0
M  V30 4399 C 411.091 1.7061 1.24319 0
M  V30 4400 O 410.439 1.05534 2.02669 0
M  V30 4401 C 410.649 3.43154 -0.636102 0
M  V30 4402 C 411.997 4.20249 -0.606324 0
M  V30 4403 O 413.021 3.5152 -0.575538 0
M  V30 4404 O 411.88 5.42809 -0.634086 0
M  V30 4405 H 408.974 0.82478 -0.0605555 0
M  V30 4406 H 411.52 1.4665 -0.853917 0
M  V30 4407 H 410.292 3.53647 -1.6748 0
M  V30 4408 H 409.915 3.97596 -0.0170516 0
M  V30 4409 N 410.912 0.523116 1.48665 0
M  V30 4410 C 412.142 -0.00961724 2.06598 0
M  V30 4411 C 412.55 -1.29333 1.38093 0
M  V30 4412 O 411.893 -1.77846 0.46007 0
M  V30 4413 C 411.955 -0.311135 3.58151 0
M  V30 4414 C 411.619 0.878092 4.48485 0
M  V30 4415 C 412.616 1.77464 4.88674 0
M  V30 4416 C 410.301 1.08315 4.90483 0
M  V30 4417 C 412.295 2.86021 5.69623 0
M  V30 4418 C 409.982 2.17187 5.71203 0
M  V30 4419 C 410.98 3.05873 6.10681 0
M  V30 4420 O 410.668 4.12862 6.89783 0
M  V30 4421 H 410.4 0.0272658 0.67545 0
M  V30 4422 H 412.954 0.726156 1.92136 0
M  V30 4423 H 411.184 -1.10079 3.70701 0
M  V30 4424 H 412.873 -0.785125 3.98234 0
M  V30 4425 H 413.639 1.62813 4.56855 0
M  V30 4426 H 409.518 0.402149 4.59243 0
M  V30 4427 H 413.062 3.55272 6.00356 0
M  V30 4428 H 408.959 2.31824 6.02435 0
M  V30 4429 H 409.727 4.10487 7.08126 0
M  V30 4430 N 412.39 -1.55475 0.257931 0
M  V30 4431 C 413.353 -2.20551 -0.623706 0
M  V30 4432 C 414.353 -1.17809 -1.09443 0
M  V30 4433 O 415.543 -1.42823 -0.997362 0
M  V30 4434 C 412.675 -2.85784 -1.8585 0
M  V30 4435 H 413.868 -2.99848 -0.0557743 0
M  V30 4436 H 411.421 -1.56298 0.0084422 0
M  V30 4437 H 412.156 -2.10453 -2.46739 0
M  V30 4438 H 411.941 -3.61057 -1.52907 0
M  V30 4439 H 413.431 -3.35553 -2.48584 0
M  V30 4440 N 413.868 0.0150385 -1.57593 0
M  V30 4441 C 415.279 0.559832 -1.78109 0
M  V30 4442 C 415.63 1.74814 -0.890756 0
M  V30 4443 O 414.755 2.16216 -0.0892482 0
M  V30 4444 C 415.35 1.02238 -3.23006 0
M  V30 4445 C 413.909 1.51258 -3.44671 0
M  V30 4446 C 413.056 0.456955 -2.73509 0
M  V30 4447 H 416.007 -0.211169 -1.57289 0
M  V30 4448 H 416.028 1.88912 -3.30292 0
M  V30 4449 H 415.54 0.157302 -3.87781 0
M  V30 4450 H 413.641 2.39905 -2.8509 0
M  V30 4451 H 413.754 1.55042 -4.5332 0
M  V30 4452 H 412.118 0.915196 -2.37689 0
M  V30 4453 H 412.901 -0.398896 -3.40975 0
M  V30 4454 N 415.346 1.54954 0.287554 0
M  V30 4455 C 416.576 1.78622 1.03816 0
M  V30 4456 C 416.984 0.552451 1.80955 0
M  V30 4457 O 416.327 -0.487665 1.77109 0
M  V30 4458 C 416.389 2.94975 2.055 0
M  V30 4459 C 416.053 4.32565 1.47433 0
M  V30 4460 C 417.05 5.12096 0.897436 0
M  V30 4461 C 414.735 4.79195 1.50591 0
M  V30 4462 C 416.729 6.36383 0.359851 0
M  V30 4463 C 414.416 6.03441 0.964459 0
M  V30 4464 C 415.414 6.81872 0.392413 0
M  V30 4465 O 415.102 8.03777 -0.140788 0
M  V30 4466 H 414.834 0.599144 0.313053 0
M  V30 4467 H 417.388 2.02761 0.328225 0
M  V30 4468 H 415.618 2.66493 2.80211 0
M  V30 4469 H 417.307 3.06097 2.6657 0
M  V30 4470 H 418.073 4.77209 0.865841 0
M  V30 4471 H 413.952 4.18167 1.94055 0
M  V30 4472 H 417.496 6.97545 -0.0872951 0
M  V30 4473 H 413.393 6.37813 0.993246 0
M  V30 4474 H 414.161 8.18495 -0.0287617 0
M  V30 4475 N 416.824 -0.551391 1.4764 0
M  V30 4476 C 418.052 -1.33357 1.58189 0
M  V30 4477 C 418.467 -1.87342 0.234199 0
M  V30 4478 O 417.824 -1.65301 -0.77343 0
M  V30 4479 C 417.875 -2.49942 2.61173 0
M  V30 4480 O 417.596 -1.98187 3.90709 0
M  V30 4481 C 419.097 -3.42072 2.8196 0
M  V30 4482 H 416.317 -0.40631 0.533998 0
M  V30 4483 H 418.861 -0.667367 1.93304 0
M  V30 4484 H 417.016 -3.12489 2.28975 0
M  V30 4485 H 417.43 -2.74342 4.47031 0
M  V30 4486 H 418.904 -4.20278 3.57869 0
M  V30 4487 H 419.381 -3.95978 1.89995 0
M  V30 4488 H 419.987 -2.85336 3.15378 0
M  V30 4489 N 418.302 -1.35869 -0.798587 0
M  V30 4490 C 419.265 -1.29307 -1.89242 0
M  V30 4491 C 420.265 -0.202747 -1.59517 0
M  V30 4492 O 421.455 -0.456957 -1.681 0
M  V30 4493 C 418.587 -1.00229 -3.25833 0
M  V30 4494 H 419.78 -2.26576 -1.96478 0
M  V30 4495 H 417.333 -1.20509 -0.995358 0
M  V30 4496 H 418.068 -0.033801 -3.24282 0
M  V30 4497 H 417.853 -1.79121 -3.48795 0
M  V30 4498 H 419.343 -0.98219 -4.05885 0
M  V30 4499 N 419.78 1.02168 -1.19998 0
M  V30 4500 C 421.027 1.75685 -1.00702 0
M  V30 4501 C 421.355 1.88947 0.461426 0
M  V30 4502 O 420.61 1.40832 1.35885 0
M  V30 4503 C 420.909 3.18081 -1.62969 0
M  V30 4504 C 420.575 3.24809 -3.12746 0
M  V30 4505 C 419.237 3.26352 -3.53621 0
M  V30 4506 C 421.589 3.23379 -4.08749 0
M  V30 4507 C 418.917 3.2413 -4.89036 0
M  V30 4508 C 421.269 3.22698 -5.44104 0
M  V30 4509 C 419.933 3.22542 -5.84399 0
M  V30 4510 H 419.203 0.642877 -0.368496 0
M  V30 4511 H 421.85 1.19865 -1.49348 0
M  V30 4512 H 420.155 3.77027 -1.06573 0
M  V30 4513 H 421.852 3.73648 -1.45561 0
M  V30 4514 H 418.442 3.2434 -2.80181 0
M  V30 4515 H 422.626 3.21361 -3.78207 0
M  V30 4516 H 417.882 3.22338 -5.19527 0
M  V30 4517 H 422.056 3.20543 -6.18244 0
M  V30 4518 H 419.683 3.20575 -6.89301 0
M  V30 4519 N 421.258 1.00505 1.21394 0
M  V30 4520 C 422.486 0.706609 1.9446 0
M  V30 4521 C 422.901 -0.73081 1.74082 0
M  V30 4522 O 422.258 -1.49446 1.04747 0
M  V30 4523 C 422.309 1.01824 3.46863 0
M  V30 4524 O 422.03 2.39919 3.66566 0
M  V30 4525 C 423.531 0.739216 4.37093 0
M  V30 4526 H 420.751 0.260394 0.618414 0
M  V30 4527 H 423.295 1.34311 1.54211 0
M  V30 4528 H 421.45 0.427343 3.85036 0
M  V30 4529 H 421.864 2.50784 4.6066 0
M  V30 4530 H 423.338 1.00744 5.42729 0
M  V30 4531 H 423.815 -0.326746 4.37983 0
M  V30 4532 H 424.421 1.31173 4.04566 0
M  V30 4533 N 422.737 -1.36956 0.779787 0
M  V30 4534 C 423.667 -2.32761 0.185651 0
M  V30 4535 C 424.648 -1.56177 -0.673989 0
M  V30 4536 O 425.833 -1.84378 -0.609797 0
M  V30 4537 C 422.963 -3.40418 -0.687964 0
M  V30 4538 C 421.917 -4.27941 0.0710102 0
M  V30 4539 C 421.243 -5.26681 -0.922573 0
M  V30 4540 C 422.543 -5.07006 1.25467 0
M  V30 4541 H 424.237 -2.82698 0.986008 0
M  V30 4542 H 421.783 -1.3592 0.475592 0
M  V30 4543 H 423.736 -4.06423 -1.11348 0
M  V30 4544 H 422.46 -2.89025 -1.52093 0
M  V30 4545 H 421.119 -3.63478 0.47739 0
M  V30 4546 H 420.767 -4.71565 -1.7503 0
M  V30 4547 H 420.467 -5.86103 -0.419237 0
M  V30 4548 H 421.991 -5.9556 -1.34686 0
M  V30 4549 H 423.405 -5.66105 0.905401 0
M  V30 4550 H 421.802 -5.75793 1.69063 0
M  V30 4551 H 422.872 -4.3921 2.05481 0
M  V30 4552 N 424.215 -0.530993 -1.48385 0
M  V30 4553 C 425.626 -0.0907905 -1.86479 0
M  V30 4554 C 425.977 1.33213 -1.44044 0
M  V30 4555 O 425.102 1.99783 -0.831615 0
M  V30 4556 C 425.697 -0.157987 -3.38431 0
M  V30 4557 C 424.256 0.227026 -3.75715 0
M  V30 4558 C 423.403 -0.5173 -2.72432 0
M  V30 4559 H 426.354 -0.742186 -1.40276 0
M  V30 4560 H 426.375 0.630053 -3.75247 0
M  V30 4561 H 425.887 -1.19372 -3.69286 0
M  V30 4562 H 423.988 1.26486 -3.50474 0
M  V30 4563 H 424.101 -0.113288 -4.78966 0
M  V30 4564 H 422.465 0.0365527 -2.54674 0
M  V30 4565 H 423.248 -1.55368 -3.0613 0
M  V30 4566 N 425.693 1.55336 -0.266172 0
M  V30 4567 C 427.109 1.59356 0.0882065 0
M  V30 4568 C 427.309 1.2834 1.55342 0
M  V30 4569 O 426.365 1.03996 2.30089 0
M  V30 4570 C 427.678 2.99409 -0.278364 0
M  V30 4571 C 429.226 3.12196 -0.224243 0
M  V30 4572 C 429.701 4.545 -0.565123 0
M  V30 4573 N 431.192 4.60313 -0.51634 0
M  V30 4574 C 431.927 5.68434 -0.753013 0
M  V30 4575 N 431.423 6.84738 -1.05383 0
M  V30 4576 N 433.216 5.57942 -0.682414 0
M  V30 4577 H 425.367 1.73764 -1.22147 0
M  V30 4578 H 427.63 0.809822 -0.492841 0
M  V30 4579 H 427.336 3.2691 -1.29703 0
M  V30 4580 H 427.21 3.75228 0.385186 0
M  V30 4581 H 429.597 2.84464 0.78512 0
M  V30 4582 H 429.678 2.38609 -0.921922 0
M  V30 4583 H 429.322 4.82956 -1.57213 0
M  V30 4584 H 429.252 5.26374 0.154248 0
M  V30 4585 H 431.743 3.7676 -0.29335 0
M  V30 4586 H 432.056 7.63088 -1.22133 0
M  V30 4587 H 430.401 6.86375 -1.09151 0
M  V30 4588 H 433.592 4.65958 -0.44731 0
M  V30 4589 H 433.765 6.4213 -0.870248 0
M  V30 4590 N 427.171 -0.0066808 1.57599 0
M  V30 4591 C 428.118 -1.00024 2.08 0
M  V30 4592 C 429.088 -1.34549 0.973943 0
M  V30 4593 O 430.273 -1.44502 1.24595 0
M  V30 4594 C 427.413 -2.2891 2.58252 0
M  V30 4595 C 426.526 -2.00346 3.82734 0
M  V30 4596 C 425.661 -3.23265 4.21513 0
M  V30 4597 C 424.7 -2.90357 5.3885 0
M  V30 4598 N 423.837 -4.05793 5.72954 0
M  V30 4599 H 428.677 -0.563499 2.92624 0
M  V30 4600 H 426.214 -0.266592 1.44664 0
M  V30 4601 H 428.172 -3.04247 2.85464 0
M  V30 4602 H 426.802 -2.70265 1.76512 0
M  V30 4603 H 425.854 -1.15406 3.62471 0
M  V30 4604 H 427.166 -1.72086 4.68175 0
M  V30 4605 H 426.32 -4.06953 4.49971 0
M  V30 4606 H 425.059 -3.54657 3.34768 0
M  V30 4607 H 424.064 -2.05075 5.10122 0
M  V30 4608 H 425.289 -2.60219 6.27266 0
M  V30 4609 H 423.235 -4.37094 4.89167 0
M  V30 4610 H 423.152 -3.81034 6.52954 0
M  V30 4611 H 424.42 -4.90289 6.06001 0
M  V30 4612 N 428.649 -1.55105 -0.279332 0
M  V30 4613 C 429.597 -1.88333 -1.36505 0
M  V30 4614 C 430.591 -0.759043 -1.51443 0
M  V30 4615 O 431.797 -0.943312 -1.53302 0
M  V30 4616 H 428.172 -0.59766 -0.456406 0
M  V30 4617 H 430.143 -2.79041 -1.05728 0
M  V30 4618 C 428.892 -2.16628 -2.7197 0
M  V30 4619 H 428.215 -3.02624 -2.61264 0
M  V30 4620 H 429.655 -2.43803 -3.46895 0
M  V30 4621 C 428.114 -0.971807 -3.22579 0
M  V30 4622 O 428.644 -0.203228 -4.01186 0
M  V30 4623 N 426.85 -0.771238 -2.80179 0
M  V30 4624 H 426.397 -1.39792 -2.1637 0
M  V30 4625 H 426.355 0.0263667 -3.14389 0
M  V30 4626 N 430.127 0.543554 -1.4793 0
M  V30 4627 C 431.075 1.67039 -1.61866 0
M  V30 4628 C 432.069 1.62294 -0.48549 0
M  V30 4629 O 433.275 1.67315 -0.66376 0
M  V30 4630 H 429.65 0.552954 -0.509652 0
M  V30 4631 H 431.621 1.52426 -2.56533 0
M  V30 4632 C 430.37 3.05357 -1.6629 0
M  V30 4633 H 429.693 3.09696 -2.5284 0
M  V30 4634 H 431.133 3.83855 -1.80088 0
M  V30 4635 C 429.592 3.34531 -0.398861 0
M  V30 4636 O 430.122 3.98649 0.494162 0
M  V30 4637 N 428.328 2.89299 -0.2747 0
M  V30 4638 H 427.875 2.37298 -1.00236 0
M  V30 4639 H 427.833 3.09188 0.570075 0
M  V30 4640 N 431.605 1.3629 0.791371 0
M  V30 4641 C 432.568 1.30309 1.88553 0
M  V30 4642 C 433.568 0.211204 1.59407 0
M  V30 4643 O 434.758 0.465865 1.67855 0
M  V30 4644 C 431.89 1.01956 3.25297 0
M  V30 4645 H 433.083 2.27614 1.95273 0
M  V30 4646 H 430.636 1.21035 0.988953 0
M  V30 4647 H 431.371 0.050998 3.2426 0
M  V30 4648 H 431.156 1.80968 3.4784 0
M  V30 4649 H 432.646 1.0037 4.05359 0
M  V30 4650 N 433.083 -1.0153 1.20538 0
M  V30 4651 C 434.331 -1.74803 1.01432 0
M  V30 4652 C 434.652 -1.8963 -0.454456 0
M  V30 4653 O 433.922 -1.43975 -1.32846 0
M  V30 4654 H 432.502 -0.647598 0.372324 0
M  V30 4655 H 435.164 -1.22402 1.5167 0
M  V30 4656 H 434.26 -2.75114 1.47373 0
M  V30 4657 N 434.561 -1.01147 -1.20859 0
M  V30 4658 C 435.972 -0.730205 -1.71828 0
M  V30 4659 C 436.323 0.751662 -1.8123 0
M  V30 4660 O 435.448 1.58686 -1.47132 0
M  V30 4661 C 436.043 -1.31885 -3.12077 0
M  V30 4662 C 434.602 -1.08656 -3.60376 0
M  V30 4663 C 433.749 -1.42769 -2.37723 0
M  V30 4664 H 436.7 -1.18158 -1.05945 0
M  V30 4665 H 436.721 -0.706793 -3.73878 0
M  V30 4666 H 436.233 -2.39737 -3.05201 0
M  V30 4667 H 434.334 -0.0254814 -3.72591 0
M  V30 4668 H 434.447 -1.76301 -4.45483 0
M  V30 4669 H 432.811 -0.846603 -2.40218 0
M  V30 4670 H 433.594 -2.51666 -2.33493 0
M  V30 4671 N 436.039 1.36541 -0.78704 0
M  V30 4672 C 437.287 1.98911 -0.357633 0
M  V30 4673 C 437.608 1.62778 1.07371 0
M  V30 4674 O 436.878 0.900612 1.73971 0
M  V30 4675 H 435.458 0.735734 -0.129246 0
M  V30 4676 H 438.12 1.66776 -1.00855 0
M  V30 4677 H 437.216 3.08874 -0.447549 0
M  V30 4678 N 437.518 0.538854 1.48102 0
M  V30 4679 C 438.934 0.19732 1.58376 0
M  V30 4680 C 439.134 -1.29971 1.5398 0
M  V30 4681 O 438.19 -2.07861 1.43352 0
M  V30 4682 C 439.503 0.807716 2.89649 0
M  V30 4683 C 441.051 0.77726 3.03196 0
M  V30 4684 C 441.526 1.36639 4.37143 0
M  V30 4685 N 443.017 1.32875 4.43732 0
M  V30 4686 C 443.752 1.7544 5.45901 0
M  V30 4687 N 443.248 2.25776 6.54979 0
M  V30 4688 N 445.041 1.66623 5.36836 0
M  V30 4689 H 437.192 1.5117 1.49202 0
M  V30 4690 H 439.455 0.629327 0.708979 0
M  V30 4691 H 439.161 1.85909 2.98548 0
M  V30 4692 H 439.035 0.289975 3.76084 0
M  V30 4693 H 441.422 -0.265374 2.93904 0
M  V30 4694 H 441.503 1.33256 2.18349 0
M  V30 4695 H 441.147 2.408 4.47189 0
M  V30 4696 H 441.077 0.786689 5.20691 0
M  V30 4697 H 443.568 0.96037 3.65493 0
M  V30 4698 H 443.881 2.56226 7.29087 0
M  V30 4699 H 442.226 2.29775 6.55918 0
M  V30 4700 H 445.417 1.27089 4.50517 0
M  V30 4701 H 445.59 2.00115 6.16326 0
M  V30 4702 N 438.996 -1.55193 0.274407 0
M  V30 4703 C 440.412 -1.59401 -0.0797543 0
M  V30 4704 C 440.612 -1.29162 -1.54659 0
M  V30 4705 O 439.668 -1.05215 -2.29534 0
M  V30 4706 C 440.981 -2.99257 0.294238 0
M  V30 4707 C 442.529 -3.12072 0.240796 0
M  V30 4708 C 443.004 -4.54194 0.589218 0
M  V30 4709 N 444.495 -4.60033 0.540744 0
M  V30 4710 C 445.23 -5.68027 0.783147 0
M  V30 4711 N 444.726 -6.8417 1.09013 0
M  V30 4712 N 446.519 -5.57572 0.711993 0
M  V30 4713 H 438.67 -1.73113 1.23067 0
M  V30 4714 H 440.933 -0.807197 0.497129 0
M  V30 4715 H 440.639 -3.26217 1.31435 0
M  V30 4716 H 440.513 -3.75427 -0.365281 0
M  V30 4717 H 442.9 -2.84877 -0.770024 0
M  V30 4718 H 442.981 -2.38117 0.934563 0
M  V30 4719 H 442.625 -4.82115 1.59772 0
M  V30 4720 H 442.555 -5.26448 -0.126331 0
M  V30 4721 H 445.046 -3.76599 0.313327 0
M  V30 4722 H 445.359 -7.6243 1.26178 0
M  V30 4723 H 443.704 -6.85787 1.12789 0
M  V30 4724 H 446.895 -4.65714 0.472014 0
M  V30 4725 H 447.068 -6.41659 0.90429 0
M  V30 4726 N 440.474 -0.00167713 -1.576 0
M  V30 4727 C 441.721 0.68282 -1.90641 0
M  V30 4728 C 442.049 1.73686 -0.875415 0
M  V30 4729 O 441.304 1.95334 0.119575 0
M  V30 4730 C 441.603 1.36189 -3.30435 0
M  V30 4731 C 441.269 0.440887 -4.48739 0
M  V30 4732 C 439.931 0.187312 -4.80835 0
M  V30 4733 C 442.283 -0.193134 -5.20842 0
M  V30 4734 C 439.611 -0.70855 -5.82406 0
M  V30 4735 C 441.963 -1.07688 -6.23367 0
M  V30 4736 C 440.627 -1.33962 -6.53919 0
M  V30 4737 H 439.897 0.249862 -0.697603 0
M  V30 4738 H 442.544 -0.0575642 -1.91413 0
M  V30 4739 H 440.849 2.17636 -3.25794 0
M  V30 4740 H 442.546 1.89759 -3.5326 0
M  V30 4741 H 439.136 0.648694 -4.23663 0
M  V30 4742 H 443.32 -0.0102445 -4.96299 0
M  V30 4743 H 438.576 -0.920097 -6.04437 0
M  V30 4744 H 442.75 -1.57451 -6.78367 0
M  V30 4745 H 440.377 -2.03549 -7.32442 0
M  V30 4746 N 441.952 1.55251 0.271103 0
M  V30 4747 C 443.198 1.76207 1.00394 0
M  V30 4748 C 443.531 0.562604 1.85872 0
M  V30 4749 O 442.806 -0.439785 1.89463 0
M  V30 4750 C 443.089 3.06828 1.8849 0
M  V30 4751 C 442.942 4.37134 1.05992 0
M  V30 4752 C 444.261 3.33503 2.87165 0
M  V30 4753 H 441.38 0.641086 0.363562 0
M  V30 4754 H 444.022 1.87982 0.276189 0
M  V30 4755 H 442.172 2.96921 2.5054 0
M  V30 4756 H 443.844 4.59001 0.459978 0
M  V30 4757 H 442.087 4.32275 0.363443 0
M  V30 4758 H 442.758 5.2486 1.70955 0
M  V30 4759 H 445.234 3.43215 2.3525 0
M  V30 4760 H 444.11 4.2616 3.45946 0
M  V30 4761 H 444.371 2.53235 3.62387 0
M  V30 4762 N 443.43 -0.535701 1.48216 0
M  V30 4763 C 444.676 -1.2913 1.57153 0
M  V30 4764 C 445.031 -1.90899 0.239823 0
M  V30 4765 O 444.324 -1.76022 -0.756748 0
M  V30 4766 C 444.518 -2.4068 2.64212 0
M  V30 4767 C 444.347 -1.89844 4.07663 0
M  V30 4768 C 443.117 -1.72708 4.74869 0
M  V30 4769 C 445.315 -1.43031 4.94011 0
M  V30 4770 N 443.297 -1.16437 6.02757 0
M  V30 4771 C 444.668 -0.986691 6.12098 0
M  V30 4772 C 446.723 -1.3128 4.80281 0
M  V30 4773 C 445.426 -0.437231 7.1797 0
M  V30 4774 C 447.452 -0.777346 5.86269 0
M  V30 4775 C 446.814 -0.343774 7.03561 0
M  V30 4776 H 442.913 -0.463753 0.629648 0
M  V30 4777 H 445.497 -0.604736 1.8507 0
M  V30 4778 H 443.668 -3.06839 2.38126 0
M  V30 4779 H 445.4 -3.07706 2.62867 0
M  V30 4780 H 442.155 -1.96061 4.31111 0
M  V30 4781 H 442.579 -0.903281 6.70947 0
M  V30 4782 H 447.221 -1.63408 3.89946 0
M  V30 4783 H 444.939 -0.103621 8.08034 0
M  V30 4784 H 448.525 -0.689688 5.77698 0
M  V30 4785 H 447.405 0.0641219 7.84174 0
M  V30 4786 N 444.908 -1.36708 -0.784132 0
M  V30 4787 C 446.148 -1.32618 -1.55537 0
M  V30 4788 C 446.512 0.0920681 -1.91779 0
M  V30 4789 O 447.713 0.257573 -2.67563 0
M  V30 4790 C 445.984 -2.22788 -2.79464 0
M  V30 4791 S 447.543 -2.36432 -3.69656 0
M  V30 4792 H 444.361 -0.470973 -0.53264 0
M  V30 4793 H 446.963 -1.72333 -0.92312 0
M  V30 4794 H 445.667 -3.24774 -2.50899 0
M  V30 4795 H 445.198 -1.84112 -3.47658 0
M  V30 4796 H 447.213 -1.56573 -4.7085 0
M  V30 4797 N 446.386 1.0089 -1.21074 0
M  V30 4798 C 447.611 1.78727 -1.05221 0
M  V30 4799 C 448.036 1.83932 0.393795 0
M  V30 4800 O 447.394 1.28004 1.28393 0
M  V30 4801 C 447.442 3.20665 -1.64944 0
M  V30 4802 O 446.546 4.02632 -0.892273 0
M  V30 4803 H 445.887 0.550973 -0.370574 0
M  V30 4804 H 448.417 1.26847 -1.60534 0
M  V30 4805 H 448.427 3.71352 -1.69002 0
M  V30 4806 H 447.102 3.16191 -2.70177 0
M  V30 4807 H 445.679 3.61207 -0.926492 0
M  V30 4808 N 447.864 1.01787 1.20321 0
M  V30 4809 C 448.794 0.609625 2.25401 0
M  V30 4810 C 449.775 -0.375951 1.65893 0
M  V30 4811 O 450.96 -0.261101 1.92437 0
M  V30 4812 C 448.09 -0.0515995 3.47262 0
M  V30 4813 C 447.044 0.855095 4.19371 0
M  V30 4814 C 446.37 0.0595757 5.34667 0
M  V30 4815 C 447.67 2.16374 4.75373 0
M  V30 4816 H 449.364 1.48803 2.59804 0
M  V30 4817 H 446.91 0.716934 1.24884 0
M  V30 4818 H 448.863 -0.348764 4.19954 0
M  V30 4819 H 447.587 -0.964726 3.12027 0
M  V30 4820 H 446.246 1.13628 3.48546 0
M  V30 4821 H 445.894 -0.85524 4.95676 0
M  V30 4822 H 445.594 0.663406 5.83843 0
M  V30 4823 H 447.118 -0.231105 6.10162 0
M  V30 4824 H 448.532 1.92885 5.39878 0
M  V30 4825 H 446.929 2.71853 5.34991 0
M  V30 4826 H 447.999 2.82589 3.94045 0
M  V30 4827 N 449.342 -1.36122 0.79427 0
M  V30 4828 C 450.753 -1.81646 0.431446 0
M  V30 4829 C 451.104 -1.66043 -1.04518 0
M  V30 4830 O 450.229 -1.1841 -1.8113 0
M  V30 4831 C 450.824 -3.29785 0.776341 0
M  V30 4832 C 449.383 -3.73501 0.466282 0
M  V30 4833 C 448.53 -2.58313 1.00844 0
M  V30 4834 H 451.481 -1.24274 0.986995 0
M  V30 4835 H 451.502 -3.80437 0.0692413 0
M  V30 4836 H 451.014 -3.4111 1.8511 0
M  V30 4837 H 449.115 -3.67733 -0.600245 0
M  V30 4838 H 449.228 -4.68754 0.990288 0
M  V30 4839 H 447.592 -2.5102 0.431406 0
M  V30 4840 H 448.375 -2.72421 2.08906 0
M  V30 4841 N 450.82 -0.546701 -1.47814 0
M  V30 4842 C 451.752 0.244196 -2.27895 0
M  V30 4843 C 452.765 0.88911 -1.36377 0
M  V30 4844 O 453.954 0.764733 -1.61289 0
M  V30 4845 C 451.054 1.36252 -3.10304 0
M  V30 4846 C 450.227 0.816382 -4.29714 0
M  V30 4847 C 449.286 1.81789 -4.93801 0
M  V30 4848 O 448.312 1.36818 -5.52512 0
M  V30 4849 N 449.514 3.15085 -4.87547 0
M  V30 4850 H 452.279 -0.442694 -2.96412 0
M  V30 4851 H 449.84 -0.382095 -1.57327 0
M  V30 4852 H 451.832 2.03102 -3.50045 0
M  V30 4853 H 450.402 1.95281 -2.44099 0
M  V30 4854 H 449.622 -0.0285981 -3.9419 0
M  V30 4855 H 450.91 0.430668 -5.06974 0
M  V30 4856 H 450.308 3.54275 -4.41028 0
M  V30 4857 H 448.865 3.77522 -5.31339 0
M  V30 4858 N 452.299 1.55045 -0.282633 0
M  V30 4859 C 453.547 1.99365 0.331334 0
M  V30 4860 C 453.868 1.1725 1.55812 0
M  V30 4861 O 453.138 0.263871 1.94115 0
M  V30 4862 H 451.718 0.736397 0.125414 0
M  V30 4863 H 454.38 1.90964 -0.389711 0
M  V30 4864 H 453.476 3.0596 0.616036 0
M  V30 4865 N 453.777 0.010035 1.57597 0
M  V30 4866 C 455.023 -0.668011 1.92118 0
M  V30 4867 C 455.378 -1.70821 0.885328 0
M  V30 4868 O 454.671 -1.91333 -0.101187 0
M  V30 4869 C 454.865 -1.34434 3.31153 0
M  V30 4870 C 454.694 -0.371176 4.48166 0
M  V30 4871 C 453.464 0.0220686 5.05295 0
M  V30 4872 C 455.662 0.366731 5.12991 0
M  V30 4873 N 453.644 0.9924 6.05826 0
M  V30 4874 C 455.015 1.19142 6.08445 0
M  V30 4875 C 457.07 0.429489 4.96044 0
M  V30 4876 C 455.773 2.07317 6.88776 0
M  V30 4877 C 457.799 1.2985 5.76969 0
M  V30 4878 C 457.161 2.11101 6.72023 0
M  V30 4879 H 453.26 -0.217337 0.751192 0
M  V30 4880 H 455.844 0.0727375 1.94564 0
M  V30 4881 H 454.015 -2.05533 3.29561 0
M  V30 4882 H 455.747 -1.97789 3.53075 0
M  V30 4883 H 452.502 -0.348409 4.72317 0
M  V30 4884 H 452.926 1.47324 6.60776 0
M  V30 4885 H 457.568 -0.18442 4.22398 0
M  V30 4886 H 455.286 2.69771 7.61741 0
M  V30 4887 H 458.872 1.3511 5.65894 0
M  V30 4888 H 457.752 2.77257 7.33552 0
M  V30 4889 N 455.255 -1.55392 -0.262866 0
M  V30 4890 C 456.504 -1.75679 -0.990943 0
M  V30 4891 C 456.817 -0.57097 -1.87081 0
M  V30 4892 O 458.023 -0.656486 -2.63444 0
M  V30 4893 C 456.479 -3.10964 -1.81188 0
M  V30 4894 C 456.087 -4.37146 -0.980188 0
M  V30 4895 C 457.831 -3.40597 -2.53365 0
M  V30 4896 C 455.738 -5.63466 -1.7961 0
M  V30 4897 H 454.668 -0.654868 -0.373716 0
M  V30 4898 H 457.319 -1.81841 -0.246203 0
M  V30 4899 H 455.701 -2.98867 -2.59797 0
M  V30 4900 H 456.875 -4.60187 -0.237558 0
M  V30 4901 H 455.19 -4.14731 -0.372497 0
M  V30 4902 H 457.787 -4.32186 -3.14833 0
M  V30 4903 H 458.13 -2.6119 -3.24169 0
M  V30 4904 H 458.663 -3.53838 -1.81779 0
M  V30 4905 H 455.402 -6.4565 -1.13209 0
M  V30 4906 H 454.922 -5.44552 -2.51443 0
M  V30 4907 H 456.601 -6.02139 -2.36723 0
M  V30 4908 N 456.733 0.527833 -1.48498 0
M  V30 4909 C 457.663 1.64136 -1.66077 0
M  V30 4910 C 458.644 1.62286 -0.509625 0
M  V30 4911 O 459.829 1.79449 -0.742413 0
M  V30 4912 C 456.959 3.02717 -1.70234 0
M  V30 4913 C 455.913 3.19426 -2.8487 0
M  V30 4914 C 455.239 4.5909 -2.74118 0
M  V30 4915 C 456.539 3.01993 -4.26142 0
M  V30 4916 H 458.233 1.4968 -2.593 0
M  V30 4917 H 455.779 0.718654 -1.24785 0
M  V30 4918 H 457.732 3.80491 -1.8112 0
M  V30 4919 H 456.456 3.18201 -0.735911 0
M  V30 4920 H 455.115 2.4407 -2.73542 0
M  V30 4921 H 454.763 4.71413 -1.7544 0
M  V30 4922 H 454.463 4.71214 -3.51042 0
M  V30 4923 H 455.987 5.3896 -2.86974 0
M  V30 4924 H 457.401 3.69558 -4.38292 0
M  V30 4925 H 455.798 3.2561 -5.04082 0
M  V30 4926 H 456.868 1.98396 -4.42456 0
M  V30 4927 N 458.211 1.37122 0.776871 0
M  V30 4928 C 459.436 1.354 1.57104 0
M  V30 4929 C 459.861 -0.0595562 1.88006 0
M  V30 4930 O 459.219 -1.03514 1.48844 0
M  V30 4931 C 459.267 2.19472 2.8612 0
M  V30 4932 O 458.371 1.59582 3.80273 0
M  V30 4933 H 457.712 0.462869 0.476076 0
M  V30 4934 H 460.242 1.80577 0.961932 0
M  V30 4935 H 460.252 2.32502 3.35271 0
M  V30 4936 H 458.927 3.22222 2.62956 0
M  V30 4937 H 457.504 1.55564 3.38902 0
M  V30 4938 N 459.689 -1.00246 1.21608 0
M  V30 4939 C 461.1 -1.55511 1.03312 0
M  V30 4940 C 461.451 -1.91946 -0.406332 0
M  V30 4941 O 460.576 -1.73753 -1.28992 0
M  V30 4942 C 461.171 -2.82576 1.86913 0
M  V30 4943 C 459.73 -3.34318 1.72941 0
M  V30 4944 C 458.877 -2.07487 1.83968 0
M  V30 4945 H 461.828 -0.824638 1.35593 0
M  V30 4946 H 461.849 -3.54559 1.38087 0
M  V30 4947 H 461.361 -2.56026 2.91672 0
M  V30 4948 H 459.462 -3.65797 0.70877 0
M  V30 4949 H 459.575 -4.05566 2.55055 0
M  V30 4950 H 457.939 -2.20603 1.27304 0
M  V30 4951 H 458.722 -1.83346 2.9024 0
M  V30 4952 N 461.167 -1.02423 -1.1978 0
M  V30 4953 C 462.097 -0.62157 -2.25075 0
M  V30 4954 C 463.078 0.367148 -1.6609 0
M  V30 4955 O 464.263 0.250892 -1.92573 0
M  V30 4956 C 461.393 0.0331826 -3.47284 0
M  V30 4957 C 460.347 -0.877323 -4.18912 0
M  V30 4958 C 459.673 -0.0879296 -5.34628 0
M  V30 4959 C 460.973 -2.18892 -4.74219 0
M  V30 4960 H 462.667 -1.50179 -2.59011 0
M  V30 4961 H 460.213 -0.723547 -1.24502 0
M  V30 4962 H 462.166 0.326488 -4.20133 0
M  V30 4963 H 460.89 0.948164 -3.12534 0
M  V30 4964 H 459.549 -1.15475 -3.47938 0
M  V30 4965 H 459.197 0.828941 -4.96123 0
M  V30 4966 H 458.897 -0.694359 -5.83483 0
M  V30 4967 H 460.421 0.198743 -6.10276 0
M  V30 4968 H 461.835 -1.95746 -5.38847 0
M  V30 4969 H 460.232 -2.74686 -5.33542 0
M  V30 4970 H 461.302 -2.84674 -3.92541 0
M  V30 4971 N 462.645 1.35699 -0.801477 0
M  V30 4972 C 463.894 1.98165 -0.375979 0
M  V30 4973 C 464.207 1.64306 1.06127 0
M  V30 4974 O 465.413 2.20097 1.58964 0
M  V30 4975 C 463.869 3.54497 -0.621305 0
M  V30 4976 C 463.477 3.9727 -2.07076 0
M  V30 4977 C 465.221 4.23697 -0.26091 0
M  V30 4978 C 463.128 5.46427 -2.26211 0
M  V30 4979 H 462.058 0.741478 -0.136844 0
M  V30 4980 H 464.709 1.54834 -0.984814 0
M  V30 4981 H 463.091 3.95958 0.0574112 0
M  V30 4982 H 464.265 3.66974 -2.78687 0
M  V30 4983 H 462.58 3.40943 -2.39054 0
M  V30 4984 H 465.177 5.33334 -0.381994 0
M  V30 4985 H 465.52 4.0869 0.792344 0
M  V30 4986 H 466.053 3.87639 -0.893339 0
M  V30 4987 H 462.792 5.66396 -3.29963 0
M  V30 4988 H 462.312 5.78309 -1.59119 0
M  V30 4989 H 463.991 6.12819 -2.07513 0
M  V30 4990 N 464.123 0.554532 1.47522 0
M  V30 4991 C 465.353 0.0342074 2.06572 0
M  V30 4992 C 465.761 -1.26375 1.40805 0
M  V30 4993 O 465.104 -1.7683 0.49769 0
M  V30 4994 C 465.166 -0.235096 3.5873 0
M  V30 4995 C 464.83 0.973024 4.46521 0
M  V30 4996 C 465.827 1.8779 4.848 0
M  V30 4997 C 463.512 1.18694 4.88075 0
M  V30 4998 C 465.506 2.98039 5.63428 0
M  V30 4999 C 463.193 2.29254 5.66468 0
M  V30 5000 C 464.191 3.18757 6.04055 0
M  V30 5001 O 463.879 4.27401 6.8087 0
M  V30 5002 H 463.611 0.041587 0.67472 0
M  V30 5003 H 466.165 0.766748 1.90552 0
M  V30 5004 H 464.395 -1.02191 3.72953 0
M  V30 5005 H 466.084 -0.700477 3.9981 0
M  V30 5006 H 466.85 1.72467 4.53299 0
M  V30 5007 H 462.729 0.49947 4.58286 0
M  V30 5008 H 466.273 3.67926 5.92685 0
M  V30 5009 H 462.17 2.4455 5.97382 0
M  V30 5010 H 462.938 4.25415 6.9926 0
M  V30 5011 N 465.601 -1.54893 0.290851 0
M  V30 5012 C 466.533 -2.20564 -0.623236 0
M  V30 5013 C 467.546 -1.19519 -1.1054 0
M  V30 5014 O 468.735 -1.46165 -1.02459 0
M  V30 5015 C 465.835 -2.83033 -1.86401 0
M  V30 5016 C 465.008 -4.09916 -1.52604 0
M  V30 5017 C 464.067 -4.56284 -2.62091 0
M  V30 5018 O 463.093 -5.2171 -2.27612 0
M  V30 5019 N 464.295 -4.27746 -3.92446 0
M  V30 5020 H 467.06 -2.99638 -0.0610915 0
M  V30 5021 H 464.621 -1.61508 0.112615 0
M  V30 5022 H 466.613 -3.1099 -2.58973 0
M  V30 5023 H 465.183 -2.0786 -2.33481 0
M  V30 5024 H 464.403 -3.89078 -0.633424 0
M  V30 5025 H 465.691 -4.92554 -1.27547 0
M  V30 5026 H 465.089 -3.7531 -4.23272 0
M  V30 5027 H 463.646 -4.60437 -4.61347 0
M  V30 5028 N 467.08 -0.0183926 -1.57589 0
M  V30 5029 C 468.305 0.676634 -1.96052 0
M  V30 5030 C 468.73 1.6548 -0.894307 0
M  V30 5031 O 468.088 1.80712 0.145849 0
M  V30 5032 C 468.136 1.36872 -3.33614 0
M  V30 5033 O 467.24 2.48372 -3.29219 0
M  V30 5034 H 466.581 0.1786 -0.63953 0
M  V30 5035 H 469.111 -0.077056 -2.04455 0
M  V30 5036 H 469.121 1.72797 -3.69601 0
M  V30 5037 H 467.796 0.651636 -4.10763 0
M  V30 5038 H 466.373 2.14639 -3.04934 0
M  V30 5039 N 468.558 1.5553 0.254621 0
M  V30 5040 C 469.786 1.81046 1.00149 0
M  V30 5041 C 470.201 0.593047 1.79244 0
M  V30 5042 O 469.558 -0.438196 1.77161 0
M  V30 5043 C 469.609 3.04684 1.94551 0
M  V30 5044 O 469.33 4.21725 1.18658 0
M  V30 5045 C 470.831 3.42943 2.80901 0
M  V30 5046 H 468.051 0.602653 0.295044 0
M  V30 5047 H 470.595 2.02576 0.279842 0
M  V30 5048 H 468.75 2.85226 2.62154 0
M  V30 5049 H 469.164 4.91746 1.82445 0
M  V30 5050 H 470.638 4.32576 3.42902 0
M  V30 5051 H 471.115 2.63176 3.51617 0
M  V30 5052 H 471.721 3.64724 2.18762 0
M  V30 5053 N 470.036 -0.519951 1.48776 0
M  V30 5054 C 470.966 -1.63253 1.66945 0
M  V30 5055 C 471.947 -1.62014 0.518224 0
M  V30 5056 O 473.132 -1.79053 0.751919 0
M  V30 5057 C 470.262 -3.0181 1.71836 0
M  V30 5058 C 469.216 -3.17911 2.8656 0
M  V30 5059 C 468.542 -4.5763 2.76548 0
M  V30 5060 C 469.842 -2.99729 4.27738 0
M  V30 5061 H 471.536 -1.48302 2.6009 0
M  V30 5062 H 469.082 -0.712026 1.25165 0
M  V30 5063 H 471.035 -3.79525 1.83135 0
M  V30 5064 H 469.759 -3.17806 0.752775 0
M  V30 5065 H 468.418 -2.42616 2.74833 0
M  V30 5066 H 468.066 -4.70476 1.77937 0
M  V30 5067 H 467.766 -4.69346 3.53536 0
M  V30 5068 H 469.29 -5.37431 2.89828 0
M  V30 5069 H 470.704 -3.67228 4.40246 0
M  V30 5070 H 469.101 -3.22932 5.05801 0
M  V30 5071 H 470.171 -1.96047 4.43502 0
M  V30 5072 N 471.514 -1.37532 -0.769588 0
M  V30 5073 C 472.791 -1.23392 -1.51768 0
M  V30 5074 C 473.171 0.17157 -2.10402 0
M  V30 5075 O 472.519 1.17943 -1.95708 0
M  V30 5076 C 472.729 -2.33163 -2.59685 0
M  V30 5077 C 474.077 -2.70809 -3.27028 0
M  V30 5078 O 475.101 -2.32355 -2.69981 0
M  V30 5079 O 473.96 -3.37066 -4.30173 0
M  V30 5080 H 471.054 -0.481617 -0.67229 0
M  V30 5081 H 473.6 -1.49318 -0.806368 0
M  V30 5082 H 472.372 -3.27273 -2.14494 0
M  V30 5083 H 471.995 -2.08713 -3.38415 0
M  V30 5084 N 472.992 0.995999 -1.22138 0
M  V30 5085 C 473.94 2.10673 -0.985876 0
M  V30 5086 C 474.934 1.69255 0.0699553 0
M  V30 5087 O 476.14 1.79812 -0.0822176 0
M  V30 5088 H 472.515 0.688865 -0.30161 0
M  V30 5089 H 474.486 2.27711 -1.92848 0
M  V30 5090 C 473.235 3.42881 -0.576909 0
M  V30 5091 H 472.558 3.75191 -1.38101 0
M  V30 5092 H 473.998 4.21589 -0.451518 0
M  V30 5093 C 472.457 3.29265 0.713196 0
M  V30 5094 O 472.987 3.60777 1.76643 0
M  V30 5095 N 471.193 2.82456 0.683162 0
M  V30 5096 H 470.74 2.5701 -0.174242 0
M  V30 5097 H 470.698 2.73727 1.54663 0
M  V30 5098 N 474.47 1.03057 1.19235 0
M  V30 5099 C 475.719 0.72326 1.88287 0
M  V30 5100 C 476.032 -0.751333 1.80594 0
M  V30 5101 O 477.238 -1.17176 2.44912 0
M  V30 5102 C 475.694 1.24338 3.3774 0
M  V30 5103 C 475.302 2.74587 3.53986 0
M  V30 5104 C 477.046 1.01213 4.12257 0
M  V30 5105 C 474.953 3.20009 4.97341 0
M  V30 5106 H 473.883 0.266848 0.705201 0
M  V30 5107 H 476.534 1.24509 1.34795 0
M  V30 5108 H 474.916 0.649457 3.90638 0
M  V30 5109 H 476.09 3.39649 3.11408 0
M  V30 5110 H 474.405 2.9601 2.9286 0
M  V30 5111 H 477.002 1.32675 5.17978 0
M  V30 5112 H 477.345 -0.051001 4.16269 0
M  V30 5113 H 477.878 1.57014 3.65501 0
M  V30 5114 H 474.617 4.25659 4.98493 0
M  V30 5115 H 474.137 2.59676 5.40674 0
M  V30 5116 H 475.816 3.13447 5.66003 0
M  V30 5117 N 475.948 -1.35272 0.808662 0
M  V30 5118 C 477.197 -1.97963 0.386483 0
M  V30 5119 C 477.51 -1.64866 -1.05255 0
M  V30 5120 O 478.716 -2.20937 -1.57794 0
M  V30 5121 C 477.172 -3.54162 0.640096 0
M  V30 5122 C 476.78 -3.96166 2.0918 0
M  V30 5123 C 478.524 -4.23553 0.283376 0
M  V30 5124 C 476.431 -5.4522 2.29106 0
M  V30 5125 H 475.361 -0.740742 0.140774 0
M  V30 5126 H 478.012 -1.5431 0.993012 0
M  V30 5127 H 476.394 -3.95983 -0.0364117 0
M  V30 5128 H 477.568 -3.65491 2.80629 0
M  V30 5129 H 475.883 -3.3967 2.40859 0
M  V30 5130 H 478.48 -5.33124 0.410273 0
M  V30 5131 H 478.823 -4.09105 -0.770659 0
M  V30 5132 H 479.356 -3.8716 0.913884 0
M  V30 5133 H 476.095 -5.64638 3.32962 0
M  V30 5134 H 475.615 -5.77457 1.62184 0
M  V30 5135 H 477.294 -6.1171 2.1076 0
M  V30 5136 N 477.426 -0.562348 -1.47226 0
M  V30 5137 C 478.358 0.220011 -2.28142 0
M  V30 5138 C 479.371 0.874596 -1.37312 0
M  V30 5139 O 480.56 0.747583 -1.62091 0
M  V30 5140 C 477.66 1.32953 -3.11732 0
M  V30 5141 C 476.833 0.770759 -4.30556 0
M  V30 5142 C 475.892 1.76541 -4.95701 0
M  V30 5143 O 474.918 1.3095 -5.53932 0
M  V30 5144 N 476.12 3.09896 -4.90861 0
M  V30 5145 H 478.885 -0.474107 -2.95926 0
M  V30 5146 H 476.446 -0.398761 -1.56912 0
M  V30 5147 H 478.438 1.99378 -3.5218 0
M  V30 5148 H 477.008 1.92681 -2.46156 0
M  V30 5149 H 476.228 -0.0704056 -3.94137 0
M  V30 5150 H 477.516 0.376872 -5.07402 0
M  V30 5151 H 476.914 3.49577 -4.44761 0
M  V30 5152 H 475.471 3.71865 -5.35313 0
M  V30 5153 N 478.904 1.54736 -0.299062 0
M  V30 5154 C 480.315 1.8569 0.193971 0
M  V30 5155 C 480.666 1.22101 1.53577 0
M  V30 5156 O 479.791 0.51799 2.10109 0
M  V30 5157 C 480.386 3.36895 0.358733 0
M  V30 5158 C 478.945 3.67887 0.795986 0
M  V30 5159 C 478.092 2.77131 -0.096807 0
M  V30 5160 H 481.043 1.49934 -0.520134 0
M  V30 5161 H 481.064 3.61294 1.19361 0
M  V30 5162 H 480.576 3.83148 -0.617998 0
M  V30 5163 H 478.677 3.27151 1.78334 0
M  V30 5164 H 478.79 4.75114 0.616718 0
M  V30 5165 H 477.154 2.51153 0.423581 0
M  V30 5166 H 477.937 3.26204 -1.06986 0
M  V30 5167 N 480.382 0.0267497 1.57577 0
M  V30 5168 C 481.629 -0.652404 1.91703 0
M  V30 5169 C 481.957 -1.72271 0.902936 0
M  V30 5170 O 481.212 -1.955 -0.0884843 0
M  V30 5171 C 481.511 -1.30914 3.3256 0
M  V30 5172 C 481.177 -0.369441 4.49384 0
M  V30 5173 C 479.839 -0.110791 4.81072 0
M  V30 5174 C 482.191 0.275971 5.20469 0
M  V30 5175 C 479.519 0.801116 5.81205 0
M  V30 5176 C 481.871 1.17592 6.21575 0
M  V30 5177 C 480.535 1.44348 6.51705 0
M  V30 5178 H 479.805 -0.238732 0.70149 0
M  V30 5179 H 482.452 0.0880091 1.91298 0
M  V30 5180 H 480.757 -2.12425 3.29216 0
M  V30 5181 H 482.454 -1.84115 3.56234 0
M  V30 5182 H 479.044 -0.581211 4.24641 0
M  V30 5183 H 483.228 0.0892 4.9622 0
M  V30 5184 H 478.484 1.01614 6.02897 0
M  V30 5185 H 482.658 1.68223 6.75777 0
M  V30 5186 H 480.285 2.15176 7.29111 0
M  V30 5187 N 481.861 -1.55662 -0.24637 0
M  V30 5188 C 483.11 -1.7672 -0.972254 0
M  V30 5189 C 483.423 -0.59078 -1.86465 0
M  V30 5190 O 484.629 -0.684391 -2.62732 0
M  V30 5191 C 483.085 -3.12869 -1.7788 0
M  V30 5192 C 482.693 -4.38161 -0.933768 0
M  V30 5193 C 484.437 -3.43265 -2.49738 0
M  V30 5194 C 482.344 -5.6534 -1.73623 0
M  V30 5195 H 481.274 -0.658795 -0.366749 0
M  V30 5196 H 483.925 -1.82092 -0.226902 0
M  V30 5197 H 482.307 -3.01606 -2.56612 0
M  V30 5198 H 483.481 -4.60413 -0.188736 0
M  V30 5199 H 481.796 -4.15102 -0.328488 0
M  V30 5200 H 484.393 -4.35501 -3.10231 0
M  V30 5201 H 484.736 -2.64614 -3.2138 0
M  V30 5202 H 485.269 -3.55746 -1.78016 0
M  V30 5203 H 482.008 -6.46814 -1.06354 0
M  V30 5204 H 481.528 -5.47188 -2.45653 0
M  V30 5205 H 483.207 -6.04616 -2.30323 0
M  V30 5206 N 483.339 0.512053 -1.4905 0
M  V30 5207 C 484.755 0.84224 -1.35567 0
M  V30 5208 C 484.955 1.97878 -0.380319 0
M  V30 5209 O 484.011 2.51769 0.19201 0
M  V30 5210 C 485.324 1.19286 -2.76028 0
M  V30 5211 C 486.872 1.30171 -2.84648 0
M  V30 5212 C 487.347 1.68568 -4.25851 0
M  V30 5213 N 488.838 1.75638 -4.28609 0
M  V30 5214 C 489.573 2.06769 -5.34821 0
M  V30 5215 N 489.069 2.36201 -6.51292 0
M  V30 5216 N 490.862 2.07927 -5.22229 0
M  V30 5217 H 483.013 -0.237574 -2.11067 0
M  V30 5218 H 485.276 -0.0436747 -0.946993 0
M  V30 5219 H 484.982 0.431199 -3.49047 0
M  V30 5220 H 484.856 2.13889 -3.10695 0
M  V30 5221 H 487.243 2.05411 -2.11873 0
M  V30 5222 H 487.324 0.336457 -2.53578 0
M  V30 5223 H 486.968 0.938824 -4.99148 0
M  V30 5224 H 486.898 2.66174 -4.54377 0
M  V30 5225 H 489.389 1.55097 -3.44606 0
M  V30 5226 H 489.702 2.59112 -7.28066 0
M  V30 5227 H 488.047 2.33681 -6.54536 0
M  V30 5228 H 491.238 1.84403 -4.30248 0
M  V30 5229 H 491.411 2.31856 -6.05101 0
M  V30 5230 N 484.817 1.37938 0.762283 0
M  V30 5231 C 485.749 1.30349 1.88525 0
M  V30 5232 C 486.762 0.217402 1.61342 0
M  V30 5233 O 487.951 0.474291 1.72084 0
M  V30 5234 C 485.051 0.994844 3.23969 0
M  V30 5235 C 484.224 2.18829 3.78725 0
M  V30 5236 C 483.283 1.84844 4.92665 0
M  V30 5237 O 482.309 2.57244 5.07754 0
M  V30 5238 N 483.511 0.798201 5.74986 0
M  V30 5239 H 486.276 2.27114 1.95549 0
M  V30 5240 H 483.837 1.31686 0.941825 0
M  V30 5241 H 485.829 0.748168 3.97724 0
M  V30 5242 H 484.399 0.115446 3.12387 0
M  V30 5243 H 483.619 2.59615 2.96637 0
M  V30 5244 H 484.907 2.98497 4.1204 0
M  V30 5245 H 484.305 0.197611 5.65355 0
M  V30 5246 H 482.862 0.611396 6.48926 0
M  V30 5247 N 486.295 -0.989507 1.22664 0
M  V30 5248 C 487.243 -2.10148 0.997035 0
M  V30 5249 C 488.237 -1.6929 -0.0609783 0
M  V30 5250 O 489.443 -1.79766 0.0917523 0
M  V30 5251 H 485.818 -0.687256 0.305259 0
M  V30 5252 H 487.789 -2.26685 1.94053 0
M  V30 5253 C 486.538 -3.4257 0.595085 0
M  V30 5254 H 485.861 -3.74453 1.40089 0
M  V30 5255 H 487.301 -4.21344 0.473869 0
M  V30 5256 C 485.76 -3.29638 -0.695725 0
M  V30 5257 O 486.29 -3.61709 -1.74727 0
M  V30 5258 N 484.496 -2.82814 -0.668173 0
M  V30 5259 H 484.043 -2.56914 0.18787 0
M  V30 5260 H 484.001 -2.74544 -1.5321 0
M  V30 5261 N 487.773 -1.03688 -1.18687 0
M  V30 5262 C 489.184 -0.766488 -1.70241 0
M  V30 5263 C 489.535 0.713052 -1.82784 0
M  V30 5264 O 488.66 1.55529 -1.50465 0
M  V30 5265 C 489.255 -1.38475 -3.09209 0
M  V30 5266 C 487.814 -1.16276 -3.5799 0
M  V30 5267 C 486.961 -1.4778 -2.34641 0
M  V30 5268 H 489.912 -1.20378 -1.03415 0
M  V30 5269 H 489.933 -0.785939 -3.72295 0
M  V30 5270 H 489.445 -2.46157 -3.00048 0
M  V30 5271 H 487.546 -0.104508 -3.72453 0
M  V30 5272 H 487.659 -1.8571 -4.41643 0
M  V30 5273 H 486.023 -0.897366 -2.38368 0
M  V30 5274 H 486.806 -2.56562 -2.28102 0
M  V30 5275 N 489.251 1.34841 -0.815825 0
M  V30 5276 C 490.183 2.28409 -0.190265 0
M  V30 5277 C 491.196 1.50705 0.615771 0
M  V30 5278 O 492.385 1.72822 0.446616 0
M  V30 5279 C 489.485 3.30441 0.752446 0
M  V30 5280 C 488.658 4.37399 -0.00922152 0
M  V30 5281 C 487.717 5.19234 0.853351 0
M  V30 5282 O 486.743 5.68404 0.300919 0
M  V30 5283 N 487.945 5.38248 2.17416 0
M  V30 5284 H 490.71 2.82732 -0.994114 0
M  V30 5285 H 488.271 1.47289 -0.672129 0
M  V30 5286 H 490.263 3.82084 1.33394 0
M  V30 5287 H 488.833 2.76565 1.45707 0
M  V30 5288 H 488.053 3.86567 -0.771979 0
M  V30 5289 H 489.341 5.05992 -0.533807 0
M  V30 5290 H 488.739 4.99961 2.6468 0
M  V30 5291 H 487.296 5.93035 2.70467 0
M  V30 5292 N 490.729 0.570148 1.46925 0
M  V30 5293 C 491.659 -0.158274 2.32963 0
M  V30 5294 C 492.64 -0.896093 1.44583 0
M  V30 5295 O 493.825 -0.874022 1.7342 0
M  V30 5296 C 490.955 -1.18055 3.26619 0
M  V30 5297 C 489.909 -0.558379 4.24342 0
M  V30 5298 C 489.235 -1.68623 5.07415 0
M  V30 5299 C 490.535 0.496295 5.19937 0
M  V30 5300 H 492.229 0.560046 2.94115 0
M  V30 5301 H 489.775 0.270775 1.41431 0
M  V30 5302 H 491.728 -1.69841 3.85658 0
M  V30 5303 H 490.452 -1.92899 2.63548 0
M  V30 5304 H 489.111 -0.0617157 3.66548 0
M  V30 5305 H 488.759 -2.42402 4.40738 0
M  V30 5306 H 488.459 -1.27564 5.73586 0
M  V30 5307 H 489.983 -2.20709 5.69315 0
M  V30 5308 H 491.397 0.0640052 5.73264 0
M  V30 5309 H 489.794 0.82649 5.94381 0
M  V30 5310 H 490.864 1.38735 4.6463 0
M  V30 5311 N 492.207 -1.54576 0.307264 0
M  V30 5312 C 493.484 -1.92377 -0.353605 0
M  V30 5313 C 493.864 -1.23517 -1.71192 0
M  V30 5314 O 493.212 -0.373101 -2.25433 0
M  V30 5315 C 493.422 -3.45928 -0.462039 0
M  V30 5316 C 494.77 -4.18278 -0.729975 0
M  V30 5317 O 495.794 -3.51997 -0.545605 0
M  V30 5318 O 494.653 -5.3563 -1.08454 0
M  V30 5319 H 491.747 -0.802747 -0.198812 0
M  V30 5320 H 494.293 -1.65929 0.355783 0
M  V30 5321 H 493.065 -3.88187 0.492592 0
M  V30 5322 H 492.688 -3.78431 -1.21965 0
M  V30 5323 N 493.685 -0.035106 -1.57561 0
M  V30 5324 C 494.934 0.641604 -1.91223 0
M  V30 5325 C 495.247 1.72944 -0.913761 0
M  V30 5326 O 496.453 2.46321 -1.14185 0
M  V30 5327 C 494.909 1.19249 -3.3957 0
M  V30 5328 C 494.517 0.137616 -4.47789 0
M  V30 5329 C 496.261 1.84537 -3.82291 0
M  V30 5330 C 494.168 0.700478 -5.87237 0
M  V30 5331 H 493.098 0.243417 -0.713627 0
M  V30 5332 H 495.749 -0.101382 -1.8322 0
M  V30 5333 H 494.131 1.98728 -3.42525 0
M  V30 5334 H 495.305 -0.635153 -4.56402 0
M  V30 5335 H 493.62 -0.416855 -4.14308 0
M  V30 5336 H 496.217 2.27616 -4.83834 0
M  V30 5337 H 496.56 2.69054 -3.17672 0
M  V30 5338 H 497.093 1.11739 -3.81784 0
M  V30 5339 H 493.832 -0.106693 -6.55413 0
M  V30 5340 H 493.352 1.4416 -5.82218 0
M  V30 5341 H 495.031 1.18837 -6.35993 0
M  V30 5342 N 495.163 1.55791 0.238111 0
M  V30 5343 C 496.393 1.81834 0.980809 0
M  V30 5344 C 496.801 0.609741 1.79106 0
M  V30 5345 O 496.144 -0.431073 1.78571 0
M  V30 5346 C 496.206 3.01363 1.96011 0
M  V30 5347 C 495.87 4.37037 1.33597 0
M  V30 5348 C 496.867 5.14692 0.734063 0
M  V30 5349 C 494.552 4.83743 1.3527 0
M  V30 5350 C 496.546 6.37206 0.157208 0
M  V30 5351 C 494.233 6.06204 0.77199 0
M  V30 5352 C 495.231 6.82775 0.175282 0
M  V30 5353 O 494.919 8.02922 -0.396432 0
M  V30 5354 H 494.651 0.6088 0.293834 0
M  V30 5355 H 497.205 2.03702 0.263552 0
M  V30 5356 H 495.435 2.75273 2.71591 0
M  V30 5357 H 497.124 3.14422 2.56697 0
M  V30 5358 H 497.89 4.79722 0.713582 0
M  V30 5359 H 493.769 4.24129 1.80653 0
M  V30 5360 H 497.313 6.96915 -0.30917 0
M  V30 5361 H 493.21 6.4065 0.789828 0
M  V30 5362 H 493.978 8.17989 -0.289145 0
M  V30 5363 N 496.642 -0.504142 1.49319 0
M  V30 5364 C 497.574 -1.62265 1.61872 0
M  V30 5365 C 498.587 -1.54881 0.501573 0
M  V30 5366 O 499.776 -1.6087 0.773497 0
M  V30 5367 C 496.876 -3.01042 1.55651 0
M  V30 5368 C 496.049 -3.33642 2.82845 0
M  V30 5369 C 495.108 -4.51816 2.69719 0
M  V30 5370 O 494.134 -4.53755 3.4365 0
M  V30 5371 N 495.336 -5.51543 1.81055 0
M  V30 5372 H 498.101 -1.51924 2.58339 0
M  V30 5373 H 495.662 -0.691954 1.46368 0
M  V30 5374 H 497.654 -3.78013 1.44528 0
M  V30 5375 H 496.224 -3.05323 0.670546 0
M  V30 5376 H 495.444 -2.45598 3.08343 0
M  V30 5377 H 496.732 -3.5222 3.67177 0
M  V30 5378 H 496.13 -5.52774 1.20241 0
M  V30 5379 H 494.687 -6.27629 1.75856 0
M  V30 5380 N 498.12 -1.38341 -0.754957 0
M  V30 5381 C 499.35 -1.37504 -1.54195 0
M  V30 5382 C 499.758 0.0373787 -1.89163 0
M  V30 5383 O 499.101 1.01402 -1.53178 0
M  V30 5384 C 499.163 -2.16488 -2.87008 0
M  V30 5385 C 498.827 -3.65311 -2.74585 0
M  V30 5386 C 499.824 -4.58834 -2.44474 0
M  V30 5387 C 497.509 -4.08649 -2.9208 0
M  V30 5388 C 499.503 -5.93675 -2.32011 0
M  V30 5389 C 497.19 -5.43571 -2.79237 0
M  V30 5390 C 498.188 -6.35898 -2.49245 0
M  V30 5391 O 497.876 -7.68338 -2.36458 0
M  V30 5392 H 497.608 -0.472159 -0.483779 0
M  V30 5393 H 500.162 -1.82515 -0.94221 0
M  V30 5394 H 498.392 -1.66194 -3.49166 0
M  V30 5395 H 500.081 -2.08076 -3.4851 0
M  V30 5396 H 500.847 -4.26657 -2.30627 0
M  V30 5397 H 496.726 -3.37134 -3.14422 0
M  V30 5398 H 500.27 -6.65706 -2.08522 0
M  V30 5399 H 496.167 -5.75345 -2.92657 0
M  V30 5400 H 496.935 -7.78845 -2.5168 0
M  V30 5401 N 499.598 0.982988 -1.23187 0
M  V30 5402 C 500.531 2.07302 -0.953993 0
M  V30 5403 C 501.509 1.62249 0.106753 0
M  V30 5404 O 502.693 1.88481 -0.0269525 0
M  V30 5405 C 499.82 3.35873 -0.436716 0
M  V30 5406 C 498.866 3.99862 -1.48367 0
M  V30 5407 S 499.699 4.39443 -3.06023 0
M  V30 5408 C 500.855 5.7117 -2.55959 0
M  V30 5409 H 501.088 2.30554 -1.87702 0
M  V30 5410 H 498.621 1.11883 -1.06403 0
M  V30 5411 H 500.579 4.10244 -0.144872 0
M  V30 5412 H 499.24 3.10634 0.465351 0
M  V30 5413 H 498.433 4.92471 -1.07182 0
M  V30 5414 H 498.035 3.31857 -1.72473 0
M  V30 5415 H 500.327 6.47977 -1.97818 0
M  V30 5416 H 501.27 6.17194 -3.47098 0
M  V30 5417 H 501.678 5.29046 -1.96902 0
M  V30 5418 N 501.076 1.04316 1.18135 0
M  V30 5419 C 502.353 0.662166 1.84051 0
M  V30 5420 C 502.733 -0.858169 1.9287 0
M  V30 5421 O 502.081 -1.76062 1.45652 0
M  V30 5422 C 502.291 1.3409 3.22212 0
M  V30 5423 C 503.639 1.4733 3.9822 0
M  V30 5424 O 504.663 1.29921 3.31661 0
M  V30 5425 O 503.522 1.75722 5.17479 0
M  V30 5426 H 500.616 0.232005 0.79379 0
M  V30 5427 H 503.162 1.1422 1.25506 0
M  V30 5428 H 501.934 2.37853 3.10711 0
M  V30 5429 H 501.557 0.849649 3.88416 0
M  V30 5430 N 502.554 -1.34406 0.822964 0
M  V30 5431 C 503.831 -1.92733 0.333641 0
M  V30 5432 C 504.211 -1.75107 -1.17901 0
M  V30 5433 O 503.559 -1.12983 -1.98613 0
M  V30 5434 C 503.769 -3.40557 0.763023 0
M  V30 5435 C 505.117 -4.17709 0.761879 0
M  V30 5436 O 506.141 -3.49141 0.705606 0
M  V30 5437 O 505 -5.40082 0.835109 0
M  V30 5438 H 502.094 -0.821964 0.0911249 0
M  V30 5439 H 504.64 -1.4338 0.907757 0
M  V30 5440 H 503.412 -3.47187 1.8049 0
M  V30 5441 H 503.035 -3.97259 0.164605 0
M  V30 5442 N 504.032 -0.577932 -1.46621 0
M  V30 5443 C 505.281 -0.0594281 -2.01612 0
M  V30 5444 C 505.594 1.30663 -1.45556 0
M  V30 5445 O 506.8 1.91621 -1.92337 0
M  V30 5446 C 505.256 -0.0556666 -3.59857 0
M  V30 5447 C 504.864 -1.41975 -4.24908 0
M  V30 5448 C 506.608 0.409143 -4.22524 0
M  V30 5449 C 504.515 -1.37397 -5.75218 0
M  V30 5450 H 503.445 -0.0184469 -0.753774 0
M  V30 5451 H 506.096 -0.728869 -1.68404 0
M  V30 5452 H 504.478 0.679843 -3.90121 0
M  V30 5453 H 505.652 -2.17461 -4.0626 0
M  V30 5454 H 503.967 -1.82419 -3.74316 0
M  V30 5455 H 506.564 0.46211 -5.32699 0
M  V30 5456 H 506.907 1.42565 -3.91128 0
M  V30 5457 H 507.44 -0.272152 -3.96868 0
M  V30 5458 H 504.179 -2.36714 -6.11267 0
M  V30 5459 H 503.699 -0.661239 -5.96144 0
M  V30 5460 H 505.378 -1.08484 -6.3784 0
M  V30 5461 N 505.51 1.54411 -0.315457 0
M  V30 5462 C 506.74 2.04536 0.291315 0
M  V30 5463 C 507.148 1.19162 1.4696 0
M  V30 5464 O 506.491 0.213199 1.82459 0
M  V30 5465 C 506.553 3.5056 0.796725 0
M  V30 5466 C 506.217 4.5627 -0.258178 0
M  V30 5467 C 507.214 5.08312 -1.09153 0
M  V30 5468 C 504.899 5.00672 -0.404036 0
M  V30 5469 C 506.893 6.03312 -2.05655 0
M  V30 5470 C 504.58 5.95488 -1.37248 0
M  V30 5471 C 505.578 6.46693 -2.19721 0
M  V30 5472 O 505.266 7.39648 -3.14921 0
M  V30 5473 H 504.998 0.672856 0.0651165 0
M  V30 5474 H 507.552 2.00244 -0.457308 0
M  V30 5475 H 505.782 3.52223 1.59612 0
M  V30 5476 H 507.471 3.83804 1.32096 0
M  V30 5477 H 508.237 4.74793 -0.98979 0
M  V30 5478 H 504.116 4.60436 0.22799 0
M  V30 5479 H 507.66 6.43203 -2.70067 0
M  V30 5480 H 503.557 6.28424 -1.47489 0
M  V30 5481 H 504.325 7.57496 -3.10067 0
M  V30 5482 N 506.988 0.0434614 1.5754 0
M  V30 5483 C 508.237 -0.631454 1.91561 0
M  V30 5484 C 508.55 -1.72457 0.92292 0
M  V30 5485 O 509.756 -2.45712 1.15489 0
M  V30 5486 C 508.212 -1.17447 3.40197 0
M  V30 5487 C 507.82 -0.113867 4.47855 0
M  V30 5488 C 509.564 -1.82507 3.83264 0
M  V30 5489 C 507.471 -0.669326 5.876 0
M  V30 5490 H 506.401 -0.239629 0.714908 0
M  V30 5491 H 509.052 0.111097 1.83163 0
M  V30 5492 H 507.434 -1.96909 3.43574 0
M  V30 5493 H 508.608 0.659348 4.56058 0
M  V30 5494 H 506.923 0.438821 4.14081 0
M  V30 5495 H 509.52 -2.25047 4.85034 0
M  V30 5496 H 509.863 -2.67365 3.19095 0
M  V30 5497 H 510.396 -1.09712 3.82372 0
M  V30 5498 H 507.135 0.141449 6.55347 0
M  V30 5499 H 506.655 -1.4107 5.82974 0
M  V30 5500 H 508.334 -1.15463 6.36614 0
M  V30 5501 N 508.466 -1.55915 -0.229846 0
M  V30 5502 C 509.714 -1.7819 -0.953565 0
M  V30 5503 C 510.035 -0.610504 -1.85197 0
M  V30 5504 O 509.305 0.372988 -1.92316 0
M  V30 5505 H 507.885 -0.657208 -0.355087 0
M  V30 5506 H 510.547 -1.9337 -0.243693 0
M  V30 5507 H 509.643 -2.70011 -1.56527 0
M  V30 5508 N 509.944 0.496216 -1.49584 0
M  V30 5509 C 511.169 1.27865 -1.63295 0
M  V30 5510 C 511.594 1.85592 -0.306156 0
M  V30 5511 O 510.952 1.66092 0.726851 0
M  V30 5512 C 511 2.38128 -2.7079 0
M  V30 5513 O 510.104 3.42108 -2.30296 0
M  V30 5514 H 509.445 0.377279 -0.546403 0
M  V30 5515 H 511.975 0.593497 -1.95803 0
M  V30 5516 H 511.985 2.8382 -2.93104 0
M  V30 5517 H 510.66 1.95479 -3.67098 0
M  V30 5518 H 509.237 3.02301 -2.18331 0
M  V30 5519 N 511.423 1.38739 0.74761 0
M  V30 5520 C 512.371 1.36573 1.88283 0
M  V30 5521 C 513.365 0.250712 1.67534 0
M  V30 5522 O 514.571 0.420073 1.7503 0
M  V30 5523 H 510.946 0.42619 0.619569 0
M  V30 5524 H 512.917 2.32356 1.87226 0
M  V30 5525 C 511.666 1.21361 3.25832 0
M  V30 5526 H 510.989 2.06424 3.42388 0
M  V30 5527 H 512.429 1.23901 4.05493 0
M  V30 5528 C 510.888 -0.0790099 3.36807 0
M  V30 5529 O 511.418 -1.05385 3.8763 0
M  V30 5530 N 509.624 -0.13785 2.90273 0
M  V30 5531 H 509.171 0.656128 2.49104 0
M  V30 5532 H 509.129 -1.00228 2.97996 0
M  V30 5533 N 512.901 -0.976442 1.23707 0
M  V30 5534 C 513.831 -2.08749 1.04624 0
M  V30 5535 C 514.812 -1.70057 -0.0380956 0
M  V30 5536 O 515.997 -1.93782 0.127308 0
M  V30 5537 C 513.127 -3.41335 0.640902 0
M  V30 5538 C 512.081 -3.93947 1.67302 0
M  V30 5539 C 511.407 -5.22774 1.12301 0
M  V30 5540 C 512.707 -4.22769 3.06697 0
M  V30 5541 H 514.401 -2.24972 1.97555 0
M  V30 5542 H 511.947 -1.08108 0.951247 0
M  V30 5543 H 513.9 -4.18489 0.494434 0
M  V30 5544 H 512.624 -3.24988 -0.324099 0
M  V30 5545 H 511.283 -3.18941 1.80755 0
M  V30 5546 H 510.931 -5.0278 0.148877 0
M  V30 5547 H 510.631 -5.58942 1.81267 0
M  V30 5548 H 512.155 -6.02546 0.988479 0
M  V30 5549 H 513.569 -4.90659 2.96524 0
M  V30 5550 H 511.966 -4.70147 3.72937 0
M  V30 5551 H 513.036 -3.29885 3.55392 0
M  V30 5552 N 514.379 -1.04941 -1.1758 0
M  V30 5553 C 515.604 -0.778253 -1.92245 0
M  V30 5554 C 516.029 0.659707 -1.76152 0
M  V30 5555 O 515.387 1.45803 -1.07755 0
M  V30 5556 C 515.435 -1.16051 -3.41416 0
M  V30 5557 O 514.539 -0.291153 -4.11371 0
M  V30 5558 H 513.88 -0.285619 -0.599431 0
M  V30 5559 H 516.41 -1.40159 -1.49052 0
M  V30 5560 H 516.42 -1.12619 -3.92149 0
M  V30 5561 H 515.095 -2.208 -3.52449 0
M  V30 5562 H 513.672 -0.385851 -3.70898 0
M  V30 5563 N 515.857 1.33968 -0.830081 0
M  V30 5564 C 516.804 2.29387 -0.255008 0
M  V30 5565 C 517.774 1.53923 0.624243 0
M  V30 5566 O 518.959 1.82262 0.564372 0
M  V30 5567 C 516.099 3.4034 0.571209 0
M  V30 5568 C 515.212 4.30729 -0.331083 0
M  V30 5569 C 514.347 5.2879 0.505389 0
M  V30 5570 C 513.386 6.10819 -0.395843 0
M  V30 5571 N 512.523 7.00948 0.401979 0
M  V30 5572 H 517.363 2.77972 -1.07404 0
M  V30 5573 H 514.9 1.36785 -0.541133 0
M  V30 5574 H 516.858 4.03361 1.06562 0
M  V30 5575 H 515.488 2.9297 1.35529 0
M  V30 5576 H 514.54 3.68507 -0.943759 0
M  V30 5577 H 515.852 4.88181 -1.02377 0
M  V30 5578 H 515.006 5.97297 1.06399 0
M  V30 5579 H 513.745 4.71894 1.23155 0
M  V30 5580 H 512.75 5.41238 -0.966529 0
M  V30 5581 H 513.975 6.69797 -1.12023 0
M  V30 5582 H 511.921 6.46512 1.11168 0
M  V30 5583 H 511.838 7.55643 -0.232167 0
M  V30 5584 H 513.106 7.73774 0.943102 0
M  V30 5585 N 517.335 0.585699 1.46312 0
M  V30 5586 C 518.282 -0.145835 2.30339 0
M  V30 5587 C 519.252 -0.881215 1.40797 0
M  V30 5588 O 520.437 -0.871293 1.69744 0
M  V30 5589 C 517.577 -1.15161 3.25318 0
M  V30 5590 C 516.69 -0.419367 4.2996 0
M  V30 5591 C 515.825 -1.41293 5.12064 0
M  V30 5592 C 514.864 -0.667261 6.08452 0
M  V30 5593 N 514.001 -1.60903 6.83414 0
M  V30 5594 H 518.841 0.576755 2.92365 0
M  V30 5595 H 516.378 0.296237 1.44086 0
M  V30 5596 H 518.336 -1.74763 3.78832 0
M  V30 5597 H 516.966 -1.84188 2.65094 0
M  V30 5598 H 516.018 0.291751 3.7928 0
M  V30 5599 H 517.33 0.163433 4.98532 0
M  V30 5600 H 516.484 -2.08167 5.6987 0
M  V30 5601 H 515.223 -2.02966 4.43459 0
M  V30 5602 H 514.228 0.0152356 5.49798 0
M  V30 5603 H 515.453 -0.0558817 6.79077 0
M  V30 5604 H 513.399 -2.21381 6.17516 0
M  V30 5605 H 513.316 -1.07911 7.48259 0
M  V30 5606 H 514.584 -2.26802 7.45775 0
M  V30 5607 N 518.813 -1.54241 0.323641 0
M  V30 5608 C 519.723 -2.28033 -0.551205 0
M  V30 5609 C 520.739 -1.32388 -1.12913 0
M  V30 5610 O 521.915 -1.65403 -1.14908 0
M  V30 5611 C 518.98 -3.02382 -1.69606 0
M  V30 5612 C 518.041 -4.13612 -1.14993 0
M  V30 5613 C 517.274 -4.84407 -2.24022 0
M  V30 5614 O 517.497 -4.54716 -3.44368 0
M  V30 5615 O 516.431 -5.71312 -1.89436 0
M  V30 5616 H 520.257 -3.03662 0.048066 0
M  V30 5617 H 517.842 -1.49133 0.0893289 0
M  V30 5618 H 519.724 -3.48941 -2.36259 0
M  V30 5619 H 518.399 -2.29628 -2.28151 0
M  V30 5620 H 517.306 -3.71402 -0.448484 0
M  V30 5621 H 518.639 -4.8841 -0.609608 0
M  V30 5622 N 520.291 -0.0518155 -1.57515 0
M  V30 5623 C 521.241 0.932017 -2.0808 0
M  V30 5624 C 522.225 1.27141 -0.986098 0
M  V30 5625 O 523.417 1.25373 -1.24943 0
M  V30 5626 C 520.546 2.20665 -2.62986 0
M  V30 5627 C 519.632 1.89462 -3.79427 0
M  V30 5628 N 520.023 1.28621 -4.89173 0
M  V30 5629 C 518.321 2.19327 -3.88345 0
M  V30 5630 C 519.022 1.15062 -5.70207 0
M  V30 5631 N 517.998 1.65372 -5.17835 0
M  V30 5632 H 521.8 0.456964 -2.90326 0
M  V30 5633 H 519.314 0.152619 -1.61681 0
M  V30 5634 H 521.311 2.92044 -2.97516 0
M  V30 5635 H 519.971 2.68776 -1.8218 0
M  V30 5636 H 520.982 0.958341 -5.08956 0
M  V30 5637 H 517.659 2.69955 -3.18482 0
M  V30 5638 H 519.049 0.678243 -6.68468 0
M  V30 5639 N 521.769 1.56035 0.221574 0
M  V30 5640 C 522.716 1.92413 1.27459 0
M  V30 5641 C 523.686 0.781323 1.46576 0
M  V30 5642 O 524.871 1.03721 1.60145 0
M  V30 5643 C 522.011 2.24617 2.61995 0
M  V30 5644 C 521.124 3.51831 2.50677 0
M  V30 5645 C 520.259 3.73482 3.77736 0
M  V30 5646 C 519.298 4.94211 3.6114 0
M  V30 5647 N 518.435 5.12252 4.80148 0
M  V30 5648 H 523.275 2.82203 0.957355 0
M  V30 5649 H 520.812 1.39676 0.461415 0
M  V30 5650 H 522.77 2.41298 3.40339 0
M  V30 5651 H 521.4 1.38 2.91815 0
M  V30 5652 H 520.452 3.43343 1.63767 0
M  V30 5653 H 521.764 4.40328 2.34334 0
M  V30 5654 H 520.918 3.9026 4.64523 0
M  V30 5655 H 519.657 2.83266 3.97003 0
M  V30 5656 H 518.662 4.77384 2.72736 0
M  V30 5657 H 519.887 5.85912 3.43343 0
M  V30 5658 H 517.833 4.24978 4.99729 0
M  V30 5659 H 517.75 5.94881 4.66532 0
M  V30 5660 H 519.018 5.33465 5.68362 0
M  V30 5661 N 523.247 -0.488276 1.49845 0
M  V30 5662 C 524.157 -1.61451 1.70207 0
M  V30 5663 C 525.173 -1.63877 0.584846 0
M  V30 5664 O 526.349 -1.82063 0.861107 0
M  V30 5665 C 523.414 -2.9776 1.77594 0
M  V30 5666 C 522.475 -3.05861 3.01243 0
M  V30 5667 C 521.708 -4.35668 3.08268 0
M  V30 5668 O 521.931 -5.25197 2.22541 0
M  V30 5669 O 520.865 -4.49005 4.00847 0
M  V30 5670 H 524.691 -1.47199 2.65643 0
M  V30 5671 H 522.276 -0.665939 1.33737 0
M  V30 5672 H 524.158 -3.7875 1.84732 0
M  V30 5673 H 522.833 -3.12248 0.8534 0
M  V30 5674 H 521.74 -2.24012 2.99616 0
M  V30 5675 H 523.073 -2.96304 3.9302 0
M  V30 5676 N 524.725 -1.39134 -0.740242 0
M  V30 5677 C 525.672 -1.37434 -1.8542 0
M  V30 5678 C 526.642 -0.234822 -1.64432 0
M  V30 5679 O 527.827 -0.429125 -1.85912 0
M  V30 5680 C 524.967 -1.21844 -3.22875 0
M  V30 5681 C 524.08 -2.45296 -3.55603 0
M  V30 5682 C 523.215 -2.22334 -4.82432 0
M  V30 5683 C 522.254 -3.41488 -5.07988 0
M  V30 5684 N 521.391 -3.17877 -6.26018 0
M  V30 5685 H 526.231 -2.3266 -1.86207 0
M  V30 5686 H 523.768 -1.15578 -0.909946 0
M  V30 5687 H 525.726 -1.10818 -4.02213 0
M  V30 5688 H 524.356 -0.3025 -3.21379 0
M  V30 5689 H 523.408 -2.66945 -2.71006 0
M  V30 5690 H 524.72 -3.34063 -3.7041 0
M  V30 5691 H 523.874 -2.0852 -5.69741 0
M  V30 5692 H 522.613 -1.30954 -4.6979 0
M  V30 5693 H 521.618 -3.55807 -4.19144 0
M  V30 5694 H 522.843 -4.33763 -5.22519 0
M  V30 5695 H 520.789 -2.29156 -6.14673 0
M  V30 5696 H 520.706 -4.00198 -6.41387 0
M  V30 5697 H 521.974 -3.07746 -7.16179 0
M  V30 5698 N 526.204 0.969867 -1.24223 0
M  V30 5699 C 527.45 1.7151 -1.08223 0
M  V30 5700 C 527.783 1.90478 0.37838 0
M  V30 5701 O 527.058 1.4647 1.27971 0
M  V30 5702 C 527.341 3.10714 -1.82013 0
M  V30 5703 C 527.194 2.9925 -3.35811 0
M  V30 5704 C 528.513 4.10332 -1.59108 0
M  V30 5705 H 525.632 0.622499 -0.394543 0
M  V30 5706 H 528.274 1.1284 -1.52863 0
M  V30 5707 H 526.424 3.608 -1.44068 0
M  V30 5708 H 528.096 2.56608 -3.83341 0
M  V30 5709 H 526.339 2.35512 -3.64303 0
M  V30 5710 H 527.01 3.97857 -3.82641 0
M  V30 5711 H 529.486 3.69097 -1.92111 0
M  V30 5712 H 528.362 5.05804 -2.13198 0
M  V30 5713 H 528.623 4.38926 -0.528832 0
M  V30 5714 N 527.682 1.05563 1.17022 0
M  V30 5715 C 528.592 0.670758 2.24807 0
M  V30 5716 C 529.608 -0.309865 1.71219 0
M  V30 5717 O 530.784 -0.161025 2.00755 0
M  V30 5718 C 527.849 0.055337 3.46656 0
M  V30 5719 C 526.91 1.08688 4.15314 0
M  V30 5720 C 526.143 0.500736 5.31346 0
M  V30 5721 O 526.366 -0.688718 5.66227 0
M  V30 5722 O 525.3 1.23683 5.89055 0
M  V30 5723 H 529.126 1.56914 2.60023 0
M  V30 5724 H 526.711 0.827428 1.24395 0
M  V30 5725 H 528.593 -0.286492 4.20425 0
M  V30 5726 H 527.268 -0.816638 3.13229 0
M  V30 5727 H 526.175 1.48077 3.43546 0
M  V30 5728 H 527.508 1.93014 4.52777 0
M  V30 5729 N 529.16 -1.33526 0.837174 0
M  V30 5730 C 530.07 -2.33023 0.271568 0
M  V30 5731 C 531.086 -1.63272 -0.601514 0
M  V30 5732 O 532.262 -1.94939 -0.506038 0
M  V30 5733 C 529.327 -3.42382 -0.545448 0
M  V30 5734 C 528.388 -4.27857 0.351709 0
M  V30 5735 C 527.621 -5.31994 -0.426409 0
M  V30 5736 O 527.844 -5.45763 -1.65828 0
M  V30 5737 O 526.778 -6.01572 0.1987 0
M  V30 5738 H 530.604 -2.83256 1.09545 0
M  V30 5739 H 528.189 -1.36837 0.599655 0
M  V30 5740 H 530.071 -4.09122 -1.00979 0
M  V30 5741 H 528.746 -2.94369 -1.34641 0
M  V30 5742 H 527.653 -3.6399 0.863853 0
M  V30 5743 H 528.986 -4.79349 1.1174 0
M  V30 5744 N 530.638 -0.59345 -1.46 0
M  V30 5745 C 531.568 0.121192 -2.33185 0
M  V30 5746 C 532.549 0.872977 -1.4599 0
M  V30 5747 O 533.734 0.846321 -1.74789 0
M  V30 5748 C 530.864 1.12844 -3.28456 0
M  V30 5749 C 529.818 0.4908 -4.25177 0
M  V30 5750 C 529.144 1.60529 -5.10034 0
M  V30 5751 C 530.444 -0.578949 -5.19081 0
M  V30 5752 H 532.138 -0.606767 -2.93187 0
M  V30 5753 H 529.684 -0.293242 -1.40983 0
M  V30 5754 H 531.637 1.63684 -3.88311 0
M  V30 5755 H 530.361 1.88681 -2.66584 0
M  V30 5756 H 529.02 0.00339328 -3.666 0
M  V30 5757 H 528.668 2.35359 -4.44539 0
M  V30 5758 H 528.368 1.18422 -5.75543 0
M  V30 5759 H 529.892 2.11623 -5.72755 0
M  V30 5760 H 531.306 -0.155199 -5.7309 0
M  V30 5761 H 529.703 -0.920947 -5.92991 0
M  V30 5762 H 530.773 -1.46109 -4.62364 0
M  V30 5763 N 532.116 1.54067 -0.331816 0
M  V30 5764 C 533.532 1.59587 0.0205388 0
M  V30 5765 C 533.732 1.34813 1.49759 0
M  V30 5766 O 532.788 1.13661 2.25471 0
M  V30 5767 C 534.101 2.97959 -0.405103 0
M  V30 5768 C 535.649 3.10964 -0.356454 0
M  V30 5769 C 536.124 4.51694 -0.757384 0
M  V30 5770 N 537.615 4.57709 -0.71111 0
M  V30 5771 C 538.35 5.64729 -0.993427 0
M  V30 5772 N 537.846 6.79652 -1.3433 0
M  V30 5773 N 539.639 5.54546 -0.918442 0
M  V30 5774 H 531.79 1.68426 -1.29407 0
M  V30 5775 H 534.053 0.78819 -0.526745 0
M  V30 5776 H 533.759 3.21115 -1.43451 0
M  V30 5777 H 533.633 3.76524 0.225692 0
M  V30 5778 H 536.02 2.87538 0.663763 0
M  V30 5779 H 536.101 2.34484 -1.02229 0
M  V30 5780 H 535.745 4.75853 -1.77555 0
M  V30 5781 H 535.675 5.26555 -0.0691444 0
M  V30 5782 H 538.166 3.75176 -0.452883 0
M  V30 5783 H 538.479 7.57221 -1.54388 0
M  V30 5784 H 536.824 6.81128 -1.38164 0
M  V30 5785 H 540.015 4.63641 -0.644536 0
M  V30 5786 H 540.188 6.37861 -1.14181 0
M  V30 5787 N 533.594 0.0601682 1.57485 0
M  V30 5788 C 534.541 -0.91112 2.12055 0
M  V30 5789 C 535.511 -1.30298 1.03013 0
M  V30 5790 O 536.696 -1.39087 1.30612 0
M  V30 5791 C 533.836 -2.1775 2.67729 0
M  V30 5792 C 532.949 -1.83933 3.90887 0
M  V30 5793 C 532.084 -3.05096 4.34845 0
M  V30 5794 C 531.123 -2.67241 5.5068 0
M  V30 5795 N 530.26 -3.81127 5.8965 0
M  V30 5796 H 535.1 -0.43888 2.9475 0
M  V30 5797 H 532.637 -0.204995 1.45665 0
M  V30 5798 H 534.595 -2.91866 2.98111 0
M  V30 5799 H 533.225 -2.62535 1.87816 0
M  V30 5800 H 532.277 -0.999287 3.6704 0
M  V30 5801 H 533.589 -1.52074 4.75052 0
M  V30 5802 H 532.743 -3.87502 4.66827 0
M  V30 5803 H 531.482 -3.40139 3.49509 0
M  V30 5804 H 530.487 -1.83254 5.18361 0
M  V30 5805 H 531.712 -2.3338 6.37738 0
M  V30 5806 H 529.658 -4.15954 5.07266 0
M  V30 5807 H 529.575 -3.52997 6.68528 0
M  V30 5808 H 530.843 -4.64145 6.2625 0
M  V30 5809 N 535.072 -1.5615 -0.213296 0
M  V30 5810 C 536.002 -1.96109 -1.26742 0
M  V30 5811 C 536.983 -0.830448 -1.48451 0
M  V30 5812 O 538.168 -1.09339 -1.60495 0
M  V30 5813 C 535.298 -2.28492 -2.61551 0
M  V30 5814 C 534.252 -3.44124 -2.54485 0
M  V30 5815 C 533.578 -3.62134 -3.93399 0
M  V30 5816 C 534.878 -4.78855 -2.08556 0
M  V30 5817 H 536.572 -2.84412 -0.935434 0
M  V30 5818 H 534.118 -1.36836 -0.44854 0
M  V30 5819 H 536.071 -2.55039 -3.3546 0
M  V30 5820 H 534.795 -1.37052 -2.96453 0
M  V30 5821 H 533.454 -3.17639 -1.83033 0
M  V30 5822 H 533.102 -2.68055 -4.25623 0
M  V30 5823 H 532.802 -4.39913 -3.89551 0
M  V30 5824 H 534.326 -3.91038 -4.68958 0
M  V30 5825 H 535.74 -5.04552 -2.72213 0
M  V30 5826 H 534.137 -5.59975 -2.1575 0
M  V30 5827 H 535.207 -4.73657 -1.03811 0
M  V30 5828 N 536.55 0.480323 -1.50102 0
M  V30 5829 C 537.48 1.58769 -1.71215 0
M  V30 5830 C 538.461 1.60583 -0.560997 0
M  V30 5831 O 539.646 1.76996 -0.799127 0
M  V30 5832 C 536.776 2.97148 -1.79778 0
M  V30 5833 C 535.73 3.10201 -2.94888 0
M  V30 5834 C 535.056 4.50137 -2.88584 0
M  V30 5835 C 536.356 2.88283 -4.35534 0
M  V30 5836 H 538.05 1.41354 -2.6393 0
M  V30 5837 H 535.596 0.678591 -1.27008 0
M  V30 5838 H 537.549 3.74536 -1.93133 0
M  V30 5839 H 536.273 3.15699 -0.836772 0
M  V30 5840 H 534.932 2.35244 -2.81169 0
M  V30 5841 H 534.58 4.65593 -1.90349 0
M  V30 5842 H 534.28 4.59808 -3.65856 0
M  V30 5843 H 535.804 5.29558 -3.03976 0
M  V30 5844 H 537.218 3.55427 -4.49827 0
M  V30 5845 H 535.615 3.09408 -5.14186 0
M  V30 5846 H 536.685 1.84219 -4.48544 0
M  V30 5847 N 538.028 1.39524 0.732853 0
M  V30 5848 C 538.958 1.41153 1.86005 0
M  V30 5849 C 539.939 0.274614 1.67869 0
M  V30 5850 O 541.124 0.480745 1.88155 0
M  V30 5851 C 538.254 1.25638 3.23778 0
M  V30 5852 C 537.208 2.36752 3.56556 0
M  V30 5853 C 536.534 2.06326 4.93289 0
M  V30 5854 C 537.834 3.79069 3.5931 0
M  V30 5855 H 539.528 2.35484 1.84899 0
M  V30 5856 H 537.074 1.13348 0.888162 0
M  V30 5857 H 539.027 1.25398 4.0231 0
M  V30 5858 H 537.751 0.277772 3.25417 0
M  V30 5859 H 536.41 2.36213 2.80355 0
M  V30 5860 H 536.058 1.06897 4.9151 0
M  V30 5861 H 535.758 2.80757 5.16187 0
M  V30 5862 H 537.282 2.07739 5.74175 0
M  V30 5863 H 538.696 3.81526 4.27914 0
M  V30 5864 H 537.093 4.52878 3.93728 0
M  V30 5865 H 538.163 4.09893 2.59068 0
M  V30 5866 N 539.506 -0.963266 1.24736 0
M  V30 5867 C 540.752 -1.71 1.10139 0
M  V30 5868 C 541.107 -1.89089 -0.35541 0
M  V30 5869 O 540.4 -1.44451 -1.25875 0
M  V30 5870 C 540.594 -3.09944 1.7796 0
M  V30 5871 C 540.423 -3.05408 3.30085 0
M  V30 5872 C 539.193 -3.09643 3.99311 0
M  V30 5873 C 541.391 -2.87241 4.26611 0
M  V30 5874 N 539.373 -2.95174 5.3828 0
M  V30 5875 C 540.744 -2.81114 5.52607 0
M  V30 5876 C 542.799 -2.71856 4.17132 0
M  V30 5877 C 541.502 -2.61174 6.70209 0
M  V30 5878 C 543.528 -2.53284 5.34417 0
M  V30 5879 C 542.89 -2.4787 6.59348 0
M  V30 5880 H 538.989 -0.634078 0.457678 0
M  V30 5881 H 541.573 -1.14169 1.57713 0
M  V30 5882 H 539.744 -3.64958 1.32893 0
M  V30 5883 H 541.476 -3.73348 1.56183 0
M  V30 5884 H 538.231 -3.18498 3.50508 0
M  V30 5885 H 538.655 -2.91168 6.11188 0
M  V30 5886 H 543.297 -2.74821 3.21299 0
M  V30 5887 H 541.015 -2.56952 7.6616 0
M  V30 5888 H 544.601 -2.42317 5.28936 0
M  V30 5889 H 543.481 -2.33685 7.48573 0
M  V30 5890 N 540.985 -1.06182 -1.16461 0
M  V30 5891 C 542.231 -0.788825 -1.87481 0
M  V30 5892 C 542.586 0.677298 -1.80085 0
M  V30 5893 O 541.879 1.48976 -1.20486 0
M  V30 5894 C 542.073 -1.21633 -3.36066 0
M  V30 5895 C 541.902 -2.72247 -3.57927 0
M  V30 5896 C 540.672 -3.39696 -3.74079 0
M  V30 5897 C 542.87 -3.70461 -3.56739 0
M  V30 5898 N 540.852 -4.79072 -3.83879 0
M  V30 5899 C 542.223 -4.95616 -3.72511 0
M  V30 5900 C 544.278 -3.63788 -3.39945 0
M  V30 5901 C 542.981 -6.14895 -3.73225 0
M  V30 5902 C 545.007 -4.82517 -3.41953 0
M  V30 5903 C 544.369 -6.065 -3.58242 0
M  V30 5904 H 540.468 -0.341034 -0.703719 0
M  V30 5905 H 543.052 -1.35575 -1.39741 0
M  V30 5906 H 541.223 -0.67725 -3.8245 0
M  V30 5907 H 542.955 -0.892119 -3.94745 0
M  V30 5908 H 539.71 -2.90097 -3.74354 0
M  V30 5909 H 540.134 -5.51573 -3.92551 0
M  V30 5910 H 544.776 -2.68888 -3.26281 0
M  V30 5911 H 542.494 -7.10129 -3.85672 0
M  V30 5912 H 546.08 -4.79017 -3.30203 0
M  V30 5913 H 544.96 -6.96833 -3.59712 0
M  V30 5914 N 542.463 1.3308 -0.844243 0
M  V30 5915 C 543.711 1.97215 -0.441676 0
M  V30 5916 C 544.032 1.67185 1.0037 0
M  V30 5917 O 543.302 0.973588 1.69994 0
M  V30 5918 H 541.882 0.72959 -0.160335 0
M  V30 5919 H 544.544 1.62348 -1.07838 0
M  V30 5920 H 543.64 3.06698 -0.57815 0
M  V30 5921 N 543.941 0.601185 1.45683 0
M  V30 5922 C 545.188 0.0938811 2.02282 0
M  V30 5923 C 545.516 -1.27315 1.47041 0
M  V30 5924 O 544.771 -1.85193 0.632623 0
M  V30 5925 C 545.07 -0.00222425 3.574 0
M  V30 5926 C 544.736 1.29963 4.31764 0
M  V30 5927 C 543.398 1.65625 4.51798 0
M  V30 5928 C 545.75 2.1603 4.74321 0
M  V30 5929 C 543.078 2.87119 5.11644 0
M  V30 5930 C 545.43 3.36766 5.3551 0
M  V30 5931 C 544.094 3.72689 5.53768 0
M  V30 5932 H 543.364 0.0343535 0.740203 0
M  V30 5933 H 546.011 0.781522 1.74827 0
M  V30 5934 H 544.316 -0.773096 3.84097 0
M  V30 5935 H 546.013 -0.410794 3.9889 0
M  V30 5936 H 542.603 1.01204 4.1648 0
M  V30 5937 H 546.787 1.89778 4.58582 0
M  V30 5938 H 542.043 3.15065 5.2397 0
M  V30 5939 H 546.217 4.03713 5.67441 0
M  V30 5940 H 543.844 4.66918 5.99909 0
M  V30 5941 N 545.419 -1.53889 0.339982 0
M  V30 5942 C 546.329 -2.28604 -0.526988 0
M  V30 5943 C 547.345 -1.33578 -1.11503 0
M  V30 5944 O 548.521 -1.66612 -1.13148 0
M  V30 5945 C 545.586 -3.04164 -1.66389 0
M  V30 5946 C 544.647 -4.14809 -1.10599 0
M  V30 5947 C 543.88 -4.86756 -2.18871 0
M  V30 5948 O 544.103 -4.58343 -3.39526 0
M  V30 5949 O 543.037 -5.73289 -1.83366 0
M  V30 5950 H 546.863 -3.03594 0.0802707 0
M  V30 5951 H 544.448 -1.4903 0.105141 0
M  V30 5952 H 546.33 -3.51427 -2.32544 0
M  V30 5953 H 545.005 -2.32035 -2.25703 0
M  V30 5954 H 543.912 -3.71857 -0.409067 0
M  V30 5955 H 545.245 -4.89029 -0.557771 0
M  V30 5956 N 546.897 -0.0685191 -1.57451 0
M  V30 5957 C 548.125 0.610462 -1.97689 0
M  V30 5958 C 548.54 1.63346 -0.946758 0
M  V30 5959 O 547.897 1.82377 0.0669868 0
M  V30 5960 C 547.948 1.28196 -3.38006 0
M  V30 5961 O 547.669 0.299906 -4.37072 0
M  V30 5962 C 549.17 2.04907 -3.931 0
M  V30 5963 H 546.39 0.165689 -0.650222 0
M  V30 5964 H 548.934 -0.139953 -2.04021 0
M  V30 5965 H 547.089 1.98348 -3.32771 0
M  V30 5966 H 547.503 0.78126 -5.18649 0
M  V30 5967 H 548.977 2.47287 -4.93511 0
M  V30 5968 H 549.454 2.9043 -3.29465 0
M  V30 5969 H 550.06 1.39629 -4.01726 0
M  V30 5970 N 548.375 1.56261 0.205012 0
M  V30 5971 C 549.786 1.70056 0.770574 0
M  V30 5972 C 550.137 0.673398 1.84282 0
M  V30 5973 O 549.262 -0.172196 2.15714 0
M  V30 5974 C 549.857 3.08316 1.40451 0
M  V30 5975 C 548.416 3.2391 1.91727 0
M  V30 5976 C 547.563 2.66001 0.783516 0
M  V30 5977 H 550.514 1.58688 -0.019911 0
M  V30 5978 H 550.535 3.05094 2.27371 0
M  V30 5979 H 550.047 3.83053 0.623882 0
M  V30 5980 H 548.148 2.54072 2.7254 0
M  V30 5981 H 548.261 4.3131 2.08588 0
M  V30 5982 H 546.625 2.24915 1.19521 0
M  V30 5983 H 547.408 3.43297 0.0152883 0
M  V30 5984 N 549.853 -0.472356 1.50355 0
M  V30 5985 C 550.763 -1.59637 1.7191 0
M  V30 5986 C 551.779 -1.63247 0.602195 0
M  V30 5987 O 552.955 -1.81139 0.880369 0
M  V30 5988 C 550.02 -2.9586 1.80742 0
M  V30 5989 C 549.081 -3.02649 3.04471 0
M  V30 5990 C 548.314 -4.32374 3.12872 0
M  V30 5991 O 548.537 -5.22807 2.28099 0
M  V30 5992 O 547.471 -4.44728 4.05587 0
M  V30 5993 H 551.297 -1.44373 2.67189 0
M  V30 5994 H 548.882 -0.651717 1.34436 0
M  V30 5995 H 550.764 -3.7677 1.88739 0
M  V30 5996 H 549.439 -3.11325 0.88647 0
M  V30 5997 H 548.346 -2.20821 3.01975 0
M  V30 5998 H 549.679 -2.92119 3.9614 0
M  V30 5999 N 551.331 -1.39911 -0.725443 0
M  V30 6000 C 552.608 -1.28158 -1.47766 0
M  V30 6001 C 552.988 0.104545 -2.10841 0
M  V30 6002 O 552.336 1.11657 -1.99361 0
M  V30 6003 C 552.546 -2.41306 -2.52135 0
M  V30 6004 C 553.894 -2.81076 -3.18247 0
M  V30 6005 O 554.918 -2.40827 -2.62452 0
M  V30 6006 O 553.777 -3.50581 -4.19231 0
M  V30 6007 H 550.871 -0.502761 -0.656628 0
M  V30 6008 H 553.417 -1.51808 -0.758456 0
M  V30 6009 H 552.189 -3.33932 -2.03974 0
M  V30 6010 H 551.812 -2.19374 -3.31603 0
M  V30 6011 N 552.809 0.956637 -1.25245 0
M  V30 6012 C 553.756 2.053 -1.05454 0
M  V30 6013 C 554.726 1.66062 0.0356889 0
M  V30 6014 O 555.911 1.90415 -0.121099 0
M  V30 6015 C 553.051 3.38391 -0.677191 0
M  V30 6016 C 552.164 3.90758 -1.84206 0
M  V30 6017 C 551.299 5.12165 -1.40926 0
M  V30 6018 C 550.338 5.56757 -2.54338 0
M  V30 6019 N 549.475 6.69376 -2.11848 0
M  V30 6020 H 554.315 2.21562 -1.99284 0
M  V30 6021 H 551.852 1.08578 -0.992434 0
M  V30 6022 H 553.81 4.1488 -0.43938 0
M  V30 6023 H 552.44 3.22021 0.224127 0
M  V30 6024 H 551.492 3.10808 -2.19323 0
M  V30 6025 H 552.804 4.19802 -2.69383 0
M  V30 6026 H 551.958 5.96065 -1.13098 0
M  V30 6027 H 550.697 4.84832 -0.528175 0
M  V30 6028 H 549.702 4.71423 -2.82913 0
M  V30 6029 H 550.927 5.861 -3.43022 0
M  V30 6030 H 548.873 6.43756 -1.26153 0
M  V30 6031 H 548.79 6.97927 -2.90574 0
M  V30 6032 H 550.058 7.5669 -1.87191 0
M  V30 6033 N 554.287 1.06798 1.15896 0
M  V30 6034 C 555.217 0.704677 2.22613 0
M  V30 6035 C 556.198 -0.305252 1.67339 0
M  V30 6036 O 557.383 -0.179247 1.93371 0
M  V30 6037 C 554.513 0.0957325 3.47168 0
M  V30 6038 C 553.467 1.0322 4.15367 0
M  V30 6039 C 552.793 0.286293 5.33933 0
M  V30 6040 C 554.093 2.36341 4.65768 0
M  V30 6041 H 555.787 1.59688 2.53259 0
M  V30 6042 H 553.333 0.769257 1.21731 0
M  V30 6043 H 555.286 -0.170333 4.21056 0
M  V30 6044 H 554.01 -0.831516 3.15838 0
M  V30 6045 H 552.669 1.28309 3.43413 0
M  V30 6046 H 552.317 -0.644237 4.98857 0
M  V30 6047 H 552.017 0.910436 5.80504 0
M  V30 6048 H 553.541 0.0278938 6.10594 0
M  V30 6049 H 554.955 2.1561 5.31211 0
M  V30 6050 H 553.352 2.94299 5.2298 0
M  V30 6051 H 554.422 2.99047 3.81705 0
M  V30 6052 N 555.766 -1.3263 0.851289 0
M  V30 6053 C 556.698 -2.27824 0.250757 0
M  V30 6054 C 557.711 -1.52285 -0.575598 0
M  V30 6055 O 558.9 -1.73946 -0.400638 0
M  V30 6056 C 556 -3.3232 -0.664571 0
M  V30 6057 C 555.173 -4.37221 0.125187 0
M  V30 6058 C 554.232 -5.21314 -0.715385 0
M  V30 6059 O 553.258 -5.69002 -0.150111 0
M  V30 6060 N 554.46 -5.43823 -2.03069 0
M  V30 6061 H 557.225 -2.79997 1.06873 0
M  V30 6062 H 554.786 -1.45455 0.710943 0
M  V30 6063 H 556.778 -3.85486 -1.23216 0
M  V30 6064 H 555.348 -2.80331 -1.38323 0
M  V30 6065 H 554.568 -3.84384 0.874199 0
M  V30 6066 H 555.856 -5.04399 0.667774 0
M  V30 6067 H 555.254 -5.06803 -2.51332 0
M  V30 6068 H 553.811 -5.99998 -2.54648 0
M  V30 6069 N 557.244 -0.608902 -1.45362 0
M  V30 6070 C 558.154 0.110969 -2.34337 0
M  V30 6071 C 559.17 0.859007 -1.51318 0
M  V30 6072 O 560.346 0.816296 -1.84116 0
M  V30 6073 C 557.411 1.09494 -3.28956 0
M  V30 6074 C 556.472 0.348718 -4.27881 0
M  V30 6075 C 555.705 1.28582 -5.17979 0
M  V30 6076 O 555.928 2.52369 -5.11533 0
M  V30 6077 O 554.862 0.782172 -5.96796 0
M  V30 6078 H 558.688 -0.620258 -2.97299 0
M  V30 6079 H 556.273 -0.36916 -1.44767 0
M  V30 6080 H 558.155 1.66163 -3.87257 0
M  V30 6081 H 556.83 1.80717 -2.68557 0
M  V30 6082 H 555.737 -0.260465 -3.73192 0
M  V30 6083 H 557.07 -0.323049 -4.91139 0
M  V30 6084 N 558.722 1.53707 -0.348139 0
M  V30 6085 C 559.632 2.28881 0.514857 0
M  V30 6086 C 560.648 1.34168 1.10793 0
M  V30 6087 O 561.824 1.6721 1.12262 0
M  V30 6088 C 558.889 3.05042 1.64774 0
M  V30 6089 C 557.95 4.15389 1.08398 0
M  V30 6090 C 557.183 4.87909 2.16287 0
M  V30 6091 O 557.406 4.60137 3.3709 0
M  V30 6092 O 556.34 5.74254 1.80323 0
M  V30 6093 H 560.166 3.03547 -0.0963699 0
M  V30 6094 H 557.751 1.48972 -0.113043 0
M  V30 6095 H 559.633 3.52656 2.30677 0
M  V30 6096 H 558.308 2.33228 2.24469 0
M  V30 6097 H 557.215 3.72068 0.389341 0
M  V30 6098 H 558.548 4.89318 0.531829 0
M  V30 6099 N 560.2 0.0768682 1.57412 0
M  V30 6100 C 561.611 -0.455037 1.8107 0
M  V30 6101 C 561.962 -1.69323 0.991162 0
M  V30 6102 O 561.087 -2.15328 0.215156 0
M  V30 6103 C 561.682 -0.832316 3.28417 0
M  V30 6104 C 560.241 -1.30906 3.52903 0
M  V30 6105 C 559.388 -0.296714 2.75708 0
M  V30 6106 H 562.339 0.302514 1.5579 0
M  V30 6107 H 562.36 -1.69333 3.40744 0
M  V30 6108 H 561.872 0.0690532 3.88039 0
M  V30 6109 H 559.973 -2.22875 2.98592 0
M  V30 6110 H 560.086 -1.28348 4.61588 0
M  V30 6111 H 558.45 -0.775059 2.42621 0
M  V30 6112 H 559.233 0.597015 3.38069 0
M  V30 6113 N 561.678 -1.56367 -0.196722 0
M  V30 6114 C 563.089 -1.70462 -0.761545 0
M  V30 6115 C 563.44 -0.683161 -1.83922 0
M  V30 6116 O 562.565 0.160753 -2.15802 0
M  V30 6117 C 563.16 -3.09057 -1.38814 0
M  V30 6118 C 561.719 -3.24922 -1.90007 0
M  V30 6119 C 560.866 -2.66412 -0.769399 0
M  V30 6120 H 563.817 -1.58675 0.0283263 0
M  V30 6121 H 563.838 -3.06296 -2.2575 0
M  V30 6122 H 563.35 -3.83378 -0.603559 0
M  V30 6123 H 561.451 -2.55514 -2.71189 0
M  V30 6124 H 561.564 -4.3241 -2.06297 0
M  V30 6125 H 559.928 -2.25546 -1.18326 0
M  V30 6126 H 560.711 -3.433 0.00291773 0
M  V30 6127 N 563.156 0.464375 -1.50603 0
M  V30 6128 C 564.386 1.23727 -1.65454 0
M  V30 6129 C 564.794 1.86119 -0.340032 0
M  V30 6130 O 564.137 1.70301 0.688706 0
M  V30 6131 C 564.199 2.38153 -2.69301 0
M  V30 6132 C 563.863 1.96345 -4.12671 0
M  V30 6133 C 564.86 1.48215 -4.98326 0
M  V30 6134 C 562.545 2.04861 -4.58625 0
M  V30 6135 C 564.539 1.09152 -6.27985 0
M  V30 6136 C 562.226 1.65409 -5.88288 0
M  V30 6137 C 563.224 1.17634 -6.72794 0
M  V30 6138 O 562.912 0.787312 -8.00035 0
M  V30 6139 H 562.644 0.380075 -0.559034 0
M  V30 6140 H 565.198 0.559919 -1.97621 0
M  V30 6141 H 563.428 3.09081 -2.32392 0
M  V30 6142 H 565.117 3.00099 -2.73304 0
M  V30 6143 H 565.883 1.41052 -4.64036 0
M  V30 6144 H 561.762 2.40996 -3.92991 0
M  V30 6145 H 565.306 0.717909 -6.93896 0
M  V30 6146 H 561.203 1.72233 -6.22098 0
M  V30 6147 H 561.971 0.915567 -8.13363 0
M  V30 6148 N 564.634 1.40294 0.718013 0
M  V30 6149 C 565.862 1.4175 1.50714 0
M  V30 6150 C 566.277 0.0165366 1.88793 0
M  V30 6151 O 565.634 -0.958942 1.55276 0
M  V30 6152 C 565.685 2.30598 2.784 0
M  V30 6153 O 565.406 3.6524 2.41932 0
M  V30 6154 C 566.907 2.4062 3.72313 0
M  V30 6155 H 564.127 0.483565 0.465194 0
M  V30 6156 H 566.671 1.84316 0.885889 0
M  V30 6157 H 564.826 1.91401 3.36815 0
M  V30 6158 H 565.24 4.12402 3.24076 0
M  V30 6159 H 566.714 3.07001 4.58753 0
M  V30 6160 H 567.191 1.4305 4.15251 0
M  V30 6161 H 567.797 2.80359 3.19811 0
M  V30 6162 N 566.112 -0.949982 1.2575 0
M  V30 6163 C 567.358 -1.69822 1.11947 0
M  V30 6164 C 567.713 -1.89455 -0.335334 0
M  V30 6165 O 567.006 -1.45778 -1.24336 0
M  V30 6166 C 567.2 -3.08039 1.81237 0
M  V30 6167 C 567.029 -3.0189 3.33305 0
M  V30 6168 C 565.799 -3.05391 4.02573 0
M  V30 6169 C 567.997 -2.827 4.29634 0
M  V30 6170 N 565.979 -2.89449 5.4138 0
M  V30 6171 C 567.35 -2.75237 5.55558 0
M  V30 6172 C 569.405 -2.67416 4.19992 0
M  V30 6173 C 568.108 -2.54051 6.72942 0
M  V30 6174 C 570.134 -2.47602 5.37073 0
M  V30 6175 C 569.496 -2.40863 6.6194 0
M  V30 6176 H 565.595 -0.629188 0.464378 0
M  V30 6177 H 568.179 -1.1249 1.58916 0
M  V30 6178 H 566.35 -3.63528 1.36756 0
M  V30 6179 H 568.082 -3.71671 1.60134 0
M  V30 6180 H 564.837 -3.14763 3.53866 0
M  V30 6181 H 565.261 -2.84669 6.14241 0
M  V30 6182 H 569.903 -2.71398 3.24196 0
M  V30 6183 H 567.621 -2.48811 7.68842 0
M  V30 6184 H 571.207 -2.36694 5.31477 0
M  V30 6185 H 570.087 -2.25732 7.51009 0
M  V30 6186 N 567.59 -1.07411 -1.15328 0
M  V30 6187 C 568.523 -0.63913 -2.19067 0
M  V30 6188 C 569.501 0.343929 -1.58921 0
M  V30 6189 O 570.685 0.250207 -1.86832 0
M  V30 6190 C 567.812 0.0613977 -3.38644 0
M  V30 6191 C 566.858 -0.880201 -4.17318 0
M  V30 6192 S 567.691 -2.38152 -4.79629 0
M  V30 6193 C 568.847 -1.69281 -6.02573 0
M  V30 6194 H 569.08 -1.51799 -2.55626 0
M  V30 6195 H 566.613 -0.888138 -1.26299 0
M  V30 6196 H 568.571 0.459323 -4.07922 0
M  V30 6197 H 567.232 0.916605 -3.00428 0
M  V30 6198 H 566.425 -0.336781 -5.02874 0
M  V30 6199 H 566.027 -1.21854 -3.53592 0
M  V30 6200 H 568.319 -1.00488 -6.70006 0
M  V30 6201 H 569.262 -2.52671 -6.61485 0
M  V30 6202 H 569.67 -1.17053 -5.52231 0
M  V30 6203 N 569.068 1.32177 -0.85831 0
M  V30 6204 C 570.316 1.96735 -0.462568 0
M  V30 6205 C 570.637 1.6824 0.985911 0
M  V30 6206 O 569.907 0.991564 1.68952 0
M  V30 6207 H 568.487 0.727849 -0.168064 0
M  V30 6208 H 571.149 1.61195 -1.09554 0
M  V30 6209 H 570.245 3.06068 -0.610647 0
M  V30 6210 N 570.547 0.616602 1.45037 0
M  V30 6211 C 571.777 0.121791 2.06241 0
M  V30 6212 C 572.185 -1.20289 1.46038 0
M  V30 6213 O 571.528 -1.7456 0.572242 0
M  V30 6214 C 571.59 -0.0827345 3.59405 0
M  V30 6215 C 571.254 1.16153 4.41993 0
M  V30 6216 C 572.251 2.08183 4.76399 0
M  V30 6217 C 569.936 1.39288 4.82601 0
M  V30 6218 C 571.93 3.21668 5.5028 0
M  V30 6219 C 569.617 2.53073 5.56235 0
M  V30 6220 C 570.615 3.44091 5.89992 0
M  V30 6221 O 570.303 4.55894 6.6213 0
M  V30 6222 H 570.035 0.0701667 0.672349 0
M  V30 6223 H 572.589 0.846877 1.87129 0
M  V30 6224 H 570.819 -0.862812 3.76952 0
M  V30 6225 H 572.508 -0.530273 4.02421 0
M  V30 6226 H 573.274 1.91538 4.45576 0
M  V30 6227 H 569.153 0.693396 4.55755 0
M  V30 6228 H 572.697 3.92733 5.76547 0
M  V30 6229 H 568.594 2.69667 5.86472 0
M  V30 6230 H 569.362 4.5469 6.80587 0
M  V30 6231 N 572.025 -1.5352 0.356285 0
M  V30 6232 C 572.935 -2.29151 -0.502712 0
M  V30 6233 C 573.951 -1.34753 -1.1008 0
M  V30 6234 O 575.127 -1.67803 -1.11374 0
M  V30 6235 C 572.192 -3.05911 -1.63154 0
M  V30 6236 C 571.253 -4.15958 -1.06194 0
M  V30 6237 C 570.486 -4.8905 -2.13696 0
M  V30 6238 O 570.709 -4.61919 -3.34645 0
M  V30 6239 O 569.643 -5.75202 -1.77275 0
M  V30 6240 H 573.469 -3.03492 0.112466 0
M  V30 6241 H 571.054 -1.4891 0.120942 0
M  V30 6242 H 572.936 -3.53874 -2.28804 0
M  V30 6243 H 571.611 -2.34415 -2.23229 0
M  V30 6244 H 570.518 -3.7227 -0.369603 0
M  V30 6245 H 571.851 -4.89593 -0.505872 0
M  V30 6246 N 573.503 -0.0852151 -1.57369 0
M  V30 6247 C 574.433 0.874556 -2.16503 0
M  V30 6248 C 575.414 1.30111 -1.09568 0
M  V30 6249 O 576.599 1.36977 -1.37662 0
M  V30 6250 C 573.729 2.13731 -2.73745 0
M  V30 6251 C 572.683 1.84971 -3.85966 0
M  V30 6252 C 572.009 3.17991 -4.29867 0
M  V30 6253 C 573.309 1.14442 -5.09608 0
M  V30 6254 H 575.003 0.381899 -2.96954 0
M  V30 6255 H 572.549 0.18225 -1.42842 0
M  V30 6256 H 574.502 2.81302 -3.13763 0
M  V30 6257 H 573.226 2.65263 -1.90534 0
M  V30 6258 H 571.885 1.19801 -3.46473 0
M  V30 6259 H 571.533 3.6739 -3.4356 0
M  V30 6260 H 571.233 2.99534 -5.05523 0
M  V30 6261 H 572.757 3.86737 -4.72511 0
M  V30 6262 H 574.171 1.72105 -5.46857 0
M  V30 6263 H 572.568 1.06197 -5.90629 0
M  V30 6264 H 573.638 0.12559 -4.84737 0
M  V30 6265 N 574.981 1.5647 0.188427 0
M  V30 6266 C 575.931 1.91479 1.23774 0
M  V30 6267 C 576.915 0.78119 1.40664 0
M  V30 6268 O 578.107 1.04414 1.42922 0
M  V30 6269 C 575.236 2.26354 2.58106 0
M  V30 6270 C 574.322 3.46186 2.44981 0
M  V30 6271 N 574.713 4.63911 2.01546 0
M  V30 6272 C 573.011 3.50456 2.75856 0
M  V30 6273 C 573.712 5.46064 2.00472 0
M  V30 6274 N 572.688 4.86648 2.42229 0
M  V30 6275 H 576.49 2.79994 0.893339 0
M  V30 6276 H 574.004 1.57477 0.39682 0
M  V30 6277 H 576.001 2.49622 3.33908 0
M  V30 6278 H 574.661 1.39168 2.93364 0
M  V30 6279 H 575.672 4.88451 1.7215 0
M  V30 6280 H 572.349 2.73704 3.15265 0
M  V30 6281 H 573.739 6.50368 1.68734 0
M  V30 6282 N 576.459 -0.456382 1.50847 0
M  V30 6283 C 577.87 -1.03685 1.55262 0
M  V30 6284 C 578.221 -1.92779 0.364771 0
M  V30 6285 O 577.346 -2.10043 -0.52068 0
M  V30 6286 C 577.941 -1.88718 2.81374 0
M  V30 6287 C 576.5 -2.41847 2.88422 0
M  V30 6288 C 575.647 -1.20564 2.49719 0
M  V30 6289 H 578.598 -0.238399 1.56899 0
M  V30 6290 H 578.619 -2.73957 2.6406 0
M  V30 6291 H 578.131 -1.23847 3.67809 0
M  V30 6292 H 576.232 -3.10228 2.06372 0
M  V30 6293 H 576.345 -2.75947 3.9165 0
M  V30 6294 H 574.709 -1.54504 2.02486 0
M  V30 6295 H 575.492 -0.573326 3.38479 0
M  V30 6296 N 577.937 -1.40673 -0.710563 0
M  V30 6297 C 578.867 -1.44095 -1.83736 0
M  V30 6298 C 579.848 -0.301286 -1.67411 0
M  V30 6299 O 581.033 -0.510618 -1.87367 0
M  V30 6300 C 578.163 -1.30773 -3.21738 0
M  V30 6301 C 577.117 -2.42395 -3.52745 0
M  V30 6302 C 576.443 -2.14147 -4.89944 0
M  V30 6303 C 577.743 -3.84738 -3.53234 0
M  V30 6304 H 579.437 -2.38396 -1.81129 0
M  V30 6305 H 576.983 -1.14746 -0.870017 0
M  V30 6306 H 578.936 -1.31783 -4.00264 0
M  V30 6307 H 577.66 -0.329507 -3.24934 0
M  V30 6308 H 576.319 -2.40643 -2.76562 0
M  V30 6309 H 575.967 -1.14703 -4.89747 0
M  V30 6310 H 575.667 -2.88934 -5.11655 0
M  V30 6311 H 577.191 -2.16848 -5.70797 0
M  V30 6312 H 578.605 -3.88286 -4.2179 0
M  V30 6313 H 577.002 -4.59085 -3.86473 0
M  V30 6314 H 578.072 -4.13962 -2.52514 0
M  V30 6315 N 579.415 0.9433 -1.26252 0
M  V30 6316 C 580.643 1.72367 -1.14443 0
M  V30 6317 C 581.058 1.86392 0.300572 0
M  V30 6318 O 580.415 1.36978 1.20596 0
M  V30 6319 C 580.466 3.13155 -1.806 0
M  V30 6320 O 580.187 2.99803 -3.19452 0
M  V30 6321 C 581.688 4.07417 -1.74717 0
M  V30 6322 H 578.908 0.539758 -0.398626 0
M  V30 6323 H 581.452 1.18268 -1.66832 0
M  V30 6324 H 579.607 3.64162 -1.32154 0
M  V30 6325 H 580.021 3.88697 -3.52158 0
M  V30 6326 H 581.495 5.03773 -2.25647 0
M  V30 6327 H 581.972 4.3337 -0.713244 0
M  V30 6328 H 582.578 3.6233 -2.22704 0
M  V30 6329 N 580.893 1.08022 1.14757 0
M  V30 6330 C 582.139 0.818552 1.86202 0
M  V30 6331 C 582.494 -0.648563 1.81139 0
M  V30 6332 O 581.787 -1.4704 1.22841 0
M  V30 6333 C 581.981 1.26964 3.34088 0
M  V30 6334 C 581.81 2.77907 3.5355 0
M  V30 6335 C 580.58 3.45604 3.68627 0
M  V30 6336 C 582.778 3.7609 3.50801 0
M  V30 6337 N 580.76 4.85119 3.76209 0
M  V30 6338 C 582.131 5.0148 3.64579 0
M  V30 6339 C 584.186 3.6915 3.34115 0
M  V30 6340 C 582.889 6.20755 3.63395 0
M  V30 6341 C 584.915 4.87896 3.34233 0
M  V30 6342 C 584.277 6.12123 3.48547 0
M  V30 6343 H 580.376 0.352186 0.698204 0
M  V30 6344 H 582.96 1.37781 1.37567 0
M  V30 6345 H 581.131 0.738008 3.81324 0
M  V30 6346 H 582.863 0.954806 3.93275 0
M  V30 6347 H 579.618 2.96016 3.69691 0
M  V30 6348 H 580.042 5.57748 3.83726 0
M  V30 6349 H 584.684 2.74045 3.21961 0
M  V30 6350 H 582.402 7.16175 3.74326 0
M  V30 6351 H 585.988 4.8421 3.2254 0
M  V30 6352 H 584.868 7.02468 3.48581 0
M  V30 6353 N 582.371 -1.3172 0.865308 0
M  V30 6354 C 583.599 -2.01057 0.488251 0
M  V30 6355 C 584.014 -1.64979 -0.918 0
M  V30 6356 O 583.371 -0.876597 -1.60069 0
M  V30 6357 C 583.422 -3.55964 0.630224 0
M  V30 6358 O 583.143 -3.90749 1.98109 0
M  V30 6359 C 584.644 -4.42574 0.253567 0
M  V30 6360 H 581.864 -0.64332 0.190736 0
M  V30 6361 H 584.408 -1.68058 1.16519 0
M  V30 6362 H 582.563 -3.874 0.000895422 0
M  V30 6363 H 582.977 -4.85467 1.9855 0
M  V30 6364 H 584.451 -5.50521 0.403875 0
M  V30 6365 H 584.928 -4.31724 -0.806895 0
M  V30 6366 H 585.534 -4.16547 0.858404 0
M  V30 6367 N 583.85 -0.624285 -1.44708 0
M  V30 6368 C 585.099 -0.123539 -2.01321 0
M  V30 6369 C 585.412 1.25966 -1.49639 0
M  V30 6370 O 586.618 1.85405 -1.98336 0
M  V30 6371 C 585.074 -0.170124 -3.59498 0
M  V30 6372 C 584.682 -1.55421 -4.20176 0
M  V30 6373 C 586.426 0.274513 -4.23611 0
M  V30 6374 C 584.332 -1.55628 -5.70556 0
M  V30 6375 H 583.263 -0.0424183 -0.752806 0
M  V30 6376 H 585.913 -0.782076 -1.65999 0
M  V30 6377 H 584.296 0.555385 -3.92086 0
M  V30 6378 H 585.47 -2.30276 -3.99136 0
M  V30 6379 H 583.784 -1.94235 -3.68323 0
M  V30 6380 H 586.382 0.292402 -5.339 0
M  V30 6381 H 586.725 1.3005 -3.95465 0
M  V30 6382 H 587.258 -0.398275 -3.95801 0
M  V30 6383 H 583.997 -2.56041 -6.03426 0
M  V30 6384 H 583.517 -0.850563 -5.93739 0
M  V30 6385 H 585.196 -1.28721 -6.34066 0
M  V30 6386 N 585.328 1.53329 -0.364422 0
M  V30 6387 C 586.26 2.23286 0.517293 0
M  V30 6388 C 587.273 1.24657 1.04711 0
M  V30 6389 O 588.462 1.50887 0.95369 0
M  V30 6390 C 585.562 2.91604 1.72685 0
M  V30 6391 C 584.735 4.1673 1.32873 0
M  V30 6392 C 583.794 4.68269 2.40022 0
M  V30 6393 O 582.82 5.31976 2.02461 0
M  V30 6394 N 584.022 4.45983 3.7159 0
M  V30 6395 H 586.787 2.99588 -0.0819391 0
M  V30 6396 H 584.348 1.60787 -0.189544 0
M  V30 6397 H 586.34 3.22992 2.4384 0
M  V30 6398 H 584.91 2.18763 2.23297 0
M  V30 6399 H 584.13 3.91657 0.447069 0
M  V30 6400 H 585.418 4.98078 1.03902 0
M  V30 6401 H 584.816 3.95077 4.04883 0
M  V30 6402 H 583.373 4.81924 4.38854 0
M  V30 6403 N 586.806 0.0935595 1.57322 0
M  V30 6404 C 587.738 -0.895923 2.10964 0
M  V30 6405 C 588.751 -1.24705 1.04654 0
M  V30 6406 O 589.94 -1.20044 1.32105 0
M  V30 6407 C 587.04 -2.20546 2.57318 0
M  V30 6408 C 586.213 -2.0299 3.87445 0
M  V30 6409 C 585.272 -3.17443 4.19662 0
M  V30 6410 O 584.298 -2.91474 4.88909 0
M  V30 6411 N 585.5 -4.43168 3.74943 0
M  V30 6412 H 588.265 -0.437788 2.96485 0
M  V30 6413 H 585.826 -0.0915863 1.61641 0
M  V30 6414 H 587.818 -2.9606 2.75917 0
M  V30 6415 H 586.388 -2.57789 1.76816 0
M  V30 6416 H 585.608 -1.11815 3.78009 0
M  V30 6417 H 586.896 -1.88535 4.7258 0
M  V30 6418 H 586.294 -4.67149 3.19043 0
M  V30 6419 H 584.851 -5.15637 3.987 0
M  V30 6420 N 588.284 -1.56567 -0.180126 0
M  V30 6421 C 589.231 -1.95725 -1.22313 0
M  V30 6422 C 590.201 -0.819911 -1.44453 0
M  V30 6423 O 591.386 -1.07931 -1.57339 0
M  V30 6424 C 588.526 -2.31484 -2.55947 0
M  V30 6425 C 587.639 -3.58354 -2.4126 0
M  V30 6426 C 586.774 -3.83366 -3.67701 0
M  V30 6427 C 585.813 -5.03612 -3.47909 0
M  V30 6428 N 584.95 -5.24802 -4.66398 0
M  V30 6429 H 589.79 -2.84642 -0.882198 0
M  V30 6430 H 587.327 -1.4085 -0.42422 0
M  V30 6431 H 589.285 -2.50237 -3.33822 0
M  V30 6432 H 587.915 -1.45689 -2.88053 0
M  V30 6433 H 586.967 -3.47565 -1.54606 0
M  V30 6434 H 588.279 -4.46386 -2.22577 0
M  V30 6435 H 587.433 -4.02439 -4.54013 0
M  V30 6436 H 586.172 -2.93692 -3.89353 0
M  V30 6437 H 585.177 -4.84447 -2.59983 0
M  V30 6438 H 586.402 -5.94809 -3.27688 0
M  V30 6439 H 584.348 -4.38079 -4.88286 0
M  V30 6440 H 584.265 -6.07041 -4.50596 0
M  V30 6441 H 585.533 -5.48346 -5.54019 0
M  V30 6442 N 589.762 0.448376 -1.51087 0
M  V30 6443 C 590.694 1.56146 -1.67783 0
M  V30 6444 C 591.707 1.52913 -0.55871 0
M  V30 6445 O 592.896 1.57889 -0.83267 0
M  V30 6446 C 589.996 2.95057 -1.66716 0
M  V30 6447 C 589.169 3.22915 -2.95033 0
M  V30 6448 C 588.228 4.41495 -2.86302 0
M  V30 6449 O 587.254 4.40688 -3.60254 0
M  V30 6450 N 588.456 5.44443 -2.014 0
M  V30 6451 H 591.221 1.42232 -2.638 0
M  V30 6452 H 588.782 0.637153 -1.48835 0
M  V30 6453 H 590.774 3.72388 -1.58458 0
M  V30 6454 H 589.344 3.02624 -0.783403 0
M  V30 6455 H 588.564 2.33985 -3.17245 0
M  V30 6456 H 589.852 3.38349 -3.79996 0
M  V30 6457 H 589.25 5.4793 -1.40674 0
M  V30 6458 H 587.807 6.2067 -1.99029 0
M  V30 6459 N 591.24 1.41047 0.703093 0
M  V30 6460 C 592.17 1.45067 1.82969 0
M  V30 6461 C 593.151 0.31016 1.67248 0
M  V30 6462 O 594.336 0.520548 1.87093 0
M  V30 6463 C 591.466 1.32478 3.2104 0
M  V30 6464 C 590.42 2.44262 3.51454 0
M  V30 6465 C 589.746 2.16742 4.88801 0
M  V30 6466 C 591.046 3.86606 3.51189 0
M  V30 6467 H 592.74 2.39353 1.79863 0
M  V30 6468 H 590.286 1.15206 0.863919 0
M  V30 6469 H 592.239 1.33904 3.99559 0
M  V30 6470 H 590.963 0.346735 3.24754 0
M  V30 6471 H 589.622 2.42107 2.75282 0
M  V30 6472 H 589.27 1.17299 4.89132 0
M  V30 6473 H 588.97 2.91643 5.10116 0
M  V30 6474 H 590.494 2.19872 5.69639 0
M  V30 6475 H 591.908 3.90517 4.19725 0
M  V30 6476 H 590.305 4.61128 3.84033 0
M  V30 6477 H 591.375 4.15296 2.50315 0
M  V30 6478 N 592.718 -0.936591 1.26751 0
M  V30 6479 C 593.995 -1.66094 1.03306 0
M  V30 6480 C 594.375 -2.06568 -0.435058 0
M  V30 6481 O 593.723 -1.79305 -1.41641 0
M  V30 6482 C 593.933 -2.86969 1.98619 0
M  V30 6483 C 595.281 -3.58516 2.27489 0
M  V30 6484 O 596.305 -2.97082 1.96522 0
M  V30 6485 O 595.164 -4.69181 2.80235 0
M  V30 6486 H 592.258 -0.727568 0.393158 0
M  V30 6487 H 594.804 -0.987914 1.3798 0
M  V30 6488 H 593.576 -2.53985 2.9767 0
M  V30 6489 H 593.199 -3.61996 1.64454 0
M  V30 6490 N 594.196 -1.08629 -1.14182 0
M  V30 6491 C 595.445 -0.812271 -1.84621 0
M  V30 6492 C 595.758 0.664313 -1.83973 0
M  V30 6493 O 596.964 1.05357 -2.50224 0
M  V30 6494 C 595.42 -1.4031 -3.31423 0
M  V30 6495 C 595.028 -2.91164 -3.40481 0
M  V30 6496 C 596.772 -1.20767 -4.06959 0
M  V30 6497 C 594.679 -3.43373 -4.81507 0
M  V30 6498 H 593.609 -0.30019 -0.691666 0
M  V30 6499 H 596.26 -1.30798 -1.28701 0
M  V30 6500 H 594.642 -0.835096 -3.87094 0
M  V30 6501 H 595.816 -3.5412 -2.94848 0
M  V30 6502 H 594.131 -3.09646 -2.78403 0
M  V30 6503 H 596.728 -1.57237 -5.11058 0
M  V30 6504 H 597.071 -0.147664 -4.16038 0
M  V30 6505 H 597.604 -1.74274 -3.57594 0
M  V30 6506 H 594.343 -4.48958 -4.77616 0
M  V30 6507 H 593.863 -2.85176 -5.27669 0
M  V30 6508 H 595.542 -3.40095 -5.50404 0
M  V30 6509 N 595.674 1.31259 -0.872281 0
M  V30 6510 C 597.085 1.78822 -0.536617 0
M  V30 6511 C 597.436 1.71855 0.946594 0
M  V30 6512 O 596.561 1.28769 1.73918 0
M  V30 6513 C 597.156 3.24698 -0.967294 0
M  V30 6514 C 595.715 3.70147 -0.683251 0
M  V30 6515 C 594.862 2.51994 -1.15733 0
M  V30 6516 H 597.813 1.18308 -1.05777 0
M  V30 6517 H 597.834 3.79386 -0.290929 0
M  V30 6518 H 597.346 3.29737 -2.04683 0
M  V30 6519 H 595.447 3.70607 0.384825 0
M  V30 6520 H 595.56 4.62183 -1.2619 0
M  V30 6521 H 593.924 2.48078 -0.577024 0
M  V30 6522 H 594.707 2.59778 -2.24434 0
M  V30 6523 N 597.152 0.631951 1.44375 0
M  V30 6524 C 598.062 -0.073674 2.34484 0
M  V30 6525 C 599.078 -0.834825 1.52665 0
M  V30 6526 O 600.254 -0.786902 1.85391 0
M  V30 6527 C 597.319 -1.04247 3.30656 0
M  V30 6528 C 596.38 -0.280602 4.28382 0
M  V30 6529 C 595.613 -1.20325 5.19959 0
M  V30 6530 O 595.836 -2.44199 5.15484 0
M  V30 6531 O 594.77 -0.687128 5.97965 0
M  V30 6532 H 598.596 0.667477 2.96274 0
M  V30 6533 H 596.181 0.392144 1.44162 0
M  V30 6534 H 598.063 -1.59981 3.89851 0
M  V30 6535 H 596.738 -1.76422 2.71398 0
M  V30 6536 H 595.645 0.319804 3.72731 0
M  V30 6537 H 596.978 0.401144 4.90563 0
M  V30 6538 N 598.631 -1.53133 0.372548 0
M  V30 6539 C 599.563 -2.23557 -0.505444 0
M  V30 6540 C 600.576 -1.25211 -1.04049 0
M  V30 6541 O 601.765 -1.51391 -0.945675 0
M  V30 6542 C 598.865 -2.92516 -1.71136 0
M  V30 6543 C 598.038 -4.17428 -1.30661 0
M  V30 6544 C 597.097 -4.69535 -2.37536 0
M  V30 6545 O 596.123 -5.33042 -1.99637 0
M  V30 6546 N 597.325 -4.47947 -3.6922 0
M  V30 6547 H 600.09 -2.9954 0.0978259 0
M  V30 6548 H 597.651 -1.60684 0.198068 0
M  V30 6549 H 599.643 -3.24281 -2.42124 0
M  V30 6550 H 598.213 -2.19944 -2.22134 0
M  V30 6551 H 597.433 -3.91888 -0.426292 0
M  V30 6552 H 598.721 -4.98622 -1.01259 0
M  V30 6553 H 598.119 -3.97219 -4.02783 0
M  V30 6554 H 596.676 -4.84245 -4.36292 0
M  V30 6555 N 600.109 -0.101901 -1.5727 0
M  V30 6556 C 601.52 0.426173 -1.81771 0
M  V30 6557 C 601.871 1.67725 -1.01797 0
M  V30 6558 O 600.996 2.14958 -0.249386 0
M  V30 6559 C 601.591 0.779962 -3.297 0
M  V30 6560 C 600.15 1.25275 -3.54941 0
M  V30 6561 C 599.297 0.252814 -2.76145 0
M  V30 6562 H 602.248 -0.32726 -1.55289 0
M  V30 6563 H 602.269 1.63891 -3.43395 0
M  V30 6564 H 601.781 -0.130778 -3.8788 0
M  V30 6565 H 599.882 2.18097 -3.021 0
M  V30 6566 H 599.995 1.20988 -4.63572 0
M  V30 6567 H 598.359 0.736362 -2.43823 0
M  V30 6568 H 599.142 -0.650724 -3.37076 0
M  V30 6569 N 601.587 1.56661 0.17182 0
M  V30 6570 C 602.815 1.861 0.904115 0
M  V30 6571 C 603.23 0.687227 1.75848 0
M  V30 6572 O 602.587 -0.343671 1.79235 0
M  V30 6573 C 602.638 3.14568 1.78127 0
M  V30 6574 O 602.359 4.27422 0.961366 0
M  V30 6575 C 603.86 3.5735 2.62327 0
M  V30 6576 H 601.08 0.617445 0.262684 0
M  V30 6577 H 603.624 2.03775 0.172068 0
M  V30 6578 H 601.779 2.98721 2.46666 0
M  V30 6579 H 602.193 5.00725 1.56123 0
M  V30 6580 H 603.667 4.50144 3.1949 0
M  V30 6581 H 604.144 2.81445 3.37173 0
M  V30 6582 H 604.75 3.75807 1.99121 0
M  V30 6583 N 603.065 -0.440357 1.51323 0
M  V30 6584 C 603.995 -1.54174 1.75364 0
M  V30 6585 C 604.976 -1.59039 0.603375 0
M  V30 6586 O 606.161 -1.74815 0.845774 0
M  V30 6587 C 603.291 -2.92277 1.87593 0
M  V30 6588 C 602.245 -3.02274 3.03009 0
M  V30 6589 C 601.571 -4.42327 3.00418 0
M  V30 6590 C 602.871 -2.76634 4.43024 0
M  V30 6591 H 604.565 -1.34307 2.67585 0
M  V30 6592 H 602.111 -0.644678 1.28763 0
M  V30 6593 H 604.064 -3.69284 2.02995 0
M  V30 6594 H 602.788 -3.13369 0.920179 0
M  V30 6595 H 601.447 -2.27706 2.87307 0
M  V30 6596 H 601.095 -4.60382 2.02626 0
M  V30 6597 H 600.795 -4.49946 3.77918 0
M  V30 6598 H 602.319 -5.21312 3.17909 0
M  V30 6599 H 603.733 -3.43376 4.59093 0
M  V30 6600 H 602.13 -2.95666 5.22208 0
M  V30 6601 H 603.2 -1.72262 4.5327 0
M  V30 6602 N 604.543 -1.41418 -0.695603 0
M  V30 6603 C 605.491 -1.43467 -1.83084 0
M  V30 6604 C 606.485 -0.312719 -1.66489 0
M  V30 6605 O 607.691 -0.484744 -1.7335 0
M  V30 6606 H 604.066 -0.448891 -0.603325 0
M  V30 6607 H 606.037 -2.39144 -1.78473 0
M  V30 6608 C 604.786 -1.3337 -3.21104 0
M  V30 6609 H 604.109 -2.18989 -3.3449 0
M  V30 6610 H 605.549 -1.38865 -4.00615 0
M  V30 6611 C 604.008 -0.0460484 -3.36869 0
M  V30 6612 O 604.538 0.909258 -3.91274 0
M  V30 6613 N 602.744 0.0300222 -2.90584 0
M  V30 6614 H 602.291 -0.748129 -2.46497 0
M  V30 6615 H 602.249 0.890991 -3.01511 0
M  V30 6616 N 606.021 0.929856 -1.27246 0
M  V30 6617 C 606.931 2.0636 -1.11592 0
M  V30 6618 C 607.947 1.73938 -0.046496 0
M  V30 6619 O 609.123 1.9981 -0.252544 0
M  V30 6620 C 606.188 3.38213 -0.762437 0
M  V30 6621 C 605.249 3.84346 -1.9125 0
M  V30 6622 C 604.482 5.09906 -1.57579 0
M  V30 6623 O 604.705 5.68354 -0.482694 0
M  V30 6624 O 603.639 5.51359 -2.41426 0
M  V30 6625 H 607.465 2.22478 -2.0673 0
M  V30 6626 H 605.05 1.04865 -1.06413 0
M  V30 6627 H 606.932 4.1741 -0.57854 0
M  V30 6628 H 605.607 3.23307 0.159439 0
M  V30 6629 H 604.514 3.06045 -2.15144 0
M  V30 6630 H 605.847 4.0379 -2.81451 0
M  V30 6631 N 607.499 1.09233 1.13605 0
M  V30 6632 C 608.429 0.751738 2.21068 0
M  V30 6633 C 609.41 -0.269688 1.67948 0
M  V30 6634 O 610.595 -0.13819 1.93708 0
M  V30 6635 C 607.725 0.16935 3.46887 0
M  V30 6636 C 606.679 1.12007 4.13084 0
M  V30 6637 C 606.005 0.399483 5.33206 0
M  V30 6638 C 607.305 2.46168 4.6065 0
M  V30 6639 H 608.999 1.65024 2.49815 0
M  V30 6640 H 606.545 0.794905 1.20072 0
M  V30 6641 H 608.498 -0.0809824 4.21322 0
M  V30 6642 H 607.222 -0.764335 3.1753 0
M  V30 6643 H 605.881 1.35564 3.40614 0
M  V30 6644 H 605.529 -0.538277 5.00112 0
M  V30 6645 H 605.229 1.03337 5.78442 0
M  V30 6646 H 606.753 0.157403 6.10397 0
M  V30 6647 H 608.167 2.26829 5.26518 0
M  V30 6648 H 606.564 3.05326 5.1662 0
M  V30 6649 H 607.634 3.07076 3.75276 0
M  V30 6650 N 608.977 -1.30795 0.87923 0
M  V30 6651 C 609.909 -2.27241 0.299025 0
M  V30 6652 C 610.922 -1.53472 -0.543166 0
M  V30 6653 O 612.111 -1.74756 -0.363651 0
M  V30 6654 C 609.211 -3.33655 -0.593931 0
M  V30 6655 C 608.384 -4.36857 0.2179 0
M  V30 6656 C 607.443 -5.22715 -0.604646 0
M  V30 6657 O 606.469 -5.69192 -0.0293838 0
M  V30 6658 N 607.671 -5.48008 -1.91488 0
M  V30 6659 H 610.436 -2.77667 1.12788 0
M  V30 6660 H 607.997 -1.43914 0.741637 0
M  V30 6661 H 609.989 -3.88013 -1.15012 0
M  V30 6662 H 608.559 -2.83202 -1.32346 0
M  V30 6663 H 607.779 -3.82444 0.955536 0
M  V30 6664 H 609.067 -5.02869 0.774614 0
M  V30 6665 H 608.465 -5.1202 -2.40525 0
M  V30 6666 H 607.022 -6.05264 -2.41864 0
M  V30 6667 N 610.455 -0.639598 -1.44038 0
M  V30 6668 C 611.402 0.0602458 -2.30721 0
M  V30 6669 C 612.372 0.828352 -1.43971 0
M  V30 6670 O 613.557 0.807693 -1.72861 0
M  V30 6671 C 610.697 1.03008 -3.29368 0
M  V30 6672 C 609.81 0.259502 -4.3122 0
M  V30 6673 C 608.945 1.22191 -5.16955 0
M  V30 6674 C 607.984 0.440978 -6.10509 0
M  V30 6675 N 607.121 1.35428 -6.88915 0
M  V30 6676 H 611.961 -0.684867 -2.90023 0
M  V30 6677 H 609.498 -0.349509 -1.42888 0
M  V30 6678 H 611.456 1.60583 -3.85057 0
M  V30 6679 H 610.086 1.74222 -2.71747 0
M  V30 6680 H 609.138 -0.432317 -3.77935 0
M  V30 6681 H 610.45 -0.348347 -4.97582 0
M  V30 6682 H 609.604 1.86873 -5.77203 0
M  V30 6683 H 608.343 1.86367 -4.50687 0
M  V30 6684 H 607.348 -0.219279 -5.49363 0
M  V30 6685 H 608.573 -0.196192 -6.78817 0
M  V30 6686 H 606.519 1.9831 -6.25307 0
M  V30 6687 H 606.436 0.800657 -7.51748 0
M  V30 6688 H 607.704 1.98967 -7.53679 0
M  V30 6689 N 611.933 1.52934 -0.380664 0
M  V30 6690 C 612.863 2.29118 0.450268 0
M  V30 6691 C 613.844 1.32153 1.07096 0
M  V30 6692 O 615.029 1.61038 1.08537 0
M  V30 6693 C 612.159 3.09161 1.58231 0
M  V30 6694 C 611.113 4.13938 1.0881 0
M  V30 6695 C 610.439 4.82153 2.31155 0
M  V30 6696 C 611.739 5.22048 0.162146 0
M  V30 6697 H 613.433 2.98826 -0.185361 0
M  V30 6698 H 610.979 1.43715 -0.0905886 0
M  V30 6699 H 612.932 3.61211 2.17036 0
M  V30 6700 H 611.656 2.3717 2.2454 0
M  V30 6701 H 610.315 3.62855 0.522633 0
M  V30 6702 H 609.963 4.06719 2.95953 0
M  V30 6703 H 609.663 5.52966 1.98752 0
M  V30 6704 H 611.187 5.37004 2.90618 0
M  V30 6705 H 612.601 5.6951 0.658126 0
M  V30 6706 H 610.998 6.00057 -0.0717122 0
M  V30 6707 H 612.068 4.78398 -0.791438 0
M  V30 6708 N 613.412 0.11024 1.57214 0
M  V30 6709 C 614.375 -0.828808 2.1369 0
M  V30 6710 C 615.375 -1.20059 1.06969 0
M  V30 6711 O 616.565 -1.12754 1.32786 0
M  V30 6712 C 613.697 -2.11959 2.66994 0
M  V30 6713 H 614.89 -0.338146 2.97988 0
M  V30 6714 H 612.443 -0.138913 1.55681 0
M  V30 6715 H 613.178 -2.65476 1.8626 0
M  V30 6716 H 612.963 -1.86258 3.45037 0
M  V30 6717 H 614.453 -2.79105 3.10629 0
M  V30 6718 N 614.89 -1.56749 -0.16351 0
M  V30 6719 C 616.138 -1.82074 -0.87713 0
M  V30 6720 C 616.459 -0.688503 -1.82441 0
M  V30 6721 O 615.729 0.291085 -1.93725 0
M  V30 6722 H 614.309 -0.671677 -0.326893 0
M  V30 6723 H 616.971 -1.9423 -0.161459 0
M  V30 6724 H 616.067 -2.76407 -1.44934 0
M  V30 6725 N 616.368 0.432326 -1.51554 0
M  V30 6726 C 617.315 1.52512 -1.7323 0
M  V30 6727 C 618.285 1.55863 -0.5741 0
M  V30 6728 O 619.47 1.72796 -0.809093 0
M  V30 6729 C 616.61 2.90183 -1.86783 0
M  V30 6730 C 615.723 2.96322 -3.14352 0
M  V30 6731 C 614.858 4.25147 -3.18471 0
M  V30 6732 C 613.897 4.25172 -4.40335 0
M  V30 6733 N 613.034 5.45529 -4.41975 0
M  V30 6734 H 617.874 1.33332 -2.66508 0
M  V30 6735 H 615.411 0.647613 -1.32077 0
M  V30 6736 H 617.369 3.70071 -1.92623 0
M  V30 6737 H 615.999 3.0791 -0.969087 0
M  V30 6738 H 615.051 2.09066 -3.17798 0
M  V30 6739 H 616.363 2.92203 -4.04251 0
M  V30 6740 H 615.517 5.13411 -3.23255 0
M  V30 6741 H 614.256 4.31929 -2.2647 0
M  V30 6742 H 613.261 3.353 -4.35723 0
M  V30 6743 H 614.486 4.20049 -5.33606 0
M  V30 6744 H 612.432 5.53024 -3.52847 0
M  V30 6745 H 612.349 5.43311 -5.25689 0
M  V30 6746 H 613.617 6.35812 -4.50958 0
M  V30 6747 N 617.846 1.41785 0.688094 0
M  V30 6748 C 619.095 1.4084 1.44385 0
M  V30 6749 C 619.408 0.0234166 1.95586 0
M  V30 6750 O 620.614 -0.108647 2.71283 0
M  V30 6751 C 619.07 2.47675 2.61123 0
M  V30 6752 C 618.678 3.92116 2.16677 0
M  V30 6753 C 620.422 2.55877 3.38714 0
M  V30 6754 C 618.329 4.90487 3.30419 0
M  V30 6755 H 617.259 0.523787 0.542368 0
M  V30 6756 H 619.91 1.6764 0.74627 0
M  V30 6757 H 618.292 2.14018 3.33185 0
M  V30 6758 H 619.466 4.35059 1.51856 0
M  V30 6759 H 617.781 3.87642 1.5206 0
M  V30 6760 H 620.378 3.26553 4.234 0
M  V30 6761 H 620.721 1.59801 3.84408 0
M  V30 6762 H 621.254 2.88662 2.73714 0
M  V30 6763 H 617.993 5.87994 2.89729 0
M  V30 6764 H 617.513 4.52187 3.94065 0
M  V30 6765 H 619.192 5.11591 3.96085 0
M  V30 6766 N 619.324 -0.923095 1.27737 0
M  V30 6767 C 620.272 -2.04567 1.10703 0
M  V30 6768 C 621.266 -1.69375 0.0288445 0
M  V30 6769 O 622.472 -1.79027 0.186913 0
M  V30 6770 H 618.847 -0.670109 0.34126 0
M  V30 6771 H 620.818 -2.1608 2.05796 0
M  V30 6772 C 619.567 -3.38934 0.775837 0
M  V30 6773 H 618.89 -3.66501 1.59741 0
M  V30 6774 H 620.33 -4.18239 0.696548 0
M  V30 6775 C 618.789 -3.32863 -0.520012 0
M  V30 6776 O 619.319 -3.70462 -1.55308 0
M  V30 6777 N 617.525 -2.85958 -0.51732 0
M  V30 6778 H 617.072 -2.55557 0.32379 0
M  V30 6779 H 617.03 -2.82279 -1.38441 0
M  V30 6780 N 620.802 -1.09834 -1.13024 0
M  V30 6781 C 622.048 -0.848072 -1.84876 0
M  V30 6782 C 622.403 0.619663 -1.82148 0
M  V30 6783 O 621.696 1.45067 -1.25164 0
M  V30 6784 C 621.89 -1.32263 -3.32026 0
M  V30 6785 C 621.719 -2.83497 -3.49084 0
M  V30 6786 C 620.489 -3.51425 -3.63082 0
M  V30 6787 C 622.687 -3.81623 -3.44773 0
M  V30 6788 N 620.669 -4.91042 -3.68443 0
M  V30 6789 C 622.04 -5.07217 -3.56555 0
M  V30 6790 C 624.095 -3.74419 -3.282 0
M  V30 6791 C 622.798 -6.26457 -3.53474 0
M  V30 6792 C 624.824 -4.93151 -3.26429 0
M  V30 6793 C 624.186 -6.1759 -3.38765 0
M  V30 6794 H 620.285 -0.363249 -0.692513 0
M  V30 6795 H 622.869 -1.39952 -1.35357 0
M  V30 6796 H 621.04 -0.79858 -3.80102 0
M  V30 6797 H 622.772 -1.01725 -3.91707 0
M  V30 6798 H 619.527 -3.0186 -3.64935 0
M  V30 6799 H 619.951 -5.63782 -3.74805 0
M  V30 6800 H 624.593 -2.79132 -3.17561 0
M  V30 6801 H 622.311 -7.22039 -3.62884 0
M  V30 6802 H 625.897 -4.8928 -3.14796 0
M  V30 6803 H 624.777 -7.07925 -3.37361 0
M  V30 6804 N 622.28 1.30327 -0.886154 0
M  V30 6805 C 623.243 2.26376 -0.358687 0
M  V30 6806 C 624.243 1.52845 0.499498 0
M  V30 6807 O 625.433 1.71483 0.306485 0
M  V30 6808 C 622.565 3.37379 0.488726 0
M  V30 6809 H 623.758 2.74547 -1.20681 0
M  V30 6810 H 621.311 1.41536 -0.663113 0
M  V30 6811 H 622.046 2.94526 1.35739 0
M  V30 6812 H 621.831 3.91897 -0.126003 0
M  V30 6813 H 623.321 4.08868 0.84952 0
M  V30 6814 N 623.758 0.647228 1.43697 0
M  V30 6815 C 624.983 0.164083 2.0675 0
M  V30 6816 C 625.408 -1.15892 1.48158 0
M  V30 6817 O 624.766 -1.71459 0.589194 0
M  V30 6818 C 624.814 0.0800368 3.60511 0
M  V30 6819 O 623.918 -0.959453 4.01084 0
M  V30 6820 H 623.259 0.0921288 0.657578 0
M  V30 6821 H 625.789 0.88846 1.84303 0
M  V30 6822 H 625.799 -0.105263 4.07864 0
M  V30 6823 H 624.474 1.04586 4.02535 0
M  V30 6824 H 623.051 -0.747425 3.65333 0
M  V30 6825 N 625.236 -1.5273 0.388769 0
M  V30 6826 C 626.168 -2.24081 -0.481704 0
M  V30 6827 C 627.181 -1.26307 -1.02715 0
M  V30 6828 O 628.37 -1.52386 -0.929565 0
M  V30 6829 C 625.47 -2.94315 -1.68024 0
M  V30 6830 C 624.643 -4.18791 -1.26226 0
M  V30 6831 C 623.702 -4.72028 -2.32542 0
M  V30 6832 O 622.728 -5.35129 -1.93972 0
M  V30 6833 N 623.93 -4.51838 -3.64448 0
M  V30 6834 H 626.695 -2.9942 0.129591 0
M  V30 6835 H 624.256 -1.60465 0.2151 0
M  V30 6836 H 626.248 -3.26831 -2.38671 0
M  V30 6837 H 624.818 -2.22287 -2.19789 0
M  V30 6838 H 624.038 -3.92318 -0.384703 0
M  V30 6839 H 625.326 -4.99668 -0.959647 0
M  V30 6840 H 624.724 -4.01468 -3.98547 0
M  V30 6841 H 623.281 -4.88845 -4.31131 0
M  V30 6842 N 626.714 -0.118576 -1.57153 0
M  V30 6843 C 627.677 0.817464 -2.14127 0
M  V30 6844 C 628.677 1.1949 -1.07604 0
M  V30 6845 O 629.867 1.12048 -1.33382 0
M  V30 6846 C 626.999 2.10541 -2.68115 0
M  V30 6847 H 628.192 0.322339 -2.98163 0
M  V30 6848 H 625.745 0.130655 -1.55753 0
M  V30 6849 H 626.48 2.64485 -1.87665 0
M  V30 6850 H 626.265 1.84425 -3.4602 0
M  V30 6851 H 627.755 2.77453 -3.12105 0
M  V30 6852 N 628.193 1.56834 0.155195 0
M  V30 6853 C 629.442 1.82088 0.867567 0
M  V30 6854 C 629.755 0.69849 1.82703 0
M  V30 6855 O 630.961 0.836407 2.58295 0
M  V30 6856 C 629.417 3.22707 1.59336 0
M  V30 6857 C 629.025 4.42859 0.676719 0
M  V30 6858 C 630.769 3.57242 2.293 0
M  V30 6859 C 628.676 5.74501 1.40367 0
M  V30 6860 H 627.606 0.679057 0.327715 0
M  V30 6861 H 630.257 1.83105 0.120351 0
M  V30 6862 H 628.639 3.16054 2.38591 0
M  V30 6863 H 629.813 4.60731 -0.0800196 0
M  V30 6864 H 628.128 4.16311 0.0859129 0
M  V30 6865 H 630.725 4.52847 2.84312 0
M  V30 6866 H 631.068 2.82901 3.05406 0
M  V30 6867 H 631.601 3.6552 1.56972 0
M  V30 6868 H 628.34 6.51915 0.684623 0
M  V30 6869 H 627.86 5.60579 2.13332 0
M  V30 6870 H 629.539 6.17016 1.94681 0
M  V30 6871 N 629.671 -0.424282 1.51781 0
M  V30 6872 C 631.082 -1.00368 1.57427 0
M  V30 6873 C 631.433 -1.91962 0.40558 0
M  V30 6874 O 630.558 -2.111 -0.47601 0
M  V30 6875 C 631.153 -1.82707 2.85313 0
M  V30 6876 C 629.712 -2.35675 2.93487 0
M  V30 6877 C 628.859 -1.1524 2.5222 0
M  V30 6878 H 631.81 -0.205064 1.5737 0
M  V30 6879 H 631.831 -2.68294 2.69812 0
M  V30 6880 H 631.343 -1.16017 3.70353 0
M  V30 6881 H 629.444 -3.05781 2.12906 0
M  V30 6882 H 629.557 -2.67578 3.97415 0
M  V30 6883 H 627.921 -1.50174 2.05718 0
M  V30 6884 H 628.704 -0.5014 3.39619 0
M  V30 6885 N 631.149 -1.42148 -0.680565 0
M  V30 6886 C 632.426 -1.32795 -1.43614 0
M  V30 6887 C 632.806 0.037415 -2.11067 0
M  V30 6888 O 632.154 1.05258 -2.02813 0
M  V30 6889 C 632.364 -2.49206 -2.44331 0
M  V30 6890 C 633.712 -2.91059 -3.09144 0
M  V30 6891 O 634.736 -2.49054 -2.54657 0
M  V30 6892 O 633.595 -3.63741 -4.07866 0
M  V30 6893 H 630.689 -0.523397 -0.640301 0
M  V30 6894 H 633.235 -1.54144 -0.709775 0
M  V30 6895 H 632.007 -3.40252 -1.93247 0
M  V30 6896 H 631.63 -2.29813 -3.24456 0
M  V30 6897 N 632.627 0.916307 -1.28225 0
M  V30 6898 C 633.557 2.0352 -1.14464 0
M  V30 6899 C 634.538 1.70045 -0.0430844 0
M  V30 6900 O 635.723 1.92954 -0.219619 0
M  V30 6901 C 632.853 3.37889 -0.803027 0
M  V30 6902 C 631.807 3.85516 -1.85908 0
M  V30 6903 C 631.133 5.1682 -1.37116 0
M  V30 6904 C 632.433 4.07655 -3.26519 0
M  V30 6905 H 634.127 2.1529 -2.08064 0
M  V30 6906 H 631.673 1.03446 -1.00174 0
M  V30 6907 H 633.626 4.15654 -0.693537 0
M  V30 6908 H 632.35 3.26164 0.168674 0
M  V30 6909 H 631.009 3.09953 -1.95767 0
M  V30 6910 H 630.657 5.01497 -0.38859 0
M  V30 6911 H 630.357 5.49657 -2.07728 0
M  V30 6912 H 631.881 5.97143 -1.27484 0
M  V30 6913 H 633.295 4.75953 -3.19596 0
M  V30 6914 H 631.692 4.51818 -3.94943 0
M  V30 6915 H 632.762 3.12553 -3.70727 0
M  V30 6916 N 634.105 1.10431 1.1244 0
M  V30 6917 C 635.33 0.869089 1.88313 0
M  V30 6918 C 635.755 -0.574912 1.79099 0
M  V30 6919 O 635.113 -1.40496 1.14589 0
M  V30 6920 C 635.161 1.32208 3.3549 0
M  V30 6921 O 634.265 0.487092 4.09513 0
M  V30 6922 H 633.606 0.313894 0.585121 0
M  V30 6923 H 636.136 1.47111 1.42195 0
M  V30 6924 H 636.146 1.31201 3.86329 0
M  V30 6925 H 634.821 2.37364 3.41513 0
M  V30 6926 H 633.398 0.562372 3.68635 0
M  V30 6927 N 635.583 -1.29855 0.893053 0
M  V30 6928 C 636.832 -1.95104 0.511597 0
M  V30 6929 C 637.145 -1.71226 -0.945567 0
M  V30 6930 O 638.351 -2.30525 -1.43424 0
M  V30 6931 C 636.807 -3.49374 0.864034 0
M  V30 6932 C 636.415 -3.82061 2.33952 0
M  V30 6933 C 638.159 -4.20894 0.552167 0
M  V30 6934 C 636.066 -5.29546 2.63316 0
M  V30 6935 H 634.996 -0.73029 0.187597 0
M  V30 6936 H 637.647 -1.47682 1.08914 0
M  V30 6937 H 636.029 -3.95413 0.215493 0
M  V30 6938 H 637.203 -3.46904 3.03305 0
M  V30 6939 H 635.518 -3.23665 2.61973 0
M  V30 6940 H 638.115 -5.29435 0.748489 0
M  V30 6941 H 638.458 -4.13178 -0.508924 0
M  V30 6942 H 638.991 -3.80564 1.15825 0
M  V30 6943 H 635.73 -5.4232 3.68197 0
M  V30 6944 H 635.25 -5.65974 1.9858 0
M  V30 6945 H 636.929 -5.97068 2.49236 0
M  V30 6946 N 637.061 -0.65484 -1.43351 0
M  V30 6947 C 638.008 0.0357713 -2.30772 0
M  V30 6948 C 638.978 0.813035 -1.44841 0
M  V30 6949 O 640.163 0.789314 -1.73708 0
M  V30 6950 C 637.303 0.995084 -3.30442 0
M  V30 6951 C 636.416 0.21375 -4.31471 0
M  V30 6952 C 635.551 1.16701 -5.18222 0
M  V30 6953 C 634.59 0.376201 -6.10943 0
M  V30 6954 N 633.727 1.28113 -6.90313 0
M  V30 6955 H 638.567 -0.71559 -2.89281 0
M  V30 6956 H 636.104 -0.364645 -1.42509 0
M  V30 6957 H 638.062 1.5649 -3.86739 0
M  V30 6958 H 636.692 1.7133 -2.7358 0
M  V30 6959 H 635.744 -0.472377 -3.77456 0
M  V30 6960 H 637.056 -0.401103 -4.97185 0
M  V30 6961 H 636.21 1.8074 -5.79153 0
M  V30 6962 H 634.949 1.81577 -4.52638 0
M  V30 6963 H 633.954 -0.277534 -5.49099 0
M  V30 6964 H 635.179 -0.268178 -6.7857 0
M  V30 6965 H 633.125 1.91666 -6.27376 0
M  V30 6966 H 633.042 0.720879 -7.52555 0
M  V30 6967 H 634.31 1.90962 -7.55747 0
M  V30 6968 N 638.539 1.52521 -0.396863 0
M  V30 6969 C 639.502 2.2527 0.422604 0
M  V30 6970 C 640.502 1.27184 0.983913 0
M  V30 6971 O 641.692 1.51222 0.864723 0
M  V30 6972 C 638.824 3.01356 1.59365 0
M  V30 6973 H 640.017 2.99133 -0.214416 0
M  V30 6974 H 637.57 1.55587 -0.149128 0
M  V30 6975 H 638.305 2.31813 2.26789 0
M  V30 6976 H 638.09 3.73357 1.19779 0
M  V30 6977 H 639.58 3.56571 2.17363 0
M  V30 6978 N 640.017 0.126909 1.57088 0
M  V30 6979 C 640.947 -0.816847 2.18746 0
M  V30 6980 C 641.928 -1.27161 1.12979 0
M  V30 6981 O 643.113 -1.33279 1.41246 0
M  V30 6982 C 640.243 -2.06398 2.79315 0
M  V30 6983 C 639.197 -1.74673 3.90735 0
M  V30 6984 C 638.523 -3.06482 4.38147 0
M  V30 6985 C 639.823 -1.0089 5.12463 0
M  V30 6986 H 641.517 -0.303032 2.97863 0
M  V30 6987 H 639.063 -0.144314 1.43275 0
M  V30 6988 H 641.016 -2.72885 3.2111 0
M  V30 6989 H 639.74 -2.60118 1.975 0
M  V30 6990 H 638.399 -1.10572 3.49527 0
M  V30 6991 H 638.047 -3.58152 3.5318 0
M  V30 6992 H 637.747 -2.86025 5.13287 0
M  V30 6993 H 639.271 -3.74073 4.82599 0
M  V30 6994 H 640.685 -1.57546 5.51228 0
M  V30 6995 H 639.082 -0.905006 5.93237 0
M  V30 6996 H 640.152 0.00297335 4.849 0
M  V30 6997 N 641.495 -1.56914 -0.146875 0
M  V30 6998 C 642.723 -1.87515 -0.874394 0
M  V30 6999 C 643.138 -0.715116 -1.74733 0
M  V30 7000 O 642.495 0.315113 -1.79759 0
M  V30 7001 C 642.546 -3.17362 -1.731 0
M  V30 7002 O 642.267 -4.28897 -0.893245 0
M  V30 7003 C 643.768 -3.61479 -2.56609 0
M  V30 7004 H 640.988 -0.621546 -0.252827 0
M  V30 7005 H 643.532 -2.04023 -0.139627 0
M  V30 7006 H 641.687 -3.02608 -2.41883 0
M  V30 7007 H 642.101 -5.03146 -1.48137 0
M  V30 7008 H 643.575 -4.5517 -3.12289 0
M  V30 7009 H 644.052 -2.86773 -3.32653 0
M  V30 7010 H 644.658 -3.78927 -1.93117 0
M  V30 7011 N 642.974 0.416227 -1.52004 0
M  V30 7012 C 643.922 1.5272 -1.7544 0
M  V30 7013 C 644.916 1.57596 -0.621289 0
M  V30 7014 O 646.122 1.61087 -0.803172 0
M  V30 7015 H 642.497 0.507772 -0.554682 0
M  V30 7016 H 644.468 1.30136 -2.68528 0
M  V30 7017 C 643.217 2.90165 -1.91571 0
M  V30 7018 H 642.54 2.87154 -2.78178 0
M  V30 7019 H 643.98 3.67211 -2.11972 0
M  V30 7020 C 642.439 3.29947 -0.680942 0
M  V30 7021 O 642.969 4.01403 0.154527 0
M  V30 7022 N 641.175 2.8593 -0.518894 0
M  V30 7023 H 640.722 2.2795 -1.19986 0
M  V30 7024 H 640.68 3.12907 0.305985 0
M  V30 7025 N 644.452 1.42507 0.673017 0
M  V30 7026 C 645.385 1.40557 1.79774 0
M  V30 7027 C 646.363 0.269606 1.60349 0
M  V30 7028 O 647.547 0.460105 1.82798 0
M  V30 7029 C 644.674 1.19815 3.168 0
M  V30 7030 C 643.72 2.36429 3.5497 0
M  V30 7031 S 644.553 3.98963 3.57196 0
M  V30 7032 C 645.709 3.80567 4.9691 0
M  V30 7033 H 645.942 2.35734 1.81154 0
M  V30 7034 H 643.475 1.293 0.843846 0
M  V30 7035 H 645.433 1.08535 3.95892 0
M  V30 7036 H 644.094 0.262215 3.13004 0
M  V30 7037 H 643.287 2.17669 4.54573 0
M  V30 7038 H 642.889 2.44233 2.83242 0
M  V30 7039 H 645.181 3.41668 5.85038 0
M  V30 7040 H 646.124 4.79852 5.20718 0
M  V30 7041 H 646.532 3.13399 4.69512 0
M  V30 7042 N 645.93 -0.909495 1.28709 0
M  V30 7043 C 646.863 -2.01388 1.07323 0
M  V30 7044 C 647.841 -1.62596 -0.0119757 0
M  V30 7045 O 649.025 -1.88003 0.136796 0
M  V30 7046 C 646.152 -3.32755 0.631797 0
M  V30 7047 C 645.198 -3.90532 1.71428 0
M  V30 7048 S 646.031 -4.20853 3.31124 0
M  V30 7049 C 647.187 -5.55276 2.88825 0
M  V30 7050 H 647.42 -2.19219 2.00824 0
M  V30 7051 H 644.953 -1.05489 1.12745 0
M  V30 7052 H 646.911 -4.08702 0.38381 0
M  V30 7053 H 645.572 -3.12818 -0.283451 0
M  V30 7054 H 644.765 -4.85385 1.35712 0
M  V30 7055 H 644.367 -3.21237 1.91528 0
M  V30 7056 H 646.659 -6.35341 2.3526 0
M  V30 7057 H 647.602 -5.95907 3.82492 0
M  V30 7058 H 648.01 -5.16666 2.27412 0
M  V30 7059 N 647.408 -1.11026 -1.11852 0
M  V30 7060 C 648.824 -0.843294 -1.35502 0
M  V30 7061 C 649.024 0.534179 -1.9429 0
M  V30 7062 O 648.08 1.28585 -2.17307 0
M  V30 7063 C 649.393 -1.94793 -2.29077 0
M  V30 7064 C 650.941 -1.97709 -2.42652 0
M  V30 7065 C 651.416 -3.07364 -3.39546 0
M  V30 7066 N 652.907 -3.0671 -3.47107 0
M  V30 7067 C 653.642 -3.88197 -4.22008 0
M  V30 7068 N 653.138 -4.79635 -4.99922 0
M  V30 7069 N 654.931 -3.76391 -4.17476 0
M  V30 7070 H 647.082 -1.99805 -0.720538 0
M  V30 7071 H 649.345 -0.868633 -0.379711 0
M  V30 7072 H 649.051 -2.93971 -1.93065 0
M  V30 7073 H 648.925 -1.84039 -3.29256 0
M  V30 7074 H 651.312 -0.991604 -2.77941 0
M  V30 7075 H 651.393 -2.1254 -1.4234 0
M  V30 7076 H 651.037 -4.06136 -3.04985 0
M  V30 7077 H 650.967 -2.89774 -4.39703 0
M  V30 7078 H 653.458 -2.40457 -2.91528 0
M  V30 7079 H 653.771 -5.38357 -5.54429 0
M  V30 7080 H 652.116 -4.8366 -4.99097 0
M  V30 7081 H 655.307 -3.04303 -3.55693 0
M  V30 7082 H 655.48 -4.40131 -4.75593 0
M  V30 7083 N 648.886 1.2938 -0.899927 0
M  V30 7084 C 650.134 1.95164 -0.524924 0
M  V30 7085 C 650.455 1.71292 0.931888 0
M  V30 7086 O 649.725 1.04481 1.65712 0
M  V30 7087 H 648.305 0.722133 -0.191135 0
M  V30 7088 H 650.967 1.57628 -1.14627 0
M  V30 7089 H 650.063 3.0397 -0.707711 0
M  V30 7090 N 650.364 0.662433 1.43002 0
M  V30 7091 C 651.312 -0.035345 2.32573 0
M  V30 7092 C 652.306 -0.803505 1.49131 0
M  V30 7093 O 653.512 -0.712865 1.65282 0
M  V30 7094 H 649.887 -0.0302194 0.751393 0
M  V30 7095 H 651.858 0.737686 2.89138 0
M  V30 7096 C 650.607 -0.981575 3.33557 0
M  V30 7097 H 649.93 -0.399914 3.97795 0
M  V30 7098 H 651.37 -1.43873 3.98844 0
M  V30 7099 C 649.829 -2.08204 2.64863 0
M  V30 7100 O 650.359 -3.16698 2.47113 0
M  V30 7101 N 648.565 -1.85022 2.24088 0
M  V30 7102 H 648.112 -0.967909 2.38724 0
M  V30 7103 H 648.07 -2.58845 1.78457 0
M  V30 7104 N 651.842 -1.52309 0.404946 0
M  V30 7105 C 652.774 -2.24579 -0.45791 0
M  V30 7106 C 653.787 -1.2739 -1.01369 0
M  V30 7107 O 654.976 -1.53363 -0.91335 0
M  V30 7108 C 652.076 -2.9608 -1.64893 0
M  V30 7109 C 651.249 -4.20106 -1.21777 0
M  V30 7110 C 650.308 -4.74468 -2.27523 0
M  V30 7111 O 649.334 -5.37157 -1.88285 0
M  V30 7112 N 650.536 -4.55678 -3.59635 0
M  V30 7113 H 653.301 -2.99265 0.161341 0
M  V30 7114 H 650.862 -1.60228 0.232107 0
M  V30 7115 H 652.854 -3.29344 -2.35191 0
M  V30 7116 H 651.424 -2.24606 -2.17419 0
M  V30 7117 H 650.644 -3.92704 -0.343071 0
M  V30 7118 H 651.932 -5.00658 -0.906596 0
M  V30 7119 H 651.33 -4.05673 -3.94266 0
M  V30 7120 H 649.887 -4.9339 -4.25922 0
M  V30 7121 N 653.32 -0.135238 -1.57019 0
M  V30 7122 C 654.268 0.826099 -2.17436 0
M  V30 7123 C 655.262 1.26378 -1.12805 0
M  V30 7124 O 656.468 1.23363 -1.31079 0
M  V30 7125 H 652.843 0.284568 -0.696078 0
M  V30 7126 H 654.814 0.292212 -2.96966 0
M  V30 7127 C 653.563 2.05991 -2.80112 0
M  V30 7128 H 652.886 1.73209 -3.60331 0
M  V30 7129 H 654.326 2.71225 -3.25903 0
M  V30 7130 C 652.785 2.86027 -1.78017 0
M  V30 7131 O 653.315 3.81971 -1.24344 0
M  V30 7132 N 651.521 2.50332 -1.47588 0
M  V30 7133 H 651.068 1.72377 -1.91426 0
M  V30 7134 H 651.026 3.04177 -0.795228 0
M  V30 7135 N 654.798 1.5699 0.138552 0
M  V30 7136 C 655.728 2.01933 1.17241 0
M  V30 7137 C 656.709 0.90033 1.44319 0
M  V30 7138 O 657.894 1.16872 1.55095 0
M  V30 7139 C 655.024 2.40711 2.50351 0
M  V30 7140 C 653.978 3.55874 2.37776 0
M  V30 7141 C 653.304 3.80491 3.75674 0
M  V30 7142 C 654.604 4.8826 1.85472 0
M  V30 7143 H 656.298 2.88551 0.798672 0
M  V30 7144 H 653.844 1.3882 0.382743 0
M  V30 7145 H 655.797 2.70754 3.22909 0
M  V30 7146 H 654.521 1.5104 2.89576 0
M  V30 7147 H 653.18 3.2601 1.67669 0
M  V30 7148 H 652.828 2.88057 4.12349 0
M  V30 7149 H 652.528 4.57998 3.68119 0
M  V30 7150 H 654.052 4.12967 4.49767 0
M  V30 7151 H 655.466 5.16965 2.4783 0
M  V30 7152 H 653.863 5.69631 1.88787 0
M  V30 7153 H 654.933 4.78071 0.810935 0
M  V30 7154 N 656.276 -0.40816 1.52223 0
M  V30 7155 C 657.224 -1.51788 1.76248 0
M  V30 7156 C 658.218 -1.57264 0.629638 0
M  V30 7157 O 659.424 -1.60659 0.811704 0
M  V30 7158 H 655.799 -0.504823 0.557367 0
M  V30 7159 H 657.77 -1.2871 2.69214 0
M  V30 7160 C 656.519 -2.89145 1.93107 0
M  V30 7161 H 655.842 -2.85674 2.79697 0
M  V30 7162 H 657.282 -3.66082 2.13916 0
M  V30 7163 C 655.741 -3.29581 0.698431 0
M  V30 7164 O 656.271 -4.01479 -0.133238 0
M  V30 7165 N 654.477 -2.85651 0.53405 0
M  V30 7166 H 654.024 -2.2731 1.21194 0
M  V30 7167 H 653.982 -3.13065 -0.289387 0
M  V30 7168 N 657.755 -1.42862 -0.66545 0
M  V30 7169 C 658.98 -1.47456 -1.45848 0
M  V30 7170 C 659.405 -0.0900312 -1.87884 0
M  V30 7171 O 658.763 0.913587 -1.56599 0
M  V30 7172 C 658.811 -2.41514 -2.67774 0
M  V30 7173 O 657.915 -1.89296 -3.66389 0
M  V30 7174 H 657.256 -0.499236 -0.437789 0
M  V30 7175 H 659.786 -1.8765 -0.815394 0
M  V30 7176 H 659.796 -2.58409 -3.15735 0
M  V30 7177 H 658.471 -3.42099 -2.36519 0
M  V30 7178 H 657.048 -1.82003 -3.25468 0
M  V30 7179 N 659.233 0.902656 -1.29189 0
M  V30 7180 C 660.461 1.68639 -1.19869 0
M  V30 7181 C 660.876 1.87254 0.241121 0
M  V30 7182 O 660.233 1.40745 1.16177 0
M  V30 7183 C 660.284 3.07251 -1.90471 0
M  V30 7184 O 660.005 2.89488 -3.28829 0
M  V30 7185 C 661.506 4.01653 -1.8759 0
M  V30 7186 H 658.726 0.526802 -0.415596 0
M  V30 7187 H 661.27 1.12901 -1.7051 0
M  V30 7188 H 659.425 3.59774 -1.43672 0
M  V30 7189 H 659.839 3.77296 -3.64346 0
M  V30 7190 H 661.313 4.96339 -2.4156 0
M  V30 7191 H 661.79 4.30881 -0.850756 0
M  V30 7192 H 662.396 3.55061 -2.34119 0
M  V30 7193 N 660.711 1.11618 1.11262 0
M  V30 7194 C 662.127 0.850468 1.35053 0
M  V30 7195 C 662.327 -0.523868 1.94571 0
M  V30 7196 O 661.383 -1.2743 2.17986 0
M  V30 7197 C 662.696 1.96005 2.28041 0
M  V30 7198 C 664.244 1.98993 2.416 0
M  V30 7199 C 664.719 3.0916 3.37911 0
M  V30 7200 N 666.21 3.08547 3.45475 0
M  V30 7201 C 666.945 3.9043 4.19943 0
M  V30 7202 N 666.441 4.8228 4.97371 0
M  V30 7203 N 668.234 3.786 4.15474 0
M  V30 7204 H 660.385 2.00184 0.709932 0
M  V30 7205 H 662.648 0.870635 0.375099 0
M  V30 7206 H 662.354 2.9499 1.91503 0
M  V30 7207 H 662.228 1.85782 3.28275 0
M  V30 7208 H 664.615 1.00633 2.77411 0
M  V30 7209 H 664.696 2.13292 1.4121 0
M  V30 7210 H 664.34 4.07748 3.02827 0
M  V30 7211 H 664.27 2.92102 4.3816 0
M  V30 7212 H 666.761 2.42 2.90249 0
M  V30 7213 H 667.074 5.41289 5.51567 0
M  V30 7214 H 665.419 4.863 4.96525 0
M  V30 7215 H 668.61 3.06185 3.54074 0
M  V30 7216 H 668.783 4.42647 4.73253 0
M  V30 7217 N 662.189 -1.289 0.906776 0
M  V30 7218 C 663.121 -2.26556 0.347159 0
M  V30 7219 C 664.134 -1.54589 -0.51049 0
M  V30 7220 O 665.323 -1.75489 -0.326501 0
M  V30 7221 C 662.423 -3.3484 -0.523024 0
M  V30 7222 C 661.596 -4.36296 0.310515 0
M  V30 7223 C 660.655 -5.23879 -0.493634 0
M  V30 7224 O 659.681 -5.69127 0.0913569 0
M  V30 7225 N 660.883 -5.51946 -1.7982 0
M  V30 7226 H 663.648 -2.75212 1.18652 0
M  V30 7227 H 661.209 -1.42309 0.771996 0
M  V30 7228 H 663.201 -3.90366 -1.06756 0
M  V30 7229 H 661.771 -2.85946 -1.26309 0
M  V30 7230 H 660.991 -3.80331 1.03644 0
M  V30 7231 H 662.279 -5.01113 0.881106 0
M  V30 7232 H 661.677 -5.17006 -2.2961 0
M  V30 7233 H 660.234 -6.10258 -2.28971 0
M  V30 7234 N 663.667 -0.670007 -1.42649 0
M  V30 7235 C 664.913 -0.19923 -2.02422 0
M  V30 7236 C 665.268 1.17947 -1.52007 0
M  V30 7237 O 664.561 1.77939 -0.710512 0
M  V30 7238 C 664.755 -0.168298 -3.57004 0
M  V30 7239 C 664.584 -1.54246 -4.22419 0
M  V30 7240 C 663.354 -2.13904 -4.57792 0
M  V30 7241 C 665.552 -2.4842 -4.50324 0
M  V30 7242 N 663.534 -3.44151 -5.08364 0
M  V30 7243 C 664.905 -3.63317 -5.02395 0
M  V30 7244 C 666.96 -2.47011 -4.32308 0
M  V30 7245 C 665.663 -4.77051 -5.38345 0
M  V30 7246 C 667.689 -3.59838 -4.6933 0
M  V30 7247 C 667.051 -4.73462 -5.21549 0
M  V30 7248 H 663.15 -0.117717 -0.773089 0
M  V30 7249 H 665.734 -0.881955 -1.73579 0
M  V30 7250 H 663.905 0.483824 -3.85375 0
M  V30 7251 H 665.637 0.314914 -4.03473 0
M  V30 7252 H 662.392 -1.66441 -4.4339 0
M  V30 7253 H 662.816 -4.10846 -5.38084 0
M  V30 7254 H 667.458 -1.60394 -3.91195 0
M  V30 7255 H 665.176 -5.64347 -5.78393 0
M  V30 7256 H 668.762 -3.59969 -4.57071 0
M  V30 7257 H 667.642 -5.59321 -5.49663 0
M  V30 7258 N 665.145 1.52092 -0.413018 0
M  V30 7259 C 666.373 2.06274 0.160881 0
M  V30 7260 C 666.788 1.28273 1.38533 0
M  V30 7261 O 666.145 0.33563 1.79387 0
M  V30 7262 C 666.196 3.57921 0.507443 0
M  V30 7263 O 665.917 4.32971 -0.668388 0
M  V30 7264 C 667.418 4.28533 1.13465 0
M  V30 7265 H 664.638 0.67074 0.0186759 0
M  V30 7266 H 667.182 1.95951 -0.585092 0
M  V30 7267 H 665.337 3.68238 1.20331 0
M  V30 7268 H 665.751 5.23135 -0.378169 0
M  V30 7269 H 667.225 5.35804 1.32732 0
M  V30 7270 H 667.702 3.85258 2.10886 0
M  V30 7271 H 668.308 4.22595 0.478876 0
M  V30 7272 N 666.623 0.143563 1.56945 0
M  V30 7273 C 667.57 -0.797433 2.16586 0
M  V30 7274 C 668.54 -1.24654 1.09775 0
M  V30 7275 O 669.725 -1.31968 1.37801 0
M  V30 7276 C 666.865 -2.03253 2.78895 0
M  V30 7277 C 665.978 -1.62954 4.00087 0
M  V30 7278 C 665.113 -2.81617 4.50406 0
M  V30 7279 C 664.152 -2.37675 5.64072 0
M  V30 7280 N 663.289 -3.49335 6.09023 0
M  V30 7281 H 668.129 -0.282023 2.96662 0
M  V30 7282 H 665.666 -0.127494 1.46546 0
M  V30 7283 H 667.624 -2.75653 3.13163 0
M  V30 7284 H 666.254 -2.52211 2.01469 0
M  V30 7285 H 665.306 -0.803322 3.71821 0
M  V30 7286 H 666.618 -1.26679 4.82446 0
M  V30 7287 H 665.772 -3.62212 4.86711 0
M  V30 7288 H 664.511 -3.21134 3.67048 0
M  V30 7289 H 663.516 -1.55519 5.27346 0
M  V30 7290 H 664.741 -1.99247 6.49213 0
M  V30 7291 H 662.687 -3.8848 5.28601 0
M  V30 7292 H 662.604 -3.17064 6.86299 0
M  V30 7293 H 663.872 -4.30297 6.49973 0
M  V30 7294 N 668.101 -1.57061 -0.130224 0
M  V30 7295 C 669.011 -2.02802 -1.17934 0
M  V30 7296 C 670.027 -0.946378 -1.46013 0
M  V30 7297 O 671.203 -1.25708 -1.57351 0
M  V30 7298 C 668.268 -2.41368 -2.48882 0
M  V30 7299 C 667.329 -3.63561 -2.28301 0
M  V30 7300 C 666.562 -4.00279 -3.53005 0
M  V30 7301 O 666.785 -3.37463 -4.59864 0
M  V30 7302 O 665.719 -4.93441 -3.44673 0
M  V30 7303 H 669.545 -2.92394 -0.820958 0
M  V30 7304 H 667.13 -1.45475 -0.340197 0
M  V30 7305 H 669.012 -2.66958 -3.26054 0
M  V30 7306 H 667.687 -1.54926 -2.84217 0
M  V30 7307 H 666.594 -3.43136 -1.49025 0
M  V30 7308 H 667.927 -4.50673 -1.97875 0
M  V30 7309 N 669.579 0.400081 -1.52437 0
M  V30 7310 C 670.542 1.4707 -1.75793 0
M  V30 7311 C 671.542 1.48036 -0.627856 0
M  V30 7312 O 672.732 1.49401 -0.895817 0
M  V30 7313 C 669.864 2.86427 -1.84858 0
M  V30 7314 H 671.057 1.27649 -2.71377 0
M  V30 7315 H 668.61 0.631141 -1.42991 0
M  V30 7316 H 669.345 3.11207 -0.912194 0
M  V30 7317 H 669.13 2.87128 -2.6702 0
M  V30 7318 H 670.62 3.64023 -2.04638 0
M  V30 7319 N 671.057 1.43213 0.657864 0
M  V30 7320 C 672.473 1.26511 0.972992 0
M  V30 7321 C 672.673 0.181477 2.00681 0
M  V30 7322 O 671.729 -0.441649 2.48608 0
M  V30 7323 C 673.042 2.62784 1.46168 0
M  V30 7324 C 674.59 2.70278 1.57857 0
M  V30 7325 C 675.065 4.06958 2.10117 0
M  V30 7326 N 676.556 4.08999 2.17426 0
M  V30 7327 C 677.291 5.11585 2.58975 0
M  V30 7328 N 676.787 6.24548 2.99853 0
M  V30 7329 N 678.58 4.9894 2.58873 0
M  V30 7330 H 670.731 2.12384 -0.0263129 0
M  V30 7331 H 672.994 0.946638 0.0507992 0
M  V30 7332 H 672.7 3.43022 0.776474 0
M  V30 7333 H 672.574 2.87863 2.43751 0
M  V30 7334 H 674.961 1.90376 2.25479 0
M  V30 7335 H 675.042 2.4897 0.587179 0
M  V30 7336 H 674.686 4.87325 1.43098 0
M  V30 7337 H 674.616 4.25628 3.10078 0
M  V30 7338 H 677.107 3.27457 1.88627 0
M  V30 7339 H 677.42 6.98661 3.30292 0
M  V30 7340 H 675.765 6.28027 2.97669 0
M  V30 7341 H 678.956 4.09757 2.26311 0
M  V30 7342 H 679.129 5.79019 2.90932 0
M  V30 7343 N 672.536 -0.895792 1.29666 0
M  V30 7344 C 673.466 -2.01673 1.17688 0
M  V30 7345 C 674.447 -1.69955 0.0701317 0
M  V30 7346 O 675.632 -1.9258 0.250289 0
M  V30 7347 C 672.762 -3.36568 0.856681 0
M  V30 7348 C 671.716 -3.82509 1.92017 0
M  V30 7349 C 671.042 -5.14574 1.4532 0
M  V30 7350 C 672.342 -4.02409 3.32963 0
M  V30 7351 H 674.036 -2.11953 2.11463 0
M  V30 7352 H 671.582 -1.01839 1.01807 0
M  V30 7353 H 673.535 -4.14498 0.759577 0
M  V30 7354 H 672.259 -3.26391 -0.116763 0
M  V30 7355 H 670.918 -3.068 2.00673 0
M  V30 7356 H 670.566 -5.00815 0.468325 0
M  V30 7357 H 670.266 -5.46283 2.16447 0
M  V30 7358 H 671.79 -5.9504 1.36968 0
M  V30 7359 H 673.204 -4.70808 3.27127 0
M  V30 7360 H 671.601 -4.45478 4.02082 0
M  V30 7361 H 672.671 -3.06616 3.75652 0
M  V30 7362 N 674.014 -1.12206 -1.10668 0
M  V30 7363 C 674.924 -0.800686 -2.20513 0
M  V30 7364 C 675.94 0.209512 -1.72734 0
M  V30 7365 O 677.116 0.043705 -2.01353 0
M  V30 7366 C 674.181 -0.257353 -3.45744 0
M  V30 7367 C 673.242 -1.32718 -4.0827 0
M  V30 7368 C 672.475 -0.809674 -5.27522 0
M  V30 7369 O 672.698 0.35742 -5.69279 0
M  V30 7370 O 671.632 -1.57816 -5.80842 0
M  V30 7371 H 675.458 -1.71807 -2.50432 0
M  V30 7372 H 673.043 -0.898546 -1.19359 0
M  V30 7373 H 674.925 0.0408849 -4.2138 0
M  V30 7374 H 673.6 0.632627 -3.17458 0
M  V30 7375 H 672.507 -1.67855 -3.34329 0
M  V30 7376 H 673.84 -2.19083 -4.40753 0
M  V30 7377 N 675.492 1.28418 -0.913599 0
M  V30 7378 C 676.738 1.9527 -0.547484 0
M  V30 7379 C 677.071 1.71745 0.906486 0
M  V30 7380 O 676.346 1.03834 1.64465 0
M  V30 7381 C 676.629 3.49748 -0.857205 0
M  V30 7382 C 676.482 3.82675 -2.3639 0
M  V30 7383 C 677.801 4.3868 -0.353258 0
M  V30 7384 H 674.92 0.709236 -0.200381 0
M  V30 7385 H 677.562 1.51789 -1.14281 0
M  V30 7386 H 675.712 3.86915 -0.350548 0
M  V30 7387 H 677.384 3.55378 -2.94116 0
M  V30 7388 H 675.627 3.29724 -2.81894 0
M  V30 7389 H 676.298 4.90547 -2.53115 0
M  V30 7390 H 678.774 4.08584 -0.787288 0
M  V30 7391 H 677.65 5.45621 -0.599049 0
M  V30 7392 H 677.911 4.35753 0.746413 0
M  V30 7393 N 676.97 0.677563 1.42291 0
M  V30 7394 C 677.902 -0.0380218 2.29168 0
M  V30 7395 C 678.915 -0.762714 1.43828 0
M  V30 7396 O 680.104 -0.616413 1.67519 0
M  V30 7397 C 677.204 -1.07761 3.21311 0
M  V30 7398 C 676.377 -0.42618 4.35319 0
M  V30 7399 C 675.436 -1.36592 5.08162 0
M  V30 7400 O 674.462 -0.865174 5.62586 0
M  V30 7401 N 675.664 -2.69909 5.13935 0
M  V30 7402 H 678.429 0.707766 2.91223 0
M  V30 7403 H 675.99 0.52219 1.53247 0
M  V30 7404 H 677.982 -1.70761 3.6691 0
M  V30 7405 H 676.552 -1.72511 2.60689 0
M  V30 7406 H 675.772 0.383385 3.92331 0
M  V30 7407 H 677.06 0.0275277 5.08793 0
M  V30 7408 H 676.458 -3.13129 4.71134 0
M  V30 7409 H 675.015 -3.2815 5.6317 0
M  V30 7410 N 678.448 -1.51871 0.421078 0
M  V30 7411 C 679.395 -2.27334 -0.398508 0
M  V30 7412 C 680.365 -1.30241 -1.03085 0
M  V30 7413 O 681.55 -1.59121 -1.05285 0
M  V30 7414 C 678.69 -3.10664 -1.50272 0
M  V30 7415 C 677.803 -4.2273 -0.890122 0
M  V30 7416 C 676.938 -4.93399 -1.96803 0
M  V30 7417 C 675.977 -5.97409 -1.333 0
M  V30 7418 N 675.114 -6.61548 -2.35156 0
M  V30 7419 H 679.954 -2.96938 0.251411 0
M  V30 7420 H 677.491 -1.46472 0.135825 0
M  V30 7421 H 679.449 -3.57292 -2.15403 0
M  V30 7422 H 678.079 -2.43207 -2.1225 0
M  V30 7423 H 677.131 -3.80186 -0.127537 0
M  V30 7424 H 678.443 -4.97302 -0.386349 0
M  V30 7425 H 677.597 -5.43491 -2.69633 0
M  V30 7426 H 676.336 -4.18421 -2.50549 0
M  V30 7427 H 675.341 -5.46624 -0.59008 0
M  V30 7428 H 676.566 -6.74335 -0.803076 0
M  V30 7429 H 674.512 -5.89394 -2.88012 0
M  V30 7430 H 674.429 -7.31832 -1.89624 0
M  V30 7431 H 675.697 -7.16276 -3.0752 0
M  V30 7432 N 679.926 -0.151884 -1.56866 0
M  V30 7433 C 680.889 0.771861 -2.15812 0
M  V30 7434 C 681.889 1.17181 -1.10115 0
M  V30 7435 O 683.079 1.09194 -1.35729 0
M  V30 7436 C 680.211 2.04806 -2.7252 0
M  V30 7437 H 681.404 0.259021 -2.98779 0
M  V30 7438 H 678.957 0.097588 -1.55995 0
M  V30 7439 H 679.692 2.60445 -1.93233 0
M  V30 7440 H 679.477 1.77044 -3.49854 0
M  V30 7441 H 680.967 2.70771 -3.1792 0
M  V30 7442 N 681.404 1.57128 0.121893 0
M  V30 7443 C 682.351 2.0013 1.14964 0
M  V30 7444 C 683.321 0.872959 1.4131 0
M  V30 7445 O 684.506 1.13696 1.53225 0
M  V30 7446 C 681.646 2.40824 2.4718 0
M  V30 7447 C 680.759 3.67061 2.27794 0
M  V30 7448 C 679.894 3.96749 3.53219 0
M  V30 7449 C 678.933 5.16178 3.28978 0
M  V30 7450 N 678.07 5.41751 4.46599 0
M  V30 7451 H 682.91 2.8772 0.775947 0
M  V30 7452 H 680.447 1.42328 0.371652 0
M  V30 7453 H 682.405 2.62454 3.24305 0
M  V30 7454 H 681.035 1.56279 2.82448 0
M  V30 7455 H 680.087 3.53063 1.416 0
M  V30 7456 H 681.399 4.5434 2.05857 0
M  V30 7457 H 680.553 4.19012 4.38764 0
M  V30 7458 H 679.292 3.07941 3.78185 0
M  V30 7459 H 678.297 4.93762 2.41824 0
M  V30 7460 H 679.522 6.06561 3.05386 0
M  V30 7461 H 677.468 4.55899 4.71691 0
M  V30 7462 H 677.385 6.23347 4.27756 0
M  V30 7463 H 678.653 5.68531 5.33285 0
M  V30 7464 N 682.882 -0.391992 1.52647 0
M  V30 7465 C 683.829 -1.47866 1.77213 0
M  V30 7466 C 684.799 -1.54286 0.615223 0
M  V30 7467 O 685.984 -1.7059 0.854622 0
M  V30 7468 C 683.124 -2.85129 1.94411 0
M  V30 7469 C 682.237 -2.87883 3.22098 0
M  V30 7470 C 681.372 -4.16553 3.29631 0
M  V30 7471 C 680.411 -4.13348 4.51453 0
M  V30 7472 N 679.548 -5.33619 4.56284 0
M  V30 7473 H 684.388 -1.26219 2.6995 0
M  V30 7474 H 681.925 -0.612367 1.33748 0
M  V30 7475 H 683.883 -3.64833 2.02367 0
M  V30 7476 H 682.513 -3.05232 1.05038 0
M  V30 7477 H 681.565 -2.00567 3.23229 0
M  V30 7478 H 682.877 -2.81382 4.11856 0
M  V30 7479 H 682.031 -5.0466 3.36753 0
M  V30 7480 H 680.77 -4.25773 2.37842 0
M  V30 7481 H 679.775 -3.23629 4.44459 0
M  V30 7482 H 681 -4.05754 5.44555 0
M  V30 7483 H 678.946 -5.43474 3.67385 0
M  V30 7484 H 678.863 -5.29182 5.3991 0
M  V30 7485 H 680.131 -6.23632 4.67657 0
M  V30 7486 N 684.36 -1.4356 -0.65026 0
M  V30 7487 C 685.323 -1.48615 -1.74489 0
M  V30 7488 C 686.323 -0.370483 -1.56474 0
M  V30 7489 O 687.513 -0.632351 -1.62317 0
M  V30 7490 C 684.645 -1.34161 -3.13391 0
M  V30 7491 H 685.838 -2.46103 -1.71387 0
M  V30 7492 H 683.391 -1.30369 -0.862186 0
M  V30 7493 H 684.126 -0.376918 -3.22102 0
M  V30 7494 H 683.911 -2.1504 -3.27872 0
M  V30 7495 H 685.401 -1.40637 -3.93206 0
M  V30 7496 N 685.838 0.888903 -1.30139 0
M  V30 7497 C 687.087 1.63507 -1.18103 0
M  V30 7498 C 687.4 1.93808 0.264141 0
M  V30 7499 O 688.606 2.66744 0.505966 0
M  V30 7500 C 687.062 2.94673 -2.0663 0
M  V30 7501 C 686.67 2.71926 -3.56034 0
M  V30 7502 C 688.414 3.72626 -2.03346 0
M  V30 7503 C 686.321 3.98884 -4.3663 0
M  V30 7504 H 685.251 0.613426 -0.438435 0
M  V30 7505 H 687.902 0.984427 -1.54859 0
M  V30 7506 H 686.284 3.61009 -1.62754 0
M  V30 7507 H 687.458 2.14116 -4.08033 0
M  V30 7508 H 685.773 2.07353 -3.61101 0
M  V30 7509 H 688.37 4.66775 -2.60816 0
M  V30 7510 H 688.713 4.03712 -1.016 0
M  V30 7511 H 689.246 3.13147 -2.45324 0
M  V30 7512 H 685.985 3.72959 -5.39056 0
M  V30 7513 H 685.505 4.56214 -3.89396 0
M  V30 7514 H 687.184 4.66938 -4.47859 0
M  V30 7515 N 687.317 1.12792 1.10072 0
M  V30 7516 C 688.227 0.812369 2.20086 0
M  V30 7517 C 689.243 -0.200349 1.72843 0
M  V30 7518 O 690.419 -0.0330262 2.01373 0
M  V30 7519 C 687.484 0.275685 3.45602 0
M  V30 7520 C 686.545 1.34881 4.07561 0
M  V30 7521 C 685.778 0.837639 5.27086 0
M  V30 7522 O 686.001 -0.327224 5.69461 0
M  V30 7523 O 684.935 1.60894 5.79997 0
M  V30 7524 H 688.761 1.73133 2.49517 0
M  V30 7525 H 686.346 0.904863 1.18881 0
M  V30 7526 H 688.228 -0.0185375 4.21396 0
M  V30 7527 H 686.903 -0.615783 3.17789 0
M  V30 7528 H 685.81 1.69625 3.33434 0
M  V30 7529 H 687.143 2.21418 4.39585 0
M  V30 7530 N 688.795 -1.27931 0.920396 0
M  V30 7531 C 689.705 -2.30824 0.419212 0
M  V30 7532 C 690.721 -1.66767 -0.496461 0
M  V30 7533 O 691.897 -1.97763 -0.38104 0
M  V30 7534 C 688.962 -3.45158 -0.326601 0
M  V30 7535 C 688.023 -4.24754 0.623098 0
M  V30 7536 C 687.256 -5.33629 -0.0872172 0
M  V30 7537 O 687.479 -5.55204 -1.30784 0
M  V30 7538 O 686.413 -5.99091 0.580875 0
M  V30 7539 H 690.239 -2.75716 1.27337 0
M  V30 7540 H 687.824 -1.32747 0.685465 0
M  V30 7541 H 689.706 -4.14716 -0.747559 0
M  V30 7542 H 688.381 -3.02336 -1.15648 0
M  V30 7543 H 687.288 -3.57759 1.09359 0
M  V30 7544 H 688.621 -4.71272 1.41998 0
M  V30 7545 N 690.273 -0.685099 -1.4193 0
M  V30 7546 C 691.205 0.0258679 -2.29185 0
M  V30 7547 C 692.218 0.755076 -1.44231 0
M  V30 7548 O 693.407 0.60752 -1.67844 0
M  V30 7549 C 690.507 1.06055 -3.21878 0
M  V30 7550 C 689.68 0.403088 -4.35539 0
M  V30 7551 C 688.739 1.33895 -5.0888 0
M  V30 7552 O 687.765 0.835326 -5.63037 0
M  V30 7553 N 688.967 2.6718 -5.15359 0
M  V30 7554 H 691.732 -0.723201 -2.90843 0
M  V30 7555 H 689.293 -0.53031 -1.52968 0
M  V30 7556 H 691.285 1.68813 -3.6781 0
M  V30 7557 H 689.855 1.71126 -2.616 0
M  V30 7558 H 689.075 -0.404185 -3.92122 0
M  V30 7559 H 690.363 -0.0545098 -5.08771 0
M  V30 7560 H 689.761 3.10626 -4.72788 0
M  V30 7561 H 688.318 3.25159 -5.64903 0
M  V30 7562 N 691.751 1.51645 -0.429126 0
M  V30 7563 C 692.997 2.02314 0.140286 0
M  V30 7564 C 693.33 1.31314 1.43074 0
M  V30 7565 O 692.605 0.425531 1.89788 0
M  V30 7566 C 692.888 3.5822 0.36749 0
M  V30 7567 C 692.741 4.39846 -0.941039 0
M  V30 7568 C 694.06 4.25055 1.14089 0
M  V30 7569 H 691.179 0.735335 0.0495112 0
M  V30 7570 H 693.821 1.81358 -0.566514 0
M  V30 7571 H 691.971 3.76207 0.969556 0
M  V30 7572 H 693.643 4.33527 -1.57646 0
M  V30 7573 H 691.886 4.05259 -1.54751 0
M  V30 7574 H 692.557 5.47069 -0.73621 0
M  V30 7575 H 695.033 4.11288 0.630986 0
M  V30 7576 H 693.909 5.34038 1.26863 0
M  V30 7577 H 694.17 3.85358 2.16683 0
M  V30 7578 N 693.229 0.160201 1.56784 0
M  V30 7579 C 694.161 -0.80564 2.14574 0
M  V30 7580 C 695.174 -1.20154 1.09849 0
M  V30 7581 O 696.363 -1.14333 1.37078 0
M  V30 7582 C 693.463 -2.09434 2.6644 0
M  V30 7583 C 692.636 -1.86375 3.95706 0
M  V30 7584 C 691.695 -2.99358 4.32749 0
M  V30 7585 O 690.721 -2.70475 5.00831 0
M  V30 7586 N 691.923 -4.26867 3.93402 0
M  V30 7587 H 694.688 -0.311644 2.98075 0
M  V30 7588 H 692.249 -0.0229465 1.61884 0
M  V30 7589 H 694.241 -2.84091 2.88226 0
M  V30 7590 H 692.811 -2.50057 1.8759 0
M  V30 7591 H 692.031 -0.956821 3.82412 0
M  V30 7592 H 693.319 -1.68322 4.80151 0
M  V30 7593 H 692.717 -4.53197 3.38569 0
M  V30 7594 H 691.274 -4.98263 4.20211 0
M  V30 7595 N 694.707 -1.5719 -0.113559 0
M  V30 7596 C 695.637 -2.03772 -1.14013 0
M  V30 7597 C 696.618 -0.923176 -1.42869 0
M  V30 7598 O 697.803 -1.19325 -1.53216 0
M  V30 7599 C 694.933 -2.44663 -2.4649 0
M  V30 7600 C 693.887 -3.59612 -2.32085 0
M  V30 7601 C 693.213 -3.8642 -3.69573 0
M  V30 7602 C 694.513 -4.91149 -1.7768 0
M  V30 7603 H 696.207 -2.89785 -0.752665 0
M  V30 7604 H 693.753 -1.39412 -0.360609 0
M  V30 7605 H 695.706 -2.75857 -3.18561 0
M  V30 7606 H 694.43 -1.55628 -2.87137 0
M  V30 7607 H 693.089 -3.28636 -1.62461 0
M  V30 7608 H 692.737 -2.94581 -4.07715 0
M  V30 7609 H 692.437 -4.63797 -3.60786 0
M  V30 7610 H 693.961 -4.2007 -4.4314 0
M  V30 7611 H 695.375 -5.20843 -2.39574 0
M  V30 7612 H 693.772 -5.72562 -1.79701 0
M  V30 7613 H 694.842 -4.79301 -0.734776 0
M  V30 7614 N 696.185 0.383891 -1.52853 0
M  V30 7615 C 697.433 1.12619 -1.67814 0
M  V30 7616 C 697.754 1.90354 -0.423141 0
M  V30 7617 O 697.024 1.87649 0.562554 0
M  V30 7618 H 695.604 0.418738 -0.618601 0
M  V30 7619 H 698.266 0.43495 -1.89985 0
M  V30 7620 H 697.362 1.82624 -2.5309 0
M  V30 7621 N 697.663 1.43903 0.642637 0
M  V30 7622 C 698.893 1.49323 1.4278 0
M  V30 7623 C 699.301 0.113058 1.88862 0
M  V30 7624 O 698.644 -0.889089 1.60751 0
M  V30 7625 C 698.706 2.3861 2.68897 0
M  V30 7626 C 698.37 3.85976 2.44687 0
M  V30 7627 C 699.367 4.7681 2.07239 0
M  V30 7628 C 697.052 4.30567 2.58683 0
M  V30 7629 C 699.046 6.10234 1.841 0
M  V30 7630 C 696.733 5.64042 2.35159 0
M  V30 7631 C 697.731 6.53693 1.97925 0
M  V30 7632 O 697.419 7.84698 1.74654 0
M  V30 7633 H 697.151 0.509109 0.444729 0
M  V30 7634 H 699.705 1.89425 0.794195 0
M  V30 7635 H 697.935 1.93415 3.34855 0
M  V30 7636 H 699.624 2.35112 3.30873 0
M  V30 7637 H 700.39 4.43635 1.95993 0
M  V30 7638 H 696.269 3.61054 2.86637 0
M  V30 7639 H 699.813 6.80171 1.54962 0
M  V30 7640 H 695.71 5.96782 2.46011 0
M  V30 7641 H 696.478 7.96382 1.88993 0
M  V30 7642 N 699.141 -0.881989 1.30609 0
M  V30 7643 C 700.371 -1.66469 1.22359 0
M  V30 7644 C 700.779 -1.87969 -0.215507 0
M  V30 7645 O 700.122 -1.42938 -1.15388 0
M  V30 7646 C 700.184 -3.06135 1.88472 0
M  V30 7647 C 699.848 -3.07795 3.37804 0
M  V30 7648 C 700.845 -2.86633 4.33749 0
M  V30 7649 C 698.53 -3.29297 3.793 0
M  V30 7650 C 700.524 -2.86934 5.69164 0
M  V30 7651 C 698.211 -3.29228 5.14832 0
M  V30 7652 C 699.209 -3.08071 6.09574 0
M  V30 7653 O 698.897 -3.07824 7.4263 0
M  V30 7654 H 698.629 -0.526129 0.424458 0
M  V30 7655 H 701.183 -1.11004 1.72821 0
M  V30 7656 H 699.413 -3.63276 1.32543 0
M  V30 7657 H 701.102 -3.66571 1.74301 0
M  V30 7658 H 701.868 -2.69814 4.0302 0
M  V30 7659 H 697.747 -3.44799 3.05998 0
M  V30 7660 H 701.291 -2.70339 6.43088 0
M  V30 7661 H 697.188 -3.45583 5.452 0
M  V30 7662 H 697.956 -3.2397 7.51656 0
M  V30 7663 N 700.619 -1.13374 -1.09472 0
M  V30 7664 C 701.896 -0.806329 -1.78207 0
M  V30 7665 C 702.276 0.702191 -1.99079 0
M  V30 7666 O 701.624 1.63931 -1.59182 0
M  V30 7667 C 701.834 -1.59271 -3.10538 0
M  V30 7668 C 703.182 -1.78509 -3.85253 0
M  V30 7669 O 704.206 -1.55866 -3.20288 0
M  V30 7670 O 703.065 -2.16287 -5.01879 0
M  V30 7671 H 700.159 -0.29435 -0.772843 0
M  V30 7672 H 702.705 -1.23833 -1.16033 0
M  V30 7673 H 701.477 -2.61792 -2.90828 0
M  V30 7674 H 701.1 -1.15562 -3.80436 0
M  V30 7675 N 702.098 1.27442 -0.927168 0
M  V30 7676 C 703.509 1.76385 -0.611979 0
M  V30 7677 C 703.86 1.75715 0.872853 0
M  V30 7678 O 702.985 1.3603 1.683 0
M  V30 7679 C 703.58 3.20303 -1.10414 0
M  V30 7680 C 702.139 3.66916 -0.839628 0
M  V30 7681 C 701.286 2.46859 -1.26317 0
M  V30 7682 H 704.237 1.13716 -1.107 0
M  V30 7683 H 704.258 3.77811 -0.451578 0
M  V30 7684 H 703.77 3.20759 -2.18484 0
M  V30 7685 H 701.871 3.71906 0.227292 0
M  V30 7686 H 701.984 4.56415 -1.45679 0
M  V30 7687 H 700.348 2.45407 -0.681723 0
M  V30 7688 H 701.131 2.50025 -2.3525 0
M  V30 7689 N 703.576 0.692616 1.41565 0
M  V30 7690 C 704.801 0.229776 2.06123 0
M  V30 7691 C 705.226 -1.11119 1.5177 0
M  V30 7692 O 704.584 -1.69498 0.643444 0
M  V30 7693 C 704.632 0.19469 3.60074 0
M  V30 7694 O 703.736 -0.831366 4.03933 0
M  V30 7695 H 703.077 0.113002 0.654314 0
M  V30 7696 H 705.607 0.946645 1.81383 0
M  V30 7697 H 705.617 0.0245487 4.07993 0
M  V30 7698 H 704.292 1.17339 3.99004 0
M  V30 7699 H 702.869 -0.630819 3.67526 0
M  V30 7700 N 705.054 -1.51416 0.437162 0
M  V30 7701 C 706.001 -2.27743 -0.374374 0
M  V30 7702 C 706.971 -1.31327 -1.01698 0
M  V30 7703 O 708.156 -1.60229 -1.03592 0
M  V30 7704 C 705.296 -3.12241 -1.46969 0
M  V30 7705 C 704.409 -4.23651 -0.845236 0
M  V30 7706 C 703.544 -4.95458 -1.91559 0
M  V30 7707 C 702.583 -5.98789 -1.26956 0
M  V30 7708 N 701.72 -6.64005 -2.28126 0
M  V30 7709 H 706.56 -2.96654 0.282892 0
M  V30 7710 H 704.097 -1.46319 0.151352 0
M  V30 7711 H 706.055 -3.59556 -2.11602 0
M  V30 7712 H 704.685 -2.45445 -2.09659 0
M  V30 7713 H 703.737 -3.803 -0.0872059 0
M  V30 7714 H 705.049 -4.97683 -0.333582 0
M  V30 7715 H 704.203 -5.46321 -2.63854 0
M  V30 7716 H 702.942 -4.21055 -2.46097 0
M  V30 7717 H 701.947 -5.47219 -0.53207 0
M  V30 7718 H 703.172 -6.75149 -0.731509 0
M  V30 7719 H 701.118 -5.92415 -2.81745 0
M  V30 7720 H 701.035 -7.33802 -1.81852 0
M  V30 7721 H 702.303 -7.19498 -2.99905 0
M  V30 7722 N 706.532 -0.168513 -1.56696 0
M  V30 7723 C 707.442 0.775435 -2.21414 0
M  V30 7724 C 708.458 1.25529 -1.20492 0
M  V30 7725 O 709.634 1.30801 -1.53144 0
M  V30 7726 C 706.699 1.9886 -2.83999 0
M  V30 7727 C 705.76 1.5559 -4.00113 0
M  V30 7728 C 704.993 2.71124 -4.59704 0
M  V30 7729 O 705.216 3.87917 -4.18182 0
M  V30 7730 O 704.15 2.4536 -5.4962 0
M  V30 7731 H 707.976 0.254416 -3.02632 0
M  V30 7732 H 705.561 0.0595507 -1.49281 0
M  V30 7733 H 707.443 2.69816 -3.23693 0
M  V30 7734 H 706.118 2.49874 -2.05779 0
M  V30 7735 H 705.025 0.815924 -3.65094 0
M  V30 7736 H 706.358 1.09271 -4.79917 0
M  V30 7737 N 708.01 1.57248 0.105221 0
M  V30 7738 C 708.94 2.04374 1.12931 0
M  V30 7739 C 709.921 0.93074 1.42377 0
M  V30 7740 O 711.106 1.20136 1.52581 0
M  V30 7741 C 708.236 2.45967 2.45189 0
M  V30 7742 C 707.19 3.60838 2.30174 0
M  V30 7743 C 706.516 3.88374 3.67518 0
M  V30 7744 C 707.816 4.92084 1.75073 0
M  V30 7745 H 709.51 2.9018 0.737287 0
M  V30 7746 H 707.056 1.39601 0.353211 0
M  V30 7747 H 709.009 2.77542 3.17094 0
M  V30 7748 H 707.733 1.57148 2.86308 0
M  V30 7749 H 706.392 3.29493 1.60716 0
M  V30 7750 H 706.04 2.96739 4.06147 0
M  V30 7751 H 705.74 4.65703 3.58321 0
M  V30 7752 H 707.264 4.22415 4.40906 0
M  V30 7753 H 708.678 5.22106 2.36809 0
M  V30 7754 H 707.075 5.73507 1.76662 0
M  V30 7755 H 708.145 4.79684 0.709347 0
M  V30 7756 N 709.488 -0.375779 1.53054 0
M  V30 7757 C 710.718 -1.1387 1.72386 0
M  V30 7758 C 711.126 -1.8382 0.447966 0
M  V30 7759 O 710.469 -1.74027 -0.588244 0
M  V30 7760 C 710.531 -2.22047 2.82728 0
M  V30 7761 C 710.195 -1.71951 4.23417 0
M  V30 7762 C 711.192 -1.18909 5.06119 0
M  V30 7763 C 708.877 -1.77773 4.69789 0
M  V30 7764 C 710.871 -0.723529 6.3328 0
M  V30 7765 C 708.558 -1.30829 5.96931 0
M  V30 7766 C 709.556 -0.782077 6.78508 0
M  V30 7767 O 709.244 -0.319529 8.03265 0
M  V30 7768 H 708.976 -0.346835 0.580242 0
M  V30 7769 H 711.53 -0.443748 2.00549 0
M  V30 7770 H 709.76 -2.95006 2.50017 0
M  V30 7771 H 711.449 -2.83654 2.90336 0
M  V30 7772 H 712.215 -1.13758 4.7147 0
M  V30 7773 H 708.094 -2.17673 4.06373 0
M  V30 7774 H 711.638 -0.312126 6.96901 0
M  V30 7775 H 707.535 -1.3567 6.31081 0
M  V30 7776 H 708.303 -0.439796 8.17318 0
M  V30 7777 N 710.966 -1.44241 -0.634997 0
M  V30 7778 C 711.929 -1.50457 -1.72903 0
M  V30 7779 C 712.929 -0.387058 -1.56072 0
M  V30 7780 O 714.119 -0.649531 -1.61638 0
M  V30 7781 C 711.251 -1.37477 -3.1195 0
M  V30 7782 H 712.444 -2.47907 -1.68767 0
M  V30 7783 H 709.997 -1.31276 -0.84831 0
M  V30 7784 H 710.732 -0.41106 -3.21684 0
M  V30 7785 H 710.517 -2.18506 -3.25573 0
M  V30 7786 H 712.007 -1.44799 -3.91692 0
M  V30 7787 N 712.444 0.87505 -1.31075 0
M  V30 7788 C 713.391 1.98178 -1.18296 0
M  V30 7789 C 714.361 1.65952 -0.0699923 0
M  V30 7790 O 715.546 1.8926 -0.241951 0
M  V30 7791 C 712.686 3.33399 -0.891024 0
M  V30 7792 C 711.799 3.78253 -2.08684 0
M  V30 7793 C 710.934 5.02166 -1.73212 0
M  V30 7794 C 709.973 5.39455 -2.89231 0
M  V30 7795 N 709.11 6.54549 -2.53989 0
M  V30 7796 H 713.95 2.0844 -2.12971 0
M  V30 7797 H 711.487 1.02047 -1.05948 0
M  V30 7798 H 713.445 4.11246 -0.702338 0
M  V30 7799 H 712.075 3.22794 0.0188799 0
M  V30 7800 H 711.127 2.9623 -2.38646 0
M  V30 7801 H 712.439 4.01821 -2.95536 0
M  V30 7802 H 711.593 5.87666 -1.50777 0
M  V30 7803 H 710.332 4.80491 -0.83544 0
M  V30 7804 H 709.337 4.52477 -3.12321 0
M  V30 7805 H 710.562 5.63098 -3.79601 0
M  V30 7806 H 708.508 6.3443 -1.66838 0
M  V30 7807 H 708.425 6.78035 -3.34372 0
M  V30 7808 H 709.693 7.43254 -2.34934 0
M  V30 7809 N 713.922 1.13953 1.08869 0
M  V30 7810 C 714.852 0.844824 2.17681 0
M  V30 7811 C 715.833 -0.198213 1.68941 0
M  V30 7812 O 717.018 -0.0559073 1.9412 0
M  V30 7813 C 714.148 0.316325 3.45856 0
M  V30 7814 C 713.102 1.29426 4.07962 0
M  V30 7815 C 712.428 0.625275 5.31031 0
M  V30 7816 C 713.728 2.65484 4.49795 0
M  V30 7817 H 715.422 1.75471 2.42591 0
M  V30 7818 H 712.968 0.845116 1.16592 0
M  V30 7819 H 714.921 0.0977876 4.21287 0
M  V30 7820 H 713.645 -0.628972 3.20486 0
M  V30 7821 H 712.304 1.49889 3.34558 0
M  V30 7822 H 711.952 -0.325678 5.01945 0
M  V30 7823 H 711.652 1.27777 5.73539 0
M  V30 7824 H 713.176 0.416152 6.0918 0
M  V30 7825 H 714.59 2.48957 5.16424 0
M  V30 7826 H 712.987 3.26963 5.03205 0
M  V30 7827 H 714.057 3.22717 3.61914 0
M  V30 7828 N 715.4 -1.26948 0.933913 0
M  V30 7829 C 716.625 -1.98724 0.593589 0
M  V30 7830 C 717.05 -1.6915 -0.822801 0
M  V30 7831 O 716.408 -0.93533 -1.5531 0
M  V30 7832 C 716.456 -3.50834 0.833542 0
M  V30 7833 O 715.56 -4.12284 -0.0978788 0
M  V30 7834 H 714.901 -0.623683 0.227849 0
M  V30 7835 H 717.431 -1.61599 1.25486 0
M  V30 7836 H 717.441 -4.01018 0.75156 0
M  V30 7837 H 716.116 -3.71691 1.86597 0
M  V30 7838 H 714.693 -3.72884 0.0345443 0
M  V30 7839 N 716.879 -0.700114 -1.41195 0
M  V30 7840 C 717.809 -0.0521132 -2.33442 0
M  V30 7841 C 718.79 0.76228 -1.52063 0
M  V30 7842 O 719.975 0.714336 -1.80585 0
M  V30 7843 C 717.105 0.881693 -3.35922 0
M  V30 7844 C 716.059 0.174062 -4.27646 0
M  V30 7845 C 715.385 1.22254 -5.20536 0
M  V30 7846 C 716.685 -0.962396 -5.13357 0
M  V30 7847 H 718.379 -0.822574 -2.87879 0
M  V30 7848 H 715.925 -0.397011 -1.38419 0
M  V30 7849 H 717.878 1.34429 -3.99383 0
M  V30 7850 H 716.602 1.68387 -2.79845 0
M  V30 7851 H 715.261 -0.268551 -3.65615 0
M  V30 7852 H 714.909 2.01736 -4.60773 0
M  V30 7853 H 714.609 0.754038 -5.82742 0
M  V30 7854 H 716.133 1.68555 -5.86874 0
M  V30 7855 H 717.547 -0.579875 -5.7036 0
M  V30 7856 H 715.944 -1.35828 -5.84526 0
M  V30 7857 H 717.014 -1.80003 -4.50252 0
M  V30 7858 N 718.357 1.51182 -0.445186 0
M  V30 7859 C 719.603 2.02452 0.11882 0
M  V30 7860 C 719.936 1.32824 1.41673 0
M  V30 7861 O 719.211 0.445637 1.89326 0
M  V30 7862 C 719.494 3.5859 0.329475 0
M  V30 7863 C 719.347 4.38823 -0.987638 0
M  V30 7864 C 720.666 4.26241 1.09575 0
M  V30 7865 H 717.785 0.735819 0.0417092 0
M  V30 7866 H 720.427 1.80747 -0.585718 0
M  V30 7867 H 718.577 3.77214 0.9296 0
M  V30 7868 H 720.249 4.3183 -1.62235 0
M  V30 7869 H 718.492 4.03594 -1.59041 0
M  V30 7870 H 719.163 5.46257 -0.794192 0
M  V30 7871 H 721.639 4.11934 0.587328 0
M  V30 7872 H 720.515 5.35354 1.21191 0
M  V30 7873 H 720.776 3.87635 2.12584 0
M  V30 7874 N 719.835 0.176821 1.56605 0
M  V30 7875 C 721.083 -0.465793 1.96659 0
M  V30 7876 C 721.404 -1.63406 1.06412 0
M  V30 7877 O 720.674 -1.95457 0.131603 0
M  V30 7878 H 719.254 -0.175072 0.726195 0
M  V30 7879 H 721.916 0.25929 1.93168 0
M  V30 7880 H 721.012 -0.822138 3.01077 0
M  V30 7881 N 721.313 -1.57302 -0.09688 0
M  V30 7882 C 722.724 -1.7496 -0.651595 0
M  V30 7883 C 723.075 -0.798746 -1.79205 0
M  V30 7884 O 722.2 0.0231858 -2.16388 0
M  V30 7885 C 722.795 -3.17259 -1.18878 0
M  V30 7886 C 721.354 -3.36348 -1.68958 0
M  V30 7887 C 720.501 -2.70766 -0.598413 0
M  V30 7888 H 723.452 -1.58173 0.12918 0
M  V30 7889 H 723.473 -3.20033 -2.05814 0
M  V30 7890 H 722.985 -3.8644 -0.358523 0
M  V30 7891 H 721.086 -2.72243 -2.5439 0
M  V30 7892 H 721.199 -4.44654 -1.7838 0
M  V30 7893 H 719.563 -2.32615 -1.03743 0
M  V30 7894 H 720.346 -3.42586 0.221238 0
M  V30 7895 N 722.791 0.367657 -1.53252 0
M  V30 7896 C 723.741 1.45035 -1.75923 0
M  V30 7897 C 724.725 1.48736 -0.613719 0
M  V30 7898 O 725.917 1.54012 -0.872313 0
M  V30 7899 C 723.046 2.82493 -1.9507 0
M  V30 7900 C 722.132 2.83279 -3.15617 0
M  V30 7901 N 722.523 2.53712 -4.37566 0
M  V30 7902 C 720.821 3.1444 -3.16297 0
M  V30 7903 C 721.522 2.62123 -5.19294 0
M  V30 7904 N 720.498 2.96747 -4.55458 0
M  V30 7905 H 724.3 1.21035 -2.6782 0
M  V30 7906 H 721.814 0.575822 -1.51849 0
M  V30 7907 H 723.811 3.60473 -2.0944 0
M  V30 7908 H 722.471 3.07459 -1.044 0
M  V30 7909 H 723.482 2.27344 -4.65333 0
M  V30 7910 H 720.159 3.44733 -2.35511 0
M  V30 7911 H 721.549 2.42628 -6.26563 0
M  V30 7912 N 724.269 1.44576 0.627338 0
M  V30 7913 C 725.201 1.47724 1.75243 0
M  V30 7914 C 726.214 0.370193 1.58535 0
M  V30 7915 O 727.403 0.636151 1.66779 0
M  V30 7916 C 724.503 1.2991 3.13012 0
M  V30 7917 C 723.676 2.5393 3.56143 0
M  V30 7918 C 722.735 2.30961 4.72804 0
M  V30 7919 O 721.761 3.04469 4.80923 0
M  V30 7920 N 722.963 1.34261 5.6476 0
M  V30 7921 H 725.728 2.44718 1.73012 0
M  V30 7922 H 723.289 1.40064 0.812022 0
M  V30 7923 H 725.281 1.12385 3.88782 0
M  V30 7924 H 723.851 0.412668 3.09864 0
M  V30 7925 H 723.071 2.86707 2.70542 0
M  V30 7926 H 724.359 3.36411 3.81713 0
M  V30 7927 H 723.757 0.735573 5.60897 0
M  V30 7928 H 722.314 1.22713 6.40144 0
M  V30 7929 N 725.747 -0.868086 1.31537 0
M  V30 7930 C 726.996 -1.61607 1.20689 0
M  V30 7931 C 727.309 -1.94204 -0.233275 0
M  V30 7932 O 728.515 -2.67515 -0.463465 0
M  V30 7933 C 726.971 -2.91348 2.11292 0
M  V30 7934 C 726.579 -2.66227 3.60315 0
M  V30 7935 C 728.323 -3.69344 2.09249 0
M  V30 7936 C 726.23 -3.91887 4.42921 0
M  V30 7937 H 725.16 -0.606373 0.448138 0
M  V30 7938 H 727.811 -0.959666 1.56405 0
M  V30 7939 H 726.193 -3.58374 1.68477 0
M  V30 7940 H 727.367 -2.07597 4.11388 0
M  V30 7941 H 725.682 -2.01582 3.64354 0
M  V30 7942 H 728.279 -4.62567 2.68209 0
M  V30 7943 H 728.622 -4.02044 1.0801 0
M  V30 7944 H 729.155 -3.09205 2.50274 0
M  V30 7945 H 725.894 -3.64336 5.44922 0
M  V30 7946 H 725.414 -4.49961 3.96605 0
M  V30 7947 H 727.093 -4.59754 4.55231 0
M  V30 7948 N 727.225 -1.14528 -1.08264 0
M  V30 7949 C 728.45 -0.938381 -1.84957 0
M  V30 7950 C 728.875 0.508044 -1.81109 0
M  V30 7951 O 728.233 1.36146 -1.19724 0
M  V30 7952 C 728.281 -1.44568 -3.30352 0
M  V30 7953 O 727.385 -0.638745 -4.07423 0
M  V30 7954 H 726.726 -0.335394 -0.573068 0
M  V30 7955 H 729.256 -1.52287 -1.36637 0
M  V30 7956 H 729.266 -1.45449 -3.81194 0
M  V30 7957 H 727.941 -2.49876 -3.32468 0
M  V30 7958 H 726.518 -0.698801 -3.66294 0
M  V30 7959 N 728.703 1.26451 -0.940633 0
M  V30 7960 C 729.933 1.97581 -0.603766 0
M  V30 7961 C 730.341 1.70246 0.825395 0
M  V30 7962 O 729.684 0.967001 1.56188 0
M  V30 7963 C 729.746 3.51256 -0.765463 0
M  V30 7964 C 729.41 4.0224 -2.16915 0
M  V30 7965 C 730.407 4.1402 -3.14457 0
M  V30 7966 C 728.092 4.36263 -2.48958 0
M  V30 7967 C 730.086 4.59117 -4.42143 0
M  V30 7968 C 727.773 4.81048 -3.76877 0
M  V30 7969 C 728.771 4.92436 -4.73282 0
M  V30 7970 O 728.459 5.36234 -5.98923 0
M  V30 7971 H 728.191 0.636948 -0.226436 0
M  V30 7972 H 730.745 1.61941 -1.2635 0
M  V30 7973 H 728.975 3.86669 -0.0485956 0
M  V30 7974 H 730.664 4.03597 -0.431738 0
M  V30 7975 H 731.43 3.87981 -2.91026 0
M  V30 7976 H 727.309 4.26634 -1.74656 0
M  V30 7977 H 730.853 4.6792 -5.17394 0
M  V30 7978 H 726.75 5.06531 -4.00121 0
M  V30 7979 H 727.518 5.54456 -6.02097 0
M  V30 7980 N 730.181 0.707592 1.40822 0
M  V30 7981 C 731.113 0.0105968 2.29198 0
M  V30 7982 C 732.126 -0.732035 1.45414 0
M  V30 7983 O 733.315 -0.580741 1.68789 0
M  V30 7984 C 730.415 -1.00921 3.23525 0
M  V30 7985 C 729.588 -0.333747 4.36125 0
M  V30 7986 C 728.647 -1.25783 5.10945 0
M  V30 7987 O 727.673 -0.745646 5.64295 0
M  V30 7988 N 728.875 -2.58947 5.19545 0
M  V30 7989 H 731.64 0.76938 2.89656 0
M  V30 7990 H 729.201 0.554579 1.52105 0
M  V30 7991 H 731.193 -1.6294 3.70449 0
M  V30 7992 H 729.763 -1.66942 2.6429 0
M  V30 7993 H 728.983 0.466518 3.9143 0
M  V30 7994 H 730.271 0.135444 5.0862 0
M  V30 7995 H 729.669 -3.03065 4.7767 0
M  V30 7996 H 728.226 -3.16131 5.70004 0
M  V30 7997 N 731.66 -1.50943 0.453197 0
M  V30 7998 C 732.906 -2.02512 -0.108082 0
M  V30 7999 C 733.239 -1.33574 -1.40967 0
M  V30 8000 O 732.514 -0.455671 -1.89087 0
M  V30 8001 C 732.797 -3.58759 -0.310453 0
M  V30 8002 C 732.65 -4.38293 1.0109 0
M  V30 8003 C 733.969 -4.26816 -1.07313 0
M  V30 8004 H 731.088 -0.73603 -0.0378064 0
M  V30 8005 H 733.73 -1.80433 0.595295 0
M  V30 8006 H 731.88 -3.77702 -0.909582 0
M  V30 8007 H 733.552 -4.30964 1.64523 0
M  V30 8008 H 731.795 -4.02745 1.61179 0
M  V30 8009 H 732.466 -5.45828 0.82315 0
M  V30 8010 H 734.942 -4.1224 -0.565473 0
M  V30 8011 H 733.818 -5.35989 -1.1835 0
M  V30 8012 H 734.079 -3.88757 -2.10525 0
M  V30 8013 N 733.138 -0.185124 -1.56509 0
M  V30 8014 C 734.368 0.461469 -2.0138 0
M  V30 8015 C 734.776 1.56417 -1.06445 0
M  V30 8016 O 734.119 1.83603 -0.0597515 0
M  V30 8017 C 734.181 1.08731 -3.42663 0
M  V30 8018 C 733.845 0.124581 -4.5683 0
M  V30 8019 C 734.842 -0.662295 -5.15664 0
M  V30 8020 C 732.527 0.0163947 -5.02297 0
M  V30 8021 C 734.521 -1.54442 -6.18406 0
M  V30 8022 C 732.208 -0.869301 -6.04885 0
M  V30 8023 C 733.206 -1.64828 -6.62813 0
M  V30 8024 O 732.894 -2.51915 -7.63409 0
M  V30 8025 H 732.626 0.1212 -0.665046 0
M  V30 8026 H 735.18 -0.288119 -2.03369 0
M  V30 8027 H 733.41 1.8853 -3.37629 0
M  V30 8028 H 735.099 1.63753 -3.71403 0
M  V30 8029 H 735.865 -0.588963 -4.81411 0
M  V30 8030 H 731.744 0.61253 -4.56913 0
M  V30 8031 H 735.288 -2.15289 -6.63548 0
M  V30 8032 H 731.185 -0.943786 -6.38563 0
M  V30 8033 H 731.953 -2.45584 -7.80789 0
M  V30 8034 N 734.616 1.57351 0.0885366 0
M  V30 8035 C 735.548 1.99221 1.13329 0
M  V30 8036 C 736.561 0.895705 1.35945 0
M  V30 8037 O 737.75 1.17376 1.34481 0
M  V30 8038 C 734.85 2.3016 2.48756 0
M  V30 8039 C 734.023 3.61444 2.46327 0
M  V30 8040 C 733.082 3.80244 3.63732 0
M  V30 8041 O 732.108 4.52024 3.45924 0
M  V30 8042 N 733.31 3.2132 4.8346 0
M  V30 8043 H 736.075 2.89456 0.776862 0
M  V30 8044 H 733.636 1.59505 0.277428 0
M  V30 8045 H 735.628 2.39925 3.25911 0
M  V30 8046 H 734.198 1.459 2.76464 0
M  V30 8047 H 733.418 3.62588 1.54673 0
M  V30 8048 H 734.706 4.47678 2.41789 0
M  V30 8049 H 734.104 2.63028 5.00832 0
M  V30 8050 H 732.661 3.3656 5.58185 0
M  V30 8051 N 736.094 -0.359525 1.53444 0
M  V30 8052 C 737.041 -1.44073 1.8031 0
M  V30 8053 C 738.011 -1.52946 0.647811 0
M  V30 8054 O 739.196 -1.68739 0.890614 0
M  V30 8055 C 736.336 -2.80941 2.00416 0
M  V30 8056 C 735.449 -2.80986 3.28132 0
M  V30 8057 C 734.584 -4.09468 3.38393 0
M  V30 8058 C 733.623 -4.03679 4.60119 0
M  V30 8059 N 732.76 -5.23821 4.675 0
M  V30 8060 H 737.6 -1.20464 2.72566 0
M  V30 8061 H 735.137 -0.583859 1.35017 0
M  V30 8062 H 737.095 -3.60459 2.1006 0
M  V30 8063 H 735.725 -3.02936 1.11489 0
M  V30 8064 H 734.777 -1.93666 3.27411 0
M  V30 8065 H 736.089 -2.72583 4.17732 0
M  V30 8066 H 735.243 -4.97404 3.47382 0
M  V30 8067 H 733.982 -4.20632 2.4682 0
M  V30 8068 H 732.987 -3.14129 4.51224 0
M  V30 8069 H 734.212 -3.94112 5.5304 0
M  V30 8070 H 732.158 -5.35559 3.7883 0
M  V30 8071 H 732.075 -5.17611 5.51013 0
M  V30 8072 H 733.343 -6.13572 4.8078 0
M  V30 8073 N 737.572 -1.44907 -0.619662 0
M  V30 8074 C 738.849 -1.38766 -1.37852 0
M  V30 8075 C 739.229 -0.0521393 -2.11036 0
M  V30 8076 O 738.577 0.965613 -2.07095 0
M  V30 8077 C 738.787 -2.59344 -2.33541 0
M  V30 8078 C 740.135 -3.03909 -2.96521 0
M  V30 8079 O 741.159 -2.59631 -2.43865 0
M  V30 8080 O 740.018 -3.80713 -3.92071 0
M  V30 8081 H 737.112 -0.550083 -0.617525 0
M  V30 8082 H 739.658 -1.57015 -0.643759 0
M  V30 8083 H 738.43 -3.48142 -1.78642 0
M  V30 8084 H 738.053 -2.43367 -3.14417 0
M  V30 8085 N 739.05 0.861098 -1.31996 0
M  V30 8086 C 740.461 1.43065 -1.19955 0
M  V30 8087 C 740.812 1.95273 0.190489 0
M  V30 8088 O 739.937 1.87012 1.08882 0
M  V30 8089 C 740.532 2.60052 -2.1716 0
M  V30 8090 C 739.091 3.13026 -2.09026 0
M  V30 8091 C 738.238 1.85756 -2.05888 0
M  V30 8092 H 741.189 0.668834 -1.43918 0
M  V30 8093 H 741.21 3.37016 -1.76637 0
M  V30 8094 H 740.722 2.22024 -3.18319 0
M  V30 8095 H 738.823 3.55653 -1.11092 0
M  V30 8096 H 738.936 3.74707 -2.98549 0
M  V30 8097 H 737.3 2.05088 -1.51033 0
M  V30 8098 H 738.083 1.49954 -3.08818 0
M  V30 8099 N 740.528 1.15101 1.07655 0
M  V30 8100 C 741.438 0.858869 2.18313 0
M  V30 8101 C 742.454 -0.163641 1.73229 0
M  V30 8102 O 743.63 0.00969541 2.01398 0
M  V30 8103 C 740.695 0.34893 3.4494 0
M  V30 8104 C 739.756 1.43495 4.04608 0
M  V30 8105 C 738.989 0.949253 5.2519 0
M  V30 8106 O 739.212 -0.20636 5.70027 0
M  V30 8107 O 738.146 1.73161 5.76454 0
M  V30 8108 H 741.972 1.78386 2.45788 0
M  V30 8109 H 739.557 0.929876 1.16934 0
M  V30 8110 H 741.439 0.070851 4.2134 0
M  V30 8111 H 740.114 -0.548237 3.19024 0
M  V30 8112 H 739.021 1.7666 3.29761 0
M  V30 8113 H 740.354 2.30692 4.3479 0
M  V30 8114 N 742.006 -1.2595 0.947325 0
M  V30 8115 C 742.953 -2.26159 0.460497 0
M  V30 8116 C 743.923 -1.58919 -0.483125 0
M  V30 8117 O 745.108 -1.86603 -0.397983 0
M  V30 8118 C 742.248 -3.441 -0.26247 0
M  V30 8119 C 741.361 -4.25999 0.717539 0
M  V30 8120 C 740.496 -5.31193 -0.0272486 0
M  V30 8121 C 739.535 -6.04774 0.944177 0
M  V30 8122 N 738.672 -7.01721 0.230741 0
M  V30 8123 H 743.512 -2.67173 1.31995 0
M  V30 8124 H 741.049 -1.31358 0.662088 0
M  V30 8125 H 743.007 -4.11317 -0.698137 0
M  V30 8126 H 741.637 -3.03983 -1.08602 0
M  V30 8127 H 740.689 -3.58513 1.27171 0
M  V30 8128 H 742.001 -4.76981 1.45913 0
M  V30 8129 H 741.155 -6.04451 -0.521903 0
M  V30 8130 H 739.894 -4.81066 -0.801682 0
M  V30 8131 H 738.899 -5.30338 1.4499 0
M  V30 8132 H 740.124 -6.56991 1.71872 0
M  V30 8133 H 738.07 -6.53895 -0.525088 0
M  V30 8134 H 737.987 -7.50484 0.911556 0
M  V30 8135 H 739.255 -7.79122 -0.242616 0
M  V30 8136 N 743.484 -0.715051 -1.40445 0
M  V30 8137 C 744.733 -0.251322 -2.00128 0
M  V30 8138 C 745.046 1.16194 -1.57347 0
M  V30 8139 O 746.252 1.72416 -2.09726 0
M  V30 8140 C 744.708 -0.398407 -3.57688 0
M  V30 8141 C 744.316 -1.81828 -4.09442 0
M  V30 8142 C 746.06 0.00455625 -4.245 0
M  V30 8143 C 743.967 -1.91598 -5.59503 0
M  V30 8144 H 742.897 -0.0902081 -0.748584 0
M  V30 8145 H 745.548 -0.886062 -1.6069 0
M  V30 8146 H 743.93 0.304908 -3.94824 0
M  V30 8147 H 745.104 -2.55193 -3.83684 0
M  V30 8148 H 743.419 -2.17266 -3.55225 0
M  V30 8149 H 746.016 -0.0477303 -5.34679 0
M  V30 8150 H 746.359 1.04636 -4.02935 0
M  V30 8151 H 746.892 -0.649184 -3.92467 0
M  V30 8152 H 743.631 -2.93898 -5.85922 0
M  V30 8153 H 743.151 -1.22644 -5.87127 0
M  V30 8154 H 744.83 -1.68785 -6.24596 0
M  V30 8155 N 744.962 1.50701 -0.461195 0
M  V30 8156 C 745.892 2.31182 0.328184 0
M  V30 8157 C 746.873 1.37644 0.999408 0
M  V30 8158 O 748.058 1.66565 0.99848 0
M  V30 8159 C 745.188 3.17113 1.41621 0
M  V30 8160 C 744.142 4.19124 0.867148 0
M  V30 8161 C 743.468 4.93728 2.05272 0
M  V30 8162 C 744.768 5.22174 -0.114808 0
M  V30 8163 H 746.462 2.97423 -0.343501 0
M  V30 8164 H 744.008 1.43033 -0.166641 0
M  V30 8165 H 745.961 3.72208 1.97584 0
M  V30 8166 H 744.685 2.48739 2.11652 0
M  V30 8167 H 743.344 3.65116 0.329557 0
M  V30 8168 H 742.992 4.21835 2.73978 0
M  V30 8169 H 742.692 5.62724 1.69161 0
M  V30 8170 H 744.216 5.51654 2.61744 0
M  V30 8171 H 745.63 5.72198 0.355316 0
M  V30 8172 H 744.027 5.98833 -0.389689 0
M  V30 8173 H 745.097 4.7353 -1.04391 0
M  V30 8174 N 746.441 0.193421 1.56409 0
M  V30 8175 C 747.687 -0.43983 1.98588 0
M  V30 8176 C 748.042 -1.59353 1.07816 0
M  V30 8177 O 747.335 -1.9121 0.122226 0
M  V30 8178 C 747.529 -0.949718 3.44551 0
M  V30 8179 C 747.358 0.153045 4.49439 0
M  V30 8180 C 746.128 0.610119 5.01603 0
M  V30 8181 C 748.326 0.961397 5.05234 0
M  V30 8182 N 746.308 1.69088 5.90155 0
M  V30 8183 C 747.679 1.8916 5.90439 0
M  V30 8184 C 749.734 1.004 4.87672 0
M  V30 8185 C 748.437 2.86086 6.5996 0
M  V30 8186 C 750.463 1.96131 5.57931 0
M  V30 8187 C 749.825 2.87895 6.42881 0
M  V30 8188 H 745.924 -0.128415 0.771384 0
M  V30 8189 H 748.508 0.29873 1.92395 0
M  V30 8190 H 746.679 -1.65772 3.51246 0
M  V30 8191 H 748.411 -1.55344 3.73698 0
M  V30 8192 H 745.166 0.203771 4.73161 0
M  V30 8193 H 745.59 2.23241 6.39134 0
M  V30 8194 H 750.232 0.308536 4.21673 0
M  V30 8195 H 747.95 3.56609 7.25159 0
M  V30 8196 H 751.536 2.00066 5.46319 0
M  V30 8197 H 750.416 3.60763 6.9629 0
M  V30 8198 N 747.919 -1.57396 -0.0801906 0
M  V30 8199 C 749.149 -1.90778 -0.792924 0
M  V30 8200 C 749.557 -0.786814 -1.72064 0
M  V30 8201 O 748.9 0.249259 -1.82001 0
M  V30 8202 C 748.962 -3.19552 -1.64702 0
M  V30 8203 C 748.626 -4.48259 -0.889567 0
M  V30 8204 C 749.623 -5.19465 -0.212602 0
M  V30 8205 C 747.308 -4.94896 -0.859229 0
M  V30 8206 C 749.302 -6.35555 0.484566 0
M  V30 8207 C 746.989 -6.10895 -0.158284 0
M  V30 8208 C 747.987 -6.81075 0.512421 0
M  V30 8209 O 747.675 -7.94862 1.20209 0
M  V30 8210 H 747.407 -0.63527 -0.231103 0
M  V30 8211 H 749.961 -2.0532 -0.0573081 0
M  V30 8212 H 748.191 -3.01196 -2.42524 0
M  V30 8213 H 749.88 -3.38649 -2.23767 0
M  V30 8214 H 750.646 -4.84467 -0.227403 0
M  V30 8215 H 746.525 -4.4015 -1.37073 0
M  V30 8216 H 750.069 -6.9027 1.00864 0
M  V30 8217 H 745.966 -6.45345 -0.141381 0
M  V30 8218 H 746.734 -8.10932 1.11051 0
M  V30 8219 N 749.397 0.351382 -1.53633 0
M  V30 8220 C 750.645 1.09034 -1.70165 0
M  V30 8221 C 750.966 1.89413 -0.463422 0
M  V30 8222 O 750.236 1.888 0.522624 0
M  V30 8223 H 748.816 0.405522 -0.627344 0
M  V30 8224 H 751.478 0.394554 -1.90865 0
M  V30 8225 H 750.574 1.77215 -2.56907 0
M  V30 8226 N 750.875 1.45233 0.611969 0
M  V30 8227 C 751.822 1.5357 1.72293 0
M  V30 8228 C 752.792 0.381912 1.6165 0
M  V30 8229 O 753.977 0.594765 1.81293 0
M  V30 8230 C 751.117 1.50419 3.10593 0
M  V30 8231 C 750.23 2.76316 3.32074 0
M  V30 8232 C 749.365 2.64866 4.60456 0
M  V30 8233 C 748.404 3.85838 4.7518 0
M  V30 8234 N 747.541 3.72949 5.94856 0
M  V30 8235 H 752.381 2.4848 1.64504 0
M  V30 8236 H 749.918 1.23302 0.802191 0
M  V30 8237 H 751.876 1.4658 3.90602 0
M  V30 8238 H 750.506 0.590621 3.17351 0
M  V30 8239 H 749.558 2.90261 2.45872 0
M  V30 8240 H 750.87 3.66055 3.38829 0
M  V30 8241 H 750.024 2.58969 5.48653 0
M  V30 8242 H 748.763 1.72719 4.56092 0
M  V30 8243 H 747.768 3.92099 3.85407 0
M  V30 8244 H 748.993 4.79045 4.81344 0
M  V30 8245 H 746.939 2.83567 5.91545 0
M  V30 8246 H 746.856 4.56319 6.02751 0
M  V30 8247 H 748.124 3.70976 6.85563 0
M  V30 8248 N 752.353 -0.854086 1.3245 0
M  V30 8249 C 753.286 -1.96654 1.15768 0
M  V30 8250 C 754.264 -1.625 0.0569975 0
M  V30 8251 O 755.448 -1.87254 0.216412 0
M  V30 8252 C 752.575 -3.29776 0.772361 0
M  V30 8253 C 751.621 -3.82909 1.87837 0
M  V30 8254 S 752.454 -4.0643 3.48675 0
M  V30 8255 C 753.61 -5.42526 3.12116 0
M  V30 8256 H 753.843 -2.10504 2.09942 0
M  V30 8257 H 751.376 -1.00612 1.17118 0
M  V30 8258 H 753.334 -4.06706 0.556809 0
M  V30 8259 H 751.995 -3.13739 -0.150519 0
M  V30 8260 H 751.188 -4.79192 1.56177 0
M  V30 8261 H 750.79 -3.12825 2.0498 0
M  V30 8262 H 753.082 -6.24792 2.61996 0
M  V30 8263 H 754.025 -5.79148 4.07422 0
M  V30 8264 H 754.433 -5.06556 2.49121 0
M  V30 8265 N 753.831 -1.1567 -1.07043 0
M  V30 8266 C 755.056 -0.957946 -1.83952 0
M  V30 8267 C 755.481 0.488807 -1.81638 0
M  V30 8268 O 754.839 1.34869 -1.21162 0
M  V30 8269 C 754.887 -1.48064 -3.288 0
M  V30 8270 O 753.991 -0.681921 -4.06723 0
M  V30 8271 H 753.332 -0.341453 -0.569479 0
M  V30 8272 H 755.862 -1.53728 -1.35015 0
M  V30 8273 H 755.872 -1.49484 -3.7963 0
M  V30 8274 H 754.547 -2.53388 -3.29799 0
M  V30 8275 H 753.124 -0.737612 -3.65532 0
M  V30 8276 N 755.309 1.25446 -0.953992 0
M  V30 8277 C 756.725 1.4539 -0.658316 0
M  V30 8278 C 756.925 1.85607 0.784356 0
M  V30 8279 O 755.981 1.98568 1.55972 0
M  V30 8280 C 757.294 2.52643 -1.6307 0
M  V30 8281 C 758.842 2.66484 -1.64181 0
M  V30 8282 C 759.317 3.76921 -2.60182 0
M  V30 8283 N 760.808 3.84331 -2.58542 0
M  V30 8284 C 761.543 4.69271 -3.29503 0
M  V30 8285 N 761.039 5.58503 -4.09934 0
M  V30 8286 N 762.832 4.6323 -3.18393 0
M  V30 8287 H 754.983 0.976337 -1.8863 0
M  V30 8288 H 757.246 0.490343 -0.811337 0
M  V30 8289 H 756.952 2.29949 -2.66114 0
M  V30 8290 H 756.826 3.50547 -1.39271 0
M  V30 8291 H 759.213 2.88545 -0.618552 0
M  V30 8292 H 759.294 1.68982 -1.92038 0
M  V30 8293 H 758.938 3.55612 -3.62633 0
M  V30 8294 H 758.868 4.73906 -2.29609 0
M  V30 8295 H 761.359 3.20544 -2.0015 0
M  V30 8296 H 761.672 6.20241 -4.61 0
M  V30 8297 H 760.017 5.58214 -4.14032 0
M  V30 8298 H 763.208 3.92527 -2.5503 0
M  V30 8299 H 763.381 5.29204 -3.73961 0
M  V30 8300 N 756.787 0.722489 1.40064 0
M  V30 8301 C 757.719 0.0349057 2.29173 0
M  V30 8302 C 758.732 -0.716571 1.46182 0
M  V30 8303 O 759.921 -0.562806 1.69395 0
M  V30 8304 C 757.021 -0.974839 3.24577 0
M  V30 8305 C 756.194 -0.287471 4.36454 0
M  V30 8306 C 755.253 -1.20356 5.12251 0
M  V30 8307 O 754.279 -0.685753 5.65054 0
M  V30 8308 N 755.481 -2.53422 5.22262 0
M  V30 8309 H 758.246 0.800058 2.88824 0
M  V30 8310 H 755.807 0.57068 1.51509 0
M  V30 8311 H 757.799 -1.59002 3.72157 0
M  V30 8312 H 756.369 -1.6413 2.66046 0
M  V30 8313 H 755.589 0.508008 3.90913 0
M  V30 8314 H 756.877 0.189382 5.08447 0
M  V30 8315 H 756.275 -2.97981 4.80857 0
M  V30 8316 H 754.832 -3.10067 5.73325 0
M  V30 8317 N 758.265 -1.50454 0.469181 0
M  V30 8318 C 759.212 -2.28486 -0.325982 0
M  V30 8319 C 760.182 -1.33455 -0.988893 0
M  V30 8320 O 761.367 -1.6239 -1.0017 0
M  V30 8321 C 758.507 -3.15288 -1.40313 0
M  V30 8322 C 757.62 -4.25348 -0.755183 0
M  V30 8323 C 756.755 -4.9941 -1.81006 0
M  V30 8324 C 755.794 -6.01348 -1.14226 0
M  V30 8325 N 754.931 -6.68695 -2.1399 0
M  V30 8326 H 759.771 -2.95987 0.345753 0
M  V30 8327 H 757.308 -1.45965 0.182355 0
M  V30 8328 H 759.266 -3.63964 -2.03927 0
M  V30 8329 H 757.896 -2.49837 -2.04405 0
M  V30 8330 H 756.948 -3.80399 -0.00651901 0
M  V30 8331 H 758.26 -4.98279 -0.227941 0
M  V30 8332 H 757.414 -5.51794 -2.52206 0
M  V30 8333 H 756.153 -4.26181 -2.3711 0
M  V30 8334 H 755.158 -5.48225 -0.415876 0
M  V30 8335 H 756.383 -6.76548 -0.588135 0
M  V30 8336 H 754.329 -5.98258 -2.69115 0
M  V30 8337 H 754.246 -7.37495 -1.66246 0
M  V30 8338 H 755.514 -7.25697 -2.84576 0
M  V30 8339 N 759.743 -0.201713 -1.56304 0
M  V30 8340 C 760.69 0.716499 -2.19397 0
M  V30 8341 C 761.66 1.20494 -1.14326 0
M  V30 8342 O 762.845 1.26763 -1.42604 0
M  V30 8343 C 759.985 1.92762 -2.86246 0
M  V30 8344 C 759.098 1.47993 -4.0586 0
M  V30 8345 C 758.233 2.64706 -4.60547 0
M  V30 8346 C 757.272 2.16576 -5.72504 0
M  V30 8347 N 756.409 3.26491 -6.21569 0
M  V30 8348 H 761.249 0.171724 -2.97505 0
M  V30 8349 H 758.786 0.073016 -1.46919 0
M  V30 8350 H 760.744 2.6384 -3.23178 0
M  V30 8351 H 759.374 2.44559 -2.10691 0
M  V30 8352 H 758.426 0.66477 -3.74546 0
M  V30 8353 H 759.738 1.08686 -4.86815 0
M  V30 8354 H 758.892 3.43898 -4.99819 0
M  V30 8355 H 757.631 3.0729 -3.78713 0
M  V30 8356 H 756.636 1.3584 -5.32755 0
M  V30 8357 H 757.861 1.75015 -6.56161 0
M  V30 8358 H 755.807 3.68594 -5.42655 0
M  V30 8359 H 755.724 2.91374 -6.97594 0
M  V30 8360 H 756.992 4.05877 -6.65495 0
M  V30 8361 N 761.222 1.57436 0.0718424 0
M  V30 8362 C 762.169 2.03686 1.08539 0
M  V30 8363 C 763.139 0.917474 1.38462 0
M  V30 8364 O 764.324 1.18513 1.4953 0
M  V30 8365 C 761.464 2.48566 2.39393 0
M  V30 8366 C 760.577 3.74122 2.16001 0
M  V30 8367 C 759.712 4.07786 3.40418 0
M  V30 8368 C 758.751 5.26383 3.1239 0
M  V30 8369 N 757.888 5.55685 4.29138 0
M  V30 8370 H 762.728 2.90043 0.684018 0
M  V30 8371 H 760.265 1.43438 0.326183 0
M  V30 8372 H 762.223 2.72639 3.15791 0
M  V30 8373 H 760.853 1.65186 2.77333 0
M  V30 8374 H 759.905 3.57389 1.30296 0
M  V30 8375 H 761.217 4.60659 1.91298 0
M  V30 8376 H 760.371 4.32759 4.25211 0
M  V30 8377 H 759.11 3.19817 3.68197 0
M  V30 8378 H 758.115 5.01206 2.25993 0
M  V30 8379 H 759.34 6.1597 2.85934 0
M  V30 8380 H 757.286 4.70675 4.56948 0
M  V30 8381 H 757.203 6.3664 4.07708 0
M  V30 8382 H 758.471 5.85209 5.14928 0
M  V30 8383 N 762.7 -0.34323 1.53817 0
M  V30 8384 C 763.663 -1.40444 1.8113 0
M  V30 8385 C 764.663 -1.45604 0.682366 0
M  V30 8386 O 765.853 -1.45974 0.950649 0
M  V30 8387 C 762.985 -2.79369 1.95361 0
M  V30 8388 H 764.178 -1.17489 2.75928 0
M  V30 8389 H 761.731 -0.577636 1.45234 0
M  V30 8390 H 762.466 -3.07607 1.02707 0
M  V30 8391 H 762.251 -2.7702 2.77493 0
M  V30 8392 H 763.741 -3.56178 2.18008 0
M  V30 8393 N 764.178 -1.45556 -0.604258 0
M  V30 8394 C 765.088 -1.57025 -1.74299 0
M  V30 8395 C 766.104 -0.45456 -1.67958 0
M  V30 8396 O 767.28 -0.715711 -1.88254 0
M  V30 8397 C 764.345 -1.53702 -3.10768 0
M  V30 8398 C 763.406 -2.76335 -3.28538 0
M  V30 8399 C 762.639 -2.73161 -4.58496 0
M  V30 8400 O 762.862 -1.80678 -5.41028 0
M  V30 8401 O 761.796 -3.64409 -4.79051 0
M  V30 8402 H 765.622 -2.53284 -1.67573 0
M  V30 8403 H 763.207 -1.28104 -0.768745 0
M  V30 8404 H 765.089 -1.54468 -3.92068 0
M  V30 8405 H 763.764 -0.605957 -3.17978 0
M  V30 8406 H 762.671 -2.8113 -2.46813 0
M  V30 8407 H 764.004 -3.68578 -3.26207 0
M  V30 8408 N 765.656 0.84705 -1.32902 0
M  V30 8409 C 766.604 1.97765 -1.22441 0
M  V30 8410 C 767.598 1.68919 -0.127546 0
M  V30 8411 O 768.804 1.77633 -0.290973 0
M  V30 8412 H 765.179 0.649072 -0.379748 0
M  V30 8413 H 767.15 2.03713 -2.18044 0
M  V30 8414 C 765.899 3.33834 -0.972125 0
M  V30 8415 H 765.222 3.56564 -1.80837 0
M  V30 8416 H 766.662 4.13467 -0.939209 0
M  V30 8417 C 765.121 3.35328 0.325059 0
M  V30 8418 O 765.651 3.78887 1.33445 0
M  V30 8419 N 763.857 2.88488 0.349718 0
M  V30 8420 H 763.404 2.53234 -0.472236 0
M  V30 8421 H 763.362 2.8987 1.21748 0
M  V30 8422 N 767.134 1.16236 1.06428 0
M  V30 8423 C 768.362 0.967184 1.82902 0
M  V30 8424 C 768.777 -0.484601 1.82475 0
M  V30 8425 O 768.134 -1.33631 1.24294 0
M  V30 8426 C 768.185 1.48534 3.29576 0
M  V30 8427 O 767.906 2.88026 3.3011 0
M  V30 8428 C 769.407 1.33298 4.22784 0
M  V30 8429 H 766.627 0.342923 0.576754 0
M  V30 8430 H 769.171 1.54232 1.34286 0
M  V30 8431 H 767.326 0.952513 3.75508 0
M  V30 8432 H 767.74 3.11721 4.21818 0
M  V30 8433 H 769.214 1.74385 5.23731 0
M  V30 8434 H 769.691 0.278356 4.38317 0
M  V30 8435 H 770.297 1.85535 3.82697 0
M  V30 8436 N 768.612 -1.24939 0.960631 0
M  V30 8437 C 769.852 -1.94565 0.626414 0
M  V30 8438 C 770.216 -1.73505 -0.822184 0
M  V30 8439 O 771.417 -2.37105 -1.26628 0
M  V30 8440 C 769.688 -3.43631 0.982462 0
M  V30 8441 S 771.247 -4.32138 0.761726 0
M  V30 8442 H 768.065 -0.672757 0.230043 0
M  V30 8443 H 770.667 -1.51464 1.23608 0
M  V30 8444 H 769.371 -3.56463 2.03377 0
M  V30 8445 H 768.902 -3.91719 0.363286 0
M  V30 8446 H 770.917 -4.94859 -0.364493 0
M  V30 8447 N 770.09 -0.729906 -1.39679 0
M  V30 8448 C 771.367 -0.202149 -1.94553 0
M  V30 8449 C 771.747 1.29507 -1.66707 0
M  V30 8450 O 771.095 2.05819 -0.992517 0
M  V30 8451 C 771.305 -0.530279 -3.44948 0
M  V30 8452 C 772.653 -0.476808 -4.21914 0
M  V30 8453 O 773.677 -0.467171 -3.53123 0
M  V30 8454 O 772.536 -0.466869 -5.44502 0
M  V30 8455 H 769.63 -0.0351644 -0.826252 0
M  V30 8456 H 772.176 -0.808417 -1.49207 0
M  V30 8457 H 770.948 -1.56526 -3.5863 0
M  V30 8458 H 770.571 0.10522 -3.97461 0
M  V30 8459 N 771.568 1.50203 -0.477153 0
M  V30 8460 C 772.817 2.01551 0.0774548 0
M  V30 8461 C 773.13 1.36359 1.40234 0
M  V30 8462 O 774.336 1.78898 2.04225 0
M  V30 8463 C 772.792 3.59406 0.188539 0
M  V30 8464 C 772.4 4.3356 -1.12828 0
M  V30 8465 C 774.144 4.18776 0.694782 0
M  V30 8466 C 772.051 5.83213 -0.98066 0
M  V30 8467 H 770.981 0.75329 0.0327212 0
M  V30 8468 H 773.632 1.72959 -0.612969 0
M  V30 8469 H 772.014 3.84611 0.942881 0
M  V30 8470 H 773.188 4.20074 -1.89405 0
M  V30 8471 H 771.503 3.85827 -1.5661 0
M  V30 8472 H 774.1 5.28338 0.822356 0
M  V30 8473 H 774.443 3.80557 1.68766 0
M  V30 8474 H 774.976 3.978 -0.00234519 0
M  V30 8475 H 771.715 6.25914 -1.94709 0
M  V30 8476 H 771.235 5.99256 -0.255375 0
M  V30 8477 H 772.914 6.4373 -0.649717 0
M  V30 8478 N 773.046 0.209999 1.56195 0
M  V30 8479 C 774.009 -0.691232 2.18528 0
M  V30 8480 C 775.009 -1.13013 1.14388 0
M  V30 8481 O 776.199 -1.04081 1.39688 0
M  V30 8482 C 773.331 -1.94551 2.79934 0
M  V30 8483 H 774.524 -0.147953 2.99535 0
M  V30 8484 H 772.077 -0.0396243 1.5625 0
M  V30 8485 H 772.812 -2.53094 2.02766 0
M  V30 8486 H 772.597 -1.63938 3.56184 0
M  V30 8487 H 774.087 -2.58785 3.2775 0
M  V30 8488 N 774.524 -1.57472 -0.0634922 0
M  V30 8489 C 775.454 -2.07297 -1.07473 0
M  V30 8490 C 776.435 -0.968162 -1.39859 0
M  V30 8491 O 777.62 -1.24139 -1.49343 0
M  V30 8492 C 774.75 -2.52381 -2.38581 0
M  V30 8493 C 773.704 -3.66813 -2.20526 0
M  V30 8494 C 773.03 -3.97982 -3.57092 0
M  V30 8495 C 774.33 -4.96553 -1.61965 0
M  V30 8496 H 776.024 -2.92033 -0.660092 0
M  V30 8497 H 773.57 -1.40488 -0.316074 0
M  V30 8498 H 775.523 -2.85852 -3.09624 0
M  V30 8499 H 774.247 -1.64684 -2.8204 0
M  V30 8500 H 772.906 -3.33639 -1.51924 0
M  V30 8501 H 772.554 -3.07403 -3.98136 0
M  V30 8502 H 772.254 -4.7504 -3.45848 0
M  V30 8503 H 773.778 -4.33956 -4.29552 0
M  V30 8504 H 775.192 -5.28201 -2.22883 0
M  V30 8505 H 773.589 -5.7799 -1.61394 0
M  V30 8506 H 774.659 -4.81396 -0.581918 0
M  V30 8507 N 776.003 0.335068 -1.53997 0
M  V30 8508 C 777.419 0.678704 -1.4445 0
M  V30 8509 C 777.619 1.92106 -0.608078 0
M  V30 8510 O 776.675 2.52292 -0.102373 0
M  V30 8511 C 777.988 0.863435 -2.88037 0
M  V30 8512 C 779.536 0.961513 -2.97866 0
M  V30 8513 C 780.011 1.1785 -4.42578 0
M  V30 8514 N 781.502 1.2455 -4.46141 0
M  V30 8515 C 782.237 1.43106 -5.55255 0
M  V30 8516 N 781.733 1.5878 -6.74359 0
M  V30 8517 N 783.526 1.45722 -5.42883 0
M  V30 8518 H 775.677 -0.481656 -2.06867 0
M  V30 8519 H 777.94 -0.153615 -0.935471 0
M  V30 8520 H 777.646 0.0219511 -3.51693 0
M  V30 8521 H 777.52 1.76268 -3.33481 0
M  V30 8522 H 779.907 1.79351 -2.34344 0
M  V30 8523 H 779.988 0.0389862 -2.5577 0
M  V30 8524 H 779.632 0.351397 -5.06683 0
M  V30 8525 H 779.562 2.11472 -4.82273 0
M  V30 8526 H 782.053 1.13928 -3.60318 0
M  V30 8527 H 782.366 1.72599 -7.53279 0
M  V30 8528 H 780.711 1.559 -6.77289 0
M  V30 8529 H 783.902 1.33065 -4.48789 0
M  V30 8530 H 784.075 1.59841 -6.27977 0
M  V30 8531 N 777.481 1.45874 0.596531 0
M  V30 8532 C 778.444 1.54988 1.68853 0
M  V30 8533 C 779.444 0.428302 1.54991 0
M  V30 8534 O 780.634 0.692158 1.59859 0
M  V30 8535 C 777.766 1.457 3.08195 0
M  V30 8536 H 778.959 2.52294 1.62135 0
M  V30 8537 H 776.512 1.33479 0.813206 0
M  V30 8538 H 777.247 0.496204 3.20481 0
M  V30 8539 H 777.032 2.27061 3.19665 0
M  V30 8540 H 778.522 1.55133 3.87716 0
M  V30 8541 N 778.959 -0.83999 1.33349 0
M  V30 8542 C 780.199 -1.60888 1.26073 0
M  V30 8543 C 780.563 -1.91234 -0.17129 0
M  V30 8544 O 781.764 -2.66269 -0.36799 0
M  V30 8545 C 780.035 -2.88438 2.11042 0
M  V30 8546 S 781.594 -3.79116 2.20944 0
M  V30 8547 H 778.412 -0.55166 0.448545 0
M  V30 8548 H 781.014 -0.99359 1.68369 0
M  V30 8549 H 779.718 -2.64113 3.14121 0
M  V30 8550 H 779.249 -3.54974 1.69579 0
M  V30 8551 H 781.264 -4.76921 1.36969 0
M  V30 8552 N 780.437 -1.16799 -1.0581 0
M  V30 8553 C 781.667 -0.975454 -1.82122 0
M  V30 8554 C 782.075 0.479584 -1.83021 0
M  V30 8555 O 781.418 1.34471 -1.25153 0
M  V30 8556 C 781.48 -1.43209 -3.29744 0
M  V30 8557 C 781.144 -2.908 -3.5254 0
M  V30 8558 C 782.141 -3.88775 -3.45181 0
M  V30 8559 C 779.826 -3.28832 -3.79703 0
M  V30 8560 C 781.82 -5.22782 -3.64661 0
M  V30 8561 C 779.507 -4.63007 -3.98832 0
M  V30 8562 C 780.505 -5.59791 -3.91309 0
M  V30 8563 O 780.193 -6.9154 -4.09911 0
M  V30 8564 H 779.925 -0.345655 -0.580947 0
M  V30 8565 H 782.479 -1.55355 -1.34365 0
M  V30 8566 H 780.709 -0.797504 -3.78387 0
M  V30 8567 H 782.398 -1.2062 -3.87564 0
M  V30 8568 H 783.164 -3.60738 -3.2418 0
M  V30 8569 H 779.043 -2.54073 -3.84666 0
M  V30 8570 H 782.587 -5.98312 -3.58705 0
M  V30 8571 H 778.484 -4.90752 -4.19324 0
M  V30 8572 H 779.252 -6.98188 -4.27172 0
M  V30 8573 N 781.915 1.24427 -0.967243 0
M  V30 8574 C 782.862 2.25398 -0.496419 0
M  V30 8575 C 783.832 1.59667 0.457781 0
M  V30 8576 O 785.017 1.87213 0.368246 0
M  V30 8577 C 782.157 3.44474 0.207693 0
M  V30 8578 C 781.27 4.24804 -0.785221 0
M  V30 8579 C 780.405 5.31169 -0.0572631 0
M  V30 8580 C 779.444 6.03195 -1.04027 0
M  V30 8581 N 778.581 7.01265 -0.34235 0
M  V30 8582 H 783.421 2.65039 -1.36229 0
M  V30 8583 H 780.958 1.30288 -0.682902 0
M  V30 8584 H 782.916 4.12376 0.632612 0
M  V30 8585 H 781.546 3.05672 1.03752 0
M  V30 8586 H 780.598 3.56445 -1.32858 0
M  V30 8587 H 781.91 4.74599 -1.53483 0
M  V30 8588 H 781.064 6.05205 0.425674 0
M  V30 8589 H 779.803 4.8228 0.725047 0
M  V30 8590 H 778.808 5.27964 -1.53409 0
M  V30 8591 H 780.033 6.54173 -1.82302 0
M  V30 8592 H 777.979 6.54648 0.420993 0
M  V30 8593 H 777.896 7.48939 -1.03084 0
M  V30 8594 H 779.164 7.7941 0.118634 0
M  V30 8595 N 783.393 0.737304 1.3929 0
M  V30 8596 C 784.642 0.283129 1.99703 0
M  V30 8597 C 784.955 -1.13677 1.59176 0
M  V30 8598 O 786.161 -1.69058 2.12442 0
M  V30 8599 C 784.617 0.455262 3.57009 0
M  V30 8600 C 784.225 1.88319 4.06497 0
M  V30 8601 C 785.969 0.0629786 4.24453 0
M  V30 8602 C 783.876 2.00475 5.56385 0
M  V30 8603 H 782.806 0.102106 0.747054 0
M  V30 8604 H 785.457 0.911515 1.5926 0
M  V30 8605 H 783.839 -0.242057 3.9526 0
M  V30 8606 H 785.013 2.61265 3.79575 0
M  V30 8607 H 783.328 2.2289 3.51723 0
M  V30 8608 H 785.925 0.132787 5.34535 0
M  V30 8609 H 786.268 -0.982128 4.04549 0
M  V30 8610 H 786.801 0.71154 3.91385 0
M  V30 8611 H 783.54 3.03182 5.81172 0
M  V30 8612 H 783.06 1.31969 5.85102 0
M  V30 8613 H 784.739 1.787 6.21832 0
M  V30 8614 N 784.871 -1.49948 0.485112 0
M  V30 8615 C 786.287 -1.58984 0.140096 0
M  V30 8616 C 786.487 -1.49194 -1.35438 0
M  V30 8617 O 785.543 -1.35765 -2.12894 0
M  V30 8618 C 786.856 -2.92372 0.702769 0
M  V30 8619 C 788.404 -3.05801 0.66745 0
M  V30 8620 C 788.879 -4.41785 1.20791 0
M  V30 8621 N 790.37 -4.48234 1.16792 0
M  V30 8622 C 791.105 -5.51871 1.55646 0
M  V30 8623 N 790.601 -6.62692 2.02016 0
M  V30 8624 N 792.394 -5.42494 1.47161 0
M  V30 8625 H 784.545 -1.54555 1.45693 0
M  V30 8626 H 786.808 -0.731206 0.603359 0
M  V30 8627 H 786.514 -3.05056 1.75025 0
M  V30 8628 H 786.388 -3.76885 0.154205 0
M  V30 8629 H 788.775 -2.92757 -0.371157 0
M  V30 8630 H 788.856 -2.23011 1.25298 0
M  V30 8631 H 788.5 -4.55579 2.24522 0
M  V30 8632 H 788.43 -5.23188 0.598464 0
M  V30 8633 H 790.921 -3.68718 0.827982 0
M  V30 8634 H 791.234 -7.3785 2.29775 0
M  V30 8635 H 789.579 -6.63775 2.05979 0
M  V30 8636 H 792.77 -4.54806 1.10765 0
M  V30 8637 H 792.943 -6.2314 1.77766 0
M  V30 8638 N 786.349 -0.21828 -1.56081 0
M  V30 8639 C 787.259 0.704602 -2.23769 0
M  V30 8640 C 788.275 1.21633 -1.24425 0
M  V30 8641 O 789.451 1.25862 -1.57228 0
M  V30 8642 C 786.516 1.89725 -2.90182 0
M  V30 8643 C 785.577 1.42782 -4.0486 0
M  V30 8644 C 784.81 2.56361 -4.68097 0
M  V30 8645 O 785.033 3.74417 -4.30312 0
M  V30 8646 O 783.967 2.2775 -5.57148 0
M  V30 8647 H 787.793 0.158007 -3.03289 0
M  V30 8648 H 785.378 0.0120279 -1.49395 0
M  V30 8649 H 787.26 2.59382 -3.32113 0
M  V30 8650 H 785.935 2.432 -2.13624 0
M  V30 8651 H 784.842 0.699359 -3.67505 0
M  V30 8652 H 786.175 0.939474 -4.83151 0
M  V30 8653 N 787.827 1.57504 0.0551401 0
M  V30 8654 C 788.737 2.08198 1.08124 0
M  V30 8655 C 789.753 1.01496 1.41331 0
M  V30 8656 O 790.929 1.33073 1.51174 0
M  V30 8657 C 787.994 2.52968 2.37083 0
M  V30 8658 C 787.055 3.7404 2.10696 0
M  V30 8659 C 786.288 4.16665 3.33505 0
M  V30 8660 O 786.511 3.59019 4.4324 0
M  V30 8661 O 785.445 5.09324 3.20737 0
M  V30 8662 H 789.271 2.95977 0.680518 0
M  V30 8663 H 786.856 1.46933 0.270401 0
M  V30 8664 H 788.738 2.82211 3.12946 0
M  V30 8665 H 787.413 1.6831 2.76502 0
M  V30 8666 H 786.32 3.49855 1.32484 0
M  V30 8667 H 787.653 4.59601 1.76148 0
M  V30 8668 N 789.305 -0.326896 1.54172 0
M  V30 8669 C 790.53 -1.08924 1.76494 0
M  V30 8670 C 790.955 -1.81039 0.510523 0
M  V30 8671 O 790.313 -1.73141 -0.537756 0
M  V30 8672 C 790.361 -2.06558 2.95578 0
M  V30 8673 O 789.465 -3.14394 2.6689 0
M  V30 8674 H 788.806 -0.314216 0.584948 0
M  V30 8675 H 791.336 -0.372207 2.01186 0
M  V30 8676 H 791.346 -2.49487 3.22832 0
M  V30 8677 H 790.021 -1.53469 3.86549 0
M  V30 8678 H 788.598 -2.76164 2.50576 0
M  V30 8679 N 790.784 -1.46188 -0.588786 0
M  V30 8680 C 792.033 -1.50452 -1.34339 0
M  V30 8681 C 792.346 -0.158096 -1.9496 0
M  V30 8682 O 793.552 -0.0784918 -2.71387 0
M  V30 8683 C 792.008 -2.65074 -2.43441 0
M  V30 8684 C 791.616 -4.06111 -1.8915 0
M  V30 8685 C 793.36 -2.78603 -3.20282 0
M  V30 8686 C 791.267 -5.12084 -2.95845 0
M  V30 8687 H 790.197 -0.559905 -0.504997 0
M  V30 8688 H 792.848 -1.72382 -0.629014 0
M  V30 8689 H 791.23 -2.36462 -3.1765 0
M  V30 8690 H 792.404 -4.44487 -1.21524 0
M  V30 8691 H 790.719 -3.97197 -1.24995 0
M  V30 8692 H 793.316 -3.54944 -3.99898 0
M  V30 8693 H 793.659 -1.85902 -3.72486 0
M  V30 8694 H 794.192 -3.06832 -2.53178 0
M  V30 8695 H 790.931 -6.06556 -2.48535 0
M  V30 8696 H 790.451 -4.78259 -3.61979 0
M  V30 8697 H 792.13 -5.37661 -3.59902 0
M  V30 8698 N 792.262 0.832906 -1.33792 0
M  V30 8699 C 793.511 1.58351 -1.24932 0
M  V30 8700 C 793.824 1.94754 0.181703 0
M  V30 8701 O 795.03 2.6865 0.392375 0
M  V30 8702 C 793.486 2.85643 -2.18943 0
M  V30 8703 C 793.094 2.56581 -3.67247 0
M  V30 8704 C 794.838 3.63667 -2.18968 0
M  V30 8705 C 792.745 3.80006 -4.53155 0
M  V30 8706 H 791.675 0.594278 -0.464058 0
M  V30 8707 H 794.326 0.91786 -1.58895 0
M  V30 8708 H 792.708 3.53781 -1.77919 0
M  V30 8709 H 793.882 1.96617 -4.16747 0
M  V30 8710 H 792.197 1.91851 -3.6957 0
M  V30 8711 H 794.794 4.55293 -2.80379 0
M  V30 8712 H 795.137 3.99039 -1.18631 0
M  V30 8713 H 795.67 3.0246 -2.58384 0
M  V30 8714 H 792.409 3.4976 -5.5439 0
M  V30 8715 H 791.929 4.39288 -4.08395 0
M  V30 8716 H 793.608 4.47523 -4.6726 0
M  V30 8717 N 793.74 1.17359 1.05189 0
M  V30 8718 C 795.156 0.920861 1.30355 0
M  V30 8719 C 795.356 -0.419993 1.97074 0
M  V30 8720 O 794.412 -1.15696 2.24434 0
M  V30 8721 C 795.725 2.07818 2.1733 0
M  V30 8722 C 797.273 2.1152 2.30712 0
M  V30 8723 C 797.748 3.26637 3.21048 0
M  V30 8724 N 799.239 3.26426 3.28634 0
M  V30 8725 C 799.974 4.12141 3.98657 0
M  V30 8726 N 799.47 5.07966 4.71107 0
M  V30 8727 N 801.263 4.00091 3.94821 0
M  V30 8728 H 793.414 2.03666 0.602821 0
M  V30 8729 H 795.677 0.889294 0.328421 0
M  V30 8730 H 795.383 3.04727 1.75597 0
M  V30 8731 H 795.257 2.02922 3.17966 0
M  V30 8732 H 797.644 1.15196 2.71687 0
M  V30 8733 H 797.725 2.20477 1.29706 0
M  V30 8734 H 797.369 4.23227 2.80788 0
M  V30 8735 H 797.299 3.14917 4.2206 0
M  V30 8736 H 799.79 2.57045 2.77013 0
M  V30 8737 H 800.103 5.69766 5.22099 0
M  V30 8738 H 798.448 5.11936 4.7005 0
M  V30 8739 H 801.639 3.24523 3.37346 0
M  V30 8740 H 801.812 4.6711 4.49123 0
M  V30 8741 N 795.218 -1.23913 0.973828 0
M  V30 8742 C 796.467 -1.91455 0.63464 0
M  V30 8743 C 796.78 -1.76893 -0.834759 0
M  V30 8744 O 797.986 -2.3918 -1.28473 0
M  V30 8745 C 796.442 -3.43172 1.08447 0
M  V30 8746 C 796.05 -3.66409 2.57776 0
M  V30 8747 C 797.794 -4.1653 0.818721 0
M  V30 8748 C 795.701 -5.11728 2.9646 0
M  V30 8749 H 794.631 -0.716881 0.233661 0
M  V30 8750 H 797.282 -1.40457 1.18085 0
M  V30 8751 H 795.664 -3.93242 0.466524 0
M  V30 8752 H 796.838 -3.26913 3.24753 0
M  V30 8753 H 795.153 -3.06349 2.82027 0
M  V30 8754 H 797.75 -5.23603 1.08367 0
M  V30 8755 H 798.093 -4.15578 -0.245128 0
M  V30 8756 H 798.626 -3.72428 1.39793 0
M  V30 8757 H 795.365 -5.17806 4.01941 0
M  V30 8758 H 794.885 -5.52199 2.34172 0
M  V30 8759 H 796.564 -5.80009 2.86703 0
M  V30 8760 N 796.696 -0.74468 -1.38897 0
M  V30 8761 C 797.944 -0.296298 -1.99916 0
M  V30 8762 C 798.265 1.12325 -1.59399 0
M  V30 8763 O 797.535 1.76658 -0.846689 0
M  V30 8764 H 796.115 -0.106561 -0.73936 0
M  V30 8765 H 798.777 -0.956793 -1.69798 0
M  V30 8766 H 797.873 -0.352356 -3.10105 0
M  V30 8767 N 798.174 1.49689 -0.493057 0
M  V30 8768 C 799.121 2.28976 0.28959 0
M  V30 8769 C 800.091 1.35011 0.967536 0
M  V30 8770 O 801.276 1.63964 0.975736 0
M  V30 8771 C 798.416 3.1748 1.35279 0
M  V30 8772 C 797.529 4.26496 0.687418 0
M  V30 8773 C 796.664 5.02226 1.73038 0
M  V30 8774 C 795.703 6.03089 1.04645 0
M  V30 8775 N 794.84 6.72014 2.03325 0
M  V30 8776 H 799.68 2.954 -0.392798 0
M  V30 8777 H 797.217 1.45657 -0.205554 0
M  V30 8778 H 799.175 3.67162 1.98111 0
M  V30 8779 H 797.805 2.53057 2.00405 0
M  V30 8780 H 796.857 3.80362 -0.0540001 0
M  V30 8781 H 798.169 4.98578 0.14864 0
M  V30 8782 H 797.323 5.55737 2.43395 0
M  V30 8783 H 796.062 4.29899 2.303 0
M  V30 8784 H 795.067 5.48817 0.328606 0
M  V30 8785 H 796.292 6.77398 0.480428 0
M  V30 8786 H 794.238 6.02464 2.59564 0
M  V30 8787 H 794.155 7.40046 1.54492 0
M  V30 8788 H 795.423 7.30133 2.72995 0
M  V30 8789 N 799.652 0.226554 1.55963 0
M  V30 8790 C 800.562 -0.692725 2.24139 0
M  V30 8791 C 801.578 -1.20971 1.25068 0
M  V30 8792 O 802.754 -1.25027 1.57893 0
M  V30 8793 C 799.819 -1.88183 2.91184 0
M  V30 8794 C 798.88 -1.40633 4.05612 0
M  V30 8795 C 798.113 -2.53875 4.6945 0
M  V30 8796 O 798.336 -3.72129 4.32292 0
M  V30 8797 O 797.27 -2.24792 5.58348 0
M  V30 8798 H 801.096 -0.141921 3.03368 0
M  V30 8799 H 798.681 -0.0041049 1.49399 0
M  V30 8800 H 800.563 -2.57617 3.33484 0
M  V30 8801 H 799.238 -2.42064 2.14911 0
M  V30 8802 H 798.145 -0.67986 3.67871 0
M  V30 8803 H 799.478 -0.913838 4.83642 0
M  V30 8804 N 801.13 -1.57531 -0.0467866 0
M  V30 8805 C 802.541 -1.76945 -0.595603 0
M  V30 8806 C 802.892 -0.855354 -1.76573 0
M  V30 8807 O 802.017 -0.045668 -2.16352 0
M  V30 8808 C 802.612 -3.20881 -1.08725 0
M  V30 8809 C 801.171 -3.41553 -1.58172 0
M  V30 8810 C 800.318 -2.72533 -0.511968 0
M  V30 8811 H 803.269 -1.57682 0.179436 0
M  V30 8812 H 803.29 -3.26419 -1.95528 0
M  V30 8813 H 802.802 -3.87385 -0.235398 0
M  V30 8814 H 800.903 -2.80199 -2.456 0
M  V30 8815 H 801.016 -4.50104 -1.64143 0
M  V30 8816 H 799.38 -2.35797 -0.962899 0
M  V30 8817 H 800.163 -3.41709 0.330117 0
M  V30 8818 N 802.608 0.318715 -1.54344 0
M  V30 8819 C 804.024 0.663345 -1.45162 0
M  V30 8820 C 804.224 1.9145 -0.62842 0
M  V30 8821 O 803.28 2.5217 -0.129126 0
M  V30 8822 C 804.593 0.832836 -2.88937 0
M  V30 8823 C 806.141 0.929866 -2.98869 0
M  V30 8824 C 806.616 1.13149 -4.43803 0
M  V30 8825 N 808.107 1.19811 -4.47437 0
M  V30 8826 C 808.842 1.37209 -5.56742 0
M  V30 8827 N 808.338 1.51619 -6.76006 0
M  V30 8828 N 810.131 1.39956 -5.44398 0
M  V30 8829 H 802.282 -0.50357 -2.06344 0
M  V30 8830 H 804.545 -0.163528 -0.933789 0
M  V30 8831 H 804.251 -0.0153519 -3.51697 0
M  V30 8832 H 804.125 1.72721 -3.35332 0
M  V30 8833 H 806.512 1.76855 -2.36233 0
M  V30 8834 H 806.593 0.0118561 -2.55797 0
M  V30 8835 H 806.237 0.297636 -5.07027 0
M  V30 8836 H 806.167 2.06345 -4.84489 0
M  V30 8837 H 808.658 1.101 -3.61506 0
M  V30 8838 H 808.971 1.64599 -7.55067 0
M  V30 8839 H 807.316 1.48708 -6.78904 0
M  V30 8840 H 810.507 1.28298 -4.50175 0
M  V30 8841 H 810.68 1.53172 -6.29637 0
M  V30 8842 N 804.086 1.46499 0.581025 0
M  V30 8843 C 805.316 1.55244 1.36319 0
M  V30 8844 C 805.724 0.193059 1.88212 0
M  V30 8845 O 805.067 -0.820109 1.64377 0
M  V30 8846 C 805.129 2.498 2.58535 0
M  V30 8847 C 804.793 3.96007 2.28096 0
M  V30 8848 C 805.79 4.85171 1.8683 0
M  V30 8849 C 803.475 4.41152 2.40189 0
M  V30 8850 C 805.469 6.17493 1.58053 0
M  V30 8851 C 803.156 5.73508 2.11024 0
M  V30 8852 C 804.154 6.615 1.70021 0
M  V30 8853 O 803.842 7.914 1.41215 0
M  V30 8854 H 803.574 0.527513 0.422736 0
M  V30 8855 H 806.128 1.92623 0.713139 0
M  V30 8856 H 804.358 2.07443 3.2635 0
M  V30 8857 H 806.047 2.48934 3.20604 0
M  V30 8858 H 806.813 4.51548 1.77001 0
M  V30 8859 H 802.692 3.72886 2.71066 0
M  V30 8860 H 806.236 6.86131 1.25974 0
M  V30 8861 H 802.133 6.06679 2.20478 0
M  V30 8862 H 802.901 8.03681 1.55046 0
M  V30 8863 N 805.565 -0.825799 1.34232 0
M  V30 8864 C 806.475 -1.9684 1.27638 0
M  V30 8865 C 807.491 -1.73018 0.184569 0
M  V30 8866 O 808.667 -1.97172 0.410525 0
M  V30 8867 C 805.732 -3.31084 1.02879 0
M  V30 8868 C 804.793 -3.67933 2.21188 0
M  V30 8869 C 804.026 -4.95772 1.976 0
M  V30 8870 O 804.249 -5.62721 0.93281 0
M  V30 8871 O 803.183 -5.30431 2.84477 0
M  V30 8872 H 807.009 -2.05346 2.23756 0
M  V30 8873 H 804.594 -0.960772 1.1441 0
M  V30 8874 H 806.476 -4.11492 0.908406 0
M  V30 8875 H 805.151 -3.23552 0.0979821 0
M  V30 8876 H 804.058 -2.87981 2.38784 0
M  V30 8877 H 805.391 -3.80147 3.12648 0
M  V30 8878 N 807.043 -1.17915 -1.04565 0
M  V30 8879 C 808.292 -0.965816 -1.77073 0
M  V30 8880 C 808.605 0.506005 -1.88942 0
M  V30 8881 O 809.811 0.837717 -2.58253 0
M  V30 8882 C 808.267 -1.67894 -3.18339 0
M  V30 8883 C 807.875 -3.18972 -3.1458 0
M  V30 8884 C 809.619 -1.54823 -3.9526 0
M  V30 8885 C 807.526 -3.82946 -4.50674 0
M  V30 8886 H 806.456 -0.357729 -0.663736 0
M  V30 8887 H 809.107 -1.41235 -1.17153 0
M  V30 8888 H 807.489 -1.16016 -3.78624 0
M  V30 8889 H 808.663 -3.77835 -2.63776 0
M  V30 8890 H 806.978 -3.32127 -2.51159 0
M  V30 8891 H 809.575 -1.99984 -4.95894 0
M  V30 8892 H 809.918 -0.499727 -4.1329 0
M  V30 8893 H 810.451 -2.03953 -3.41538 0
M  V30 8894 H 807.19 -4.8782 -4.37849 0
M  V30 8895 H 806.71 -3.2887 -5.01602 0
M  V30 8896 H 808.389 -3.85518 -5.196 0
M  V30 8897 N 808.521 1.23394 -0.980386 0
M  V30 8898 C 809.932 1.73631 -0.686239 0
M  V30 8899 C 810.283 1.79259 0.797541 0
M  V30 8900 O 809.408 1.43046 1.62379 0
M  V30 8901 C 810.003 3.15332 -1.239 0
M  V30 8902 C 808.562 3.63024 -0.994494 0
M  V30 8903 C 807.709 2.41279 -1.36673 0
M  V30 8904 H 810.66 1.08918 -1.15423 0
M  V30 8905 H 810.681 3.75556 -0.611414 0
M  V30 8906 H 810.193 3.11204 -2.31892 0
M  V30 8907 H 808.294 3.72535 0.0693492 0
M  V30 8908 H 808.407 4.49825 -1.64906 0
M  V30 8909 H 806.771 2.42295 -0.785195 0
M  V30 8910 H 807.554 2.39822 -2.45642 0
M  V30 8911 N 809.999 0.752036 1.385 0
M  V30 8912 C 811.227 0.318274 2.04437 0
M  V30 8913 C 811.642 -1.05285 1.56718 0
M  V30 8914 O 810.999 -1.66844 0.73956 0
M  V30 8915 C 811.05 0.330106 3.5999 0
M  V30 8916 O 810.771 1.64712 4.05957 0
M  V30 8917 C 812.272 -0.117713 4.43144 0
M  V30 8918 H 809.492 0.136228 0.657026 0
M  V30 8919 H 812.036 1.02045 1.7722 0
M  V30 8920 H 810.191 -0.323323 3.86048 0
M  V30 8921 H 810.605 1.57225 5.0038 0
M  V30 8922 H 812.079 -0.0582735 5.51969 0
M  V30 8923 H 812.556 -1.16538 4.23457 0
M  V30 8924 H 813.162 0.506784 4.2227 0
M  V30 8925 N 811.477 -1.49425 0.500989 0
M  V30 8926 C 812.702 -2.07356 -0.0425154 0
M  V30 8927 C 813.127 -1.35887 -1.30063 0
M  V30 8928 O 812.485 -0.41561 -1.76472 0
M  V30 8929 C 812.533 -3.59518 -0.279188 0
M  V30 8930 O 811.637 -3.89542 -1.3539 0
M  V30 8931 H 810.978 -0.663482 0.0262207 0
M  V30 8932 H 813.508 -1.92231 0.700607 0
M  V30 8933 H 813.518 -4.04791 -0.5107 0
M  V30 8934 H 812.193 -4.10946 0.640009 0
M  V30 8935 H 810.77 -3.56079 -1.10734 0
M  V30 8936 N 812.955 -0.234822 -1.55841 0
M  V30 8937 C 814.371 0.120295 -1.59146 0
M  V30 8938 C 814.571 1.57896 -1.25184 0
M  V30 8939 O 813.627 2.32138 -0.993393 0
M  V30 8940 C 814.94 -0.217984 -2.99909 0
M  V30 8941 C 816.488 -0.161298 -3.12584 0
M  V30 8942 C 816.963 -0.473438 -4.55546 0
M  V30 8943 N 818.454 -0.423494 -4.6126 0
M  V30 8944 C 819.189 -0.638334 -5.69836 0
M  V30 8945 N 818.685 -0.915659 -6.86722 0
M  V30 8946 N 820.478 -0.569864 -5.59204 0
M  V30 8947 H 812.629 -1.18622 -1.76189 0
M  V30 8948 H 814.892 -0.476426 -0.819587 0
M  V30 8949 H 814.598 -1.2309 -3.29457 0
M  V30 8950 H 814.472 0.460707 -3.74376 0
M  V30 8951 H 816.859 0.842274 -2.82825 0
M  V30 8952 H 816.94 -0.873661 -2.40418 0
M  V30 8953 H 816.584 -1.47451 -4.86025 0
M  V30 8954 H 816.514 0.260268 -5.25956 0
M  V30 8955 H 819.005 -0.217383 -3.77274 0
M  V30 8956 H 819.318 -1.06734 -7.65394 0
M  V30 8957 H 817.663 -0.953 -6.88435 0
M  V30 8958 H 820.854 -0.35334 -4.66765 0
M  V30 8959 H 821.027 -0.740698 -6.43753 0
M  V30 8960 N 814.433 1.57553 0.0384317 0
M  V30 8961 C 815.343 2.09333 1.0591 0
M  V30 8962 C 816.359 1.0299 1.40247 0
M  V30 8963 O 817.535 1.34669 1.49754 0
M  V30 8964 C 814.6 2.55468 2.34386 0
M  V30 8965 C 813.661 3.76254 2.06716 0
M  V30 8966 C 812.894 4.20179 3.29067 0
M  V30 8967 O 813.117 3.637 4.39407 0
M  V30 8968 O 812.051 5.12697 3.15317 0
M  V30 8969 H 815.877 2.96683 0.649087 0
M  V30 8970 H 813.462 1.47211 0.254802 0
M  V30 8971 H 815.344 2.85514 3.09935 0
M  V30 8972 H 814.019 1.71234 2.74701 0
M  V30 8973 H 812.926 3.51241 1.28766 0
M  V30 8974 H 814.259 4.61443 1.71263 0
M  V30 8975 N 815.911 -0.310526 1.54511 0
M  V30 8976 C 816.874 -1.3657 1.84068 0
M  V30 8977 C 817.874 -1.44123 0.713097 0
M  V30 8978 O 819.064 -1.43924 0.981399 0
M  V30 8979 C 816.196 -2.75162 2.01243 0
M  V30 8980 H 817.389 -1.1161 2.78358 0
M  V30 8981 H 814.942 -0.546699 1.46427 0
M  V30 8982 H 815.677 -3.05359 1.09208 0
M  V30 8983 H 815.462 -2.71071 2.83307 0
M  V30 8984 H 816.952 -3.51473 2.25514 0
M  V30 8985 N 817.389 -1.46805 -0.573248 0
M  V30 8986 C 818.635 -1.53816 -1.33088 0
M  V30 8987 C 818.99 -0.191162 -1.91448 0
M  V30 8988 O 818.283 0.801299 -1.7404 0
M  V30 8989 C 818.477 -2.58001 -2.47326 0
M  V30 8990 C 818.306 -4.027 -2.00157 0
M  V30 8991 C 817.076 -4.70319 -1.84737 0
M  V30 8992 C 819.274 -4.90211 -1.55557 0
M  V30 8993 N 817.256 -5.99598 -1.31739 0
M  V30 8994 C 818.627 -6.09389 -1.14215 0
M  V30 8995 C 820.682 -4.76784 -1.43461 0
M  V30 8996 C 819.385 -7.16625 -0.619809 0
M  V30 8997 C 821.411 -5.84101 -0.926297 0
M  V30 8998 C 820.773 -7.02458 -0.522715 0
M  V30 8999 H 816.872 -0.617642 -0.479627 0
M  V30 9000 H 819.456 -1.83471 -0.65164 0
M  V30 9001 H 817.627 -2.3024 -3.128 0
M  V30 9002 H 819.359 -2.54951 -3.14296 0
M  V30 9003 H 816.114 -4.25982 -2.06969 0
M  V30 9004 H 816.538 -6.68431 -1.07374 0
M  V30 9005 H 821.18 -3.85661 -1.73279 0
M  V30 9006 H 818.898 -8.07508 -0.309228 0
M  V30 9007 H 822.484 -5.75755 -0.836485 0
M  V30 9008 H 821.364 -7.84083 -0.135467 0
M  V30 9009 N 818.867 0.818669 -1.34668 0
M  V30 9010 C 819.777 1.9616 -1.2868 0
M  V30 9011 C 820.793 1.72918 -0.193742 0
M  V30 9012 O 821.969 1.96951 -0.420975 0
M  V30 9013 C 819.034 3.30534 -1.04633 0
M  V30 9014 C 818.095 3.66755 -2.23136 0
M  V30 9015 C 817.328 4.94717 -2.00227 0
M  V30 9016 O 817.551 5.62218 -0.96264 0
M  V30 9017 O 816.485 5.28915 -2.87286 0
M  V30 9018 H 820.311 2.04157 -2.24842 0
M  V30 9019 H 817.896 0.954691 -1.14917 0
M  V30 9020 H 819.778 4.11005 -0.930216 0
M  V30 9021 H 818.453 3.23495 -0.115139 0
M  V30 9022 H 817.36 2.8671 -2.40308 0
M  V30 9023 H 818.693 3.78484 -3.1466 0
M  V30 9024 N 820.346 1.18468 1.03938 0
M  V30 9025 C 821.571 1.00638 1.81347 0
M  V30 9026 C 821.996 -0.440477 1.8287 0
M  V30 9027 O 821.354 -1.31609 1.24695 0
M  V30 9028 C 821.402 1.5673 3.24759 0
M  V30 9029 O 820.506 0.789517 4.04772 0
M  V30 9030 H 819.847 0.356432 0.560225 0
M  V30 9031 H 822.377 1.57253 1.30891 0
M  V30 9032 H 822.387 1.59496 3.75533 0
M  V30 9033 H 821.062 2.62043 3.22965 0
M  V30 9034 H 819.639 0.834267 3.63448 0
M  V30 9035 N 821.824 -1.22873 0.986916 0
M  V30 9036 C 822.772 -2.26597 0.525043 0
M  V30 9037 C 823.766 -1.64079 -0.421252 0
M  V30 9038 O 824.972 -1.77576 -0.294429 0
M  V30 9039 H 821.347 -0.736606 0.151381 0
M  V30 9040 H 823.318 -2.62909 1.41142 0
M  V30 9041 C 822.067 -3.47374 -0.150542 0
M  V30 9042 H 821.39 -3.95737 0.568541 0
M  V30 9043 H 822.83 -4.21739 -0.437256 0
M  V30 9044 C 821.289 -3.07163 -1.38392 0
M  V30 9045 O 821.819 -3.16028 -2.47971 0
M  V30 9046 N 820.025 -2.62009 -1.25697 0
M  V30 9047 H 819.572 -2.54996 -0.365355 0
M  V30 9048 H 819.53 -2.35472 -2.08327 0
M  V30 9049 N 823.302 -0.75937 -1.38099 0
M  V30 9050 C 824.232 -0.151077 -2.33011 0
M  V30 9051 C 825.213 0.697099 -1.5516 0
M  V30 9052 O 826.398 0.637101 -1.83452 0
M  V30 9053 C 823.528 0.738423 -3.39359 0
M  V30 9054 C 822.482 -0.0074741 -4.27999 0
M  V30 9055 C 821.808 1.00066 -5.25253 0
M  V30 9056 C 823.108 -1.17926 -5.08813 0
M  V30 9057 H 824.802 -0.943933 -2.84131 0
M  V30 9058 H 822.348 -0.455362 -1.36611 0
M  V30 9059 H 824.301 1.17369 -4.04725 0
M  V30 9060 H 823.025 1.56366 -2.86735 0
M  V30 9061 H 821.684 -0.423379 -3.64147 0
M  V30 9062 H 821.332 1.82012 -4.68914 0
M  V30 9063 H 821.032 0.506199 -5.85416 0
M  V30 9064 H 822.556 1.43512 -5.93495 0
M  V30 9065 H 823.97 -0.821262 -5.67387 0
M  V30 9066 H 822.367 -1.60497 -5.78239 0
M  V30 9067 H 823.437 -1.98938 -4.42212 0
M  V30 9068 N 824.78 1.49157 -0.508906 0
M  V30 9069 C 826.029 2.0167 0.0346854 0
M  V30 9070 C 826.342 1.39302 1.37311 0
M  V30 9071 O 827.548 1.83189 2.00385 0
M  V30 9072 C 826.004 3.59725 0.112261 0
M  V30 9073 C 825.612 4.31069 -1.21999 0
M  V30 9074 C 827.356 4.20155 0.605798 0
M  V30 9075 C 825.263 5.81001 -1.10415 0
M  V30 9076 H 824.193 0.753814 0.0167355 0
M  V30 9077 H 826.844 1.7162 -0.649518 0
M  V30 9078 H 825.226 3.86525 0.861087 0
M  V30 9079 H 826.4 4.15962 -1.98273 0
M  V30 9080 H 824.715 3.82418 -1.64759 0
M  V30 9081 H 827.312 5.29964 0.710102 0
M  V30 9082 H 827.655 3.84051 1.60656 0
M  V30 9083 H 828.188 3.97705 -0.0867239 0
M  V30 9084 H 824.927 6.21643 -2.07941 0
M  V30 9085 H 824.447 5.9858 -0.382428 0
M  V30 9086 H 826.126 6.42207 -0.786116 0
M  V30 9087 N 826.258 0.243083 1.55714 0
M  V30 9088 C 827.206 -0.674349 2.2261 0
M  V30 9089 C 828.2 -1.18307 1.21243 0
M  V30 9090 O 829.406 -1.1404 1.39265 0
M  V30 9091 H 825.781 -0.235941 0.714028 0
M  V30 9092 H 827.752 -0.0869446 2.98273 0
M  V30 9093 C 826.501 -1.86206 2.93637 0
M  V30 9094 H 825.824 -1.47975 3.71407 0
M  V30 9095 H 827.264 -2.4813 3.43813 0
M  V30 9096 C 825.723 -2.73084 1.97298 0
M  V30 9097 O 826.253 -3.72497 1.50361 0
M  V30 9098 N 824.459 -2.39571 1.64482 0
M  V30 9099 H 824.006 -1.5878 2.02846 0
M  V30 9100 H 823.964 -2.97976 1.00288 0
M  V30 9101 N 827.736 -1.57571 -0.0300757 0
M  V30 9102 C 828.961 -1.93879 -0.736601 0
M  V30 9103 C 829.386 -0.842998 -1.68152 0
M  V30 9104 O 828.744 0.20135 -1.80178 0
M  V30 9105 C 828.792 -3.29247 -1.47066 0
M  V30 9106 O 827.896 -3.21426 -2.58378 0
M  V30 9107 H 827.237 -0.633735 -0.198181 0
M  V30 9108 H 829.767 -2.04595 0.0141485 0
M  V30 9109 H 829.777 -3.64113 -1.84081 0
M  V30 9110 H 828.452 -4.08565 -0.77764 0
M  V30 9111 H 827.029 -2.98189 -2.23914 0
M  V30 9112 N 829.214 0.302327 -1.54673 0
M  V30 9113 C 830.625 0.875409 -1.64904 0
M  V30 9114 C 830.976 1.88132 -0.55684 0
M  V30 9115 O 830.101 2.14215 0.306754 0
M  V30 9116 C 830.696 1.59457 -2.9893 0
M  V30 9117 C 829.255 2.11607 -3.11287 0
M  V30 9118 C 828.402 0.948324 -2.6058 0
M  V30 9119 H 831.353 0.079362 -1.58501 0
M  V30 9120 H 831.374 2.46005 -2.90279 0
M  V30 9121 H 830.886 0.8622 -3.78402 0
M  V30 9122 H 828.987 2.87895 -2.36532 0
M  V30 9123 H 829.1 2.35151 -4.17422 0
M  V30 9124 H 827.464 1.33352 -2.17001 0
M  V30 9125 H 828.247 0.229936 -3.42529 0
M  V30 9126 N 830.692 1.47107 0.565454 0
M  V30 9127 C 831.922 1.56681 1.34664 0
M  V30 9128 C 832.33 0.213011 1.87997 0
M  V30 9129 O 831.673 -0.802629 1.65238 0
M  V30 9130 C 831.735 2.52528 2.55871 0
M  V30 9131 C 831.399 3.98403 2.23883 0
M  V30 9132 C 832.396 4.87125 1.81673 0
M  V30 9133 C 830.081 4.43674 2.35496 0
M  V30 9134 C 832.075 6.19135 1.51494 0
M  V30 9135 C 829.762 5.75714 2.0493 0
M  V30 9136 C 830.76 6.63266 1.62996 0
M  V30 9137 O 830.448 7.92853 1.32813 0
M  V30 9138 H 830.18 0.531967 0.417117 0
M  V30 9139 H 832.734 1.93368 0.692669 0
M  V30 9140 H 830.964 2.10893 3.24131 0
M  V30 9141 H 832.653 2.5232 3.17945 0
M  V30 9142 H 833.419 4.534 1.72201 0
M  V30 9143 H 829.298 3.7574 2.67096 0
M  V30 9144 H 832.842 6.87429 1.1869 0
M  V30 9145 H 828.739 6.08983 2.14031 0
M  V30 9146 H 829.507 8.0528 1.46513 0
M  V30 9147 N 832.17 -0.811516 1.35101 0
M  V30 9148 C 833.1 -1.9378 1.30275 0
M  V30 9149 C 834.081 -1.69165 0.178075 0
M  V30 9150 O 835.266 -1.90599 0.372256 0
M  V30 9151 C 832.396 -3.30439 1.06899 0
M  V30 9152 C 831.35 -3.69523 2.15955 0
M  V30 9153 C 830.676 -5.0429 1.77751 0
M  V30 9154 C 831.976 -3.80419 3.57881 0
M  V30 9155 H 833.67 -1.98075 2.24514 0
M  V30 9156 H 831.216 -0.951586 1.08078 0
M  V30 9157 H 833.169 -4.08828 1.02164 0
M  V30 9158 H 831.893 -3.26473 0.0910462 0
M  V30 9159 H 830.552 -2.93416 2.19778 0
M  V30 9160 H 830.2 -4.96823 0.785876 0
M  V30 9161 H 829.9 -5.31411 2.5075 0
M  V30 9162 H 831.424 -5.85125 1.74533 0
M  V30 9163 H 832.838 -4.49051 3.56407 0
M  V30 9164 H 831.235 -4.19005 4.29598 0
M  V30 9165 H 832.305 -2.82105 3.94391 0
M  V30 9166 N 833.648 -1.19017 -1.03309 0
M  V30 9167 C 834.595 -0.924088 -2.11493 0
M  V30 9168 C 835.565 0.139464 -1.65513 0
M  V30 9169 O 836.75 -0.00178761 -1.908 0
M  V30 9170 C 833.89 -0.464255 -3.41963 0
M  V30 9171 C 833.003 -1.5941 -4.01513 0
M  V30 9172 C 832.138 -1.08622 -5.19976 0
M  V30 9173 C 831.177 -2.19024 -5.71572 0
M  V30 9174 N 830.314 -1.69575 -6.81314 0
M  V30 9175 H 835.154 -1.85039 -2.33591 0
M  V30 9176 H 832.691 -0.922593 -1.14572 0
M  V30 9177 H 834.649 -0.179078 -4.16815 0
M  V30 9178 H 833.279 0.425062 -3.19989 0
M  V30 9179 H 832.331 -1.99458 -3.23915 0
M  V30 9180 H 833.643 -2.42604 -4.35826 0
M  V30 9181 H 832.797 -0.756022 -6.01971 0
M  V30 9182 H 831.536 -0.223955 -4.87186 0
M  V30 9183 H 830.541 -2.5288 -4.88193 0
M  V30 9184 H 831.766 -3.05699 -6.06403 0
M  V30 9185 H 829.712 -0.856494 -6.50385 0
M  V30 9186 H 829.629 -2.46361 -7.14732 0
M  V30 9187 H 830.897 -1.39505 -7.66915 0
M  V30 9188 N 835.127 1.22348 -0.993418 0
M  V30 9189 C 836.09 2.22522 -0.549251 0
M  V30 9190 C 837.09 1.56529 0.368164 0
M  V30 9191 O 838.28 1.73463 0.16005 0
M  V30 9192 C 835.412 3.40307 0.201037 0
M  V30 9193 H 836.605 2.63332 -1.43515 0
M  V30 9194 H 834.158 1.35407 -0.78068 0
M  V30 9195 H 834.893 3.0497 1.10289 0
M  V30 9196 H 834.678 3.8942 -0.457685 0
M  V30 9197 H 836.168 4.14597 0.499946 0
M  V30 9198 N 836.605 0.766683 1.37694 0
M  V30 9199 C 838.016 0.394761 1.82479 0
M  V30 9200 C 838.367 -1.07842 1.63904 0
M  V30 9201 O 837.492 -1.83479 1.14737 0
M  V30 9202 C 838.087 0.70974 3.31283 0
M  V30 9203 C 836.646 0.390936 3.74364 0
M  V30 9204 C 835.793 0.956192 2.60293 0
M  V30 9205 H 838.744 0.961756 1.26238 0
M  V30 9206 H 838.765 -0.00742144 3.80499 0
M  V30 9207 H 838.277 1.782 3.4477 0
M  V30 9208 H 836.378 -0.674213 3.66449 0
M  V30 9209 H 836.491 0.895645 4.70654 0
M  V30 9210 H 834.855 0.380744 2.51838 0
M  V30 9211 H 835.638 2.03375 2.76575 0
M  V30 9212 N 838.083 -1.48885 0.516809 0
M  V30 9213 C 839.494 -1.86557 0.0729921 0
M  V30 9214 C 839.845 -1.42767 -1.34581 0
M  V30 9215 O 838.97 -0.812514 -2.00567 0
M  V30 9216 C 839.565 -3.38567 0.125686 0
M  V30 9217 C 838.124 -3.75481 -0.262867 0
M  V30 9218 C 837.271 -2.72913 0.491281 0
M  V30 9219 H 840.222 -1.40978 0.728767 0
M  V30 9220 H 840.243 -3.74629 -0.665831 0
M  V30 9221 H 839.755 -3.70408 1.15842 0
M  V30 9222 H 837.856 -3.49251 -1.29824 0
M  V30 9223 H 837.969 -4.79052 0.067579 0
M  V30 9224 H 836.333 -2.54627 -0.0608525 0
M  V30 9225 H 837.116 -3.07599 1.5244 0
M  V30 9226 N 839.561 -0.251338 -1.55583 0
M  V30 9227 C 840.972 0.25098 -1.85005 0
M  V30 9228 C 841.323 1.57259 -1.17321 0
M  V30 9229 O 840.448 2.11603 -0.453136 0
M  V30 9230 C 841.043 0.462161 -3.35633 0
M  V30 9231 C 839.602 0.908737 -3.65266 0
M  V30 9232 C 838.749 -0.0115418 -2.77298 0
M  V30 9233 H 841.7 -0.473782 -1.51463 0
M  V30 9234 H 841.721 1.30415 -3.57452 0
M  V30 9235 H 841.233 -0.499886 -3.84867 0
M  V30 9236 H 839.334 1.8831 -3.21512 0
M  V30 9237 H 839.447 0.762526 -4.72993 0
M  V30 9238 H 837.811 0.500612 -2.49732 0
M  V30 9239 H 838.594 -0.969042 -3.29339 0
M  V30 9240 N 841.039 1.57585 0.0217189 0
M  V30 9241 C 841.949 2.10444 1.03684 0
M  V30 9242 C 842.965 1.04472 1.39146 0
M  V30 9243 O 844.141 1.36249 1.48317 0
M  V30 9244 C 841.206 2.5794 2.31664 0
M  V30 9245 C 840.267 3.78425 2.02714 0
M  V30 9246 C 839.5 4.23646 3.24592 0
M  V30 9247 O 839.723 3.6834 4.35525 0
M  V30 9248 O 838.657 5.16013 3.09862 0
M  V30 9249 H 842.483 2.97354 0.617584 0
M  V30 9250 H 840.068 1.47473 0.239174 0
M  V30 9251 H 841.95 2.88785 3.06889 0
M  V30 9252 H 840.625 1.74138 2.7287 0
M  V30 9253 H 839.532 3.52587 1.25033 0
M  V30 9254 H 840.865 4.63234 1.66359 0
M  V30 9255 N 842.517 -0.29412 1.54831 0
M  V30 9256 C 843.763 -1.02999 1.74697 0
M  V30 9257 C 844.096 -1.86687 0.534949 0
M  V30 9258 O 843.371 -1.88789 -0.467863 0
M  V30 9259 C 843.654 -1.93024 3.03996 0
M  V30 9260 C 843.507 -1.1247 4.35512 0
M  V30 9261 C 844.826 -2.92085 3.29203 0
M  V30 9262 H 841.945 -0.373039 0.635618 0
M  V30 9263 H 844.587 -0.304065 1.87551 0
M  V30 9264 H 842.737 -2.5492 2.93169 0
M  V30 9265 H 844.409 -0.528067 4.58268 0
M  V30 9266 H 842.652 -0.427574 4.31688 0
M  V30 9267 H 843.323 -1.78728 5.22265 0
M  V30 9268 H 845.799 -2.40319 3.39685 0
M  V30 9269 H 844.675 -3.52234 4.20978 0
M  V30 9270 H 844.936 -3.66107 2.47827 0
M  V30 9271 N 843.995 -1.47404 -0.557645 0
M  V30 9272 C 844.905 -1.62491 -1.69216 0
M  V30 9273 C 845.921 -0.507764 -1.66426 0
M  V30 9274 O 847.097 -0.775241 -1.85882 0
M  V30 9275 C 844.162 -1.63511 -3.05721 0
M  V30 9276 C 843.223 -2.86648 -3.1958 0
M  V30 9277 C 842.456 -2.87609 -4.49574 0
M  V30 9278 O 842.679 -1.97799 -5.35006 0
M  V30 9279 O 841.613 -3.79465 -4.67215 0
M  V30 9280 H 845.439 -2.58487 -1.59431 0
M  V30 9281 H 843.024 -1.30485 -0.7276 0
M  V30 9282 H 844.906 -1.66863 -3.86956 0
M  V30 9283 H 843.581 -0.706812 -3.15889 0
M  V30 9284 H 842.488 -2.8884 -2.37744 0
M  V30 9285 H 843.821 -3.7877 -3.14316 0
M  V30 9286 N 845.473 0.80434 -1.35529 0
M  V30 9287 C 846.703 1.59052 -1.31856 0
M  V30 9288 C 847.111 1.88905 0.105549 0
M  V30 9289 O 846.454 1.49422 1.06858 0
M  V30 9290 C 846.516 2.94626 -2.06 0
M  V30 9291 C 846.18 2.87576 -3.55175 0
M  V30 9292 C 847.177 2.60856 -4.49722 0
M  V30 9293 C 844.862 3.06623 -3.97854 0
M  V30 9294 C 846.856 2.53262 -5.84925 0
M  V30 9295 C 844.543 2.98652 -5.33151 0
M  V30 9296 C 845.541 2.72007 -6.26499 0
M  V30 9297 O 845.229 2.64003 -7.59314 0
M  V30 9298 H 844.961 0.500486 -0.454411 0
M  V30 9299 H 847.515 1.0074 -1.78999 0
M  V30 9300 H 845.745 3.5493 -1.53498 0
M  V30 9301 H 847.434 3.55785 -1.95376 0
M  V30 9302 H 848.2 2.45858 -4.18066 0
M  V30 9303 H 844.079 3.26372 -3.2558 0
M  V30 9304 H 847.623 2.32386 -6.57756 0
M  V30 9305 H 843.52 3.13208 -5.64421 0
M  V30 9306 H 844.288 2.79595 -7.69265 0
M  V30 9307 N 846.951 1.19563 1.02676 0
M  V30 9308 C 848.2 0.993864 1.75514 0
M  V30 9309 C 848.513 -0.475882 1.89723 0
M  V30 9310 O 849.719 -0.796525 2.59553 0
M  V30 9311 C 848.175 1.72937 3.15628 0
M  V30 9312 C 847.783 3.23937 3.09466 0
M  V30 9313 C 849.527 1.61092 3.92746 0
M  V30 9314 C 847.434 3.90067 4.44524 0
M  V30 9315 H 846.364 0.368244 0.657961 0
M  V30 9316 H 849.015 1.43081 1.14891 0
M  V30 9317 H 847.397 1.22025 3.76731 0
M  V30 9318 H 848.571 3.81983 2.57731 0
M  V30 9319 H 846.886 3.3608 2.45843 0
M  V30 9320 H 849.483 2.07848 4.92649 0
M  V30 9321 H 849.826 0.565415 4.12442 0
M  V30 9322 H 850.359 2.09361 3.3825 0
M  V30 9323 H 847.098 4.94725 4.30032 0
M  V30 9324 H 846.618 3.36809 4.96306 0
M  V30 9325 H 848.297 3.93736 5.13401 0
M  V30 9326 N 848.429 -1.21819 0.999893 0
M  V30 9327 C 849.379 -2.21823 0.527104 0
M  V30 9328 C 850.363 -1.55628 -0.408515 0
M  V30 9329 O 851.555 -1.75444 -0.234196 0
M  V30 9330 C 848.684 -3.42972 -0.149986 0
M  V30 9331 C 847.77 -4.16364 0.806349 0
M  V30 9332 N 848.161 -4.66403 1.95708 0
M  V30 9333 C 846.459 -4.41618 0.623672 0
M  V30 9334 C 847.16 -5.22443 2.5579 0
M  V30 9335 N 846.136 -5.11514 1.83995 0
M  V30 9336 H 849.938 -2.58161 1.40464 0
M  V30 9337 H 847.452 -1.37569 0.863054 0
M  V30 9338 H 849.449 -4.13816 -0.50613 0
M  V30 9339 H 848.109 -3.08145 -1.02357 0
M  V30 9340 H 849.12 -4.62142 2.33763 0
M  V30 9341 H 845.797 -4.17005 -0.203257 0
M  V30 9342 H 847.187 -5.7165 3.5308 0
M  V30 9343 N 849.908 -0.773975 -1.37286 0
M  V30 9344 C 850.871 -0.167974 -2.28584 0
M  V30 9345 C 851.871 0.625662 -1.48129 0
M  V30 9346 O 853.061 0.448924 -1.68316 0
M  V30 9347 C 850.193 0.769364 -3.32105 0
M  V30 9348 H 851.386 -0.972806 -2.83684 0
M  V30 9349 H 848.939 -0.542335 -1.46589 0
M  V30 9350 H 849.674 1.59912 -2.82132 0
M  V30 9351 H 849.459 0.202419 -3.91577 0
M  V30 9352 H 850.949 1.18872 -4.00324 0
M  V30 9353 N 851.386 1.48609 -0.524698 0
M  V30 9354 C 852.349 2.28041 0.230166 0
M  V30 9355 C 853.349 1.35065 0.872584 0
M  V30 9356 O 854.539 1.58007 0.73345 0
M  V30 9357 C 851.671 3.13778 1.33252 0
M  V30 9358 H 852.864 2.96239 -0.467161 0
M  V30 9359 H 850.417 1.53763 -0.280452 0
M  V30 9360 H 851.152 2.502 2.06327 0
M  V30 9361 H 850.937 3.82165 0.877058 0
M  V30 9362 H 852.427 3.7371 1.86362 0
M  V30 9363 N 852.864 0.259585 1.55447 0
M  V30 9364 C 853.794 -0.62852 2.24882 0
M  V30 9365 C 854.775 -1.17128 1.23349 0
M  V30 9366 O 855.96 -1.20829 1.52033 0
M  V30 9367 C 853.09 -1.81983 2.95803 0
M  V30 9368 C 852.044 -1.40929 4.04132 0
M  V30 9369 C 851.37 -2.68246 4.62545 0
M  V30 9370 C 852.67 -0.570956 5.1917 0
M  V30 9371 H 854.364 -0.0495021 2.99359 0
M  V30 9372 H 851.91 -0.0223688 1.43983 0
M  V30 9373 H 853.863 -2.44689 3.43082 0
M  V30 9374 H 852.587 -2.42444 2.18835 0
M  V30 9375 H 851.246 -0.805519 3.57641 0
M  V30 9376 H 850.894 -3.26931 3.82263 0
M  V30 9377 H 850.594 -2.41495 5.35681 0
M  V30 9378 H 852.118 -3.31827 5.12565 0
M  V30 9379 H 853.532 -1.10262 5.62597 0
M  V30 9380 H 851.929 -0.398979 5.98772 0
M  V30 9381 H 852.999 0.413918 4.8313 0
M  V30 9382 N 854.342 -1.57594 -0.0133615 0
M  V30 9383 C 855.29 -2.08682 -1.02736 0
M  V30 9384 C 856.284 -1.00391 -1.36448 0
M  V30 9385 O 857.49 -1.18868 -1.35168 0
M  V30 9386 H 853.865 -0.666158 -0.34891 0
M  V30 9387 H 855.836 -2.9289 -0.570815 0
M  V30 9388 C 854.585 -2.5945 -2.31476 0
M  V30 9389 H 853.908 -3.42401 -2.06401 0
M  V30 9390 H 855.348 -2.98888 -3.00735 0
M  V30 9391 C 853.807 -1.50266 -3.01533 0
M  V30 9392 O 854.337 -0.877875 -3.9199 0
M  V30 9393 N 852.543 -1.23336 -2.63129 0
M  V30 9394 H 852.09 -1.74327 -1.89652 0
M  V30 9395 H 852.048 -0.504987 -3.10318 0
M  V30 9396 N 855.82 0.285905 -1.54985 0
M  V30 9397 C 857.069 1.01691 -1.74189 0
M  V30 9398 C 857.382 1.87908 -0.543135 0
M  V30 9399 O 858.588 2.64389 -0.617305 0
M  V30 9400 C 857.044 1.85785 -3.0824 0
M  V30 9401 C 856.652 1.04497 -4.35642 0
M  V30 9402 C 858.396 2.58393 -3.36798 0
M  V30 9403 C 856.303 1.87955 -5.60738 0
M  V30 9404 H 855.233 0.383396 -0.649248 0
M  V30 9405 H 857.884 0.27317 -1.81455 0
M  V30 9406 H 856.266 2.64205 -2.94978 0
M  V30 9407 H 857.44 0.305847 -4.59784 0
M  V30 9408 H 855.755 0.434023 -4.14132 0
M  V30 9409 H 858.352 3.21214 -4.27464 0
M  V30 9410 H 858.695 3.28011 -2.56349 0
M  V30 9411 H 859.228 1.87012 -3.511 0
M  V30 9412 H 855.967 1.22781 -6.43898 0
M  V30 9413 H 855.487 2.59499 -5.40759 0
M  V30 9414 H 857.166 2.45636 -5.98558 0
M  V30 9415 N 857.298 1.47698 0.54982 0
M  V30 9416 C 858.245 1.60739 1.65625 0
M  V30 9417 C 859.215 0.450129 1.59884 0
M  V30 9418 O 860.4 0.671123 1.78607 0
M  V30 9419 C 857.54 1.63457 3.03934 0
M  V30 9420 C 856.653 2.90152 3.20056 0
M  V30 9421 C 855.788 2.84157 4.48807 0
M  V30 9422 C 854.827 4.05644 4.58387 0
M  V30 9423 N 853.964 3.97843 5.78503 0
M  V30 9424 H 858.804 2.55234 1.53817 0
M  V30 9425 H 856.341 1.26593 0.749173 0
M  V30 9426 H 858.299 1.63015 3.84034 0
M  V30 9427 H 856.929 0.724689 3.1456 0
M  V30 9428 H 855.981 3.00428 2.33339 0
M  V30 9429 H 857.293 3.80097 3.22998 0
M  V30 9430 H 856.447 2.82006 5.37175 0
M  V30 9431 H 855.186 1.91908 4.48356 0
M  V30 9432 H 854.191 4.08092 3.6843 0
M  V30 9433 H 855.416 4.9903 4.60593 0
M  V30 9434 H 853.362 3.08401 5.78986 0
M  V30 9435 H 853.279 4.81473 5.82855 0
M  V30 9436 H 854.547 3.99719 6.69212 0
M  V30 9437 N 858.776 -0.797141 1.35954 0
M  V30 9438 C 860.192 -1.09408 1.16198 0
M  V30 9439 C 860.392 -2.01491 -0.0191682 0
M  V30 9440 O 859.448 -2.42977 -0.686902 0
M  V30 9441 C 860.761 -1.71597 2.46931 0
M  V30 9442 C 862.309 -1.83974 2.53224 0
M  V30 9443 C 862.784 -2.49579 3.84024 0
M  V30 9444 N 864.275 -2.57055 3.85327 0
M  V30 9445 C 865.01 -3.08608 4.83268 0
M  V30 9446 N 864.506 -3.60527 5.91601 0
M  V30 9447 N 866.299 -3.07249 4.70696 0
M  V30 9448 H 858.45 -0.185209 2.11591 0
M  V30 9449 H 860.713 -0.144768 0.936881 0
M  V30 9450 H 860.419 -1.11404 3.3359 0
M  V30 9451 H 860.293 -2.71193 2.62172 0
M  V30 9452 H 862.68 -2.43308 1.66988 0
M  V30 9453 H 862.761 -0.83207 2.41889 0
M  V30 9454 H 862.405 -1.90892 4.70662 0
M  V30 9455 H 862.335 -3.50902 3.92651 0
M  V30 9456 H 864.826 -2.20283 3.07057 0
M  V30 9457 H 865.139 -3.98192 6.62317 0
M  V30 9458 H 863.484 -3.587 5.95281 0
M  V30 9459 H 866.675 -2.65972 3.85197 0
M  V30 9460 H 866.848 -3.47119 5.47186 0
M  V30 9461 N 860.254 -1.20106 -1.0204 0
M  V30 9462 C 861.217 -0.948261 -2.08664 0
M  V30 9463 C 862.217 0.0746753 -1.60627 0
M  V30 9464 O 863.407 -0.160981 -1.73455 0
M  V30 9465 C 860.539 -0.426854 -3.38217 0
M  V30 9466 H 861.732 -1.894 -2.32524 0
M  V30 9467 H 859.285 -1.0159 -1.18782 0
M  V30 9468 H 860.02 0.524532 -3.2003 0
M  V30 9469 H 859.805 -1.16451 -3.74408 0
M  V30 9470 H 861.295 -0.269346 -4.1673 0
M  V30 9471 N 861.732 1.21287 -1.00634 0
M  V30 9472 C 862.662 2.25973 -0.588089 0
M  V30 9473 C 863.643 1.65527 0.391764 0
M  V30 9474 O 864.828 1.92179 0.279452 0
M  V30 9475 C 861.958 3.47197 0.0847336 0
M  V30 9476 C 860.912 4.20168 -0.815039 0
M  V30 9477 C 860.238 5.34699 -0.00855393 0
M  V30 9478 C 861.538 4.77416 -2.11828 0
M  V30 9479 H 863.232 2.61212 -1.46317 0
M  V30 9480 H 860.778 1.25563 -0.704985 0
M  V30 9481 H 862.731 4.19602 0.388821 0
M  V30 9482 H 861.455 3.11092 0.994456 0
M  V30 9483 H 860.114 3.49614 -1.10297 0
M  V30 9484 H 859.762 4.94837 0.902499 0
M  V30 9485 H 859.462 5.84449 -0.607664 0
M  V30 9486 H 860.986 6.09914 0.289317 0
M  V30 9487 H 862.4 5.41694 -1.87725 0
M  V30 9488 H 860.797 5.37561 -2.66736 0
M  V30 9489 H 861.867 3.96724 -2.78816 0
M  V30 9490 N 863.21 0.781244 1.36873 0
M  V30 9491 C 864.435 0.360398 2.04245 0
M  V30 9492 C 864.86 -1.01242 1.58529 0
M  V30 9493 O 864.218 -1.65063 0.749936 0
M  V30 9494 C 864.266 0.42329 3.58107 0
M  V30 9495 O 863.37 -0.572796 4.08403 0
M  V30 9496 H 862.711 0.154386 0.645803 0
M  V30 9497 H 865.241 1.06008 1.74996 0
M  V30 9498 H 865.251 0.283967 4.07011 0
M  V30 9499 H 863.926 1.42477 3.90734 0
M  V30 9500 H 862.503 -0.395809 3.70793 0
M  V30 9501 N 864.689 -1.48329 0.532571 0
M  V30 9502 C 865.622 -2.26524 -0.2761 0
M  V30 9503 C 866.6 -1.32498 -0.942496 0
M  V30 9504 O 867.784 -1.61844 -0.966376 0
M  V30 9505 C 864.911 -3.08808 -1.39124 0
M  V30 9506 C 863.957 -4.18227 -0.835984 0
M  V30 9507 S 864.79 -5.34669 0.298186 0
M  V30 9508 C 865.946 -6.20514 -0.81937 0
M  V30 9509 H 866.179 -2.94764 0.387502 0
M  V30 9510 H 863.712 -1.51081 0.318407 0
M  V30 9511 H 865.67 -3.56792 -2.03002 0
M  V30 9512 H 864.331 -2.39976 -2.02658 0
M  V30 9513 H 863.524 -4.75435 -1.67264 0
M  V30 9514 H 863.126 -3.72996 -0.27385 0
M  V30 9515 H 865.418 -6.55371 -1.7174 0
M  V30 9516 H 866.361 -7.07525 -0.285199 0
M  V30 9517 H 866.769 -5.5366 -1.10094 0
M  V30 9518 N 866.167 -0.267825 -1.55308 0
M  V30 9519 C 867.416 0.351635 -1.98611 0
M  V30 9520 C 867.729 1.57522 -1.15957 0
M  V30 9521 O 868.935 2.26717 -1.49371 0
M  V30 9522 C 867.391 0.676986 -3.53475 0
M  V30 9523 C 866.999 -0.526385 -4.44897 0
M  V30 9524 C 868.743 1.25948 -4.05386 0
M  V30 9525 C 866.65 -0.176026 -5.91138 0
M  V30 9526 H 865.58 0.13516 -0.741787 0
M  V30 9527 H 868.231 -0.371333 -1.79704 0
M  V30 9528 H 866.613 1.45866 -3.68156 0
M  V30 9529 H 867.787 -1.30339 -4.41982 0
M  V30 9530 H 866.102 -1.02522 -4.03582 0
M  V30 9531 H 868.699 1.53529 -5.12184 0
M  V30 9532 H 869.042 2.19094 -3.53982 0
M  V30 9533 H 869.575 0.540253 -3.94114 0
M  V30 9534 H 866.314 -1.07518 -6.46622 0
M  V30 9535 H 865.834 0.564363 -5.97139 0
M  V30 9536 H 867.513 0.234365 -6.46575 0
M  V30 9537 N 867.645 1.57599 0.00500368 0
M  V30 9538 C 868.592 2.08106 0.998025 0
M  V30 9539 C 869.562 0.975374 1.34446 0
M  V30 9540 O 870.747 1.24749 1.44369 0
M  V30 9541 C 867.887 2.58496 2.28635 0
M  V30 9542 C 867 3.82947 1.99939 0
M  V30 9543 C 866.135 4.21857 3.22816 0
M  V30 9544 C 865.174 5.39159 2.89783 0
M  V30 9545 N 864.311 5.73386 4.05183 0
M  V30 9546 H 869.151 2.92684 0.560385 0
M  V30 9547 H 866.688 1.44692 0.265053 0
M  V30 9548 H 868.646 2.85787 3.03943 0
M  V30 9549 H 867.276 1.768 2.70077 0
M  V30 9550 H 866.328 3.62594 1.1502 0
M  V30 9551 H 867.64 4.68358 1.71588 0
M  V30 9552 H 866.794 4.50404 4.06474 0
M  V30 9553 H 865.533 3.35145 3.54301 0
M  V30 9554 H 864.538 5.1034 2.04532 0
M  V30 9555 H 865.763 6.27543 2.59551 0
M  V30 9556 H 863.709 4.89632 4.36574 0
M  V30 9557 H 863.626 6.53359 3.80339 0
M  V30 9558 H 864.894 6.06522 4.89644 0
M  V30 9559 N 869.123 -0.277682 1.55134 0
M  V30 9560 C 870.4 -1.0309 1.66228 0
M  V30 9561 C 870.78 -2.0445 0.525701 0
M  V30 9562 O 870.128 -2.23512 -0.474816 0
M  V30 9563 C 870.338 -1.6919 3.05247 0
M  V30 9564 C 871.686 -2.20526 3.62841 0
M  V30 9565 O 872.71 -1.79185 3.07849 0
M  V30 9566 O 871.569 -2.96342 4.59177 0
M  V30 9567 H 868.663 -0.4779 0.674937 0
M  V30 9568 H 871.209 -0.273912 1.67475 0
M  V30 9569 H 869.981 -0.957163 3.79413 0
M  V30 9570 H 869.604 -2.51587 3.07879 0
M  V30 9571 N 870.601 -1.47988 -0.541979 0
M  V30 9572 C 871.564 -1.61148 -1.62984 0
M  V30 9573 C 872.564 -0.48553 -1.53295 0
M  V30 9574 O 873.754 -0.751012 -1.5718 0
M  V30 9575 C 870.886 -1.57038 -3.02576 0
M  V30 9576 H 872.079 -2.58138 -1.52659 0
M  V30 9577 H 869.632 -1.36405 -0.763106 0
M  V30 9578 H 870.367 -0.614807 -3.18419 0
M  V30 9579 H 870.152 -2.38769 -3.11018 0
M  V30 9580 H 871.642 -1.69416 -3.81691 0
M  V30 9581 N 872.079 0.78992 -1.36375 0
M  V30 9582 C 873.49 1.36506 -1.2737 0
M  V30 9583 C 873.841 1.96008 0.086711 0
M  V30 9584 O 872.966 1.92521 0.988159 0
M  V30 9585 C 873.561 2.48175 -2.30639 0
M  V30 9586 C 872.12 3.01506 -2.25325 0
M  V30 9587 C 871.267 1.74581 -2.15445 0
M  V30 9588 H 874.218 0.591606 -1.47261 0
M  V30 9589 H 874.239 3.27179 -1.94253 0
M  V30 9590 H 873.751 2.04838 -3.2964 0
M  V30 9591 H 871.852 3.49265 -1.29788 0
M  V30 9592 H 871.965 3.58355 -3.17992 0
M  V30 9593 H 870.329 1.96794 -1.61692 0
M  V30 9594 H 871.112 1.33373 -3.16333 0
M  V30 9595 N 873.557 1.20646 1.01402 0
M  V30 9596 C 874.806 1.01242 1.7445 0
M  V30 9597 C 875.119 -0.455732 1.90217 0
M  V30 9598 O 876.325 -0.768951 2.60383 0
M  V30 9599 C 874.781 1.76275 3.13776 0
M  V30 9600 C 874.389 3.27201 3.06013 0
M  V30 9601 C 876.133 1.65248 3.91016 0
M  V30 9602 C 874.04 3.9476 4.40362 0
M  V30 9603 H 872.97 0.375202 0.654018 0
M  V30 9604 H 875.621 1.44292 1.13367 0
M  V30 9605 H 874.003 1.26013 3.75415 0
M  V30 9606 H 875.177 3.84695 2.53665 0
M  V30 9607 H 873.492 3.38669 2.42265 0
M  V30 9608 H 876.089 2.13061 4.90417 0
M  V30 9609 H 876.432 0.609128 4.1182 0
M  V30 9610 H 876.965 2.12937 3.3601 0
M  V30 9611 H 873.704 4.99258 4.24761 0
M  V30 9612 H 873.224 3.42054 4.92706 0
M  V30 9613 H 874.903 3.99159 5.09196 0
M  V30 9614 N 875.035 -1.20752 1.01276 0
M  V30 9615 C 876.446 -1.7175 0.732033 0
M  V30 9616 C 876.797 -1.8131 -0.749733 0
M  V30 9617 O 875.922 -1.47301 -1.58529 0
M  V30 9618 C 876.517 -3.11936 1.32217 0
M  V30 9619 C 875.076 -3.6026 1.09039 0
M  V30 9620 C 874.223 -2.37571 1.43022 0
M  V30 9621 H 877.174 -1.0582 1.1827 0
M  V30 9622 H 877.195 -3.73802 0.710771 0
M  V30 9623 H 876.707 -3.04946 2.40061 0
M  V30 9624 H 874.808 -3.72588 0.0294464 0
M  V30 9625 H 874.921 -4.45295 1.76775 0
M  V30 9626 H 873.285 -2.40128 0.849159 0
M  V30 9627 H 874.068 -2.33225 2.51915 0
M  V30 9628 N 876.513 -0.788492 -1.36457 0
M  V30 9629 C 877.761 -0.359749 -1.98872 0
M  V30 9630 C 878.082 1.07197 -1.62892 0
M  V30 9631 O 877.352 1.73875 -0.902463 0
M  V30 9632 H 875.932 -0.130029 -0.735596 0
M  V30 9633 H 878.594 -1.01033 -1.66668 0
M  V30 9634 H 877.69 -0.450835 -3.08827 0
M  V30 9635 N 877.991 1.48044 -0.54043 0
M  V30 9636 C 878.954 2.28273 0.205966 0
M  V30 9637 C 879.954 1.35983 0.858209 0
M  V30 9638 O 881.144 1.58776 0.716651 0
M  V30 9639 C 878.276 3.15174 1.29917 0
M  V30 9640 H 879.469 2.95727 -0.498555 0
M  V30 9641 H 877.022 1.53457 -0.296745 0
M  V30 9642 H 877.757 2.52374 2.03661 0
M  V30 9643 H 877.542 3.83074 0.836475 0
M  V30 9644 H 879.032 3.75666 1.82387 0
M  V30 9645 N 879.47 0.276058 1.55163 0
M  V30 9646 C 880.38 -0.621066 2.2623 0
M  V30 9647 C 881.396 -1.16931 1.28853 0
M  V30 9648 O 882.572 -1.1994 1.61791 0
M  V30 9649 C 879.637 -1.78824 2.97023 0
M  V30 9650 C 878.698 -1.27657 4.09881 0
M  V30 9651 C 877.931 -2.38812 4.77289 0
M  V30 9652 O 878.154 -3.58188 4.43912 0
M  V30 9653 O 877.088 -2.06915 5.65217 0
M  V30 9654 H 880.914 -0.0453346 3.03666 0
M  V30 9655 H 878.499 0.0434275 1.49337 0
M  V30 9656 H 880.381 -2.46877 3.41511 0
M  V30 9657 H 879.056 -2.35104 2.22503 0
M  V30 9658 H 877.963 -0.56248 3.69847 0
M  V30 9659 H 879.296 -0.759509 4.86305 0
M  V30 9660 N 880.948 -1.576 0.00335426 0
M  V30 9661 C 882.176 -1.94996 -0.691685 0
M  V30 9662 C 882.591 -0.878405 -1.67121 0
M  V30 9663 O 881.948 0.142343 -1.81944 0
M  V30 9664 C 881.999 -3.32416 -1.42063 0
M  V30 9665 O 881.72 -4.35458 -0.48038 0
M  V30 9666 C 883.221 -3.84291 -2.20987 0
M  V30 9667 H 880.441 -0.642814 -0.192434 0
M  V30 9668 H 882.985 -2.04425 0.0554706 0
M  V30 9669 H 881.14 -3.24285 -2.11939 0
M  V30 9670 H 881.554 -5.14975 -0.995054 0
M  V30 9671 H 883.028 -4.82863 -2.67483 0
M  V30 9672 H 883.505 -3.17174 -3.03805 0
M  V30 9673 H 884.111 -3.95609 -1.56121 0
M  V30 9674 N 882.426 0.269451 -1.5528 0
M  V30 9675 C 883.672 0.997946 -1.77236 0
M  V30 9676 C 884.027 1.83808 -0.568546 0
M  V30 9677 O 883.32 1.8651 0.438706 0
M  V30 9678 C 883.514 1.91 -3.02082 0
M  V30 9679 C 883.343 1.15963 -4.34491 0
M  V30 9680 C 882.113 0.873873 -4.97686 0
M  V30 9681 C 884.311 0.548307 -5.11369 0
M  V30 9682 N 882.293 0.0970863 -6.13823 0
M  V30 9683 C 883.664 -0.0941413 -6.19929 0
M  V30 9684 C 885.719 0.456507 -4.95803 0
M  V30 9685 C 884.422 -0.819547 -7.14616 0
M  V30 9686 C 886.448 -0.255315 -5.90849 0
M  V30 9687 C 885.81 -0.886488 -6.988 0
M  V30 9688 H 881.909 0.347038 -0.700777 0
M  V30 9689 H 884.493 0.273262 -1.92773 0
M  V30 9690 H 882.664 2.60691 -2.87915 0
M  V30 9691 H 884.396 2.57237 -3.12428 0
M  V30 9692 H 881.151 1.18003 -4.58663 0
M  V30 9693 H 881.575 -0.278741 -6.76426 0
M  V30 9694 H 886.217 0.930164 -4.12441 0
M  V30 9695 H 883.935 -1.30488 -7.97495 0
M  V30 9696 H 887.521 -0.32671 -5.80882 0
M  V30 9697 H 886.401 -1.42851 -7.71079 0
M  V30 9698 N 883.904 1.48273 0.534124 0
M  V30 9699 C 885.134 1.59503 1.31311 0
M  V30 9700 C 885.542 0.25284 1.87503 0
M  V30 9701 O 884.885 -0.767399 1.66903 0
M  V30 9702 C 884.947 2.57899 2.50456 0
M  V30 9703 C 884.611 4.03063 2.15382 0
M  V30 9704 C 885.608 4.90869 1.713 0
M  V30 9705 C 883.293 4.4857 2.26032 0
M  V30 9706 C 885.287 6.22209 1.38328 0
M  V30 9707 C 882.974 5.79932 1.92672 0
M  V30 9708 C 883.972 6.66574 1.4889 0
M  V30 9709 O 883.66 7.95492 1.15966 0
M  V30 9710 H 883.392 0.540695 0.405739 0
M  V30 9711 H 885.946 1.94794 0.651497 0
M  V30 9712 H 884.176 2.1772 3.19585 0
M  V30 9713 H 885.865 2.59008 3.12522 0
M  V30 9714 H 886.631 4.56951 1.62545 0
M  V30 9715 H 882.51 3.81321 2.59066 0
M  V30 9716 H 886.054 6.89792 1.04082 0
M  V30 9717 H 881.951 6.13386 2.01066 0
M  V30 9718 H 882.719 8.08207 1.29399 0
M  V30 9719 N 885.382 -0.782676 1.36792 0
M  V30 9720 C 886.631 -1.53605 1.30723 0
M  V30 9721 C 886.944 -1.95294 -0.109296 0
M  V30 9722 O 888.15 -2.69921 -0.292398 0
M  V30 9723 C 886.606 -2.77321 2.29393 0
M  V30 9724 C 886.214 -2.42774 3.76517 0
M  V30 9725 C 887.958 -3.55289 2.32314 0
M  V30 9726 C 885.865 -3.62926 4.66947 0
M  V30 9727 H 884.795 -0.576646 0.485794 0
M  V30 9728 H 887.446 -0.858255 1.62192 0
M  V30 9729 H 885.828 -3.46934 1.90927 0
M  V30 9730 H 887.002 -1.81014 4.23758 0
M  V30 9731 H 885.317 -1.78002 3.76436 0
M  V30 9732 H 887.914 -4.44573 2.97083 0
M  V30 9733 H 888.257 -3.94361 1.3336 0
M  V30 9734 H 888.79 -2.92662 2.69432 0
M  V30 9735 H 885.529 -3.28944 5.66989 0
M  V30 9736 H 885.049 -4.23828 4.24418 0
M  V30 9737 H 886.728 -4.29873 4.83548 0
M  V30 9738 N 886.86 -1.21182 -1.00761 0
M  V30 9739 C 888.137 -0.936297 -1.71735 0
M  V30 9740 C 888.517 0.552585 -2.03739 0
M  V30 9741 O 887.865 1.51672 -1.70903 0
M  V30 9742 C 888.075 -1.81867 -2.97868 0
M  V30 9743 C 889.423 -2.06594 -3.7095 0
M  V30 9744 O 890.447 -1.79194 -3.07844 0
M  V30 9745 O 889.306 -2.5292 -4.84452 0
M  V30 9746 H 886.4 -0.350867 -0.74888 0
M  V30 9747 H 888.946 -1.32098 -1.06527 0
M  V30 9748 H 887.718 -2.82643 -2.70607 0
M  V30 9749 H 887.341 -1.43463 -3.70815 0
M  V30 9750 N 888.338 1.20213 -1.01915 0
M  V30 9751 C 889.586 1.89272 -0.708552 0
M  V30 9752 C 889.907 1.79394 0.76438 0
M  V30 9753 O 889.177 1.198 1.54999 0
M  V30 9754 H 887.757 0.700628 -0.259094 0
M  V30 9755 H 890.419 1.45985 -1.29129 0
M  V30 9756 H 889.515 2.95841 -0.994215 0
M  V30 9757 N 889.816 0.795718 1.36037 0
M  V30 9758 C 891.064 0.370291 1.98679 0
M  V30 9759 C 891.385 -1.06332 1.63458 0
M  V30 9760 O 890.655 -1.73394 0.911671 0
M  V30 9761 H 889.235 0.133928 0.734896 0
M  V30 9762 H 891.897 1.01915 1.6613 0
M  V30 9763 H 890.993 0.467207 3.08583 0
M  V30 9764 N 891.294 -1.47756 0.548274 0
M  V30 9765 C 892.71 -1.58247 0.207401 0
M  V30 9766 C 892.91 -1.54804 -1.28988 0
M  V30 9767 O 891.966 -1.44673 -2.06944 0
M  V30 9768 C 893.279 -2.89129 0.826142 0
M  V30 9769 C 894.827 -3.02695 0.79655 0
M  V30 9770 C 895.302 -4.36264 1.3942 0
M  V30 9771 N 896.793 -4.42877 1.35698 0
M  V30 9772 C 897.528 -5.44773 1.78913 0
M  V30 9773 N 897.024 -6.53528 2.29942 0
M  V30 9774 N 898.817 -5.35765 1.70038 0
M  V30 9775 H 890.968 -1.48236 1.52117 0
M  V30 9776 H 893.231 -0.704957 0.633829 0
M  V30 9777 H 892.937 -2.97358 1.87806 0
M  V30 9778 H 892.811 -3.75891 0.313916 0
M  V30 9779 H 895.198 -2.94067 -0.246655 0
M  V30 9780 H 895.279 -2.17496 1.34644 0
M  V30 9781 H 894.923 -4.45646 2.43642 0
M  V30 9782 H 894.853 -5.20179 0.819827 0
M  V30 9783 H 897.344 -3.64874 0.983623 0
M  V30 9784 H 897.657 -7.27441 2.60863 0
M  V30 9785 H 896.002 -6.54442 2.33947 0
M  V30 9786 H 899.193 -4.49699 1.29955 0
M  V30 9787 H 899.366 -6.1504 2.04035 0
M  V30 9788 N 892.772 -0.284283 -1.55015 0
M  V30 9789 C 893.719 0.599194 -2.22886 0
M  V30 9790 C 894.689 1.14264 -1.20553 0
M  V30 9791 O 895.874 1.19025 -1.49123 0
M  V30 9792 C 893.014 1.77317 -2.96062 0
M  V30 9793 C 892.127 1.26271 -4.13134 0
M  V30 9794 C 891.262 2.39922 -4.73931 0
M  V30 9795 C 890.301 1.85925 -5.8318 0
M  V30 9796 N 889.438 2.93084 -6.38002 0
M  V30 9797 H 894.278 0.0137816 -2.97997 0
M  V30 9798 H 891.815 -0.00496503 -1.47099 0
M  V30 9799 H 893.773 2.46339 -3.36709 0
M  V30 9800 H 892.403 2.33047 -2.23358 0
M  V30 9801 H 891.455 0.465296 -3.77544 0
M  V30 9802 H 892.767 0.827284 -4.91892 0
M  V30 9803 H 891.921 3.1692 -5.17346 0
M  V30 9804 H 890.66 2.86784 -3.9447 0
M  V30 9805 H 889.665 1.07409 -5.39206 0
M  V30 9806 H 890.89 1.39987 -6.64515 0
M  V30 9807 H 888.836 3.3931 -5.61431 0
M  V30 9808 H 888.753 2.53986 -7.12058 0
M  V30 9809 H 890.021 3.7003 -6.86075 0
M  V30 9810 N 894.251 1.57596 -0.0117121 0
M  V30 9811 C 895.181 2.12188 0.9746 0
M  V30 9812 C 896.162 1.03379 1.35081 0
M  V30 9813 O 897.347 1.31123 1.4325 0
M  V30 9814 C 894.477 2.63477 2.26268 0
M  V30 9815 C 893.431 3.76917 2.02774 0
M  V30 9816 C 892.757 4.14566 3.37697 0
M  V30 9817 C 894.057 5.03715 1.38089 0
M  V30 9818 H 895.751 2.9485 0.520007 0
M  V30 9819 H 893.297 1.41836 0.248685 0
M  V30 9820 H 895.25 3.00299 2.95633 0
M  V30 9821 H 893.974 1.77953 2.73862 0
M  V30 9822 H 892.633 3.40507 1.35832 0
M  V30 9823 H 892.281 3.26048 3.83016 0
M  V30 9824 H 891.981 4.91 3.22789 0
M  V30 9825 H 893.505 4.53956 4.08358 0
M  V30 9826 H 894.919 5.38233 1.97428 0
M  V30 9827 H 893.316 5.85032 1.33634 0
M  V30 9828 H 894.386 4.83624 0.351575 0
M  V30 9829 N 895.729 -0.261212 1.5542 0
M  V30 9830 C 896.977 -0.989272 1.76232 0
M  V30 9831 C 897.298 -1.86389 0.573067 0
M  V30 9832 O 896.568 -1.91526 -0.41166 0
M  V30 9833 H 895.148 -0.368256 0.64992 0
M  V30 9834 H 897.81 -0.282603 1.9284 0
M  V30 9835 H 896.906 -1.61935 2.66802 0
M  V30 9836 N 897.207 -1.48554 -0.526253 0
M  V30 9837 C 898.154 -1.63354 -1.63046 0
M  V30 9838 C 899.124 -0.475509 -1.59148 0
M  V30 9839 O 900.309 -0.699453 -1.77517 0
M  V30 9840 C 897.449 -1.68271 -3.01295 0
M  V30 9841 C 896.562 -2.95207 -3.15399 0
M  V30 9842 C 895.697 -2.91262 -4.4423 0
M  V30 9843 C 894.736 -4.12886 -4.51876 0
M  V30 9844 N 893.873 -4.06996 -5.721 0
M  V30 9845 H 898.713 -2.57649 -1.49737 0
M  V30 9846 H 896.25 -1.27769 -0.728938 0
M  V30 9847 H 898.208 -1.69104 -3.81392 0
M  V30 9848 H 896.838 -0.774641 -3.13367 0
M  V30 9849 H 895.89 -3.04102 -2.2853 0
M  V30 9850 H 897.202 -3.85187 -3.1691 0
M  V30 9851 H 896.356 -2.90516 -5.32621 0
M  V30 9852 H 895.095 -1.99016 -4.45246 0
M  V30 9853 H 894.1 -4.13902 -3.61891 0
M  V30 9854 H 895.325 -5.06294 -4.52596 0
M  V30 9855 H 893.271 -3.17573 -5.74006 0
M  V30 9856 H 893.188 -4.90685 -5.75121 0
M  V30 9857 H 894.456 -4.10315 -6.62768 0
M  V30 9858 N 898.685 0.775411 -1.37205 0
M  V30 9859 C 899.648 1.8702 -1.325 0
M  V30 9860 C 900.648 1.5915 -0.229793 0
M  V30 9861 O 901.838 1.673 -0.485423 0
M  V30 9862 C 898.97 3.24085 -1.05745 0
M  V30 9863 H 900.163 1.92604 -2.29878 0
M  V30 9864 H 897.716 0.97476 -1.22181 0
M  V30 9865 H 898.451 3.24178 -0.0888371 0
M  V30 9866 H 898.236 3.45705 -1.85016 0
M  V30 9867 H 899.726 4.0416 -1.05094 0
M  V30 9868 N 900.163 1.21714 1.00117 0
M  V30 9869 C 901.126 0.981338 2.07129 0
M  V30 9870 C 902.126 -0.0491116 1.60725 0
M  V30 9871 O 903.316 0.188555 1.73177 0
M  V30 9872 C 900.448 0.480608 3.37495 0
M  V30 9873 H 901.641 1.93075 2.29482 0
M  V30 9874 H 899.194 1.03467 1.17151 0
M  V30 9875 H 899.929 -0.473552 3.20824 0
M  V30 9876 H 899.714 1.22393 3.72508 0
M  V30 9877 H 901.204 0.33561 4.16249 0
M  V30 9878 N 901.641 -1.19671 1.02551 0
M  V30 9879 C 902.588 -2.22773 0.603394 0
M  V30 9880 C 903.558 -1.61669 -0.381081 0
M  V30 9881 O 904.743 -1.88756 -0.278505 0
M  V30 9882 C 901.883 -3.45073 -0.0431034 0
M  V30 9883 C 900.996 -4.20574 0.987006 0
M  V30 9884 C 900.131 -5.30291 0.310626 0
M  V30 9885 C 899.17 -5.97545 1.32688 0
M  V30 9886 N 898.307 -6.98833 0.676542 0
M  V30 9887 H 903.147 -2.58238 1.48719 0
M  V30 9888 H 900.684 -1.26881 0.744286 0
M  V30 9889 H 902.642 -4.14925 -0.435141 0
M  V30 9890 H 901.272 -3.10274 -0.890495 0
M  V30 9891 H 900.324 -3.497 1.49713 0
M  V30 9892 H 901.636 -4.66736 1.75952 0
M  V30 9893 H 900.79 -6.06547 -0.136438 0
M  V30 9894 H 899.529 -4.8519 -0.49412 0
M  V30 9895 H 898.534 -5.20043 1.78424 0
M  V30 9896 H 899.759 -6.4473 2.13306 0
M  V30 9897 H 897.705 -6.55911 -0.108172 0
M  V30 9898 H 897.622 -7.43168 1.38699 0
M  V30 9899 H 898.89 -7.79088 0.253367 0
M  V30 9900 N 903.119 -0.802921 -1.35613 0
M  V30 9901 C 904.082 -0.216422 -2.28176 0
M  V30 9902 C 905.082 0.594101 -1.49422 0
M  V30 9903 O 906.272 0.41312 -1.6923 0
M  V30 9904 C 903.404 0.698746 -3.33662 0
M  V30 9905 H 904.597 -1.03276 -2.81557 0
M  V30 9906 H 902.15 -0.573307 -1.45406 0
M  V30 9907 H 902.885 1.53891 -2.85461 0
M  V30 9908 H 902.67 0.119314 -3.91918 0
M  V30 9909 H 904.16 1.10354 -4.02755 0
M  V30 9910 N 904.597 1.47463 -0.556102 0
M  V30 9911 C 905.56 2.28478 0.181743 0
M  V30 9912 C 906.56 1.36886 0.843738 0
M  V30 9913 O 907.75 1.59527 0.69977 0
M  V30 9914 C 904.882 3.16534 1.26566 0
M  V30 9915 H 906.075 2.95182 -0.529892 0
M  V30 9916 H 903.628 1.53134 -0.313005 0
M  V30 9917 H 904.363 2.5452 2.00973 0
M  V30 9918 H 904.148 3.83939 0.795798 0
M  V30 9919 H 905.638 3.77579 1.78393 0
M  V30 9920 N 906.075 0.2925 1.54862 0
M  V30 9921 C 907.305 -0.321646 2.04081 0
M  V30 9922 C 907.713 -1.48712 1.16967 0
M  V30 9923 O 907.056 -1.82755 0.18609 0
M  V30 9924 C 907.118 -0.848678 3.49339 0
M  V30 9925 C 906.782 0.190416 4.56603 0
M  V30 9926 C 907.779 1.01595 5.09877 0
M  V30 9927 C 905.464 0.329666 5.01217 0
M  V30 9928 C 907.458 1.96676 6.06298 0
M  V30 9929 C 905.145 1.28393 5.9746 0
M  V30 9930 C 906.143 2.10097 6.49883 0
M  V30 9931 O 905.831 3.03907 7.44242 0
M  V30 9932 H 905.563 -0.075098 0.671816 0
M  V30 9933 H 908.117 0.427531 2.00901 0
M  V30 9934 H 906.347 -1.64823 3.49815 0
M  V30 9935 H 908.036 -1.37779 3.81801 0
M  V30 9936 H 908.802 0.919197 4.7621 0
M  V30 9937 H 904.681 -0.296317 4.60047 0
M  V30 9938 H 908.225 2.60488 6.47141 0
M  V30 9939 H 904.122 1.38144 6.30545 0
M  V30 9940 H 904.89 2.98787 7.62016 0
M  V30 9941 N 907.553 -1.57587 0.0200696 0
M  V30 9942 C 908.799 -1.92539 -0.655764 0
M  V30 9943 C 909.154 -0.896187 -1.70253 0
M  V30 9944 O 908.447 0.0890022 -1.91393 0
M  V30 9945 C 908.641 -3.32002 -1.32323 0
M  V30 9946 C 908.47 -4.48393 -0.342632 0
M  V30 9947 C 907.24 -5.05271 0.0542423 0
M  V30 9948 C 909.438 -5.12747 0.399388 0
M  V30 9949 N 907.42 -6.05181 1.03095 0
M  V30 9950 C 908.791 -6.07674 1.23014 0
M  V30 9951 C 910.846 -4.95761 0.461065 0
M  V30 9952 C 909.549 -6.87442 2.11698 0
M  V30 9953 C 911.575 -5.7613 1.33521 0
M  V30 9954 C 910.937 -6.70666 2.15376 0
M  V30 9955 H 907.036 -0.75256 -0.212549 0
M  V30 9956 H 909.62 -1.94514 0.0851247 0
M  V30 9957 H 907.791 -3.30863 -2.0343 0
M  V30 9958 H 909.523 -3.54327 -1.95537 0
M  V30 9959 H 906.278 -4.72529 -0.318327 0
M  V30 9960 H 906.702 -6.59824 1.51528 0
M  V30 9961 H 911.344 -4.22506 -0.15752 0
M  V30 9962 H 909.062 -7.60008 2.74616 0
M  V30 9963 H 912.648 -5.65023 1.38711 0
M  V30 9964 H 911.528 -7.31772 2.81922 0
M  V30 9965 N 909.032 0.252966 -1.55557 0
M  V30 9966 C 910.26 0.999565 -1.81153 0
M  V30 9967 C 910.675 1.79181 -0.594955 0
M  V30 9968 O 910.032 1.77208 0.436311 0
M  V30 9969 C 910.083 1.94227 -3.04891 0
M  V30 9970 O 909.804 1.18209 -4.21851 0
M  V30 9971 C 911.305 2.80536 -3.43241 0
M  V30 9972 H 908.525 0.294402 -0.602966 0
M  V30 9973 H 911.069 0.277686 -2.02606 0
M  V30 9974 H 909.224 2.6185 -2.85505 0
M  V30 9975 H 909.638 1.81922 -4.9194 0
M  V30 9976 H 911.112 3.42442 -4.32941 0
M  V30 9977 H 911.589 3.51337 -2.6355 0
M  V30 9978 H 912.195 2.18373 -3.64956 0
M  V30 9979 N 910.51 1.48831 0.518367 0
M  V30 9980 C 911.787 1.47933 1.27966 0
M  V30 9981 C 912.167 0.197393 2.10175 0
M  V30 9982 O 911.515 -0.820656 2.13255 0
M  V30 9983 C 911.725 2.74816 2.15121 0
M  V30 9984 C 913.073 3.23613 2.74881 0
M  V30 9985 O 914.097 2.75814 2.254 0
M  V30 9986 O 912.956 4.06818 3.64913 0
M  V30 9987 H 910.05 0.591316 0.578164 0
M  V30 9988 H 912.596 1.61077 0.534065 0
M  V30 9989 H 911.368 3.59621 1.54234 0
M  V30 9990 H 910.991 2.64449 2.96905 0
M  V30 9991 N 911.988 -0.768124 1.37614 0
M  V30 9992 C 913.216 -1.55726 1.36224 0
M  V30 9993 C 913.631 -1.8873 -0.0515357 0
M  V30 9994 O 912.988 -1.51718 -1.0143 0
M  V30 9995 C 913.039 -2.86533 2.20412 0
M  V30 9996 O 912.76 -2.54942 3.56281 0
M  V30 9997 C 914.261 -3.80745 2.27041 0
M  V30 9998 H 911.481 -0.482325 0.46648 0
M  V30 9999 H 914.025 -0.95176 1.81002 0
M  V30 10000 H 912.18 -3.43496 1.79134 0
M  V30 10001 H 912.594 -3.38732 4.00451 0
M  V30 10002 H 914.068 -4.69523 2.90263 0
M  V30 10003 H 914.545 -4.20138 1.27987 0
M  V30 10004 H 915.151 -3.2971 2.68647 0
M  V30 10005 N 913.466 -1.22244 -0.994698 0
M  V30 10006 C 914.714 -1.04384 -1.73056 0
M  V30 10007 C 915.035 0.422204 -1.90374 0
M  V30 10008 O 914.305 1.30383 -1.46209 0
M  V30 10009 H 912.885 -0.383263 -0.641185 0
M  V30 10010 H 915.547 -1.53725 -1.1981 0
M  V30 10011 H 914.643 -1.52021 -2.72573 0
M  V30 10012 N 914.944 1.19125 -1.03184 0
M  V30 10013 C 915.891 2.2245 -0.6152 0
M  V30 10014 C 916.861 1.61869 0.372502 0
M  V30 10015 O 918.046 1.88901 0.268491 0
M  V30 10016 C 915.186 3.45091 0.0248027 0
M  V30 10017 C 914.299 4.20044 -1.0093 0
M  V30 10018 C 913.434 5.30119 -0.338744 0
M  V30 10019 C 912.473 5.96833 -1.35855 0
M  V30 10020 N 911.61 6.98464 -0.713594 0
M  V30 10021 H 916.45 2.57445 -1.50086 0
M  V30 10022 H 913.987 1.26485 -0.751005 0
M  V30 10023 H 915.945 4.15149 0.413131 0
M  V30 10024 H 914.575 3.10742 0.874028 0
M  V30 10025 H 913.627 3.48901 -1.51566 0
M  V30 10026 H 914.939 4.65796 -1.78425 0
M  V30 10027 H 914.093 6.0661 0.104269 0
M  V30 10028 H 912.832 4.85446 0.468382 0
M  V30 10029 H 911.837 5.1909 -1.81179 0
M  V30 10030 H 913.062 6.4359 -2.16722 0
M  V30 10031 H 911.008 6.55959 0.0733863 0
M  V30 10032 H 910.925 7.42422 -1.42638 0
M  V30 10033 H 912.193 7.78943 -0.294681 0
M  V30 10034 N 916.422 0.810101 1.35185 0
M  V30 10035 C 917.668 0.401839 1.99391 0
M  V30 10036 C 918.023 -1.02059 1.63101 0
M  V30 10037 O 917.316 -1.69889 0.8859 0
M  V30 10038 C 917.51 0.526561 3.535 0
M  V30 10039 C 917.339 1.95956 4.04761 0
M  V30 10040 C 916.109 2.58869 4.33953 0
M  V30 10041 C 918.307 2.92459 4.23051 0
M  V30 10042 N 916.289 3.93542 4.71166 0
M  V30 10043 C 917.66 4.12011 4.633 0
M  V30 10044 C 919.715 2.89244 4.05268 0
M  V30 10045 C 918.418 5.28784 4.87627 0
M  V30 10046 C 920.444 4.05223 4.30753 0
M  V30 10047 C 919.806 5.23524 4.71277 0
M  V30 10048 H 915.905 0.194886 0.757327 0
M  V30 10049 H 918.489 1.05209 1.63827 0
M  V30 10050 H 916.66 -0.0937151 3.88287 0
M  V30 10051 H 918.392 0.0925434 4.04594 0
M  V30 10052 H 915.147 2.10198 4.24398 0
M  V30 10053 H 915.571 4.62889 4.94027 0
M  V30 10054 H 920.213 1.98932 3.73076 0
M  V30 10055 H 917.931 6.19666 5.18691 0
M  V30 10056 H 921.517 4.04121 4.18542 0
M  V30 10057 H 920.397 6.11776 4.90612 0
M  V30 10058 N 917.9 -1.47166 0.563914 0
M  V30 10059 C 919.316 -1.58018 0.224173 0
M  V30 10060 C 919.516 -1.56163 -1.27339 0
M  V30 10061 O 918.572 -1.4686 -2.05398 0
M  V30 10062 C 919.885 -2.88236 0.856762 0
M  V30 10063 C 921.433 -3.01833 0.82861 0
M  V30 10064 C 921.908 -4.34761 1.44039 0
M  V30 10065 N 923.399 -4.41413 1.40388 0
M  V30 10066 C 924.134 -5.42845 1.84681 0
M  V30 10067 N 923.63 -6.51052 2.3686 0
M  V30 10068 N 925.423 -5.33931 1.75711 0
M  V30 10069 H 917.574 -1.46615 1.53681 0
M  V30 10070 H 919.837 -0.698195 0.64127 0
M  V30 10071 H 919.543 -2.95349 1.90949 0
M  V30 10072 H 919.417 -3.75537 0.353766 0
M  V30 10073 H 921.804 -2.94312 -0.215451 0
M  V30 10074 H 921.885 -2.16056 1.36943 0
M  V30 10075 H 921.529 -4.43037 2.48355 0
M  V30 10076 H 921.459 -5.1928 0.874953 0
M  V30 10077 H 923.95 -3.63811 1.02227 0
M  V30 10078 H 924.263 -7.24633 2.68564 0
M  V30 10079 H 922.608 -6.51924 2.40875 0
M  V30 10080 H 925.799 -4.48295 1.34718 0
M  V30 10081 H 925.972 -6.12841 2.10547 0
M  V30 10082 N 919.378 -0.300708 -1.54705 0
M  V30 10083 C 920.624 0.309111 -2.0043 0
M  V30 10084 C 920.957 1.53562 -1.1888 0
M  V30 10085 O 920.232 1.92683 -0.265205 0
M  V30 10086 C 920.515 0.665995 -3.53888 0
M  V30 10087 C 920.368 -0.56963 -4.46178 0
M  V30 10088 C 921.687 1.49262 -4.14016 0
M  V30 10089 H 918.806 0.110878 -0.728612 0
M  V30 10090 H 921.448 -0.412748 -1.85463 0
M  V30 10091 H 919.598 1.281 -3.66773 0
M  V30 10092 H 921.27 -1.20811 -4.45199 0
M  V30 10093 H 919.513 -1.20292 -4.16788 0
M  V30 10094 H 920.184 -0.275785 -5.51311 0
M  V30 10095 H 922.66 0.972979 -4.04564 0
M  V30 10096 H 921.536 1.71111 -5.21548 0
M  V30 10097 H 921.797 2.48174 -3.65872 0
M  V30 10098 N 920.856 1.57574 -0.0284266 0
M  V30 10099 C 921.789 2.05684 0.988401 0
M  V30 10100 C 922.767 0.952468 1.31783 0
M  V30 10101 O 923.951 1.22274 1.43462 0
M  V30 10102 C 921.078 2.47832 2.30862 0
M  V30 10103 C 920.124 3.69282 2.13384 0
M  V30 10104 S 920.957 5.15962 1.43331 0
M  V30 10105 C 922.113 5.61404 2.76723 0
M  V30 10106 H 922.346 2.9161 0.578873 0
M  V30 10107 H 919.879 1.53309 0.183244 0
M  V30 10108 H 921.837 2.7278 3.06759 0
M  V30 10109 H 920.498 1.62253 2.68947 0
M  V30 10110 H 919.691 3.96618 3.10983 0
M  V30 10111 H 919.293 3.44482 1.45629 0
M  V30 10112 H 921.585 5.65601 3.72963 0
M  V30 10113 H 922.528 6.60956 2.54053 0
M  V30 10114 H 922.936 4.89051 2.81939 0
M  V30 10115 N 922.334 -0.244713 1.55689 0
M  V30 10116 C 923.611 -0.995407 1.68378 0
M  V30 10117 C 923.991 -2.03288 0.568949 0
M  V30 10118 O 923.339 -2.24469 -0.427299 0
M  V30 10119 C 923.549 -1.62678 3.08767 0
M  V30 10120 C 924.897 -2.1278 3.67437 0
M  V30 10121 O 925.921 -1.72614 3.11581 0
M  V30 10122 O 924.78 -2.86536 4.65359 0
M  V30 10123 H 921.874 -0.463476 0.684923 0
M  V30 10124 H 924.42 -0.238326 1.68018 0
M  V30 10125 H 923.192 -0.876469 3.81358 0
M  V30 10126 H 922.815 -2.45 3.13146 0
M  V30 10127 N 923.813 -1.49104 -0.510467 0
M  V30 10128 C 924.743 -1.67981 -1.62187 0
M  V30 10129 C 925.724 -0.528529 -1.6168 0
M  V30 10130 O 926.909 -0.763305 -1.7857 0
M  V30 10131 C 924.039 -1.73755 -3.0071 0
M  V30 10132 C 922.993 -2.88579 -3.1608 0
M  V30 10133 C 922.319 -2.79457 -4.5586 0
M  V30 10134 C 923.619 -4.29638 -2.97 0
M  V30 10135 H 925.313 -2.61029 -1.46643 0
M  V30 10136 H 922.859 -1.25615 -0.704042 0
M  V30 10137 H 924.812 -1.85548 -3.78352 0
M  V30 10138 H 923.536 -0.772996 -3.17321 0
M  V30 10139 H 922.195 -2.76372 -2.40861 0
M  V30 10140 H 921.843 -1.80929 -4.69333 0
M  V30 10141 H 921.543 -3.56518 -4.67086 0
M  V30 10142 H 923.067 -2.93245 -5.35574 0
M  V30 10143 H 924.481 -4.42575 -3.64418 0
M  V30 10144 H 922.878 -5.07847 -3.19704 0
M  V30 10145 H 923.948 -4.44741 -1.93219 0
M  V30 10146 N 925.291 0.760815 -1.38019 0
M  V30 10147 C 926.201 1.90526 -1.36884 0
M  V30 10148 C 927.217 1.71941 -0.266908 0
M  V30 10149 O 928.393 1.94988 -0.50413 0
M  V30 10150 C 925.458 3.25799 -1.18558 0
M  V30 10151 C 924.519 3.56961 -2.3849 0
M  V30 10152 C 923.752 4.8578 -2.21029 0
M  V30 10153 O 923.975 5.57629 -1.20023 0
M  V30 10154 O 922.909 5.16254 -3.0946 0
M  V30 10155 H 926.735 1.94437 -2.33298 0
M  V30 10156 H 924.32 0.905091 -1.18863 0
M  V30 10157 H 926.202 4.0669 -1.1037 0
M  V30 10158 H 924.877 3.22716 -0.252241 0
M  V30 10159 H 923.784 2.7626 -2.52252 0
M  V30 10160 H 925.117 3.64798 -3.30429 0
M  V30 10161 N 926.769 1.22769 0.988202 0
M  V30 10162 C 928.017 1.05301 1.725 0
M  V30 10163 C 928.338 -0.412103 1.90596 0
M  V30 10164 O 927.608 -1.29606 1.46898 0
M  V30 10165 H 926.188 0.386658 0.639144 0
M  V30 10166 H 928.85 1.54359 1.18993 0
M  V30 10167 H 927.946 1.53465 2.71763 0
M  V30 10168 N 928.247 -1.18576 1.03814 0
M  V30 10169 C 929.472 -1.92978 0.759873 0
M  V30 10170 C 929.897 -1.75514 -0.676486 0
M  V30 10171 O 929.255 -1.06359 -1.46824 0
M  V30 10172 C 929.303 -3.42507 1.12788 0
M  V30 10173 O 928.407 -4.1163 0.251886 0
M  V30 10174 H 927.748 -0.602129 0.279886 0
M  V30 10175 H 930.278 -1.50383 1.3873 0
M  V30 10176 H 930.288 -3.93206 1.08872 0
M  V30 10177 H 928.963 -3.5454 2.17427 0
M  V30 10178 H 927.54 -3.7125 0.350441 0
M  V30 10179 N 929.725 -0.817259 -1.34754 0
M  V30 10180 C 930.673 -0.223352 -2.31525 0
M  V30 10181 C 931.667 0.632785 -1.57137 0
M  V30 10182 O 932.873 0.524757 -1.72181 0
M  V30 10183 H 929.248 -0.0534765 -0.750096 0
M  V30 10184 H 931.219 -1.05446 -2.79148 0
M  V30 10185 C 929.968 0.604784 -3.424 0
M  V30 10186 H 929.291 -0.0446664 -3.99775 0
M  V30 10187 H 930.731 0.986543 -4.12363 0
M  V30 10188 C 929.19 1.77478 -2.86362 0
M  V30 10189 O 929.72 2.87273 -2.8078 0
M  V30 10190 N 927.926 1.58971 -2.43263 0
M  V30 10191 H 927.473 0.696598 -2.48003 0
M  V30 10192 H 927.431 2.37408 -2.06119 0
M  V30 10193 N 931.203 1.46865 -0.571711 0
M  V30 10194 C 932.135 2.28277 0.205479 0
M  V30 10195 C 933.148 1.37866 0.865835 0
M  V30 10196 O 934.337 1.62564 0.737247 0
M  V30 10197 C 931.437 3.12572 1.30965 0
M  V30 10198 C 930.61 4.31038 0.743328 0
M  V30 10199 C 929.669 4.96815 1.73382 0
M  V30 10200 O 928.695 5.54755 1.2742 0
M  V30 10201 N 929.897 4.92825 3.06764 0
M  V30 10202 H 932.662 2.95618 -0.49294 0
M  V30 10203 H 930.223 1.56655 -0.408744 0
M  V30 10204 H 932.215 3.53442 1.97131 0
M  V30 10205 H 930.785 2.47378 1.91109 0
M  V30 10206 H 930.005 3.94084 -0.0955004 0
M  V30 10207 H 931.293 5.07632 0.344556 0
M  V30 10208 H 930.691 4.46978 3.46738 0
M  V30 10209 H 929.248 5.3767 3.68449 0
M  V30 10210 N 932.681 0.308908 1.54543 0
M  V30 10211 C 933.628 -0.563659 2.23811 0
M  V30 10212 C 934.598 -1.12332 1.22355 0
M  V30 10213 O 935.783 -1.16638 1.50997 0
M  V30 10214 C 932.923 -1.72585 2.98845 0
M  V30 10215 C 932.036 -1.19682 4.1509 0
M  V30 10216 C 931.171 -2.32351 4.77688 0
M  V30 10217 C 930.21 -1.76623 5.86064 0
M  V30 10218 N 929.347 -2.82896 6.42584 0
M  V30 10219 H 934.187 0.0336288 2.97981 0
M  V30 10220 H 931.724 0.0283666 1.47073 0
M  V30 10221 H 933.682 -2.40951 3.40586 0
M  V30 10222 H 932.312 -2.29464 2.27037 0
M  V30 10223 H 931.364 -0.405173 3.78236 0
M  V30 10224 H 932.676 -0.748923 4.93146 0
M  V30 10225 H 931.83 -3.0865 5.22322 0
M  V30 10226 H 930.569 -2.80472 3.98982 0
M  V30 10227 H 929.574 -0.988171 5.40847 0
M  V30 10228 H 930.799 -1.29398 6.66658 0
M  V30 10229 H 928.745 -3.30336 5.66758 0
M  V30 10230 H 928.662 -2.42626 7.16009 0
M  V30 10231 H 929.93 -3.59068 6.91875 0
M  V30 10232 N 934.159 -1.57557 0.0367827 0
M  V30 10233 C 935.122 -2.09591 -0.927589 0
M  V30 10234 C 936.122 -1.01252 -1.24919 0
M  V30 10235 O 937.312 -1.27382 -1.18825 0
M  V30 10236 C 934.444 -2.56816 -2.24184 0
M  V30 10237 H 935.637 -2.96086 -0.476784 0
M  V30 10238 H 933.19 -1.54864 -0.211385 0
M  V30 10239 H 933.925 -1.73673 -2.73876 0
M  V30 10240 H 933.71 -3.35973 -2.0215 0
M  V30 10241 H 935.2 -2.97271 -2.93291 0
M  V30 10242 N 935.637 0.236453 -1.55816 0
M  V30 10243 C 936.547 1.31418 -1.94336 0
M  V30 10244 C 937.563 1.52095 -0.845164 0
M  V30 10245 O 938.739 1.65515 -1.14746 0
M  V30 10246 C 935.804 2.6468 -2.23932 0
M  V30 10247 C 934.865 2.52435 -3.47239 0
M  V30 10248 C 934.098 3.79342 -3.75414 0
M  V30 10249 O 934.321 4.81694 -3.05495 0
M  V30 10250 O 933.255 3.77347 -4.68927 0
M  V30 10251 H 937.081 1.01739 -2.86152 0
M  V30 10252 H 934.666 0.438084 -1.42833 0
M  V30 10253 H 936.548 3.4341 -2.44228 0
M  V30 10254 H 935.223 2.94071 -1.35292 0
M  V30 10255 H 934.13 1.71955 -3.32238 0
M  V30 10256 H 935.463 2.27987 -4.36214 0
M  V30 10257 N 937.115 1.49373 0.502552 0
M  V30 10258 C 938.364 1.58028 1.25339 0
M  V30 10259 C 938.677 0.271494 1.93707 0
M  V30 10260 O 939.883 0.236584 2.70467 0
M  V30 10261 C 938.339 2.78817 2.27572 0
M  V30 10262 C 937.947 4.16448 1.65151 0
M  V30 10263 C 939.691 2.96802 3.03494 0
M  V30 10264 C 937.598 5.28461 2.65486 0
M  V30 10265 H 936.528 0.588396 0.471494 0
M  V30 10266 H 939.179 1.75756 0.52744 0
M  V30 10267 H 937.561 2.5458 3.03323 0
M  V30 10268 H 938.735 4.50816 0.954029 0
M  V30 10269 H 937.05 4.03809 1.01625 0
M  V30 10270 H 939.647 3.77656 3.78524 0
M  V30 10271 H 939.99 2.07303 3.61014 0
M  V30 10272 H 940.523 3.21071 2.34858 0
M  V30 10273 H 937.262 6.20015 2.12749 0
M  V30 10274 H 936.782 4.9855 3.33479 0
M  V30 10275 H 938.461 5.5773 3.27943 0
M  V30 10276 N 938.594 -0.753485 1.38421 0
M  V30 10277 C 939.526 -1.87692 1.31547 0
M  V30 10278 C 940.539 -1.612 0.227671 0
M  V30 10279 O 941.728 -1.71778 0.485238 0
M  V30 10280 C 938.828 -3.23329 1.01545 0
M  V30 10281 C 938.001 -3.77324 2.21236 0
M  V30 10282 C 937.06 -4.91478 1.87977 0
M  V30 10283 O 936.086 -5.06106 2.60472 0
M  V30 10284 N 937.288 -5.74466 0.834796 0
M  V30 10285 H 940.053 -1.94099 2.28354 0
M  V30 10286 H 937.614 -0.933421 1.32283 0
M  V30 10287 H 939.606 -3.9724 0.773477 0
M  V30 10288 H 938.176 -3.12307 0.135334 0
M  V30 10289 H 937.396 -2.94978 2.61498 0
M  V30 10290 H 938.684 -4.10131 3.01115 0
M  V30 10291 H 938.082 -5.65217 0.233606 0
M  V30 10292 H 936.639 -6.48524 0.652703 0
M  V30 10293 N 940.072 -1.23292 -0.981677 0
M  V30 10294 C 941.035 -1.01417 -2.05542 0
M  V30 10295 C 942.035 0.0235354 -1.60783 0
M  V30 10296 O 943.225 -0.216082 -1.72855 0
M  V30 10297 C 940.357 -0.534239 -3.36688 0
M  V30 10298 H 941.55 -1.96702 -2.26381 0
M  V30 10299 H 939.103 -1.05318 -1.1549 0
M  V30 10300 H 939.838 0.422452 -3.21537 0
M  V30 10301 H 939.623 -1.28304 -3.70514 0
M  V30 10302 H 941.113 -0.40179 -4.15663 0
M  V30 10303 N 941.55 1.18024 -1.04442 0
M  V30 10304 C 942.48 2.23988 -0.659683 0
M  V30 10305 C 943.461 1.6669 0.338904 0
M  V30 10306 O 944.646 1.92971 0.21817 0
M  V30 10307 C 941.776 3.4729 -0.0257672 0
M  V30 10308 C 940.73 4.17362 -0.948299 0
M  V30 10309 C 940.056 5.34401 -0.17866 0
M  V30 10310 C 941.356 4.70435 -2.26909 0
M  V30 10311 H 943.05 2.56425 -1.54553 0
M  V30 10312 H 940.596 1.23256 -0.744575 0
M  V30 10313 H 942.549 4.20627 0.255131 0
M  V30 10314 H 941.273 3.14098 0.894981 0
M  V30 10315 H 939.932 3.45928 -1.21364 0
M  V30 10316 H 939.58 4.97458 0.744614 0
M  V30 10317 H 939.28 5.8222 -0.793294 0
M  V30 10318 H 940.804 6.10526 0.0951315 0
M  V30 10319 H 942.218 5.35447 -2.04864 0
M  V30 10320 H 940.615 5.28803 -2.83703 0
M  V30 10321 H 941.685 3.87653 -2.91296 0
M  V30 10322 N 943.028 0.824394 1.34319 0
M  V30 10323 C 943.958 0.262077 2.32025 0
M  V30 10324 C 944.939 -0.622277 1.58309 0
M  V30 10325 O 946.124 -0.548848 1.86283 0
M  V30 10326 C 943.254 -0.57567 3.42496 0
M  V30 10327 C 942.208 0.21167 4.27476 0
M  V30 10328 C 941.534 -0.748913 5.29429 0
M  V30 10329 C 942.834 1.42068 5.02607 0
M  V30 10330 H 944.528 1.07842 2.79304 0
M  V30 10331 H 942.074 0.520022 1.34282 0
M  V30 10332 H 944.027 -0.979251 4.09864 0
M  V30 10333 H 942.751 -1.42508 2.93869 0
M  V30 10334 H 941.41 0.596636 3.61712 0
M  V30 10335 H 941.058 -1.59432 4.77064 0
M  V30 10336 H 940.758 -0.226313 5.87164 0
M  V30 10337 H 942.282 -1.15032 5.99667 0
M  V30 10338 H 943.696 1.09103 5.62823 0
M  V30 10339 H 942.093 1.87903 5.69923 0
M  V30 10340 H 943.163 2.1981 4.32217 0
M  V30 10341 N 944.506 -1.46559 0.579492 0
M  V30 10342 C 945.436 -2.33059 -0.143437 0
M  V30 10343 C 946.417 -1.4515 -0.886868 0
M  V30 10344 O 947.602 -1.73973 -0.862961 0
M  V30 10345 C 944.732 -3.27364 -1.15973 0
M  V30 10346 C 943.686 -4.24689 -0.531348 0
M  V30 10347 C 943.012 -5.08479 -1.65388 0
M  V30 10348 C 944.312 -5.1961 0.529391 0
M  V30 10349 H 946.006 -2.93753 0.578762 0
M  V30 10350 H 943.552 -1.41256 0.279775 0
M  V30 10351 H 945.505 -3.86732 -1.67382 0
M  V30 10352 H 944.229 -2.64771 -1.91217 0
M  V30 10353 H 942.888 -3.6658 -0.0383749 0
M  V30 10354 H 942.536 -4.42273 -2.3959 0
M  V30 10355 H 942.236 -5.74387 -1.23909 0
M  V30 10356 H 943.76 -5.70709 -2.17079 0
M  V30 10357 H 945.174 -5.73212 0.100506 0
M  V30 10358 H 943.571 -5.93843 0.86432 0
M  V30 10359 H 944.641 -4.63737 1.4169 0
M  V30 10360 N 945.984 -0.3171 -1.54377 0
M  V30 10361 C 946.947 0.53905 -2.22771 0
M  V30 10362 C 947.947 1.04865 -1.21901 0
M  V30 10363 O 949.137 0.942108 -1.46526 0
M  V30 10364 C 946.269 1.74804 -2.92671 0
M  V30 10365 H 947.462 -0.0587417 -2.99842 0
M  V30 10366 H 945.015 -0.068107 -1.56152 0
M  V30 10367 H 945.75 2.38524 -2.1972 0
M  V30 10368 H 945.535 1.39011 -3.66631 0
M  V30 10369 H 947.025 2.35592 -3.44799 0
M  V30 10370 N 947.462 1.57535 -0.0451378 0
M  V30 10371 C 948.392 2.14208 0.929372 0
M  V30 10372 C 949.373 1.06221 1.32858 0
M  V30 10373 O 950.558 1.34132 1.40436 0
M  V30 10374 C 947.688 2.68217 2.20629 0
M  V30 10375 C 946.642 3.81134 1.94734 0
M  V30 10376 C 945.968 4.21636 3.28828 0
M  V30 10377 C 947.268 5.06531 1.27374 0
M  V30 10378 H 948.962 2.95886 0.457348 0
M  V30 10379 H 946.508 1.42332 0.218544 0
M  V30 10380 H 948.461 3.06502 2.89196 0
M  V30 10381 H 947.185 1.83722 2.70026 0
M  V30 10382 H 945.844 3.43312 1.28579 0
M  V30 10383 H 945.492 3.34099 3.76014 0
M  V30 10384 H 945.192 4.97736 3.12302 0
M  V30 10385 H 946.716 4.62516 3.98637 0
M  V30 10386 H 948.13 5.423 1.85967 0
M  V30 10387 H 946.527 5.87735 1.21194 0
M  V30 10388 H 947.597 4.84261 0.248913 0
M  V30 10389 N 948.94 -0.228186 1.55939 0
M  V30 10390 C 949.887 -1.28274 1.91871 0
M  V30 10391 C 950.857 -1.46906 0.775103 0
M  V30 10392 O 952.042 -1.60583 1.03042 0
M  V30 10393 C 949.182 -2.62945 2.23504 0
M  V30 10394 C 948.295 -2.52166 3.50766 0
M  V30 10395 C 947.43 -3.79316 3.71878 0
M  V30 10396 C 946.469 -3.63231 4.92676 0
M  V30 10397 N 945.606 -4.82315 5.10212 0
M  V30 10398 H 950.446 -0.96931 2.81795 0
M  V30 10399 H 947.983 -0.467331 1.39479 0
M  V30 10400 H 949.941 -3.41359 2.39854 0
M  V30 10401 H 948.571 -2.92397 1.36762 0
M  V30 10402 H 947.623 -1.65221 3.42646 0
M  V30 10403 H 948.935 -2.36199 4.39331 0
M  V30 10404 H 948.089 -4.66173 3.88288 0
M  V30 10405 H 946.828 -3.982 2.81581 0
M  V30 10406 H 945.833 -2.74757 4.76223 0
M  V30 10407 H 947.058 -3.45823 5.84451 0
M  V30 10408 H 945.004 -5.01526 4.22856 0
M  V30 10409 H 944.921 -4.6905 5.92898 0
M  V30 10410 H 946.189 -5.70618 5.31051 0
M  V30 10411 N 950.418 -1.49637 -0.494624 0
M  V30 10412 C 951.381 -1.66252 -1.57775 0
M  V30 10413 C 952.381 -0.534054 -1.51672 0
M  V30 10414 O 953.571 -0.800637 -1.54711 0
M  V30 10415 C 950.703 -1.66584 -2.97426 0
M  V30 10416 H 951.896 -2.62864 -1.4437 0
M  V30 10417 H 949.449 -1.38764 -0.719323 0
M  V30 10418 H 950.184 -0.715798 -3.16302 0
M  V30 10419 H 949.969 -2.48543 -3.03264 0
M  V30 10420 H 951.459 -1.81474 -3.76108 0
M  V30 10421 N 951.896 0.746133 -1.38819 0
M  V30 10422 C 953.144 1.50247 -1.35167 0
M  V30 10423 C 953.465 1.94921 0.0553531 0
M  V30 10424 O 952.735 1.68187 1.00449 0
M  V30 10425 H 951.315 0.557337 -0.497377 0
M  V30 10426 H 953.977 0.886472 -1.73573 0
M  V30 10427 H 953.073 2.38986 -2.00728 0
M  V30 10428 N 953.375 1.23811 0.975125 0
M  V30 10429 C 954.6 1.10109 1.75757 0
M  V30 10430 C 955.025 -0.342922 1.84948 0
M  V30 10431 O 954.383 -1.24814 1.31496 0
M  V30 10432 C 954.431 1.73724 3.15994 0
M  V30 10433 O 953.535 1.00297 4.00018 0
M  V30 10434 H 952.876 0.385627 0.540544 0
M  V30 10435 H 955.406 1.63971 1.22372 0
M  V30 10436 H 955.416 1.79178 3.6655 0
M  V30 10437 H 954.091 2.78794 3.0862 0
M  V30 10438 H 952.668 1.02575 3.58515 0
M  V30 10439 N 954.853 -1.17469 1.05066 0
M  V30 10440 C 955.763 -2.25089 0.661222 0
M  V30 10441 C 956.779 -1.71086 -0.31712 0
M  V30 10442 O 957.955 -2.00685 -0.169534 0
M  V30 10443 C 955.02 -3.46676 0.0406415 0
M  V30 10444 C 954.081 -4.15771 1.06927 0
M  V30 10445 C 953.314 -5.31553 0.478208 0
M  V30 10446 O 953.537 -5.6593 -0.712714 0
M  V30 10447 O 952.471 -5.89574 1.21185 0
M  V30 10448 H 956.297 -2.60685 1.5581 0
M  V30 10449 H 953.882 -1.24744 0.822147 0
M  V30 10450 H 955.764 -4.203 -0.304312 0
M  V30 10451 H 954.439 -3.1288 -0.829909 0
M  V30 10452 H 953.346 -3.44171 1.46619 0
M  V30 10453 H 954.679 -4.53591 1.91092 0
M  V30 10454 N 956.331 -0.831506 -1.3388 0
M  V30 10455 C 957.241 -0.261688 -2.33136 0
M  V30 10456 C 958.257 0.608429 -1.63016 0
M  V30 10457 O 959.433 0.514297 -1.94723 0
M  V30 10458 C 956.498 0.559957 -3.42148 0
M  V30 10459 C 955.559 -0.333569 -4.28002 0
M  V30 10460 C 954.792 0.448956 -5.31808 0
M  V30 10461 O 955.015 1.6814 -5.45055 0
M  V30 10462 O 953.949 -0.173197 -6.01651 0
M  V30 10463 H 957.775 -1.08343 -2.83717 0
M  V30 10464 H 955.36 -0.593849 -1.3709 0
M  V30 10465 H 957.242 1.02712 -4.08691 0
M  V30 10466 H 955.917 1.35888 -2.93796 0
M  V30 10467 H 954.824 -0.848416 -3.64352 0
M  V30 10468 H 956.157 -1.09707 -4.79818 0
M  V30 10469 N 957.809 1.4625 -0.587256 0
M  V30 10470 C 958.742 2.27392 0.191837 0
M  V30 10471 C 959.72 1.35905 0.89267 0
M  V30 10472 O 960.904 1.65319 0.905643 0
M  V30 10473 C 958.031 3.13758 1.27567 0
M  V30 10474 C 957.077 4.21041 0.680186 0
M  V30 10475 S 957.91 5.33194 -0.496419 0
M  V30 10476 C 959.066 6.23127 0.588506 0
M  V30 10477 H 959.299 2.93123 -0.496635 0
M  V30 10478 H 956.832 1.49795 -0.37426 0
M  V30 10479 H 958.79 3.6408 1.8962 0
M  V30 10480 H 957.451 2.47332 1.93612 0
M  V30 10481 H 956.644 4.81316 1.49503 0
M  V30 10482 H 956.246 3.73755 0.135227 0
M  V30 10483 H 958.538 6.61294 1.47298 0
M  V30 10484 H 959.481 7.08096 0.0224093 0
M  V30 10485 H 959.889 5.57365 0.894696 0
M  V30 10486 N 959.287 0.325282 1.54207 0
M  V30 10487 C 960.235 -0.5554 2.25872 0
M  V30 10488 C 961.229 -1.11714 1.27344 0
M  V30 10489 O 962.435 -1.06498 1.45115 0
M  V30 10490 H 958.81 -0.19776 0.725531 0
M  V30 10491 H 960.781 0.0712858 2.98315 0
M  V30 10492 C 959.53 -1.70379 3.03095 0
M  V30 10493 H 958.853 -1.2808 3.78729 0
M  V30 10494 H 960.293 -2.29556 3.56483 0
M  V30 10495 C 958.752 -2.62242 2.11496 0
M  V30 10496 O 959.282 -3.64003 1.69895 0
M  V30 10497 N 957.488 -2.30515 1.7695 0
M  V30 10498 H 957.035 -1.47805 2.10978 0
M  V30 10499 H 956.993 -2.92241 1.15942 0
M  V30 10500 N 960.765 -1.57509 0.0534917 0
M  V30 10501 C 962.014 -1.91959 -0.619244 0
M  V30 10502 C 962.327 -0.933882 -1.71866 0
M  V30 10503 O 963.533 -1.17052 -2.44972 0
M  V30 10504 C 961.989 -3.40938 -1.15278 0
M  V30 10505 C 961.597 -4.47919 -0.085348 0
M  V30 10506 C 963.341 -3.84419 -1.80063 0
M  V30 10507 C 961.248 -5.88014 -0.631897 0
M  V30 10508 H 960.178 -0.71642 -0.235072 0
M  V30 10509 H 962.829 -1.83089 0.122758 0
M  V30 10510 H 961.211 -3.44821 -1.94717 0
M  V30 10511 H 962.385 -4.55629 0.688374 0
M  V30 10512 H 960.7 -4.13793 0.465178 0
M  V30 10513 H 963.297 -4.86457 -2.21954 0
M  V30 10514 H 963.64 -3.20791 -2.65328 0
M  V30 10515 H 964.173 -3.83062 -1.07275 0
M  V30 10516 H 960.912 -6.55244 0.183175 0
M  V30 10517 H 960.432 -5.83861 -1.37355 0
M  V30 10518 H 962.111 -6.37336 -1.11407 0
M  V30 10519 N 962.243 0.219913 -1.56058 0
M  V30 10520 C 963.492 0.942119 -1.78345 0
M  V30 10521 C 963.805 1.85435 -0.622344 0
M  V30 10522 O 965.011 2.61533 -0.728886 0
M  V30 10523 C 963.467 1.72544 -3.15843 0
M  V30 10524 C 963.075 0.859263 -4.39682 0
M  V30 10525 C 964.819 2.43876 -3.47455 0
M  V30 10526 C 962.726 1.64003 -5.68205 0
M  V30 10527 H 961.656 0.355514 -0.664925 0
M  V30 10528 H 964.307 0.195963 -1.82451 0
M  V30 10529 H 962.689 2.51456 -3.05918 0
M  V30 10530 H 963.863 0.110562 -4.60667 0
M  V30 10531 H 962.178 0.257985 -4.156 0
M  V30 10532 H 964.775 3.02794 -4.40704 0
M  V30 10533 H 965.118 3.16843 -2.7003 0
M  V30 10534 H 965.651 1.71952 -3.58716 0
M  V30 10535 H 962.39 0.953606 -6.48526 0
M  V30 10536 H 961.91 2.3633 -5.51279 0
M  V30 10537 H 963.589 2.20028 -6.08438 0
M  V30 10538 N 963.721 1.49897 0.486681 0
M  V30 10539 C 964.949 1.63837 1.26353 0
M  V30 10540 C 965.364 0.315428 1.86146 0
M  V30 10541 O 964.721 -0.700831 1.68507 0
M  V30 10542 C 964.772 2.71792 2.38351 0
M  V30 10543 O 964.493 3.98956 1.81013 0
M  V30 10544 C 965.994 2.96566 3.2949 0
M  V30 10545 H 963.214 0.551158 0.382709 0
M  V30 10546 H 965.758 1.96023 0.582694 0
M  V30 10547 H 963.913 2.42344 3.02238 0
M  V30 10548 H 964.327 4.58536 2.54647 0
M  V30 10549 H 965.801 3.75803 4.04322 0
M  V30 10550 H 966.278 2.07031 3.87343 0
M  V30 10551 H 966.884 3.27485 2.71355 0
M  V30 10552 N 965.199 -0.738761 1.39212 0
M  V30 10553 C 966.476 -1.48982 1.26742 0
M  V30 10554 C 966.856 -2.10732 -0.12466 0
M  V30 10555 O 966.204 -1.98287 -1.13554 0
M  V30 10556 C 966.414 -2.54427 2.38889 0
M  V30 10557 C 967.762 -3.20915 2.78027 0
M  V30 10558 O 968.786 -2.64738 2.38311 0
M  V30 10559 O 967.645 -4.22558 3.46565 0
M  V30 10560 H 964.739 -0.661395 0.496473 0
M  V30 10561 H 967.285 -0.772907 1.51077 0
M  V30 10562 H 966.057 -2.07151 3.3197 0
M  V30 10563 H 965.68 -3.33682 2.162 0
M  V30 10564 N 966.677 -1.24326 -0.968545 0
M  V30 10565 C 967.902 -1.1104 -1.75171 0
M  V30 10566 C 968.327 0.333109 -1.85127 0
M  V30 10567 O 967.685 1.24115 -1.32156 0
M  V30 10568 C 967.733 -1.75397 -3.15068 0
M  V30 10569 O 966.837 -1.02417 -3.9948 0
M  V30 10570 H 966.178 -0.388488 -0.538491 0
M  V30 10571 H 968.708 -1.64617 -1.215 0
M  V30 10572 H 968.718 -1.8112 -3.65595 0
M  V30 10573 H 967.393 -2.80427 -3.07138 0
M  V30 10574 H 965.97 -1.04475 -3.57966 0
M  V30 10575 N 968.156 1.1691 -1.05688 0
M  V30 10576 C 969.088 2.20648 -0.620237 0
M  V30 10577 C 970.101 1.59652 0.318604 0
M  V30 10578 O 971.29 1.78157 0.110553 0
M  V30 10579 C 968.39 3.38716 0.111729 0
M  V30 10580 C 967.563 4.29277 -0.839062 0
M  V30 10581 C 966.622 5.25993 -0.147453 0
M  V30 10582 O 965.648 5.63787 -0.783151 0
M  V30 10583 N 966.85 5.69725 1.11327 0
M  V30 10584 H 969.615 2.58731 -1.51256 0
M  V30 10585 H 967.176 1.31858 -0.939412 0
M  V30 10586 H 969.168 4.00455 0.584657 0
M  V30 10587 H 967.738 2.99189 0.905784 0
M  V30 10588 H 966.958 3.64894 -1.4915 0
M  V30 10589 H 968.246 4.86669 -1.48428 0
M  V30 10590 H 967.644 5.41103 1.64999 0
M  V30 10591 H 966.201 6.33584 1.53018 0
M  V30 10592 N 969.634 0.838594 1.33437 0
M  V30 10593 C 970.864 0.446995 2.01707 0
M  V30 10594 C 971.272 -0.956335 1.63251 0
M  V30 10595 O 970.615 -1.63289 0.841566 0
M  V30 10596 C 970.677 0.487707 3.56176 0
M  V30 10597 C 970.341 1.8471 4.18009 0
M  V30 10598 C 971.338 2.81028 4.374 0
M  V30 10599 C 969.023 2.13987 4.54439 0
M  V30 10600 C 971.017 4.04785 4.92369 0
M  V30 10601 C 968.704 3.38 5.09116 0
M  V30 10602 C 969.702 4.33216 5.28027 0
M  V30 10603 O 969.39 5.55036 5.81541 0
M  V30 10604 H 969.122 0.175799 0.652741 0
M  V30 10605 H 971.676 1.13265 1.71348 0
M  V30 10606 H 969.906 -0.254719 3.8586 0
M  V30 10607 H 971.595 0.113971 4.0574 0
M  V30 10608 H 972.361 2.5971 4.09604 0
M  V30 10609 H 968.24 1.40668 4.39014 0
M  V30 10610 H 971.784 4.79114 5.07046 0
M  V30 10611 H 967.681 3.59175 5.36343 0
M  V30 10612 H 968.449 5.56772 5.99956 0
M  V30 10613 N 971.112 -1.45937 0.595003 0
M  V30 10614 C 972.358 -2.0262 0.0854317 0
M  V30 10615 C 972.691 -1.46402 -1.27594 0
M  V30 10616 O 971.966 -0.633823 -1.83883 0
M  V30 10617 C 972.249 -3.60085 0.0329075 0
M  V30 10618 C 972.102 -4.26663 1.42405 0
M  V30 10619 C 973.421 -4.35101 -0.661426 0
M  V30 10620 H 970.54 -0.736282 0.0325196 0
M  V30 10621 H 973.182 -1.73938 0.764563 0
M  V30 10622 H 971.332 -3.84652 -0.545439 0
M  V30 10623 H 973.004 -4.13321 2.04851 0
M  V30 10624 H 971.247 -3.85549 1.98833 0
M  V30 10625 H 971.918 -5.35497 1.33965 0
M  V30 10626 H 974.394 -4.15753 -0.169977 0
M  V30 10627 H 973.27 -5.44829 -0.667243 0
M  V30 10628 H 973.531 -4.07053 -1.72513 0
M  V30 10629 N 972.59 -0.333456 -1.54032 0
M  V30 10630 C 973.839 0.267081 -1.99924 0
M  V30 10631 C 974.152 1.52463 -1.22534 0
M  V30 10632 O 975.358 2.20178 -1.58852 0
M  V30 10633 C 973.814 0.526456 -3.56029 0
M  V30 10634 C 973.422 -0.714607 -4.42264 0
M  V30 10635 C 975.166 1.0864 -4.10363 0
M  V30 10636 C 973.073 -0.42659 -5.89859 0
M  V30 10637 H 972.003 0.103577 -0.746852 0
M  V30 10638 H 974.654 -0.447218 -1.77967 0
M  V30 10639 H 973.036 1.3012 -3.74012 0
M  V30 10640 H 974.21 -1.48968 -4.36056 0
M  V30 10641 H 972.525 -1.19547 -3.9887 0
M  V30 10642 H 975.122 1.31668 -5.18235 0
M  V30 10643 H 975.465 2.03884 -3.62956 0
M  V30 10644 H 975.998 0.37261 -3.96051 0
M  V30 10645 H 972.737 -1.34847 -6.4148 0
M  V30 10646 H 972.257 0.310588 -5.98995 0
M  V30 10647 H 973.936 -0.0400807 -6.46988 0
M  V30 10648 N 974.068 1.57479 -0.061844 0
M  V30 10649 C 975.016 2.13346 0.926629 0
M  V30 10650 C 976.01 1.06787 1.31502 0
M  V30 10651 O 977.216 1.25181 1.29343 0
M  V30 10652 H 973.591 0.682046 0.316729 0
M  V30 10653 H 975.562 2.95279 0.430424 0
M  V30 10654 C 974.311 2.70198 2.18834 0
M  V30 10655 H 973.634 3.51859 1.89829 0
M  V30 10656 H 975.074 3.12897 2.86132 0
M  V30 10657 C 973.533 1.64481 2.9402 0
M  V30 10658 O 974.063 1.0639 3.87355 0
M  V30 10659 N 972.269 1.35749 2.56944 0
M  V30 10660 H 971.816 1.83177 1.81119 0
M  V30 10661 H 971.774 0.652469 3.07555 0
M  V30 10662 N 975.546 -0.211634 1.56173 0
M  V30 10663 C 976.795 -0.932647 1.78842 0
M  V30 10664 C 977.108 -1.85103 0.63217 0
M  V30 10665 O 978.314 -2.61143 0.742746 0
M  V30 10666 C 976.77 -1.70866 3.16753 0
M  V30 10667 C 976.378 -0.835934 4.40132 0
M  V30 10668 C 978.122 -2.4203 3.48743 0
M  V30 10669 C 976.029 -1.60987 5.69067 0
M  V30 10670 H 974.959 -0.351983 0.666801 0
M  V30 10671 H 977.61 -0.186284 1.82552 0
M  V30 10672 H 975.992 -2.4983 3.07247 0
M  V30 10673 H 977.166 -0.0861298 4.60719 0
M  V30 10674 H 975.481 -0.235941 4.15731 0
M  V30 10675 H 978.078 -3.00453 4.42303 0
M  V30 10676 H 978.421 -3.15406 2.71707 0
M  V30 10677 H 978.954 -1.70048 3.59623 0
M  V30 10678 H 975.693 -0.9192 6.49023 0
M  V30 10679 H 975.213 -2.33403 5.52524 0
M  V30 10680 H 976.892 -2.16798 6.09596 0
M  V30 10681 N 977.024 -1.50153 -0.478725 0
M  V30 10682 C 978.273 -1.60002 -1.22809 0
M  V30 10683 C 978.586 -0.302277 -1.9325 0
M  V30 10684 O 979.792 -0.279583 -2.70057 0
M  V30 10685 C 978.248 -2.82402 -2.23108 0
M  V30 10686 C 977.856 -4.19023 -1.58505 0
M  V30 10687 C 979.6 -3.01593 -2.98734 0
M  V30 10688 C 977.507 -5.32618 -2.57045 0
M  V30 10689 H 976.437 -0.595822 -0.462073 0
M  V30 10690 H 979.088 -1.76573 -0.499412 0
M  V30 10691 H 977.47 -2.59373 -2.99235 0
M  V30 10692 H 978.644 -4.52277 -0.882187 0
M  V30 10693 H 976.959 -4.05374 -0.951877 0
M  V30 10694 H 979.556 -3.8363 -3.72468 0
M  V30 10695 H 979.899 -2.1302 -3.57671 0
M  V30 10696 H 980.432 -3.24766 -2.29721 0
M  V30 10697 H 977.171 -6.23321 -2.02858 0
M  V30 10698 H 976.691 -5.03792 -3.25505 0
M  V30 10699 H 978.37 -5.62877 -3.19028 0
M  V30 10700 N 978.502 0.731368 -1.39602 0
M  V30 10701 C 979.432 1.85855 -1.41351 0
M  V30 10702 C 980.413 1.67839 -0.2764 0
M  V30 10703 O 981.598 1.88104 -0.482747 0
M  V30 10704 C 978.728 3.23644 -1.25983 0
M  V30 10705 C 977.682 3.56304 -2.37132 0
M  V30 10706 C 977.008 4.93069 -2.0685 0
M  V30 10707 C 978.308 3.58906 -3.79452 0
M  V30 10708 H 980.002 1.84648 -2.3568 0
M  V30 10709 H 977.548 0.886955 -1.13442 0
M  V30 10710 H 979.501 4.02176 -1.25826 0
M  V30 10711 H 978.225 3.25387 -0.281234 0
M  V30 10712 H 976.884 2.80104 -2.36511 0
M  V30 10713 H 976.532 4.91396 -1.0742 0
M  V30 10714 H 976.232 5.15888 -2.81306 0
M  V30 10715 H 977.756 5.73953 -2.0835 0
M  V30 10716 H 979.17 4.27508 -3.81982 0
M  V30 10717 H 977.567 3.93246 -4.53297 0
M  V30 10718 H 978.637 2.58631 -4.10168 0
M  V30 10719 N 979.98 1.24838 0.961938 0
M  V30 10720 C 980.912 1.00369 2.06055 0
M  V30 10721 C 981.925 -0.0288583 1.62774 0
M  V30 10722 O 983.114 0.208853 1.77274 0
M  V30 10723 C 980.214 0.493953 3.35281 0
M  V30 10724 C 979.387 1.59097 4.07439 0
M  V30 10725 C 978.446 1.08288 5.14937 0
M  V30 10726 O 977.472 1.77577 5.40791 0
M  V30 10727 N 978.674 -0.0796836 5.80445 0
M  V30 10728 H 981.439 1.94962 2.27618 0
M  V30 10729 H 979 1.15945 1.12997 0
M  V30 10730 H 980.992 0.138675 4.04462 0
M  V30 10731 H 979.562 -0.357851 3.10545 0
M  V30 10732 H 978.782 2.11817 3.32456 0
M  V30 10733 H 980.07 2.32817 4.52409 0
M  V30 10734 H 979.468 -0.658827 5.6185 0
M  V30 10735 H 978.025 -0.376057 6.50714 0
M  V30 10736 N 981.458 -1.16348 1.06306 0
M  V30 10737 C 982.39 -2.20316 0.631929 0
M  V30 10738 C 983.403 -1.59819 -0.310133 0
M  V30 10739 O 984.592 -1.78213 -0.101103 0
M  V30 10740 C 981.692 -3.3877 -0.0937645 0
M  V30 10741 C 980.865 -4.28826 0.861816 0
M  V30 10742 C 979.924 -5.25908 0.175346 0
M  V30 10743 O 978.95 -5.63363 0.813039 0
M  V30 10744 N 980.152 -5.70307 -1.08305 0
M  V30 10745 H 982.917 -2.57925 1.52626 0
M  V30 10746 H 980.478 -1.31358 0.946392 0
M  V30 10747 H 982.47 -4.00759 -0.563412 0
M  V30 10748 H 981.04 -2.99666 -0.889904 0
M  V30 10749 H 980.26 -3.64098 1.51083 0
M  V30 10750 H 981.548 -4.85875 1.51007 0
M  V30 10751 H 980.946 -5.4197 -1.62127 0
M  V30 10752 H 979.503 -6.34387 -1.49656 0
M  V30 10753 N 982.937 -0.845659 -1.3299 0
M  V30 10754 C 984.348 -0.50048 -1.79867 0
M  V30 10755 C 984.699 0.981027 -1.69913 0
M  V30 10756 O 983.824 1.76477 -1.25239 0
M  V30 10757 C 984.419 -0.901679 -3.26581 0
M  V30 10758 C 982.978 -0.608536 -3.71448 0
M  V30 10759 C 982.125 -1.10632 -2.54275 0
M  V30 10760 H 985.076 -1.03372 -1.20416 0
M  V30 10761 H 985.097 -0.214433 -3.79895 0
M  V30 10762 H 984.609 -1.97998 -3.33794 0
M  V30 10763 H 982.71 0.459416 -3.69757 0
M  V30 10764 H 982.823 -1.16853 -4.64631 0
M  V30 10765 H 981.187 -0.526925 -2.4919 0
M  V30 10766 H 981.97 -2.19154 -2.64247 0
M  V30 10767 N 984.415 1.45619 -0.602734 0
M  V30 10768 C 985.692 1.9558 -0.0282472 0
M  V30 10769 C 986.072 1.54523 1.43826 0
M  V30 10770 O 985.42 0.805456 2.13833 0
M  V30 10771 C 985.63 3.48298 -0.221263 0
M  V30 10772 C 986.978 4.24483 -0.0995249 0
M  V30 10773 O 988.002 3.55879 -0.151132 0
M  V30 10774 O 986.861 5.46497 0.0194454 0
M  V30 10775 H 983.955 0.826104 0.0384897 0
M  V30 10776 H 986.501 1.55808 -0.672456 0
M  V30 10777 H 985.273 3.71134 -1.23997 0
M  V30 10778 H 984.896 3.94948 0.458437 0
M  V30 10779 N 985.893 0.34162 1.53853 0
M  V30 10780 C 986.826 -0.559051 2.21246 0
M  V30 10781 C 987.804 -1.10179 1.1958 0
M  V30 10782 O 988.988 -1.16242 1.48392 0
M  V30 10783 C 986.115 -1.7689 2.88838 0
M  V30 10784 C 985.161 -1.3558 4.04377 0
M  V30 10785 S 985.994 -0.377225 5.3417 0
M  V30 10786 C 987.15 -1.59395 6.05264 0
M  V30 10787 H 987.383 0.013373 2.97297 0
M  V30 10788 H 984.916 0.125694 1.53888 0
M  V30 10789 H 986.874 -2.463 3.284 0
M  V30 10790 H 985.535 -2.31254 2.12557 0
M  V30 10791 H 984.728 -2.25781 4.50599 0
M  V30 10792 H 984.33 -0.741197 3.66582 0
M  V30 10793 H 986.622 -2.52872 6.2854 0
M  V30 10794 H 987.565 -1.17356 6.98307 0
M  V30 10795 H 987.973 -1.78913 5.35397 0
M  V30 10796 N 987.371 -1.57444 0.0701946 0
M  V30 10797 C 988.304 -2.08232 -0.93352 0
M  V30 10798 C 989.282 -0.987073 -1.29212 0
M  V30 10799 O 990.466 -1.26035 -1.40169 0
M  V30 10800 C 987.593 -2.53866 -2.2421 0
M  V30 10801 C 986.639 -3.7481 -2.03518 0
M  V30 10802 S 987.472 -5.1958 -1.29601 0
M  V30 10803 C 988.628 -5.68544 -2.61742 0
M  V30 10804 H 988.861 -2.93042 -0.501354 0
M  V30 10805 H 986.394 -1.53741 -0.142533 0
M  V30 10806 H 988.352 -2.80818 -2.99419 0
M  V30 10807 H 987.013 -1.69327 -2.64551 0
M  V30 10808 H 986.206 -4.04724 -3.00358 0
M  V30 10809 H 985.808 -3.48222 -1.36445 0
M  V30 10810 H 988.1 -5.75291 -3.57836 0
M  V30 10811 H 989.043 -6.67459 -2.3644 0
M  V30 10812 H 989.451 -4.96354 -2.68873 0
M  V30 10813 N 988.849 0.203349 -1.56283 0
M  V30 10814 C 989.759 1.27266 -1.9708 0
M  V30 10815 C 990.775 1.50268 -0.877236 0
M  V30 10816 O 991.951 1.63044 -1.18231 0
M  V30 10817 C 989.016 2.59871 -2.29495 0
M  V30 10818 C 988.077 2.45012 -3.52516 0
M  V30 10819 C 987.31 3.71293 -3.83376 0
M  V30 10820 O 987.533 4.75106 -3.15643 0
M  V30 10821 O 986.467 3.67316 -4.76826 0
M  V30 10822 H 990.293 0.956461 -2.88246 0
M  V30 10823 H 987.878 0.407688 -1.4373 0
M  V30 10824 H 989.76 3.38152 -2.51458 0
M  V30 10825 H 988.435 2.91135 -1.415 0
M  V30 10826 H 987.342 1.6487 -3.35811 0
M  V30 10827 H 988.675 2.18683 -4.40952 0
M  V30 10828 N 990.327 1.50405 0.470755 0
M  V30 10829 C 991.575 1.61092 1.2204 0
M  V30 10830 C 991.896 0.313487 1.92464 0
M  V30 10831 O 991.166 -0.669043 1.84121 0
M  V30 10832 H 989.746 0.593618 0.45346 0
M  V30 10833 H 992.408 1.87184 0.542985 0
M  V30 10834 H 991.504 2.42222 1.96812 0
M  V30 10835 N 991.805 -0.723954 1.39988 0
M  V30 10836 C 993.054 -1.47922 1.3712 0
M  V30 10837 C 993.367 -1.95582 -0.0263665 0
M  V30 10838 O 994.573 -2.70918 -0.177652 0
M  V30 10839 C 993.029 -2.67342 2.40949 0
M  V30 10840 C 992.637 -2.26586 3.86475 0
M  V30 10841 C 994.381 -3.45116 2.47174 0
M  V30 10842 C 992.288 -3.42794 4.81919 0
M  V30 10843 H 991.218 -0.555522 0.509815 0
M  V30 10844 H 993.869 -0.788692 1.65686 0
M  V30 10845 H 992.251 -3.38524 2.0547 0
M  V30 10846 H 993.425 -1.62878 4.31054 0
M  V30 10847 H 991.74 -1.61876 3.83647 0
M  V30 10848 H 994.337 -4.31573 3.15672 0
M  V30 10849 H 994.68 -3.8835 1.49966 0
M  V30 10850 H 995.213 -2.80971 2.81602 0
M  V30 10851 H 991.952 -3.046 5.8043 0
M  V30 10852 H 991.472 -4.05445 4.42012 0
M  V30 10853 H 993.151 -4.08977 5.01345 0
M  V30 10854 N 993.283 -1.25346 -0.955304 0
M  V30 10855 C 994.529 -1.11226 -1.70295 0
M  V30 10856 C 994.884 0.343362 -1.89311 0
M  V30 10857 O 994.177 1.24953 -1.45249 0
M  V30 10858 C 994.371 -1.7993 -3.08804 0
M  V30 10859 C 994.2 -3.32023 -3.033 0
M  V30 10860 C 992.97 -4.01274 -3.07094 0
M  V30 10861 C 995.168 -4.28431 -2.84519 0
M  V30 10862 N 993.15 -5.40149 -2.91741 0
M  V30 10863 C 994.521 -5.54386 -2.7759 0
M  V30 10864 C 996.576 -4.18854 -2.69194 0
M  V30 10865 C 995.279 -6.71859 -2.56902 0
M  V30 10866 C 997.305 -5.36018 -2.49876 0
M  V30 10867 C 996.667 -6.60913 -2.43667 0
M  V30 10868 H 992.766 -0.461707 -0.631151 0
M  V30 10869 H 995.35 -1.58437 -1.13162 0
M  V30 10870 H 993.521 -1.35214 -3.64104 0
M  V30 10871 H 995.253 -1.58557 -3.72346 0
M  V30 10872 H 992.008 -3.52529 -3.1626 0
M  V30 10873 H 992.432 -6.13029 -2.8727 0
M  V30 10874 H 997.074 -3.23043 -2.7277 0
M  V30 10875 H 994.792 -7.67781 -2.52068 0
M  V30 10876 H 998.378 -5.30468 -2.38944 0
M  V30 10877 H 997.258 -7.50045 -2.28914 0
M  V30 10878 N 994.761 1.15782 -1.06922 0
M  V30 10879 C 995.693 2.19978 -0.643604 0
M  V30 10880 C 996.706 1.59981 0.301653 0
M  V30 10881 O 997.895 1.78265 0.0916508 0
M  V30 10882 C 994.995 3.38815 0.0757973 0
M  V30 10883 C 994.168 4.28363 -0.884545 0
M  V30 10884 C 993.227 5.25807 -0.203233 0
M  V30 10885 O 992.253 5.62924 -0.842904 0
M  V30 10886 N 993.455 5.70874 1.05279 0
M  V30 10887 H 996.22 2.57112 -1.53992 0
M  V30 10888 H 993.781 1.30855 -0.953344 0
M  V30 10889 H 995.773 4.01052 0.542151 0
M  V30 10890 H 994.343 3.00133 0.874 0
M  V30 10891 H 993.563 3.63292 -1.53012 0
M  V30 10892 H 994.851 4.85067 -1.53581 0
M  V30 10893 H 994.249 5.42822 1.5925 0
M  V30 10894 H 992.806 6.35171 1.46289 0
M  V30 10895 N 996.239 0.8527 1.3254 0
M  V30 10896 C 997.149 0.298744 2.3269 0
M  V30 10897 C 998.165 -0.582418 1.63963 0
M  V30 10898 O 999.341 -0.483253 1.95516 0
M  V30 10899 C 996.406 -0.505453 3.42996 0
M  V30 10900 C 995.467 0.401618 4.27417 0
M  V30 10901 C 994.7 -0.364294 5.32455 0
M  V30 10902 O 994.923 -1.59448 5.47661 0
M  V30 10903 O 993.857 0.268892 6.01299 0
M  V30 10904 H 997.683 1.12843 2.81958 0
M  V30 10905 H 995.268 0.615584 1.36128 0
M  V30 10906 H 997.15 -0.961974 4.10273 0
M  V30 10907 H 995.825 -1.31197 2.95921 0
M  V30 10908 H 994.732 0.906274 3.62957 0
M  V30 10909 H 996.065 1.17327 4.78012 0
M  V30 10910 N 997.718 -1.45297 0.610449 0
M  V30 10911 C 998.964 -2.02518 0.106917 0
M  V30 10912 C 999.297 -1.47747 -1.26034 0
M  V30 10913 O 998.572 -0.65329 -1.832 0
M  V30 10914 C 998.855 -3.6003 0.0710975 0
M  V30 10915 C 998.708 -4.25128 1.46922 0
M  V30 10916 C 1000.03 -4.35778 -0.61524 0
M  V30 10917 H 997.146 -0.735896 0.040327 0
M  V30 10918 H 999.788 -1.73117 0.782968 0
M  V30 10919 H 997.938 -3.85209 -0.504611 0
M  V30 10920 H 999.61 -4.11125 2.09223 0
M  V30 10921 H 997.853 -3.83418 2.02911 0
M  V30 10922 H 998.524 -5.34046 1.39637 0
M  V30 10923 H 1001 -4.1591 -0.125871 0
M  V30 10924 H 999.876 -5.45506 -0.609419 0
M  V30 10925 H 1000.14 -4.08859 -1.68186 0
M  V30 10926 N 999.196 -0.349774 -1.5367 0
M  V30 10927 C 1000.13 0.496338 -2.28164 0
M  V30 10928 C 1001.11 1.09737 -1.29968 0
M  V30 10929 O 1002.29 1.11759 -1.58819 0
M  V30 10930 C 999.422 1.64428 -3.0591 0
M  V30 10931 C 998.376 1.17127 -4.11661 0
M  V30 10932 C 997.702 2.40822 -4.77398 0
M  V30 10933 C 999.002 0.267293 -5.21616 0
M  V30 10934 H 1000.7 -0.125117 -2.99138 0
M  V30 10935 H 998.242 -0.0616152 -1.43868 0
M  V30 10936 H 1000.19 2.2427 -3.56765 0
M  V30 10937 H 998.919 2.29272 -2.32598 0
M  V30 10938 H 997.578 0.595634 -3.61729 0
M  V30 10939 H 997.226 3.04088 -4.00674 0
M  V30 10940 H 996.926 2.09852 -5.48849 0
M  V30 10941 H 998.45 3.01378 -5.3104 0
M  V30 10942 H 999.864 0.772734 -5.68068 0
M  V30 10943 H 998.261 0.0491991 -6.0008 0
M  V30 10944 H 999.331 -0.694892 -4.79895 0
M  V30 10945 N 1000.67 1.57404 -0.0785433 0
M  V30 10946 C 1001.58 2.16612 0.900902 0
M  V30 10947 C 1002.6 1.13109 1.32221 0
M  V30 10948 O 1003.78 1.45406 1.39352 0
M  V30 10949 C 1000.84 2.7215 2.14791 0
M  V30 10950 C 999.902 3.90551 1.78237 0
M  V30 10951 C 999.135 4.43431 2.96993 0
M  V30 10952 O 999.358 3.95292 4.11218 0
M  V30 10953 O 998.292 5.34674 2.76418 0
M  V30 10954 H 1002.12 3.0068 0.427227 0
M  V30 10955 H 999.703 1.48696 0.144902 0
M  V30 10956 H 1001.58 3.07718 2.87902 0
M  V30 10957 H 1000.26 1.91139 2.61243 0
M  V30 10958 H 999.167 3.59825 1.02357 0
M  V30 10959 H 1000.5 4.72876 1.36562 0
M  V30 10960 N 1002.15 -0.195058 1.56388 0
M  V30 10961 C 1003.06 -1.26219 1.97752 0
M  V30 10962 C 1004.08 -1.49801 0.885192 0
M  V30 10963 O 1005.25 -1.62415 1.19094 0
M  V30 10964 C 1002.32 -2.5865 2.3087 0
M  V30 10965 C 1001.38 -2.4314 3.5381 0
M  V30 10966 C 1000.61 -3.69255 3.85339 0
M  V30 10967 O 1000.84 -4.73425 3.18159 0
M  V30 10968 O 999.77 -3.64782 4.78767 0
M  V30 10969 H 1003.6 -0.941161 2.88749 0
M  V30 10970 H 1001.18 -0.40006 1.43944 0
M  V30 10971 H 1003.06 -3.36814 2.53247 0
M  V30 10972 H 1001.74 -2.9038 1.43042 0
M  V30 10973 H 1000.64 -1.63086 3.3668 0
M  V30 10974 H 1001.98 -2.16341 4.42105 0
M  V30 10975 N 1003.63 -1.50653 -0.462772 0
M  V30 10976 C 1004.56 -1.73056 -1.5676 0
M  V30 10977 C 1005.54 -0.579699 -1.59917 0
M  V30 10978 O 1006.73 -0.819729 -1.76051 0
M  V30 10979 C 1003.86 -1.83234 -2.9503 0
M  V30 10980 C 1002.81 -2.98488 -3.06739 0
M  V30 10981 C 1002.14 -2.93818 -4.46738 0
M  V30 10982 C 1003.44 -4.38869 -2.83181 0
M  V30 10983 H 1005.13 -2.65562 -1.38265 0
M  V30 10984 H 1002.68 -1.27792 -0.663722 0
M  V30 10985 H 1004.63 -1.97491 -3.72257 0
M  V30 10986 H 1003.35 -0.873558 -3.14701 0
M  V30 10987 H 1002.01 -2.83895 -2.31946 0
M  V30 10988 H 1001.66 -1.95769 -4.63339 0
M  V30 10989 H 1001.36 -3.71197 -4.55507 0
M  V30 10990 H 1002.88 -3.10135 -5.25974 0
M  V30 10991 H 1004.3 -4.53945 -3.50153 0
M  V30 10992 H 1002.69 -5.17762 -3.03386 0
M  V30 10993 H 1003.76 -4.50663 -1.78972 0
M  V30 10994 N 1005.11 0.71652 -1.4037 0
M  V30 10995 C 1006.02 1.86074 -1.42876 0
M  V30 10996 C 1007.03 1.71005 -0.321475 0
M  V30 10997 O 1008.21 1.93286 -0.565909 0
M  V30 10998 C 1005.28 3.21862 -1.28863 0
M  V30 10999 C 1004.34 3.49193 -2.49726 0
M  V30 11000 C 1003.57 4.78502 -2.36372 0
M  V30 11001 O 1003.79 5.53529 -1.37703 0
M  V30 11002 O 1002.73 5.06147 -3.25728 0
M  V30 11003 H 1006.55 1.86916 -2.39366 0
M  V30 11004 H 1004.14 0.866818 -1.21683 0
M  V30 11005 H 1006.02 4.02972 -1.23253 0
M  V30 11006 H 1004.69 3.2175 -0.354783 0
M  V30 11007 H 1003.6 2.68095 -2.60913 0
M  V30 11008 H 1004.93 3.54101 -3.41868 0
M  V30 11009 N 1006.59 1.25851 0.948643 0
M  V30 11010 C 1007.53 1.06759 2.04625 0
M  V30 11011 C 1008.5 -0.0251144 1.66081 0
M  V30 11012 O 1009.69 0.133221 1.90334 0
M  V30 11013 C 1006.83 0.698724 3.37952 0
M  V30 11014 C 1005.94 1.8669 3.89578 0
M  V30 11015 C 1005.08 1.44184 5.11258 0
M  V30 11016 C 1004.12 2.57878 5.55126 0
M  V30 11017 N 1003.25 2.16106 6.68014 0
M  V30 11018 H 1008.09 2.00691 2.20289 0
M  V30 11019 H 1005.63 0.999327 1.07944 0
M  V30 11020 H 1007.59 0.465788 4.14592 0
M  V30 11021 H 1006.22 -0.203618 3.22157 0
M  V30 11022 H 1005.27 2.21298 3.09405 0
M  V30 11023 H 1006.58 2.72051 4.18079 0
M  V30 11024 H 1005.74 1.16891 5.95333 0
M  V30 11025 H 1004.47 0.559035 4.84485 0
M  V30 11026 H 1003.48 2.85909 4.69612 0
M  V30 11027 H 1004.7 3.46747 5.83904 0
M  V30 11028 H 1002.65 1.3025 6.42939 0
M  V30 11029 H 1002.57 2.95012 6.96063 0
M  V30 11030 H 1003.84 1.92005 7.55483 0
M  V30 11031 N 1008.06 -1.15214 1.07534 0
M  V30 11032 C 1009.01 -2.20013 0.697337 0
M  V30 11033 C 1009.98 -1.6314 -0.312168 0
M  V30 11034 O 1011.17 -1.89768 -0.198196 0
M  V30 11035 C 1008.31 -3.44945 0.103293 0
M  V30 11036 C 1007.42 -4.16009 1.1645 0
M  V30 11037 C 1006.55 -5.28496 0.535261 0
M  V30 11038 C 1005.59 -5.9138 1.57912 0
M  V30 11039 N 1004.73 -6.95335 0.972332 0
M  V30 11040 H 1009.57 -2.51698 1.59538 0
M  V30 11041 H 1007.11 -1.2361 0.797431 0
M  V30 11042 H 1009.07 -4.16397 -0.258766 0
M  V30 11043 H 1007.7 -3.13772 -0.758096 0
M  V30 11044 H 1006.75 -3.43035 1.64411 0
M  V30 11045 H 1008.06 -4.58853 1.9559 0
M  V30 11046 H 1007.21 -6.06579 0.120942 0
M  V30 11047 H 1005.95 -4.8685 -0.287889 0
M  V30 11048 H 1004.96 -5.12008 2.0032 0
M  V30 11049 H 1006.18 -6.35103 2.40459 0
M  V30 11050 H 1004.13 -6.55779 0.170119 0
M  V30 11051 H 1004.05 -7.36616 1.70095 0
M  V30 11052 H 1005.31 -7.77312 0.583577 0
M  V30 11053 N 1009.54 -0.859717 -1.32086 0
M  V30 11054 C 1010.77 -0.479724 -2.01262 0
M  V30 11055 C 1011.19 0.924985 -1.64589 0
M  V30 11056 O 1010.54 1.60439 -0.869803 0
M  V30 11057 C 1010.59 -0.615128 -3.56228 0
M  V30 11058 O 1010.31 -1.96451 -3.91585 0
M  V30 11059 C 1011.82 -0.234804 -4.42678 0
M  V30 11060 H 1009.04 -0.188007 -0.644123 0
M  V30 11061 H 1011.58 -1.15805 -1.68551 0
M  V30 11062 H 1009.73 0.0155268 -3.87397 0
M  V30 11063 H 1010.15 -1.96491 -4.86304 0
M  V30 11064 H 1011.62 -0.380534 -5.50687 0
M  V30 11065 H 1012.1 0.825189 -4.31378 0
M  V30 11066 H 1012.71 -0.840739 -4.16907 0
M  V30 11067 N 1011.02 1.44971 -0.618145 0
M  V30 11068 C 1011.98 2.29044 0.0846739 0
M  V30 11069 C 1012.98 1.40341 0.784921 0
M  V30 11070 O 1014.17 1.62351 0.631479 0
M  V30 11071 C 1011.31 3.21617 1.13027 0
M  V30 11072 H 1012.5 2.92668 -0.654612 0
M  V30 11073 H 1010.05 1.51668 -0.377672 0
M  V30 11074 H 1010.79 2.62815 1.89997 0
M  V30 11075 H 1010.57 3.86969 0.63224 0
M  V30 11076 H 1012.06 3.84805 1.62218 0
M  V30 11077 N 1012.5 0.357919 1.53482 0
M  V30 11078 C 1013.75 -0.235241 2.00324 0
M  V30 11079 C 1014.06 -1.50494 1.24944 0
M  V30 11080 O 1015.27 -2.17623 1.62335 0
M  V30 11081 C 1013.72 -0.469748 3.56821 0
M  V30 11082 C 1013.33 0.784877 4.41071 0
M  V30 11083 C 1015.07 -1.02098 4.12039 0
M  V30 11084 C 1012.98 0.520377 5.89106 0
M  V30 11085 H 1011.91 -0.0916816 0.748405 0
M  V30 11086 H 1014.56 0.475474 1.77233 0
M  V30 11087 H 1012.94 -1.24153 3.76035 0
M  V30 11088 H 1014.12 1.55886 4.33631 0
M  V30 11089 H 1012.43 1.25878 3.96918 0
M  V30 11090 H 1015.03 -1.23406 5.20264 0
M  V30 11091 H 1015.37 -1.98084 3.66154 0
M  V30 11092 H 1015.91 -0.309554 3.96594 0
M  V30 11093 H 1012.65 1.45035 6.39254 0
M  V30 11094 H 1012.17 -0.215254 5.99414 0
M  V30 11095 H 1013.84 0.143006 6.46842 0
M  V30 11096 N 1013.98 -1.5736 0.0868897 0
M  V30 11097 C 1015.22 -1.94054 -0.578741 0
M  V30 11098 C 1015.55 -0.968047 -1.68698 0
M  V30 11099 O 1014.81 0.0137824 -1.95695 0
M  V30 11100 C 1015.11 -3.37316 -1.18123 0
M  V30 11101 C 1014.77 -4.50467 -0.197607 0
M  V30 11102 C 1013.43 -4.81145 0.072952 0
M  V30 11103 C 1015.79 -5.19036 0.474473 0
M  V30 11104 C 1013.11 -5.77723 1.02242 0
M  V30 11105 C 1015.47 -6.16632 1.41236 0
M  V30 11106 C 1014.13 -6.45719 1.69124 0
M  V30 11107 H 1013.4 -0.710093 -0.211776 0
M  V30 11108 H 1016.05 -1.90822 0.160978 0
M  V30 11109 H 1014.35 -3.37085 -1.99701 0
M  V30 11110 H 1016.05 -3.63003 -1.7038 0
M  V30 11111 H 1012.64 -4.2655 -0.418669 0
M  V30 11112 H 1016.82 -4.95518 0.278581 0
M  V30 11113 H 1012.08 -5.98578 1.24557 0
M  V30 11114 H 1016.25 -6.68862 1.939 0
M  V30 11115 H 1013.88 -7.20365 2.42855 0
M  V30 11116 N 1015.45 0.186762 -1.56489 0
M  V30 11117 C 1016.7 0.904077 -1.80303 0
M  V30 11118 C 1017.02 1.84073 -0.661538 0
M  V30 11119 O 1018.22 2.59928 -0.784197 0
M  V30 11120 C 1016.68 1.65806 -3.19432 0
M  V30 11121 C 1016.29 0.765807 -4.41406 0
M  V30 11122 C 1018.03 2.36451 -3.52549 0
M  V30 11123 C 1015.94 1.51913 -5.71556 0
M  V30 11124 H 1014.87 0.34133 -0.672317 0
M  V30 11125 H 1017.52 0.157218 -1.82825 0
M  V30 11126 H 1015.9 2.44911 -3.11183 0
M  V30 11127 H 1017.07 0.0128225 -4.60798 0
M  V30 11128 H 1015.39 0.169772 -4.16054 0
M  V30 11129 H 1017.99 2.93378 -4.47027 0
M  V30 11130 H 1018.33 3.11044 -2.7669 0
M  V30 11131 H 1018.86 1.64305 -3.62283 0
M  V30 11132 H 1015.6 0.815829 -6.50403 0
M  V30 11133 H 1015.12 2.24583 -5.56168 0
M  V30 11134 H 1016.8 2.07073 -6.12968 0
M  V30 11135 N 1016.93 1.50896 0.454776 0
M  V30 11136 C 1018.21 1.53227 1.21576 0
M  V30 11137 C 1018.59 0.286358 2.09149 0
M  V30 11138 O 1017.94 -0.729469 2.16543 0
M  V30 11139 C 1018.15 2.83693 2.03271 0
M  V30 11140 C 1019.5 3.34981 2.60908 0
M  V30 11141 O 1020.52 2.85126 2.13499 0
M  V30 11142 O 1019.38 4.21929 3.4733 0
M  V30 11143 H 1016.47 0.615306 0.552564 0
M  V30 11144 H 1019.02 1.63197 0.465266 0
M  V30 11145 H 1017.79 3.65839 1.38843 0
M  V30 11146 H 1017.41 2.76803 2.85422 0
M  V30 11147 N 1018.41 -0.709066 1.40748 0
M  V30 11148 C 1019.66 -1.46993 1.40587 0
M  V30 11149 C 1020.01 -1.92397 0.00986301 0
M  V30 11150 O 1019.3 -1.65712 -0.961772 0
M  V30 11151 C 1019.5 -2.70543 2.33541 0
M  V30 11152 C 1019.33 -2.37222 3.82041 0
M  V30 11153 C 1018.1 -2.28244 4.50813 0
M  V30 11154 C 1020.3 -2.01069 4.73367 0
M  V30 11155 N 1018.28 -1.87667 5.84512 0
M  V30 11156 C 1019.65 -1.71144 5.95911 0
M  V30 11157 C 1021.7 -1.87761 4.6114 0
M  V30 11158 C 1020.41 -1.2925 7.07592 0
M  V30 11159 C 1022.43 -1.47271 5.7277 0
M  V30 11160 C 1021.79 -1.18249 6.94404 0
M  V30 11161 H 1017.89 -0.535708 0.569685 0
M  V30 11162 H 1020.48 -0.821669 1.76513 0
M  V30 11163 H 1018.65 -3.33109 1.99733 0
M  V30 11164 H 1020.38 -3.36927 2.24192 0
M  V30 11165 H 1017.14 -2.46199 4.04578 0
M  V30 11166 H 1017.56 -1.69899 6.55335 0
M  V30 11167 H 1022.2 -2.08858 3.67611 0
M  V30 11168 H 1019.92 -1.06896 8.00999 0
M  V30 11169 H 1023.51 -1.37544 5.65308 0
M  V30 11170 H 1022.39 -0.873897 7.79316 0
M  V30 11171 N 1019.89 -1.26353 -0.941956 0
M  V30 11172 C 1021.14 -1.12017 -1.69056 0
M  V30 11173 C 1021.47 0.335856 -1.91274 0
M  V30 11174 O 1020.74 1.24677 -1.49285 0
M  V30 11175 C 1021.03 -1.88889 -3.06583 0
M  V30 11176 C 1020.88 -3.42394 -2.91696 0
M  V30 11177 C 1022.2 -1.68209 -4.06686 0
M  V30 11178 H 1019.32 -0.408311 -0.613556 0
M  V30 11179 H 1021.96 -1.55339 -1.09407 0
M  V30 11180 H 1020.11 -1.5207 -3.57501 0
M  V30 11181 H 1021.78 -3.88962 -2.48005 0
M  V30 11182 H 1020.02 -3.69459 -2.27338 0
M  V30 11183 H 1020.7 -3.91408 -3.89235 0
M  V30 11184 H 1023.17 -2.00286 -3.64726 0
M  V30 11185 H 1022.05 -2.24412 -5.00929 0
M  V30 11186 H 1022.31 -0.626474 -4.37639 0
M  V30 11187 N 1021.37 1.14642 -1.08144 0
M  V30 11188 C 1022.78 1.6719 -0.830923 0
M  V30 11189 C 1023.13 1.85373 0.642749 0
M  V30 11190 O 1022.25 1.56293 1.49671 0
M  V30 11191 C 1022.85 3.03697 -1.50179 0
M  V30 11192 C 1021.41 3.5329 -1.29858 0
M  V30 11193 C 1020.56 2.28828 -1.5663 0
M  V30 11194 H 1023.51 0.987441 -1.24239 0
M  V30 11195 H 1023.53 3.69023 -0.9275 0
M  V30 11196 H 1023.04 2.90431 -2.57432 0
M  V30 11197 H 1021.14 3.71783 -0.246626 0
M  V30 11198 H 1021.25 4.34231 -2.02436 0
M  V30 11199 H 1019.62 2.34769 -0.987716 0
M  V30 11200 H 1020.4 2.18141 -2.65084 0
M  V30 11201 N 1022.85 0.866709 1.31628 0
M  V30 11202 C 1024.09 0.475086 1.96437 0
M  V30 11203 C 1024.41 -0.975179 1.68865 0
M  V30 11204 O 1023.68 -1.68317 1.0023 0
M  V30 11205 H 1022.26 0.172695 0.726764 0
M  V30 11206 H 1024.93 1.10578 1.60494 0
M  V30 11207 H 1024.02 0.630123 3.05673 0
M  V30 11208 N 1024.32 -1.44642 0.625825 0
M  V30 11209 C 1025.27 -2.27762 -0.104042 0
M  V30 11210 C 1026.26 -1.38364 -0.821232 0
M  V30 11211 O 1027.45 -1.62214 -0.708213 0
M  V30 11212 C 1024.58 -3.25585 -1.08853 0
M  V30 11213 C 1023.66 -4.22472 -0.371241 0
M  V30 11214 N 1024.06 -5.02262 0.597226 0
M  V30 11215 C 1022.35 -4.4172 -0.616392 0
M  V30 11216 C 1023.05 -5.72678 1.02053 0
M  V30 11217 N 1022.03 -5.42404 0.360423 0
M  V30 11218 H 1025.83 -2.86858 0.639517 0
M  V30 11219 H 1023.35 -1.56015 0.450911 0
M  V30 11220 H 1025.34 -3.83885 -1.62597 0
M  V30 11221 H 1024 -2.68051 -1.83245 0
M  V30 11222 H 1025.01 -5.08643 0.974803 0
M  V30 11223 H 1021.69 -3.9529 -1.34359 0
M  V30 11224 H 1023.08 -6.46772 1.82033 0
M  V30 11225 N 1025.8 -0.366053 -1.5329 0
M  V30 11226 C 1026.75 0.480205 -2.25749 0
M  V30 11227 C 1027.72 1.07713 -1.2644 0
M  V30 11228 O 1028.9 1.10953 -1.55222 0
M  V30 11229 C 1026.04 1.61374 -3.05045 0
M  V30 11230 C 1025.16 1.04194 -4.19246 0
M  V30 11231 C 1024.29 2.14462 -4.85983 0
M  V30 11232 C 1023.33 1.5475 -5.92215 0
M  V30 11233 N 1022.47 2.58852 -6.52641 0
M  V30 11234 H 1027.31 -0.144199 -2.97651 0
M  V30 11235 H 1024.84 -0.0829321 -1.46866 0
M  V30 11236 H 1026.8 2.28144 -3.49294 0
M  V30 11237 H 1025.43 2.2088 -2.35397 0
M  V30 11238 H 1024.48 0.264514 -3.79479 0
M  V30 11239 H 1025.8 0.565379 -4.95585 0
M  V30 11240 H 1024.95 2.89051 -5.33418 0
M  V30 11241 H 1023.69 2.6547 -4.09117 0
M  V30 11242 H 1022.69 0.786759 -5.44142 0
M  V30 11243 H 1023.92 1.04566 -6.71001 0
M  V30 11244 H 1021.87 3.09073 -5.78627 0
M  V30 11245 H 1021.78 2.15884 -7.24521 0
M  V30 11246 H 1023.05 3.33142 -7.04724 0
M  V30 11247 N 1027.28 1.57312 -0.0952337 0
M  V30 11248 C 1028.53 1.93974 0.567319 0
M  V30 11249 C 1028.85 0.977805 1.68713 0
M  V30 11250 O 1028.12 0.0298944 1.95877 0
M  V30 11251 H 1026.7 0.71612 0.212558 0
M  V30 11252 H 1029.36 1.94254 -0.158598 0
M  V30 11253 H 1028.46 2.964 0.977423 0
M  V30 11254 N 1028.76 -0.17846 1.56586 0
M  V30 11255 C 1030.01 -0.894502 1.8078 0
M  V30 11256 C 1030.32 -1.8372 0.67129 0
M  V30 11257 O 1031.53 -2.59509 0.797971 0
M  V30 11258 C 1029.98 -1.64109 3.20306 0
M  V30 11259 C 1029.59 -0.742387 4.41806 0
M  V30 11260 C 1031.33 -2.34578 3.53798 0
M  V30 11261 C 1029.24 -1.4888 5.72354 0
M  V30 11262 H 1028.17 -0.33776 0.674117 0
M  V30 11263 H 1030.82 -0.14752 1.82906 0
M  V30 11264 H 1029.2 -2.43257 3.12477 0
M  V30 11265 H 1030.38 0.011615 4.60799 0
M  V30 11266 H 1028.69 -0.147705 4.16138 0
M  V30 11267 H 1031.29 -2.91004 4.48577 0
M  V30 11268 H 1031.63 -3.09572 2.78336 0
M  V30 11269 H 1032.17 -1.62381 3.63149 0
M  V30 11270 H 1028.9 -0.781325 6.50827 0
M  V30 11271 H 1028.42 -2.21631 5.57351 0
M  V30 11272 H 1030.1 -2.03819 6.14058 0
M  V30 11273 N 1030.24 -1.51135 -0.446768 0
M  V30 11274 C 1031.65 -1.55919 -1.02694 0
M  V30 11275 C 1032 -0.377038 -1.92543 0
M  V30 11276 O 1031.12 0.507295 -2.1037 0
M  V30 11277 C 1031.72 -2.8257 -1.86922 0
M  V30 11278 C 1030.28 -2.89956 -2.40005 0
M  V30 11279 C 1029.42 -2.50482 -1.18971 0
M  V30 11280 H 1032.37 -1.57048 -0.228403 0
M  V30 11281 H 1032.4 -2.65799 -2.7227 0
M  V30 11282 H 1031.91 -3.6859 -1.21502 0
M  V30 11283 H 1030.01 -2.08343 -3.08907 0
M  V30 11284 H 1030.12 -3.93399 -2.73448 0
M  V30 11285 H 1028.49 -2.03466 -1.53211 0
M  V30 11286 H 1029.27 -3.38837 -0.551762 0
M  V30 11287 N 1031.71 0.701592 -1.41122 0
M  V30 11288 C 1032.96 1.45871 -1.39879 0
M  V30 11289 C 1033.28 1.94999 -0.00668769 0
M  V30 11290 O 1032.55 1.71298 0.95047 0
M  V30 11291 H 1031.13 0.541231 -0.514857 0
M  V30 11292 H 1033.79 0.830803 -1.76306 0
M  V30 11293 H 1032.89 2.32479 -2.0823 0
M  V30 11294 N 1033.19 1.2685 0.935242 0
M  V30 11295 C 1034.14 1.08746 2.05614 0
M  V30 11296 C 1035.13 0.012681 1.69395 0
M  V30 11297 O 1036.34 0.169822 1.79197 0
M  V30 11298 H 1032.71 0.33485 0.673335 0
M  V30 11299 H 1034.69 2.03725 2.18033 0
M  V30 11300 C 1033.43 0.74346 3.39659 0
M  V30 11301 H 1032.76 1.56236 3.68008 0
M  V30 11302 H 1034.2 0.656607 4.18885 0
M  V30 11303 C 1032.66 -0.551751 3.32351 0
M  V30 11304 O 1033.19 -1.58836 3.68963 0
M  V30 11305 N 1031.39 -0.544583 2.85452 0
M  V30 11306 H 1030.94 0.29939 2.55854 0
M  V30 11307 H 1030.9 -1.41129 2.80945 0
M  V30 11308 N 1034.67 -1.14067 1.0875 0
M  V30 11309 C 1035.58 -2.22871 0.732498 0
M  V30 11310 C 1036.6 -1.72008 -0.26253 0
M  V30 11311 O 1037.77 -2.01123 -0.105601 0
M  V30 11312 C 1034.84 -3.46371 0.150913 0
M  V30 11313 C 1033.9 -4.12158 1.201 0
M  V30 11314 C 1033.13 -5.29763 0.647075 0
M  V30 11315 O 1033.35 -5.67911 -0.532307 0
M  V30 11316 O 1032.29 -5.8542 1.3988 0
M  V30 11317 H 1036.11 -2.55596 1.64025 0
M  V30 11318 H 1033.7 -1.22065 0.861417 0
M  V30 11319 H 1035.58 -4.21055 -0.170442 0
M  V30 11320 H 1034.26 -3.15362 -0.729948 0
M  V30 11321 H 1033.16 -3.39332 1.57494 0
M  V30 11322 H 1034.5 -4.47282 2.05426 0
M  V30 11323 N 1036.15 -0.873678 -1.31166 0
M  V30 11324 C 1037.06 -0.335726 -2.32185 0
M  V30 11325 C 1038.07 0.556259 -1.64869 0
M  V30 11326 O 1039.25 0.452087 -1.9626 0
M  V30 11327 C 1036.32 0.450822 -3.43756 0
M  V30 11328 C 1035.38 -0.469565 -4.26724 0
M  V30 11329 C 1034.61 0.279538 -5.32967 0
M  V30 11330 O 1034.83 1.50715 -5.50128 0
M  V30 11331 O 1033.77 -0.36452 -6.00795 0
M  V30 11332 H 1037.59 -1.17314 -2.80127 0
M  V30 11333 H 1035.18 -0.637163 -1.35132 0
M  V30 11334 H 1037.06 0.896582 -4.11752 0
M  V30 11335 H 1035.73 1.26472 -2.9797 0
M  V30 11336 H 1034.64 -0.963902 -3.61469 0
M  V30 11337 H 1035.97 -1.24916 -4.76085 0
M  V30 11338 N 1037.63 1.44308 -0.633487 0
M  V30 11339 C 1038.87 2.02322 -0.139123 0
M  V30 11340 C 1039.21 1.49733 1.23667 0
M  V30 11341 O 1038.48 0.682353 1.82138 0
M  V30 11342 C 1038.76 3.59871 -0.128366 0
M  V30 11343 C 1038.62 4.22737 -1.53667 0
M  V30 11344 C 1039.94 4.36702 0.545834 0
M  V30 11345 H 1037.05 0.735161 -0.0520293 0
M  V30 11346 H 1039.7 1.7185 -0.810411 0
M  V30 11347 H 1037.85 3.85963 0.443263 0
M  V30 11348 H 1039.52 4.07744 -2.15737 0
M  V30 11349 H 1037.76 3.80142 -2.08985 0
M  V30 11350 H 1038.43 5.31757 -1.48116 0
M  V30 11351 H 1040.91 4.16057 0.0596879 0
M  V30 11352 H 1039.78 5.46407 0.522557 0
M  V30 11353 H 1040.05 4.11483 1.6166 0
M  V30 11354 N 1039.1 0.374177 1.53094 0
M  V30 11355 C 1040.38 -0.269632 1.93733 0
M  V30 11356 C 1040.76 -1.6566 1.30843 0
M  V30 11357 O 1040.11 -2.23598 0.470759 0
M  V30 11358 C 1040.32 -0.311204 3.4761 0
M  V30 11359 C 1041.67 -0.547432 4.21056 0
M  V30 11360 O 1042.69 -0.392053 3.54036 0
M  V30 11361 O 1041.55 -0.850645 5.39839 0
M  V30 11362 H 1038.64 -0.163723 0.810632 0
M  V30 11363 H 1041.19 0.427586 1.64225 0
M  V30 11364 H 1039.96 0.660897 3.85678 0
M  V30 11365 H 1039.59 -1.05397 3.83376 0
M  V30 11366 N 1040.58 -1.57259 0.103575 0
M  V30 11367 C 1041.53 -2.14487 -0.852295 0
M  V30 11368 C 1042.5 -1.06567 -1.27407 0
M  V30 11369 O 1043.68 -1.34398 -1.35432 0
M  V30 11370 C 1040.82 -2.73632 -2.10284 0
M  V30 11371 C 1039.94 -3.95811 -1.73083 0
M  V30 11372 C 1039.07 -4.43093 -2.92988 0
M  V30 11373 C 1038.11 -5.5784 -2.51953 0
M  V30 11374 N 1037.25 -5.99936 -3.64721 0
M  V30 11375 H 1042.09 -2.95849 -0.35743 0
M  V30 11376 H 1039.63 -1.46175 -0.164748 0
M  V30 11377 H 1041.58 -3.06046 -2.83534 0
M  V30 11378 H 1040.21 -1.94985 -2.57256 0
M  V30 11379 H 1039.27 -3.69656 -0.897688 0
M  V30 11380 H 1040.58 -4.79066 -1.38916 0
M  V30 11381 H 1039.73 -4.77335 -3.74481 0
M  V30 11382 H 1038.47 -3.58756 -3.30372 0
M  V30 11383 H 1037.48 -5.23217 -1.6889 0
M  V30 11384 H 1038.7 -6.43932 -2.15705 0
M  V30 11385 H 1036.65 -5.18543 -4.01807 0
M  V30 11386 H 1036.56 -6.78008 -3.34427 0
M  V30 11387 H 1037.83 -6.38812 -4.46699 0
M  V30 11388 N 1042.06 0.170153 -1.56679 0
M  V30 11389 C 1042.99 1.21285 -1.9953 0
M  V30 11390 C 1043.97 1.46104 -0.871071 0
M  V30 11391 O 1045.16 1.57419 -1.13724 0
M  V30 11392 C 1042.29 2.5515 -2.35618 0
M  V30 11393 C 1041.24 2.44898 -3.51011 0
M  V30 11394 C 1040.57 3.83263 -3.72845 0
M  V30 11395 C 1041.87 1.95271 -4.84424 0
M  V30 11396 H 1043.56 0.856646 -2.86883 0
M  V30 11397 H 1041.11 0.410634 -1.38021 0
M  V30 11398 H 1043.06 3.28299 -2.64193 0
M  V30 11399 H 1041.78 2.92561 -1.45175 0
M  V30 11400 H 1040.44 1.74203 -3.22566 0
M  V30 11401 H 1040.09 4.18069 -2.79691 0
M  V30 11402 H 1039.79 3.77272 -4.50488 0
M  V30 11403 H 1041.31 4.57996 -4.03822 0
M  V30 11404 H 1042.73 2.58195 -5.11867 0
M  V30 11405 H 1041.13 2.00225 -5.65712 0
M  V30 11406 H 1042.2 0.90709 -4.7634 0
M  V30 11407 N 1043.54 1.5137 0.438746 0
M  V30 11408 C 1044.78 1.65627 1.19779 0
M  V30 11409 C 1045.14 0.363885 1.8852 0
M  V30 11410 O 1046.34 0.382215 2.66069 0
M  V30 11411 C 1044.61 2.82536 2.18879 0
M  V30 11412 S 1046.17 3.17113 3.0329 0
M  V30 11413 H 1042.99 0.583535 0.406212 0
M  V30 11414 H 1045.59 1.89271 0.489582 0
M  V30 11415 H 1044.3 3.74879 1.67015 0
M  V30 11416 H 1043.83 2.61077 2.94283 0
M  V30 11417 H 1045.84 2.63439 4.20493 0
M  V30 11418 N 1045.02 -0.694098 1.41492 0
M  V30 11419 C 1045.95 -1.81943 1.39389 0
M  V30 11420 C 1046.96 -1.6009 0.295836 0
M  V30 11421 O 1048.15 -1.69565 0.557658 0
M  V30 11422 C 1045.25 -3.18731 1.15167 0
M  V30 11423 C 1044.42 -3.67601 2.37041 0
M  V30 11424 C 1043.48 -4.83063 2.08654 0
M  V30 11425 O 1042.51 -4.94603 2.81704 0
M  V30 11426 N 1043.71 -5.70409 1.0777 0
M  V30 11427 H 1046.48 -1.84239 2.36381 0
M  V30 11428 H 1044.04 -0.876475 1.36123 0
M  V30 11429 H 1046.03 -3.93602 0.941264 0
M  V30 11430 H 1044.6 -3.11452 0.267673 0
M  V30 11431 H 1043.82 -2.83622 2.73774 0
M  V30 11432 H 1045.11 -3.96991 3.18239 0
M  V30 11433 H 1044.5 -5.63718 0.473123 0
M  V30 11434 H 1043.06 -6.45172 0.927177 0
M  V30 11435 N 1046.49 -1.27344 -0.928501 0
M  V30 11436 C 1047.72 -1.16447 -1.7102 0
M  V30 11437 C 1048.14 0.278799 -1.8673 0
M  V30 11438 O 1047.49 1.18989 -1.38376 0
M  V30 11439 C 1047.55 -1.84242 -3.11026 0
M  V30 11440 O 1047.27 -3.2293 -2.96054 0
M  V30 11441 C 1048.77 -1.7946 -4.05351 0
M  V30 11442 H 1045.99 -0.404898 -0.535069 0
M  V30 11443 H 1048.53 -1.68201 -1.16313 0
M  V30 11444 H 1046.69 -1.36395 -3.62595 0
M  V30 11445 H 1047.1 -3.5667 -3.8456 0
M  V30 11446 H 1048.57 -2.31511 -5.01105 0
M  V30 11447 H 1049.05 -0.763771 -4.32508 0
M  V30 11448 H 1049.66 -2.26918 -3.59706 0
M  V30 11449 N 1047.97 1.13488 -1.09353 0
M  V30 11450 C 1048.91 2.17951 -0.67622 0
M  V30 11451 C 1049.88 1.59482 0.316906 0
M  V30 11452 O 1051.07 1.8723 0.218459 0
M  V30 11453 C 1048.19 3.387 0.00391024 0
M  V30 11454 C 1047.24 4.15764 -0.950906 0
M  V30 11455 S 1048.07 4.75517 -2.46259 0
M  V30 11456 C 1049.23 5.99613 -1.79485 0
M  V30 11457 H 1049.46 2.53012 -1.56115 0
M  V30 11458 H 1047 1.24773 -0.909447 0
M  V30 11459 H 1048.95 4.08643 0.39002 0
M  V30 11460 H 1047.61 3.01941 0.86548 0
M  V30 11461 H 1046.81 5.02229 -0.422086 0
M  V30 11462 H 1046.41 3.51473 -1.27838 0
M  V30 11463 H 1048.7 6.68204 -1.11846 0
M  V30 11464 H 1049.64 6.57102 -2.63862 0
M  V30 11465 H 1050.05 5.50165 -1.26409 0
M  V30 11466 N 1049.45 0.880621 1.30701 0
M  V30 11467 C 1050.38 0.288813 2.26365 0
M  V30 11468 C 1051.36 -0.588135 1.51591 0
M  V30 11469 O 1052.55 -0.539197 1.80624 0
M  V30 11470 C 1049.67 -0.590032 3.33521 0
M  V30 11471 C 1048.72 0.217003 4.25948 0
M  V30 11472 S 1049.55 1.60246 5.10961 0
M  V30 11473 C 1050.71 0.730023 6.21628 0
M  V30 11474 H 1050.94 1.09971 2.76213 0
M  V30 11475 H 1048.47 0.67978 1.3863 0
M  V30 11476 H 1050.43 -1.09136 3.95727 0
M  V30 11477 H 1049.09 -1.37498 2.82406 0
M  V30 11478 H 1048.29 -0.453481 5.01956 0
M  V30 11479 H 1047.89 0.650803 3.68294 0
M  V30 11480 H 1050.18 -0.0548644 6.77478 0
M  V30 11481 H 1051.12 1.46157 6.92852 0
M  V30 11482 H 1051.53 0.292854 5.6374 0
M  V30 11483 N 1050.93 -1.4397 0.641131 0
M  V30 11484 C 1052.18 -2.01163 0.147026 0
M  V30 11485 C 1052.49 -1.51099 -1.24211 0
M  V30 11486 O 1053.7 -2.00487 -1.83078 0
M  V30 11487 C 1052.15 -3.59275 0.212068 0
M  V30 11488 C 1051.76 -4.18334 1.60314 0
M  V30 11489 C 1053.51 -4.23903 -0.225057 0
M  V30 11490 C 1051.41 -5.68701 1.62276 0
M  V30 11491 H 1050.34 -0.75226 0.051201 0
M  V30 11492 H 1052.99 -1.65075 0.801396 0
M  V30 11493 H 1051.38 -3.92708 -0.509589 0
M  V30 11494 H 1052.55 -3.96422 2.34918 0
M  V30 11495 H 1050.86 -3.66031 1.9852 0
M  V30 11496 H 1053.46 -5.34205 -0.230074 0
M  V30 11497 H 1053.8 -3.96956 -1.25426 0
M  V30 11498 H 1054.34 -3.95309 0.44444 0
M  V30 11499 H 1051.08 -6.00397 2.63066 0
M  V30 11500 H 1050.6 -5.92705 0.919797 0
M  V30 11501 H 1052.28 -6.32521 1.36112 0
M  V30 11502 N 1052.41 -0.382291 -1.52893 0
M  V30 11503 C 1053.66 0.203342 -2.00672 0
M  V30 11504 C 1053.97 1.48487 -1.27322 0
M  V30 11505 O 1055.18 2.15013 -1.65776 0
M  V30 11506 C 1053.63 0.412922 -3.57523 0
M  V30 11507 C 1053.24 -0.854949 -4.39767 0
M  V30 11508 C 1054.98 0.955301 -4.13611 0
M  V30 11509 C 1052.89 -0.614033 -5.88204 0
M  V30 11510 H 1051.82 0.0797635 -0.749769 0
M  V30 11511 H 1054.47 -0.50361 -1.76454 0
M  V30 11512 H 1052.85 1.18155 -3.77962 0
M  V30 11513 H 1054.03 -1.62765 -4.31096 0
M  V30 11514 H 1052.34 -1.32176 -3.94865 0
M  V30 11515 H 1054.94 1.15114 -5.22162 0
M  V30 11516 H 1055.28 1.92233 -3.69259 0
M  V30 11517 H 1055.82 0.24642 -3.97036 0
M  V30 11518 H 1052.55 -1.55187 -6.36865 0
M  V30 11519 H 1052.07 0.119865 -5.9968 0
M  V30 11520 H 1053.75 -0.245895 -6.46533 0
M  V30 11521 N 1053.89 1.57202 -0.111913 0
M  V30 11522 C 1054.8 2.18475 0.854753 0
M  V30 11523 C 1055.81 1.15888 1.29792 0
M  V30 11524 O 1056.99 1.48329 1.36237 0
M  V30 11525 C 1054.05 2.76645 2.0897 0
M  V30 11526 C 1053.11 3.94244 1.69913 0
M  V30 11527 C 1052.35 4.49631 2.8752 0
M  V30 11528 O 1052.57 4.03926 4.02741 0
M  V30 11529 O 1051.5 5.40417 2.65015 0
M  V30 11530 H 1055.33 3.01519 0.363352 0
M  V30 11531 H 1052.91 1.4897 0.113329 0
M  V30 11532 H 1054.8 3.13755 2.81311 0
M  V30 11533 H 1053.47 1.96637 2.5713 0
M  V30 11534 H 1052.38 3.61915 0.947013 0
M  V30 11535 H 1053.71 4.75666 1.26501 0
M  V30 11536 N 1055.36 -0.161842 1.56767 0
M  V30 11537 C 1056.61 -0.875192 1.82167 0
M  V30 11538 C 1056.93 -1.82367 0.690444 0
M  V30 11539 O 1056.2 -1.93756 -0.289023 0
M  V30 11540 H 1054.78 -0.326178 0.672024 0
M  V30 11541 H 1057.44 -0.159392 1.94247 0
M  V30 11542 H 1056.54 -1.44639 2.76561 0
M  V30 11543 N 1056.84 -1.516 -0.430713 0
M  V30 11544 C 1058.12 -1.55142 -1.19123 0
M  V30 11545 C 1058.5 -0.319596 -2.08667 0
M  V30 11546 O 1057.85 0.694927 -2.17676 0
M  V30 11547 C 1058.06 -2.86891 -1.98732 0
M  V30 11548 C 1059.4 -3.39089 -2.55546 0
M  V30 11549 O 1060.43 -2.88486 -2.08936 0
M  V30 11550 O 1059.29 -4.27401 -3.40574 0
M  V30 11551 H 1056.38 -0.624019 -0.542705 0
M  V30 11552 H 1058.93 -1.63917 -0.439244 0
M  V30 11553 H 1057.7 -3.68002 -1.33005 0
M  V30 11554 H 1057.32 -2.81309 -2.80982 0
M  V30 11555 N 1058.32 0.686584 -1.41858 0
M  V30 11556 C 1059.57 1.44379 -1.41418 0
M  V30 11557 C 1059.89 1.94981 -0.0273696 0
M  V30 11558 O 1059.16 1.72296 0.932248 0
M  V30 11559 H 1057.74 0.53574 -0.520568 0
M  V30 11560 H 1060.4 0.812056 -1.77177 0
M  V30 11561 H 1059.5 2.30258 -2.10684 0
M  V30 11562 N 1059.8 1.27835 0.921735 0
M  V30 11563 C 1061.05 1.13904 1.6646 0
M  V30 11564 C 1061.36 -0.313379 1.93073 0
M  V30 11565 O 1062.57 -0.573687 2.6537 0
M  V30 11566 C 1061.02 1.99064 2.99836 0
M  V30 11567 C 1060.63 3.48998 2.80899 0
M  V30 11568 C 1062.37 1.93797 3.77681 0
M  V30 11569 C 1060.28 4.26337 4.09867 0
M  V30 11570 H 1059.21 0.422681 0.624385 0
M  V30 11571 H 1061.86 1.52303 1.02352 0
M  V30 11572 H 1060.24 1.53514 3.65034 0
M  V30 11573 H 1061.42 4.02452 2.24431 0
M  V30 11574 H 1059.73 3.55707 2.16476 0
M  V30 11575 H 1062.33 2.48852 4.73262 0
M  V30 11576 H 1062.67 0.912928 4.06167 0
M  V30 11577 H 1063.21 2.37275 3.19289 0
M  V30 11578 H 1059.94 5.2939 3.86557 0
M  V30 11579 H 1059.46 3.77659 4.65976 0
M  V30 11580 H 1061.14 4.3583 4.78185 0
M  V30 11581 N 1061.28 -1.12907 1.09954 0
M  V30 11582 C 1062.21 -2.20585 0.765799 0
M  V30 11583 C 1063.19 -1.68117 -0.258989 0
M  V30 11584 O 1064.37 -1.93792 -0.125853 0
M  V30 11585 C 1061.5 -3.46772 0.191435 0
M  V30 11586 C 1060.46 -4.12363 1.14635 0
M  V30 11587 C 1059.78 -5.3294 0.433426 0
M  V30 11588 C 1061.08 -4.59073 2.49096 0
M  V30 11589 H 1062.78 -2.48759 1.66612 0
M  V30 11590 H 1060.32 -1.19563 0.802534 0
M  V30 11591 H 1062.27 -4.21365 -0.0541535 0
M  V30 11592 H 1061 -3.18011 -0.744101 0
M  V30 11593 H 1059.66 -3.39744 1.37731 0
M  V30 11594 H 1059.31 -5.00444 -0.506422 0
M  V30 11595 H 1059.01 -5.77772 1.07018 0
M  V30 11596 H 1060.53 -6.10284 0.196267 0
M  V30 11597 H 1061.94 -5.25063 2.30177 0
M  V30 11598 H 1060.34 -5.14665 3.0861 0
M  V30 11599 H 1061.41 -3.73313 3.0946 0
M  V30 11600 N 1062.75 -0.88754 -1.30232 0
M  V30 11601 C 1064.03 -0.427249 -1.90877 0
M  V30 11602 C 1064.41 1.0922 -1.80649 0
M  V30 11603 O 1063.76 1.92866 -1.22536 0
M  V30 11604 C 1063.97 -0.928219 -3.3643 0
M  V30 11605 C 1065.32 -0.964706 -4.13496 0
M  V30 11606 O 1066.34 -0.875057 -3.45284 0
M  V30 11607 O 1065.2 -1.09754 -5.35366 0
M  V30 11608 H 1062.29 -0.131107 -0.816541 0
M  V30 11609 H 1064.84 -0.976609 -1.38782 0
M  V30 11610 H 1063.61 -1.97209 -3.37971 0
M  V30 11611 H 1063.23 -0.358169 -3.95983 0
M  V30 11612 N 1064.23 1.43628 -0.648757 0
M  V30 11613 C 1065.18 2.30755 0.0455536 0
M  V30 11614 C 1066.15 1.44495 0.819168 0
M  V30 11615 O 1067.33 1.73372 0.79667 0
M  V30 11616 C 1064.47 3.30017 1.00908 0
M  V30 11617 C 1063.59 4.31376 0.232039 0
M  V30 11618 C 1062.72 5.17723 1.18897 0
M  V30 11619 C 1061.76 6.10778 0.402096 0
M  V30 11620 N 1060.9 6.89763 1.31038 0
M  V30 11621 H 1065.74 2.89581 -0.70332 0
M  V30 11622 H 1063.28 1.42662 -0.3586 0
M  V30 11623 H 1065.23 3.86072 1.58128 0
M  V30 11624 H 1063.86 2.72851 1.72488 0
M  V30 11625 H 1062.92 3.77652 -0.456373 0
M  V30 11626 H 1064.23 4.9735 -0.380023 0
M  V30 11627 H 1063.38 5.78381 1.83194 0
M  V30 11628 H 1062.12 4.51864 1.83494 0
M  V30 11629 H 1061.13 5.49212 -0.254255 0
M  V30 11630 H 1062.35 6.78678 -0.239411 0
M  V30 11631 H 1060.3 6.26557 1.94324 0
M  V30 11632 H 1060.21 7.52243 0.752774 0
M  V30 11633 H 1061.48 7.54931 1.94164 0
M  V30 11634 N 1065.71 0.390394 1.52688 0
M  V30 11635 C 1067.13 0.0404028 1.59549 0
M  V30 11636 C 1067.33 -1.44503 1.40432 0
M  V30 11637 O 1066.38 -2.20968 1.22187 0
M  V30 11638 C 1067.7 0.518561 2.96195 0
M  V30 11639 C 1069.24 0.474913 3.09376 0
M  V30 11640 C 1069.72 0.929278 4.48473 0
M  V30 11641 N 1071.21 0.885335 4.5466 0
M  V30 11642 C 1071.94 1.2083 5.60524 0
M  V30 11643 N 1071.44 1.6018 6.74028 0
M  V30 11644 N 1073.23 1.12949 5.50635 0
M  V30 11645 H 1065.38 1.35743 1.63363 0
M  V30 11646 H 1067.65 0.556453 0.767505 0
M  V30 11647 H 1067.35 1.55606 3.15404 0
M  V30 11648 H 1067.23 -0.081779 3.77111 0
M  V30 11649 H 1069.61 -0.553503 2.89863 0
M  V30 11650 H 1069.7 1.11107 2.3041 0
M  V30 11651 H 1069.34 1.95593 4.68728 0
M  V30 11652 H 1069.27 0.270121 5.25907 0
M  V30 11653 H 1071.76 0.595787 3.73174 0
M  V30 11654 H 1072.07 1.83184 7.50775 0
M  V30 11655 H 1070.42 1.64067 6.75357 0
M  V30 11656 H 1073.61 0.821074 4.60843 0
M  V30 11657 H 1073.78 1.3845 6.33037 0
M  V30 11658 N 1067.19 -1.57141 0.120249 0
M  V30 11659 C 1068.41 -2.00017 -0.548454 0
M  V30 11660 C 1068.84 -0.999433 -1.59352 0
M  V30 11661 O 1068.2 0.0286978 -1.81277 0
M  V30 11662 C 1068.24 -3.41766 -1.15015 0
M  V30 11663 O 1067.35 -3.44589 -2.26566 0
M  V30 11664 H 1066.69 -0.649739 -0.136875 0
M  V30 11665 H 1069.22 -2.03529 0.209092 0
M  V30 11666 H 1069.23 -3.80001 -1.48537 0
M  V30 11667 H 1067.9 -4.14117 -0.384681 0
M  V30 11668 H 1066.48 -3.18174 -1.94473 0
M  V30 11669 N 1068.67 0.153526 -1.5685 0
M  V30 11670 C 1069.58 1.20932 -2.01029 0
M  V30 11671 C 1070.59 1.47401 -0.924598 0
M  V30 11672 O 1071.77 1.592 -1.23359 0
M  V30 11673 C 1068.83 2.52438 -2.37647 0
M  V30 11674 C 1067.89 2.33673 -3.60132 0
M  V30 11675 C 1067.13 3.58909 -3.94994 0
M  V30 11676 O 1067.35 4.64823 -3.30599 0
M  V30 11677 O 1066.28 3.5196 -4.8827 0
M  V30 11678 H 1070.11 0.864273 -2.91143 0
M  V30 11679 H 1067.7 0.361755 -1.44954 0
M  V30 11680 H 1069.58 3.29981 -2.62088 0
M  V30 11681 H 1068.25 2.86486 -1.5069 0
M  V30 11682 H 1067.16 1.54102 -3.40886 0
M  V30 11683 H 1068.49 2.04544 -4.47686 0
M  V30 11684 N 1070.14 1.51827 0.422667 0
M  V30 11685 C 1071.42 1.55772 1.18299 0
M  V30 11686 C 1071.8 0.330657 2.08494 0
M  V30 11687 O 1071.15 -0.683373 2.18042 0
M  V30 11688 C 1071.36 2.87941 1.97208 0
M  V30 11689 C 1072.71 3.4044 2.53744 0
M  V30 11690 O 1073.73 2.8959 2.07403 0
M  V30 11691 O 1072.59 4.29201 3.38303 0
M  V30 11692 H 1069.68 0.626889 0.539388 0
M  V30 11693 H 1072.23 1.64147 0.430545 0
M  V30 11694 H 1071 3.68702 1.31052 0
M  V30 11695 H 1070.63 2.82795 2.79486 0
M  V30 11696 N 1071.62 -0.679052 1.4222 0
M  V30 11697 C 1072.59 -1.77448 1.45069 0
M  V30 11698 C 1073.59 -1.57189 0.338882 0
M  V30 11699 O 1074.78 -1.63559 0.599519 0
M  V30 11700 C 1071.91 -3.1603 1.27819 0
M  V30 11701 H 1073.1 -1.7631 2.426 0
M  V30 11702 H 1070.65 -0.888277 1.28605 0
M  V30 11703 H 1071.39 -3.22796 0.311946 0
M  V30 11704 H 1071.17 -3.32138 2.08391 0
M  V30 11705 H 1072.66 -3.9596 1.32686 0
M  V30 11706 N 1073.1 -1.28322 -0.914942 0
M  V30 11707 C 1074.35 -1.15179 -1.66067 0
M  V30 11708 C 1074.67 0.300279 -1.92674 0
M  V30 11709 O 1073.94 1.20821 -1.54205 0
M  V30 11710 H 1072.52 -0.423264 -0.615513 0
M  V30 11711 H 1075.18 -1.61034 -1.09791 0
M  V30 11712 H 1074.28 -1.69048 -2.62353 0
M  V30 11713 N 1074.58 1.12322 -1.10551 0
M  V30 11714 C 1075.81 1.87407 -0.869607 0
M  V30 11715 C 1076.22 1.79976 0.58356 0
M  V30 11716 O 1075.56 1.1725 1.41415 0
M  V30 11717 C 1075.62 3.37401 -1.24099 0
M  V30 11718 C 1075.29 3.68607 -2.70144 0
M  V30 11719 C 1076.28 3.66869 -3.68379 0
M  V30 11720 C 1073.97 3.97903 -3.06559 0
M  V30 11721 C 1075.96 3.93987 -5.01052 0
M  V30 11722 C 1073.65 4.24681 -4.39419 0
M  V30 11723 C 1074.65 4.2271 -5.36475 0
M  V30 11724 O 1074.33 4.48823 -6.66943 0
M  V30 11725 H 1074.07 0.59978 -0.311834 0
M  V30 11726 H 1076.62 1.43037 -1.4741 0
M  V30 11727 H 1074.85 3.82332 -0.579606 0
M  V30 11728 H 1076.54 3.93833 -0.982378 0
M  V30 11729 H 1077.31 3.44297 -3.41591 0
M  V30 11730 H 1073.18 3.98578 -2.31638 0
M  V30 11731 H 1076.73 3.92364 -5.76798 0
M  V30 11732 H 1072.63 4.46727 -4.65945 0
M  V30 11733 H 1073.39 4.66436 -6.72592 0
M  V30 11734 N 1076.06 0.894434 1.2976 0
M  V30 11735 C 1077.33 0.437365 1.90648 0
M  V30 11736 C 1077.71 -1.08261 1.81226 0
M  V30 11737 O 1077.06 -1.92213 1.23557 0
M  V30 11738 C 1077.27 0.946047 3.35933 0
M  V30 11739 C 1078.62 0.986621 4.12978 0
M  V30 11740 O 1079.64 0.893356 3.44815 0
M  V30 11741 O 1078.5 1.12591 5.34776 0
M  V30 11742 H 1075.6 0.135436 0.815835 0
M  V30 11743 H 1078.14 0.983955 1.38262 0
M  V30 11744 H 1076.91 1.98998 3.3692 0
M  V30 11745 H 1076.54 0.379164 3.95788 0
M  V30 11746 N 1077.53 -1.43282 0.656365 0
M  V30 11747 C 1078.46 -2.33492 -0.0196962 0
M  V30 11748 C 1079.45 -1.49647 -0.80868 0
M  V30 11749 O 1080.63 -1.78303 -0.769529 0
M  V30 11750 C 1077.76 -3.33052 -0.984574 0
M  V30 11751 C 1076.71 -4.26908 -0.305483 0
M  V30 11752 C 1076.04 -5.16531 -1.38202 0
M  V30 11753 C 1077.34 -5.16073 0.804081 0
M  V30 11754 H 1079.03 -2.90272 0.733661 0
M  V30 11755 H 1076.58 -1.39574 0.354259 0
M  V30 11756 H 1078.53 -3.9506 -1.46647 0
M  V30 11757 H 1077.26 -2.74535 -1.76913 0
M  V30 11758 H 1075.92 -3.66268 0.155995 0
M  V30 11759 H 1075.56 -4.54351 -2.1581 0
M  V30 11760 H 1075.26 -5.80148 -0.932878 0
M  V30 11761 H 1076.79 -5.81414 -1.86522 0
M  V30 11762 H 1078.2 -5.71873 0.404212 0
M  V30 11763 H 1076.6 -5.88427 1.17789 0
M  V30 11764 H 1077.67 -4.55574 1.66073 0
M  V30 11765 N 1079.01 -0.398486 -1.52479 0
M  V30 11766 C 1079.94 0.423498 -2.29627 0
M  V30 11767 C 1080.92 1.05547 -1.33394 0
M  V30 11768 O 1082.11 1.0665 -1.62294 0
M  V30 11769 C 1079.24 1.54612 -3.10986 0
M  V30 11770 C 1078.19 1.03971 -4.15179 0
M  V30 11771 C 1077.52 2.25512 -4.84818 0
M  V30 11772 C 1078.82 0.10121 -5.22202 0
M  V30 11773 H 1080.51 -0.220222 -2.98589 0
M  V30 11774 H 1078.06 -0.107355 -1.43599 0
M  V30 11775 H 1080.01 2.12806 -3.63719 0
M  V30 11776 H 1078.74 2.21756 -2.39774 0
M  V30 11777 H 1077.4 0.480251 -3.63441 0
M  V30 11778 H 1077.04 2.91187 -4.10145 0
M  V30 11779 H 1076.74 1.92285 -5.55248 0
M  V30 11780 H 1078.27 2.84331 -5.40359 0
M  V30 11781 H 1079.68 0.591617 -5.70239 0
M  V30 11782 H 1078.08 -0.141737 -5.99933 0
M  V30 11783 H 1079.15 -0.847216 -4.77441 0
M  V30 11784 N 1080.49 1.57075 -0.12858 0
M  V30 11785 C 1081.45 2.14643 0.803813 0
M  V30 11786 C 1082.45 1.08363 1.18803 0
M  V30 11787 O 1083.64 1.34093 1.11197 0
M  V30 11788 C 1080.78 2.6945 2.08829 0
M  V30 11789 H 1081.97 2.98362 0.303347 0
M  V30 11790 H 1079.52 1.55833 0.120735 0
M  V30 11791 H 1080.26 1.89345 2.63285 0
M  V30 11792 H 1080.04 3.47187 1.82218 0
M  V30 11793 H 1081.53 3.13865 2.7546 0
M  V30 11794 N 1081.97 -0.145205 1.5693 0
M  V30 11795 C 1082.93 -1.16316 1.97492 0
M  V30 11796 C 1083.93 -1.35764 0.861668 0
M  V30 11797 O 1085.12 -1.32726 1.12825 0
M  V30 11798 C 1082.25 -2.52311 2.29242 0
M  V30 11799 H 1083.45 -0.815138 2.8861 0
M  V30 11800 H 1081 -0.38861 1.51392 0
M  V30 11801 H 1081.74 -2.92081 1.40922 0
M  V30 11802 H 1081.52 -2.39555 3.10412 0
M  V30 11803 H 1083.01 -3.25624 2.61456 0
M  V30 11804 N 1083.45 -1.52049 -0.414609 0
M  V30 11805 C 1084.39 -1.74998 -1.5048 0
M  V30 11806 C 1085.36 -0.592251 -1.55182 0
M  V30 11807 O 1086.55 -0.829203 -1.7184 0
M  V30 11808 C 1083.69 -1.90157 -2.87983 0
M  V30 11809 C 1082.8 -3.17789 -2.92633 0
M  V30 11810 C 1081.94 -3.23411 -4.21401 0
M  V30 11811 C 1080.98 -4.45267 -4.20004 0
M  V30 11812 N 1080.11 -4.48312 -5.40334 0
M  V30 11813 H 1084.95 -2.68046 -1.30212 0
M  V30 11814 H 1082.49 -1.32824 -0.632154 0
M  V30 11815 H 1084.45 -1.96929 -3.67797 0
M  V30 11816 H 1083.08 -1.00496 -3.06758 0
M  V30 11817 H 1082.13 -3.20216 -2.05343 0
M  V30 11818 H 1083.44 -4.07634 -2.87465 0
M  V30 11819 H 1082.6 -3.29224 -5.09604 0
M  V30 11820 H 1081.34 -2.31495 -4.29257 0
M  V30 11821 H 1080.34 -4.39606 -3.30192 0
M  V30 11822 H 1081.57 -5.38472 -4.13793 0
M  V30 11823 H 1079.51 -3.59277 -5.48868 0
M  V30 11824 H 1079.43 -5.31994 -5.37139 0
M  V30 11825 H 1080.7 -4.58347 -6.30506 0
M  V30 11826 N 1084.93 0.6715 -1.42579 0
M  V30 11827 C 1085.84 1.81435 -1.48723 0
M  V30 11828 C 1086.85 1.69895 -0.375716 0
M  V30 11829 O 1088.03 1.91388 -0.627115 0
M  V30 11830 C 1085.09 3.17599 -1.39038 0
M  V30 11831 C 1084.15 3.41071 -2.60709 0
M  V30 11832 C 1083.39 4.7074 -2.51476 0
M  V30 11833 O 1083.61 5.48868 -1.55243 0
M  V30 11834 O 1082.54 4.95528 -3.41666 0
M  V30 11835 H 1086.37 1.79206 -2.45191 0
M  V30 11836 H 1083.95 0.827666 -1.24379 0
M  V30 11837 H 1085.84 3.98847 -1.3601 0
M  V30 11838 H 1084.51 3.20458 -0.456966 0
M  V30 11839 H 1083.42 2.59659 -2.69311 0
M  V30 11840 H 1084.75 3.43045 -3.5296 0
M  V30 11841 N 1086.4 1.28806 0.908124 0
M  V30 11842 C 1087.65 1.15663 1.65242 0
M  V30 11843 C 1087.97 -0.292883 1.93395 0
M  V30 11844 O 1089.17 -0.545509 2.65963 0
M  V30 11845 C 1087.63 2.02233 2.97707 0
M  V30 11846 C 1087.24 3.51958 2.77181 0
M  V30 11847 C 1088.98 1.97792 3.75604 0
M  V30 11848 C 1086.89 4.3066 4.05322 0
M  V30 11849 H 1085.82 0.42928 0.619867 0
M  V30 11850 H 1088.47 1.5338 1.00731 0
M  V30 11851 H 1086.85 1.57377 3.63385 0
M  V30 11852 H 1088.02 4.0481 2.20149 0
M  V30 11853 H 1086.34 3.57983 2.12691 0
M  V30 11854 H 1088.94 2.53858 4.70596 0
M  V30 11855 H 1089.28 0.955956 4.05175 0
M  V30 11856 H 1089.81 2.40648 3.16755 0
M  V30 11857 H 1086.55 5.3346 3.8092 0
M  V30 11858 H 1086.07 3.8258 4.61944 0
M  V30 11859 H 1087.75 4.40878 4.73535 0
M  V30 11860 N 1087.88 -1.11734 1.11145 0
M  V30 11861 C 1088.83 -2.15789 0.736133 0
M  V30 11862 C 1089.82 -1.58813 -0.25832 0
M  V30 11863 O 1091.01 -1.76877 -0.0659078 0
M  V30 11864 C 1088.14 -3.4284 0.177597 0
M  V30 11865 C 1087.22 -4.06783 1.19953 0
M  V30 11866 N 1087.61 -4.45626 2.39271 0
M  V30 11867 C 1085.91 -4.33663 1.04176 0
M  V30 11868 C 1086.61 -4.95684 3.04422 0
M  V30 11869 N 1085.59 -4.91648 2.31912 0
M  V30 11870 H 1089.39 -2.43598 1.6443 0
M  V30 11871 H 1086.9 -1.28716 0.990247 0
M  V30 11872 H 1088.9 -4.16756 -0.109402 0
M  V30 11873 H 1087.56 -3.16498 -0.725201 0
M  V30 11874 H 1088.57 -4.37757 2.76747 0
M  V30 11875 H 1085.25 -4.17044 0.195132 0
M  V30 11876 H 1086.64 -5.35394 4.05959 0
M  V30 11877 N 1089.36 -0.901303 -1.29284 0
M  V30 11878 C 1090.29 -0.396909 -2.30102 0
M  V30 11879 C 1091.27 0.528919 -1.61668 0
M  V30 11880 O 1092.46 0.439306 -1.89166 0
M  V30 11881 C 1089.59 0.375006 -3.45269 0
M  V30 11882 C 1088.54 -0.46054 -4.25515 0
M  V30 11883 C 1087.87 0.438967 -5.32895 0
M  V30 11884 C 1089.17 -1.7113 -4.93469 0
M  V30 11885 H 1090.86 -1.23943 -2.72541 0
M  V30 11886 H 1088.41 -0.597428 -1.31022 0
M  V30 11887 H 1090.36 0.738622 -4.14876 0
M  V30 11888 H 1089.08 1.25132 -3.01678 0
M  V30 11889 H 1087.74 -0.80651 -3.57618 0
M  V30 11890 H 1087.39 1.31346 -4.85548 0
M  V30 11891 H 1087.09 -0.116406 -5.87485 0
M  V30 11892 H 1088.61 0.79874 -6.05353 0
M  V30 11893 H 1090.03 -1.41732 -5.55504 0
M  V30 11894 H 1088.42 -2.20811 -5.57999 0
M  V30 11895 H 1089.49 -2.44636 -4.18666 0
M  V30 11896 N 1090.84 1.42931 -0.663954 0
M  V30 11897 C 1091.77 2.33499 0.00731327 0
M  V30 11898 C 1092.75 1.50074 0.800733 0
M  V30 11899 O 1093.93 1.78708 0.760062 0
M  V30 11900 C 1091.06 3.33569 0.966897 0
M  V30 11901 C 1090.02 4.27064 0.282839 0
M  V30 11902 C 1089.34 5.17257 1.35461 0
M  V30 11903 C 1090.64 5.1564 -0.831438 0
M  V30 11904 H 1092.34 2.89879 -0.749044 0
M  V30 11905 H 1089.88 1.39385 -0.361656 0
M  V30 11906 H 1091.84 3.95833 1.44549 0
M  V30 11907 H 1090.56 2.75469 1.75455 0
M  V30 11908 H 1089.22 3.6618 -0.175417 0
M  V30 11909 H 1088.87 4.5549 2.13397 0
M  V30 11910 H 1088.57 5.80634 0.902098 0
M  V30 11911 H 1090.09 5.82395 1.83436 0
M  V30 11912 H 1091.51 5.71651 -0.434534 0
M  V30 11913 H 1089.9 5.87794 -1.20908 0
M  V30 11914 H 1090.97 4.54687 -1.68487 0
M  V30 11915 N 1092.32 0.406567 1.52266 0
M  V30 11916 C 1093.73 -0.063607 1.86592 0
M  V30 11917 C 1094.08 -1.4466 1.32544 0
M  V30 11918 O 1093.2 -2.05971 0.663692 0
M  V30 11919 C 1093.8 -0.122198 3.3858 0
M  V30 11920 C 1092.36 -0.536701 3.72554 0
M  V30 11921 C 1091.5 0.290422 2.75775 0
M  V30 11922 H 1094.45 0.623738 1.45929 0
M  V30 11923 H 1094.48 -0.937964 3.68758 0
M  V30 11924 H 1093.99 0.884495 3.77887 0
M  V30 11925 H 1092.09 -1.55013 3.38824 0
M  V30 11926 H 1092.2 -0.282867 4.78264 0
M  V30 11927 H 1090.57 -0.246864 2.53501 0
M  V30 11928 H 1091.35 1.29541 3.17921 0
M  V30 11929 N 1093.79 -1.57004 0.136909 0
M  V30 11930 C 1095.04 -1.9541 -0.51569 0
M  V30 11931 C 1095.36 -1.02219 -1.66061 0
M  V30 11932 O 1094.63 -0.0818172 -1.95729 0
M  V30 11933 H 1093.21 -0.721504 -0.193497 0
M  V30 11934 H 1095.88 -1.93765 0.210046 0
M  V30 11935 H 1094.97 -2.98887 -0.898494 0
M  V30 11936 N 1095.27 0.136881 -1.57004 0
M  V30 11937 C 1096.18 1.18793 -2.023 0
M  V30 11938 C 1097.2 1.46412 -0.94018 0
M  V30 11939 O 1098.37 1.57883 -1.2504 0
M  V30 11940 C 1095.44 2.49903 -2.40311 0
M  V30 11941 C 1094.5 2.29841 -3.6259 0
M  V30 11942 C 1093.73 3.54699 -3.98779 0
M  V30 11943 O 1093.96 4.61291 -3.3551 0
M  V30 11944 O 1092.89 3.46761 -4.91976 0
M  V30 11945 H 1096.72 0.833345 -2.92043 0
M  V30 11946 H 1094.3 0.346361 -1.4533 0
M  V30 11947 H 1096.18 3.27183 -2.65574 0
M  V30 11948 H 1094.86 2.84872 -1.5372 0
M  V30 11949 H 1093.77 1.50478 -3.42501 0
M  V30 11950 H 1095.1 1.99784 -4.4983 0
M  V30 11951 N 1096.75 1.52266 0.40654 0
M  V30 11952 C 1098 1.66699 1.15496 0
M  V30 11953 C 1098.33 0.397019 1.90098 0
M  V30 11954 O 1097.6 -0.604646 1.84863 0
M  V30 11955 C 1097.89 2.8907 2.14734 0
M  V30 11956 C 1097.74 4.26123 1.44012 0
M  V30 11957 C 1099.06 3.06966 3.15373 0
M  V30 11958 H 1096.18 0.606642 0.418515 0
M  V30 11959 H 1098.82 1.84826 0.440381 0
M  V30 11960 H 1096.97 2.73745 2.75673 0
M  V30 11961 H 1098.64 4.5318 0.861722 0
M  V30 11962 H 1096.89 4.27406 0.742064 0
M  V30 11963 H 1097.56 5.07799 2.16436 0
M  V30 11964 H 1100.03 3.21205 2.64512 0
M  V30 11965 H 1098.91 3.94097 3.82072 0
M  V30 11966 H 1099.17 2.20395 3.83247 0
M  V30 11967 N 1098.23 -0.663929 1.42933 0
M  V30 11968 C 1099.18 -1.77717 1.47259 0
M  V30 11969 C 1100.15 -1.62922 0.323387 0
M  V30 11970 O 1101.33 -1.83319 0.529021 0
M  V30 11971 C 1098.47 -3.15814 1.39124 0
M  V30 11972 C 1097.58 -3.4182 2.64165 0
M  V30 11973 C 1096.72 -4.69705 2.48094 0
M  V30 11974 C 1095.76 -4.88781 3.68456 0
M  V30 11975 N 1094.89 -6.07915 3.51261 0
M  V30 11976 H 1099.73 -1.73355 2.42388 0
M  V30 11977 H 1097.27 -0.846121 1.2033 0
M  V30 11978 H 1099.23 -3.95633 1.32403 0
M  V30 11979 H 1097.86 -3.19274 0.475829 0
M  V30 11980 H 1096.91 -2.56176 2.81208 0
M  V30 11981 H 1098.22 -3.51805 3.53602 0
M  V30 11982 H 1097.38 -5.57632 2.39021 0
M  V30 11983 H 1096.12 -4.62022 1.56164 0
M  V30 11984 H 1095.12 -3.99292 3.7795 0
M  V30 11985 H 1096.35 -4.98301 4.61381 0
M  V30 11986 H 1094.29 -6.01384 2.62057 0
M  V30 11987 H 1094.21 -6.1881 4.34293 0
M  V30 11988 H 1095.48 -6.98492 3.4602 0
M  V30 11989 N 1099.71 -1.29285 -0.901281 0
M  V30 11990 C 1100.95 -1.17339 -1.65407 0
M  V30 11991 C 1101.29 0.274834 -1.92245 0
M  V30 11992 O 1100.56 1.19865 -1.53176 0
M  V30 11993 C 1100.84 -1.98547 -3.00418 0
M  V30 11994 C 1100.7 -3.51501 -2.80655 0
M  V30 11995 C 1102.02 -1.81062 -4.01129 0
M  V30 11996 H 1099.13 -0.427624 -0.600255 0
M  V30 11997 H 1101.78 -1.58741 -1.0441 0
M  V30 11998 H 1099.93 -1.63366 -3.52482 0
M  V30 11999 H 1101.6 -3.96655 -2.35505 0
M  V30 12000 H 1099.84 -3.76504 -2.15469 0
M  V30 12001 H 1100.51 -4.03593 -3.76585 0
M  V30 12002 H 1102.99 -2.11788 -3.58169 0
M  V30 12003 H 1101.86 -2.40235 -4.93536 0
M  V30 12004 H 1102.13 -0.765388 -4.35424 0
M  V30 12005 N 1101.18 1.11143 -1.11736 0
M  V30 12006 C 1102.43 1.82311 -0.862875 0
M  V30 12007 C 1102.75 1.85735 0.613326 0
M  V30 12008 O 1103.95 2.53034 0.984168 0
M  V30 12009 C 1102.41 3.27427 -1.49396 0
M  V30 12010 C 1102.02 3.32323 -3.00443 0
M  V30 12011 C 1103.76 4.03474 -1.31944 0
M  V30 12012 C 1101.67 4.71855 -3.56521 0
M  V30 12013 H 1100.6 0.683124 -0.31915 0
M  V30 12014 H 1103.25 1.25045 -1.34298 0
M  V30 12015 H 1101.63 3.84644 -0.941528 0
M  V30 12016 H 1102.8 2.84971 -3.62117 0
M  V30 12017 H 1101.12 2.69758 -3.17206 0
M  V30 12018 H 1103.72 5.06528 -1.71271 0
M  V30 12019 H 1104.06 4.15473 -0.262339 0
M  V30 12020 H 1104.59 3.52652 -1.84069 0
M  V30 12021 H 1101.33 4.65054 -4.61958 0
M  V30 12022 H 1100.85 5.19604 -2.99619 0
M  V30 12023 H 1102.53 5.40816 -3.55144 0
M  V30 12024 N 1102.66 0.908147 1.28804 0
M  V30 12025 C 1104.07 0.585727 1.77274 0
M  V30 12026 C 1104.42 -0.898842 1.744 0
M  V30 12027 O 1103.55 -1.70301 1.33516 0
M  V30 12028 C 1104.14 1.05647 3.21907 0
M  V30 12029 C 1102.7 0.785066 3.68122 0
M  V30 12030 C 1101.85 1.22638 2.48707 0
M  V30 12031 H 1104.8 1.09 1.15346 0
M  V30 12032 H 1104.82 0.395442 3.7844 0
M  V30 12033 H 1104.33 2.13698 3.23967 0
M  V30 12034 H 1102.44 -0.282477 3.71528 0
M  V30 12035 H 1102.55 1.38888 4.58527 0
M  V30 12036 H 1100.91 0.645217 2.46392 0
M  V30 12037 H 1101.7 2.31512 2.5349 0
M  V30 12038 N 1104.14 -1.42577 0.671525 0
M  V30 12039 C 1105.37 -2.05924 0.200731 0
M  V30 12040 C 1105.78 -1.50434 -1.14083 0
M  V30 12041 O 1105.14 -0.642845 -1.70803 0
M  V30 12042 C 1105.19 -3.61289 0.123505 0
M  V30 12043 O 1104.91 -4.1472 1.41205 0
M  V30 12044 C 1106.41 -4.41743 -0.371178 0
M  V30 12045 H 1103.63 -0.663746 0.0983958 0
M  V30 12046 H 1106.18 -1.82771 0.917338 0
M  V30 12047 H 1104.33 -3.83565 -0.543769 0
M  V30 12048 H 1104.75 -5.0856 1.28325 0
M  V30 12049 H 1106.22 -5.50731 -0.374128 0
M  V30 12050 H 1106.7 -4.16092 -1.40585 0
M  V30 12051 H 1107.3 -4.24478 0.264244 0
M  V30 12052 N 1105.62 -0.414636 -1.52048 0
M  V30 12053 C 1106.87 0.159034 -2.01473 0
M  V30 12054 C 1107.19 1.45176 -1.30188 0
M  V30 12055 O 1106.46 1.91134 -0.429469 0
M  V30 12056 H 1105.04 0.0617604 -0.744443 0
M  V30 12057 H 1107.7 -0.552141 -1.86916 0
M  V30 12058 H 1106.8 0.351217 -3.10118 0
M  V30 12059 N 1107.1 1.56929 -0.145233 0
M  V30 12060 C 1108.34 1.96358 0.50707 0
M  V30 12061 C 1108.68 1.03005 1.64632 0
M  V30 12062 O 1107.95 0.0721045 1.94366 0
M  V30 12063 C 1108.23 3.45502 1.01492 0
M  V30 12064 C 1108.09 4.49633 -0.122708 0
M  V30 12065 C 1109.41 3.97103 1.89729 0
M  V30 12066 H 1106.52 0.713958 0.182848 0
M  V30 12067 H 1109.17 1.8865 -0.226102 0
M  V30 12068 H 1107.32 3.52202 1.6397 0
M  V30 12069 H 1108.99 4.55013 -0.758988 0
M  V30 12070 H 1107.23 4.26691 -0.782109 0
M  V30 12071 H 1107.9 5.51318 0.27432 0
M  V30 12072 H 1110.38 3.92871 1.37082 0
M  V30 12073 H 1109.25 5.01927 2.22173 0
M  V30 12074 H 1109.52 3.39354 2.83357 0
M  V30 12075 N 1108.58 -0.128553 1.57075 0
M  V30 12076 C 1109.52 -1.15812 1.9964 0
M  V30 12077 C 1110.49 -1.41679 0.86696 0
M  V30 12078 O 1111.68 -1.53705 1.13046 0
M  V30 12079 C 1108.82 -2.48198 2.39774 0
M  V30 12080 C 1107.93 -2.29348 3.66092 0
M  V30 12081 C 1107.07 -3.54898 3.95248 0
M  V30 12082 C 1106.1 -3.31164 5.14779 0
M  V30 12083 N 1105.24 -4.48891 5.39853 0
M  V30 12084 H 1110.08 -0.788136 2.87389 0
M  V30 12085 H 1107.62 -0.377682 1.42169 0
M  V30 12086 H 1109.58 -3.25414 2.61077 0
M  V30 12087 H 1108.21 -2.83108 1.5508 0
M  V30 12088 H 1107.26 -1.43095 3.5246 0
M  V30 12089 H 1108.57 -2.07781 4.53463 0
M  V30 12090 H 1107.72 -4.40536 4.17148 0
M  V30 12091 H 1106.46 -3.79487 3.06335 0
M  V30 12092 H 1105.47 -2.43915 4.92733 0
M  V30 12093 H 1106.69 -3.07954 6.05261 0
M  V30 12094 H 1104.64 -4.73619 4.53895 0
M  V30 12095 H 1104.56 -4.30394 6.21528 0
M  V30 12096 H 1105.82 -5.35691 5.66265 0
M  V30 12097 N 1110.05 -1.5248 -0.398459 0
M  V30 12098 C 1110.98 -1.79549 -1.49279 0
M  V30 12099 C 1111.96 -0.647004 -1.57315 0
M  V30 12100 O 1113.15 -0.893661 -1.72416 0
M  V30 12101 C 1110.28 -1.95582 -2.86993 0
M  V30 12102 C 1109.23 -3.1123 -2.93803 0
M  V30 12103 C 1108.56 -3.12501 -4.33874 0
M  V30 12104 C 1109.86 -4.50485 -2.64312 0
M  V30 12105 H 1111.55 -2.71187 -1.26877 0
M  V30 12106 H 1109.1 -1.30492 -0.608924 0
M  V30 12107 H 1111.05 -2.13102 -3.63546 0
M  V30 12108 H 1109.78 -1.00625 -3.10712 0
M  V30 12109 H 1108.44 -2.93477 -2.19697 0
M  V30 12110 H 1108.08 -2.15245 -4.54619 0
M  V30 12111 H 1107.78 -3.90183 -4.39353 0
M  V30 12112 H 1109.31 -3.32164 -5.12347 0
M  V30 12113 H 1110.72 -4.68387 -3.30585 0
M  V30 12114 H 1109.12 -5.30163 -2.81153 0
M  V30 12115 H 1110.19 -4.57848 -1.59696 0
M  V30 12116 N 1111.53 0.65634 -1.43283 0
M  V30 12117 C 1112.46 1.78122 -1.42646 0
M  V30 12118 C 1113.44 1.60024 -0.288301 0
M  V30 12119 O 1114.63 1.82249 -0.481407 0
M  V30 12120 C 1111.75 3.1538 -1.23505 0
M  V30 12121 C 1110.8 3.52186 -2.40556 0
M  V30 12122 S 1111.63 3.52515 -4.03105 0
M  V30 12123 C 1112.79 4.92435 -3.8634 0
M  V30 12124 H 1113.02 1.78391 -2.37832 0
M  V30 12125 H 1110.55 0.828699 -1.30276 0
M  V30 12126 H 1112.51 3.94598 -1.13148 0
M  V30 12127 H 1111.17 3.12676 -0.298726 0
M  V30 12128 H 1110.37 4.52002 -2.22959 0
M  V30 12129 H 1109.97 2.80373 -2.47522 0
M  V30 12130 H 1112.26 5.81011 -3.48472 0
M  V30 12131 H 1113.2 5.15082 -4.85897 0
M  V30 12132 H 1113.61 4.65823 -3.18857 0
M  V30 12133 N 1113.01 1.29761 0.894412 0
M  V30 12134 C 1113.94 1.17902 2.01547 0
M  V30 12135 C 1114.92 0.0719402 1.69948 0
M  V30 12136 O 1116.11 0.252338 1.92554 0
M  V30 12137 C 1113.24 0.860262 3.36477 0
M  V30 12138 C 1112.19 1.92424 3.82305 0
M  V30 12139 C 1111.52 1.45868 5.14419 0
M  V30 12140 C 1112.82 3.33391 4.02054 0
M  V30 12141 H 1114.51 2.11688 2.11727 0
M  V30 12142 H 1112.06 1.01916 1.01731 0
M  V30 12143 H 1114.01 0.763987 4.14417 0
M  V30 12144 H 1112.73 -0.113289 3.26403 0
M  V30 12145 H 1111.39 2.00999 3.06586 0
M  V30 12146 H 1111.04 0.473654 5.00765 0
M  V30 12147 H 1110.74 2.17028 5.46052 0
M  V30 12148 H 1112.26 1.37601 5.94894 0
M  V30 12149 H 1113.68 3.27628 4.7046 0
M  V30 12150 H 1112.07 4.02555 4.4505 0
M  V30 12151 H 1113.14 3.75978 3.06216 0
M  V30 12152 N 1114.49 -1.10549 1.12324 0
M  V30 12153 C 1115.9 -1.63991 0.892402 0
M  V30 12154 C 1116.25 -1.87631 -0.573506 0
M  V30 12155 O 1115.37 -1.6174 -1.43768 0
M  V30 12156 C 1115.97 -2.97914 1.61347 0
M  V30 12157 C 1114.53 -3.48227 1.42881 0
M  V30 12158 C 1113.68 -2.22857 1.65015 0
M  V30 12159 H 1116.63 -0.94065 1.27818 0
M  V30 12160 H 1116.65 -3.65326 1.06382 0
M  V30 12161 H 1116.16 -2.80677 2.68034 0
M  V30 12162 H 1114.26 -3.70611 0.384441 0
M  V30 12163 H 1114.37 -4.26419 2.18413 0
M  V30 12164 H 1112.74 -2.30941 1.07417 0
M  V30 12165 H 1113.52 -2.08152 2.72997 0
M  V30 12166 N 1115.97 -0.914965 -1.28321 0
M  V30 12167 C 1116.91 -0.402792 -2.27258 0
M  V30 12168 C 1117.88 0.523412 -1.57638 0
M  V30 12169 O 1119.07 0.445344 -1.8553 0
M  V30 12170 C 1116.21 0.349956 -3.43321 0
M  V30 12171 C 1115.32 -0.608892 -4.27687 0
M  V30 12172 C 1114.46 0.162425 -5.30952 0
M  V30 12173 C 1113.49 -0.789959 -6.06981 0
M  V30 12174 N 1112.63 -0.0520826 -7.02081 0
M  V30 12175 H 1117.47 -1.25153 -2.70446 0
M  V30 12176 H 1115.01 -0.628444 -1.33 0
M  V30 12177 H 1116.97 0.802589 -4.09407 0
M  V30 12178 H 1115.6 1.16303 -3.01121 0
M  V30 12179 H 1114.65 -1.18005 -3.61634 0
M  V30 12180 H 1115.96 -1.33727 -4.8054 0
M  V30 12181 H 1115.11 0.675563 -6.02927 0
M  V30 12182 H 1113.85 0.923851 -4.7887 0
M  V30 12183 H 1112.86 -1.31446 -5.33856 0
M  V30 12184 H 1114.08 -1.55096 -6.61152 0
M  V30 12185 H 1112.03 0.691331 -6.52347 0
M  V30 12186 H 1111.95 -0.720267 -7.52561 0
M  V30 12187 H 1113.21 0.44082 -7.78253 0
M  V30 12188 N 1117.44 1.42219 -0.679077 0
M  V30 12189 C 1118.69 2.01081 -0.202718 0
M  V30 12190 C 1119.01 1.53986 1.19639 0
M  V30 12191 O 1118.28 0.763359 1.80415 0
M  V30 12192 H 1116.86 0.743526 -0.0719547 0
M  V30 12193 H 1119.52 1.74077 -0.876544 0
M  V30 12194 H 1118.62 3.11411 -0.207314 0
M  V30 12195 N 1118.92 0.422693 1.51826 0
M  V30 12196 C 1120.15 -0.14753 2.06073 0
M  V30 12197 C 1120.56 -1.38264 1.2915 0
M  V30 12198 O 1119.9 -1.8052 0.340306 0
M  V30 12199 C 1119.96 -0.549558 3.55275 0
M  V30 12200 C 1119.63 0.576704 4.53347 0
M  V30 12201 C 1120.63 1.44442 4.99432 0
M  V30 12202 C 1118.31 0.753264 4.9662 0
M  V30 12203 C 1120.3 2.47352 5.87448 0
M  V30 12204 C 1117.99 1.78566 5.84429 0
M  V30 12205 C 1118.99 2.64419 6.29739 0
M  V30 12206 O 1118.68 3.65888 7.15808 0
M  V30 12207 H 1118.41 -0.0178911 0.675763 0
M  V30 12208 H 1120.96 0.596258 1.96555 0
M  V30 12209 H 1119.19 -1.34583 3.62525 0
M  V30 12210 H 1120.88 -1.04925 3.92104 0
M  V30 12211 H 1121.65 1.31948 4.66706 0
M  V30 12212 H 1117.53 0.0946405 4.60903 0
M  V30 12213 H 1121.07 3.14397 6.22736 0
M  V30 12214 H 1116.97 1.91086 6.16568 0
M  V30 12215 H 1117.74 3.62294 7.33952 0
M  V30 12216 N 1120.4 -1.5685 0.153553 0
M  V30 12217 C 1121.65 -1.97404 -0.490227 0
M  V30 12218 C 1122 -1.03725 -1.62046 0
M  V30 12219 O 1121.29 -0.0735247 -1.91459 0
M  V30 12220 C 1121.49 -3.42022 -1.0371 0
M  V30 12221 C 1121.32 -4.49683 0.038616 0
M  V30 12222 C 1120.09 -5.02993 0.482267 0
M  V30 12223 C 1122.28 -5.07517 0.832507 0
M  V30 12224 N 1120.27 -5.94267 1.54014 0
M  V30 12225 C 1121.64 -5.95062 1.74072 0
M  V30 12226 C 1123.69 -4.90069 0.879566 0
M  V30 12227 C 1122.4 -6.67027 2.69198 0
M  V30 12228 C 1124.42 -5.62741 1.81868 0
M  V30 12229 C 1123.78 -6.5 2.71441 0
M  V30 12230 H 1119.88 -0.767866 -0.148005 0
M  V30 12231 H 1122.47 -1.93093 0.24967 0
M  V30 12232 H 1120.64 -3.46914 -1.74658 0
M  V30 12233 H 1122.37 -3.69624 -1.64804 0
M  V30 12234 H 1119.12 -4.73527 0.0832885 0
M  V30 12235 H 1119.55 -6.44608 2.06903 0
M  V30 12236 H 1124.19 -4.22321 0.201123 0
M  V30 12237 H 1121.91 -7.34 3.38039 0
M  V30 12238 H 1125.49 -5.51234 1.86098 0
M  V30 12239 H 1124.37 -7.05246 3.42926 0
M  V30 12240 N 1121.88 0.120221 -1.57141 0
M  V30 12241 C 1123.13 0.826586 -1.84423 0
M  V30 12242 C 1123.45 1.80473 -0.738553 0
M  V30 12243 O 1122.72 1.94454 0.23755 0
M  V30 12244 H 1121.3 0.308246 -0.680436 0
M  V30 12245 H 1123.96 0.107835 -1.94601 0
M  V30 12246 H 1123.05 1.37256 -2.80298 0
M  V30 12247 N 1123.36 1.52689 0.390367 0
M  V30 12248 C 1124.29 1.80338 1.48325 0
M  V30 12249 C 1125.27 0.655338 1.56969 0
M  V30 12250 O 1126.45 0.902792 1.7194 0
M  V30 12251 C 1123.58 1.97101 2.85952 0
M  V30 12252 C 1122.54 3.12783 2.92148 0
M  V30 12253 C 1121.86 3.14798 4.32211 0
M  V30 12254 C 1123.16 4.5188 2.61919 0
M  V30 12255 H 1124.86 2.71857 1.25437 0
M  V30 12256 H 1122.4 1.30813 0.601995 0
M  V30 12257 H 1124.36 2.15027 3.62411 0
M  V30 12258 H 1123.08 1.02271 3.10174 0
M  V30 12259 H 1121.74 2.94638 2.18137 0
M  V30 12260 H 1121.39 2.17653 4.53471 0
M  V30 12261 H 1121.09 3.92507 4.37278 0
M  V30 12262 H 1122.61 3.34877 5.10578 0
M  V30 12263 H 1124.02 4.70134 3.28096 0
M  V30 12264 H 1122.42 5.31647 2.78337 0
M  V30 12265 H 1123.49 4.58689 1.57266 0
M  V30 12266 N 1124.83 -0.648732 1.43629 0
M  V30 12267 C 1126.08 -1.40446 1.44768 0
M  V30 12268 C 1126.4 -1.95447 0.0773445 0
M  V30 12269 O 1127.6 -2.71479 -0.0337942 0
M  V30 12270 C 1126.06 -2.54194 2.54781 0
M  V30 12271 C 1125.67 -2.05781 3.97942 0
M  V30 12272 C 1127.41 -3.31529 2.65121 0
M  V30 12273 C 1125.32 -3.16767 4.99412 0
M  V30 12274 H 1124.25 -0.527717 0.538545 0
M  V30 12275 H 1126.9 -0.699756 1.69634 0
M  V30 12276 H 1125.28 -3.27156 2.23125 0
M  V30 12277 H 1126.45 -1.398 4.39081 0
M  V30 12278 H 1124.77 -1.41312 3.91688 0
M  V30 12279 H 1127.37 -4.14233 3.38105 0
M  V30 12280 H 1127.71 -3.79855 1.70341 0
M  V30 12281 H 1128.24 -2.65649 2.961 0
M  V30 12282 H 1124.98 -2.73404 5.9576 0
M  V30 12283 H 1124.5 -3.81445 4.62882 0
M  V30 12284 H 1126.18 -3.81827 5.22319 0
M  V30 12285 N 1126.31 -1.30234 -0.887518 0
M  V30 12286 C 1127.56 -1.18277 -1.63381 0
M  V30 12287 C 1127.87 0.262079 -1.93836 0
M  V30 12288 O 1129.08 0.503127 -2.66797 0
M  V30 12289 C 1127.54 -2.06944 -2.94452 0
M  V30 12290 C 1127.14 -3.56323 -2.71547 0
M  V30 12291 C 1128.89 -2.03743 -3.7241 0
M  V30 12292 C 1126.8 -4.37054 -3.98419 0
M  V30 12293 H 1125.73 -0.439087 -0.612959 0
M  V30 12294 H 1128.38 -1.54964 -0.982779 0
M  V30 12295 H 1126.76 -1.63138 -3.60835 0
M  V30 12296 H 1127.93 -4.08261 -2.13681 0
M  V30 12297 H 1126.25 -3.61321 -2.06969 0
M  V30 12298 H 1128.84 -2.61312 -4.66497 0
M  V30 12299 H 1129.19 -1.02029 -4.03603 0
M  V30 12300 H 1129.72 -2.45657 -3.12886 0
M  V30 12301 H 1126.46 -5.39453 -3.72385 0
M  V30 12302 H 1125.98 -3.89881 -4.55799 0
M  V30 12303 H 1127.66 -4.48356 -4.66462 0
M  V30 12304 N 1127.79 1.09952 -1.12909 0
M  V30 12305 C 1129.04 1.81657 -0.885729 0
M  V30 12306 C 1129.36 1.85863 0.589913 0
M  V30 12307 O 1128.63 1.34028 1.42875 0
M  V30 12308 H 1127.21 0.672743 -0.324694 0
M  V30 12309 H 1129.87 1.33013 -1.42456 0
M  V30 12310 H 1128.97 2.85018 -1.27167 0
M  V30 12311 N 1129.27 0.921757 1.27833 0
M  V30 12312 C 1130.22 0.414838 2.27041 0
M  V30 12313 C 1131.19 -0.515045 1.57913 0
M  V30 12314 O 1132.37 -0.435499 1.85763 0
M  V30 12315 C 1129.51 -0.331744 3.43502 0
M  V30 12316 C 1128.62 0.631565 4.27358 0
M  V30 12317 C 1127.76 -0.134265 5.3103 0
M  V30 12318 C 1126.8 0.822138 6.06554 0
M  V30 12319 N 1125.93 0.0893149 7.02043 0
M  V30 12320 H 1130.77 1.26585 2.69778 0
M  V30 12321 H 1128.31 0.635488 1.32665 0
M  V30 12322 H 1130.27 -0.780866 4.09827 0
M  V30 12323 H 1128.9 -1.14704 3.01733 0
M  V30 12324 H 1127.95 1.19922 3.61003 0
M  V30 12325 H 1129.26 1.36274 4.79824 0
M  V30 12326 H 1128.42 -0.643579 6.03277 0
M  V30 12327 H 1127.16 -0.898443 4.79353 0
M  V30 12328 H 1126.16 1.34275 5.33151 0
M  V30 12329 H 1127.39 1.586 6.6032 0
M  V30 12330 H 1125.33 -0.656725 6.52704 0
M  V30 12331 H 1125.25 0.760167 7.52169 0
M  V30 12332 H 1126.52 -0.399541 7.78475 0
M  V30 12333 N 1130.75 -1.41857 0.686609 0
M  V30 12334 C 1131.97 -2.06219 0.221037 0
M  V30 12335 C 1132.4 -1.51298 -1.11762 0
M  V30 12336 O 1131.75 -0.636253 -1.69769 0
M  V30 12337 C 1131.8 -3.60153 0.179425 0
M  V30 12338 O 1130.91 -4.03577 -0.848481 0
M  V30 12339 H 1130.25 -0.654787 0.110228 0
M  V30 12340 H 1132.78 -1.81783 0.938948 0
M  V30 12341 H 1132.79 -4.07999 0.00725332 0
M  V30 12342 H 1131.46 -3.99498 1.15647 0
M  V30 12343 H 1130.04 -3.67255 -0.646393 0
M  V30 12344 N 1132.22 -0.430739 -1.51599 0
M  V30 12345 C 1133.45 0.139197 -2.06932 0
M  V30 12346 C 1133.87 1.3626 -1.29672 0
M  V30 12347 O 1133.23 1.78219 -0.332836 0
M  V30 12348 C 1133.28 0.446593 -3.57824 0
M  V30 12349 O 1132.38 1.53414 -3.82803 0
M  V30 12350 H 1131.73 0.00475812 -0.663983 0
M  V30 12351 H 1134.26 -0.610171 -1.9529 0
M  V30 12352 H 1134.27 0.698972 -4.01968 0
M  V30 12353 H 1132.94 -0.447613 -4.13484 0
M  V30 12354 H 1131.52 1.27224 -3.50526 0
M  V30 12355 N 1133.7 1.56767 -0.161869 0
M  V30 12356 C 1134.95 1.95769 0.485536 0
M  V30 12357 C 1135.26 1.05006 1.65025 0
M  V30 12358 O 1136.47 1.33649 2.36326 0
M  V30 12359 C 1134.93 3.4807 0.915176 0
M  V30 12360 C 1134.53 4.47443 -0.223416 0
M  V30 12361 C 1136.28 3.95909 1.53153 0
M  V30 12362 C 1134.19 5.90971 0.225325 0
M  V30 12363 H 1133.12 0.730911 0.185161 0
M  V30 12364 H 1135.77 1.81808 -0.248592 0
M  V30 12365 H 1134.15 3.57415 1.705 0
M  V30 12366 H 1135.32 4.49805 -1.00061 0
M  V30 12367 H 1133.64 4.09606 -0.749127 0
M  V30 12368 H 1136.23 5.00592 1.87915 0
M  V30 12369 H 1136.58 3.38307 2.42599 0
M  V30 12370 H 1137.11 3.89542 0.806322 0
M  V30 12371 H 1133.85 6.52426 -0.634124 0
M  V30 12372 H 1133.37 5.91936 0.96808 0
M  V30 12373 H 1135.05 6.43497 0.672373 0
M  V30 12374 N 1135.18 -0.111886 1.57202 0
M  V30 12375 C 1136.43 -0.816794 1.84859 0
M  V30 12376 C 1136.75 -1.80079 0.748113 0
M  V30 12377 O 1136.02 -1.94578 -0.227235 0
M  V30 12378 H 1134.6 -0.304633 0.682061 0
M  V30 12379 H 1137.26 -0.097513 1.94656 0
M  V30 12380 H 1136.36 -1.35768 2.81022 0
M  V30 12381 N 1136.66 -1.52894 -0.382264 0
M  V30 12382 C 1137.88 -1.72453 -1.15216 0
M  V30 12383 C 1138.31 -0.444925 -1.82762 0
M  V30 12384 O 1137.67 0.599825 -1.7109 0
M  V30 12385 C 1137.71 -2.87939 -2.17079 0
M  V30 12386 O 1136.82 -2.55383 -3.23811 0
M  V30 12387 H 1136.16 -0.57324 -0.335099 0
M  V30 12388 H 1138.69 -1.99713 -0.444495 0
M  V30 12389 H 1138.7 -3.13628 -2.60963 0
M  V30 12390 H 1137.37 -3.80765 -1.67305 0
M  V30 12391 H 1135.95 -2.40457 -2.85018 0
M  V30 12392 N 1138.14 0.641106 -1.43971 0
M  V30 12393 C 1139.08 1.75352 -1.50068 0
M  V30 12394 C 1140.05 1.62386 -0.349266 0
M  V30 12395 O 1141.24 1.82455 -0.558118 0
M  V30 12396 C 1138.38 3.13561 -1.4413 0
M  V30 12397 C 1137.49 3.37574 -2.6957 0
M  V30 12398 C 1136.63 4.65698 -2.55535 0
M  V30 12399 C 1135.67 4.82857 -3.76186 0
M  V30 12400 N 1134.8 6.02249 -3.60888 0
M  V30 12401 H 1139.64 1.69477 -2.45116 0
M  V30 12402 H 1137.18 0.826871 -1.2166 0
M  V30 12403 H 1139.14 3.93476 -1.38681 0
M  V30 12404 H 1137.77 3.18476 -0.526563 0
M  V30 12405 H 1136.82 2.5167 -2.85248 0
M  V30 12406 H 1138.13 3.46135 -3.59154 0
M  V30 12407 H 1137.29 5.53759 -2.47862 0
M  V30 12408 H 1136.03 4.59479 -1.63495 0
M  V30 12409 H 1135.03 3.93229 -3.84254 0
M  V30 12410 H 1136.26 4.90898 -4.6925 0
M  V30 12411 H 1134.2 5.97138 -2.71591 0
M  V30 12412 H 1134.12 6.11822 -4.44083 0
M  V30 12413 H 1135.39 6.92898 -3.57088 0
M  V30 12414 N 1139.62 1.30703 0.880598 0
M  V30 12415 C 1140.86 1.19541 1.62955 0
M  V30 12416 C 1141.18 -0.249089 1.93403 0
M  V30 12417 O 1140.45 -1.1669 1.57354 0
M  V30 12418 H 1139.03 0.439434 0.604075 0
M  V30 12419 H 1141.7 1.63888 1.05483 0
M  V30 12420 H 1140.79 1.75945 2.57779 0
M  V30 12421 N 1141.09 -1.09351 1.1349 0
M  V30 12422 C 1142.02 -2.18037 0.835588 0
M  V30 12423 C 1143 -1.68856 -0.205373 0
M  V30 12424 O 1144.19 -1.94094 -0.0641357 0
M  V30 12425 C 1141.32 -3.45987 0.301661 0
M  V30 12426 C 1140.27 -4.08507 1.27696 0
M  V30 12427 C 1139.6 -5.31292 0.602758 0
M  V30 12428 C 1140.9 -4.50916 2.63575 0
M  V30 12429 H 1142.59 -2.43332 1.74441 0
M  V30 12430 H 1140.14 -1.1695 0.840166 0
M  V30 12431 H 1142.09 -4.21324 0.079928 0
M  V30 12432 H 1140.82 -3.20217 -0.642552 0
M  V30 12433 H 1139.48 -3.3519 1.4847 0
M  V30 12434 H 1139.12 -5.01802 -0.346953 0
M  V30 12435 H 1138.82 -5.74075 1.25345 0
M  V30 12436 H 1140.35 -6.09351 0.390325 0
M  V30 12437 H 1141.76 -5.17474 2.46765 0
M  V30 12438 H 1140.16 -5.04586 3.24827 0
M  V30 12439 H 1141.23 -3.63279 3.2118 0
M  V30 12440 N 1142.57 -0.928524 -1.27343 0
M  V30 12441 C 1143.85 -0.487758 -1.89421 0
M  V30 12442 C 1144.23 1.03418 -1.84032 0
M  V30 12443 O 1143.58 1.8887 -1.2861 0
M  V30 12444 C 1143.79 -1.03478 -3.33307 0
M  V30 12445 C 1145.13 -1.09577 -4.10217 0
M  V30 12446 O 1146.16 -0.984463 -3.42326 0
M  V30 12447 O 1145.02 -1.2673 -5.31603 0
M  V30 12448 H 1142.11 -0.157018 -0.811957 0
M  V30 12449 H 1144.66 -1.02027 -1.35605 0
M  V30 12450 H 1143.43 -2.07861 -3.31526 0
M  V30 12451 H 1143.05 -0.483967 -3.94644 0
M  V30 12452 N 1144.05 1.41491 -0.694123 0
M  V30 12453 C 1145.3 2.0155 -0.224809 0
M  V30 12454 C 1145.63 1.54844 1.17205 0
M  V30 12455 O 1144.9 0.75899 1.7908 0
M  V30 12456 C 1145.19 3.59003 -0.280884 0
M  V30 12457 C 1145.04 4.15839 -1.71458 0
M  V30 12458 C 1146.36 4.38624 0.360122 0
M  V30 12459 H 1143.48 0.732293 -0.0831632 0
M  V30 12460 H 1146.12 1.68258 -0.882569 0
M  V30 12461 H 1144.27 3.87496 0.279164 0
M  V30 12462 H 1145.94 3.98227 -2.32837 0
M  V30 12463 H 1144.18 3.70936 -2.2492 0
M  V30 12464 H 1144.86 5.24997 -1.70536 0
M  V30 12465 H 1147.33 4.15936 -0.11683 0
M  V30 12466 H 1146.21 5.48132 0.290337 0
M  V30 12467 H 1146.47 4.1797 1.44062 0
M  V30 12468 N 1145.53 0.438773 1.51369 0
M  V30 12469 C 1146.46 -0.362467 2.3067 0
M  V30 12470 C 1147.44 -1.01973 1.36145 0
M  V30 12471 O 1148.62 -1.0231 1.65065 0
M  V30 12472 C 1145.75 -1.46313 3.14976 0
M  V30 12473 C 1144.71 -0.929272 4.1779 0
M  V30 12474 C 1144.03 -2.12579 4.90627 0
M  V30 12475 C 1145.33 0.0372782 5.22287 0
M  V30 12476 H 1147.03 0.29931 2.979 0
M  V30 12477 H 1144.57 0.14539 1.43264 0
M  V30 12478 H 1146.53 -2.03088 3.69233 0
M  V30 12479 H 1145.25 -2.15321 2.45569 0
M  V30 12480 H 1143.91 -0.383722 3.64586 0
M  V30 12481 H 1143.56 -2.8021 4.17722 0
M  V30 12482 H 1143.26 -1.77496 5.60151 0
M  V30 12483 H 1144.78 -2.69905 5.47708 0
M  V30 12484 H 1146.2 -0.44022 5.71607 0
M  V30 12485 H 1144.59 0.300748 5.99346 0
M  V30 12486 H 1145.66 0.973503 4.75027 0
M  V30 12487 N 1147.01 -1.56678 0.170181 0
M  V30 12488 C 1148.25 -1.9646 -0.474125 0
M  V30 12489 C 1148.57 -1.05719 -1.63855 0
M  V30 12490 O 1147.84 -0.123316 -1.95511 0
M  V30 12491 H 1146.42 -0.725446 -0.178149 0
M  V30 12492 H 1149.09 -1.93276 0.251099 0
M  V30 12493 H 1148.18 -3.00726 -0.834894 0
M  V30 12494 N 1148.48 0.103547 -1.57259 0
M  V30 12495 C 1149.73 0.806979 -1.8529 0
M  V30 12496 C 1150.05 1.79679 -0.757653 0
M  V30 12497 O 1149.32 1.94695 0.216913 0
M  V30 12498 H 1147.9 0.301012 -0.683667 0
M  V30 12499 H 1150.56 0.0871886 -1.94705 0
M  V30 12500 H 1149.66 1.34275 -2.81738 0
M  V30 12501 N 1149.96 1.53094 0.37415 0
M  V30 12502 C 1151.21 1.69111 1.11934 0
M  V30 12503 C 1151.54 0.437252 1.89213 0
M  V30 12504 O 1150.82 -0.565298 1.86104 0
M  V30 12505 C 1151.1 2.93559 2.08554 0
M  V30 12506 C 1150.95 4.29082 1.3494 0
M  V30 12507 C 1152.27 3.13586 3.08791 0
M  V30 12508 H 1149.39 0.615383 0.405553 0
M  V30 12509 H 1152.03 1.85719 0.401078 0
M  V30 12510 H 1150.18 2.79531 2.69805 0
M  V30 12511 H 1151.85 4.54906 0.765402 0
M  V30 12512 H 1150.1 4.28884 0.651238 0
M  V30 12513 H 1150.77 5.12275 2.05616 0
M  V30 12514 H 1153.24 3.26743 2.57639 0
M  V30 12515 H 1152.12 4.02112 3.73627 0
M  V30 12516 H 1152.38 2.28475 3.78486 0
M  V30 12517 N 1151.44 -0.633461 1.44309 0
M  V30 12518 C 1152.69 -1.38902 1.4625 0
M  V30 12519 C 1153 -1.95354 0.0980699 0
M  V30 12520 O 1154.21 -2.715 -0.0049983 0
M  V30 12521 C 1152.66 -2.51477 2.57463 0
M  V30 12522 C 1152.27 -2.01549 4.00103 0
M  V30 12523 C 1154.02 -3.28698 2.68622 0
M  V30 12524 C 1151.92 -3.11452 5.02744 0
M  V30 12525 H 1150.85 -0.521976 0.544112 0
M  V30 12526 H 1153.5 -0.681725 1.70367 0
M  V30 12527 H 1151.89 -3.24771 2.26582 0
M  V30 12528 H 1153.06 -1.35135 4.4054 0
M  V30 12529 H 1151.37 -1.3715 3.93165 0
M  V30 12530 H 1153.97 -4.10624 3.42479 0
M  V30 12531 H 1154.31 -3.78027 1.7436 0
M  V30 12532 H 1154.85 -2.62494 2.98901 0
M  V30 12533 H 1151.59 -2.6707 5.98627 0
M  V30 12534 H 1151.11 -3.76514 4.66902 0
M  V30 12535 H 1152.79 -3.76265 5.2634 0
M  V30 12536 N 1152.92 -1.31168 -0.873655 0
M  V30 12537 C 1154.2 -1.11285 -1.60857 0
M  V30 12538 C 1154.58 0.333788 -2.08444 0
M  V30 12539 O 1153.92 1.32726 -1.86 0
M  V30 12540 C 1154.13 -2.12379 -2.7694 0
M  V30 12541 C 1155.48 -2.44704 -3.46994 0
M  V30 12542 O 1156.51 -2.10778 -2.87143 0
M  V30 12543 O 1155.36 -3.02786 -4.54954 0
M  V30 12544 H 1152.46 -0.428177 -0.707526 0
M  V30 12545 H 1155 -1.42634 -0.91944 0
M  V30 12546 H 1153.78 -3.09703 -2.39164 0
M  V30 12547 H 1153.4 -1.81914 -3.53544 0
M  V30 12548 N 1154.4 1.08748 -1.14068 0
M  V30 12549 C 1155.31 2.19123 -0.837998 0
M  V30 12550 C 1156.32 1.73065 0.180164 0
M  V30 12551 O 1157.5 2.01398 0.00952285 0
M  V30 12552 C 1154.56 3.45257 -0.316 0
M  V30 12553 C 1153.62 4.05959 -1.39628 0
M  V30 12554 C 1152.86 5.26072 -0.899095 0
M  V30 12555 O 1153.08 5.69804 0.260744 0
M  V30 12556 O 1152.01 5.7808 -1.67652 0
M  V30 12557 H 1155.84 2.4748 -1.76033 0
M  V30 12558 H 1153.43 1.17816 -0.918675 0
M  V30 12559 H 1155.31 4.21389 -0.0306425 0
M  V30 12560 H 1153.98 3.18486 0.578654 0
M  V30 12561 H 1152.89 3.31432 -1.73505 0
M  V30 12562 H 1154.22 4.36971 -2.26533 0
M  V30 12563 N 1155.87 0.935264 1.26849 0
M  V30 12564 C 1157.12 0.578545 1.93642 0
M  V30 12565 C 1157.44 -0.884296 1.73796 0
M  V30 12566 O 1156.71 -1.62768 1.09011 0
M  V30 12567 H 1155.29 0.210976 0.716588 0
M  V30 12568 H 1157.96 1.1893 1.54407 0
M  V30 12569 H 1157.05 0.791268 3.01903 0
M  V30 12570 N 1157.35 -1.41121 0.701616 0
M  V30 12571 C 1158.58 -2.05154 0.244011 0
M  V30 12572 C 1158.99 -1.52922 -1.11407 0
M  V30 12573 O 1158.33 -0.67486 -1.70855 0
M  V30 12574 C 1158.4 -3.59262 0.130773 0
M  V30 12575 C 1158.06 -4.34318 1.42187 0
M  V30 12576 C 1159.06 -4.632 2.36097 0
M  V30 12577 C 1156.74 -4.73481 1.67693 0
M  V30 12578 C 1158.74 -5.30214 3.53768 0
M  V30 12579 C 1156.42 -5.4023 2.85648 0
M  V30 12580 C 1157.42 -5.68524 3.78509 0
M  V30 12581 O 1157.11 -6.33898 4.94397 0
M  V30 12582 H 1156.84 -0.666997 0.109957 0
M  V30 12583 H 1159.39 -1.81771 0.956473 0
M  V30 12584 H 1157.62 -3.81409 -0.637512 0
M  V30 12585 H 1159.31 -4.0486 -0.29044 0
M  V30 12586 H 1160.08 -4.3342 2.17652 0
M  V30 12587 H 1155.96 -4.50835 0.962733 0
M  V30 12588 H 1159.5 -5.52215 4.26267 0
M  V30 12589 H 1155.4 -5.69429 3.04008 0
M  V30 12590 H 1156.17 -6.52394 4.94292 0
M  V30 12591 N 1158.83 -0.446794 -1.51134 0
M  V30 12592 C 1160.25 -0.0995905 -1.59289 0
M  V30 12593 C 1160.45 1.39191 -1.45699 0
M  V30 12594 O 1159.5 2.1628 -1.30303 0
M  V30 12595 C 1160.82 -0.628135 -2.94066 0
M  V30 12596 C 1162.36 -0.589409 -3.074 0
M  V30 12597 C 1162.84 -1.09509 -4.44715 0
M  V30 12598 N 1164.33 -1.05347 -4.51061 0
M  V30 12599 C 1165.06 -1.41551 -5.55654 0
M  V30 12600 N 1164.56 -1.85086 -6.67619 0
M  V30 12601 N 1166.35 -1.33307 -5.46064 0
M  V30 12602 H 1158.5 -1.41713 -1.58213 0
M  V30 12603 H 1160.77 -0.584555 -0.746324 0
M  V30 12604 H 1160.47 -1.67205 -3.09411 0
M  V30 12605 H 1160.35 -0.0582398 -3.77155 0
M  V30 12606 H 1162.73 0.445541 -2.91717 0
M  V30 12607 H 1162.82 -1.19582 -2.26128 0
M  V30 12608 H 1162.46 -2.12855 -4.61146 0
M  V30 12609 H 1162.39 -0.465122 -5.24542 0
M  V30 12610 H 1164.88 -0.733877 -3.70706 0
M  V30 12611 H 1165.19 -2.10923 -7.43459 0
M  V30 12612 H 1163.54 -1.8902 -6.68802 0
M  V30 12613 H 1166.73 -0.991547 -4.57478 0
M  V30 12614 H 1166.9 -1.6185 -6.27462 0
M  V30 12615 N 1160.31 1.56586 -0.178487 0
M  V30 12616 C 1161.56 1.96709 0.4637 0
M  V30 12617 C 1161.88 1.06586 1.63292 0
M  V30 12618 O 1161.15 0.133683 1.95443 0
M  V30 12619 H 1159.73 0.726381 0.174299 0
M  V30 12620 H 1162.39 1.9314 -0.261345 0
M  V30 12621 H 1161.49 3.01164 0.818934 0
M  V30 12622 N 1161.79 -0.095206 1.57312 0
M  V30 12623 C 1162.7 -1.13388 2.05379 0
M  V30 12624 C 1163.71 -1.43868 0.978668 0
M  V30 12625 O 1164.89 -1.54512 1.29182 0
M  V30 12626 C 1161.95 -2.43444 2.46852 0
M  V30 12627 C 1161.01 -2.20146 3.68557 0
M  V30 12628 C 1160.25 -3.44001 4.08043 0
M  V30 12629 O 1160.47 -4.52233 3.47623 0
M  V30 12630 O 1159.4 -3.33596 5.00997 0
M  V30 12631 H 1163.23 -0.755622 2.9415 0
M  V30 12632 H 1160.82 -0.307707 1.46197 0
M  V30 12633 H 1162.7 -3.20027 2.74155 0
M  V30 12634 H 1161.37 -2.80696 1.61219 0
M  V30 12635 H 1160.28 -1.41345 3.46371 0
M  V30 12636 H 1161.61 -1.87787 4.54969 0
M  V30 12637 N 1163.26 -1.53291 -0.366026 0
M  V30 12638 C 1164.51 -1.68671 -1.10602 0
M  V30 12639 C 1164.83 -0.444793 -1.90476 0
M  V30 12640 O 1166.03 -0.479135 -2.67239 0
M  V30 12641 C 1164.49 -2.98174 -2.01545 0
M  V30 12642 C 1164.1 -4.29626 -1.26986 0
M  V30 12643 C 1165.84 -3.22921 -2.7554 0
M  V30 12644 C 1163.75 -5.50218 -2.16828 0
M  V30 12645 H 1162.68 -0.628456 -0.416604 0
M  V30 12646 H 1165.33 -1.79791 -0.367058 0
M  V30 12647 H 1163.71 -2.80855 -2.79171 0
M  V30 12648 H 1164.88 -4.57574 -0.544269 0
M  V30 12649 H 1163.2 -4.11318 -0.648558 0
M  V30 12650 H 1165.8 -4.10202 -3.42985 0
M  V30 12651 H 1166.14 -2.38964 -3.40884 0
M  V30 12652 H 1166.67 -3.40912 -2.04997 0
M  V30 12653 H 1163.41 -6.36651 -1.56063 0
M  V30 12654 H 1162.93 -5.26549 -2.87238 0
M  V30 12655 H 1164.61 -5.84991 -2.76396 0
M  V30 12656 N 1164.74 0.6258 -1.44643 0
M  V30 12657 C 1165.99 1.38251 -1.47414 0
M  V30 12658 C 1166.31 1.94689 -0.110043 0
M  V30 12659 O 1165.58 1.76095 0.858333 0
M  V30 12660 H 1164.16 0.513179 -0.542823 0
M  V30 12661 H 1166.82 0.736179 -1.80462 0
M  V30 12662 H 1165.92 2.21115 -2.2026 0
M  V30 12663 N 1166.22 1.31629 0.866686 0
M  V30 12664 C 1167.47 1.21683 1.62238 0
M  V30 12665 C 1167.8 -0.223767 1.92907 0
M  V30 12666 O 1167.07 -1.15761 1.563 0
M  V30 12667 C 1167.36 2.06443 2.95048 0
M  V30 12668 C 1167.21 3.58818 2.71237 0
M  V30 12669 C 1168.53 1.91634 3.96187 0
M  V30 12670 H 1165.65 0.443389 0.588707 0
M  V30 12671 H 1168.29 1.61453 1.00164 0
M  V30 12672 H 1166.44 1.72654 3.48027 0
M  V30 12673 H 1168.11 4.0276 2.24905 0
M  V30 12674 H 1166.36 3.82085 2.05411 0
M  V30 12675 H 1167.03 4.13436 3.65752 0
M  V30 12676 H 1169.5 2.21209 3.52428 0
M  V30 12677 H 1168.38 2.53236 4.86993 0
M  V30 12678 H 1168.64 0.880564 4.33242 0
M  V30 12679 N 1167.7 -1.08142 1.14644 0
M  V30 12680 C 1168.95 -1.79959 0.910908 0
M  V30 12681 C 1169.26 -1.87296 -0.563866 0
M  V30 12682 O 1170.47 -2.55555 -0.916735 0
M  V30 12683 C 1168.92 -3.23351 1.58025 0
M  V30 12684 C 1168.53 -3.2424 3.09148 0
M  V30 12685 C 1170.28 -3.99834 1.42595 0
M  V30 12686 C 1168.18 -4.62236 3.68906 0
M  V30 12687 H 1167.11 -0.674423 0.33715 0
M  V30 12688 H 1169.76 -1.21441 1.37566 0
M  V30 12689 H 1168.15 -3.82013 1.04318 0
M  V30 12690 H 1169.32 -2.75269 3.69545 0
M  V30 12691 H 1167.63 -2.61253 3.24246 0
M  V30 12692 H 1170.23 -5.01809 1.8464 0
M  V30 12693 H 1170.57 -4.14631 0.372402 0
M  V30 12694 H 1171.11 -3.47648 1.93354 0
M  V30 12695 H 1167.85 -4.52642 4.74126 0
M  V30 12696 H 1167.37 -5.11477 3.1329 0
M  V30 12697 H 1169.05 -5.3121 3.69358 0
M  V30 12698 N 1169.18 -0.941978 -1.26351 0
M  V30 12699 C 1170.11 -0.396486 -2.24729 0
M  V30 12700 C 1171.09 0.51514 -1.54224 0
M  V30 12701 O 1172.27 0.452405 -1.82991 0
M  V30 12702 C 1169.4 0.430232 -3.35956 0
M  V30 12703 C 1168.45 -0.419981 -4.24427 0
M  V30 12704 S 1169.28 -1.84442 -5.02734 0
M  V30 12705 C 1170.43 -1.02578 -6.17437 0
M  V30 12706 H 1170.67 -1.23025 -2.70651 0
M  V30 12707 H 1168.2 -0.745148 -1.35229 0
M  V30 12708 H 1170.16 0.901315 -4.00483 0
M  V30 12709 H 1168.82 1.23868 -2.88644 0
M  V30 12710 H 1168.01 0.213475 -5.03548 0
M  V30 12711 H 1167.61 -0.82578 -3.6477 0
M  V30 12712 H 1169.91 -0.268431 -6.76968 0
M  V30 12713 H 1170.85 -1.79047 -6.85089 0
M  V30 12714 H 1171.26 -0.561488 -5.61701 0
M  V30 12715 N 1170.66 1.40747 -0.709091 0
M  V30 12716 C 1171.9 2.00233 -0.242836 0
M  V30 12717 C 1172.22 1.56853 1.1686 0
M  V30 12718 O 1173.42 2.08993 1.73304 0
M  V30 12719 C 1171.88 3.57854 -0.383241 0
M  V30 12720 C 1171.49 4.10209 -1.80091 0
M  V30 12721 C 1173.23 4.24494 0.0225511 0
M  V30 12722 C 1171.14 5.60311 -1.89225 0
M  V30 12723 H 1170.07 0.74896 -0.087034 0
M  V30 12724 H 1172.72 1.61064 -0.879243 0
M  V30 12725 H 1171.1 3.94692 0.321642 0
M  V30 12726 H 1172.28 3.84762 -2.53564 0
M  V30 12727 H 1170.59 3.56142 -2.15758 0
M  V30 12728 H 1173.19 5.34694 -0.0250644 0
M  V30 12729 H 1173.53 4.02488 1.06344 0
M  V30 12730 H 1174.06 3.92739 -0.632541 0
M  V30 12731 H 1170.8 5.87162 -2.91412 0
M  V30 12732 H 1170.32 5.87642 -1.20154 0
M  V30 12733 H 1172 6.25306 -1.66136 0
M  V30 12734 N 1172.13 0.454803 1.50895 0
M  V30 12735 C 1173.08 -0.361974 2.29766 0
M  V30 12736 C 1174.08 -1.00519 1.36353 0
M  V30 12737 O 1175.28 -0.938159 1.53618 0
M  V30 12738 H 1171.66 -0.135559 0.739681 0
M  V30 12739 H 1173.63 0.323853 2.96637 0
M  V30 12740 C 1172.38 -1.44078 3.16444 0
M  V30 12741 H 1171.7 -0.955212 3.88221 0
M  V30 12742 H 1173.14 -1.98518 3.74655 0
M  V30 12743 C 1171.6 -2.43374 2.32961 0
M  V30 12744 O 1172.13 -3.48295 2.00133 0
M  V30 12745 N 1170.33 -2.14689 1.95849 0
M  V30 12746 H 1169.88 -1.29392 2.22745 0
M  V30 12747 H 1169.84 -2.81363 1.40292 0
M  V30 12748 N 1173.61 -1.56489 0.186789 0
M  V30 12749 C 1174.86 -1.97634 -0.454831 0
M  V30 12750 C 1175.19 -1.07334 -1.61843 0
M  V30 12751 O 1174.47 -0.123612 -1.94107 0
M  V30 12752 C 1174.75 -3.48071 -0.922962 0
M  V30 12753 C 1174.6 -4.49149 0.241877 0
M  V30 12754 C 1175.92 -4.01994 -1.79134 0
M  V30 12755 H 1173.04 -0.718555 -0.163854 0
M  V30 12756 H 1175.68 -1.87984 0.27604 0
M  V30 12757 H 1173.83 -3.56425 -1.54575 0
M  V30 12758 H 1175.5 -4.52841 0.87936 0
M  V30 12759 H 1173.75 -4.24468 0.894964 0
M  V30 12760 H 1174.42 -5.51851 -0.128051 0
M  V30 12761 H 1176.89 -3.96367 -1.26618 0
M  V30 12762 H 1175.77 -5.07641 -2.08787 0
M  V30 12763 H 1176.03 -3.46747 -2.74261 0
M  V30 12764 N 1175.09 0.086862 -1.5736 0
M  V30 12765 C 1176.31 0.806017 -1.91097 0
M  V30 12766 C 1176.74 1.71082 -0.78183 0
M  V30 12767 O 1176.1 1.79335 0.266175 0
M  V30 12768 C 1176.15 1.5884 -3.23732 0
M  V30 12769 O 1175.25 2.69798 -3.11902 0
M  V30 12770 H 1174.59 0.220899 -0.626179 0
M  V30 12771 H 1177.12 0.059619 -2.04513 0
M  V30 12772 H 1177.13 1.97088 -3.5724 0
M  V30 12773 H 1175.81 0.924426 -4.05496 0
M  V30 12774 H 1174.38 2.34519 -2.89923 0
M  V30 12775 N 1176.57 1.53483 0.357892 0
M  V30 12776 C 1177.98 1.43426 0.700073 0
M  V30 12777 C 1178.18 0.579493 1.92987 0
M  V30 12778 O 1177.24 0.0649086 2.52417 0
M  V30 12779 C 1178.55 2.86723 0.906099 0
M  V30 12780 C 1180.1 2.96405 1.00563 0
M  V30 12781 C 1180.58 4.4078 1.24407 0
M  V30 12782 N 1182.07 4.44243 1.3116 0
M  V30 12783 C 1182.8 5.53069 1.51333 0
M  V30 12784 N 1182.3 6.71928 1.68774 0
M  V30 12785 N 1184.09 5.40659 1.53765 0
M  V30 12786 H 1176.24 2.07559 -0.450894 0
M  V30 12787 H 1178.5 0.937649 -0.139711 0
M  V30 12788 H 1178.21 3.51622 0.0741579 0
M  V30 12789 H 1178.08 3.30827 1.81199 0
M  V30 12790 H 1180.47 2.31656 1.8281 0
M  V30 12791 H 1180.55 2.55684 0.0769512 0
M  V30 12792 H 1180.2 5.06105 0.426575 0
M  V30 12793 H 1180.13 4.7908 2.18608 0
M  V30 12794 H 1182.62 3.58587 1.19265 0
M  V30 12795 H 1182.93 7.50634 1.83762 0
M  V30 12796 H 1181.28 6.749 1.65937 0
M  V30 12797 H 1184.47 4.46764 1.39713 0
M  V30 12798 H 1184.64 6.25535 1.69146 0
M  V30 12799 N 1178.05 -0.61812 1.44973 0
M  V30 12800 C 1178.99 -1.72942 1.52838 0
M  V30 12801 C 1179.96 -1.6181 0.375056 0
M  V30 12802 O 1181.15 -1.81544 0.587075 0
M  V30 12803 C 1178.29 -3.11228 1.49101 0
M  V30 12804 C 1177.4 -3.33243 2.74906 0
M  V30 12805 C 1176.54 -4.61574 2.62912 0
M  V30 12806 C 1175.57 -4.76811 3.8382 0
M  V30 12807 N 1174.71 -5.96432 3.70424 0
M  V30 12808 H 1179.55 -1.65556 2.47781 0
M  V30 12809 H 1177.09 -0.807411 1.2296 0
M  V30 12810 H 1179.05 -3.9122 1.44923 0
M  V30 12811 H 1177.68 -3.17598 0.577163 0
M  V30 12812 H 1176.73 -2.471 2.89216 0
M  V30 12813 H 1178.04 -3.40377 3.64616 0
M  V30 12814 H 1177.19 -5.49746 2.56641 0
M  V30 12815 H 1175.93 -4.5682 1.70784 0
M  V30 12816 H 1174.94 -3.87066 3.90461 0
M  V30 12817 H 1176.16 -4.83371 4.77001 0
M  V30 12818 H 1174.11 -5.92742 2.81057 0
M  V30 12819 H 1174.03 -6.0468 4.5376 0
M  V30 12820 H 1175.29 -6.8713 3.68067 0
M  V30 12821 N 1179.52 -1.32087 -0.859693 0
M  V30 12822 C 1180.75 -1.25486 -1.6513 0
M  V30 12823 C 1181.17 0.175015 -1.87284 0
M  V30 12824 O 1180.53 1.12468 -1.42199 0
M  V30 12825 C 1180.58 -2.01469 -2.9907 0
M  V30 12826 O 1179.68 -1.35904 -3.89363 0
M  V30 12827 H 1179.02 -0.432728 -0.503629 0
M  V30 12828 H 1181.55 -1.74322 -1.07112 0
M  V30 12829 H 1181.56 -2.11452 -3.4893 0
M  V30 12830 H 1180.24 -3.05448 -2.82266 0
M  V30 12831 H 1178.82 -1.34437 -3.47823 0
M  V30 12832 N 1181 1.07532 -1.15215 0
M  V30 12833 C 1182.25 1.79474 -0.920439 0
M  V30 12834 C 1182.56 1.87593 0.553926 0
M  V30 12835 O 1183.77 2.56037 0.903169 0
M  V30 12836 C 1182.23 3.22509 -1.59738 0
M  V30 12837 C 1181.83 3.22596 -3.10863 0
M  V30 12838 C 1183.58 3.99072 -1.44714 0
M  V30 12839 C 1181.48 4.60273 -3.71352 0
M  V30 12840 H 1180.41 0.672625 -0.340722 0
M  V30 12841 H 1183.07 1.2071 -1.38208 0
M  V30 12842 H 1181.45 3.81454 -1.06342 0
M  V30 12843 H 1182.62 2.73306 -3.70999 0
M  V30 12844 H 1180.94 2.5953 -3.25627 0
M  V30 12845 H 1183.53 5.00823 -1.87299 0
M  V30 12846 H 1183.88 4.14428 -0.394386 0
M  V30 12847 H 1184.41 3.46617 -1.95195 0
M  V30 12848 H 1181.15 4.50122 -4.76519 0
M  V30 12849 H 1180.67 5.09809 -3.15998 0
M  V30 12850 H 1182.35 5.29243 -3.7217 0
M  V30 12851 N 1182.48 0.948665 1.2585 0
M  V30 12852 C 1183.71 0.617229 1.97479 0
M  V30 12853 C 1184.12 -0.809406 1.7057 0
M  V30 12854 O 1183.48 -1.54066 0.97826 0
M  V30 12855 C 1183.53 0.859065 3.51144 0
M  V30 12856 O 1183.25 2.2296 3.77121 0
M  V30 12857 C 1184.75 0.539197 4.40009 0
M  V30 12858 H 1181.97 0.231933 0.629641 0
M  V30 12859 H 1184.52 1.27141 1.60173 0
M  V30 12860 H 1182.67 0.25138 3.86584 0
M  V30 12861 H 1183.09 2.29524 4.71613 0
M  V30 12862 H 1184.56 0.758986 5.46757 0
M  V30 12863 H 1185.04 -0.526062 4.36038 0
M  V30 12864 H 1185.64 1.12594 4.10125 0
M  V30 12865 N 1183.96 -1.40369 0.716545 0
M  V30 12866 C 1184.89 -2.33365 0.0793533 0
M  V30 12867 C 1185.87 -1.52943 -0.744482 0
M  V30 12868 O 1187.05 -1.81406 -0.693212 0
M  V30 12869 C 1184.18 -3.36928 -0.842429 0
M  V30 12870 C 1183.14 -4.2782 -0.124142 0
M  V30 12871 C 1182.46 -5.21928 -1.1617 0
M  V30 12872 C 1183.76 -5.12199 1.02224 0
M  V30 12873 H 1185.46 -2.86899 0.856115 0
M  V30 12874 H 1183 -1.37946 0.413138 0
M  V30 12875 H 1184.96 -4.00925 -1.29759 0
M  V30 12876 H 1183.68 -2.81791 -1.6511 0
M  V30 12877 H 1182.34 -3.65277 0.311201 0
M  V30 12878 H 1181.99 -4.63096 -1.96345 0
M  V30 12879 H 1181.69 -5.83582 -0.685978 0
M  V30 12880 H 1183.21 -5.88802 -1.61694 0
M  V30 12881 H 1184.63 -5.69644 0.646399 0
M  V30 12882 H 1183.02 -5.82901 1.4264 0
M  V30 12883 H 1184.09 -4.4812 1.85246 0
M  V30 12884 N 1185.44 -0.462799 -1.50652 0
M  V30 12885 C 1186.37 0.381469 -2.24989 0
M  V30 12886 C 1187.35 1.00328 -1.27957 0
M  V30 12887 O 1188.53 1.04082 -1.5716 0
M  V30 12888 C 1185.66 1.53378 -3.01981 0
M  V30 12889 C 1184.7 1.03017 -4.13872 0
M  V30 12890 S 1185.54 -0.048447 -5.35478 0
M  V30 12891 C 1186.69 1.10794 -6.16016 0
M  V30 12892 H 1186.93 -0.249578 -2.96251 0
M  V30 12893 H 1184.46 -0.247583 -1.52402 0
M  V30 12894 H 1186.42 2.19425 -3.46934 0
M  V30 12895 H 1185.08 2.13632 -2.30261 0
M  V30 12896 H 1184.27 1.8926 -4.67115 0
M  V30 12897 H 1183.87 0.447548 -3.71313 0
M  V30 12898 H 1186.17 2.02125 -6.46646 0
M  V30 12899 H 1187.11 0.614937 -7.05425 0
M  V30 12900 H 1187.52 1.35802 -5.47922 0
M  V30 12901 N 1186.91 1.56388 -0.195085 0
M  V30 12902 C 1187.82 2.22698 0.737743 0
M  V30 12903 C 1188.84 1.22605 1.23466 0
M  V30 12904 O 1190.02 1.55342 1.28183 0
M  V30 12905 C 1187.08 2.87333 1.94011 0
M  V30 12906 C 1186.14 4.02696 1.48776 0
M  V30 12907 C 1185.38 4.64239 2.63282 0
M  V30 12908 O 1185.6 4.24706 3.80763 0
M  V30 12909 O 1184.53 5.53705 2.35996 0
M  V30 12910 H 1188.36 3.03021 0.203013 0
M  V30 12911 H 1185.94 1.49361 0.0342044 0
M  V30 12912 H 1187.83 3.28226 2.64284 0
M  V30 12913 H 1186.5 2.0999 2.46345 0
M  V30 12914 H 1185.41 3.66426 0.753839 0
M  V30 12915 H 1186.74 4.81703 1.01109 0
M  V30 12916 N 1188.39 -0.0785156 1.57404 0
M  V30 12917 C 1189.81 -0.433143 1.5361 0
M  V30 12918 C 1190.01 -1.79564 0.914283 0
M  V30 12919 O 1189.06 -2.47215 0.513899 0
M  V30 12920 C 1190.38 -0.380387 2.98284 0
M  V30 12921 C 1191.93 -0.461056 3.09586 0
M  V30 12922 C 1192.4 -0.438276 4.55898 0
M  V30 12923 N 1193.89 -0.498548 4.60509 0
M  V30 12924 C 1194.63 -0.503028 5.71189 0
M  V30 12925 N 1194.12 -0.462724 6.91253 0
M  V30 12926 N 1195.92 -0.549083 5.59412 0
M  V30 12927 H 1188.07 0.813724 1.96195 0
M  V30 12928 H 1190.33 0.304644 0.897717 0
M  V30 12929 H 1190.04 0.553932 3.4731 0
M  V30 12930 H 1189.91 -1.19313 3.57833 0
M  V30 12931 H 1192.3 -1.3858 2.60537 0
M  V30 12932 H 1192.38 0.380138 2.5296 0
M  V30 12933 H 1192.02 0.482588 5.05602 0
M  V30 12934 H 1191.95 -1.29691 5.1038 0
M  V30 12935 H 1194.44 -0.534219 3.74105 0
M  V30 12936 H 1194.76 -0.469883 7.7137 0
M  V30 12937 H 1193.1 -0.429515 6.93672 0
M  V30 12938 H 1196.29 -0.578215 4.64515 0
M  V30 12939 H 1196.46 -0.549105 6.45669 0
M  V30 12940 N 1189.87 -1.5367 -0.349747 0
M  V30 12941 C 1190.8 -1.77528 -1.4497 0
M  V30 12942 C 1191.82 -0.656412 -1.4898 0
M  V30 12943 O 1193 -0.933016 -1.52174 0
M  V30 12944 C 1190.1 -1.85445 -2.8366 0
M  V30 12945 C 1189.28 -3.15295 -3.03163 0
M  V30 12946 C 1188.34 -3.1425 -4.22059 0
M  V30 12947 O 1187.36 -3.87994 -4.16472 0
M  V30 12948 N 1188.56 -2.36181 -5.30282 0
M  V30 12949 H 1191.33 -2.72444 -1.24877 0
M  V30 12950 H 1188.89 -1.52644 -0.539586 0
M  V30 12951 H 1190.88 -1.82204 -3.61364 0
M  V30 12952 H 1189.45 -0.977436 -2.96926 0
M  V30 12953 H 1188.67 -3.31711 -2.12983 0
M  V30 12954 H 1189.96 -4.01078 -3.13072 0
M  V30 12955 H 1189.36 -1.75808 -5.37688 0
M  V30 12956 H 1187.92 -2.38744 -6.06502 0
M  V30 12957 N 1191.35 0.610423 -1.45298 0
M  V30 12958 C 1192.3 1.7213 -1.53753 0
M  V30 12959 C 1193.27 1.61609 -0.383632 0
M  V30 12960 O 1194.45 1.8123 -0.596694 0
M  V30 12961 C 1191.59 3.10433 -1.50749 0
M  V30 12962 C 1190.7 3.3178 -2.76669 0
M  V30 12963 C 1189.84 4.60173 -2.65356 0
M  V30 12964 C 1188.88 4.74769 -3.86343 0
M  V30 12965 N 1188.01 5.94459 -3.73581 0
M  V30 12966 H 1192.85 1.64239 -2.48655 0
M  V30 12967 H 1190.39 0.800879 -1.23387 0
M  V30 12968 H 1192.35 3.90446 -1.46996 0
M  V30 12969 H 1190.98 3.17288 -0.593998 0
M  V30 12970 H 1190.03 2.45563 -2.90522 0
M  V30 12971 H 1191.34 3.38439 -3.66416 0
M  V30 12972 H 1190.5 5.48377 -2.59553 0
M  V30 12973 H 1189.24 4.55907 -1.73204 0
M  V30 12974 H 1188.24 3.8499 -3.92509 0
M  V30 12975 H 1189.47 4.80834 -4.79557 0
M  V30 12976 H 1187.41 5.91243 -2.84196 0
M  V30 12977 H 1187.33 6.02265 -4.5696 0
M  V30 12978 H 1188.6 6.85168 -3.71705 0
M  V30 12979 N 1192.83 1.32541 0.852676 0
M  V30 12980 C 1194.08 1.22567 1.60188 0
M  V30 12981 C 1194.39 -0.210594 1.94463 0
M  V30 12982 O 1195.59 -0.432214 2.68038 0
M  V30 12983 C 1194.05 2.14678 2.88862 0
M  V30 12984 C 1193.66 3.63398 2.62004 0
M  V30 12985 C 1195.4 2.13545 3.66877 0
M  V30 12986 C 1193.31 4.47464 3.86691 0
M  V30 12987 H 1192.24 0.455184 0.601102 0
M  V30 12988 H 1194.89 1.57515 0.941347 0
M  V30 12989 H 1193.27 1.72647 3.56383 0
M  V30 12990 H 1194.45 4.13783 2.02782 0
M  V30 12991 H 1192.76 3.66681 1.97316 0
M  V30 12992 H 1195.36 2.73589 4.59405 0
M  V30 12993 H 1195.7 1.12694 4.00756 0
M  V30 12994 H 1196.23 2.53866 3.06263 0
M  V30 12995 H 1192.97 5.49136 3.57952 0
M  V30 12996 H 1192.49 4.01829 4.45302 0
M  V30 12997 H 1194.17 4.60565 4.5441 0
M  V30 12998 N 1194.3 -1.0692 1.15784 0
M  V30 12999 C 1195.27 -2.12407 0.861167 0
M  V30 13000 C 1196.27 -1.6018 -0.141031 0
M  V30 13001 O 1197.46 -1.73972 0.0891192 0
M  V30 13002 C 1194.59 -3.39693 0.286636 0
M  V30 13003 H 1195.78 -2.40157 1.79623 0
M  V30 13004 H 1193.34 -1.22881 0.965916 0
M  V30 13005 H 1194.07 -3.17587 -0.656417 0
M  V30 13006 H 1193.86 -3.78903 1.0087 0
M  V30 13007 H 1195.35 -4.17488 0.0967971 0
M  V30 13008 N 1195.78 -0.955326 -1.25345 0
M  V30 13009 C 1196.71 -0.4334 -2.25065 0
M  V30 13010 C 1197.73 0.451099 -1.56425 0
M  V30 13011 O 1198.92 0.259265 -1.76607 0
M  V30 13012 C 1196.02 0.394809 -3.36592 0
M  V30 13013 C 1195.19 -0.476856 -4.34793 0
M  V30 13014 C 1194.25 0.293269 -5.25382 0
M  V30 13015 O 1193.27 -0.30857 -5.68363 0
M  V30 13016 N 1194.48 1.58617 -5.58409 0
M  V30 13017 H 1197.24 -1.29073 -2.70482 0
M  V30 13018 H 1194.8 -0.825764 -1.39258 0
M  V30 13019 H 1196.79 0.917747 -3.94157 0
M  V30 13020 H 1195.36 1.153 -2.90559 0
M  V30 13021 H 1194.58 -1.18089 -3.76097 0
M  V30 13022 H 1195.87 -1.07178 -4.97384 0
M  V30 13023 H 1195.27 2.09705 -5.25395 0
M  V30 13024 H 1193.83 2.05506 -6.18555 0
M  V30 13025 N 1197.26 1.39987 -0.723979 0
M  V30 13026 C 1198.19 2.3332 -0.0917282 0
M  V30 13027 C 1199.17 1.53335 0.736361 0
M  V30 13028 O 1200.36 1.81771 0.683582 0
M  V30 13029 C 1197.49 3.3737 0.824549 0
M  V30 13030 C 1196.44 4.2788 0.101452 0
M  V30 13031 C 1195.77 5.22536 1.13401 0
M  V30 13032 C 1197.07 5.11649 -1.04939 0
M  V30 13033 H 1198.76 2.86441 -0.871318 0
M  V30 13034 H 1196.31 1.37725 -0.420448 0
M  V30 13035 H 1198.26 4.01607 1.27631 0
M  V30 13036 H 1196.98 2.82663 1.63613 0
M  V30 13037 H 1195.64 3.65107 -0.330569 0
M  V30 13038 H 1195.29 4.64131 1.93886 0
M  V30 13039 H 1194.99 5.83938 0.65502 0
M  V30 13040 H 1196.52 5.89651 1.58569 0
M  V30 13041 H 1197.93 5.69293 -0.6766 0
M  V30 13042 H 1196.33 5.82137 -1.45729 0
M  V30 13043 H 1197.4 4.47132 -1.8762 0
M  V30 13044 N 1198.74 0.470782 1.50404 0
M  V30 13045 C 1199.99 -0.0859981 2.01517 0
M  V30 13046 C 1200.3 -1.40811 1.35763 0
M  V30 13047 O 1201.51 -2.04982 1.7803 0
M  V30 13048 C 1199.96 -0.203773 3.59323 0
M  V30 13049 C 1199.57 1.10989 4.34034 0
M  V30 13050 C 1201.32 -0.712528 4.18477 0
M  V30 13051 C 1199.22 0.955928 5.83623 0
M  V30 13052 H 1198.15 -0.0359142 0.753144 0
M  V30 13053 H 1200.8 0.605631 1.73218 0
M  V30 13054 H 1199.19 -0.959177 3.84208 0
M  V30 13055 H 1200.36 1.87623 4.20873 0
M  V30 13056 H 1198.67 1.54973 3.86487 0
M  V30 13057 H 1201.27 -0.844745 5.27985 0
M  V30 13058 H 1201.61 -1.70377 3.79838 0
M  V30 13059 H 1202.15 -0.0145179 3.97797 0
M  V30 13060 H 1198.89 1.92054 6.26734 0
M  V30 13061 H 1198.41 0.22997 5.99359 0
M  V30 13062 H 1200.09 0.622423 6.43999 0
M  V30 13063 N 1200.22 -1.56282 0.203376 0
M  V30 13064 C 1201.47 -1.96987 -0.433461 0
M  V30 13065 C 1201.78 -1.09344 -1.62183 0
M  V30 13066 O 1202.99 -1.39868 -2.327 0
M  V30 13067 C 1201.44 -3.50374 -0.82257 0
M  V30 13068 C 1201.05 -4.46693 0.341969 0
M  V30 13069 C 1202.79 -3.99831 -1.42603 0
M  V30 13070 C 1200.7 -5.9136 -0.0685608 0
M  V30 13071 H 1199.63 -0.735564 -0.165717 0
M  V30 13072 H 1202.28 -1.81085 0.296708 0
M  V30 13073 H 1200.66 -3.6181 -1.60964 0
M  V30 13074 H 1201.84 -4.46994 1.11952 0
M  V30 13075 H 1200.15 -4.07476 0.857463 0
M  V30 13076 H 1202.75 -5.05398 -1.74577 0
M  V30 13077 H 1203.09 -3.4462 -2.33544 0
M  V30 13078 H 1203.63 -3.91543 -0.702758 0
M  V30 13079 H 1200.36 -6.50515 0.80688 0
M  V30 13080 H 1199.88 -5.94295 -0.810798 0
M  V30 13081 H 1201.56 -6.45053 -0.501525 0
M  V30 13082 N 1201.7 0.070167 -1.57444 0
M  V30 13083 C 1202.63 1.08351 -2.06839 0
M  V30 13084 C 1203.61 1.40269 -0.962224 0
M  V30 13085 O 1204.79 1.49867 -1.23505 0
M  V30 13086 C 1201.92 2.39649 -2.51368 0
M  V30 13087 C 1200.88 2.22079 -3.65875 0
M  V30 13088 C 1200.2 3.58776 -3.96464 0
M  V30 13089 C 1201.5 1.64069 -4.95862 0
M  V30 13090 H 1203.2 0.672465 -2.9175 0
M  V30 13091 H 1200.74 0.322027 -1.40353 0
M  V30 13092 H 1202.69 3.10833 -2.84537 0
M  V30 13093 H 1201.42 2.82736 -1.63487 0
M  V30 13094 H 1200.08 1.53337 -3.32992 0
M  V30 13095 H 1199.73 3.99436 -3.05712 0
M  V30 13096 H 1199.43 3.47859 -4.7357 0
M  V30 13097 H 1200.95 4.31387 -4.32131 0
M  V30 13098 H 1202.36 2.2512 -5.27251 0
M  V30 13099 H 1200.76 1.63843 -5.773 0
M  V30 13100 H 1201.83 0.60232 -4.81145 0
M  V30 13101 N 1203.17 1.53854 0.341593 0
M  V30 13102 C 1204.58 1.62623 0.917093 0
M  V30 13103 C 1204.94 0.508781 1.89488 0
M  V30 13104 O 1204.06 -0.361171 2.13365 0
M  V30 13105 C 1204.66 2.94775 1.67012 0
M  V30 13106 C 1203.21 3.058 2.19461 0
M  V30 13107 C 1202.36 2.58082 1.01433 0
M  V30 13108 H 1205.31 1.58248 0.119674 0
M  V30 13109 H 1205.33 2.83924 2.53313 0
M  V30 13110 H 1204.85 3.76085 0.958221 0
M  V30 13111 H 1202.95 2.29128 2.93821 0
M  V30 13112 H 1203.06 4.11302 2.45698 0
M  V30 13113 H 1201.42 2.13537 1.38831 0
M  V30 13114 H 1202.21 3.41833 0.317033 0
M  V30 13115 N 1204.65 -0.602709 1.4562 0
M  V30 13116 C 1205.89 -1.37284 1.51435 0
M  V30 13117 C 1206.26 -1.9138 0.154148 0
M  V30 13118 O 1207.46 -2.68659 0.0870009 0
M  V30 13119 C 1205.73 -2.48651 2.56724 0
M  V30 13120 S 1207.29 -3.36354 2.818 0
M  V30 13121 H 1204.1 -0.46798 0.535272 0
M  V30 13122 H 1206.71 -0.694957 1.82731 0
M  V30 13123 H 1205.41 -2.07267 3.54215 0
M  V30 13124 H 1204.94 -3.21234 2.27095 0
M  V30 13125 H 1206.96 -4.46937 2.15549 0
M  V30 13126 N 1206.13 -1.32992 -0.845635 0
M  V30 13127 C 1207.08 -1.22682 -1.95494 0
M  V30 13128 C 1208.05 -0.106942 -1.65755 0
M  V30 13129 O 1209.23 -0.28405 -1.88674 0
M  V30 13130 C 1206.37 -0.965068 -3.31331 0
M  V30 13131 C 1205.48 -2.17058 -3.7351 0
M  V30 13132 C 1204.62 -1.84355 -4.98183 0
M  V30 13133 C 1203.66 -3.01176 -5.32878 0
M  V30 13134 N 1202.8 -2.68506 -6.48729 0
M  V30 13135 H 1207.64 -2.17562 -2.03644 0
M  V30 13136 H 1205.17 -1.08194 -0.996613 0
M  V30 13137 H 1207.13 -0.793771 -4.09579 0
M  V30 13138 H 1205.76 -0.0530285 -3.22756 0
M  V30 13139 H 1204.81 -2.45185 -2.90841 0
M  V30 13140 H 1206.12 -3.04413 -3.95138 0
M  V30 13141 H 1205.28 -1.6383 -5.84162 0
M  V30 13142 H 1204.02 -0.942264 -4.78511 0
M  V30 13143 H 1203.02 -3.22323 -4.45408 0
M  V30 13144 H 1204.25 -3.9205 -5.54503 0
M  V30 13145 H 1202.19 -1.80929 -6.30556 0
M  V30 13146 H 1202.11 -3.49392 -6.70419 0
M  V30 13147 H 1203.38 -2.51432 -7.37836 0
M  V30 13148 N 1207.61 1.06304 -1.1635 0
M  V30 13149 C 1208.56 2.12032 -0.83825 0
M  V30 13150 C 1209.54 1.59864 0.182254 0
M  V30 13151 O 1210.73 1.7699 -0.0185576 0
M  V30 13152 C 1207.86 3.41603 -0.340968 0
M  V30 13153 C 1206.95 4.00596 -1.39225 0
M  V30 13154 N 1207.34 4.33703 -2.6026 0
M  V30 13155 C 1205.64 4.28199 -1.24748 0
M  V30 13156 C 1206.34 4.80595 -3.27725 0
M  V30 13157 N 1205.31 4.80023 -2.55105 0
M  V30 13158 H 1209.12 2.35475 -1.75866 0
M  V30 13159 H 1206.63 1.23845 -1.05053 0
M  V30 13160 H 1208.63 4.16804 -0.0895629 0
M  V30 13161 H 1207.29 3.19598 0.57337 0
M  V30 13162 H 1208.3 4.24055 -2.97318 0
M  V30 13163 H 1204.98 4.15638 -0.393887 0
M  V30 13164 H 1206.37 5.15416 -4.31041 0
M  V30 13165 N 1209.09 0.96196 1.24836 0
M  V30 13166 C 1210 0.494876 2.29321 0
M  V30 13167 C 1211.01 -0.441363 1.68309 0
M  V30 13168 O 1212.19 -0.315814 1.98908 0
M  V30 13169 C 1209.25 -0.212944 3.46045 0
M  V30 13170 C 1208.31 0.762411 4.22476 0
M  V30 13171 C 1207.55 0.0882756 5.33627 0
M  V30 13172 O 1207.77 -1.12459 5.59204 0
M  V30 13173 O 1206.7 0.777529 5.96857 0
M  V30 13174 H 1210.53 1.36333 2.7138 0
M  V30 13175 H 1208.11 0.728738 1.30421 0
M  V30 13176 H 1210 -0.610805 4.1695 0
M  V30 13177 H 1208.67 -1.05645 3.05975 0
M  V30 13178 H 1207.58 1.21062 3.5397 0
M  V30 13179 H 1208.91 1.57416 4.66349 0
M  V30 13180 N 1210.56 -1.39601 0.731392 0
M  V30 13181 C 1211.81 -2.00883 0.278168 0
M  V30 13182 C 1212.14 -1.57897 -1.13059 0
M  V30 13183 O 1211.42 -0.806203 -1.77005 0
M  V30 13184 C 1211.7 -3.58132 0.375969 0
M  V30 13185 C 1211.55 -4.11147 1.82423 0
M  V30 13186 C 1212.87 -4.39425 -0.243702 0
M  V30 13187 H 1209.99 -0.729831 0.102549 0
M  V30 13188 H 1212.63 -1.65859 0.926869 0
M  V30 13189 H 1210.78 -3.881 -0.176329 0
M  V30 13190 H 1212.46 -3.91914 2.43313 0
M  V30 13191 H 1210.7 -3.64842 2.34675 0
M  V30 13192 H 1211.37 -5.20291 1.84396 0
M  V30 13193 H 1213.85 -4.1548 0.227067 0
M  V30 13194 H 1212.72 -5.48709 -0.144907 0
M  V30 13195 H 1212.98 -4.21642 -1.32929 0
M  V30 13196 N 1212.04 -0.478751 -1.50152 0
M  V30 13197 C 1212.97 0.301182 -2.31549 0
M  V30 13198 C 1213.95 0.983276 -1.38801 0
M  V30 13199 O 1215.14 0.978973 -1.67719 0
M  V30 13200 C 1212.27 1.3791 -3.18745 0
M  V30 13201 C 1211.22 0.818175 -4.20107 0
M  V30 13202 C 1210.55 1.99496 -4.9609 0
M  V30 13203 C 1211.85 -0.17574 -5.22004 0
M  V30 13204 H 1213.54 -0.378188 -2.97002 0
M  V30 13205 H 1211.09 -0.183323 -1.42828 0
M  V30 13206 H 1213.04 1.93227 -3.74488 0
M  V30 13207 H 1211.77 2.08735 -2.51192 0
M  V30 13208 H 1210.42 0.286924 -3.65475 0
M  V30 13209 H 1210.07 2.69036 -4.25004 0
M  V30 13210 H 1209.77 1.62582 -5.6466 0
M  V30 13211 H 1211.3 2.55288 -5.54671 0
M  V30 13212 H 1212.71 0.288513 -5.72574 0
M  V30 13213 H 1211.11 -0.459549 -5.98338 0
M  V30 13214 H 1212.18 -1.09911 -4.72279 0
M  V30 13215 N 1213.52 1.56172 -0.211661 0
M  V30 13216 C 1214.43 2.23468 0.714081 0
M  V30 13217 C 1215.45 1.23908 1.22159 0
M  V30 13218 O 1216.62 1.56693 1.26528 0
M  V30 13219 C 1213.69 2.89375 1.90953 0
M  V30 13220 C 1212.75 4.04251 1.44497 0
M  V30 13221 C 1211.98 4.67006 2.58343 0
M  V30 13222 O 1212.2 4.28721 3.76237 0
M  V30 13223 O 1211.14 5.56177 2.3011 0
M  V30 13224 H 1214.96 3.03219 0.170862 0
M  V30 13225 H 1212.55 1.49389 0.0183607 0
M  V30 13226 H 1214.43 3.3101 2.60787 0
M  V30 13227 H 1213.11 2.12591 2.44104 0
M  V30 13228 H 1212.01 3.67205 0.714932 0
M  V30 13229 H 1213.35 4.82748 0.959947 0
M  V30 13230 N 1215 -0.0618163 1.57479 0
M  V30 13231 C 1215.93 -1.09931 2.01116 0
M  V30 13232 C 1216.94 -1.34405 0.91865 0
M  V30 13233 O 1218.13 -1.32469 1.19642 0
M  V30 13234 C 1215.23 -2.44814 2.34349 0
M  V30 13235 C 1214.41 -2.40157 3.65573 0
M  V30 13236 C 1213.46 -3.57226 3.86363 0
M  V30 13237 O 1212.49 -3.38202 4.5783 0
M  V30 13238 N 1213.69 -4.77937 3.2948 0
M  V30 13239 H 1216.46 -0.727621 2.90733 0
M  V30 13240 H 1214.02 -0.250315 1.59953 0
M  V30 13241 H 1216.01 -3.21792 2.45422 0
M  V30 13242 H 1214.58 -2.73947 1.50571 0
M  V30 13243 H 1213.8 -1.48496 3.65161 0
M  V30 13244 H 1215.09 -2.34156 4.51717 0
M  V30 13245 H 1214.49 -4.96296 2.7149 0
M  V30 13246 H 1213.04 -5.52392 3.45986 0
M  V30 13247 N 1216.48 -1.54033 -0.333429 0
M  V30 13248 C 1217.72 -1.71426 -1.0704 0
M  V30 13249 C 1218.05 -0.485496 -1.8886 0
M  V30 13250 O 1217.32 0.500555 -1.89397 0
M  V30 13251 H 1215.9 -0.632034 -0.398173 0
M  V30 13252 H 1218.56 -1.91312 -0.372252 0
M  V30 13253 H 1217.65 -2.58958 -1.74205 0
M  V30 13254 N 1217.95 0.594978 -1.45938 0
M  V30 13255 C 1218.9 1.70489 -1.5557 0
M  V30 13256 C 1219.87 1.61193 -0.400751 0
M  V30 13257 O 1221.06 1.80587 -0.615882 0
M  V30 13258 C 1218.2 3.08817 -1.54033 0
M  V30 13259 C 1217.31 3.28827 -2.80173 0
M  V30 13260 C 1216.44 4.57333 -2.70222 0
M  V30 13261 C 1215.48 4.70644 -3.91357 0
M  V30 13262 N 1214.62 5.90463 -3.79865 0
M  V30 13263 H 1219.46 1.61593 -2.50383 0
M  V30 13264 H 1217 0.787747 -1.24229 0
M  V30 13265 H 1218.96 3.88865 -1.51129 0
M  V30 13266 H 1217.59 3.1664 -0.627617 0
M  V30 13267 H 1216.64 2.42467 -2.9311 0
M  V30 13268 H 1217.95 3.34534 -3.69985 0
M  V30 13269 H 1217.1 5.45593 -2.65354 0
M  V30 13270 H 1215.84 4.54045 -1.7803 0
M  V30 13271 H 1214.85 3.80805 -3.9657 0
M  V30 13272 H 1216.07 4.75721 -4.8463 0
M  V30 13273 H 1214.02 5.88196 -2.90451 0
M  V30 13274 H 1213.94 5.97385 -4.63322 0
M  V30 13275 H 1215.2 6.81187 -3.78952 0
M  V30 13276 N 1219.43 1.33438 0.838571 0
M  V30 13277 C 1220.68 1.25097 1.5962 0
M  V30 13278 C 1221.01 -0.182798 1.93338 0
M  V30 13279 O 1220.29 -1.1242 1.5872 0
M  V30 13280 C 1220.57 2.12655 2.90603 0
M  V30 13281 C 1220.42 3.64491 2.63565 0
M  V30 13282 C 1221.74 1.99994 3.92033 0
M  V30 13283 H 1218.86 0.455776 0.579169 0
M  V30 13284 H 1221.5 1.63542 0.967169 0
M  V30 13285 H 1219.65 1.79998 3.44286 0
M  V30 13286 H 1221.32 4.0744 2.16312 0
M  V30 13287 H 1219.57 3.86356 1.9726 0
M  V30 13288 H 1220.24 4.21101 3.569 0
M  V30 13289 H 1222.71 2.28635 3.47657 0
M  V30 13290 H 1221.59 2.63509 4.81512 0
M  V30 13291 H 1221.85 0.972263 4.31277 0
M  V30 13292 N 1220.91 -1.05686 1.16912 0
M  V30 13293 C 1222.16 -1.78862 0.955839 0
M  V30 13294 C 1222.49 -1.87257 -0.514645 0
M  V30 13295 O 1221.76 -1.36869 -1.38193 0
M  V30 13296 C 1222.05 -3.23021 1.59152 0
M  V30 13297 C 1221.9 -3.22669 3.13376 0
M  V30 13298 C 1223.22 -4.2073 1.29128 0
M  V30 13299 H 1220.34 -0.64931 0.348663 0
M  V30 13300 H 1222.98 -1.23561 1.44335 0
M  V30 13301 H 1221.13 -3.70243 1.17697 0
M  V30 13302 H 1222.8 -2.83562 3.63855 0
M  V30 13303 H 1221.05 -2.61149 3.46386 0
M  V30 13304 H 1221.72 -4.24394 3.52979 0
M  V30 13305 H 1224.19 -3.8198 1.65017 0
M  V30 13306 H 1223.07 -5.19851 1.76198 0
M  V30 13307 H 1223.33 -4.41595 0.21119 0
M  V30 13308 N 1222.39 -0.968567 -1.24324 0
M  V30 13309 C 1223.32 -0.444065 -2.23838 0
M  V30 13310 C 1224.3 0.482311 -1.55282 0
M  V30 13311 O 1225.48 0.413489 -1.83909 0
M  V30 13312 C 1222.61 0.358874 -3.36793 0
M  V30 13313 C 1221.66 -0.509913 -4.23441 0
M  V30 13314 S 1222.49 -1.95064 -4.98708 0
M  V30 13315 C 1223.65 -1.15652 -6.15122 0
M  V30 13316 H 1223.88 -1.28738 -2.67981 0
M  V30 13317 H 1221.41 -0.773665 -1.33618 0
M  V30 13318 H 1223.37 0.816164 -4.02305 0
M  V30 13319 H 1222.03 1.17717 -2.91207 0
M  V30 13320 H 1221.22 0.106617 -5.03887 0
M  V30 13321 H 1220.83 -0.902967 -3.62936 0
M  V30 13322 H 1223.12 -0.411966 -6.76246 0
M  V30 13323 H 1224.06 -1.93539 -6.81137 0
M  V30 13324 H 1224.47 -0.680507 -5.60383 0
M  V30 13325 N 1223.87 1.39211 -0.738786 0
M  V30 13326 C 1225.14 1.9442 -0.214533 0
M  V30 13327 C 1225.52 1.67528 1.28443 0
M  V30 13328 O 1224.87 1.0056 2.05183 0
M  V30 13329 C 1225.08 3.44603 -0.552232 0
M  V30 13330 C 1226.43 4.21602 -0.503663 0
M  V30 13331 O 1227.45 3.52819 -0.489647 0
M  V30 13332 O 1226.31 5.44194 -0.50153 0
M  V30 13333 H 1223.41 0.826011 -0.0404247 0
M  V30 13334 H 1225.95 1.48689 -0.817902 0
M  V30 13335 H 1224.72 3.57626 -1.58806 0
M  V30 13336 H 1224.35 3.9752 0.0799096 0
M  V30 13337 N 1225.34 0.486708 1.49896 0
M  V30 13338 C 1226.57 -0.0622999 2.07306 0
M  V30 13339 C 1226.99 -1.31353 1.3464 0
M  V30 13340 O 1226.35 -1.76861 0.398752 0
M  V30 13341 C 1226.4 -0.313481 3.59235 0
M  V30 13342 O 1225.5 -1.39101 3.88233 0
M  V30 13343 H 1224.85 0.0198885 0.663702 0
M  V30 13344 H 1227.38 0.682232 1.92891 0
M  V30 13345 H 1227.39 -0.549302 4.04285 0
M  V30 13346 H 1226.06 0.600767 4.11538 0
M  V30 13347 H 1224.64 -1.14127 3.55006 0
M  V30 13348 N 1226.82 -1.56058 0.219941 0
M  V30 13349 C 1227.73 -2.23844 -0.70222 0
M  V30 13350 C 1228.75 -1.24554 -1.215 0
M  V30 13351 O 1229.93 -1.57362 -1.25695 0
M  V30 13352 C 1226.99 -2.90384 -1.89416 0
M  V30 13353 C 1226.05 -4.05012 -1.42351 0
M  V30 13354 C 1225.28 -4.68369 -2.55863 0
M  V30 13355 O 1225.51 -4.3071 -3.73958 0
M  V30 13356 O 1224.44 -5.5739 -2.27157 0
M  V30 13357 H 1228.27 -3.03305 -0.15478 0
M  V30 13358 H 1225.85 -1.49396 -0.010438 0
M  V30 13359 H 1227.73 -3.32389 -2.59028 0
M  V30 13360 H 1226.41 -2.13883 -2.42973 0
M  V30 13361 H 1225.32 -3.67579 -0.695448 0
M  V30 13362 H 1226.65 -4.83251 -0.934332 0
M  V30 13363 N 1228.3 0.053464 -1.57509 0
M  V30 13364 C 1229.72 0.408651 -1.5428 0
M  V30 13365 C 1229.92 1.78086 -0.942735 0
M  V30 13366 O 1228.97 2.46366 -0.553163 0
M  V30 13367 C 1230.29 0.332884 -2.98852 0
M  V30 13368 C 1231.83 0.411745 -3.1028 0
M  V30 13369 C 1232.31 0.365691 -4.56538 0
M  V30 13370 N 1233.8 0.425222 -4.61244 0
M  V30 13371 C 1234.54 0.412093 -5.71917 0
M  V30 13372 N 1234.03 0.352693 -6.91902 0
M  V30 13373 N 1235.82 0.460016 -5.60214 0
M  V30 13374 H 1227.98 -0.844834 -1.94875 0
M  V30 13375 H 1230.24 -0.318888 -0.892757 0
M  V30 13376 H 1229.94 -0.609116 -3.46385 0
M  V30 13377 H 1229.82 1.13605 -3.59686 0
M  V30 13378 H 1232.21 1.34417 -2.62709 0
M  V30 13379 H 1232.29 -0.420333 -2.52323 0
M  V30 13380 H 1231.93 -0.562963 -5.0477 0
M  V30 13381 H 1231.86 1.21555 -5.12379 0
M  V30 13382 H 1234.35 0.474634 -3.74908 0
M  V30 13383 H 1234.66 0.347105 -7.7202 0
M  V30 13384 H 1233.01 0.319104 -6.94267 0
M  V30 13385 H 1236.2 0.504242 -4.65376 0
M  V30 13386 H 1236.37 0.446315 -6.46461 0
M  V30 13387 N 1229.78 1.54207 0.325255 0
M  V30 13388 C 1231.03 1.71991 1.0613 0
M  V30 13389 C 1231.35 0.495505 1.88599 0
M  V30 13390 O 1230.62 -0.490504 1.8966 0
M  V30 13391 H 1229.2 0.634137 0.394816 0
M  V30 13392 H 1231.86 1.91507 0.362101 0
M  V30 13393 H 1230.96 2.59878 1.72829 0
M  V30 13394 N 1231.26 -0.58723 1.46251 0
M  V30 13395 C 1232.53 -1.34727 1.41802 0
M  V30 13396 C 1232.91 -2.10867 0.0991354 0
M  V30 13397 O 1232.26 -2.09194 -0.919242 0
M  V30 13398 C 1232.47 -2.27706 2.64482 0
M  V30 13399 C 1233.82 -2.89678 3.10438 0
M  V30 13400 O 1234.84 -2.38021 2.64999 0
M  V30 13401 O 1233.7 -3.83493 3.89352 0
M  V30 13402 H 1230.8 -0.605119 0.563702 0
M  V30 13403 H 1233.34 -0.608623 1.5841 0
M  V30 13404 H 1232.12 -1.70842 3.52035 0
M  V30 13405 H 1231.74 -3.08918 2.50311 0
M  V30 13406 N 1232.74 -1.33881 -0.831482 0
M  V30 13407 C 1233.68 -1.24741 -1.96322 0
M  V30 13408 C 1234.68 -0.147251 -1.68759 0
M  V30 13409 O 1235.88 -0.311684 -1.77281 0
M  V30 13410 H 1232.26 -0.387298 -0.644596 0
M  V30 13411 H 1234.23 -2.20407 -2.01155 0
M  V30 13412 C 1232.98 -1.01102 -3.32677 0
M  V30 13413 H 1232.3 -1.84986 -3.54429 0
M  V30 13414 H 1233.74 -0.987398 -4.12343 0
M  V30 13415 C 1232.2 0.285903 -3.35685 0
M  V30 13416 O 1232.73 1.29014 -3.80419 0
M  V30 13417 N 1230.94 0.316026 -2.88877 0
M  V30 13418 H 1230.48 -0.501758 -2.52666 0
M  V30 13419 H 1230.44 1.18357 -2.91271 0
M  V30 13420 N 1234.21 1.05064 -1.1747 0
M  V30 13421 C 1235.46 1.77737 -0.961979 0
M  V30 13422 C 1235.78 1.88198 0.510551 0
M  V30 13423 O 1235.05 1.39968 1.37062 0
M  V30 13424 H 1233.63 0.658366 -0.352935 0
M  V30 13425 H 1236.29 1.26851 -1.47969 0
M  V30 13426 H 1235.39 2.79368 -1.39141 0
M  V30 13427 N 1235.69 0.975146 1.23809 0
M  V30 13428 C 1236.92 0.658023 1.95841 0
M  V30 13429 C 1237.33 -0.778132 1.72458 0
M  V30 13430 O 1236.67 -1.53462 1.00971 0
M  V30 13431 C 1236.73 0.862038 3.49012 0
M  V30 13432 C 1236.4 2.27925 3.96105 0
M  V30 13433 C 1237.4 3.25755 4.05191 0
M  V30 13434 C 1235.08 2.60894 4.29231 0
M  V30 13435 C 1237.07 4.54636 4.46749 0
M  V30 13436 C 1234.76 3.89999 4.70472 0
M  V30 13437 C 1235.76 4.86682 4.79197 0
M  V30 13438 O 1235.45 6.13483 5.19513 0
M  V30 13439 H 1235.18 0.243915 0.630461 0
M  V30 13440 H 1237.73 1.30768 1.58395 0
M  V30 13441 H 1235.96 0.155209 3.86388 0
M  V30 13442 H 1237.65 0.542873 4.02253 0
M  V30 13443 H 1238.42 3.01614 3.79808 0
M  V30 13444 H 1234.3 1.86355 4.21655 0
M  V30 13445 H 1237.84 5.30101 4.53474 0
M  V30 13446 H 1233.74 4.13937 4.95304 0
M  V30 13447 H 1234.51 6.17158 5.37641 0
M  V30 13448 N 1237.17 -1.38817 0.746158 0
M  V30 13449 C 1238.42 -1.99885 0.298425 0
M  V30 13450 C 1238.74 -1.59518 -1.12156 0
M  V30 13451 O 1238.01 -0.848568 -1.76568 0
M  V30 13452 H 1236.59 -0.739247 0.107347 0
M  V30 13453 H 1239.25 -1.69696 0.9586 0
M  V30 13454 H 1238.35 -3.10067 0.355656 0
M  V30 13455 N 1238.65 -0.49465 -1.49636 0
M  V30 13456 C 1239.87 0.051305 -2.07337 0
M  V30 13457 C 1240.3 1.30637 -1.35335 0
M  V30 13458 O 1239.66 1.76647 -0.408126 0
M  V30 13459 C 1239.7 0.294425 -3.59396 0
M  V30 13460 O 1238.81 1.3704 -3.88965 0
M  V30 13461 H 1238.15 -0.023408 -0.663587 0
M  V30 13462 H 1240.68 -0.692451 -1.92526 0
M  V30 13463 H 1240.69 0.527854 -4.04571 0
M  V30 13464 H 1239.36 -0.622583 -4.11214 0
M  V30 13465 H 1237.94 1.12242 -3.55607 0
M  V30 13466 N 1240.13 1.55939 -0.228214 0
M  V30 13467 C 1241.35 2.0287 0.406348 0
M  V30 13468 C 1241.77 1.1079 1.52876 0
M  V30 13469 O 1241.13 0.118747 1.82113 0
M  V30 13470 C 1241.18 3.49286 0.931734 0
M  V30 13471 O 1240.9 4.37857 -0.145933 0
M  V30 13472 C 1242.4 4.11893 1.63887 0
M  V30 13473 H 1239.62 0.663696 0.0987358 0
M  V30 13474 H 1242.16 2.01541 -0.346616 0
M  V30 13475 H 1240.32 3.5121 1.63494 0
M  V30 13476 H 1240.73 5.23904 0.250005 0
M  V30 13477 H 1242.21 5.16091 1.95841 0
M  V30 13478 H 1242.68 3.57281 2.55435 0
M  V30 13479 H 1243.29 4.13839 0.980697 0
M  V30 13480 N 1241.6 -0.0451101 1.57535 0
M  V30 13481 C 1242.85 -0.737654 1.88157 0
M  V30 13482 C 1243.17 -1.76743 0.823817 0
M  V30 13483 O 1242.44 -1.95366 -0.144503 0
M  V30 13484 H 1241.02 -0.275431 0.694368 0
M  V30 13485 H 1243.69 -0.0148651 1.94894 0
M  V30 13486 H 1242.78 -1.23726 2.86528 0
M  V30 13487 N 1243.08 -1.54377 -0.317073 0
M  V30 13488 C 1244.33 -1.73149 -1.05581 0
M  V30 13489 C 1244.66 -0.507176 -1.8746 0
M  V30 13490 O 1243.94 0.495837 -1.88074 0
M  V30 13491 C 1244.22 -3.01098 -1.97515 0
M  V30 13492 C 1244.07 -4.33794 -1.18922 0
M  V30 13493 C 1245.39 -3.24831 -2.9694 0
M  V30 13494 H 1242.51 -0.630011 -0.382434 0
M  V30 13495 H 1245.15 -1.87079 -0.331873 0
M  V30 13496 H 1243.3 -2.89352 -2.59244 0
M  V30 13497 H 1244.97 -4.57433 -0.596039 0
M  V30 13498 H 1243.22 -4.31005 -0.491612 0
M  V30 13499 H 1243.89 -5.19554 -1.86462 0
M  V30 13500 H 1246.36 -3.3608 -2.45335 0
M  V30 13501 H 1245.24 -4.15702 -3.58445 0
M  V30 13502 H 1245.5 -2.42365 -3.69745 0
M  V30 13503 N 1244.56 0.579466 -1.4656 0
M  V30 13504 C 1245.81 1.33756 -1.52038 0
M  V30 13505 C 1246.14 1.93725 -0.173423 0
M  V30 13506 O 1245.39 1.77167 0.831293 0
M  V30 13507 C 1245.69 2.48417 -2.56951 0
M  V30 13508 C 1245.36 2.0642 -4.00876 0
M  V30 13509 C 1244.02 1.94682 -4.4006 0
M  V30 13510 C 1246.37 1.74066 -4.91274 0
M  V30 13511 C 1243.7 1.48852 -5.67503 0
M  V30 13512 C 1246.05 1.29714 -6.19158 0
M  V30 13513 C 1244.71 1.16555 -6.57245 0
M  V30 13514 H 1243.98 0.489447 -0.556347 0
M  V30 13515 H 1246.63 0.652176 -1.80053 0
M  V30 13516 H 1244.94 3.22416 -2.2261 0
M  V30 13517 H 1246.63 3.06629 -2.58418 0
M  V30 13518 H 1243.22 2.16492 -3.69904 0
M  V30 13519 H 1247.41 1.82019 -4.61717 0
M  V30 13520 H 1242.66 1.3731 -5.95782 0
M  V30 13521 H 1246.84 1.03734 -6.88631 0
M  V30 13522 H 1244.46 0.808193 -7.55892 0
M  V30 13523 N 1246.04 1.3432 0.824371 0
M  V30 13524 C 1247.26 1.2982 1.61745 0
M  V30 13525 C 1247.69 -0.125298 1.87682 0
M  V30 13526 O 1247.05 -1.08658 1.45131 0
M  V30 13527 C 1247.09 2.09327 2.93623 0
M  V30 13528 O 1246.2 1.4618 3.85623 0
M  V30 13529 H 1245.54 0.445929 0.491979 0
M  V30 13530 H 1248.07 1.77101 1.02452 0
M  V30 13531 H 1248.08 2.20629 3.43201 0
M  V30 13532 H 1246.75 3.12825 2.74069 0
M  V30 13533 H 1245.33 1.43611 3.44137 0
M  V30 13534 N 1247.52 -1.0444 1.18026 0
M  V30 13535 C 1248.74 -1.81772 0.998684 0
M  V30 13536 C 1249.17 -1.82682 -0.448225 0
M  V30 13537 O 1248.52 -1.24136 -1.32136 0
M  V30 13538 C 1248.57 -3.2542 1.55352 0
M  V30 13539 O 1247.68 -4.05103 0.772351 0
M  V30 13540 H 1247.02 -0.561731 0.354054 0
M  V30 13541 H 1249.55 -1.31557 1.56697 0
M  V30 13542 H 1249.56 -3.76206 1.57903 0
M  V30 13543 H 1248.23 -3.24073 2.60672 0
M  V30 13544 H 1246.81 -3.63798 0.818852 0
M  V30 13545 N 1248.99 -0.981699 -1.2329 0
M  V30 13546 C 1250.24 -0.661895 -1.92329 0
M  V30 13547 C 1250.6 0.79602 -1.75161 0
M  V30 13548 O 1249.89 1.56687 -1.10271 0
M  V30 13549 C 1250.08 -0.989244 -3.43437 0
M  V30 13550 C 1249.91 -2.47743 -3.75305 0
M  V30 13551 C 1248.68 -3.13963 -3.95924 0
M  V30 13552 C 1250.88 -3.45817 -3.80677 0
M  V30 13553 N 1248.86 -4.52374 -4.15008 0
M  V30 13554 C 1250.23 -4.6964 -4.04769 0
M  V30 13555 C 1252.29 -3.4028 -3.63475 0
M  V30 13556 C 1250.99 -5.88605 -4.13445 0
M  V30 13557 C 1253.02 -4.5861 -3.73405 0
M  V30 13558 C 1252.38 -5.81229 -3.97935 0
M  V30 13559 H 1248.48 -0.293289 -0.724918 0
M  V30 13560 H 1251.06 -1.25942 -1.48481 0
M  V30 13561 H 1249.23 -0.420398 -3.86118 0
M  V30 13562 H 1250.96 -0.626579 -3.9982 0
M  V30 13563 H 1247.72 -2.64456 -3.92887 0
M  V30 13564 H 1248.14 -5.24134 -4.28501 0
M  V30 13565 H 1252.79 -2.46504 -3.43505 0
M  V30 13566 H 1250.5 -6.82795 -4.32223 0
M  V30 13567 H 1254.09 -4.55903 -3.61447 0
M  V30 13568 H 1252.97 -6.71263 -4.05433 0
M  V30 13569 N 1250.47 1.3842 -0.753509 0
M  V30 13570 C 1251.72 2.00415 -0.310091 0
M  V30 13571 C 1252.05 1.59675 1.10532 0
M  V30 13572 O 1251.33 0.834261 1.757 0
M  V30 13573 C 1251.61 3.57488 -0.432897 0
M  V30 13574 C 1251.46 4.08193 -1.88941 0
M  V30 13575 C 1252.78 4.39757 0.173763 0
M  V30 13576 H 1249.9 0.728107 -0.114147 0
M  V30 13577 H 1252.54 1.64363 -0.953138 0
M  V30 13578 H 1250.69 3.88331 0.114563 0
M  V30 13579 H 1252.36 3.87993 -2.49517 0
M  V30 13580 H 1250.61 3.61063 -2.4045 0
M  V30 13581 H 1251.28 5.17291 -1.9265 0
M  V30 13582 H 1253.75 4.15066 -0.293137 0
M  V30 13583 H 1252.63 5.4887 0.057594 0
M  V30 13584 H 1252.89 4.23704 1.26205 0
M  V30 13585 N 1251.95 0.502579 1.49372 0
M  V30 13586 C 1253.23 -0.104472 1.95321 0
M  V30 13587 C 1253.61 -1.53975 1.44412 0
M  V30 13588 O 1252.96 -2.18804 0.658566 0
M  V30 13589 C 1253.17 -0.0154833 3.48997 0
M  V30 13590 C 1254.51 -0.188615 4.24181 0
M  V30 13591 O 1255.54 -0.090595 3.56085 0
M  V30 13592 O 1254.4 -0.390068 5.45106 0
M  V30 13593 H 1251.49 -0.0944325 0.821591 0
M  V30 13594 H 1254.04 0.565229 1.6001 0
M  V30 13595 H 1252.81 0.985383 3.7869 0
M  V30 13596 H 1252.43 -0.72526 3.90929 0
M  V30 13597 N 1253.43 -1.55816 0.23648 0
M  V30 13598 C 1254.84 -1.59159 -0.118601 0
M  V30 13599 C 1255.04 -1.25352 -1.57763 0
M  V30 13600 O 1254.1 -0.995863 -2.32032 0
M  V30 13601 C 1255.41 -2.99885 0.221175 0
M  V30 13602 C 1256.96 -3.12567 0.164624 0
M  V30 13603 C 1257.44 -4.55496 0.478285 0
M  V30 13604 N 1258.93 -4.61215 0.428402 0
M  V30 13605 C 1259.66 -5.69768 0.644398 0
M  V30 13606 N 1259.16 -6.86624 0.922966 0
M  V30 13607 N 1260.95 -5.59143 0.575814 0
M  V30 13608 H 1253.1 -1.76063 1.18809 0
M  V30 13609 H 1255.37 -0.819079 0.477297 0
M  V30 13610 H 1255.07 -3.29326 1.2344 0
M  V30 13611 H 1254.95 -3.74425 -0.456723 0
M  V30 13612 H 1257.33 -2.82914 -0.839263 0
M  V30 13613 H 1257.41 -2.40325 0.876219 0
M  V30 13614 H 1257.06 -4.85868 1.47968 0
M  V30 13615 H 1256.99 -5.25984 -0.254671 0
M  V30 13616 H 1259.48 -3.77251 0.221398 0
M  V30 13617 H 1259.79 -7.6528 1.07548 0
M  V30 13618 H 1258.14 -6.88333 0.960325 0
M  V30 13619 H 1261.33 -4.66727 0.358307 0
M  V30 13620 H 1261.5 -6.43674 0.747548 0
M  V30 13621 N 1254.91 0.036755 -1.57557 0
M  V30 13622 C 1256.16 0.728107 -1.881 0
M  V30 13623 C 1256.47 1.7693 -0.833974 0
M  V30 13624 O 1257.67 2.5127 -1.02837 0
M  V30 13625 C 1256.13 1.34604 -3.33781 0
M  V30 13626 C 1255.74 0.341599 -4.46696 0
M  V30 13627 C 1257.48 2.01772 -3.73481 0
M  V30 13628 C 1255.39 0.967444 -5.83433 0
M  V30 13629 H 1254.32 0.275695 -0.701789 0
M  V30 13630 H 1256.97 -0.0177555 -1.83491 0
M  V30 13631 H 1255.35 2.14135 -3.3311 0
M  V30 13632 H 1256.53 -0.426441 -4.58823 0
M  V30 13633 H 1254.84 -0.227558 -4.15778 0
M  V30 13634 H 1257.44 2.49435 -4.72955 0
M  V30 13635 H 1257.78 2.83255 -3.05077 0
M  V30 13636 H 1258.31 1.29026 -3.76294 0
M  V30 13637 H 1255.05 0.19219 -6.55218 0
M  V30 13638 H 1254.57 1.70551 -5.75041 0
M  V30 13639 H 1256.25 1.47705 -6.29914 0
M  V30 13640 N 1256.39 1.54543 0.308881 0
M  V30 13641 C 1257.3 1.87994 1.4034 0
M  V30 13642 C 1258.31 0.773294 1.55872 0
M  V30 13643 O 1259.49 1.069 1.70688 0
M  V30 13644 C 1256.55 2.11341 2.74838 0
M  V30 13645 C 1255.61 3.35086 2.68358 0
M  V30 13646 C 1254.85 3.5731 3.96441 0
M  V30 13647 O 1255.07 2.82692 4.9542 0
M  V30 13648 O 1254 4.50814 3.98811 0
M  V30 13649 H 1257.83 2.81094 1.14976 0
M  V30 13650 H 1255.41 1.40634 0.504236 0
M  V30 13651 H 1257.3 2.27943 3.54429 0
M  V30 13652 H 1255.97 1.21427 3.00062 0
M  V30 13653 H 1254.88 3.23855 1.87267 0
M  V30 13654 H 1256.21 4.25104 2.48087 0
M  V30 13655 N 1257.86 -0.571685 1.46866 0
M  V30 13656 C 1258.77 -1.70758 1.60869 0
M  V30 13657 C 1259.79 -1.66903 0.49186 0
M  V30 13658 O 1260.97 -1.86613 0.757468 0
M  V30 13659 C 1258.03 -3.07267 1.60586 0
M  V30 13660 C 1257.09 -3.22301 2.83585 0
M  V30 13661 C 1256.32 -4.52298 2.83306 0
M  V30 13662 O 1256.55 -5.36869 1.92685 0
M  V30 13663 O 1255.48 -4.70814 3.7499 0
M  V30 13664 H 1259.31 -1.6189 2.56954 0
M  V30 13665 H 1256.89 -0.740018 1.29785 0
M  V30 13666 H 1258.77 -3.8853 1.63163 0
M  V30 13667 H 1257.45 -3.16549 0.676637 0
M  V30 13668 H 1256.36 -2.4049 2.86558 0
M  V30 13669 H 1257.69 -3.17916 3.75753 0
M  V30 13670 N 1259.34 -1.34755 -0.817236 0
M  V30 13671 C 1260.3 -1.26687 -1.91006 0
M  V30 13672 C 1261.3 -0.180745 -1.59781 0
M  V30 13673 O 1262.49 -0.433748 -1.68714 0
M  V30 13674 C 1259.63 -0.957293 -3.27183 0
M  V30 13675 H 1260.82 -2.23846 -1.99582 0
M  V30 13676 H 1258.37 -1.19125 -1.01187 0
M  V30 13677 H 1259.11 0.0108917 -3.24298 0
M  V30 13678 H 1258.89 -1.74297 -3.5123 0
M  V30 13679 H 1260.38 -0.926161 -4.072 0
M  V30 13680 N 1260.82 1.03812 -1.18578 0
M  V30 13681 C 1261.73 2.15371 -0.930182 0
M  V30 13682 C 1262.75 1.73673 0.106599 0
M  V30 13683 O 1263.92 2.01257 -0.0759054 0
M  V30 13684 C 1260.99 3.43606 -0.462151 0
M  V30 13685 C 1260.05 3.99671 -1.5672 0
M  V30 13686 C 1259.28 5.21785 -1.12141 0
M  V30 13687 O 1259.5 5.70397 0.0188357 0
M  V30 13688 O 1258.44 5.70449 -1.9202 0
M  V30 13689 H 1262.26 2.39791 -1.86371 0
M  V30 13690 H 1259.85 1.13814 -0.967819 0
M  V30 13691 H 1261.73 4.2088 -0.20934 0
M  V30 13692 H 1260.41 3.20654 0.443052 0
M  V30 13693 H 1259.31 3.23774 -1.87406 0
M  V30 13694 H 1260.65 4.2697 -2.44862 0
M  V30 13695 N 1262.3 0.988223 1.22768 0
M  V30 13696 C 1263.55 0.656941 1.90702 0
M  V30 13697 C 1263.86 -0.814058 1.77855 0
M  V30 13698 O 1265.07 -1.25673 2.40663 0
M  V30 13699 C 1263.52 1.12445 3.41883 0
M  V30 13700 C 1263.13 2.62034 3.63376 0
M  V30 13701 C 1264.87 0.867277 4.15546 0
M  V30 13702 C 1262.78 3.02412 5.08233 0
M  V30 13703 H 1261.71 0.242012 0.714105 0
M  V30 13704 H 1264.36 1.19716 1.39069 0
M  V30 13705 H 1262.74 0.512386 3.92671 0
M  V30 13706 H 1263.92 3.28546 3.23101 0
M  V30 13707 H 1262.23 2.85583 3.03037 0
M  V30 13708 H 1264.83 1.14471 5.22303 0
M  V30 13709 H 1265.17 -0.196611 4.15835 0
M  V30 13710 H 1265.71 1.4413 3.70771 0
M  V30 13711 H 1262.44 4.07957 5.1308 0
M  V30 13712 H 1261.96 2.406 5.49429 0
M  V30 13713 H 1263.64 2.93452 5.76624 0
M  V30 13714 N 1263.78 -1.38018 0.760839 0
M  V30 13715 C 1264.72 -2.32251 0.127425 0
M  V30 13716 C 1265.72 -1.54387 -0.69722 0
M  V30 13717 O 1266.92 -1.69864 -0.595505 0
M  V30 13718 H 1263.3 -0.751666 0.0224141 0
M  V30 13719 H 1265.27 -2.8327 0.93813 0
M  V30 13720 C 1264.02 -3.39606 -0.745849 0
M  V30 13721 H 1263.34 -3.99618 -0.120679 0
M  V30 13722 H 1264.78 -4.07931 -1.15621 0
M  V30 13723 C 1263.24 -2.78778 -1.89167 0
M  V30 13724 O 1263.77 -2.68661 -2.98637 0
M  V30 13725 N 1261.98 -2.36481 -1.68894 0
M  V30 13726 H 1261.52 -2.4491 -0.798551 0
M  V30 13727 H 1261.48 -1.96126 -2.45728 0
M  V30 13728 N 1265.25 -0.510493 -1.49103 0
M  V30 13729 C 1266.2 0.282297 -2.26246 0
M  V30 13730 C 1267.19 0.927187 -1.31499 0
M  V30 13731 O 1268.38 0.833216 -1.56162 0
M  V30 13732 C 1265.51 1.34046 -3.16049 0
M  V30 13733 C 1264.59 0.701334 -4.18261 0
M  V30 13734 N 1264.99 -0.201593 -5.05398 0
M  V30 13735 C 1263.28 0.960822 -4.35527 0
M  V30 13736 C 1263.98 -0.568383 -5.78916 0
M  V30 13737 N 1262.96 0.0659546 -5.4356 0
M  V30 13738 H 1266.76 -0.41264 -2.90989 0
M  V30 13739 H 1264.28 -0.327201 -1.5907 0
M  V30 13740 H 1266.27 1.92195 -3.69955 0
M  V30 13741 H 1264.93 2.03697 -2.52859 0
M  V30 13742 H 1265.94 -0.573004 -5.1472 0
M  V30 13743 H 1262.62 1.64938 -3.83539 0
M  V30 13744 H 1264.01 -1.30763 -6.59053 0
M  V30 13745 N 1266.73 1.55688 -0.24474 0
M  V30 13746 C 1267.64 2.24933 0.666519 0
M  V30 13747 C 1268.66 1.26471 1.19503 0
M  V30 13748 O 1269.83 1.59342 1.23176 0
M  V30 13749 C 1266.9 2.9336 1.84772 0
M  V30 13750 C 1265.96 4.07225 1.35889 0
M  V30 13751 C 1265.19 4.72381 2.48379 0
M  V30 13752 O 1265.42 4.36605 3.67059 0
M  V30 13753 O 1264.35 5.60933 2.18261 0
M  V30 13754 H 1268.18 3.03513 0.106507 0
M  V30 13755 H 1265.76 1.49394 -0.0133309 0
M  V30 13756 H 1267.64 3.36468 2.53708 0
M  V30 13757 H 1266.32 2.17721 2.39539 0
M  V30 13758 H 1265.22 3.68639 0.636881 0
M  V30 13759 H 1266.56 4.84676 0.857333 0
M  V30 13760 N 1268.21 -0.0283989 1.57574 0
M  V30 13761 C 1269.16 -1.02881 2.06601 0
M  V30 13762 C 1270.13 -1.35879 0.955308 0
M  V30 13763 O 1271.31 -1.46205 1.22592 0
M  V30 13764 C 1268.45 -2.32447 2.55073 0
M  V30 13765 C 1267.56 -2.05602 3.79937 0
M  V30 13766 C 1266.7 -3.29043 4.17018 0
M  V30 13767 C 1265.74 -2.97755 5.34797 0
M  V30 13768 N 1264.88 -4.1365 5.67308 0
M  V30 13769 H 1269.72 -0.603772 2.91819 0
M  V30 13770 H 1267.25 -0.286503 1.44283 0
M  V30 13771 H 1269.21 -3.08152 2.81244 0
M  V30 13772 H 1267.84 -2.72672 1.72771 0
M  V30 13773 H 1266.89 -1.2039 3.60847 0
M  V30 13774 H 1268.2 -1.78522 4.65759 0
M  V30 13775 H 1267.36 -4.13115 4.4432 0
M  V30 13776 H 1266.1 -3.59237 3.29849 0
M  V30 13777 H 1265.1 -2.12085 5.07247 0
M  V30 13778 H 1266.33 -2.68839 6.23621 0
M  V30 13779 H 1264.27 -4.43794 4.83097 0
M  V30 13780 H 1264.19 -3.89996 6.47641 0
M  V30 13781 H 1265.46 -4.98594 5.99186 0
M  V30 13782 N 1269.69 -1.54705 -0.300681 0
M  V30 13783 C 1270.93 -1.74001 -1.03585 0
M  V30 13784 C 1271.26 -0.525972 -1.87253 0
M  V30 13785 O 1270.52 0.492068 -1.89413 0
M  V30 13786 C 1270.82 -2.98173 -1.97047 0
M  V30 13787 C 1270.48 -4.31948 -1.29352 0
M  V30 13788 C 1269.14 -4.68312 -1.10623 0
M  V30 13789 C 1271.5 -5.14874 -0.809594 0
M  V30 13790 C 1268.82 -5.85181 -0.42185 0
M  V30 13791 C 1271.18 -6.32447 -0.138935 0
M  V30 13792 C 1269.84 -6.67473 0.0603129 0
M  V30 13793 H 1269.11 -0.636716 -0.379044 0
M  V30 13794 H 1271.76 -1.88963 -0.310697 0
M  V30 13795 H 1270.06 -2.77994 -2.76091 0
M  V30 13796 H 1271.76 -3.10297 -2.54001 0
M  V30 13797 H 1268.35 -4.0335 -1.44937 0
M  V30 13798 H 1272.53 -4.87278 -0.942006 0
M  V30 13799 H 1267.79 -6.10862 -0.256494 0
M  V30 13800 H 1271.96 -6.95973 0.243939 0
M  V30 13801 H 1269.59 -7.57887 0.592626 0
M  V30 13802 N 1271.17 0.563888 -1.47167 0
M  V30 13803 C 1272.12 1.66687 -1.55562 0
M  V30 13804 C 1273.1 1.55455 -0.415024 0
M  V30 13805 O 1274.29 1.64051 -0.664557 0
M  V30 13806 C 1271.42 3.05469 -1.56665 0
M  V30 13807 C 1270.51 3.21928 -2.76085 0
M  V30 13808 N 1270.9 3.08477 -4.00844 0
M  V30 13809 C 1269.2 3.52913 -2.72706 0
M  V30 13810 C 1269.9 3.27447 -4.80784 0
M  V30 13811 N 1268.87 3.53474 -4.12986 0
M  V30 13812 H 1272.68 1.54846 -2.498 0
M  V30 13813 H 1270.19 0.76846 -1.43068 0
M  V30 13814 H 1272.19 3.84655 -1.60768 0
M  V30 13815 H 1270.85 3.18427 -0.635174 0
M  V30 13816 H 1271.86 2.85944 -4.31806 0
M  V30 13817 H 1268.53 3.7244 -1.88666 0
M  V30 13818 H 1269.92 3.22072 -5.89677 0
M  V30 13819 N 1272.64 1.35187 0.810078 0
M  V30 13820 C 1273.87 1.31528 1.60359 0
M  V30 13821 C 1274.29 -0.105385 1.87805 0
M  V30 13822 O 1273.65 -1.07113 1.46276 0
M  V30 13823 C 1273.7 2.12429 2.91386 0
M  V30 13824 O 1272.8 1.50262 3.84051 0
M  V30 13825 H 1272.15 0.451122 0.487222 0
M  V30 13826 H 1274.68 1.78178 1.00568 0
M  V30 13827 H 1274.69 2.24257 3.40841 0
M  V30 13828 H 1273.36 3.15714 2.70735 0
M  V30 13829 H 1271.94 1.47253 3.42594 0
M  V30 13830 N 1274.12 -1.03182 1.19127 0
M  V30 13831 C 1275.4 -1.73586 0.901507 0
M  V30 13832 C 1275.78 -2.02585 -0.593521 0
M  V30 13833 O 1275.13 -1.67813 -1.55084 0
M  V30 13834 C 1275.34 -3.01472 1.75829 0
M  V30 13835 C 1276.69 -3.75037 1.99078 0
M  V30 13836 O 1277.71 -3.11392 1.72956 0
M  V30 13837 O 1276.57 -4.8945 2.43108 0
M  V30 13838 H 1273.66 -0.755797 0.335708 0
M  V30 13839 H 1276.21 -1.09167 1.29925 0
M  V30 13840 H 1274.98 -2.76247 2.77134 0
M  V30 13841 H 1274.6 -3.73631 1.35963 0
M  V30 13842 N 1275.6 -0.99472 -1.22242 0
M  V30 13843 C 1277.01 -0.706456 -1.72818 0
M  V30 13844 C 1277.36 0.776566 -1.80177 0
M  V30 13845 O 1276.49 1.60698 -1.44931 0
M  V30 13846 C 1277.08 -1.27571 -3.13865 0
M  V30 13847 C 1275.64 -1.03679 -3.61839 0
M  V30 13848 C 1274.79 -1.3948 -2.39668 0
M  V30 13849 H 1277.74 -1.16687 -1.07564 0
M  V30 13850 H 1277.76 -0.655202 -3.74816 0
M  V30 13851 H 1277.27 -2.35508 -3.08476 0
M  V30 13852 H 1275.37 0.0258679 -3.72591 0
M  V30 13853 H 1275.49 -1.70145 -4.4787 0
M  V30 13854 H 1273.85 -0.813418 -2.41362 0
M  V30 13855 H 1274.63 -2.48425 -2.36939 0
M  V30 13856 N 1277.08 1.37613 -0.768148 0
M  V30 13857 C 1278.01 2.28935 -0.110234 0
M  V30 13858 C 1279.02 1.48459 0.668122 0
M  V30 13859 O 1280.21 1.71154 0.506808 0
M  V30 13860 C 1277.31 3.27606 0.867598 0
M  V30 13861 C 1276.49 4.37163 0.143819 0
M  V30 13862 C 1275.54 5.15931 1.03449 0
M  V30 13863 O 1274.57 5.67003 0.499605 0
M  V30 13864 N 1275.77 5.30311 2.36114 0
M  V30 13865 H 1278.54 2.86037 -0.894585 0
M  V30 13866 H 1276.1 1.4955 -0.620185 0
M  V30 13867 H 1278.09 3.77183 1.4668 0
M  V30 13868 H 1276.66 2.71298 1.55294 0
M  V30 13869 H 1275.88 3.89031 -0.636257 0
M  V30 13870 H 1277.17 5.0755 -0.356446 0
M  V30 13871 H 1276.57 4.90394 2.82011 0
M  V30 13872 H 1275.12 5.83209 2.9105 0
M  V30 13873 N 1278.56 0.518393 1.4883 0
M  V30 13874 C 1279.79 -0.0161765 2.06594 0
M  V30 13875 C 1280.19 -1.29771 1.37681 0
M  V30 13876 O 1279.54 -1.77991 0.454421 0
M  V30 13877 C 1279.6 -0.322505 3.5805 0
M  V30 13878 C 1279.26 0.863848 4.48761 0
M  V30 13879 C 1280.26 1.75912 4.89235 0
M  V30 13880 C 1277.95 1.06757 4.90824 0
M  V30 13881 C 1279.94 2.84211 5.70528 0
M  V30 13882 C 1277.63 2.15372 5.7189 0
M  V30 13883 C 1278.62 3.03932 6.11649 0
M  V30 13884 O 1278.31 4.1067 6.9109 0
M  V30 13885 H 1278.04 0.0251212 0.675533 0
M  V30 13886 H 1280.6 0.720052 1.92365 0
M  V30 13887 H 1278.83 -1.11256 3.7035 0
M  V30 13888 H 1280.52 -0.797764 3.97983 0
M  V30 13889 H 1281.28 1.61362 4.5737 0
M  V30 13890 H 1277.16 0.387566 4.59368 0
M  V30 13891 H 1280.71 3.53364 6.01481 0
M  V30 13892 H 1276.6 2.2991 6.03168 0
M  V30 13893 H 1277.37 4.08237 7.09426 0
M  V30 13894 N 1280.03 -1.55556 0.252993 0
M  V30 13895 C 1280.96 -2.24613 -0.638047 0
M  V30 13896 C 1281.95 -1.22852 -1.1765 0
M  V30 13897 O 1283.13 -1.51519 -1.21472 0
M  V30 13898 C 1280.26 -2.95029 -1.83236 0
M  V30 13899 C 1279.21 -4.03531 -1.42641 0
M  V30 13900 C 1278.54 -4.61404 -2.70204 0
M  V30 13901 C 1279.84 -5.18923 -0.592958 0
M  V30 13902 H 1281.53 -2.99335 -0.0621918 0
M  V30 13903 H 1279.08 -1.43972 -0.0284722 0
M  V30 13904 H 1281.03 -3.42042 -2.46141 0
M  V30 13905 H 1279.76 -2.17805 -2.43369 0
M  V30 13906 H 1278.42 -3.57296 -0.820672 0
M  V30 13907 H 1278.06 -3.80874 -3.28548 0
M  V30 13908 H 1277.76 -5.34652 -2.43764 0
M  V30 13909 H 1279.29 -5.11154 -3.33997 0
M  V30 13910 H 1280.7 -5.62124 -1.12646 0
M  V30 13911 H 1279.1 -5.98598 -0.424358 0
M  V30 13912 H 1280.17 -4.83301 0.393434 0
M  V30 13913 N 1281.51 0.0200419 -1.57587 0
M  V30 13914 C 1282.93 0.375834 -1.55112 0
M  V30 13915 C 1283.13 1.76047 -0.980297 0
M  V30 13916 O 1282.18 2.45138 -0.605297 0
M  V30 13917 C 1283.5 0.269418 -2.99491 0
M  V30 13918 C 1285.05 0.345838 -3.11084 0
M  V30 13919 C 1285.52 0.268771 -4.57211 0
M  V30 13920 N 1287.01 0.32729 -4.62042 0
M  V30 13921 C 1287.75 0.290688 -5.72663 0
M  V30 13922 N 1287.24 0.205851 -6.92494 0
M  V30 13923 N 1289.04 0.341082 -5.61064 0
M  V30 13924 H 1281.19 -0.885979 -1.93039 0
M  V30 13925 H 1283.45 -0.337753 -0.885792 0
M  V30 13926 H 1283.16 -0.682452 -3.45015 0
M  V30 13927 H 1283.03 1.0595 -3.62014 0
M  V30 13928 H 1285.42 1.28814 -2.65501 0
M  V30 13929 H 1285.5 -0.47376 -2.51375 0
M  V30 13930 H 1285.14 -0.669906 -5.03463 0
M  V30 13931 H 1285.07 1.10659 -5.14842 0
M  V30 13932 H 1287.56 0.395004 -3.7583 0
M  V30 13933 H 1287.88 0.18327 -7.72583 0
M  V30 13934 H 1286.22 0.171768 -6.94788 0
M  V30 13935 H 1289.41 0.405415 -4.66341 0
M  V30 13936 H 1289.58 0.309091 -6.47262 0
M  V30 13937 N 1282.99 1.54862 0.292472 0
M  V30 13938 C 1284.22 1.7855 1.04534 0
M  V30 13939 C 1284.63 0.549161 1.80637 0
M  V30 13940 O 1283.99 -0.481268 1.7604 0
M  V30 13941 C 1284.04 2.99849 2.01923 0
M  V30 13942 O 1283.76 4.18706 1.28907 0
M  V30 13943 C 1285.26 3.35991 2.8918 0
M  V30 13944 H 1282.48 0.595279 0.309652 0
M  V30 13945 H 1285.03 2.01834 0.329159 0
M  V30 13946 H 1283.18 2.78749 2.69032 0
M  V30 13947 H 1283.6 4.87151 1.94383 0
M  V30 13948 H 1285.07 4.24085 3.53349 0
M  V30 13949 H 1285.55 2.54524 3.57931 0
M  V30 13950 H 1286.15 3.59281 2.27591 0
M  V30 13951 N 1284.47 -0.556076 1.47464 0
M  V30 13952 C 1285.38 -1.69043 1.62671 0
M  V30 13953 C 1286.39 -1.66372 0.509535 0
M  V30 13954 O 1287.57 -1.85799 0.777218 0
M  V30 13955 C 1284.64 -3.05546 1.63836 0
M  V30 13956 C 1283.7 -3.19275 2.86988 0
M  V30 13957 C 1282.93 -4.49267 2.88088 0
M  V30 13958 O 1283.15 -5.34796 1.98368 0
M  V30 13959 O 1282.09 -4.66811 3.79962 0
M  V30 13960 H 1285.91 -1.59155 2.58657 0
M  V30 13961 H 1283.5 -0.726211 1.30562 0
M  V30 13962 H 1285.38 -3.86778 1.67275 0
M  V30 13963 H 1284.05 -3.15814 0.710173 0
M  V30 13964 H 1282.96 -2.37437 2.89093 0
M  V30 13965 H 1284.29 -3.13912 3.79104 0
M  V30 13966 N 1285.95 -1.35615 -0.802897 0
M  V30 13967 C 1287.19 -1.29094 -1.56016 0
M  V30 13968 C 1287.52 0.133617 -1.9404 0
M  V30 13969 O 1286.78 1.09975 -1.61876 0
M  V30 13970 C 1287.08 -2.14653 -2.8576 0
M  V30 13971 C 1286.74 -3.63395 -2.66936 0
M  V30 13972 C 1285.4 -4.03937 -2.61511 0
M  V30 13973 C 1287.76 -4.57758 -2.49212 0
M  V30 13974 C 1285.08 -5.37006 -2.36309 0
M  V30 13975 C 1287.44 -5.91029 -2.25539 0
M  V30 13976 C 1286.1 -6.30712 -2.18538 0
M  V30 13977 H 1285.37 -0.472387 -0.570904 0
M  V30 13978 H 1288.02 -1.67545 -0.92741 0
M  V30 13979 H 1286.32 -1.69095 -3.53432 0
M  V30 13980 H 1288.02 -2.06941 -3.43477 0
M  V30 13981 H 1284.61 -3.31224 -2.72009 0
M  V30 13982 H 1288.79 -4.27318 -2.52414 0
M  V30 13983 H 1284.05 -5.66748 -2.29361 0
M  V30 13984 H 1288.22 -6.63724 -2.10816 0
M  V30 13985 H 1285.85 -7.33753 -1.98772 0
M  V30 13986 N 1287.43 1.02549 -1.19673 0
M  V30 13987 C 1288.37 2.13015 -0.934209 0
M  V30 13988 C 1289.37 1.69035 0.111208 0
M  V30 13989 O 1290.57 1.79959 -0.0383449 0
M  V30 13990 H 1286.95 0.696015 -0.284722 0
M  V30 13991 H 1288.92 2.32346 -1.87238 0
M  V30 13992 C 1287.67 3.44185 -0.493124 0
M  V30 13993 H 1286.99 3.78447 -1.28911 0
M  V30 13994 H 1288.43 4.22565 -0.348577 0
M  V30 13995 C 1286.89 3.27427 0.793277 0
M  V30 13996 O 1287.42 3.56362 1.85388 0
M  V30 13997 N 1285.63 2.80706 0.751837 0
M  V30 13998 H 1285.17 2.57359 -0.111517 0
M  V30 13999 H 1285.13 2.69874 1.61292 0
M  V30 14000 N 1288.9 1.00119 1.21713 0
M  V30 14001 C 1289.83 0.578504 2.2622 0
M  V30 14002 C 1290.81 -0.398777 1.6536 0
M  V30 14003 O 1292 -0.287596 1.92059 0
M  V30 14004 C 1289.13 -0.0994508 3.47158 0
M  V30 14005 C 1288.08 0.79722 4.2051 0
M  V30 14006 C 1287.41 -0.0141125 5.34698 0
M  V30 14007 C 1288.71 2.09802 4.7831 0
M  V30 14008 H 1290.4 1.45208 2.6183 0
M  V30 14009 H 1287.95 0.699656 1.2586 0
M  V30 14010 H 1289.9 -0.406605 4.19434 0
M  V30 14011 H 1288.63 -1.00763 3.10667 0
M  V30 14012 H 1287.29 1.08814 3.50079 0
M  V30 14013 H 1286.93 -0.923468 4.9445 0
M  V30 14014 H 1286.63 0.582883 5.84702 0
M  V30 14015 H 1288.16 -0.31517 6.09786 0
M  V30 14016 H 1289.57 1.85427 5.42485 0
M  V30 14017 H 1287.97 2.64455 5.38687 0
M  V30 14018 H 1289.04 2.77132 3.97902 0
M  V30 14019 N 1290.38 -1.37203 0.775435 0
M  V30 14020 C 1291.79 -1.82224 0.406372 0
M  V30 14021 C 1292.14 -1.64587 -1.06796 0
M  V30 14022 O 1291.27 -1.15903 -1.82744 0
M  V30 14023 C 1291.86 -3.30824 0.730819 0
M  V30 14024 C 1290.42 -3.74108 0.414766 0
M  V30 14025 C 1289.57 -2.59679 0.972747 0
M  V30 14026 H 1292.52 -1.25623 0.969775 0
M  V30 14027 H 1292.54 -3.80496 0.0168066 0
M  V30 14028 H 1292.05 -3.43628 1.80392 0
M  V30 14029 H 1290.15 -3.66871 -0.650866 0
M  V30 14030 H 1290.27 -4.70074 0.925595 0
M  V30 14031 H 1288.63 -2.51591 0.396772 0
M  V30 14032 H 1289.41 -2.75274 2.05132 0
M  V30 14033 N 1291.86 -0.526279 -1.48553 0
M  V30 14034 C 1292.81 0.238513 -2.29564 0
M  V30 14035 C 1293.78 0.937222 -1.37133 0
M  V30 14036 O 1294.96 0.93897 -1.66096 0
M  V30 14037 C 1292.1 1.28173 -3.20415 0
M  V30 14038 C 1291.21 0.592244 -4.27921 0
M  V30 14039 C 1290.35 1.61808 -5.05956 0
M  V30 14040 C 1289.39 0.911846 -6.0527 0
M  V30 14041 N 1288.53 1.88305 -6.76377 0
M  V30 14042 H 1293.37 -0.458502 -2.94452 0
M  V30 14043 H 1290.9 -0.237948 -1.45163 0
M  V30 14044 H 1292.86 1.89883 -3.71484 0
M  V30 14045 H 1291.49 1.94718 -2.57458 0
M  V30 14046 H 1290.54 -0.138714 -3.80147 0
M  V30 14047 H 1291.85 0.0375427 -4.98786 0
M  V30 14048 H 1291.01 2.30956 -5.61021 0
M  V30 14049 H 1289.75 2.20667 -4.34922 0
M  V30 14050 H 1288.75 0.206273 -5.49413 0
M  V30 14051 H 1289.98 0.329415 -6.78301 0
M  V30 14052 H 1287.92 2.46079 -6.08096 0
M  V30 14053 H 1287.84 1.37969 -7.43304 0
M  V30 14054 H 1289.11 2.56663 -7.36033 0
M  V30 14055 N 1293.34 1.5542 -0.261239 0
M  V30 14056 C 1294.27 2.18043 0.673222 0
M  V30 14057 C 1295.25 1.13696 1.16242 0
M  V30 14058 O 1296.43 1.42153 1.23793 0
M  V30 14059 C 1293.56 2.7926 1.91655 0
M  V30 14060 C 1292.61 3.96788 1.56402 0
M  V30 14061 S 1293.44 5.31489 0.654191 0
M  V30 14062 C 1294.59 5.96167 1.9062 0
M  V30 14063 H 1294.83 2.96965 0.141076 0
M  V30 14064 H 1292.36 1.54333 -0.0455871 0
M  V30 14065 H 1294.32 3.15162 2.63026 0
M  V30 14066 H 1292.98 2.00257 2.41983 0
M  V30 14067 H 1292.17 4.38262 2.48882 0
M  V30 14068 H 1291.77 3.62237 0.930618 0
M  V30 14069 H 1294.07 6.14556 2.8518 0
M  V30 14070 H 1295.01 6.91269 1.53471 0
M  V30 14071 H 1295.42 5.25381 2.06483 0
M  V30 14072 N 1294.82 -0.0116844 1.57596 0
M  V30 14073 C 1296.06 -0.699994 1.90336 0
M  V30 14074 C 1296.39 -1.74067 0.861072 0
M  V30 14075 O 1295.67 -1.94119 -0.121712 0
M  V30 14076 C 1295.95 -1.35377 3.33684 0
M  V30 14077 C 1295.81 -0.325434 4.48621 0
M  V30 14078 C 1297.12 -2.28312 3.76247 0
M  V30 14079 H 1294.24 -0.253002 0.692213 0
M  V30 14080 H 1296.89 0.037211 1.89964 0
M  V30 14081 H 1295.04 -1.98212 3.34132 0
M  V30 14082 H 1296.71 0.302331 4.60308 0
M  V30 14083 H 1294.95 0.353527 4.32357 0
M  V30 14084 H 1295.62 -0.8217 5.4585 0
M  V30 14085 H 1298.1 -1.75505 3.77276 0
M  V30 14086 H 1296.97 -2.71028 4.77321 0
M  V30 14087 H 1297.23 -3.15727 3.09465 0
M  V30 14088 N 1296.29 -1.55015 -0.284256 0
M  V30 14089 C 1297.26 -1.8636 -1.33426 0
M  V30 14090 C 1298.26 -0.737457 -1.42892 0
M  V30 14091 O 1299.45 -1.00569 -1.42238 0
M  V30 14092 C 1296.58 -2.05884 -2.71707 0
M  V30 14093 H 1297.77 -2.80212 -1.06869 0
M  V30 14094 H 1295.32 -1.47334 -0.521767 0
M  V30 14095 H 1296.06 -1.14376 -3.03461 0
M  V30 14096 H 1295.84 -2.87867 -2.66224 0
M  V30 14097 H 1297.33 -2.31447 -3.47595 0
M  V30 14098 N 1297.77 0.548248 -1.47757 0
M  V30 14099 C 1298.68 1.68178 -1.63565 0
M  V30 14100 C 1299.7 1.661 -0.518351 0
M  V30 14101 O 1300.87 1.85384 -0.787061 0
M  V30 14102 C 1297.94 3.04673 -1.65454 0
M  V30 14103 C 1297 3.17749 -2.88677 0
M  V30 14104 C 1296.23 4.47733 -2.90466 0
M  V30 14105 O 1296.46 5.33736 -2.01201 0
M  V30 14106 O 1295.39 4.64789 -3.82433 0
M  V30 14107 H 1299.22 1.57781 -2.59497 0
M  V30 14108 H 1296.8 0.719277 -1.30946 0
M  V30 14109 H 1298.68 3.85885 -1.69324 0
M  V30 14110 H 1297.36 3.15433 -0.726912 0
M  V30 14111 H 1296.26 2.359 -2.90348 0
M  V30 14112 H 1297.6 3.11897 -3.80763 0
M  V30 14113 N 1299.25 1.36039 0.795694 0
M  V30 14114 C 1300.16 1.31991 1.93948 0
M  V30 14115 C 1301.18 0.223064 1.72564 0
M  V30 14116 O 1302.35 0.454344 1.96208 0
M  V30 14117 C 1299.42 1.10228 3.28711 0
M  V30 14118 C 1298.48 2.29328 3.62914 0
M  V30 14119 C 1297.71 2.08595 4.91247 0
M  V30 14120 O 1297.93 1.05793 5.60503 0
M  V30 14121 O 1296.87 2.96222 5.23962 0
M  V30 14122 H 1300.69 2.28274 2.00311 0
M  V30 14123 H 1298.28 1.16521 0.935048 0
M  V30 14124 H 1300.16 0.999842 4.09367 0
M  V30 14125 H 1298.84 0.17003 3.23253 0
M  V30 14126 H 1297.74 2.4514 2.8259 0
M  V30 14127 H 1299.08 3.21038 3.73089 0
M  V30 14128 N 1300.73 -1.01913 1.20215 0
M  V30 14129 C 1301.98 -1.74878 1.00502 0
M  V30 14130 C 1302.29 -1.90022 -0.463792 0
M  V30 14131 O 1303.5 -2.60055 -0.779982 0
M  V30 14132 C 1301.95 -3.1452 1.74943 0
M  V30 14133 C 1301.56 -3.07397 3.259 0
M  V30 14134 C 1303.3 -3.91713 1.63589 0
M  V30 14135 C 1301.21 -4.42032 3.92889 0
M  V30 14136 H 1300.14 -0.655603 0.372426 0
M  V30 14137 H 1302.79 -1.13978 1.4381 0
M  V30 14138 H 1301.17 -3.75946 1.24421 0
M  V30 14139 H 1302.35 -2.55294 3.83617 0
M  V30 14140 H 1300.66 -2.43698 3.37639 0
M  V30 14141 H 1303.26 -4.91316 2.1098 0
M  V30 14142 H 1303.6 -4.12074 0.591665 0
M  V30 14143 H 1304.14 -3.3691 2.11511 0
M  V30 14144 H 1300.88 -4.26874 4.97453 0
M  V30 14145 H 1300.4 -4.94151 3.39962 0
M  V30 14146 H 1302.07 -5.10884 3.96997 0
M  V30 14147 N 1302.21 -1.00763 -1.2118 0
M  V30 14148 C 1303.62 -0.720905 -1.42391 0
M  V30 14149 C 1303.82 0.702918 -1.88842 0
M  V30 14150 O 1302.88 1.47191 -2.05161 0
M  V30 14151 C 1304.19 -1.739 -2.45315 0
M  V30 14152 C 1305.74 -1.75611 -2.59094 0
M  V30 14153 C 1306.21 -2.76323 -3.65253 0
M  V30 14154 N 1307.71 -2.75007 -3.72727 0
M  V30 14155 C 1308.44 -3.49594 -4.54502 0
M  V30 14156 N 1307.94 -4.33828 -5.40153 0
M  V30 14157 N 1309.73 -3.38232 -4.4895 0
M  V30 14158 H 1301.88 -1.92697 -0.893404 0
M  V30 14159 H 1304.14 -0.831888 -0.454606 0
M  V30 14160 H 1303.85 -2.75859 -2.18162 0
M  V30 14161 H 1303.72 -1.5438 -3.44161 0
M  V30 14162 H 1306.11 -0.743416 -2.85582 0
M  V30 14163 H 1306.19 -1.99203 -1.60474 0
M  V30 14164 H 1305.84 -3.77751 -3.39509 0
M  V30 14165 H 1305.77 -2.49996 -4.63476 0
M  V30 14166 H 1308.26 -2.13897 -3.11539 0
M  V30 14167 H 1308.57 -4.8753 -5.99612 0
M  V30 14168 H 1306.91 -4.3791 -5.39685 0
M  V30 14169 H 1310.11 -2.71855 -3.81068 0
M  V30 14170 H 1310.28 -3.96615 -5.12445 0
M  V30 14171 N 1303.68 1.3679 -0.7827 0
M  V30 14172 C 1305.1 1.52719 -0.463594 0
M  V30 14173 C 1305.3 1.73827 1.01914 0
M  V30 14174 O 1304.36 1.76591 1.80477 0
M  V30 14175 C 1305.67 2.71709 -1.2882 0
M  V30 14176 C 1307.22 2.85577 -1.2812 0
M  V30 14177 C 1307.69 4.07564 -2.0894 0
M  V30 14178 N 1309.18 4.14697 -2.0635 0
M  V30 14179 C 1309.92 5.08147 -2.65659 0
M  V30 14180 N 1309.41 6.07083 -3.33799 0
M  V30 14181 N 1311.21 5.00712 -2.55429 0
M  V30 14182 H 1303.36 1.21342 -1.74327 0
M  V30 14183 H 1305.62 0.591719 -0.740657 0
M  V30 14184 H 1305.33 2.62612 -2.3394 0
M  V30 14185 H 1305.2 3.65686 -0.924873 0
M  V30 14186 H 1307.59 2.94139 -0.237947 0
M  V30 14187 H 1307.67 1.92528 -1.68424 0
M  V30 14188 H 1307.31 3.99763 -3.13293 0
M  V30 14189 H 1307.24 4.99748 -1.66011 0
M  V30 14190 H 1309.73 3.43856 -1.56752 0
M  V30 14191 H 1310.05 6.74939 -3.764 0
M  V30 14192 H 1308.39 6.07329 -3.379 0
M  V30 14193 H 1311.58 4.22367 -2.01802 0
M  V30 14194 H 1311.76 5.73354 -3.01943 0
M  V30 14195 N 1305.16 0.53415 1.48272 0
M  V30 14196 C 1306.11 -0.226335 2.29688 0
M  V30 14197 C 1307.08 -0.929937 1.37628 0
M  V30 14198 O 1308.26 -0.930149 1.66592 0
M  V30 14199 C 1305.4 -1.26472 3.2109 0
M  V30 14200 C 1304.52 -0.569542 4.28229 0
M  V30 14201 C 1303.65 -1.59122 5.06807 0
M  V30 14202 C 1302.69 -0.879734 6.05745 0
M  V30 14203 N 1301.83 -1.84715 6.77366 0
M  V30 14204 H 1306.67 0.474111 2.94204 0
M  V30 14205 H 1304.21 0.245643 1.45034 0
M  V30 14206 H 1306.16 -1.87911 3.72485 0
M  V30 14207 H 1304.79 -1.9335 2.58487 0
M  V30 14208 H 1303.85 0.158872 3.80068 0
M  V30 14209 H 1305.16 -0.0110904 4.98799 0
M  V30 14210 H 1304.31 -2.27977 5.62238 0
M  V30 14211 H 1303.05 -2.18357 4.36086 0
M  V30 14212 H 1302.06 -0.177134 5.49515 0
M  V30 14213 H 1303.28 -0.293439 6.78466 0
M  V30 14214 H 1301.23 -2.42851 6.09393 0
M  V30 14215 H 1301.14 -1.34025 7.44025 0
M  V30 14216 H 1302.41 -2.52756 7.37384 0
M  V30 14217 N 1306.64 -1.55279 0.269478 0
M  V30 14218 C 1307.88 -2.01378 -0.350174 0
M  V30 14219 C 1308.24 -1.15373 -1.5347 0
M  V30 14220 O 1309.45 -1.51027 -2.22361 0
M  V30 14221 C 1307.72 -3.49904 -0.728134 0
M  V30 14222 S 1309.28 -4.17995 -1.33512 0
M  V30 14223 H 1306.09 -0.702567 -0.109179 0
M  V30 14224 H 1308.7 -1.91571 0.389994 0
M  V30 14225 H 1307.4 -4.10151 0.142925 0
M  V30 14226 H 1306.93 -3.63684 -1.49991 0
M  V30 14227 H 1308.95 -4.21153 -2.62383 0
M  V30 14228 N 1308.12 0.00332656 -1.576 0
M  V30 14229 C 1309.53 0.546581 -1.7852 0
M  V30 14230 C 1309.88 1.74147 -0.903722 0
M  V30 14231 O 1309.01 2.16144 -0.105314 0
M  V30 14232 C 1309.6 0.998344 -3.23757 0
M  V30 14233 C 1308.16 1.48693 -3.45785 0
M  V30 14234 C 1307.31 0.436617 -2.73841 0
M  V30 14235 H 1310.26 -0.222852 -1.57128 0
M  V30 14236 H 1310.28 1.86452 -3.31686 0
M  V30 14237 H 1309.79 0.128479 -3.87887 0
M  V30 14238 H 1307.89 2.3778 -2.86865 0
M  V30 14239 H 1308 1.51668 -4.5446 0
M  V30 14240 H 1306.37 0.897506 -2.38363 0
M  V30 14241 H 1307.15 -0.424225 -3.40669 0
M  V30 14242 N 1309.6 1.55164 0.276031 0
M  V30 14243 C 1310.84 1.75887 1.00953 0
M  V30 14244 C 1311.18 0.5567 1.8605 0
M  V30 14245 O 1310.45 -0.445799 1.89322 0
M  V30 14246 C 1310.73 3.06228 1.89463 0
M  V30 14247 C 1310.59 4.36795 1.07379 0
M  V30 14248 C 1311.91 3.32589 2.88223 0
M  V30 14249 H 1309.02 0.639929 0.365596 0
M  V30 14250 H 1311.67 1.87893 0.282156 0
M  V30 14251 H 1309.82 2.96124 2.51481 0
M  V30 14252 H 1311.49 4.58853 0.474549 0
M  V30 14253 H 1309.73 4.32157 0.377165 0
M  V30 14254 H 1310.4 5.24315 1.72621 0
M  V30 14255 H 1312.88 3.42467 2.36338 0
M  V30 14256 H 1311.75 4.2506 3.47297 0
M  V30 14257 H 1312.02 2.52083 3.6319 0
M  V30 14258 N 1311.07 -0.540404 1.48045 0
M  V30 14259 C 1312.31 -1.30737 1.57121 0
M  V30 14260 C 1312.68 -1.90554 0.23518 0
M  V30 14261 O 1313.88 -2.68048 0.20087 0
M  V30 14262 C 1312.15 -2.37539 2.6704 0
M  V30 14263 S 1313.71 -3.241 2.95812 0
M  V30 14264 H 1310.53 -0.444856 0.554639 0
M  V30 14265 H 1313.13 -0.61683 1.85514 0
M  V30 14266 H 1311.83 -1.92057 3.62688 0
M  V30 14267 H 1311.36 -3.11313 2.40515 0
M  V30 14268 H 1313.38 -4.37393 2.34311 0
M  V30 14269 N 1312.55 -1.36459 -0.788468 0
M  V30 14270 C 1313.97 -1.16893 -1.08666 0
M  V30 14271 C 1314.17 0.00633808 -2.01499 0
M  V30 14272 O 1313.22 0.671417 -2.4341 0
M  V30 14273 C 1314.54 -2.48018 -1.70022 0
M  V30 14274 C 1316.09 -2.5439 -1.82358 0
M  V30 14275 C 1316.56 -3.85605 -2.47129 0
M  V30 14276 N 1318.05 -3.86956 -2.54597 0
M  V30 14277 C 1318.79 -4.85224 -3.05525 0
M  V30 14278 N 1318.28 -5.93885 -3.56753 0
M  V30 14279 N 1320.08 -4.72643 -3.04246 0
M  V30 14280 H 1312.23 -2.11705 -0.171733 0
M  V30 14281 H 1314.49 -0.937784 -0.1388 0
M  V30 14282 H 1314.2 -3.34292 -1.09277 0
M  V30 14283 H 1314.07 -2.63894 -2.69518 0
M  V30 14284 H 1316.46 -1.68534 -2.4224 0
M  V30 14285 H 1316.54 -2.42414 -0.816651 0
M  V30 14286 H 1316.18 -4.71868 -1.87891 0
M  V30 14287 H 1316.11 -3.94878 -3.48395 0
M  V30 14288 H 1318.6 -3.08453 -2.18323 0
M  V30 14289 H 1318.92 -6.64839 -3.93966 0
M  V30 14290 H 1317.26 -5.97553 -3.54902 0
M  V30 14291 H 1320.45 -3.86883 -2.63513 0
M  V30 14292 H 1320.62 -5.49385 -3.43627 0
M  V30 14293 N 1314.03 1.01274 -1.20754 0
M  V30 14294 C 1315.28 1.74342 -1.01428 0
M  V30 14295 C 1315.59 1.90265 0.453708 0
M  V30 14296 O 1316.8 2.60465 0.76618 0
M  V30 14297 C 1315.25 3.13588 -1.76609 0
M  V30 14298 C 1314.86 3.05664 -3.27526 0
M  V30 14299 C 1316.61 3.9084 -1.65664 0
M  V30 14300 C 1314.51 4.39942 -3.95228 0
M  V30 14301 H 1313.44 0.653619 -0.375897 0
M  V30 14302 H 1316.09 1.13214 -1.44412 0
M  V30 14303 H 1314.48 3.75281 -1.26413 0
M  V30 14304 H 1315.65 2.53256 -3.84965 0
M  V30 14305 H 1313.97 2.41904 -3.38927 0
M  V30 14306 H 1316.56 4.9019 -2.13583 0
M  V30 14307 H 1316.91 4.11754 -0.61351 0
M  V30 14308 H 1317.44 3.35783 -2.13294 0
M  V30 14309 H 1314.18 4.24229 -4.9971 0
M  V30 14310 H 1313.7 4.92342 -3.42578 0
M  V30 14311 H 1315.38 5.08771 -3.99701 0
M  V30 14312 N 1315.51 1.01404 1.20644 0
M  V30 14313 C 1316.76 0.697244 1.89265 0
M  V30 14314 C 1317.07 -0.776149 1.79542 0
M  V30 14315 O 1318.28 -1.2054 2.43274 0
M  V30 14316 C 1316.73 1.19672 3.39421 0
M  V30 14317 C 1316.34 2.69683 3.57736 0
M  V30 14318 C 1318.09 0.955225 4.13613 0
M  V30 14319 C 1315.99 3.13124 5.01704 0
M  V30 14320 H 1314.92 0.257105 0.708811 0
M  V30 14321 H 1317.57 1.22639 1.36499 0
M  V30 14322 H 1315.96 0.595562 3.91496 0
M  V30 14323 H 1317.13 3.35326 3.16059 0
M  V30 14324 H 1315.44 2.91946 2.96911 0
M  V30 14325 H 1318.04 1.25524 5.19757 0
M  V30 14326 H 1318.38 -0.108362 4.16159 0
M  V30 14327 H 1318.92 1.51962 3.67631 0
M  V30 14328 H 1315.66 4.18748 5.04311 0
M  V30 14329 H 1315.18 2.522 5.44201 0
M  V30 14330 H 1316.86 3.05617 5.70269 0
M  V30 14331 N 1316.99 -1.36373 0.789944 0
M  V30 14332 C 1318.24 -1.98834 0.361866 0
M  V30 14333 C 1318.56 -1.63006 -1.07024 0
M  V30 14334 O 1317.83 -0.904312 -1.73779 0
M  V30 14335 H 1316.41 -0.735457 0.130812 0
M  V30 14336 H 1319.07 -1.66561 1.0121 0
M  V30 14337 H 1318.16 -3.08778 0.454122 0
M  V30 14338 N 1318.47 -0.542005 -1.47987 0
M  V30 14339 C 1319.38 0.217677 -2.33588 0
M  V30 14340 C 1320.39 0.927093 -1.47245 0
M  V30 14341 O 1321.57 0.899378 -1.80203 0
M  V30 14342 C 1318.63 1.24376 -3.23622 0
M  V30 14343 C 1317.69 0.543407 -4.25847 0
M  V30 14344 C 1316.93 1.5206 -5.11579 0
M  V30 14345 O 1317.15 2.75425 -4.99497 0
M  V30 14346 O 1316.08 1.05341 -5.9261 0
M  V30 14347 H 1319.91 -0.484089 -2.99817 0
M  V30 14348 H 1317.49 -0.302783 -1.463 0
M  V30 14349 H 1319.38 1.83644 -3.7928 0
M  V30 14350 H 1318.05 1.92772 -2.6004 0
M  V30 14351 H 1316.96 -0.090074 -3.73992 0
M  V30 14352 H 1318.29 -0.0988264 -4.92101 0
M  V30 14353 N 1319.94 1.55134 -0.277709 0
M  V30 14354 C 1320.88 2.20028 0.641913 0
M  V30 14355 C 1321.89 1.18578 1.11549 0
M  V30 14356 O 1323.08 1.45291 1.03695 0
M  V30 14357 C 1320.18 2.81443 1.88794 0
M  V30 14358 C 1319.35 4.08607 1.56074 0
M  V30 14359 C 1318.41 4.54045 2.6595 0
M  V30 14360 O 1317.44 5.19762 2.32026 0
M  V30 14361 N 1318.64 4.24403 3.96058 0
M  V30 14362 H 1321.4 2.99575 0.0864929 0
M  V30 14363 H 1318.96 1.61598 -0.0989178 0
M  V30 14364 H 1320.96 3.08784 2.616 0
M  V30 14365 H 1319.53 2.05873 2.35234 0
M  V30 14366 H 1318.75 3.88527 0.666388 0
M  V30 14367 H 1320.03 4.91455 1.31719 0
M  V30 14368 H 1319.43 3.71708 4.26439 0
M  V30 14369 H 1317.99 4.56509 4.65234 0
M  V30 14370 N 1321.42 0.00503138 1.57599 0
M  V30 14371 C 1322.67 -0.679766 1.91068 0
M  V30 14372 C 1323 -1.73144 0.879486 0
M  V30 14373 O 1322.28 -1.94237 -0.101116 0
M  V30 14374 C 1322.56 -1.3183 3.35101 0
M  V30 14375 C 1322.41 -0.277833 4.48941 0
M  V30 14376 C 1323.73 -2.24308 3.78647 0
M  V30 14377 H 1320.85 -0.245646 0.694857 0
M  V30 14378 H 1323.49 0.057357 1.89913 0
M  V30 14379 H 1321.64 -1.94657 3.36216 0
M  V30 14380 H 1323.31 0.351136 4.59962 0
M  V30 14381 H 1321.56 0.399365 4.31958 0
M  V30 14382 H 1322.23 -0.763759 5.46691 0
M  V30 14383 H 1324.7 -1.71494 3.79116 0
M  V30 14384 H 1323.58 -2.6595 4.80169 0
M  V30 14385 H 1323.84 -3.12427 3.12797 0
M  V30 14386 N 1322.9 -1.55308 -0.267798 0
M  V30 14387 C 1324.15 -1.75811 -0.996734 0
M  V30 14388 C 1324.47 -0.565161 -1.8663 0
M  V30 14389 O 1323.74 0.419775 -1.9135 0
M  V30 14390 H 1322.32 -0.648353 -0.371008 0
M  V30 14391 H 1324.98 -1.92719 -0.290775 0
M  V30 14392 H 1324.08 -2.66113 -1.63064 0
M  V30 14393 N 1324.38 0.532545 -1.4833 0
M  V30 14394 C 1325.63 1.28597 -1.55908 0
M  V30 14395 C 1325.95 1.93595 -0.233635 0
M  V30 14396 O 1325.22 1.81197 0.744605 0
M  V30 14397 H 1323.8 0.477619 -0.57436 0
M  V30 14398 H 1326.46 0.619922 -1.84778 0
M  V30 14399 H 1325.55 2.0666 -2.33877 0
M  V30 14400 N 1325.86 1.36875 0.78122 0
M  V30 14401 C 1326.79 1.27738 1.90304 0
M  V30 14402 C 1327.8 0.195147 1.61626 0
M  V30 14403 O 1328.99 0.450531 1.72721 0
M  V30 14404 C 1326.09 0.950103 3.25309 0
M  V30 14405 C 1325.26 2.13589 3.81705 0
M  V30 14406 C 1324.32 1.78037 4.95166 0
M  V30 14407 O 1323.35 2.50223 5.11251 0
M  V30 14408 N 1324.55 0.718886 5.76031 0
M  V30 14409 H 1327.31 2.24397 1.98661 0
M  V30 14410 H 1324.88 1.30376 0.959883 0
M  V30 14411 H 1326.87 0.693286 3.98717 0
M  V30 14412 H 1325.44 0.0723849 3.12516 0
M  V30 14413 H 1324.66 2.55502 3.00187 0
M  V30 14414 H 1325.95 2.9279 4.16114 0
M  V30 14415 H 1325.34 0.119681 5.65573 0
M  V30 14416 H 1323.9 0.521909 6.49707 0
M  V30 14417 N 1327.33 -1.00632 1.21289 0
M  V30 14418 C 1328.26 -2.11238 0.995021 0
M  V30 14419 C 1329.24 -1.69914 -0.0795537 0
M  V30 14420 O 1330.43 -1.94035 0.0800152 0
M  V30 14421 C 1327.56 -3.42797 0.557475 0
M  V30 14422 C 1326.51 -3.97909 1.57646 0
M  V30 14423 C 1325.84 -5.25357 0.995197 0
M  V30 14424 C 1327.14 -4.30123 2.96297 0
M  V30 14425 H 1328.83 -2.29722 1.9201 0
M  V30 14426 H 1326.38 -1.10395 0.924602 0
M  V30 14427 H 1328.33 -4.19571 0.392236 0
M  V30 14428 H 1327.06 -3.24101 -0.403253 0
M  V30 14429 H 1325.72 -3.23254 1.72924 0
M  V30 14430 H 1325.36 -5.02993 0.026227 0
M  V30 14431 H 1325.06 -5.63196 1.67583 0
M  V30 14432 H 1326.59 -6.04777 0.841251 0
M  V30 14433 H 1328 -4.97744 2.8447 0
M  V30 14434 H 1326.4 -4.79101 3.61361 0
M  V30 14435 H 1327.47 -3.38454 3.47242 0
M  V30 14436 N 1328.81 -1.02043 -1.20104 0
M  V30 14437 C 1329.76 -0.593945 -2.23027 0
M  V30 14438 C 1330.73 0.387931 -1.61506 0
M  V30 14439 O 1331.91 0.286504 -1.88637 0
M  V30 14440 C 1329.05 0.0577309 -3.45052 0
M  V30 14441 C 1328.17 -0.969169 -4.20988 0
M  V30 14442 C 1327.3 -0.288143 -5.30418 0
M  V30 14443 C 1326.34 -1.30154 -5.98102 0
M  V30 14444 N 1325.48 -0.646912 -6.99113 0
M  V30 14445 H 1330.32 -1.47623 -2.58866 0
M  V30 14446 H 1327.85 -0.738901 -1.27195 0
M  V30 14447 H 1329.81 0.452726 -4.14736 0
M  V30 14448 H 1328.44 0.90364 -3.09894 0
M  V30 14449 H 1327.49 -1.48229 -3.50332 0
M  V30 14450 H 1328.81 -1.73972 -4.67477 0
M  V30 14451 H 1327.96 0.162149 -6.06483 0
M  V30 14452 H 1326.7 0.514683 -4.84977 0
M  V30 14453 H 1325.7 -1.76218 -5.20795 0
M  V30 14454 H 1326.93 -2.10571 -6.45629 0
M  V30 14455 H 1324.88 0.135976 -6.55859 0
M  V30 14456 H 1324.79 -1.35548 -7.43749 0
M  V30 14457 H 1326.06 -0.220339 -7.79189 0
M  V30 14458 N 1330.29 1.35952 -0.797165 0
M  V30 14459 C 1331.54 1.98283 -0.369685 0
M  V30 14460 C 1331.85 1.63968 1.06649 0
M  V30 14461 O 1333.06 2.19591 1.59662 0
M  V30 14462 C 1331.51 3.54692 -0.610046 0
M  V30 14463 C 1331.12 3.97925 -2.05814 0
M  V30 14464 C 1332.87 4.23778 -0.247457 0
M  V30 14465 C 1330.77 5.47142 -2.24475 0
M  V30 14466 H 1329.7 0.741909 -0.134489 0
M  V30 14467 H 1332.35 1.55146 -0.979893 0
M  V30 14468 H 1330.74 3.95938 0.0699822 0
M  V30 14469 H 1331.91 3.67857 -2.77521 0
M  V30 14470 H 1330.23 3.417 -2.37971 0
M  V30 14471 H 1332.82 5.33452 -0.365059 0
M  V30 14472 H 1333.17 4.08436 0.805315 0
M  V30 14473 H 1333.7 3.87921 -0.881028 0
M  V30 14474 H 1330.44 5.67441 -3.28163 0
M  V30 14475 H 1329.96 5.78811 -1.57282 0
M  V30 14476 H 1331.64 6.13475 -2.05567 0
M  V30 14477 N 1331.77 0.549846 1.47697 0
M  V30 14478 C 1333.02 0.0230048 2.02087 0
M  V30 14479 C 1333.34 -1.32865 1.4273 0
M  V30 14480 O 1332.61 -1.86492 0.59981 0
M  V30 14481 H 1331.19 0.00551514 0.74698 0
M  V30 14482 H 1333.85 0.718185 1.81185 0
M  V30 14483 H 1332.95 -0.0705813 3.1202 0
M  V30 14484 N 1333.25 -1.54984 0.285932 0
M  V30 14485 C 1334.66 -1.85519 -0.209707 0
M  V30 14486 C 1335.01 -1.20794 -1.54606 0
M  V30 14487 O 1334.13 -0.500159 -2.10541 0
M  V30 14488 C 1334.73 -3.36579 -0.387283 0
M  V30 14489 C 1333.29 -3.67199 -0.827148 0
M  V30 14490 C 1332.43 -2.77203 0.073308 0
M  V30 14491 H 1335.39 -1.5037 0.507404 0
M  V30 14492 H 1335.41 -3.60269 -1.2242 0
M  V30 14493 H 1334.92 -3.83658 0.585493 0
M  V30 14494 H 1333.02 -3.25627 -1.81101 0
M  V30 14495 H 1333.13 -4.74574 -0.656976 0
M  V30 14496 H 1331.5 -2.50785 -0.444859 0
M  V30 14497 H 1332.28 -3.27099 1.04216 0
M  V30 14498 N 1334.72 -0.0133892 -1.57594 0
M  V30 14499 C 1335.97 0.667313 -1.90765 0
M  V30 14500 C 1336.29 1.73564 -0.888847 0
M  V30 14501 O 1335.56 1.95768 0.0718946 0
M  V30 14502 H 1334.14 0.24947 -0.704112 0
M  V30 14503 H 1336.81 -0.0574789 -1.94815 0
M  V30 14504 H 1335.9 1.13007 -2.90922 0
M  V30 14505 N 1336.2 1.55448 0.259558 0
M  V30 14506 C 1337.45 1.7589 0.987201 0
M  V30 14507 C 1337.76 0.574951 1.86959 0
M  V30 14508 O 1338.97 0.662091 2.63303 0
M  V30 14509 C 1337.43 3.11349 1.80526 0
M  V30 14510 C 1337.03 4.37353 0.970882 0
M  V30 14511 C 1338.78 3.41136 2.5264 0
M  V30 14512 C 1336.69 5.63847 1.7841 0
M  V30 14513 H 1335.62 0.655662 0.372321 0
M  V30 14514 H 1338.27 1.81893 0.242332 0
M  V30 14515 H 1336.65 2.9942 2.5916 0
M  V30 14516 H 1337.82 4.60237 0.227763 0
M  V30 14517 H 1336.14 4.14809 0.363669 0
M  V30 14518 H 1338.73 4.32855 3.13912 0
M  V30 14519 H 1339.08 2.61879 3.23612 0
M  V30 14520 H 1339.61 3.54224 1.81026 0
M  V30 14521 H 1336.35 6.4589 1.11834 0
M  V30 14522 H 1335.87 5.45086 2.50283 0
M  V30 14523 H 1337.55 6.02641 2.35441 0
M  V30 14524 N 1337.68 -0.524672 1.4861 0
M  V30 14525 C 1338.93 -1.27958 1.58108 0
M  V30 14526 C 1339.28 -1.90716 0.254003 0
M  V30 14527 O 1338.57 -1.7658 -0.743646 0
M  V30 14528 C 1338.77 -2.3871 2.65993 0
M  V30 14529 C 1338.6 -1.86809 4.09063 0
M  V30 14530 C 1337.37 -1.69174 4.76139 0
M  V30 14531 C 1339.57 -1.39355 4.9506 0
M  V30 14532 N 1337.55 -1.11954 6.03605 0
M  V30 14533 C 1338.92 -0.941175 6.12815 0
M  V30 14534 C 1340.97 -1.27708 4.81243 0
M  V30 14535 C 1339.68 -0.383863 7.18275 0
M  V30 14536 C 1341.7 -0.733756 5.8683 0
M  V30 14537 C 1341.06 -0.291479 7.03797 0
M  V30 14538 H 1337.16 -0.459061 0.633077 0
M  V30 14539 H 1339.75 -0.590966 1.85515 0
M  V30 14540 H 1337.92 -3.05061 2.404 0
M  V30 14541 H 1339.65 -3.05744 2.65146 0
M  V30 14542 H 1336.41 -1.92852 4.32556 0
M  V30 14543 H 1336.83 -0.853395 6.716 0
M  V30 14544 H 1341.47 -1.60506 3.91149 0
M  V30 14545 H 1339.19 -0.0435691 8.08088 0
M  V30 14546 H 1342.78 -0.646737 5.78194 0
M  V30 14547 H 1341.66 0.122396 7.84104 0
M  V30 14548 N 1339.16 -1.37287 -0.77395 0
M  V30 14549 C 1340.09 -1.28746 -1.89624 0
M  V30 14550 C 1341.1 -0.203715 -1.6152 0
M  V30 14551 O 1342.29 -0.459684 -1.72479 0
M  V30 14552 C 1339.39 -0.967342 -3.24801 0
M  V30 14553 C 1338.57 -2.1561 -3.80567 0
M  V30 14554 C 1337.62 -1.80661 -4.94215 0
M  V30 14555 O 1336.65 -2.5293 -5.09917 0
M  V30 14556 N 1337.85 -0.749424 -5.75642 0
M  V30 14557 H 1340.62 -2.25447 -1.97468 0
M  V30 14558 H 1338.18 -1.30883 -0.952956 0
M  V30 14559 H 1340.17 -0.714421 -3.98344 0
M  V30 14560 H 1338.74 -0.0889573 -3.12473 0
M  V30 14561 H 1337.96 -2.57091 -2.98828 0
M  V30 14562 H 1339.25 -2.94993 -4.14556 0
M  V30 14563 H 1338.65 -0.149673 -5.65502 0
M  V30 14564 H 1337.2 -0.556358 -6.49421 0
M  V30 14565 N 1340.64 0.999871 -1.21821 0
M  V30 14566 C 1341.57 2.08597 -0.925334 0
M  V30 14567 C 1342.55 1.62087 0.129103 0
M  V30 14568 O 1343.73 1.885 -0.000975316 0
M  V30 14569 C 1340.86 3.36443 -0.390388 0
M  V30 14570 C 1339.9 4.01869 -1.42842 0
M  V30 14571 S 1340.74 4.43618 -2.99938 0
M  V30 14572 C 1341.89 5.74644 -2.48064 0
M  V30 14573 H 1342.13 2.33119 -1.84507 0
M  V30 14574 H 1339.66 1.13339 -1.04851 0
M  V30 14575 H 1341.62 4.10405 -0.0883221 0
M  V30 14576 H 1340.28 3.09963 0.508115 0
M  V30 14577 H 1339.47 4.93902 -1.00385 0
M  V30 14578 H 1339.07 3.34202 -1.67883 0
M  V30 14579 H 1341.37 6.50642 -1.88869 0
M  V30 14580 H 1342.31 6.21919 -3.3856 0
M  V30 14581 H 1342.72 5.31709 -1.89593 0
M  V30 14582 N 1342.11 1.02678 1.19562 0
M  V30 14583 C 1343.39 0.63674 1.84946 0
M  V30 14584 C 1343.77 -0.884667 1.91669 0
M  V30 14585 O 1343.12 -1.78053 1.43211 0
M  V30 14586 C 1343.33 1.29637 3.2403 0
M  V30 14587 C 1344.68 1.41828 4.00212 0
M  V30 14588 O 1345.7 1.25338 3.3342 0
M  V30 14589 O 1344.56 1.68573 5.19851 0
M  V30 14590 H 1341.65 0.221044 0.796912 0
M  V30 14591 H 1344.2 1.1248 1.27068 0
M  V30 14592 H 1342.97 2.33549 3.1396 0
M  V30 14593 H 1342.6 0.796041 3.8955 0
M  V30 14594 N 1343.59 -1.35528 0.804364 0
M  V30 14595 C 1344.83 -2.00658 0.389299 0
M  V30 14596 C 1345.2 -1.62431 -1.02373 0
M  V30 14597 O 1346.4 -2.20264 -1.54068 0
M  V30 14598 C 1344.67 -3.52913 0.564569 0
M  V30 14599 S 1346.23 -4.38145 0.239597 0
M  V30 14600 H 1343.05 -0.695435 0.147958 0
M  V30 14601 H 1345.65 -1.65156 1.04613 0
M  V30 14602 H 1344.35 -3.78222 1.59299 0
M  V30 14603 H 1343.88 -3.93253 -0.10766 0
M  V30 14604 H 1345.9 -4.86952 -0.953533 0
M  V30 14605 N 1345.07 -0.557671 -1.47404 0
M  V30 14606 C 1346.3 -0.0386599 -2.06864 0
M  V30 14607 C 1346.71 1.25527 -1.41027 0
M  V30 14608 O 1346.07 1.75318 -0.506949 0
M  V30 14609 C 1346.12 0.160141 -3.61145 0
M  V30 14610 O 1345.84 -1.08255 -4.24515 0
M  V30 14611 C 1347.34 0.716381 -4.37473 0
M  V30 14612 H 1344.56 -0.0460523 -0.669418 0
M  V30 14613 H 1347.11 -0.771214 -1.894 0
M  V30 14614 H 1345.26 0.842826 -3.78121 0
M  V30 14615 H 1345.68 -0.88057 -5.17055 0
M  V30 14616 H 1347.15 0.804773 -5.46102 0
M  V30 14617 H 1347.63 1.72776 -4.03788 0
M  V30 14618 H 1348.23 0.0693787 -4.25243 0
M  V30 14619 N 1346.55 1.54831 -0.294147 0
M  V30 14620 C 1347.5 2.19966 0.599919 0
M  V30 14621 C 1348.48 1.1704 1.1041 0
M  V30 14622 O 1349.68 1.42785 1.04601 0
M  V30 14623 C 1346.8 2.93875 1.77461 0
M  V30 14624 C 1345.89 4.0411 1.28671 0
M  V30 14625 N 1346.28 5.03158 0.516316 0
M  V30 14626 C 1344.58 4.17527 1.56804 0
M  V30 14627 C 1345.28 5.8113 0.257361 0
M  V30 14628 N 1344.26 5.37145 0.835221 0
M  V30 14629 H 1348.06 2.939 0.00369516 0
M  V30 14630 H 1345.57 1.621 -0.0985855 0
M  V30 14631 H 1347.57 3.39001 2.4266 0
M  V30 14632 H 1346.23 2.21456 2.3746 0
M  V30 14633 H 1347.24 5.17647 0.161855 0
M  V30 14634 H 1343.92 3.56309 2.17601 0
M  V30 14635 H 1345.31 6.7093 -0.360924 0
M  V30 14636 N 1348.03 0.0217466 1.57585 0
M  V30 14637 C 1349.27 -0.658487 1.91495 0
M  V30 14638 C 1349.6 -1.72557 0.897462 0
M  V30 14639 O 1348.86 -1.95471 -0.0946909 0
M  V30 14640 C 1349.16 -1.3197 3.32143 0
M  V30 14641 C 1348.82 -0.383706 4.49264 0
M  V30 14642 C 1347.48 -0.126065 4.81035 0
M  V30 14643 C 1349.84 0.259445 5.20554 0
M  V30 14644 C 1347.16 0.782659 5.81456 0
M  V30 14645 C 1349.52 1.15618 6.21945 0
M  V30 14646 C 1348.18 1.42278 6.5216 0
M  V30 14647 H 1347.45 -0.240958 0.700729 0
M  V30 14648 H 1350.1 0.0819351 1.91325 0
M  V30 14649 H 1348.4 -2.13469 3.28539 0
M  V30 14650 H 1350.1 -1.85245 3.55648 0
M  V30 14651 H 1346.69 -0.59469 4.24454 0
M  V30 14652 H 1350.87 0.073445 4.96246 0
M  V30 14653 H 1346.13 0.996995 6.03216 0
M  V30 14654 H 1350.3 1.66077 6.76307 0
M  V30 14655 H 1347.93 2.1286 7.29791 0
M  V30 14656 N 1349.51 -1.55583 -0.251311 0
M  V30 14657 C 1350.78 -1.67954 -1.00254 0
M  V30 14658 C 1351.16 -0.560326 -2.03528 0
M  V30 14659 O 1350.51 0.436811 -2.24286 0
M  V30 14660 C 1350.72 -3.08075 -1.63985 0
M  V30 14661 C 1352.07 -3.66531 -2.14336 0
M  V30 14662 O 1353.09 -3.10846 -1.73934 0
M  V30 14663 O 1351.95 -4.64141 -2.88506 0
M  V30 14664 H 1349.05 -0.682952 -0.466375 0
M  V30 14665 H 1351.59 -1.67916 -0.245447 0
M  V30 14666 H 1350.36 -3.80983 -0.892627 0
M  V30 14667 H 1349.99 -3.12105 -2.46325 0
M  V30 14668 N 1350.98 0.516783 -1.48886 0
M  V30 14669 C 1352.23 1.26936 -1.57263 0
M  V30 14670 C 1352.55 1.93337 -0.254156 0
M  V30 14671 O 1351.82 1.81977 0.725345 0
M  V30 14672 H 1350.4 0.4715 -0.579393 0
M  V30 14673 H 1353.06 0.600289 -1.85425 0
M  V30 14674 H 1352.16 2.04167 -2.36055 0
M  V30 14675 N 1352.46 1.37696 0.766659 0
M  V30 14676 C 1353.41 1.33871 1.88009 0
M  V30 14677 C 1354.38 0.2034 1.6485 0
M  V30 14678 O 1355.56 0.393569 1.86697 0
M  V30 14679 C 1352.7 1.1566 3.25141 0
M  V30 14680 C 1351.82 2.38465 3.6022 0
M  V30 14681 C 1350.95 2.13087 4.86587 0
M  V30 14682 C 1349.99 3.31732 5.14413 0
M  V30 14683 N 1349.13 3.05872 6.3197 0
M  V30 14684 H 1353.97 2.29065 1.90613 0
M  V30 14685 H 1351.5 1.13821 0.931837 0
M  V30 14686 H 1353.46 1.03122 4.04255 0
M  V30 14687 H 1352.09 0.241115 3.21898 0
M  V30 14688 H 1351.14 2.61725 2.76051 0
M  V30 14689 H 1352.46 3.26933 3.76718 0
M  V30 14690 H 1351.61 1.97609 5.73616 0
M  V30 14691 H 1350.35 1.21965 4.72203 0
M  V30 14692 H 1349.35 3.47743 4.25858 0
M  V30 14693 H 1350.58 4.23712 5.30702 0
M  V30 14694 H 1348.53 2.17384 6.18935 0
M  V30 14695 H 1348.44 3.87885 6.48908 0
M  V30 14696 H 1349.71 2.94023 7.21922 0
M  V30 14697 N 1353.94 -0.993397 1.22349 0
M  V30 14698 C 1355.19 -1.72707 1.04189 0
M  V30 14699 C 1355.5 -1.90963 -0.423381 0
M  V30 14700 O 1356.71 -2.61651 -0.724645 0
M  V30 14701 C 1355.16 -3.10739 1.81575 0
M  V30 14702 C 1354.77 -3.00415 3.32347 0
M  V30 14703 C 1356.52 -3.88155 1.71861 0
M  V30 14704 C 1354.42 -4.33598 4.02177 0
M  V30 14705 H 1353.35 -0.647556 0.386248 0
M  V30 14706 H 1356 -1.10902 1.46195 0
M  V30 14707 H 1354.39 -3.73222 1.32367 0
M  V30 14708 H 1355.56 -2.47099 3.88946 0
M  V30 14709 H 1353.87 -2.36482 3.42732 0
M  V30 14710 H 1356.47 -4.8673 2.21354 0
M  V30 14711 H 1356.81 -4.10726 0.678939 0
M  V30 14712 H 1357.35 -3.32347 2.18609 0
M  V30 14713 H 1354.09 -4.16226 5.06395 0
M  V30 14714 H 1353.61 -4.86829 3.50367 0
M  V30 14715 H 1355.29 -5.02348 4.07744 0
M  V30 14716 N 1355.42 -1.03311 -1.19015 0
M  V30 14717 C 1356.67 -0.727266 -1.88132 0
M  V30 14718 C 1356.98 0.747488 -1.80754 0
M  V30 14719 O 1358.19 1.16654 -2.45161 0
M  V30 14720 C 1356.64 -1.25056 -3.37474 0
M  V30 14721 C 1356.25 -2.7534 -3.534 0
M  V30 14722 C 1357.99 -1.02091 -4.12041 0
M  V30 14723 C 1355.9 -3.21066 -4.96659 0
M  V30 14724 H 1354.83 -0.268349 -0.704631 0
M  V30 14725 H 1357.48 -1.24795 -1.3453 0
M  V30 14726 H 1355.86 -0.65777 -3.90499 0
M  V30 14727 H 1357.04 -3.40311 -3.10684 0
M  V30 14728 H 1355.35 -2.96633 -2.92229 0
M  V30 14729 H 1357.95 -1.33777 -5.17695 0
M  V30 14730 H 1358.29 0.0421413 -4.16279 0
M  V30 14731 H 1358.83 -1.57792 -3.65166 0
M  V30 14732 H 1355.56 -4.26719 -4.97586 0
M  V30 14733 H 1355.08 -2.60826 -5.4012 0
M  V30 14734 H 1356.76 -3.14651 -5.65335 0
M  V30 14735 N 1356.9 1.35099 -0.81154 0
M  V30 14736 C 1357.83 2.32264 -0.239925 0
M  V30 14737 C 1358.81 1.57708 0.637354 0
M  V30 14738 O 1359.99 1.85751 0.566598 0
M  V30 14739 C 1357.12 3.41931 0.608325 0
M  V30 14740 C 1356.08 4.27659 -0.170869 0
M  V30 14741 C 1355.4 5.28691 0.799398 0
M  V30 14742 C 1356.7 5.0394 -1.37266 0
M  V30 14743 H 1358.4 2.8032 -1.05172 0
M  V30 14744 H 1355.94 1.34773 -0.507185 0
M  V30 14745 H 1357.89 4.08911 1.01832 0
M  V30 14746 H 1356.62 2.92496 1.45306 0
M  V30 14747 H 1355.28 3.62265 -0.562094 0
M  V30 14748 H 1354.93 4.75521 1.63977 0
M  V30 14749 H 1354.63 5.86921 0.282331 0
M  V30 14750 H 1356.15 5.98542 1.20749 0
M  V30 14751 H 1357.56 5.63838 -1.03728 0
M  V30 14752 H 1355.96 5.7169 -1.82456 0
M  V30 14753 H 1357.03 4.34295 -2.15676 0
M  V30 14754 N 1358.37 0.56548 1.47106 0
M  V30 14755 C 1359.62 0.0445914 2.02751 0
M  V30 14756 C 1359.95 -1.30517 1.43801 0
M  V30 14757 O 1359.23 -1.85123 0.596646 0
M  V30 14758 C 1359.51 -0.0396474 3.60078 0
M  V30 14759 C 1359.36 1.3378 4.29445 0
M  V30 14760 C 1360.68 -0.748954 4.3368 0
M  V30 14761 H 1357.8 0.0176787 0.736788 0
M  V30 14762 H 1360.44 0.729363 1.75443 0
M  V30 14763 H 1358.59 -0.622826 3.83475 0
M  V30 14764 H 1360.27 1.96482 4.17364 0
M  V30 14765 H 1358.51 1.91024 3.89477 0
M  V30 14766 H 1359.18 1.23149 5.38088 0
M  V30 14767 H 1361.66 -0.253707 4.15326 0
M  V30 14768 H 1360.53 -0.776877 5.43374 0
M  V30 14769 H 1360.79 -1.80679 4.03494 0
M  V30 14770 N 1359.85 -1.54672 0.302354 0
M  V30 14771 C 1361.1 -1.99771 -0.305919 0
M  V30 14772 C 1361.42 -1.19225 -1.54306 0
M  V30 14773 O 1360.69 -0.288569 -1.93763 0
M  V30 14774 H 1359.27 -0.737934 -0.116026 0
M  V30 14775 H 1361.93 -1.90452 0.413997 0
M  V30 14776 H 1361.03 -3.06719 -0.577024 0
M  V30 14777 N 1361.33 -0.0301034 -1.57571 0
M  V30 14778 C 1362.58 0.647672 -1.91019 0
M  V30 14779 C 1362.89 1.73234 -0.908265 0
M  V30 14780 O 1364.1 2.46682 -1.13402 0
M  V30 14781 C 1362.55 1.20327 -3.3919 0
M  V30 14782 C 1362.16 0.151833 -4.47743 0
M  V30 14783 C 1363.91 1.8575 -3.81703 0
M  V30 14784 C 1361.81 0.719119 -5.87012 0
M  V30 14785 H 1360.74 0.245682 -0.712851 0
M  V30 14786 H 1363.39 -0.0955645 -1.83251 0
M  V30 14787 H 1361.78 1.99814 -3.41892 0
M  V30 14788 H 1362.95 -0.620659 -4.56601 0
M  V30 14789 H 1361.27 -0.403699 -4.14438 0
M  V30 14790 H 1363.86 2.29151 -4.83109 0
M  V30 14791 H 1364.21 2.70061 -3.16817 0
M  V30 14792 H 1364.74 1.1295 -3.81428 0
M  V30 14793 H 1361.48 -0.0858832 -6.55444 0
M  V30 14794 H 1361 1.46008 -5.81758 0
M  V30 14795 H 1362.68 1.20856 -6.35612 0
M  V30 14796 N 1362.81 1.55714 0.243056 0
M  V30 14797 C 1363.76 1.87031 1.30397 0
M  V30 14798 C 1364.74 0.731497 1.43311 0
M  V30 14799 O 1365.93 0.9935 1.46487 0
M  V30 14800 C 1363.06 2.17185 2.65868 0
M  V30 14801 C 1362.15 3.37403 2.56944 0
M  V30 14802 N 1362.54 4.56575 2.17653 0
M  V30 14803 C 1360.84 3.4059 2.87949 0
M  V30 14804 C 1361.54 5.38715 2.19455 0
M  V30 14805 N 1360.52 4.77875 2.59108 0
M  V30 14806 H 1364.32 2.76697 0.990755 0
M  V30 14807 H 1361.83 1.55992 0.451675 0
M  V30 14808 H 1363.83 2.37787 3.42437 0
M  V30 14809 H 1362.49 1.28819 2.98053 0
M  V30 14810 H 1363.5 4.82129 1.89134 0
M  V30 14811 H 1360.18 2.62506 3.24648 0
M  V30 14812 H 1361.57 6.44066 1.91385 0
M  V30 14813 N 1364.29 -0.50888 1.49158 0
M  V30 14814 C 1365.53 -1.26537 1.58481 0
M  V30 14815 C 1365.87 -1.92353 0.267168 0
M  V30 14816 O 1365.14 -1.80336 -0.728639 0
M  V30 14817 C 1365.42 -2.33846 2.73839 0
M  V30 14818 C 1365.28 -1.72582 4.15374 0
M  V30 14819 C 1366.6 -3.35467 2.84868 0
M  V30 14820 H 1363.71 -0.458697 0.576859 0
M  V30 14821 H 1366.36 -0.564728 1.81413 0
M  V30 14822 H 1364.51 -2.93605 2.54417 0
M  V30 14823 H 1366.18 -1.16711 4.46292 0
M  V30 14824 H 1364.42 -1.03025 4.21389 0
M  V30 14825 H 1365.09 -2.5038 4.91949 0
M  V30 14826 H 1367.57 -2.85689 3.02524 0
M  V30 14827 H 1366.44 -4.07922 3.67275 0
M  V30 14828 H 1366.71 -3.97313 1.93894 0
M  V30 14829 N 1365.76 -1.381 -0.759346 0
M  V30 14830 C 1366.67 -1.37086 -1.9038 0
M  V30 14831 C 1367.69 -0.268738 -1.71912 0
M  V30 14832 O 1368.87 -0.506205 -1.94935 0
M  V30 14833 C 1365.93 -1.18905 -3.25672 0
M  V30 14834 C 1364.99 -2.3887 -3.56707 0
M  V30 14835 C 1364.23 -2.21546 -4.85544 0
M  V30 14836 O 1364.45 -1.20616 -5.57501 0
M  V30 14837 O 1363.38 -3.10009 -5.15924 0
M  V30 14838 H 1367.21 -2.33505 -1.94188 0
M  V30 14839 H 1364.79 -1.18959 -0.903826 0
M  V30 14840 H 1366.68 -1.10803 -4.06572 0
M  V30 14841 H 1365.35 -0.255675 -3.22689 0
M  V30 14842 H 1364.26 -2.52546 -2.75992 0
M  V30 14843 H 1365.59 -3.30817 -3.64446 0
M  V30 14844 N 1367.24 0.986894 -1.22875 0
M  V30 14845 C 1368.47 1.768 -1.08427 0
M  V30 14846 C 1368.89 1.84612 0.360555 0
M  V30 14847 O 1368.25 1.30299 1.26063 0
M  V30 14848 C 1368.3 3.17638 -1.70701 0
M  V30 14849 O 1367.4 4.00957 -0.964752 0
M  V30 14850 H 1366.74 0.544199 -0.380451 0
M  V30 14851 H 1369.27 1.23931 -1.62795 0
M  V30 14852 H 1369.28 3.68243 -1.75672 0
M  V30 14853 H 1367.96 3.11267 -2.75837 0
M  V30 14854 H 1366.54 3.59477 -0.991493 0
M  V30 14855 N 1368.72 1.0394 1.18466 0
M  V30 14856 C 1369.97 0.740576 1.88042 0
M  V30 14857 C 1370.29 -0.733822 1.80666 0
M  V30 14858 O 1369.56 -1.52943 1.22414 0
M  V30 14859 H 1368.14 0.270949 0.696129 0
M  V30 14860 H 1370.8 1.31588 1.43772 0
M  V30 14861 H 1369.9 1.04429 2.94111 0
M  V30 14862 N 1370.2 -1.34667 0.818693 0
M  V30 14863 C 1371.43 -2.02348 0.417002 0
M  V30 14864 C 1371.84 -1.61813 -0.980464 0
M  V30 14865 O 1371.18 -0.817232 -1.64521 0
M  V30 14866 C 1371.24 -3.56861 0.434779 0
M  V30 14867 C 1370.91 -4.20704 1.78485 0
M  V30 14868 C 1371.9 -4.41524 2.74504 0
M  V30 14869 C 1369.59 -4.57566 2.07217 0
M  V30 14870 C 1371.58 -4.98324 3.97431 0
M  V30 14871 C 1369.27 -5.14078 3.30405 0
M  V30 14872 C 1370.27 -5.344 4.2533 0
M  V30 14873 O 1369.95 -5.89717 5.46342 0
M  V30 14874 H 1369.69 -0.655279 0.16609 0
M  V30 14875 H 1372.24 -1.73011 1.10708 0
M  V30 14876 H 1370.47 -3.8544 -0.311973 0
M  V30 14877 H 1372.16 -4.05864 0.0537258 0
M  V30 14878 H 1372.93 -4.13414 2.53601 0
M  V30 14879 H 1368.8 -4.41054 1.34135 0
M  V30 14880 H 1372.35 -5.14102 4.71534 0
M  V30 14881 H 1368.25 -5.41616 3.51174 0
M  V30 14882 H 1369.01 -6.08155 5.47804 0
M  V30 14883 N 1371.68 -0.573274 -1.46804 0
M  V30 14884 C 1372.93 -0.0530267 -2.0163 0
M  V30 14885 C 1373.24 1.31124 -1.45141 0
M  V30 14886 O 1374.44 1.92231 -1.91728 0
M  V30 14887 C 1372.9 -0.0442411 -3.59873 0
M  V30 14888 C 1372.51 -1.40625 -4.25357 0
M  V30 14889 C 1374.25 0.422556 -4.22392 0
M  V30 14890 C 1372.16 -1.3557 -5.75652 0
M  V30 14891 H 1371.09 -0.0160537 -0.753829 0
M  V30 14892 H 1373.74 -0.723518 -1.68634 0
M  V30 14893 H 1372.12 0.692225 -3.89903 0
M  V30 14894 H 1373.3 -2.1617 -4.06949 0
M  V30 14895 H 1371.61 -1.81229 -3.74893 0
M  V30 14896 H 1374.21 0.479021 -5.3255 0
M  V30 14897 H 1374.55 1.43806 -3.90673 0
M  V30 14898 H 1375.08 -0.259551 -3.96952 0
M  V30 14899 H 1371.82 -2.34772 -6.12015 0
M  V30 14900 H 1371.34 -0.642309 -5.96351 0
M  V30 14901 H 1373.02 -1.06458 -6.38182 0
M  V30 14902 N 1373.15 1.5451 -0.310553 0
M  V30 14903 C 1374.4 2.01334 0.289169 0
M  V30 14904 C 1374.76 1.195 1.5079 0
M  V30 14905 O 1374.05 0.265743 1.89748 0
M  V30 14906 C 1374.24 3.5072 0.68779 0
M  V30 14907 C 1374.07 4.47014 -0.490764 0
M  V30 14908 C 1372.84 4.95591 -0.98579 0
M  V30 14909 C 1375.04 4.96569 -1.3388 0
M  V30 14910 N 1373.02 5.7576 -2.13011 0
M  V30 14911 C 1374.39 5.74534 -2.33047 0
M  V30 14912 C 1376.45 4.78736 -1.36807 0
M  V30 14913 C 1375.15 6.36565 -3.3493 0
M  V30 14914 C 1377.18 5.41593 -2.37553 0
M  V30 14915 C 1376.54 6.19398 -3.35448 0
M  V30 14916 H 1372.64 0.77886 0.070013 0
M  V30 14917 H 1375.22 1.89602 -0.442639 0
M  V30 14918 H 1373.39 3.62723 1.38875 0
M  V30 14919 H 1375.12 3.84327 1.26787 0
M  V30 14920 H 1371.88 4.70287 -0.559195 0
M  V30 14921 H 1372.3 6.20526 -2.70696 0
M  V30 14922 H 1376.95 4.18156 -0.624923 0
M  V30 14923 H 1374.66 6.96273 -4.10158 0
M  V30 14924 H 1378.25 5.29718 -2.40603 0
M  V30 14925 H 1377.13 6.67173 -4.12128 0
M  V30 14926 N 1374.63 0.0384594 1.57553 0
M  V30 14927 C 1375.6 -0.925358 2.0969 0
M  V30 14928 C 1376.6 -1.24811 1.01385 0
M  V30 14929 O 1377.79 -1.1869 1.27508 0
M  V30 14930 C 1374.92 -2.2391 2.57055 0
M  V30 14931 H 1376.11 -0.473633 2.96136 0
M  V30 14932 H 1373.66 -0.209736 1.54886 0
M  V30 14933 H 1374.4 -2.73691 1.73964 0
M  V30 14934 H 1374.18 -2.01793 3.36188 0
M  V30 14935 H 1375.67 -2.92974 2.97583 0
M  V30 14936 N 1376.11 -1.55841 -0.234795 0
M  V30 14937 C 1377.04 -1.87793 -1.31402 0
M  V30 14938 C 1378.06 -0.765113 -1.43701 0
M  V30 14939 O 1379.25 -1.04332 -1.44834 0
M  V30 14940 C 1376.35 -2.05976 -2.69123 0
M  V30 14941 C 1375.52 -3.36914 -2.7894 0
M  V30 14942 C 1374.58 -3.44691 -3.97586 0
M  V30 14943 O 1373.6 -4.17818 -3.86545 0
M  V30 14944 N 1374.81 -2.74866 -5.11301 0
M  V30 14945 H 1377.57 -2.80957 -1.04324 0
M  V30 14946 H 1375.13 -1.56226 -0.424872 0
M  V30 14947 H 1377.12 -2.08507 -3.46853 0
M  V30 14948 H 1375.69 -1.195 -2.88857 0
M  V30 14949 H 1374.91 -3.46595 -1.87791 0
M  V30 14950 H 1376.2 -4.23196 -2.82458 0
M  V30 14951 H 1375.6 -2.15208 -5.23165 0
M  V30 14952 H 1374.16 -2.83075 -5.87122 0
M  V30 14953 N 1377.59 0.500963 -1.49426 0
M  V30 14954 C 1378.84 1.25171 -1.58162 0
M  V30 14955 C 1379.15 1.93678 -0.273556 0
M  V30 14956 O 1380.36 2.70442 -0.239462 0
M  V30 14957 C 1378.81 2.27276 -2.79059 0
M  V30 14958 C 1378.42 1.64708 -4.16624 0
M  V30 14959 C 1380.17 3.03178 -2.97125 0
M  V30 14960 C 1378.07 2.64923 -5.28743 0
M  V30 14961 H 1377 0.470867 -0.588897 0
M  V30 14962 H 1379.65 0.525569 -1.75812 0
M  V30 14963 H 1378.04 3.03052 -2.54903 0
M  V30 14964 H 1379.21 0.949231 -4.50917 0
M  V30 14965 H 1377.52 1.01195 -4.03916 0
M  V30 14966 H 1380.12 3.78122 -3.78058 0
M  V30 14967 H 1380.46 3.60793 -2.07687 0
M  V30 14968 H 1381 2.34517 -3.2132 0
M  V30 14969 H 1377.74 2.12089 -6.20241 0
M  V30 14970 H 1377.26 3.32948 -4.98904 0
M  V30 14971 H 1378.94 3.27349 -5.58079 0
M  V30 14972 N 1379.07 1.38501 0.752011 0
M  V30 14973 C 1380.32 1.34112 1.50655 0
M  V30 14974 C 1380.63 -0.0657661 1.95489 0
M  V30 14975 O 1381.84 -0.232199 2.70505 0
M  V30 14976 C 1380.29 2.35514 2.72142 0
M  V30 14977 C 1379.9 3.81831 2.34326 0
M  V30 14978 C 1381.64 2.40171 3.50026 0
M  V30 14979 C 1379.55 4.74915 3.52434 0
M  V30 14980 H 1378.48 0.498519 0.565681 0
M  V30 14981 H 1381.13 1.64064 0.821913 0
M  V30 14982 H 1379.51 1.98607 3.42595 0
M  V30 14983 H 1380.69 4.27685 1.7153 0
M  V30 14984 H 1379 3.80308 1.69573 0
M  V30 14985 H 1381.6 3.06913 4.37845 0
M  V30 14986 H 1381.94 1.42111 3.91293 0
M  V30 14987 H 1382.48 2.75884 2.86588 0
M  V30 14988 H 1379.21 5.74176 3.16232 0
M  V30 14989 H 1378.73 4.33753 4.14268 0
M  V30 14990 H 1380.41 4.93003 4.18995 0
M  V30 14991 N 1380.55 -0.980364 1.23396 0
M  V30 14992 C 1381.77 -1.76223 1.09363 0
M  V30 14993 C 1382.2 -1.84801 -0.350759 0
M  V30 14994 O 1381.55 -1.30966 -1.2537 0
M  V30 14995 C 1381.6 -3.16728 1.72383 0
M  V30 14996 O 1380.71 -4.00439 0.986002 0
M  V30 14997 H 1380.05 -0.542174 0.383332 0
M  V30 14998 H 1382.58 -1.23066 1.6345 0
M  V30 14999 H 1382.59 -3.67307 1.77623 0
M  V30 15000 H 1381.26 -3.098 2.77483 0
M  V30 15001 H 1379.84 -3.58946 1.01054 0
M  V30 15002 N 1382.02 -1.04567 -1.17913 0
M  V30 15003 C 1382.96 -0.599154 -2.2123 0
M  V30 15004 C 1383.97 0.333824 -1.59341 0
M  V30 15005 O 1385.16 0.127548 -1.78044 0
M  V30 15006 C 1382.26 0.144045 -3.38594 0
M  V30 15007 C 1381.43 -0.798061 -4.30058 0
M  V30 15008 C 1380.49 -0.0972548 -5.2611 0
M  V30 15009 O 1379.52 -0.729318 -5.64508 0
M  V30 15010 N 1380.72 1.16759 -5.68637 0
M  V30 15011 H 1383.48 -1.48781 -2.60162 0
M  V30 15012 H 1381.04 -0.926787 -1.32749 0
M  V30 15013 H 1383.04 0.622843 -3.99878 0
M  V30 15014 H 1381.61 0.934292 -2.98311 0
M  V30 15015 H 1380.83 -1.45662 -3.66301 0
M  V30 15016 H 1382.11 -1.43777 -4.88063 0
M  V30 15017 H 1381.51 1.70155 -5.39503 0
M  V30 15018 H 1380.07 1.59057 -6.32095 0
M  V30 15019 N 1383.5 1.34231 -0.825823 0
M  V30 15020 C 1384.41 2.33245 -0.251803 0
M  V30 15021 C 1385.43 1.62756 0.615334 0
M  V30 15022 O 1386.6 1.94503 0.522547 0
M  V30 15023 C 1383.67 3.41908 0.574456 0
M  V30 15024 C 1382.73 4.2814 -0.315422 0
M  V30 15025 C 1381.96 5.31613 0.471496 0
M  V30 15026 O 1382.19 5.44337 1.70449 0
M  V30 15027 O 1381.12 6.01719 -0.147691 0
M  V30 15028 H 1384.95 2.84174 -1.07139 0
M  V30 15029 H 1382.53 1.37341 -0.588032 0
M  V30 15030 H 1384.41 4.08252 1.04444 0
M  V30 15031 H 1383.09 2.93217 1.37132 0
M  V30 15032 H 1381.99 3.64709 -0.832963 0
M  V30 15033 H 1383.33 4.80279 -1.07672 0
M  V30 15034 N 1384.98 0.581051 1.46498 0
M  V30 15035 C 1386.21 0.0715652 2.06776 0
M  V30 15036 C 1386.62 -1.23267 1.43006 0
M  V30 15037 O 1385.98 -1.74489 0.534776 0
M  V30 15038 C 1386.03 -0.102666 3.61354 0
M  V30 15039 O 1385.75 1.14995 4.22739 0
M  V30 15040 C 1387.25 -0.646692 4.38558 0
M  V30 15041 H 1384.47 0.0566964 0.6686 0
M  V30 15042 H 1387.02 0.801248 1.8815 0
M  V30 15043 H 1385.17 -0.782564 3.79414 0
M  V30 15044 H 1385.59 0.962718 5.15589 0
M  V30 15045 H 1387.06 -0.717791 5.47313 0
M  V30 15046 H 1387.54 -1.6633 4.06486 0
M  V30 15047 H 1388.14 -0.00171739 4.253 0
M  V30 15048 N 1386.46 -1.54343 0.318742 0
M  V30 15049 C 1387.42 -2.22828 -0.536679 0
M  V30 15050 C 1388.42 -1.22013 -1.04735 0
M  V30 15051 O 1389.61 -1.46626 -0.940549 0
M  V30 15052 C 1386.74 -2.92857 -1.74493 0
M  V30 15053 H 1387.94 -2.99836 0.0619325 0
M  V30 15054 H 1385.49 -1.56144 0.0697687 0
M  V30 15055 H 1386.22 -2.19973 -2.3829 0
M  V30 15056 H 1386.01 -3.66779 -1.38621 0
M  V30 15057 H 1387.5 -3.45049 -2.35225 0
M  V30 15058 N 1387.94 -0.0468143 -1.5753 0
M  V30 15059 C 1389.21 0.667567 -1.83856 0
M  V30 15060 C 1389.59 1.89297 -0.934346 0
M  V30 15061 O 1388.94 2.28499 0.00570067 0
M  V30 15062 C 1389.15 1.029 -3.33485 0
M  V30 15063 C 1390.5 1.41315 -4.00394 0
M  V30 15064 O 1391.52 1.12147 -3.38085 0
M  V30 15065 O 1390.38 1.95732 -5.10246 0
M  V30 15066 H 1387.48 0.329112 -0.758692 0
M  V30 15067 H 1390.02 -0.0758456 -1.6953 0
M  V30 15068 H 1388.79 0.157617 -3.90982 0
M  V30 15069 H 1388.42 1.83 -3.52982 0
M  V30 15070 N 1389.41 1.55964 0.226527 0
M  V30 15071 C 1390.65 1.80518 0.958774 0
M  V30 15072 C 1391.02 0.619549 1.81729 0
M  V30 15073 O 1392.22 0.744294 2.5829 0
M  V30 15074 C 1390.49 3.09939 1.77968 0
M  V30 15075 S 1392.05 3.5579 2.56824 0
M  V30 15076 H 1388.87 0.633829 0.322151 0
M  V30 15077 H 1391.47 1.94203 0.224786 0
M  V30 15078 H 1390.17 3.94277 1.13903 0
M  V30 15079 H 1389.7 2.99047 2.55605 0
M  V30 15080 H 1391.72 3.18734 3.80293 0
M  V30 15081 N 1390.89 -0.493031 1.4969 0
M  V30 15082 C 1392.12 -1.27046 1.633 0
M  V30 15083 C 1392.54 -1.86278 0.307534 0
M  V30 15084 O 1391.89 -1.68208 -0.707968 0
M  V30 15085 C 1391.94 -2.39501 2.70779 0
M  V30 15086 O 1391.66 -1.82702 3.98185 0
M  V30 15087 C 1393.17 -3.30744 2.95166 0
M  V30 15088 H 1390.39 -0.385042 0.54953 0
M  V30 15089 H 1392.93 -0.590998 1.95774 0
M  V30 15090 H 1391.08 -3.03263 2.41061 0
M  V30 15091 H 1391.5 -2.56588 4.57452 0
M  V30 15092 H 1392.97 -4.05912 3.74085 0
M  V30 15093 H 1393.45 -3.88217 2.05387 0
M  V30 15094 H 1394.06 -2.72741 3.26332 0
M  V30 15095 N 1392.37 -1.38898 -0.744656 0
M  V30 15096 C 1393.62 -1.35795 -1.50623 0
M  V30 15097 C 1393.95 0.0491775 -1.94138 0
M  V30 15098 O 1393.22 1.01219 -1.66087 0
M  V30 15099 C 1393.51 -2.32168 -2.75263 0
M  V30 15100 C 1393.36 -3.81781 -2.3783 0
M  V30 15101 C 1394.68 -2.26526 -3.77325 0
M  V30 15102 H 1391.8 -0.494591 -0.546396 0
M  V30 15103 H 1394.44 -1.69816 -0.852211 0
M  V30 15104 H 1392.59 -2.03287 -3.31069 0
M  V30 15105 H 1394.26 -4.21373 -1.8773 0
M  V30 15106 H 1392.51 -3.99027 -1.70176 0
M  V30 15107 H 1393.18 -4.44687 -3.27044 0
M  V30 15108 H 1395.65 -2.52041 -3.31081 0
M  V30 15109 H 1394.53 -2.96053 -4.62216 0
M  V30 15110 H 1394.79 -1.26705 -4.23554 0
M  V30 15111 N 1393.85 0.973806 -1.23914 0
M  V30 15112 C 1394.8 2.06734 -1.02614 0
M  V30 15113 C 1395.77 1.65997 0.0585705 0
M  V30 15114 O 1396.95 1.90564 -0.0948467 0
M  V30 15115 C 1394.09 3.39292 -0.630493 0
M  V30 15116 C 1393.2 3.9326 -1.78803 0
M  V30 15117 C 1392.34 5.14059 -1.33854 0
M  V30 15118 C 1391.38 5.60209 -2.46642 0
M  V30 15119 N 1390.51 6.72232 -2.02603 0
M  V30 15120 H 1395.35 2.24287 -1.96212 0
M  V30 15121 H 1392.89 1.09935 -0.977376 0
M  V30 15122 H 1394.85 4.15446 -0.382163 0
M  V30 15123 H 1393.48 3.21682 0.268483 0
M  V30 15124 H 1392.53 3.13801 -2.15019 0
M  V30 15125 H 1393.84 4.23475 -2.63573 0
M  V30 15126 H 1393 5.97567 -1.04873 0
M  V30 15127 H 1391.74 4.85513 -0.46131 0
M  V30 15128 H 1390.74 4.75278 -2.7639 0
M  V30 15129 H 1391.97 5.90771 -3.34912 0
M  V30 15130 H 1389.91 6.45433 -1.17269 0
M  V30 15131 H 1389.83 7.01865 -2.80929 0
M  V30 15132 H 1391.1 7.59198 -1.76745 0
M  V30 15133 N 1395.33 1.05191 1.17357 0
M  V30 15134 C 1396.29 0.65713 2.19578 0
M  V30 15135 C 1397.29 -0.29138 1.58138 0
M  V30 15136 O 1398.48 -0.075254 1.74037 0
M  V30 15137 C 1395.61 -0.0348162 3.40882 0
M  V30 15138 H 1396.8 1.56188 2.56018 0
M  V30 15139 H 1394.36 0.845795 1.31438 0
M  V30 15140 H 1395.09 -0.952835 3.09986 0
M  V30 15141 H 1394.88 0.647076 3.86724 0
M  V30 15142 H 1396.37 -0.297135 4.16542 0
M  V30 15143 N 1396.8 -1.33791 0.83293 0
M  V30 15144 C 1398.05 -1.98266 0.426412 0
M  V30 15145 C 1398.38 -1.65848 -1.01035 0
M  V30 15146 O 1397.66 -0.93528 -1.70537 0
M  V30 15147 C 1397.94 -3.54356 0.640586 0
M  V30 15148 C 1397.79 -3.96482 2.12419 0
M  V30 15149 C 1399.11 -4.40022 0.0829237 0
M  V30 15150 H 1396.23 -0.720213 0.156404 0
M  V30 15151 H 1398.87 -1.58527 1.04735 0
M  V30 15152 H 1397.02 -3.88338 0.11204 0
M  V30 15153 H 1398.7 -3.72786 2.71714 0
M  V30 15154 H 1396.94 -3.46429 2.61092 0
M  V30 15155 H 1397.61 -5.05179 2.22482 0
M  V30 15156 H 1400.09 -4.12651 0.534634 0
M  V30 15157 H 1398.96 -5.48272 0.262511 0
M  V30 15158 H 1399.22 -4.30341 -1.01287 0
M  V30 15159 N 1398.28 -0.588812 -1.46187 0
M  V30 15160 C 1399.21 0.128595 -2.33146 0
M  V30 15161 C 1400.19 0.877608 -1.45712 0
M  V30 15162 O 1401.38 0.851866 -1.74519 0
M  V30 15163 C 1398.51 1.13886 -3.28096 0
M  V30 15164 C 1397.46 0.504296 -4.25019 0
M  V30 15165 C 1396.79 1.62147 -5.09522 0
M  V30 15166 C 1398.09 -0.562466 -5.19263 0
M  V30 15167 H 1399.78 -0.597455 -2.93378 0
M  V30 15168 H 1397.33 -0.288764 -1.41075 0
M  V30 15169 H 1399.28 1.64916 -3.8779 0
M  V30 15170 H 1398.01 1.89527 -2.65983 0
M  V30 15171 H 1396.66 0.0150325 -3.66597 0
M  V30 15172 H 1396.31 2.36769 -4.4379 0
M  V30 15173 H 1396.01 1.20249 -5.75164 0
M  V30 15174 H 1397.54 2.13441 -5.7208 0
M  V30 15175 H 1398.95 -0.137003 -5.73136 0
M  V30 15176 H 1397.35 -0.902115 -5.93281 0
M  V30 15177 H 1398.42 -1.4464 -4.62825 0
M  V30 15178 N 1399.76 1.54172 -0.326923 0
M  V30 15179 C 1400.69 2.21958 0.571588 0
M  V30 15180 C 1401.71 1.22067 1.0772 0
M  V30 15181 O 1402.89 1.48517 0.990202 0
M  V30 15182 C 1399.99 2.87307 1.79744 0
M  V30 15183 C 1399.17 4.13366 1.42995 0
M  V30 15184 C 1398.23 4.62276 2.5137 0
M  V30 15185 O 1397.25 5.2688 2.15373 0
M  V30 15186 N 1398.45 4.36789 3.82355 0
M  V30 15187 H 1401.22 2.99699 -0.00885848 0
M  V30 15188 H 1398.78 1.61201 -0.150279 0
M  V30 15189 H 1400.77 3.1695 2.51644 0
M  V30 15190 H 1399.34 2.13252 2.28566 0
M  V30 15191 H 1398.56 3.9045 0.542444 0
M  V30 15192 H 1399.85 4.95396 1.16017 0
M  V30 15193 H 1399.25 3.85086 4.14397 0
M  V30 15194 H 1397.81 4.71079 4.50475 0
M  V30 15195 N 1401.24 0.0551678 1.57503 0
M  V30 15196 C 1402.17 -0.915714 2.14795 0
M  V30 15197 C 1403.15 -1.32179 1.07065 0
M  V30 15198 O 1404.33 -1.39579 1.35023 0
M  V30 15199 C 1401.46 -2.18916 2.69616 0
M  V30 15200 C 1400.42 -1.92303 3.82366 0
M  V30 15201 C 1399.74 -3.26136 4.23721 0
M  V30 15202 C 1401.04 -1.24146 5.07331 0
M  V30 15203 H 1402.74 -0.438499 2.96171 0
M  V30 15204 H 1400.28 -0.209477 1.42468 0
M  V30 15205 H 1402.24 -2.87239 3.08337 0
M  V30 15206 H 1400.96 -2.6885 1.85437 0
M  V30 15207 H 1399.62 -1.26391 3.44123 0
M  V30 15208 H 1399.27 -3.73879 3.36487 0
M  V30 15209 H 1398.97 -3.09126 4.99715 0
M  V30 15210 H 1400.49 -3.95684 4.65045 0
M  V30 15211 H 1401.91 -1.8251 5.43473 0
M  V30 15212 H 1400.3 -1.17449 5.88494 0
M  V30 15213 H 1401.37 -0.218073 4.84409 0
M  V30 15214 N 1402.72 -1.56081 -0.218252 0
M  V30 15215 C 1403.65 -1.95706 -1.27364 0
M  V30 15216 C 1404.63 -0.825731 -1.48713 0
M  V30 15217 O 1405.81 -1.08829 -1.60841 0
M  V30 15218 C 1402.94 -2.2766 -2.62275 0
M  V30 15219 C 1401.9 -3.43314 -2.55576 0
M  V30 15220 C 1401.22 -3.60883 -3.94547 0
M  V30 15221 C 1402.52 -4.7819 -2.10075 0
M  V30 15222 H 1404.22 -2.84113 -0.944459 0
M  V30 15223 H 1401.76 -1.36693 -0.452882 0
M  V30 15224 H 1403.72 -2.53973 -3.36268 0
M  V30 15225 H 1402.44 -1.3611 -2.96887 0
M  V30 15226 H 1401.1 -3.17056 -1.8404 0
M  V30 15227 H 1400.75 -2.66703 -4.26472 0
M  V30 15228 H 1400.45 -4.38674 -3.90946 0
M  V30 15229 H 1401.97 -3.89547 -4.70197 0
M  V30 15230 H 1403.38 -5.03686 -2.73813 0
M  V30 15231 H 1401.78 -5.59287 -2.17527 0
M  V30 15232 H 1402.85 -4.73325 -1.05314 0
M  V30 15233 N 1404.2 0.485086 -1.49949 0
M  V30 15234 C 1405.42 1.26648 -1.64241 0
M  V30 15235 C 1405.85 1.85359 -0.319939 0
M  V30 15236 O 1405.2 1.66628 0.714487 0
M  V30 15237 C 1405.25 2.36109 -2.72552 0
M  V30 15238 O 1404.36 3.40387 -2.32832 0
M  V30 15239 H 1403.7 0.373208 -0.549192 0
M  V30 15240 H 1406.23 0.578929 -1.96239 0
M  V30 15241 H 1406.24 2.81634 -2.95205 0
M  V30 15242 H 1404.91 1.92745 -3.6854 0
M  V30 15243 H 1403.49 3.0067 -2.20571 0
M  V30 15244 N 1405.67 1.39291 0.737279 0
M  V30 15245 C 1406.64 1.37607 1.83294 0
M  V30 15246 C 1407.64 0.273594 1.58455 0
M  V30 15247 O 1408.83 0.531375 1.65898 0
M  V30 15248 C 1405.96 1.14642 3.21045 0
M  V30 15249 H 1407.15 2.35102 1.86191 0
M  V30 15250 H 1404.7 1.24822 0.940696 0
M  V30 15251 H 1405.44 0.178202 3.2381 0
M  V30 15252 H 1405.22 1.94479 3.40471 0
M  V30 15253 H 1406.71 1.162 4.01108 0
M  V30 15254 N 1407.15 -0.967221 1.24429 0
M  V30 15255 C 1408.1 -2.047 1.00409 0
M  V30 15256 C 1409.09 -1.60807 -0.0546412 0
M  V30 15257 O 1410.28 -1.76283 0.159145 0
M  V30 15258 C 1407.41 -3.37813 0.611345 0
M  V30 15259 C 1406.49 -3.88266 1.70618 0
M  V30 15260 N 1406.88 -4.1165 2.93901 0
M  V30 15261 C 1405.18 -4.16931 1.5838 0
M  V30 15262 C 1405.88 -4.53032 3.64879 0
M  V30 15263 N 1404.86 -4.58233 2.92444 0
M  V30 15264 H 1408.66 -2.20755 1.94021 0
M  V30 15265 H 1406.17 -1.15105 1.14562 0
M  V30 15266 H 1408.17 -4.14774 0.420493 0
M  V30 15267 H 1406.83 -3.23143 -0.317588 0
M  V30 15268 H 1407.84 -3.99087 3.30075 0
M  V30 15269 H 1404.52 -4.11193 0.722929 0
M  V30 15270 H 1405.91 -4.79533 4.70635 0
M  V30 15271 N 1408.63 -1.05812 -1.16797 0
M  V30 15272 C 1409.58 -0.658636 -2.2308 0
M  V30 15273 C 1410.57 0.323104 -1.6629 0
M  V30 15274 O 1411.78 0.188492 -1.7901 0
M  V30 15275 H 1408.15 -0.194843 -0.72632 0
M  V30 15276 H 1410.12 -1.56501 -2.54067 0
M  V30 15277 C 1408.87 -0.0559428 -3.47655 0
M  V30 15278 H 1408.2 -0.802468 -3.91664 0
M  V30 15279 H 1409.64 0.186118 -4.23591 0
M  V30 15280 C 1408.09 1.19913 -3.14837 0
M  V30 15281 O 1408.62 2.28772 -3.30191 0
M  V30 15282 N 1406.83 1.09921 -2.69009 0
M  V30 15283 H 1406.38 0.213331 -2.56715 0
M  V30 15284 H 1406.34 1.93981 -2.47424 0
M  V30 15285 N 1410.11 1.33347 -0.840014 0
M  V30 15286 C 1411.35 1.98037 -0.43692 0
M  V30 15287 C 1411.69 1.66382 1.00154 0
M  V30 15288 O 1410.96 0.944311 1.70038 0
M  V30 15289 C 1411.24 3.54012 -0.65937 0
M  V30 15290 C 1411.1 3.9535 -2.14518 0
M  V30 15291 C 1412.42 4.39972 -0.106258 0
M  V30 15292 H 1409.54 0.719373 -0.160221 0
M  V30 15293 H 1412.18 1.57969 -1.05574 0
M  V30 15294 H 1410.33 3.88274 -0.132633 0
M  V30 15295 H 1412 3.7134 -2.73687 0
M  V30 15296 H 1410.24 3.4504 -2.62926 0
M  V30 15297 H 1410.91 5.03992 -2.25158 0
M  V30 15298 H 1413.39 4.12362 -0.556511 0
M  V30 15299 H 1412.27 5.48125 -0.291583 0
M  V30 15300 H 1412.53 4.30872 0.990032 0
M  V30 15301 N 1411.59 0.596556 1.45873 0
M  V30 15302 C 1412.81 0.0934926 2.06689 0
M  V30 15303 C 1413.23 -1.21743 1.44305 0
M  V30 15304 O 1412.59 -1.73912 0.553253 0
M  V30 15305 C 1412.64 -0.0643337 3.61443 0
M  V30 15306 O 1412.36 1.19472 4.21495 0
M  V30 15307 C 1413.86 -0.600141 4.39219 0
M  V30 15308 H 1411.08 0.0637846 0.667961 0
M  V30 15309 H 1413.62 0.821159 1.87289 0
M  V30 15310 H 1411.78 -0.742278 3.80222 0
M  V30 15311 H 1412.19 1.01735 5.14539 0
M  V30 15312 H 1413.67 -0.6597 5.48044 0
M  V30 15313 H 1414.14 -1.62009 4.08227 0
M  V30 15314 H 1414.75 0.0433915 4.25278 0
M  V30 15315 N 1413.06 -1.53996 0.335095 0
M  V30 15316 C 1413.97 -2.28436 -0.534244 0
M  V30 15317 C 1414.99 -1.33224 -1.11926 0
M  V30 15318 O 1416.17 -1.66252 -1.13676 0
M  V30 15319 C 1413.23 -3.03634 -1.67354 0
M  V30 15320 C 1412.29 -4.14455 -1.11916 0
M  V30 15321 C 1411.52 -4.86058 -2.20416 0
M  V30 15322 O 1411.75 -4.57263 -3.40979 0
M  V30 15323 O 1410.68 -5.72704 -1.85185 0
M  V30 15324 H 1414.51 -3.03618 0.0706314 0
M  V30 15325 H 1412.09 -1.49062 0.100409 0
M  V30 15326 H 1413.97 -3.50687 -2.33659 0
M  V30 15327 H 1412.65 -2.31317 -2.26438 0
M  V30 15328 H 1411.56 -3.71725 -0.420871 0
M  V30 15329 H 1412.89 -4.8885 -0.573295 0
M  V30 15330 N 1414.54 -0.0635198 -1.57472 0
M  V30 15331 C 1415.47 0.90431 -2.15278 0
M  V30 15332 C 1416.45 1.31609 -1.07764 0
M  V30 15333 O 1417.64 1.38861 -1.35762 0
M  V30 15334 C 1414.77 2.17483 -2.70774 0
M  V30 15335 C 1413.72 1.90272 -3.8338 0
M  V30 15336 C 1413.05 3.23885 -4.25444 0
M  V30 15337 C 1414.35 1.21454 -5.07983 0
M  V30 15338 H 1416.04 0.422786 -2.964 0
M  V30 15339 H 1413.59 0.201918 -1.42577 0
M  V30 15340 H 1415.54 2.856 -3.09856 0
M  V30 15341 H 1414.26 2.67863 -1.86861 0
M  V30 15342 H 1412.92 1.24564 -3.44789 0
M  V30 15343 H 1412.57 3.72089 -3.38465 0
M  V30 15344 H 1412.27 3.06472 -5.01347 0
M  V30 15345 H 1413.8 3.93212 -4.67137 0
M  V30 15346 H 1415.21 1.79625 -5.44433 0
M  V30 15347 H 1413.61 1.14327 -5.89109 0
M  V30 15348 H 1414.68 0.19238 -4.84518 0
M  V30 15349 N 1416.02 1.56195 0.209972 0
M  V30 15350 C 1416.95 1.89859 1.28398 0
M  V30 15351 C 1417.96 0.787878 1.42465 0
M  V30 15352 O 1419.15 1.06623 1.43156 0
M  V30 15353 C 1416.25 2.10231 2.65812 0
M  V30 15354 C 1415.43 3.41309 2.73545 0
M  V30 15355 C 1414.49 3.50973 3.92052 0
M  V30 15356 O 1413.51 4.23915 3.79849 0
M  V30 15357 N 1414.71 2.82965 5.06864 0
M  V30 15358 H 1417.48 2.82581 0.998411 0
M  V30 15359 H 1415.04 1.56882 0.399964 0
M  V30 15360 H 1417.03 2.13999 3.43492 0
M  V30 15361 H 1415.6 1.2408 2.8692 0
M  V30 15362 H 1414.82 3.49539 1.82253 0
M  V30 15363 H 1416.11 4.27636 2.7569 0
M  V30 15364 H 1415.51 2.23504 5.19676 0
M  V30 15365 H 1414.06 2.9238 5.82544 0
M  V30 15366 N 1417.5 -0.477127 1.50204 0
M  V30 15367 C 1418.73 -1.25307 1.64638 0
M  V30 15368 C 1419.14 -1.85942 0.327274 0
M  V30 15369 O 1418.5 -1.6895 -0.690088 0
M  V30 15370 C 1418.55 -2.36616 2.73304 0
M  V30 15371 O 1418.27 -1.78469 4.00101 0
M  V30 15372 C 1419.77 -3.27595 2.98658 0
M  V30 15373 H 1416.99 -0.379192 0.553583 0
M  V30 15374 H 1419.53 -0.5702 1.9639 0
M  V30 15375 H 1417.69 -3.00689 2.44264 0
M  V30 15376 H 1418.1 -2.51722 4.60148 0
M  V30 15377 H 1419.58 -4.01921 3.7837 0
M  V30 15378 H 1420.05 -3.86017 2.09493 0
M  V30 15379 H 1420.66 -2.69264 3.29206 0
M  V30 15380 N 1418.98 -1.3968 -0.729882 0
M  V30 15381 C 1420.25 -1.27689 -1.48172 0
M  V30 15382 C 1420.63 0.111239 -2.10807 0
M  V30 15383 O 1419.98 1.12289 -1.99006 0
M  V30 15384 C 1420.19 -2.40505 -2.529 0
M  V30 15385 C 1421.54 -2.80064 -3.19138 0
M  V30 15386 O 1422.56 -2.39992 -2.63215 0
M  V30 15387 O 1421.42 -3.49248 -4.20342 0
M  V30 15388 H 1418.52 -0.500674 -0.658221 0
M  V30 15389 H 1421.06 -1.51566 -0.763272 0
M  V30 15390 H 1419.83 -3.33282 -2.05033 0
M  V30 15391 H 1419.46 -2.1832 -3.32298 0
M  V30 15392 N 1420.45 0.960609 -1.2494 0
M  V30 15393 C 1421.4 2.07763 -1.04581 0
M  V30 15394 C 1422.4 1.69386 0.0214505 0
M  V30 15395 O 1423.6 1.79503 -0.133683 0
M  V30 15396 H 1419.98 0.679944 -0.321216 0
M  V30 15397 H 1421.95 2.22094 -1.99291 0
M  V30 15398 C 1420.7 3.41088 -0.674876 0
M  V30 15399 H 1420.02 3.71082 -1.4879 0
M  V30 15400 H 1421.46 4.20123 -0.572079 0
M  V30 15401 C 1419.92 3.31172 0.6186 0
M  V30 15402 O 1420.45 3.65688 1.66238 0
M  V30 15403 N 1418.66 2.84297 0.601984 0
M  V30 15404 H 1418.2 2.56406 -0.24778 0
M  V30 15405 H 1418.16 2.78045 1.4676 0
M  V30 15406 N 1421.93 1.0643 1.16234 0
M  V30 15407 C 1423.18 0.780296 1.86429 0
M  V30 15408 C 1423.5 -0.695335 1.82181 0
M  V30 15409 O 1422.77 -1.50312 1.2563 0
M  V30 15410 H 1421.35 0.285654 0.690225 0
M  V30 15411 H 1424.01 1.34609 1.40949 0
M  V30 15412 H 1423.11 1.10644 2.91829 0
M  V30 15413 N 1423.41 -1.329 0.847073 0
M  V30 15414 C 1424.82 -1.79813 0.502394 0
M  V30 15415 C 1425.17 -1.70017 -0.979218 0
M  V30 15416 O 1424.3 -1.25427 -1.76344 0
M  V30 15417 C 1424.89 -3.26485 0.905154 0
M  V30 15418 C 1423.45 -3.71383 0.612489 0
M  V30 15419 C 1422.6 -2.54157 1.10903 0
M  V30 15420 H 1425.55 -1.20306 1.035 0
M  V30 15421 H 1425.57 -3.79872 0.218476 0
M  V30 15422 H 1425.08 -3.33583 1.98353 0
M  V30 15423 H 1423.18 -3.69806 -0.45548 0
M  V30 15424 H 1423.3 -4.64507 1.17347 0
M  V30 15425 H 1421.66 -2.49134 0.529576 0
M  V30 15426 H 1422.44 -2.64013 2.19435 0
M  V30 15427 N 1424.89 -0.604284 -1.45555 0
M  V30 15428 C 1425.84 0.129013 -2.32242 0
M  V30 15429 C 1426.83 0.862933 -1.45773 0
M  V30 15430 O 1428.04 0.778874 -1.62276 0
M  V30 15431 H 1424.41 0.0604661 -0.749565 0
M  V30 15432 H 1426.38 -0.620603 -2.91875 0
M  V30 15433 C 1425.13 1.11516 -3.29332 0
M  V30 15434 H 1424.45 0.559849 -3.95861 0
M  V30 15435 H 1425.89 1.59824 -3.92724 0
M  V30 15436 C 1424.35 2.18706 -2.5626 0
M  V30 15437 O 1424.88 3.26397 -2.34154 0
M  V30 15438 N 1423.09 1.93899 -2.16452 0
M  V30 15439 H 1422.64 1.0633 -2.34631 0
M  V30 15440 H 1422.59 2.65824 -1.67884 0
M  V30 15441 N 1426.37 1.53816 -0.343257 0
M  V30 15442 C 1427.61 2.00909 0.253346 0
M  V30 15443 C 1427.94 1.23109 1.5058 0
M  V30 15444 O 1427.2 0.306682 1.93282 0
M  V30 15445 C 1427.5 3.521 0.613243 0
M  V30 15446 C 1427.16 4.47627 -0.5423 0
M  V30 15447 C 1425.82 4.73463 -0.859418 0
M  V30 15448 C 1428.18 5.04272 -1.31754 0
M  V30 15449 C 1425.5 5.532 -1.95415 0
M  V30 15450 C 1427.86 5.85203 -2.40251 0
M  V30 15451 C 1426.52 6.09334 -2.72523 0
M  V30 15452 H 1425.79 0.735178 0.0927058 0
M  V30 15453 H 1428.44 1.85615 -0.471111 0
M  V30 15454 H 1426.74 3.65224 1.41841 0
M  V30 15455 H 1428.44 3.85994 1.08673 0
M  V30 15456 H 1425.03 4.27651 -0.285076 0
M  V30 15457 H 1429.21 4.84277 -1.0858 0
M  V30 15458 H 1424.47 5.70122 -2.20842 0
M  V30 15459 H 1428.64 6.28109 -3.00753 0
M  V30 15460 H 1426.27 6.70906 -3.57476 0
M  V30 15461 N 1427.84 0.0718701 1.57436 0
M  V30 15462 C 1428.79 -0.895335 2.12726 0
M  V30 15463 C 1429.76 -1.29528 1.03979 0
M  V30 15464 O 1430.95 -1.38113 1.31642 0
M  V30 15465 C 1428.09 -2.15755 2.6934 0
M  V30 15466 C 1427.2 -1.81023 3.92243 0
M  V30 15467 C 1426.33 -3.01856 4.371 0
M  V30 15468 C 1425.37 -2.63141 5.52651 0
M  V30 15469 N 1424.51 -3.76734 5.92466 0
M  V30 15470 H 1429.35 -0.416964 2.95068 0
M  V30 15471 H 1426.89 -0.194165 1.45813 0
M  V30 15472 H 1428.85 -2.89642 3.00272 0
M  V30 15473 H 1427.48 -2.61132 1.89762 0
M  V30 15474 H 1426.53 -0.971983 3.67773 0
M  V30 15475 H 1427.84 -1.4854 4.76169 0
M  V30 15476 H 1426.99 -3.84022 4.69694 0
M  V30 15477 H 1425.73 -3.37533 3.52027 0
M  V30 15478 H 1424.74 -1.79397 5.19708 0
M  V30 15479 H 1425.96 -2.28635 6.39455 0
M  V30 15480 H 1423.91 -4.12173 5.10343 0
M  V30 15481 H 1423.83 -3.48019 6.71132 0
M  V30 15482 H 1425.09 -4.59479 6.29682 0
M  V30 15483 N 1429.32 -1.56304 -0.201686 0
M  V30 15484 C 1430.27 -1.94901 -1.26949 0
M  V30 15485 C 1431.26 -0.833574 -1.47472 0
M  V30 15486 O 1432.47 -1.01854 -1.48411 0
M  V30 15487 H 1428.85 -0.619663 -0.426053 0
M  V30 15488 H 1430.82 -2.83964 -0.9169 0
M  V30 15489 C 1429.57 -2.29913 -2.60835 0
M  V30 15490 H 1428.89 -3.15268 -2.45858 0
M  V30 15491 H 1430.33 -2.60789 -3.34313 0
M  V30 15492 C 1428.79 -1.13136 -3.17335 0
M  V30 15493 O 1429.32 -0.402915 -3.99674 0
M  V30 15494 N 1427.52 -0.909912 -2.75987 0
M  V30 15495 H 1427.07 -1.50402 -2.09134 0
M  V30 15496 H 1427.03 -0.130348 -3.1413 0
M  V30 15497 N 1430.8 0.469154 -1.50455 0
M  V30 15498 C 1431.73 1.58443 -1.65615 0
M  V30 15499 C 1432.75 1.53668 -0.537584 0
M  V30 15500 O 1433.93 1.59021 -0.810832 0
M  V30 15501 C 1431.03 2.97327 -1.62634 0
M  V30 15502 C 1430.21 3.2695 -2.90555 0
M  V30 15503 C 1429.27 4.45398 -2.80191 0
M  V30 15504 O 1428.29 4.45611 -3.54146 0
M  V30 15505 N 1429.49 5.47167 -1.93878 0
M  V30 15506 H 1432.26 1.45854 -2.61814 0
M  V30 15507 H 1429.82 0.657604 -1.47943 0
M  V30 15508 H 1431.81 3.74537 -1.53311 0
M  V30 15509 H 1430.38 3.03675 -0.741624 0
M  V30 15510 H 1429.6 2.38335 -3.13991 0
M  V30 15511 H 1430.89 3.43554 -3.75297 0
M  V30 15512 H 1430.29 5.49817 -1.33109 0
M  V30 15513 H 1428.85 6.23353 -1.90457 0
M  V30 15514 N 1432.28 1.40065 0.722464 0
M  V30 15515 C 1433.23 1.39784 1.83655 0
M  V30 15516 C 1434.2 0.255743 1.64119 0
M  V30 15517 O 1435.38 0.452766 1.8535 0
M  V30 15518 C 1432.52 1.25946 3.21297 0
M  V30 15519 C 1431.63 2.49805 3.52451 0
M  V30 15520 C 1430.77 2.2846 4.79562 0
M  V30 15521 C 1429.81 3.4793 5.03598 0
M  V30 15522 N 1428.94 3.25823 6.21919 0
M  V30 15523 H 1433.78 2.35013 1.83229 0
M  V30 15524 H 1431.32 1.16728 0.895154 0
M  V30 15525 H 1433.28 1.15931 4.00769 0
M  V30 15526 H 1431.91 0.343402 3.20968 0
M  V30 15527 H 1430.96 2.70375 2.67585 0
M  V30 15528 H 1432.27 3.38753 3.66126 0
M  V30 15529 H 1431.43 2.15758 5.67039 0
M  V30 15530 H 1430.17 1.36926 4.68084 0
M  V30 15531 H 1429.17 3.61116 4.14579 0
M  V30 15532 H 1430.4 4.40382 5.16953 0
M  V30 15533 H 1428.34 2.36965 6.11705 0
M  V30 15534 H 1428.26 4.08333 6.36239 0
M  V30 15535 H 1429.53 3.16841 7.12202 0
M  V30 15536 N 1433.76 -0.95397 1.25448 0
M  V30 15537 C 1434.69 -2.05019 1.00212 0
M  V30 15538 C 1435.67 -1.62454 -0.0688563 0
M  V30 15539 O 1436.85 -1.88366 0.0709352 0
M  V30 15540 C 1433.98 -3.34762 0.514987 0
M  V30 15541 C 1433.03 -3.9629 1.57659 0
M  V30 15542 S 1433.86 -4.32181 3.16196 0
M  V30 15543 C 1435.01 -5.65041 2.6922 0
M  V30 15544 H 1435.25 -2.26111 1.93032 0
M  V30 15545 H 1432.78 -1.09369 1.08985 0
M  V30 15546 H 1434.74 -4.09794 0.24058 0
M  V30 15547 H 1433.4 -3.11635 -0.392724 0
M  V30 15548 H 1432.59 -4.89836 1.18647 0
M  V30 15549 H 1432.19 -3.27741 1.80171 0
M  V30 15550 H 1434.49 -6.43184 2.12887 0
M  V30 15551 H 1435.43 -6.08925 3.61408 0
M  V30 15552 H 1435.84 -5.24306 2.09196 0
M  V30 15553 N 1435.24 -1.07045 -1.15668 0
M  V30 15554 C 1436.15 -0.699332 -2.23934 0
M  V30 15555 C 1437.16 0.288036 -1.71599 0
M  V30 15556 O 1438.34 0.135447 -2.00944 0
M  V30 15557 C 1435.4 -0.0994775 -3.46557 0
M  V30 15558 C 1434.46 -1.13968 -4.13896 0
M  V30 15559 C 1433.7 -0.56836 -5.30665 0
M  V30 15560 O 1433.92 0.616556 -5.67058 0
M  V30 15561 O 1432.85 -1.31174 -5.87432 0
M  V30 15562 H 1436.68 -1.60212 -2.58003 0
M  V30 15563 H 1434.26 -0.843202 -1.23331 0
M  V30 15564 H 1436.15 0.23293 -4.20756 0
M  V30 15565 H 1434.82 0.776684 -3.14244 0
M  V30 15566 H 1433.73 -1.5244 -3.41633 0
M  V30 15567 H 1435.06 -1.98764 -4.50282 0
M  V30 15568 N 1436.71 1.32449 -0.85411 0
M  V30 15569 C 1437.96 1.96881 -0.45632 0
M  V30 15570 C 1438.28 1.67926 0.991248 0
M  V30 15571 O 1437.55 0.986195 1.69266 0
M  V30 15572 H 1436.13 0.728378 -0.165752 0
M  V30 15573 H 1438.79 1.61542 -1.09042 0
M  V30 15574 H 1437.89 3.0626 -0.600927 0
M  V30 15575 N 1438.19 0.611994 1.45232 0
M  V30 15576 C 1439.44 0.109073 2.02506 0
M  V30 15577 C 1439.77 -1.25876 1.47881 0
M  V30 15578 O 1439.05 -1.83131 0.65524 0
M  V30 15579 C 1439.33 0.0749288 3.60022 0
M  V30 15580 C 1439.18 1.47374 4.24972 0
M  V30 15581 C 1440.5 -0.610602 4.35844 0
M  V30 15582 H 1437.62 0.0411101 0.735853 0
M  V30 15583 H 1440.26 0.78481 1.73034 0
M  V30 15584 H 1438.41 -0.500511 3.85262 0
M  V30 15585 H 1440.08 2.0966 4.10902 0
M  V30 15586 H 1438.33 2.03319 3.83202 0
M  V30 15587 H 1439 1.40206 5.33897 0
M  V30 15588 H 1441.47 -0.121445 4.15923 0
M  V30 15589 H 1440.35 -0.603614 5.45571 0
M  V30 15590 H 1440.61 -1.6775 4.09038 0
M  V30 15591 N 1439.67 -1.53632 0.351409 0
M  V30 15592 C 1440.6 -2.28217 -0.49391 0
M  V30 15593 C 1441.58 -1.30085 -1.09599 0
M  V30 15594 O 1442.77 -1.58938 -1.1159 0
M  V30 15595 C 1439.9 -3.06085 -1.64102 0
M  V30 15596 C 1438.85 -4.11786 -1.16689 0
M  V30 15597 C 1438.18 -4.77654 -2.40314 0
M  V30 15598 C 1439.48 -5.21644 -0.261742 0
M  V30 15599 H 1441.17 -2.99125 0.1283 0
M  V30 15600 H 1438.72 -1.43861 0.0631462 0
M  V30 15601 H 1440.67 -3.57003 -2.2389 0
M  V30 15602 H 1439.39 -2.32842 -2.29025 0
M  V30 15603 H 1438.05 -3.61792 -0.591784 0
M  V30 15604 H 1437.7 -4.00997 -3.03661 0
M  V30 15605 H 1437.4 -5.49072 -2.09268 0
M  V30 15606 H 1438.92 -5.3136 -3.00813 0
M  V30 15607 H 1440.34 -5.6815 -0.766689 0
M  V30 15608 H 1438.73 -6.00085 -0.0428132 0
M  V30 15609 H 1439.8 -4.79821 0.699999 0
M  V30 15610 N 1441.15 -0.0802183 -1.57396 0
M  V30 15611 C 1442.1 0.901668 -2.14412 0
M  V30 15612 C 1443.09 1.30247 -1.08314 0
M  V30 15613 O 1444.3 1.27873 -1.26682 0
M  V30 15614 H 1440.67 0.308748 -0.685696 0
M  V30 15615 H 1442.64 0.395934 -2.95762 0
M  V30 15616 C 1441.39 2.15665 -2.72734 0
M  V30 15617 H 1440.71 1.8571 -3.54051 0
M  V30 15618 H 1442.15 2.82461 -3.16214 0
M  V30 15619 C 1440.61 2.9208 -1.67901 0
M  V30 15620 O 1441.14 3.86087 -1.10903 0
M  V30 15621 N 1439.35 2.55343 -1.38739 0
M  V30 15622 H 1438.9 1.78969 -1.85278 0
M  V30 15623 H 1438.85 3.06773 -0.688317 0
M  V30 15624 N 1442.63 1.56409 0.193394 0
M  V30 15625 C 1443.86 1.84569 0.928328 0
M  V30 15626 C 1444.26 0.660788 1.77286 0
M  V30 15627 O 1443.61 -0.379752 1.79732 0
M  V30 15628 C 1443.67 3.06854 1.87299 0
M  V30 15629 C 1443.33 4.40684 1.21025 0
M  V30 15630 C 1444.33 5.16583 0.58635 0
M  V30 15631 C 1442.01 4.87419 1.21359 0
M  V30 15632 C 1444.01 6.37395 -0.0253573 0
M  V30 15633 C 1441.7 6.08167 0.598052 0
M  V30 15634 C 1442.69 6.82997 -0.0203414 0
M  V30 15635 O 1442.38 8.01457 -0.626232 0
M  V30 15636 H 1442.11 0.616966 0.276277 0
M  V30 15637 H 1444.67 2.04373 0.205102 0
M  V30 15638 H 1442.9 2.82938 2.63596 0
M  V30 15639 H 1444.59 3.21645 2.47587 0
M  V30 15640 H 1445.35 4.81569 0.575894 0
M  V30 15641 H 1441.23 4.29129 1.68432 0
M  V30 15642 H 1444.78 6.95743 -0.508644 0
M  V30 15643 H 1440.67 6.42649 0.606017 0
M  V30 15644 H 1441.44 8.16825 -0.523305 0
M  V30 15645 N 1444.1 -0.461169 1.50702 0
M  V30 15646 C 1445.04 -1.57702 1.64941 0
M  V30 15647 C 1446.01 -1.54808 0.497312 0
M  V30 15648 O 1447.2 -1.74286 0.718104 0
M  V30 15649 C 1444.33 -2.96285 1.64112 0
M  V30 15650 C 1443.37 -3.17296 2.85001 0
M  V30 15651 S 1444.2 -2.96134 4.46167 0
M  V30 15652 C 1445.36 -4.37042 4.48046 0
M  V30 15653 H 1445.59 -1.45386 2.59327 0
M  V30 15654 H 1443.13 -0.649209 1.40088 0
M  V30 15655 H 1445.08 -3.76178 1.64318 0
M  V30 15656 H 1443.75 -3.05983 0.709442 0
M  V30 15657 H 1442.94 -4.18561 2.80754 0
M  V30 15658 H 1442.54 -2.45191 2.82413 0
M  V30 15659 H 1444.83 -5.29846 4.2222 0
M  V30 15660 H 1445.78 -4.4633 5.49723 0
M  V30 15661 H 1446.18 -4.19584 3.77637 0
M  V30 15662 N 1445.58 -1.40446 -0.715026 0
M  V30 15663 C 1446.83 -1.3848 -1.47199 0
M  V30 15664 C 1447.15 0.0119198 -1.94996 0
M  V30 15665 O 1446.42 0.966772 -1.70383 0
M  V30 15666 H 1445 -0.509669 -0.54612 0
M  V30 15667 H 1447.66 -1.75505 -0.847588 0
M  V30 15668 H 1446.76 -2.06002 -2.34456 0
M  V30 15669 N 1447.06 0.947303 -1.25952 0
M  V30 15670 C 1448.31 1.6953 -1.11299 0
M  V30 15671 C 1448.64 1.9113 0.343961 0
M  V30 15672 O 1447.91 1.48755 1.25309 0
M  V30 15673 C 1448.2 3.0738 -1.87588 0
M  V30 15674 C 1448.05 2.93145 -3.41154 0
M  V30 15675 C 1449.37 4.07396 -1.66483 0
M  V30 15676 H 1446.49 0.615281 -0.405707 0
M  V30 15677 H 1449.13 1.10064 -1.54874 0
M  V30 15678 H 1447.28 3.58143 -1.50553 0
M  V30 15679 H 1448.95 2.49651 -3.87907 0
M  V30 15680 H 1447.19 2.28902 -3.68492 0
M  V30 15681 H 1447.87 3.9089 -3.89755 0
M  V30 15682 H 1450.34 3.65572 -1.98738 0
M  V30 15683 H 1449.22 5.01876 -2.22287 0
M  V30 15684 H 1449.48 4.379 -0.607916 0
M  V30 15685 N 1448.54 1.07657 1.15099 0
M  V30 15686 C 1449.49 0.699678 2.19939 0
M  V30 15687 C 1450.46 -0.310432 1.63173 0
M  V30 15688 O 1451.64 -0.196177 1.89789 0
M  V30 15689 C 1448.78 0.106963 3.44934 0
M  V30 15690 C 1447.89 1.16892 4.15885 0
M  V30 15691 C 1447.03 0.540884 5.28439 0
M  V30 15692 C 1446.07 1.58542 5.91211 0
M  V30 15693 N 1445.2 0.979731 6.95231 0
M  V30 15694 H 1450.04 1.59805 2.51528 0
M  V30 15695 H 1447.58 0.798746 1.23525 0
M  V30 15696 H 1449.54 -0.254335 4.16424 0
M  V30 15697 H 1448.17 -0.754756 3.13852 0
M  V30 15698 H 1447.22 1.64775 3.4286 0
M  V30 15699 H 1448.53 1.96078 4.58645 0
M  V30 15700 H 1447.69 0.127397 6.06566 0
M  V30 15701 H 1446.43 -0.282708 4.8688 0
M  V30 15702 H 1445.43 2.00865 5.11794 0
M  V30 15703 H 1446.66 2.41135 6.34847 0
M  V30 15704 H 1444.6 0.177098 6.55761 0
M  V30 15705 H 1444.52 1.70878 7.36435 0
M  V30 15706 H 1445.79 0.591849 7.7725 0
M  V30 15707 N 1450.02 -1.31994 0.861122 0
M  V30 15708 C 1450.97 -2.26248 0.282123 0
M  V30 15709 C 1451.95 -1.50246 -0.57575 0
M  V30 15710 O 1453.14 -1.71845 -0.424075 0
M  V30 15711 C 1450.27 -3.39293 -0.523011 0
M  V30 15712 C 1449.36 -4.22673 0.34761 0
M  V30 15713 N 1449.75 -4.8496 1.43692 0
M  V30 15714 C 1448.05 -4.45785 0.138488 0
M  V30 15715 C 1448.75 -5.47215 1.97307 0
M  V30 15716 N 1447.72 -5.28525 1.27132 0
M  V30 15717 H 1451.53 -2.71936 1.11481 0
M  V30 15718 H 1449.04 -1.46158 0.707928 0
M  V30 15719 H 1451.04 -4.05832 -0.954269 0
M  V30 15720 H 1449.7 -2.95149 -1.35341 0
M  V30 15721 H 1450.71 -4.84873 1.81985 0
M  V30 15722 H 1447.38 -4.12303 -0.656677 0
M  V30 15723 H 1448.77 -6.06737 2.88652 0
M  V30 15724 N 1451.49 -0.619688 -1.44906 0
M  V30 15725 C 1452.44 0.0920359 -2.30616 0
M  V30 15726 C 1453.41 0.848114 -1.42815 0
M  V30 15727 O 1454.6 0.831439 -1.71732 0
M  V30 15728 C 1451.74 1.07537 -3.27917 0
M  V30 15729 C 1450.85 0.318904 -4.30821 0
M  V30 15730 C 1449.98 1.29303 -5.15222 0
M  V30 15731 C 1449.02 0.525071 -6.09844 0
M  V30 15732 N 1448.16 1.44909 -6.86983 0
M  V30 15733 H 1453 -0.644834 -2.9094 0
M  V30 15734 H 1450.54 -0.329785 -1.43356 0
M  V30 15735 H 1452.5 1.65874 -3.82808 0
M  V30 15736 H 1451.13 1.7795 -2.6932 0
M  V30 15737 H 1450.18 -0.380192 -3.78495 0
M  V30 15738 H 1451.49 -0.279742 -4.98015 0
M  V30 15739 H 1450.64 1.94809 -5.74573 0
M  V30 15740 H 1449.38 1.92561 -4.48076 0
M  V30 15741 H 1448.39 -0.14355 -5.49613 0
M  V30 15742 H 1449.61 -0.102625 -6.79022 0
M  V30 15743 H 1447.56 2.06908 -6.22515 0
M  V30 15744 H 1447.48 0.90418 -7.50574 0
M  V30 15745 H 1448.74 2.09335 -7.50866 0
M  V30 15746 N 1452.97 1.53444 -0.359552 0
M  V30 15747 C 1454.22 2.01166 0.232022 0
M  V30 15748 C 1454.55 1.24699 1.49266 0
M  V30 15749 O 1453.8 0.327164 1.92946 0
M  V30 15750 C 1454.1 3.5273 0.575863 0
M  V30 15751 C 1453.77 4.47027 -0.589746 0
M  V30 15752 C 1452.43 4.72525 -0.909587 0
M  V30 15753 C 1454.78 5.02846 -1.37095 0
M  V30 15754 C 1452.11 5.51096 -2.01271 0
M  V30 15755 C 1454.46 5.82622 -2.46444 0
M  V30 15756 C 1453.13 6.06409 -2.7897 0
M  V30 15757 H 1452.4 0.73612 0.084903 0
M  V30 15758 H 1455.04 1.85105 -0.490771 0
M  V30 15759 H 1453.35 3.66708 1.37959 0
M  V30 15760 H 1455.04 3.87125 1.04573 0
M  V30 15761 H 1451.63 4.27324 -0.330418 0
M  V30 15762 H 1455.82 4.83098 -1.1371 0
M  V30 15763 H 1451.07 5.67747 -2.26877 0
M  V30 15764 H 1455.25 6.24884 -3.07398 0
M  V30 15765 H 1452.88 6.67077 -3.64572 0
M  V30 15766 N 1454.45 0.0885642 1.57351 0
M  V30 15767 C 1455.7 -0.575536 1.93732 0
M  V30 15768 C 1456.02 -1.69126 0.970644 0
M  V30 15769 O 1455.29 -1.95888 0.0215907 0
M  V30 15770 H 1453.87 -0.215592 0.715213 0
M  V30 15771 H 1456.53 0.150362 1.94319 0
M  V30 15772 H 1455.63 -0.989979 2.95983 0
M  V30 15773 N 1455.93 -1.56509 -0.185096 0
M  V30 15774 C 1457.18 -1.804 -0.902158 0
M  V30 15775 C 1457.49 -0.663496 -1.84003 0
M  V30 15776 O 1458.7 -0.786963 -2.59844 0
M  V30 15777 C 1457.15 -3.19608 -1.65466 0
M  V30 15778 C 1456.76 -4.41487 -0.761109 0
M  V30 15779 C 1458.5 -3.52801 -2.36076 0
M  V30 15780 C 1456.41 -5.71717 -1.51305 0
M  V30 15781 H 1455.34 -0.67268 -0.340614 0
M  V30 15782 H 1457.99 -1.82842 -0.155273 0
M  V30 15783 H 1456.37 -3.11443 -2.44579 0
M  V30 15784 H 1457.55 -4.60799 -0.00791878 0
M  V30 15785 H 1455.86 -4.16072 -0.165344 0
M  V30 15786 H 1458.46 -4.47339 -2.92902 0
M  V30 15787 H 1458.8 -2.77021 -3.10749 0
M  V30 15788 H 1459.34 -3.62457 -1.63919 0
M  V30 15789 H 1456.08 -6.5049 -0.808907 0
M  V30 15790 H 1455.6 -5.56406 -2.23992 0
M  V30 15791 H 1457.27 -6.13188 -2.0642 0
M  V30 15792 N 1457.41 0.45317 -1.50944 0
M  V30 15793 C 1458.82 1.03354 -1.55482 0
M  V30 15794 C 1459.17 1.92701 -0.368873 0
M  V30 15795 O 1458.29 2.10153 0.516208 0
M  V30 15796 C 1458.89 1.88118 -2.81775 0
M  V30 15797 C 1457.45 2.41232 -2.88936 0
M  V30 15798 C 1456.59 1.20032 -2.49975 0
M  V30 15799 H 1459.55 0.235059 -1.5695 0
M  V30 15800 H 1459.57 2.73394 -2.64643 0
M  V30 15801 H 1459.08 1.23064 -3.68072 0
M  V30 15802 H 1457.18 3.09788 -2.07032 0
M  V30 15803 H 1457.29 2.75113 -3.92237 0
M  V30 15804 H 1455.66 1.54072 -2.02815 0
M  V30 15805 H 1456.44 0.56612 -3.386 0
M  V30 15806 N 1458.88 1.40823 0.707568 0
M  V30 15807 C 1460.13 1.39259 1.46463 0
M  V30 15808 C 1460.45 -0.00157854 1.95 0
M  V30 15809 O 1459.72 -0.957723 1.70893 0
M  V30 15810 H 1458.3 0.512558 0.543409 0
M  V30 15811 H 1460.97 1.75952 0.838269 0
M  V30 15812 H 1460.06 2.07243 2.3336 0
M  V30 15813 N 1460.36 -0.94061 1.26453 0
M  V30 15814 C 1461.31 -2.06073 1.07873 0
M  V30 15815 C 1462.3 -1.69399 0.0055001 0
M  V30 15816 O 1463.51 -1.79267 0.162224 0
M  V30 15817 H 1459.89 -0.674748 0.331993 0
M  V30 15818 H 1461.86 -2.18895 2.02799 0
M  V30 15819 C 1460.61 -3.39971 0.729054 0
M  V30 15820 H 1459.93 -3.68667 1.54675 0
M  V30 15821 H 1461.37 -4.1916 0.638844 0
M  V30 15822 C 1459.83 -3.32114 -0.565835 0
M  V30 15823 O 1460.36 -3.68287 -1.60399 0
M  V30 15824 N 1458.56 -2.85218 -0.556679 0
M  V30 15825 H 1458.11 -2.55979 0.288541 0
M  V30 15826 H 1458.07 -2.80344 -1.42318 0
M  V30 15827 N 1461.84 -1.08266 -1.14527 0
M  V30 15828 C 1463.25 -0.832702 -1.67102 0
M  V30 15829 C 1463.6 0.640776 -1.85441 0
M  V30 15830 O 1462.73 1.49505 -1.56452 0
M  V30 15831 C 1463.32 -1.50502 -3.03537 0
M  V30 15832 C 1461.88 -1.30234 -3.53152 0
M  V30 15833 C 1461.03 -1.56873 -2.28661 0
M  V30 15834 H 1463.98 -1.24344 -0.986118 0
M  V30 15835 H 1464 -0.931426 -3.68924 0
M  V30 15836 H 1463.51 -2.57741 -2.90157 0
M  V30 15837 H 1461.61 -0.250582 -3.71756 0
M  V30 15838 H 1461.73 -2.02898 -4.34015 0
M  V30 15839 H 1460.09 -0.990214 -2.34663 0
M  V30 15840 H 1460.87 -2.65316 -2.17859 0
M  V30 15841 N 1463.32 1.31536 -0.86811 0
M  V30 15842 C 1464.25 2.27486 -0.279749 0
M  V30 15843 C 1465.26 1.53006 0.556158 0
M  V30 15844 O 1466.45 1.74442 0.378454 0
M  V30 15845 C 1463.55 3.33139 0.622197 0
M  V30 15846 C 1462.73 4.37026 -0.180855 0
M  V30 15847 C 1461.79 5.22183 0.64894 0
M  V30 15848 O 1460.81 5.69147 0.0776395 0
M  V30 15849 N 1462.01 5.46365 1.96127 0
M  V30 15850 H 1464.78 2.78613 -1.1043 0
M  V30 15851 H 1462.34 1.44538 -0.729409 0
M  V30 15852 H 1464.33 3.87024 1.18297 0
M  V30 15853 H 1462.9 2.8207 1.34742 0
M  V30 15854 H 1462.12 3.8324 -0.923078 0
M  V30 15855 H 1463.41 5.03508 -0.731953 0
M  V30 15856 H 1462.81 5.09962 2.44857 0
M  V30 15857 H 1461.36 6.03192 2.46987 0
M  V30 15858 N 1464.8 0.627364 1.44575 0
M  V30 15859 C 1466.02 0.135576 2.06956 0
M  V30 15860 C 1466.45 -1.17922 1.46547 0
M  V30 15861 O 1465.81 -1.72255 0.565509 0
M  V30 15862 C 1465.85 0.030347 3.60587 0
M  V30 15863 O 1464.96 -1.01464 3.99724 0
M  V30 15864 H 1464.3 0.083058 0.658785 0
M  V30 15865 H 1466.83 0.862977 1.8551 0
M  V30 15866 H 1466.84 -0.161461 4.0768 0
M  V30 15867 H 1465.51 0.990285 4.03938 0
M  V30 15868 H 1464.09 -0.797701 3.64268 0
M  V30 15869 N 1466.28 -1.53251 0.367684 0
M  V30 15870 C 1467.21 -2.23396 -0.512539 0
M  V30 15871 C 1468.22 -1.2488 -1.04446 0
M  V30 15872 O 1469.41 -1.5109 -0.950477 0
M  V30 15873 C 1466.51 -2.91971 -1.72064 0
M  V30 15874 C 1465.68 -4.17011 -1.31986 0
M  V30 15875 C 1464.74 -4.68779 -2.39025 0
M  V30 15876 O 1463.77 -5.32405 -2.01328 0
M  V30 15877 N 1464.97 -4.46773 -3.7064 0
M  V30 15878 H 1467.73 -2.9957 0.0883152 0
M  V30 15879 H 1465.3 -1.60746 0.192966 0
M  V30 15880 H 1467.29 -3.23511 -2.43152 0
M  V30 15881 H 1465.86 -2.19237 -2.22831 0
M  V30 15882 H 1465.08 -3.91751 -0.438732 0
M  V30 15883 H 1466.37 -4.98298 -1.02842 0
M  V30 15884 H 1465.76 -3.95938 -4.04042 0
M  V30 15885 H 1464.32 -4.82857 -4.37827 0
M  V30 15886 N 1467.75 -0.0969077 -1.57302 0
M  V30 15887 C 1468.72 0.846895 -2.1298 0
M  V30 15888 C 1469.72 1.20962 -1.05947 0
M  V30 15889 O 1470.91 1.13876 -1.31826 0
M  V30 15890 C 1468.04 2.14215 -2.65188 0
M  V30 15891 H 1469.23 0.363398 -2.9769 0
M  V30 15892 H 1466.78 0.152107 -1.55558 0
M  V30 15893 H 1467.52 2.67046 -1.84002 0
M  V30 15894 H 1467.3 1.89176 -3.43445 0
M  V30 15895 H 1468.79 2.81728 -3.08252 0
M  V30 15896 N 1469.23 1.56605 0.176793 0
M  V30 15897 C 1470.16 1.99014 1.2213 0
M  V30 15898 C 1471.14 0.86487 1.46472 0
M  V30 15899 O 1472.33 1.13055 1.57899 0
M  V30 15900 C 1469.46 2.34534 2.56146 0
M  V30 15901 C 1468.41 3.4997 2.46384 0
M  V30 15902 C 1467.74 3.71217 3.8484 0
M  V30 15903 C 1469.04 4.83592 1.97323 0
M  V30 15904 H 1470.73 2.86517 0.8688 0
M  V30 15905 H 1468.28 1.37846 0.416481 0
M  V30 15906 H 1470.23 2.62799 3.29416 0
M  V30 15907 H 1468.95 1.43933 2.93174 0
M  V30 15908 H 1467.61 3.21824 1.75569 0
M  V30 15909 H 1467.26 2.77916 4.19251 0
M  V30 15910 H 1466.96 4.48885 3.79178 0
M  V30 15911 H 1468.49 4.01877 4.59704 0
M  V30 15912 H 1469.9 5.10768 2.60363 0
M  V30 15913 H 1468.3 5.64858 2.02622 0
M  V30 15914 H 1469.37 4.75951 0.927275 0
M  V30 15915 N 1470.71 -0.445159 1.51182 0
M  V30 15916 C 1471.96 -1.19701 1.63705 0
M  V30 15917 C 1472.29 -1.91047 0.348511 0
M  V30 15918 O 1471.56 -1.83264 -0.651497 0
M  V30 15919 C 1471.85 -2.22021 2.83511 0
M  V30 15920 C 1471.7 -1.54809 4.2232 0
M  V30 15921 C 1473.02 -3.23083 2.9884 0
M  V30 15922 H 1470.14 -0.433818 0.595795 0
M  V30 15923 H 1472.78 -0.487276 1.83645 0
M  V30 15924 H 1470.93 -2.82551 2.66641 0
M  V30 15925 H 1472.6 -0.976774 4.5084 0
M  V30 15926 H 1470.84 -0.850596 4.25379 0
M  V30 15927 H 1471.52 -2.29289 5.02126 0
M  V30 15928 H 1473.99 -2.72601 3.14369 0
M  V30 15929 H 1472.87 -3.91978 3.84246 0
M  V30 15930 H 1473.13 -3.88732 2.1057 0
M  V30 15931 N 1472.19 -1.41197 -0.700089 0
M  V30 15932 C 1473.1 -1.45038 -1.84394 0
M  V30 15933 C 1474.11 -0.34141 -1.70618 0
M  V30 15934 O 1475.29 -0.588428 -1.92612 0
M  V30 15935 C 1472.35 -1.32611 -3.20336 0
M  V30 15936 C 1471.42 -2.53784 -3.46254 0
M  V30 15937 C 1470.65 -2.4194 -4.75711 0
M  V30 15938 O 1470.87 -1.44153 -5.51884 0
M  V30 15939 O 1469.81 -3.31613 -5.02311 0
M  V30 15940 H 1473.63 -2.41531 -1.8411 0
M  V30 15941 H 1471.22 -1.22686 -0.852558 0
M  V30 15942 H 1473.1 -1.27947 -4.01507 0
M  V30 15943 H 1471.77 -0.392309 -3.21314 0
M  V30 15944 H 1470.68 -2.64024 -2.65032 0
M  V30 15945 H 1472.01 -3.45977 -3.50087 0
M  V30 15946 N 1473.67 0.933891 -1.2695 0
M  V30 15947 C 1474.61 2.05498 -1.08964 0
M  V30 15948 C 1475.61 1.69394 -0.0144837 0
M  V30 15949 O 1476.81 1.79179 -0.171729 0
M  V30 15950 H 1473.19 0.672978 -0.335566 0
M  V30 15951 H 1475.16 2.17817 -2.03957 0
M  V30 15952 C 1473.91 3.39579 -0.747074 0
M  V30 15953 H 1473.23 3.67842 -1.56628 0
M  V30 15954 H 1474.67 4.18815 -0.661064 0
M  V30 15955 C 1473.13 3.3241 0.548214 0
M  V30 15956 O 1473.66 3.69132 1.58443 0
M  V30 15957 N 1471.87 2.85509 0.541545 0
M  V30 15958 H 1471.41 2.55822 -0.302112 0
M  V30 15959 H 1471.37 2.81095 1.4083 0
M  V30 15960 N 1475.14 1.08871 1.13951 0
M  V30 15961 C 1476.39 0.822504 1.85372 0
M  V30 15962 C 1476.72 -0.650183 1.82993 0
M  V30 15963 O 1476 -1.4783 1.26398 0
M  V30 15964 C 1476.28 1.35107 3.33793 0
M  V30 15965 C 1476.13 2.88945 3.44719 0
M  V30 15966 C 1477.45 0.980203 4.29045 0
M  V30 15967 H 1474.57 0.300255 0.673065 0
M  V30 15968 H 1477.21 1.34914 1.33784 0
M  V30 15969 H 1475.36 0.903108 3.77857 0
M  V30 15970 H 1477.04 3.42148 3.09407 0
M  V30 15971 H 1475.28 3.26365 2.85777 0
M  V30 15972 H 1475.95 3.21004 4.49066 0
M  V30 15973 H 1478.43 1.36646 3.93023 0
M  V30 15974 H 1477.3 1.37717 5.31343 0
M  V30 15975 H 1477.56 -0.112253 4.41957 0
M  V30 15976 N 1476.62 -1.31073 0.875073 0
M  V30 15977 C 1477.57 -2.30335 0.3238 0
M  V30 15978 C 1478.56 -1.5974 -0.563869 0
M  V30 15979 O 1479.77 -1.743 -0.449402 0
M  V30 15980 H 1476.14 -0.747062 0.0860376 0
M  V30 15981 H 1478.12 -2.743 1.17483 0
M  V30 15982 C 1476.86 -3.44705 -0.455348 0
M  V30 15983 H 1476.19 -3.99203 0.218433 0
M  V30 15984 H 1477.63 -4.16262 -0.806329 0
M  V30 15985 C 1476.09 -2.93807 -1.6486 0
M  V30 15986 O 1476.62 -2.93004 -2.74794 0
M  V30 15987 N 1474.82 -2.49944 -1.48244 0
M  V30 15988 H 1474.37 -2.50797 -0.588116 0
M  V30 15989 H 1474.33 -2.16245 -2.28222 0
M  V30 15990 N 1478.1 -0.635022 -1.4424 0
M  V30 15991 C 1479.05 0.0895375 -2.27824 0
M  V30 15992 C 1480.03 0.812405 -1.38884 0
M  V30 15993 O 1481.23 0.69787 -1.62662 0
M  V30 15994 C 1478.36 1.06778 -3.26272 0
M  V30 15995 C 1477.44 0.344333 -4.227 0
M  V30 15996 N 1477.83 -0.629195 -5.01871 0
M  V30 15997 C 1476.13 0.588254 -4.42104 0
M  V30 15998 C 1476.83 -1.05697 -5.72017 0
M  V30 15999 N 1475.81 -0.394953 -5.42163 0
M  V30 16000 H 1479.61 -0.65777 -2.86445 0
M  V30 16001 H 1477.12 -0.460836 -1.55724 0
M  V30 16002 H 1479.12 1.6015 -3.84913 0
M  V30 16003 H 1477.78 1.81535 -2.69212 0
M  V30 16004 H 1478.79 -1.00717 -5.08012 0
M  V30 16005 H 1475.47 1.31839 -3.96137 0
M  V30 16006 H 1476.86 -1.86148 -6.45599 0
M  V30 16007 N 1479.58 1.53054 -0.375806 0
M  V30 16008 C 1480.81 2.0582 0.211135 0
M  V30 16009 C 1481.22 1.24856 1.4162 0
M  V30 16010 O 1480.58 0.291786 1.80152 0
M  V30 16011 C 1480.63 3.56577 0.594573 0
M  V30 16012 O 1480.35 4.34472 -0.562607 0
M  V30 16013 C 1481.85 4.25639 1.23882 0
M  V30 16014 H 1479.07 0.670085 0.0350268 0
M  V30 16015 H 1481.62 1.9732 -0.537135 0
M  V30 16016 H 1479.77 3.65194 1.29275 0
M  V30 16017 H 1480.18 5.23902 -0.250487 0
M  V30 16018 H 1481.66 5.32408 1.45759 0
M  V30 16019 H 1482.14 3.80001 2.20218 0
M  V30 16020 H 1482.74 4.21302 0.581786 0
M  V30 16021 N 1481.06 0.105248 1.57248 0
M  V30 16022 C 1481.99 -0.846915 2.176 0
M  V30 16023 C 1482.97 -1.28706 1.11216 0
M  V30 16024 O 1484.15 -1.35213 1.39396 0
M  V30 16025 C 1481.28 -2.10228 2.76445 0
M  V30 16026 C 1480.24 -1.80041 3.8829 0
M  V30 16027 C 1479.56 -3.12491 4.33882 0
M  V30 16028 C 1480.86 -1.07943 5.11024 0
M  V30 16029 H 1482.56 -0.344052 2.97417 0
M  V30 16030 H 1480.1 -0.164045 1.43063 0
M  V30 16031 H 1482.06 -2.77284 3.17319 0
M  V30 16032 H 1480.78 -2.62815 1.93897 0
M  V30 16033 H 1479.44 -1.15379 3.4797 0
M  V30 16034 H 1479.09 -3.62985 3.48211 0
M  V30 16035 H 1478.79 -2.93072 5.09296 0
M  V30 16036 H 1480.31 -3.80688 4.77398 0
M  V30 16037 H 1481.72 -1.65127 5.49004 0
M  V30 16038 H 1480.12 -0.986674 5.91933 0
M  V30 16039 H 1481.19 -0.0638511 4.84858 0
M  V30 16040 N 1482.53 -1.56697 -0.168486 0
M  V30 16041 C 1483.48 -1.96628 -1.20855 0
M  V30 16042 C 1484.45 -0.830623 -1.4384 0
M  V30 16043 O 1485.64 -1.09097 -1.56533 0
M  V30 16044 C 1482.78 -2.3338 -2.5422 0
M  V30 16045 C 1481.89 -3.60137 -2.3859 0
M  V30 16046 C 1481.02 -3.86088 -3.64842 0
M  V30 16047 C 1480.06 -5.06184 -3.44157 0
M  V30 16048 N 1479.2 -5.28254 -4.62485 0
M  V30 16049 H 1484.04 -2.8529 -0.86102 0
M  V30 16050 H 1481.58 -1.41162 -0.413741 0
M  V30 16051 H 1483.54 -2.52711 -3.31953 0
M  V30 16052 H 1482.17 -1.47825 -2.86963 0
M  V30 16053 H 1481.22 -3.48704 -1.52019 0
M  V30 16054 H 1482.53 -4.48028 -2.19254 0
M  V30 16055 H 1481.68 -4.05802 -4.5101 0
M  V30 16056 H 1480.42 -2.96578 -3.8716 0
M  V30 16057 H 1479.43 -4.86366 -2.56376 0
M  V30 16058 H 1480.65 -5.97228 -3.23258 0
M  V30 16059 H 1478.6 -4.41695 -4.85017 0
M  V30 16060 H 1478.52 -6.10373 -4.46072 0
M  V30 16061 H 1479.78 -5.52448 -5.49928 0
M  V30 16062 N 1484.01 0.437135 -1.51416 0
M  V30 16063 C 1485.26 1.18831 -1.64338 0
M  V30 16064 C 1485.59 1.9086 -0.358638 0
M  V30 16065 O 1484.87 1.83607 0.641769 0
M  V30 16066 C 1485.15 2.20515 -2.84685 0
M  V30 16067 C 1485 1.52568 -4.23135 0
M  V30 16068 C 1486.32 3.21494 -3.00549 0
M  V30 16069 H 1483.44 0.430652 -0.598087 0
M  V30 16070 H 1486.08 0.47753 -1.83901 0
M  V30 16071 H 1484.23 2.81132 -2.68136 0
M  V30 16072 H 1485.9 0.952851 -4.51352 0
M  V30 16073 H 1484.15 0.828025 -4.25824 0
M  V30 16074 H 1484.82 2.26623 -5.03335 0
M  V30 16075 H 1487.29 2.7093 -3.1581 0
M  V30 16076 H 1486.17 3.89934 -3.86319 0
M  V30 16077 H 1486.43 3.8761 -2.12629 0
M  V30 16078 N 1485.49 1.41566 0.692592 0
M  V30 16079 C 1486.74 1.42293 1.45342 0
M  V30 16080 C 1487.09 0.032316 1.92373 0
M  V30 16081 O 1486.38 -0.942367 1.66823 0
M  V30 16082 C 1486.58 2.36683 2.67799 0
M  V30 16083 C 1486.41 3.84784 2.32748 0
M  V30 16084 C 1485.18 4.53446 2.22967 0
M  V30 16085 C 1487.38 4.75681 1.95531 0
M  V30 16086 N 1485.36 5.86662 1.80833 0
M  V30 16087 C 1486.73 5.97868 1.64178 0
M  V30 16088 C 1488.78 4.633 1.82367 0
M  V30 16089 C 1487.49 7.09053 1.20983 0
M  V30 16090 C 1489.51 5.74449 1.40577 0
M  V30 16091 C 1488.87 6.95737 1.10137 0
M  V30 16092 H 1484.97 0.575898 0.529023 0
M  V30 16093 H 1487.56 1.77459 0.801013 0
M  V30 16094 H 1485.73 2.03606 3.30755 0
M  V30 16095 H 1487.46 2.28109 3.34288 0
M  V30 16096 H 1484.22 4.07423 2.4146 0
M  V30 16097 H 1484.64 6.57273 1.62239 0
M  V30 16098 H 1489.28 3.70024 2.04554 0
M  V30 16099 H 1487 8.02192 0.975411 0
M  V30 16100 H 1490.59 5.66875 1.30937 0
M  V30 16101 H 1489.47 7.80282 0.782888 0
M  V30 16102 N 1486.97 -0.927146 1.27443 0
M  V30 16103 C 1488.22 -1.66941 1.13197 0
M  V30 16104 C 1488.53 -1.92939 -0.32156 0
M  V30 16105 O 1489.74 -2.65124 -0.584931 0
M  V30 16106 C 1488.19 -3.00677 1.97791 0
M  V30 16107 C 1487.8 -2.82376 3.47805 0
M  V30 16108 C 1489.54 -3.78499 1.92195 0
M  V30 16109 C 1487.45 -4.1167 4.24596 0
M  V30 16110 H 1486.38 -0.626171 0.420031 0
M  V30 16111 H 1489.03 -1.02997 1.51868 0
M  V30 16112 H 1487.41 -3.65681 1.51965 0
M  V30 16113 H 1488.59 -2.26135 4.01497 0
M  V30 16114 H 1486.9 -2.17982 3.54786 0
M  V30 16115 H 1489.5 -4.74312 2.46844 0
M  V30 16116 H 1489.84 -4.0655 0.895702 0
M  V30 16117 H 1490.38 -3.20292 2.35919 0
M  V30 16118 H 1487.12 -3.88798 5.27747 0
M  V30 16119 H 1486.64 -4.67573 3.75681 0
M  V30 16120 H 1488.31 -4.80028 4.338 0
M  V30 16121 N 1488.45 -1.09474 -1.13372 0
M  V30 16122 C 1489.38 -0.692446 -2.1849 0
M  V30 16123 C 1490.39 0.265942 -1.60613 0
M  V30 16124 O 1491.58 0.0519189 -1.78424 0
M  V30 16125 C 1488.68 0.000306083 -3.389 0
M  V30 16126 C 1487.85 -0.979745 -4.26286 0
M  V30 16127 C 1486.91 -0.320309 -5.25224 0
M  V30 16128 O 1485.94 -0.968089 -5.60907 0
M  V30 16129 N 1487.14 0.92536 -5.73077 0
M  V30 16130 H 1489.91 -1.59681 -2.53618 0
M  V30 16131 H 1487.47 -0.982256 -1.28699 0
M  V30 16132 H 1489.46 0.45268 -4.0216 0
M  V30 16133 H 1488.03 0.806927 -3.02006 0
M  V30 16134 H 1487.25 -1.61067 -3.59793 0
M  V30 16135 H 1488.54 -1.64348 -4.81526 0
M  V30 16136 H 1487.93 1.47119 -5.46235 0
M  V30 16137 H 1486.49 1.32105 -6.38272 0
M  V30 16138 N 1489.92 1.30607 -0.882012 0
M  V30 16139 C 1490.87 2.2821 -0.344826 0
M  V30 16140 C 1491.84 1.56254 0.563361 0
M  V30 16141 O 1493.03 1.84336 0.492416 0
M  V30 16142 C 1490.17 3.42319 0.437216 0
M  V30 16143 C 1489.28 4.29098 -0.499851 0
M  V30 16144 C 1488.41 5.30366 0.297497 0
M  V30 16145 C 1487.45 6.08795 -0.63523 0
M  V30 16146 N 1486.59 7.01986 0.12661 0
M  V30 16147 H 1491.43 2.73543 -1.18229 0
M  V30 16148 H 1488.97 1.34556 -0.594392 0
M  V30 16149 H 1490.93 4.07232 0.906521 0
M  V30 16150 H 1489.56 2.98063 1.23928 0
M  V30 16151 H 1488.61 3.6452 -1.08764 0
M  V30 16152 H 1489.92 4.83787 -1.21454 0
M  V30 16153 H 1489.07 6.01013 0.828786 0
M  V30 16154 H 1487.81 4.76364 1.04542 0
M  V30 16155 H 1486.82 5.37028 -1.17817 0
M  V30 16156 H 1488.04 6.64885 -1.3822 0
M  V30 16157 H 1485.99 6.50376 0.857125 0
M  V30 16158 H 1485.91 7.5415 -0.528512 0
M  V30 16159 H 1487.17 7.76879 0.638738 0
M  V30 16160 N 1491.4 0.642663 1.43901 0
M  V30 16161 C 1492.65 0.151778 2.0193 0
M  V30 16162 C 1492.98 -1.23052 1.50627 0
M  V30 16163 O 1492.23 -1.83305 0.685404 0
M  V30 16164 C 1492.53 0.100139 3.5726 0
M  V30 16165 C 1492.2 1.42276 4.27865 0
M  V30 16166 C 1490.86 1.78497 4.46869 0
M  V30 16167 C 1493.21 2.29526 4.67939 0
M  V30 16168 C 1490.54 3.01655 5.03211 0
M  V30 16169 C 1492.89 3.51966 5.25645 0
M  V30 16170 C 1491.56 3.88396 5.42867 0
M  V30 16171 H 1490.83 0.0555394 0.738916 0
M  V30 16172 H 1493.47 0.831273 1.72517 0
M  V30 16173 H 1491.78 -0.66277 3.86154 0
M  V30 16174 H 1493.47 -0.29638 3.99903 0
M  V30 16175 H 1490.06 1.13091 4.13411 0
M  V30 16176 H 1494.25 2.02835 4.52959 0
M  V30 16177 H 1489.5 3.29943 5.14731 0
M  V30 16178 H 1493.68 4.19799 5.55645 0
M  V30 16179 H 1491.31 4.83909 5.8629 0
M  V30 16180 N 1492.88 -1.52852 0.383918 0
M  V30 16181 C 1493.81 -2.29213 -0.44539 0
M  V30 16182 C 1494.79 -1.3238 -1.06815 0
M  V30 16183 O 1495.98 -1.61269 -1.08194 0
M  V30 16184 C 1493.11 -3.09497 -1.57573 0
M  V30 16185 C 1492.06 -4.14168 -1.07928 0
M  V30 16186 C 1491.39 -4.82644 -2.30128 0
M  V30 16187 C 1492.69 -5.22082 -0.151035 0
M  V30 16188 H 1494.38 -2.98786 0.19172 0
M  V30 16189 H 1491.93 -1.43695 0.0936471 0
M  V30 16190 H 1493.88 -3.61672 -2.16267 0
M  V30 16191 H 1492.6 -2.37647 -2.24034 0
M  V30 16192 H 1491.26 -3.62966 -0.514909 0
M  V30 16193 H 1490.91 -4.07348 -2.95087 0
M  V30 16194 H 1490.61 -5.53388 -1.97574 0
M  V30 16195 H 1492.14 -5.37621 -2.89475 0
M  V30 16196 H 1493.55 -5.69649 -0.646003 0
M  V30 16197 H 1491.95 -6.00041 0.0844833 0
M  V30 16198 H 1493.02 -4.78228 0.801618 0
M  V30 16199 N 1494.36 -0.113586 -1.5719 0
M  V30 16200 C 1495.77 0.412653 -1.82083 0
M  V30 16201 C 1496.12 1.66964 -1.03041 0
M  V30 16202 O 1495.25 2.14767 -0.265354 0
M  V30 16203 C 1495.84 0.755439 -3.3027 0
M  V30 16204 C 1494.4 1.22634 -3.55862 0
M  V30 16205 C 1493.55 0.232285 -2.76325 0
M  V30 16206 H 1496.5 -0.338792 -1.55042 0
M  V30 16207 H 1496.52 1.61335 -3.44603 0
M  V30 16208 H 1496.03 -0.1596 -3.87772 0
M  V30 16209 H 1494.13 2.15846 -3.03713 0
M  V30 16210 H 1494.25 1.1754 -4.64458 0
M  V30 16211 H 1492.61 0.718222 -2.44364 0
M  V30 16212 H 1493.39 -0.675756 -3.36583 0
M  V30 16213 N 1495.84 1.56784 0.160173 0
M  V30 16214 C 1496.75 2.00514 1.21783 0
M  V30 16215 C 1497.76 0.918341 1.47792 0
M  V30 16216 O 1498.94 1.22683 1.59721 0
M  V30 16217 C 1496 2.36575 2.53443 0
M  V30 16218 C 1495.07 3.59138 2.35198 0
M  V30 16219 C 1494.3 3.93469 3.6058 0
M  V30 16220 O 1494.52 3.28625 4.6622 0
M  V30 16221 O 1493.46 4.86774 3.54027 0
M  V30 16222 H 1497.28 2.90774 0.876607 0
M  V30 16223 H 1494.87 1.44799 0.367897 0
M  V30 16224 H 1496.75 2.60687 3.31089 0
M  V30 16225 H 1495.42 1.49474 2.87122 0
M  V30 16226 H 1494.33 3.4023 1.55546 0
M  V30 16227 H 1495.66 4.46815 2.0644 0
M  V30 16228 N 1497.32 -0.429099 1.51646 0
M  V30 16229 C 1498.54 -1.20006 1.68541 0
M  V30 16230 C 1498.96 -1.84806 0.386264 0
M  V30 16231 O 1498.32 -1.7106 -0.635988 0
M  V30 16232 C 1498.37 -2.27801 2.80694 0
M  V30 16233 O 1498.09 -1.65649 4.05576 0
M  V30 16234 C 1499.59 -3.17927 3.08929 0
M  V30 16235 H 1496.81 -0.361388 0.565367 0
M  V30 16236 H 1499.35 -0.507432 1.98104 0
M  V30 16237 H 1497.51 -2.92766 2.53706 0
M  V30 16238 H 1497.92 -2.36955 4.67924 0
M  V30 16239 H 1499.4 -3.8968 3.90965 0
M  V30 16240 H 1499.87 -3.79157 2.21668 0
M  V30 16241 H 1500.48 -2.58654 3.37606 0
M  V30 16242 N 1498.79 -1.41931 -0.685074 0
M  V30 16243 C 1500.02 -1.45229 -1.47364 0
M  V30 16244 C 1500.44 -0.060595 -1.88703 0
M  V30 16245 O 1499.79 0.92244 -1.57472 0
M  V30 16246 C 1499.84 -2.37033 -2.72942 0
M  V30 16247 O 1499.57 -3.70787 -2.33342 0
M  V30 16248 C 1501.07 -2.49244 -3.66596 0
M  V30 16249 H 1498.29 -0.494291 -0.453781 0
M  V30 16250 H 1500.83 -1.86333 -0.84263 0
M  V30 16251 H 1498.99 -1.9921 -3.32256 0
M  V30 16252 H 1499.4 -4.19853 -3.14362 0
M  V30 16253 H 1500.87 -3.17624 -4.51463 0
M  V30 16254 H 1501.35 -1.52703 -4.11799 0
M  V30 16255 H 1501.96 -2.87747 -3.1318 0
M  V30 16256 N 1500.27 0.920374 -1.27933 0
M  V30 16257 C 1501.5 1.70804 -1.17647 0
M  V30 16258 C 1501.92 1.86264 0.262189 0
M  V30 16259 O 1501.28 1.36798 1.18979 0
M  V30 16260 C 1501.33 3.08142 -1.87298 0
M  V30 16261 O 1500.43 3.95279 -1.17593 0
M  V30 16262 H 1499.77 0.523267 -0.408763 0
M  V30 16263 H 1502.3 1.15127 -1.69136 0
M  V30 16264 H 1502.31 3.58414 -1.94945 0
M  V30 16265 H 1500.99 2.96208 -2.91948 0
M  V30 16266 H 1499.56 3.53716 -1.18065 0
M  V30 16267 N 1501.75 1.10074 1.1279 0
M  V30 16268 C 1502.68 0.768146 2.20503 0
M  V30 16269 C 1503.66 -0.257199 1.68144 0
M  V30 16270 O 1504.85 -0.12379 1.93805 0
M  V30 16271 C 1501.98 0.195125 3.46751 0
M  V30 16272 C 1500.93 1.15074 4.1224 0
M  V30 16273 C 1500.26 0.439098 5.32894 0
M  V30 16274 C 1501.56 2.49584 4.58808 0
M  V30 16275 H 1503.25 1.66876 2.48581 0
M  V30 16276 H 1500.8 0.803806 1.19478 0
M  V30 16277 H 1502.75 -0.0496695 4.21371 0
M  V30 16278 H 1501.47 -0.740717 3.1809 0
M  V30 16279 H 1500.13 1.38092 3.39597 0
M  V30 16280 H 1499.78 -0.501096 5.00498 0
M  V30 16281 H 1499.48 1.07632 5.77658 0
M  V30 16282 H 1501 0.202761 6.10263 0
M  V30 16283 H 1502.42 2.30736 5.24818 0
M  V30 16284 H 1500.81 3.09157 5.14336 0
M  V30 16285 H 1501.88 3.09857 3.72984 0
M  V30 16286 N 1503.23 -1.30138 0.888926 0
M  V30 16287 C 1504.5 -1.90831 0.42928 0
M  V30 16288 C 1504.88 -1.80765 -1.09028 0
M  V30 16289 O 1504.23 -1.22741 -1.92735 0
M  V30 16290 C 1504.44 -3.36331 0.931798 0
M  V30 16291 C 1505.79 -4.13393 0.969106 0
M  V30 16292 O 1506.81 -3.45191 0.878731 0
M  V30 16293 O 1505.67 -5.35249 1.10323 0
M  V30 16294 H 1502.77 -0.816401 0.131976 0
M  V30 16295 H 1505.31 -1.38678 0.978086 0
M  V30 16296 H 1504.09 -3.37761 1.97568 0
M  V30 16297 H 1503.71 -3.95945 0.362383 0
M  V30 16298 N 1504.71 -0.650285 -1.43559 0
M  V30 16299 C 1505.65 0.0550615 -2.32535 0
M  V30 16300 C 1506.65 0.81612 -1.48445 0
M  V30 16301 O 1507.85 0.726853 -1.64672 0
M  V30 16302 H 1504.23 0.0365887 -0.751109 0
M  V30 16303 H 1506.2 -0.713146 -2.89753 0
M  V30 16304 C 1504.95 1.00982 -3.32713 0
M  V30 16305 H 1504.27 0.433626 -3.97441 0
M  V30 16306 H 1505.71 1.47249 -3.9761 0
M  V30 16307 C 1504.17 2.10442 -2.63089 0
M  V30 16308 O 1504.7 3.18782 -2.44419 0
M  V30 16309 N 1502.91 1.86915 -2.22511 0
M  V30 16310 H 1502.45 0.988113 -2.37895 0
M  V30 16311 H 1502.41 2.60348 -1.76256 0
M  V30 16312 N 1506.18 1.52647 -0.392018 0
M  V30 16313 C 1507.15 2.25135 0.429754 0
M  V30 16314 C 1508.15 1.26871 0.987946 0
M  V30 16315 O 1509.34 1.50947 0.86952 0
M  V30 16316 C 1506.47 3.00849 1.60321 0
M  V30 16317 H 1507.66 2.99199 -0.204918 0
M  V30 16318 H 1505.21 1.55634 -0.144188 0
M  V30 16319 H 1505.95 2.31092 2.27524 0
M  V30 16320 H 1505.73 3.72975 1.20964 0
M  V30 16321 H 1507.22 3.55879 2.18494 0
M  V30 16322 N 1507.66 0.121921 1.57128 0
M  V30 16323 C 1508.59 -0.823788 2.18486 0
M  V30 16324 C 1509.57 -1.27519 1.12574 0
M  V30 16325 O 1510.76 -1.33727 1.40822 0
M  V30 16326 C 1507.89 -2.07284 2.78659 0
M  V30 16327 C 1506.84 -1.75912 3.90178 0
M  V30 16328 C 1506.17 -3.07871 4.37172 0
M  V30 16329 C 1507.47 -1.02517 5.1214 0
M  V30 16330 H 1509.16 -0.312488 2.97765 0
M  V30 16331 H 1506.71 -0.148862 1.43228 0
M  V30 16332 H 1508.66 -2.73903 3.20242 0
M  V30 16333 H 1507.39 -2.60743 1.96673 0
M  V30 16334 H 1506.04 -1.11681 3.49174 0
M  V30 16335 H 1505.69 -3.59271 3.52041 0
M  V30 16336 H 1505.39 -2.87653 5.12376 0
M  V30 16337 H 1506.92 -3.75604 4.81409 0
M  V30 16338 H 1508.33 -1.59295 5.50725 0
M  V30 16339 H 1506.73 -0.923836 5.92946 0
M  V30 16340 H 1507.8 -0.0124219 4.84898 0
M  V30 16341 N 1509.14 -1.56867 -0.151857 0
M  V30 16342 C 1510.37 -1.87601 -0.884347 0
M  V30 16343 C 1510.79 -0.710419 -1.74168 0
M  V30 16344 O 1510.15 0.340103 -1.78081 0
M  V30 16345 C 1510.2 -3.16887 -1.72091 0
M  V30 16346 O 1509.3 -3.00479 -2.82464 0
M  V30 16347 H 1508.64 -0.616509 -0.246603 0
M  V30 16348 H 1511.17 -2.04092 -0.144135 0
M  V30 16349 H 1511.18 -3.48785 -2.11691 0
M  V30 16350 H 1509.86 -4.01327 -1.09131 0
M  V30 16351 H 1508.43 -2.79978 -2.46306 0
M  V30 16352 N 1510.62 0.421051 -1.51871 0
M  V30 16353 C 1511.55 1.51928 -1.77313 0
M  V30 16354 C 1512.53 1.58258 -0.623579 0
M  V30 16355 O 1513.71 1.73724 -0.867967 0
M  V30 16356 C 1510.84 2.89865 -1.913 0
M  V30 16357 C 1509.8 2.98391 -3.06834 0
M  V30 16358 C 1509.12 4.38466 -3.06026 0
M  V30 16359 C 1510.42 2.7097 -4.46511 0
M  V30 16360 H 1512.12 1.30889 -2.69274 0
M  V30 16361 H 1509.66 0.628229 -1.29573 0
M  V30 16362 H 1511.62 3.66669 -2.07682 0
M  V30 16363 H 1510.34 3.12172 -0.960011 0
M  V30 16364 H 1509 2.24029 -2.90184 0
M  V30 16365 H 1508.65 4.57764 -2.08472 0
M  V30 16366 H 1508.35 4.45097 -3.83618 0
M  V30 16367 H 1509.87 5.17221 -3.24522 0
M  V30 16368 H 1511.29 3.37501 -4.63428 0
M  V30 16369 H 1509.68 2.88992 -5.25931 0
M  V30 16370 H 1510.75 1.66476 -4.55427 0
M  V30 16371 N 1512.1 1.42293 0.677538 0
M  V30 16372 C 1513.06 1.45258 1.77293 0
M  V30 16373 C 1514.06 0.340554 1.57152 0
M  V30 16374 O 1515.25 0.601259 1.63495 0
M  V30 16375 C 1512.38 1.28156 3.15894 0
M  V30 16376 H 1513.57 2.42787 1.76052 0
M  V30 16377 H 1511.13 1.287 0.886908 0
M  V30 16378 H 1511.86 0.315381 3.22763 0
M  V30 16379 H 1511.65 2.08744 3.31916 0
M  V30 16380 H 1513.14 1.33107 3.95818 0
M  V30 16381 N 1513.57 -0.913576 1.28419 0
M  V30 16382 C 1514.82 -1.66519 1.15755 0
M  V30 16383 C 1515.15 -1.91974 -0.293166 0
M  V30 16384 O 1514.43 -1.52025 -1.21321 0
M  V30 16385 C 1514.71 -3.02299 1.95672 0
M  V30 16386 C 1514.56 -2.83996 3.48807 0
M  V30 16387 C 1515.88 -4.02838 1.77226 0
M  V30 16388 H 1513 -0.604309 0.421877 0
M  V30 16389 H 1515.64 -1.05919 1.57737 0
M  V30 16390 H 1513.79 -3.54025 1.59995 0
M  V30 16391 H 1515.47 -2.39279 3.9439 0
M  V30 16392 H 1513.71 -2.19052 3.74431 0
M  V30 16393 H 1514.38 -3.80419 3.99982 0
M  V30 16394 H 1516.86 -3.60174 2.0836 0
M  V30 16395 H 1515.73 -4.95806 2.35515 0
M  V30 16396 H 1515.99 -4.36135 0.723804 0
M  V30 16397 N 1515.05 -1.1067 -1.12204 0
M  V30 16398 C 1516 -0.726979 -2.161 0
M  V30 16399 C 1516.99 0.26505 -1.58702 0
M  V30 16400 O 1518.18 0.0734052 -1.76848 0
M  V30 16401 C 1515.31 -0.163062 -3.42913 0
M  V30 16402 C 1514.39 -1.18228 -4.07287 0
M  V30 16403 N 1514.78 -2.3738 -4.46637 0
M  V30 16404 C 1513.08 -1.02336 -4.34101 0
M  V30 16405 C 1513.78 -3.02318 -4.9697 0
M  V30 16406 N 1512.76 -2.29826 -4.92627 0
M  V30 16407 H 1516.56 -1.63396 -2.44293 0
M  V30 16408 H 1514.08 -0.984782 -1.29135 0
M  V30 16409 H 1516.07 0.127067 -4.16706 0
M  V30 16410 H 1514.73 0.738611 -3.16188 0
M  V30 16411 H 1515.74 -2.74889 -4.38926 0
M  V30 16412 H 1512.42 -0.177452 -4.17123 0
M  V30 16413 H 1513.81 -4.03685 -5.3711 0
M  V30 16414 N 1516.53 1.29665 -0.895815 0
M  V30 16415 C 1517.76 2.00399 -0.534333 0
M  V30 16416 C 1518.18 1.66632 0.872654 0
M  V30 16417 O 1517.54 0.888811 1.58018 0
M  V30 16418 C 1517.59 3.53154 -0.729023 0
M  V30 16419 O 1516.69 4.11812 0.22023 0
M  V30 16420 H 1516.03 0.630173 -0.209233 0
M  V30 16421 H 1518.56 1.65253 -1.20634 0
M  V30 16422 H 1518.57 4.03073 -0.632179 0
M  V30 16423 H 1517.25 3.77067 -1.75481 0
M  V30 16424 H 1515.82 3.72822 0.0761687 0
M  V30 16425 N 1518.01 0.657889 1.43212 0
M  V30 16426 C 1518.94 -0.0172114 2.33494 0
M  V30 16427 C 1519.92 -0.807087 1.49733 0
M  V30 16428 O 1521.1 -0.767631 1.78385 0
M  V30 16429 C 1518.23 -0.981029 3.33156 0
M  V30 16430 C 1517.19 -0.30094 4.26941 0
M  V30 16431 C 1516.51 -1.37653 5.16678 0
M  V30 16432 C 1517.81 0.809572 5.15988 0
M  V30 16433 H 1519.51 0.736749 2.90194 0
M  V30 16434 H 1517.05 0.355744 1.39537 0
M  V30 16435 H 1519.01 -1.46226 3.95216 0
M  V30 16436 H 1517.73 -1.76621 2.74723 0
M  V30 16437 H 1516.39 0.159893 3.66251 0
M  V30 16438 H 1516.04 -2.15326 4.54581 0
M  V30 16439 H 1515.74 -0.926704 5.80246 0
M  V30 16440 H 1517.26 -1.85903 5.81612 0
M  V30 16441 H 1518.68 0.410297 5.7183 0
M  V30 16442 H 1517.07 1.18415 5.88301 0
M  V30 16443 H 1518.14 1.66558 4.55397 0
M  V30 16444 N 1519.49 -1.52437 0.400108 0
M  V30 16445 C 1520.43 -2.28312 -0.444572 0
M  V30 16446 C 1521.43 -1.32641 -1.0537 0
M  V30 16447 O 1522.63 -1.50136 -0.99293 0
M  V30 16448 H 1519.01 -0.734313 -0.162137 0
M  V30 16449 H 1520.98 -2.97612 0.216702 0
M  V30 16450 C 1519.73 -3.11044 -1.55393 0
M  V30 16451 H 1519.05 -3.84525 -1.09455 0
M  V30 16452 H 1520.49 -3.67255 -2.11896 0
M  V30 16453 C 1518.95 -2.24035 -2.51614 0
M  V30 16454 O 1519.48 -1.87447 -3.55284 0
M  V30 16455 N 1517.69 -1.87982 -2.2161 0
M  V30 16456 H 1517.23 -2.17936 -1.37338 0
M  V30 16457 H 1517.19 -1.30058 -2.86238 0
M  V30 16458 N 1520.96 -0.130252 -1.57061 0
M  V30 16459 C 1522.21 0.525006 -1.95576 0
M  V30 16460 C 1522.54 1.65964 -1.0142 0
M  V30 16461 O 1521.79 1.95659 -0.0401898 0
M  V30 16462 C 1522.09 1.08776 -3.40445 0
M  V30 16463 C 1521.76 0.0733062 -4.5084 0
M  V30 16464 C 1520.42 -0.20561 -4.80761 0
M  V30 16465 C 1522.77 -0.617428 -5.1753 0
M  V30 16466 C 1520.1 -1.18135 -5.74683 0
M  V30 16467 C 1522.45 -1.58188 -6.12503 0
M  V30 16468 C 1521.12 -1.86866 -6.4081 0
M  V30 16469 H 1520.39 0.192113 -0.715663 0
M  V30 16470 H 1523.03 -0.21354 -1.90306 0
M  V30 16471 H 1521.34 1.9033 -3.42464 0
M  V30 16472 H 1523.04 1.60305 -3.67564 0
M  V30 16473 H 1519.63 0.30088 -4.27543 0
M  V30 16474 H 1523.81 -0.415124 -4.94561 0
M  V30 16475 H 1519.07 -1.41017 -5.94915 0
M  V30 16476 H 1523.24 -2.12271 -6.6326 0
M  V30 16477 H 1520.87 -2.62628 -7.13394 0
M  V30 16478 N 1522.44 1.56945 0.143535 0
M  V30 16479 C 1523.39 1.98526 1.17711 0
M  V30 16480 C 1524.36 0.853402 1.425 0
M  V30 16481 O 1525.55 1.11574 1.54777 0
M  V30 16482 C 1522.69 2.37395 2.50475 0
M  V30 16483 C 1521.8 3.63887 2.32831 0
M  V30 16484 C 1520.93 3.91844 3.58653 0
M  V30 16485 C 1519.97 5.11595 3.36061 0
M  V30 16486 N 1519.11 5.35545 4.54022 0
M  V30 16487 H 1523.95 2.86624 0.815524 0
M  V30 16488 H 1521.49 1.41802 0.391231 0
M  V30 16489 H 1523.44 2.5796 3.27891 0
M  V30 16490 H 1522.07 1.52372 2.84575 0
M  V30 16491 H 1521.13 3.51078 1.46452 0
M  V30 16492 H 1522.44 4.51459 2.12098 0
M  V30 16493 H 1521.59 4.12926 4.44497 0
M  V30 16494 H 1520.33 3.027 3.82393 0
M  V30 16495 H 1519.34 4.90383 2.48606 0
M  V30 16496 H 1520.56 6.02295 3.13716 0
M  V30 16497 H 1518.51 4.49355 4.77929 0
M  V30 16498 H 1518.42 6.17393 4.36305 0
M  V30 16499 H 1519.69 5.61127 5.4107 0
M  V30 16500 N 1523.92 -0.412991 1.52093 0
M  V30 16501 C 1525.34 -0.751324 1.40809 0
M  V30 16502 C 1525.54 -1.94951 0.509543 0
M  V30 16503 O 1524.59 -2.52486 -0.026132 0
M  V30 16504 C 1525.91 -1.00888 2.8327 0
M  V30 16505 C 1527.45 -1.11183 2.92587 0
M  V30 16506 C 1527.93 -1.40217 4.36008 0
M  V30 16507 N 1529.42 -1.4709 4.39225 0
M  V30 16508 C 1530.16 -1.71174 5.47254 0
M  V30 16509 N 1529.65 -1.92887 6.65407 0
M  V30 16510 N 1531.44 -1.73157 5.34765 0
M  V30 16511 H 1523.6 0.375774 2.0905 0
M  V30 16512 H 1525.86 0.105817 0.942076 0
M  V30 16513 H 1525.56 -0.200872 3.51126 0
M  V30 16514 H 1525.44 -1.93008 3.2408 0
M  V30 16515 H 1527.83 -1.91043 2.24915 0
M  V30 16516 H 1527.91 -0.169078 2.55241 0
M  V30 16517 H 1527.55 -0.608754 5.04239 0
M  V30 16518 H 1527.48 -2.35737 4.70888 0
M  V30 16519 H 1529.97 -1.32114 3.54054 0
M  V30 16520 H 1530.28 -2.10704 7.43521 0
M  V30 16521 H 1528.63 -1.9016 6.68479 0
M  V30 16522 H 1531.82 -1.55728 4.41437 0
M  V30 16523 H 1531.99 -1.91587 6.1903 0
M  V30 16524 N 1525.4 -1.4265 -0.669982 0
M  V30 16525 C 1526.82 -1.25682 -0.983682 0
M  V30 16526 C 1527.02 -0.164456 -2.00828 0
M  V30 16527 O 1526.07 0.462711 -2.48224 0
M  V30 16528 C 1527.38 -2.61536 -1.4839 0
M  V30 16529 C 1528.93 -2.6893 -1.60143 0
M  V30 16530 C 1529.41 -4.05162 -2.1356 0
M  V30 16531 N 1530.9 -4.07141 -2.20886 0
M  V30 16532 C 1531.63 -5.09371 -2.63303 0
M  V30 16533 N 1531.13 -6.21983 -3.05137 0
M  V30 16534 N 1532.92 -4.96727 -2.63094 0
M  V30 16535 H 1525.07 -2.12398 0.0083059 0
M  V30 16536 H 1527.34 -0.946173 -0.058823 0
M  V30 16537 H 1527.04 -3.42351 -0.805527 0
M  V30 16538 H 1526.92 -2.85786 -2.46183 0
M  V30 16539 H 1529.3 -1.88457 -2.27085 0
M  V30 16540 H 1529.38 -2.48463 -0.608266 0
M  V30 16541 H 1529.03 -4.86094 -1.47224 0
M  V30 16542 H 1528.96 -4.22984 -3.13676 0
M  V30 16543 H 1531.45 -3.25846 -1.91396 0
M  V30 16544 H 1531.76 -6.95835 -3.36204 0
M  V30 16545 H 1530.11 -6.25481 -3.02983 0
M  V30 16546 H 1533.3 -4.07824 -2.29777 0
M  V30 16547 H 1533.47 -5.76531 -2.95831 0
M  V30 16548 N 1526.88 0.906753 -1.28902 0
M  V30 16549 C 1528.13 1.6533 -1.16234 0
M  V30 16550 C 1528.45 1.92861 0.288004 0
M  V30 16551 O 1527.72 1.54971 1.19837 0
M  V30 16552 H 1526.3 0.612806 -0.427174 0
M  V30 16553 H 1528.96 1.08764 -1.6173 0
M  V30 16554 H 1528.05 2.61271 -1.70715 0
M  V30 16555 N 1528.36 1.11264 1.11616 0
M  V30 16556 C 1529.77 0.846176 1.35322 0
M  V30 16557 C 1529.97 -0.530043 1.94404 0
M  V30 16558 O 1529.03 -1.28122 2.1758 0
M  V30 16559 C 1530.34 1.9528 2.28662 0
M  V30 16560 C 1531.89 1.98225 2.42231 0
M  V30 16561 C 1532.36 3.08086 3.38891 0
M  V30 16562 N 1533.85 3.07448 3.46453 0
M  V30 16563 C 1534.59 3.89094 4.21181 0
M  V30 16564 N 1534.09 4.80698 4.989 0
M  V30 16565 N 1535.88 3.77279 4.16674 0
M  V30 16566 H 1528.03 1.99958 0.716284 0
M  V30 16567 H 1530.29 0.869439 0.377862 0
M  V30 16568 H 1530 2.94381 1.92439 0
M  V30 16569 H 1529.87 1.84739 3.28864 0
M  V30 16570 H 1532.26 0.997517 2.77729 0
M  V30 16571 H 1532.34 2.12842 1.41887 0
M  V30 16572 H 1531.98 4.06784 3.0412 0
M  V30 16573 H 1531.91 2.90709 4.39085 0
M  V30 16574 H 1534.41 2.41077 2.91016 0
M  V30 16575 H 1534.72 5.39535 5.53282 0
M  V30 16576 H 1533.06 4.84721 4.98067 0
M  V30 16577 H 1536.25 3.05059 3.55044 0
M  V30 16578 H 1536.43 4.41142 4.74655 0
M  V30 16579 N 1529.83 -1.29188 0.902679 0
M  V30 16580 C 1531.08 -1.94718 0.526082 0
M  V30 16581 C 1531.4 -1.71924 -0.932816 0
M  V30 16582 O 1532.6 -2.31585 -1.41707 0
M  V30 16583 C 1531.06 -3.48723 0.889974 0
M  V30 16584 C 1530.67 -3.80312 2.36784 0
M  V30 16585 C 1532.41 -4.20472 0.58343 0
M  V30 16586 C 1530.32 -5.27574 2.67244 0
M  V30 16587 H 1529.25 -0.728875 0.193019 0
M  V30 16588 H 1531.9 -1.46869 1.10008 0
M  V30 16589 H 1530.28 -3.95242 0.244872 0
M  V30 16590 H 1531.45 -3.44641 3.05875 0
M  V30 16591 H 1529.77 -3.21709 2.64371 0
M  V30 16592 H 1532.37 -5.28864 0.787813 0
M  V30 16593 H 1532.71 -4.13544 -0.478204 0
M  V30 16594 H 1533.24 -3.79693 1.1865 0
M  V30 16595 H 1529.98 -5.39569 3.72217 0
M  V30 16596 H 1529.5 -5.64482 2.0278 0
M  V30 16597 H 1531.18 -5.95199 2.53666 0
M  V30 16598 N 1531.31 -0.665475 -1.42861 0
M  V30 16599 C 1532.56 -0.183521 -2.01265 0
M  V30 16600 C 1532.88 1.21103 -1.52837 0
M  V30 16601 O 1532.15 1.81135 -0.746109 0
M  V30 16602 H 1530.73 -0.0648565 -0.744179 0
M  V30 16603 H 1533.39 -0.859893 -1.74905 0
M  V30 16604 H 1532.49 -0.177589 -3.11594 0
M  V30 16605 N 1532.79 1.52222 -0.408187 0
M  V30 16606 C 1534.04 2.01404 0.167574 0
M  V30 16607 C 1534.36 1.29572 1.45726 0
M  V30 16608 O 1533.63 0.421363 1.91315 0
M  V30 16609 H 1532.21 0.744174 0.0649156 0
M  V30 16610 H 1534.87 1.87148 -0.544212 0
M  V30 16611 H 1533.97 3.09966 0.36436 0
M  V30 16612 N 1534.27 0.138579 1.5699 0
M  V30 16613 C 1535.2 -0.842105 2.12094 0
M  V30 16614 C 1536.18 -1.24798 1.04232 0
M  V30 16615 O 1537.36 -1.34557 1.3201 0
M  V30 16616 C 1534.49 -2.1296 2.63373 0
M  V30 16617 C 1533.54 -1.8703 3.83304 0
M  V30 16618 S 1534.37 -1.06889 5.24724 0
M  V30 16619 C 1535.52 -2.36776 5.79386 0
M  V30 16620 H 1535.76 -0.373475 2.94945 0
M  V30 16621 H 1533.29 -0.0755566 1.54215 0
M  V30 16622 H 1535.25 -2.86927 2.9357 0
M  V30 16623 H 1533.91 -2.56939 1.80668 0
M  V30 16624 H 1533.1 -2.82478 4.17399 0
M  V30 16625 H 1532.7 -1.21176 3.53825 0
M  V30 16626 H 1535 -3.32486 5.90304 0
M  V30 16627 H 1535.94 -2.07197 6.77108 0
M  V30 16628 H 1536.35 -2.47039 5.07575 0
M  V30 16629 N 1535.75 -1.57019 -0.13521 0
M  V30 16630 C 1536.71 -1.98229 -1.15056 0
M  V30 16631 C 1537.71 -0.870295 -1.35213 0
M  V30 16632 O 1538.9 -1.13668 -1.32005 0
M  V30 16633 C 1536.03 -2.30844 -2.50846 0
M  V30 16634 H 1537.22 -2.89123 -0.796744 0
M  V30 16635 H 1534.78 -1.51636 -0.378962 0
M  V30 16636 H 1535.51 -1.42779 -2.91178 0
M  V30 16637 H 1535.3 -3.11931 -2.37574 0
M  V30 16638 H 1536.79 -2.63524 -3.23952 0
M  V30 16639 N 1537.22 0.404919 -1.52309 0
M  V30 16640 C 1538.64 0.983553 -1.58692 0
M  V30 16641 C 1538.99 1.9143 -0.429993 0
M  V30 16642 O 1538.11 2.11689 0.449088 0
M  V30 16643 C 1538.71 1.79059 -2.87617 0
M  V30 16644 C 1537.27 2.31918 -2.96464 0
M  V30 16645 C 1536.41 1.12018 -2.53667 0
M  V30 16646 H 1539.36 0.185007 -1.57618 0
M  V30 16647 H 1539.38 2.64836 -2.73207 0
M  V30 16648 H 1538.9 1.11291 -3.71801 0
M  V30 16649 H 1537 3.03044 -2.16783 0
M  V30 16650 H 1537.11 2.62495 -4.00791 0
M  V30 16651 H 1535.47 1.47542 -2.07614 0
M  V30 16652 H 1536.26 0.458111 -3.4023 0
M  V30 16653 N 1538.7 1.43003 0.662408 0
M  V30 16654 C 1539.93 1.47341 1.44825 0
M  V30 16655 C 1540.34 0.0870204 1.89 0
M  V30 16656 O 1539.68 -0.911158 1.59511 0
M  V30 16657 C 1539.75 2.34882 2.7216 0
M  V30 16658 C 1539.41 3.82567 2.49983 0
M  V30 16659 C 1540.41 4.73909 2.13791 0
M  V30 16660 C 1538.09 4.26962 2.64592 0
M  V30 16661 C 1540.09 6.07639 1.92493 0
M  V30 16662 C 1537.77 5.60748 2.4291 0
M  V30 16663 C 1538.77 6.50903 2.06915 0
M  V30 16664 O 1538.46 7.82217 1.85451 0
M  V30 16665 H 1538.19 0.502932 0.451703 0
M  V30 16666 H 1540.74 1.88312 0.820224 0
M  V30 16667 H 1538.97 1.88782 3.37488 0
M  V30 16668 H 1540.66 2.3053 3.34082 0
M  V30 16669 H 1541.43 4.40892 2.02088 0
M  V30 16670 H 1537.31 3.5707 2.91586 0
M  V30 16671 H 1540.85 6.77971 1.64321 0
M  V30 16672 H 1536.75 5.93335 2.54212 0
M  V30 16673 H 1537.52 7.93702 1.9995 0
M  V30 16674 N 1540.18 -0.899904 1.29381 0
M  V30 16675 C 1541.09 -2.03699 1.16378 0
M  V30 16676 C 1542.11 -1.73782 0.0870792 0
M  V30 16677 O 1543.28 -1.99167 0.299109 0
M  V30 16678 C 1540.35 -3.36341 0.841166 0
M  V30 16679 C 1539.41 -3.79778 2.00168 0
M  V30 16680 C 1538.64 -5.0609 1.69437 0
M  V30 16681 O 1538.86 -5.67073 0.615212 0
M  V30 16682 O 1537.8 -5.45574 2.54229 0
M  V30 16683 H 1541.62 -2.17592 2.11866 0
M  V30 16684 H 1539.21 -1.02353 1.08831 0
M  V30 16685 H 1541.09 -4.15946 0.675803 0
M  V30 16686 H 1539.77 -3.23591 -0.0839376 0
M  V30 16687 H 1538.67 -3.00941 2.22229 0
M  V30 16688 H 1540.01 -3.97111 2.90798 0
M  V30 16689 N 1541.66 -1.11854 -1.11024 0
M  V30 16690 C 1542.59 -0.803129 -2.19253 0
M  V30 16691 C 1543.57 0.230417 -1.68532 0
M  V30 16692 O 1544.75 0.0929421 -1.93977 0
M  V30 16693 C 1541.88 -0.250265 -3.46397 0
M  V30 16694 C 1540.84 -1.21617 -4.10357 0
M  V30 16695 C 1540.16 -0.523821 -5.32128 0
M  V30 16696 C 1541.46 -2.56852 -4.54779 0
M  V30 16697 H 1543.16 -1.7081 -2.45895 0
M  V30 16698 H 1540.7 -0.822712 -1.18184 0
M  V30 16699 H 1542.66 -0.0173732 -4.21396 0
M  V30 16700 H 1541.38 0.690018 -3.19228 0
M  V30 16701 H 1540.04 -1.43477 -3.37357 0
M  V30 16702 H 1539.69 0.421408 -5.01232 0
M  V30 16703 H 1539.39 -1.16809 -5.75873 0
M  V30 16704 H 1540.91 -0.299823 -6.09863 0
M  V30 16705 H 1542.33 -2.39056 -5.21081 0
M  V30 16706 H 1540.72 -3.17301 -5.09353 0
M  V30 16707 H 1541.79 -3.15751 -3.68007 0
M  V30 16708 N 1543.14 1.28707 -0.909517 0
M  V30 16709 C 1544.07 2.29845 -0.411552 0
M  V30 16710 C 1545.05 1.62001 0.518615 0
M  V30 16711 O 1546.23 1.89442 0.427252 0
M  V30 16712 C 1543.36 3.45501 0.353013 0
M  V30 16713 C 1542.32 4.25213 -0.487625 0
M  V30 16714 C 1541.64 5.33164 0.405026 0
M  V30 16715 C 1542.94 4.9237 -1.74268 0
M  V30 16716 H 1544.64 2.71746 -1.25676 0
M  V30 16717 H 1542.18 1.30639 -0.605759 0
M  V30 16718 H 1544.14 4.15338 0.712191 0
M  V30 16719 H 1542.86 3.02469 1.23209 0
M  V30 16720 H 1541.52 3.57098 -0.829265 0
M  V30 16721 H 1541.17 4.86375 1.28252 0
M  V30 16722 H 1540.87 5.87399 -0.153811 0
M  V30 16723 H 1542.39 6.0585 0.760179 0
M  V30 16724 H 1543.8 5.5459 -1.45266 0
M  V30 16725 H 1542.2 5.56581 -2.2436 0
M  V30 16726 H 1543.27 4.171 -2.47297 0
M  V30 16727 N 1544.61 0.673042 1.42506 0
M  V30 16728 C 1545.58 0.00283156 2.292 0
M  V30 16729 C 1546.58 -0.73077 1.43235 0
M  V30 16730 O 1547.77 -0.569037 1.64644 0
M  V30 16731 C 1544.9 -1.00666 3.25698 0
M  V30 16732 H 1546.09 0.765869 2.89956 0
M  V30 16733 H 1543.65 0.435301 1.50116 0
M  V30 16734 H 1544.38 -1.79825 2.69877 0
M  V30 16735 H 1544.17 -0.484043 3.89101 0
M  V30 16736 H 1545.66 -1.47409 3.90718 0
M  V30 16737 N 1546.09 -1.52004 0.416254 0
M  V30 16738 C 1547.02 -2.24913 -0.441208 0
M  V30 16739 C 1548.04 -1.28139 -1.0042 0
M  V30 16740 O 1549.23 -1.54037 -0.901928 0
M  V30 16741 C 1546.33 -2.97298 -1.62688 0
M  V30 16742 C 1545.5 -4.20999 -1.18652 0
M  V30 16743 C 1544.56 -4.76146 -2.2399 0
M  V30 16744 O 1543.58 -5.38541 -1.84288 0
M  V30 16745 N 1544.79 -4.58338 -3.56239 0
M  V30 16746 H 1547.55 -2.99137 0.183576 0
M  V30 16747 H 1545.11 -1.60051 0.244008 0
M  V30 16748 H 1547.1 -3.31082 -2.32737 0
M  V30 16749 H 1545.67 -2.26216 -2.15744 0
M  V30 16750 H 1544.89 -3.92948 -0.313877 0
M  V30 16751 H 1546.18 -5.01318 -0.869365 0
M  V30 16752 H 1545.58 -4.08592 -3.91241 0
M  V30 16753 H 1544.14 -4.96542 -4.22244 0
M  V30 16754 N 1547.57 -0.146903 -1.56914 0
M  V30 16755 C 1548.5 0.823803 -2.13883 0
M  V30 16756 C 1549.52 1.21081 -1.08826 0
M  V30 16757 O 1550.7 1.15491 -1.36103 0
M  V30 16758 C 1547.8 2.11686 -2.64655 0
M  V30 16759 C 1546.98 1.89723 -3.94112 0
M  V30 16760 C 1546.04 3.03016 -4.30195 0
M  V30 16761 O 1545.06 2.74711 -4.9852 0
M  V30 16762 N 1546.26 4.30187 -3.89768 0
M  V30 16763 H 1549.03 0.336904 -2.978 0
M  V30 16764 H 1546.59 0.0366704 -1.61858 0
M  V30 16765 H 1548.58 2.86525 -2.85807 0
M  V30 16766 H 1547.15 2.51639 -1.85464 0
M  V30 16767 H 1546.37 0.989208 -3.81587 0
M  V30 16768 H 1547.66 1.72387 -4.78707 0
M  V30 16769 H 1547.06 4.56051 -3.34715 0
M  V30 16770 H 1545.62 5.01807 -4.15972 0
M  V30 16771 N 1549.05 1.57088 0.126881 0
M  V30 16772 C 1549.96 2.03053 1.17502 0
M  V30 16773 C 1550.97 0.949484 1.45811 0
M  V30 16774 O 1552.15 1.26043 1.57083 0
M  V30 16775 C 1549.22 2.41897 2.48368 0
M  V30 16776 C 1548.28 3.64047 2.27527 0
M  V30 16777 C 1547.51 4.01029 3.52153 0
M  V30 16778 O 1547.73 3.38441 4.59145 0
M  V30 16779 O 1546.67 4.94174 3.43622 0
M  V30 16780 H 1550.49 2.92568 0.814733 0
M  V30 16781 H 1548.08 1.45547 0.3371 0
M  V30 16782 H 1549.96 2.67652 3.25485 0
M  V30 16783 H 1548.63 1.55531 2.83887 0
M  V30 16784 H 1547.54 3.43452 1.48294 0
M  V30 16785 H 1548.87 4.51093 1.96916 0
M  V30 16786 N 1550.53 -0.396836 1.52522 0
M  V30 16787 C 1551.75 -1.16857 1.71345 0
M  V30 16788 C 1552.18 -1.83178 0.427465 0
M  V30 16789 O 1551.53 -1.7051 -0.616123 0
M  V30 16790 C 1551.58 -2.19817 2.85855 0
M  V30 16791 O 1550.69 -3.26233 2.52281 0
M  V30 16792 H 1550.03 -0.340554 0.570017 0
M  V30 16793 H 1552.56 -0.463532 1.9928 0
M  V30 16794 H 1552.57 -2.63944 3.11123 0
M  V30 16795 H 1551.24 -1.70931 3.79151 0
M  V30 16796 H 1549.82 -2.87299 2.37726 0
M  V30 16797 N 1552.01 -1.43353 -0.654814 0
M  V30 16798 C 1552.94 -1.51194 -1.7794 0
M  V30 16799 C 1553.92 -0.366747 -1.66099 0
M  V30 16800 O 1555.1 -0.58375 -1.85219 0
M  V30 16801 C 1552.23 -1.43298 -3.16359 0
M  V30 16802 C 1551.19 -2.5605 -3.42961 0
M  V30 16803 C 1550.51 -2.33208 -4.81163 0
M  V30 16804 C 1551.81 -3.98303 -3.37864 0
M  V30 16805 H 1553.51 -2.4532 -1.71635 0
M  V30 16806 H 1551.05 -1.18072 -0.824319 0
M  V30 16807 H 1553 -1.47388 -3.94784 0
M  V30 16808 H 1551.73 -0.456761 -3.2339 0
M  V30 16809 H 1550.39 -2.5131 -2.66906 0
M  V30 16810 H 1550.04 -1.33833 -4.84869 0
M  V30 16811 H 1549.74 -3.08789 -4.99923 0
M  V30 16812 H 1551.26 -2.39079 -5.61848 0
M  V30 16813 H 1552.67 -4.04538 -4.06229 0
M  V30 16814 H 1551.07 -4.73897 -3.6816 0
M  V30 16815 H 1552.14 -4.23552 -2.36075 0
M  V30 16816 N 1553.48 0.89303 -1.29857 0
M  V30 16817 C 1554.9 1.17496 -1.08013 0
M  V30 16818 C 1555.1 2.00829 0.164302 0
M  V30 16819 O 1554.16 2.37396 0.860194 0
M  V30 16820 C 1555.47 1.88944 -2.33924 0
M  V30 16821 C 1557.02 2.01742 -2.3931 0
M  V30 16822 C 1557.49 2.76601 -3.65042 0
M  V30 16823 N 1558.98 2.84152 -3.65803 0
M  V30 16824 C 1559.72 3.42628 -4.59776 0
M  V30 16825 N 1559.21 4.02218 -5.64086 0
M  V30 16826 N 1561.01 3.40366 -4.47334 0
M  V30 16827 H 1553.16 0.33719 -2.09706 0
M  V30 16828 H 1555.42 0.211899 -0.924014 0
M  V30 16829 H 1555.13 1.35151 -3.24695 0
M  V30 16830 H 1555 2.89379 -2.4195 0
M  V30 16831 H 1557.39 2.54708 -1.49022 0
M  V30 16832 H 1557.47 1.0042 -2.35265 0
M  V30 16833 H 1557.11 2.24309 -4.55684 0
M  V30 16834 H 1557.04 3.78283 -3.66346 0
M  V30 16835 H 1559.53 2.41835 -2.90386 0
M  V30 16836 H 1559.85 4.4488 -6.31903 0
M  V30 16837 H 1558.19 4.00661 -5.67887 0
M  V30 16838 H 1561.38 2.93035 -3.65031 0
M  V30 16839 H 1561.56 3.85644 -5.20752 0
M  V30 16840 N 1554.96 1.12442 1.10429 0
M  V30 16841 C 1556.21 0.874466 1.81758 0
M  V30 16842 C 1556.52 -0.601487 1.86122 0
M  V30 16843 O 1557.73 -0.968037 2.53656 0
M  V30 16844 C 1556.19 1.51478 3.2647 0
M  V30 16845 C 1555.79 3.02552 3.30403 0
M  V30 16846 C 1557.54 1.34511 4.02625 0
M  V30 16847 C 1555.44 3.59518 4.69575 0
M  V30 16848 H 1554.37 0.323494 0.681078 0
M  V30 16849 H 1557.03 1.35091 1.24188 0
M  V30 16850 H 1555.41 0.966 3.84037 0
M  V30 16851 H 1556.58 3.63924 2.82659 0
M  V30 16852 H 1554.9 3.18917 2.67733 0
M  V30 16853 H 1557.49 1.74492 5.05427 0
M  V30 16854 H 1557.84 0.288788 4.15297 0
M  V30 16855 H 1558.37 1.86311 3.51473 0
M  V30 16856 H 1555.11 4.6491 4.62103 0
M  V30 16857 H 1554.63 3.02922 5.17686 0
M  V30 16858 H 1556.31 3.58581 5.38543 0
M  V30 16859 N 1556.44 -1.28223 0.91633 0
M  V30 16860 C 1557.37 -2.26291 0.363986 0
M  V30 16861 C 1558.38 -1.54964 -0.498988 0
M  V30 16862 O 1559.57 -1.75726 -0.31345 0
M  V30 16863 C 1556.67 -3.35219 -0.498126 0
M  V30 16864 C 1555.85 -4.36054 0.34293 0
M  V30 16865 C 1554.91 -5.24232 -0.454688 0
M  V30 16866 O 1553.93 -5.69043 0.133649 0
M  V30 16867 N 1555.13 -5.53268 -1.75714 0
M  V30 16868 H 1557.9 -2.74323 1.20694 0
M  V30 16869 H 1555.46 -1.41731 0.782551 0
M  V30 16870 H 1557.45 -3.91148 -1.03852 0
M  V30 16871 H 1556.02 -2.86876 -1.2418 0
M  V30 16872 H 1555.24 -3.7955 1.06468 0
M  V30 16873 H 1556.53 -5.00444 0.918322 0
M  V30 16874 H 1555.93 -5.18698 -2.25762 0
M  V30 16875 H 1554.48 -6.11943 -2.2443 0
M  V30 16876 N 1557.92 -0.68059 -1.42147 0
M  V30 16877 C 1559.19 -0.133957 -1.95141 0
M  V30 16878 C 1559.57 1.3526 -1.62074 0
M  V30 16879 O 1558.92 2.09165 -0.919898 0
M  V30 16880 C 1559.13 -0.409266 -3.46592 0
M  V30 16881 C 1560.48 -0.328899 -4.23324 0
M  V30 16882 O 1561.5 -0.343337 -3.54541 0
M  V30 16883 O 1560.36 -0.276076 -5.45802 0
M  V30 16884 H 1557.46 -0.00623443 -0.826977 0
M  V30 16885 H 1560 -0.755719 -1.51944 0
M  V30 16886 H 1558.78 -1.43883 -3.63887 0
M  V30 16887 H 1558.4 0.244216 -3.96849 0
M  V30 16888 N 1559.4 1.51781 -0.424309 0
M  V30 16889 C 1560.63 2.06088 0.145337 0
M  V30 16890 C 1561.03 1.29297 1.38127 0
M  V30 16891 O 1560.38 0.342227 1.80484 0
M  V30 16892 C 1560.44 3.55333 0.545777 0
M  V30 16893 C 1560.1 4.53285 -0.581528 0
M  V30 16894 C 1561.1 4.99278 -1.44973 0
M  V30 16895 C 1558.78 4.96539 -0.758549 0
M  V30 16896 C 1560.78 5.87185 -2.47977 0
M  V30 16897 C 1558.47 5.84239 -1.79188 0
M  V30 16898 C 1559.46 6.29458 -2.65089 0
M  V30 16899 O 1559.15 7.15418 -3.6665 0
M  V30 16900 H 1558.88 0.675782 0.0171719 0
M  V30 16901 H 1561.44 1.96492 -0.598349 0
M  V30 16902 H 1559.67 3.62668 1.34197 0
M  V30 16903 H 1561.36 3.92215 1.04508 0
M  V30 16904 H 1562.12 4.66566 -1.32445 0
M  V30 16905 H 1558 4.60893 -0.0995452 0
M  V30 16906 H 1561.55 6.22401 -3.15059 0
M  V30 16907 H 1557.44 6.16365 -1.91742 0
M  V30 16908 H 1558.21 7.33566 -3.63074 0
M  V30 16909 N 1560.87 0.155222 1.56834 0
M  V30 16910 C 1562.12 -0.493826 1.96386 0
M  V30 16911 C 1562.45 -1.6433 1.04048 0
M  V30 16912 O 1561.7 -1.9557 0.0713123 0
M  V30 16913 C 1562 -1.03346 3.42132 0
M  V30 16914 C 1561.67 -0.00157215 4.509 0
M  V30 16915 C 1560.33 0.282068 4.80373 0
M  V30 16916 C 1562.68 0.699684 5.16482 0
M  V30 16917 C 1560.01 1.27263 5.72731 0
M  V30 16918 C 1562.36 1.67912 6.09908 0
M  V30 16919 C 1561.03 1.97037 6.37756 0
M  V30 16920 H 1560.3 -0.180704 0.718629 0
M  V30 16921 H 1562.94 0.243789 1.89942 0
M  V30 16922 H 1561.25 -1.84857 3.45449 0
M  V30 16923 H 1562.95 -1.54437 3.70068 0
M  V30 16924 H 1559.54 -0.232824 4.27967 0
M  V30 16925 H 1563.72 0.493751 4.93838 0
M  V30 16926 H 1558.98 1.50464 5.92597 0
M  V30 16927 H 1563.15 2.22796 6.59799 0
M  V30 16928 H 1560.78 2.73944 7.09125 0
M  V30 16929 N 1562.35 -1.57153 -0.118549 0
M  V30 16930 C 1563.58 -1.89434 -0.844355 0
M  V30 16931 C 1564 -0.747203 -1.72622 0
M  V30 16932 O 1563.36 0.302252 -1.78763 0
M  V30 16933 C 1563.41 -3.20466 -1.65331 0
M  V30 16934 O 1562.51 -3.06403 -2.76027 0
M  V30 16935 H 1561.85 -0.621601 -0.23347 0
M  V30 16936 H 1564.38 -2.04351 -0.100811 0
M  V30 16937 H 1564.39 -3.53197 -2.04245 0
M  V30 16938 H 1563.07 -4.03551 -1.00594 0
M  V30 16939 H 1561.64 -2.85139 -2.40312 0
M  V30 16940 N 1563.83 0.388742 -1.5273 0
M  V30 16941 C 1564.79 1.45759 -1.76881 0
M  V30 16942 C 1565.79 1.47565 -0.63884 0
M  V30 16943 O 1566.98 1.48731 -0.906895 0
M  V30 16944 C 1564.11 2.85045 -1.86981 0
M  V30 16945 H 1565.31 1.25629 -2.72319 0
M  V30 16946 H 1562.86 0.620497 -1.43456 0
M  V30 16947 H 1563.6 3.1052 -0.935296 0
M  V30 16948 H 1563.38 2.85136 -2.69147 0
M  V30 16949 H 1564.87 3.62492 -2.07338 0
M  V30 16950 N 1565.31 1.43698 0.647203 0
M  V30 16951 C 1566.56 1.44918 1.40292 0
M  V30 16952 C 1566.87 0.0794243 1.95439 0
M  V30 16953 O 1568.08 -0.0309052 2.71482 0
M  V30 16954 C 1566.53 2.55052 2.53923 0
M  V30 16955 C 1566.14 3.98161 2.05357 0
M  V30 16956 C 1567.88 2.65473 3.31246 0
M  V30 16957 C 1565.79 4.99749 3.16235 0
M  V30 16958 H 1564.72 0.539106 0.527144 0
M  V30 16959 H 1567.37 1.69708 0.697951 0
M  V30 16960 H 1565.75 2.23473 3.26919 0
M  V30 16961 H 1566.93 4.3923 1.39333 0
M  V30 16962 H 1565.24 3.91839 1.40896 0
M  V30 16963 H 1567.84 3.38546 4.13873 0
M  V30 16964 H 1568.18 1.70745 3.79673 0
M  V30 16965 H 1568.72 2.96383 2.65334 0
M  V30 16966 H 1565.45 5.96051 2.7277 0
M  V30 16967 H 1564.97 4.63288 3.80952 0
M  V30 16968 H 1566.65 5.22725 3.81271 0
M  V30 16969 N 1566.79 -0.886131 1.30328 0
M  V30 16970 C 1568.2 -1.45328 1.17203 0
M  V30 16971 C 1568.55 -1.94874 -0.227719 0
M  V30 16972 O 1567.67 -1.84901 -1.12431 0
M  V30 16973 C 1568.27 -2.64149 2.12157 0
M  V30 16974 C 1566.83 -3.16958 2.03014 0
M  V30 16975 C 1565.97 -1.89651 2.02306 0
M  V30 16976 H 1568.93 -0.696177 1.42615 0
M  V30 16977 H 1568.95 -3.40325 1.70173 0
M  V30 16978 H 1568.46 -2.28058 3.14024 0
M  V30 16979 H 1566.56 -3.57709 1.04285 0
M  V30 16980 H 1566.67 -3.80336 2.91344 0
M  V30 16981 H 1565.04 -2.07933 1.47091 0
M  V30 16982 H 1565.82 -1.5582 3.05901 0
M  V30 16983 N 1568.26 -1.13026 -1.09832 0
M  V30 16984 C 1569.2 -0.761606 -2.16176 0
M  V30 16985 C 1570.21 0.214709 -1.61378 0
M  V30 16986 O 1571.4 -0.00487178 -1.78499 0
M  V30 16987 C 1568.5 -0.107513 -3.38729 0
M  V30 16988 C 1567.67 -1.11487 -4.22953 0
M  V30 16989 C 1566.73 -0.487243 -5.23939 0
M  V30 16990 O 1565.76 -1.14605 -5.57543 0
M  V30 16991 N 1566.96 0.742571 -5.75731 0
M  V30 16992 H 1569.72 -1.67669 -2.48409 0
M  V30 16993 H 1567.28 -1.0227 -1.25509 0
M  V30 16994 H 1569.28 0.324507 -4.03397 0
M  V30 16995 H 1567.85 0.710438 -3.0442 0
M  V30 16996 H 1567.07 -1.72432 -3.54487 0
M  V30 16997 H 1568.35 -1.79584 -4.76053 0
M  V30 16998 H 1567.75 1.29667 -5.50639 0
M  V30 16999 H 1566.31 1.11731 -6.42152 0
M  V30 17000 N 1569.74 1.27735 -0.923117 0
M  V30 17001 C 1570.69 2.26997 -0.417254 0
M  V30 17002 C 1571.66 1.57968 0.513364 0
M  V30 17003 O 1572.84 1.8581 0.433521 0
M  V30 17004 C 1569.98 3.43537 0.328089 0
M  V30 17005 C 1569.1 4.27291 -0.636112 0
M  V30 17006 C 1568.23 5.31044 0.128614 0
M  V30 17007 C 1567.27 6.06466 -0.828592 0
M  V30 17008 N 1566.41 7.02033 -0.0967858 0
M  V30 17009 H 1571.25 2.69643 -1.26872 0
M  V30 17010 H 1568.79 1.32597 -0.6369 0
M  V30 17011 H 1570.74 4.0991 0.776504 0
M  V30 17012 H 1569.37 3.01855 1.14383 0
M  V30 17013 H 1568.43 3.60875 -1.20306 0
M  V30 17014 H 1569.74 4.79679 -1.36784 0
M  V30 17015 H 1568.89 6.03345 0.637159 0
M  V30 17016 H 1567.63 4.79448 0.893341 0
M  V30 17017 H 1566.64 5.33008 -1.34843 0
M  V30 17018 H 1567.86 6.60151 -1.59303 0
M  V30 17019 H 1565.81 6.52774 0.649779 0
M  V30 17020 H 1565.72 7.52087 -0.768171 0
M  V30 17021 H 1566.99 7.78517 0.391257 0
M  V30 17022 N 1571.22 0.688118 1.41784 0
M  V30 17023 C 1572.15 0.0323199 2.33478 0
M  V30 17024 C 1573.13 -0.775145 1.51412 0
M  V30 17025 O 1574.32 -0.72962 1.79973 0
M  V30 17026 C 1571.45 -0.910141 3.35162 0
M  V30 17027 C 1570.4 -0.210312 4.27483 0
M  V30 17028 C 1569.73 -1.26662 5.19481 0
M  V30 17029 C 1571.03 0.918839 5.14154 0
M  V30 17030 H 1572.72 0.798138 2.88566 0
M  V30 17031 H 1570.27 0.385262 1.38751 0
M  V30 17032 H 1572.22 -1.3781 3.98229 0
M  V30 17033 H 1570.94 -1.70754 2.78408 0
M  V30 17034 H 1569.6 0.237544 3.6583 0
M  V30 17035 H 1569.25 -2.05635 4.59046 0
M  V30 17036 H 1568.95 -0.803416 5.82082 0
M  V30 17037 H 1570.47 -1.73524 5.85424 0
M  V30 17038 H 1571.89 0.531499 5.70831 0
M  V30 17039 H 1570.29 1.30867 5.85657 0
M  V30 17040 H 1571.36 1.7618 4.51762 0
M  V30 17041 N 1572.7 -1.51554 0.432352 0
M  V30 17042 C 1573.63 -2.25369 -0.417328 0
M  V30 17043 C 1574.64 -1.29197 -0.990551 0
M  V30 17044 O 1575.83 -1.54985 -0.885539 0
M  V30 17045 C 1572.93 -2.99006 -1.59526 0
M  V30 17046 C 1572.11 -4.22234 -1.1418 0
M  V30 17047 C 1571.16 -4.78495 -2.18928 0
M  V30 17048 O 1570.19 -5.40465 -1.78566 0
M  V30 17049 N 1571.39 -4.62091 -3.51358 0
M  V30 17050 H 1574.16 -2.98926 0.215294 0
M  V30 17051 H 1571.72 -1.59783 0.26097 0
M  V30 17052 H 1573.71 -3.33532 -2.29212 0
M  V30 17053 H 1572.28 -2.28491 -2.13332 0
M  V30 17054 H 1571.5 -3.93259 -0.272182 0
M  V30 17055 H 1572.79 -5.02212 -0.816145 0
M  V30 17056 H 1572.19 -4.12718 -3.86885 0
M  V30 17057 H 1570.74 -5.00992 -4.16953 0
M  V30 17058 N 1574.18 -0.163538 -1.56749 0
M  V30 17059 C 1575.14 0.755801 -2.1638 0
M  V30 17060 C 1576.14 1.16359 -1.10982 0
M  V30 17061 O 1577.33 1.08182 -1.36537 0
M  V30 17062 C 1574.46 2.02775 -2.74035 0
M  V30 17063 H 1575.65 0.23681 -2.98964 0
M  V30 17064 H 1573.21 0.0859925 -1.56063 0
M  V30 17065 H 1573.94 2.59002 -1.95163 0
M  V30 17066 H 1573.73 1.74439 -3.5116 0
M  V30 17067 H 1575.22 2.684 -3.19923 0
M  V30 17068 N 1575.65 1.57214 0.110213 0
M  V30 17069 C 1576.59 1.97641 1.16064 0
M  V30 17070 C 1577.6 0.876886 1.37166 0
M  V30 17071 O 1578.79 1.15512 1.36086 0
M  V30 17072 C 1575.89 2.2671 2.51904 0
M  V30 17073 C 1575.06 3.58015 2.51285 0
M  V30 17074 C 1574.12 3.75195 3.68938 0
M  V30 17075 O 1573.15 4.47214 3.5212 0
M  V30 17076 N 1574.35 3.14627 4.87842 0
M  V30 17077 H 1577.11 2.88358 0.816679 0
M  V30 17078 H 1574.67 1.59108 0.299383 0
M  V30 17079 H 1576.67 2.35411 3.29187 0
M  V30 17080 H 1575.24 1.42076 2.78448 0
M  V30 17081 H 1574.46 3.60422 1.59655 0
M  V30 17082 H 1575.74 4.44303 2.47936 0
M  V30 17083 H 1575.14 2.56101 5.0441 0
M  V30 17084 H 1573.7 3.28836 5.6277 0
M  V30 17085 N 1577.13 -0.380637 1.52934 0
M  V30 17086 C 1578.38 -1.12306 1.69585 0
M  V30 17087 C 1578.73 -1.87427 0.434626 0
M  V30 17088 O 1578.03 -1.82864 -0.571955 0
M  V30 17089 C 1578.22 -2.1227 2.87535 0
M  V30 17090 C 1578.05 -1.46969 4.25006 0
M  V30 17091 C 1576.82 -1.23021 4.90096 0
M  V30 17092 C 1579.02 -0.915348 5.06089 0
M  V30 17093 N 1577 -0.539124 6.11528 0
M  V30 17094 C 1578.37 -0.352792 6.18995 0
M  V30 17095 C 1580.43 -0.81257 4.91225 0
M  V30 17096 C 1579.13 0.302501 7.18664 0
M  V30 17097 C 1581.15 -0.171084 5.91152 0
M  V30 17098 C 1580.52 0.380664 7.03371 0
M  V30 17099 H 1576.62 -0.39663 0.67395 0
M  V30 17100 H 1579.2 -0.411454 1.90303 0
M  V30 17101 H 1577.37 -2.80759 2.68382 0
M  V30 17102 H 1579.1 -2.7908 2.93081 0
M  V30 17103 H 1575.86 -1.50746 4.48969 0
M  V30 17104 H 1576.28 -0.209381 6.76676 0
M  V30 17105 H 1580.92 -1.22493 4.04667 0
M  V30 17106 H 1578.64 0.72685 8.04825 0
M  V30 17107 H 1582.23 -0.0926928 5.81726 0
M  V30 17108 H 1581.11 0.8692 7.79368 0
M  V30 17109 N 1578.61 -1.44039 -0.639573 0
M  V30 17110 C 1579.86 -1.4566 -1.39521 0
M  V30 17111 C 1580.17 -0.0897878 -1.95394 0
M  V30 17112 O 1581.38 0.0165074 -2.71495 0
M  V30 17113 C 1579.83 -2.56395 -2.52566 0
M  V30 17114 C 1579.44 -3.99245 -2.03243 0
M  V30 17115 C 1581.19 -2.67226 -3.29834 0
M  V30 17116 C 1579.09 -5.01419 -3.1358 0
M  V30 17117 H 1578.02 -0.541894 -0.524277 0
M  V30 17118 H 1580.67 -1.70076 -0.688941 0
M  V30 17119 H 1579.06 -2.25204 -3.25729 0
M  V30 17120 H 1580.23 -4.39963 -1.37002 0
M  V30 17121 H 1578.55 -3.9258 -1.38816 0
M  V30 17122 H 1581.14 -3.40736 -4.12072 0
M  V30 17123 H 1581.49 -1.72756 -3.78763 0
M  V30 17124 H 1582.02 -2.97786 -2.63758 0
M  V30 17125 H 1578.76 -5.97489 -2.69605 0
M  V30 17126 H 1578.28 -4.65301 -3.7849 0
M  V30 17127 H 1579.96 -5.2474 -3.78493 0
M  V30 17128 N 1580.09 0.879207 -1.30796 0
M  V30 17129 C 1581.32 1.66208 -1.22713 0
M  V30 17130 C 1581.73 1.88014 0.211506 0
M  V30 17131 O 1581.07 1.43183 1.15084 0
M  V30 17132 C 1581.13 3.05733 -1.89123 0
M  V30 17133 C 1580.8 3.07075 -3.38458 0
M  V30 17134 C 1581.79 2.85709 -4.34358 0
M  V30 17135 C 1579.48 3.28489 -3.8 0
M  V30 17136 C 1581.47 2.85722 -5.69773 0
M  V30 17137 C 1579.16 3.28131 -5.15532 0
M  V30 17138 C 1580.16 3.06773 -6.10229 0
M  V30 17139 O 1579.84 3.06243 -7.43283 0
M  V30 17140 H 1579.58 0.525224 -0.425577 0
M  V30 17141 H 1582.13 1.10636 -1.73057 0
M  V30 17142 H 1580.36 3.62993 -1.33316 0
M  V30 17143 H 1582.05 3.66199 -1.7508 0
M  V30 17144 H 1582.82 2.68956 -4.03593 0
M  V30 17145 H 1578.69 3.44147 -3.06731 0
M  V30 17146 H 1582.24 2.6897 -6.43662 0
M  V30 17147 H 1578.14 3.44422 -5.45934 0
M  V30 17148 H 1578.9 3.22369 -7.52343 0
M  V30 17149 N 1581.57 1.13606 1.09231 0
M  V30 17150 C 1582.8 0.920958 1.84938 0
M  V30 17151 C 1583.21 -0.533706 1.81516 0
M  V30 17152 O 1582.55 -1.38127 1.21105 0
M  V30 17153 C 1582.61 1.33357 3.33851 0
M  V30 17154 C 1582.27 2.80206 3.61017 0
M  V30 17155 C 1583.27 3.78356 3.56571 0
M  V30 17156 C 1580.96 3.17415 3.89298 0
M  V30 17157 C 1582.95 5.11726 3.8002 0
M  V30 17158 C 1580.64 4.50963 4.12402 0
M  V30 17159 C 1581.64 5.47928 4.07755 0
M  V30 17160 O 1581.32 6.79066 4.3026 0
M  V30 17161 H 1581.06 0.328256 0.590952 0
M  V30 17162 H 1583.61 1.51298 1.38917 0
M  V30 17163 H 1581.84 0.684821 3.80588 0
M  V30 17164 H 1583.53 1.09061 3.90974 0
M  V30 17165 H 1584.29 3.50956 3.34746 0
M  V30 17166 H 1580.17 2.42542 3.92039 0
M  V30 17167 H 1583.72 5.87399 3.76309 0
M  V30 17168 H 1579.61 4.78088 4.33708 0
M  V30 17169 H 1580.38 6.85199 4.47711 0
M  V30 17170 N 1583.05 -1.27244 0.929878 0
M  V30 17171 C 1583.99 -2.26773 0.429287 0
M  V30 17172 C 1584.96 -1.58238 -0.50498 0
M  V30 17173 O 1586.15 -1.86037 -0.423661 0
M  V30 17174 C 1583.29 -3.43706 -0.309865 0
M  V30 17175 C 1582.4 -4.26948 0.658764 0
M  V30 17176 C 1581.54 -5.31105 -0.10045 0
M  V30 17177 C 1580.57 -6.06018 0.860743 0
M  V30 17178 N 1579.71 -7.01972 0.134015 0
M  V30 17179 H 1584.55 -2.68967 1.283 0
M  V30 17180 H 1582.09 -1.32257 0.643923 0
M  V30 17181 H 1584.05 -4.10316 -0.754754 0
M  V30 17182 H 1582.68 -3.02457 -1.1278 0
M  V30 17183 H 1581.73 -3.60232 1.22218 0
M  V30 17184 H 1583.04 -4.78946 1.39326 0
M  V30 17185 H 1582.19 -6.03674 -0.605153 0
M  V30 17186 H 1580.93 -4.79915 -0.867902 0
M  V30 17187 H 1579.94 -5.32285 1.37668 0
M  V30 17188 H 1581.16 -6.59297 1.62801 0
M  V30 17189 H 1579.11 -6.53109 -0.615152 0
M  V30 17190 H 1579.03 -7.51669 0.808045 0
M  V30 17191 H 1580.29 -7.78714 -0.349964 0
M  V30 17192 N 1584.52 -0.695628 -1.41417 0
M  V30 17193 C 1585.8 -0.154646 -1.94988 0
M  V30 17194 C 1586.18 1.33534 -1.63499 0
M  V30 17195 O 1585.53 2.08178 -0.942031 0
M  V30 17196 C 1585.74 -0.446004 -3.46138 0
M  V30 17197 C 1587.09 -0.37378 -4.22952 0
M  V30 17198 O 1588.11 -0.380921 -3.54157 0
M  V30 17199 O 1586.97 -0.33395 -5.45479 0
M  V30 17200 H 1584.06 -0.0150053 -0.826864 0
M  V30 17201 H 1586.61 -0.771792 -1.51134 0
M  V30 17202 H 1585.38 -1.47734 -3.6234 0
M  V30 17203 H 1585 0.202111 -3.97086 0
M  V30 17204 N 1586 1.51322 -0.440383 0
M  V30 17205 C 1586.93 2.25587 0.40537 0
M  V30 17206 C 1587.95 1.29721 0.983686 0
M  V30 17207 O 1589.14 1.55453 0.877308 0
M  V30 17208 C 1586.24 2.99848 1.57938 0
M  V30 17209 C 1585.41 4.22834 1.11939 0
M  V30 17210 C 1584.47 4.79649 2.16387 0
M  V30 17211 O 1583.49 5.41405 1.75697 0
M  V30 17212 N 1584.7 4.63948 3.48902 0
M  V30 17213 H 1587.46 2.98807 -0.231143 0
M  V30 17214 H 1585.02 1.59642 -0.26944 0
M  V30 17215 H 1587.01 3.34743 2.2744 0
M  V30 17216 H 1585.58 2.29619 2.12117 0
M  V30 17217 H 1584.8 3.93398 0.251323 0
M  V30 17218 H 1586.09 5.02637 0.7895 0
M  V30 17219 H 1585.49 4.14764 3.84691 0
M  V30 17220 H 1584.05 5.03196 4.14291 0
M  V30 17221 N 1587.48 0.171848 1.5666 0
M  V30 17222 C 1588.43 -0.758237 2.17989 0
M  V30 17223 C 1589.4 -1.22654 1.12006 0
M  V30 17224 O 1590.58 -1.29461 1.40159 0
M  V30 17225 C 1587.72 -1.98189 2.82516 0
M  V30 17226 C 1586.83 -1.55711 4.02962 0
M  V30 17227 C 1585.97 -2.73447 4.55412 0
M  V30 17228 C 1585.01 -2.27462 5.68267 0
M  V30 17229 N 1584.15 -3.38293 6.15225 0
M  V30 17230 H 1588.99 -0.228467 2.97123 0
M  V30 17231 H 1586.52 -0.10104 1.46753 0
M  V30 17232 H 1588.48 -2.6996 3.18084 0
M  V30 17233 H 1587.11 -2.48536 2.05985 0
M  V30 17234 H 1586.16 -0.736126 3.7321 0
M  V30 17235 H 1587.47 -1.17957 4.84652 0
M  V30 17236 H 1586.63 -3.53374 4.93165 0
M  V30 17237 H 1585.37 -3.14462 3.7278 0
M  V30 17238 H 1584.37 -1.45982 5.30065 0
M  V30 17239 H 1585.6 -1.87505 6.52701 0
M  V30 17240 H 1583.54 -3.78882 5.35522 0
M  V30 17241 H 1583.46 -3.04633 6.91907 0
M  V30 17242 H 1584.73 -4.18503 6.57629 0
M  V30 17243 N 1588.96 -1.5727 -0.101874 0
M  V30 17244 C 1590.23 -1.76745 -0.837888 0
M  V30 17245 C 1590.61 -0.751766 -1.9726 0
M  V30 17246 O 1589.96 0.221046 -2.27428 0
M  V30 17247 C 1590.17 -3.22302 -1.33875 0
M  V30 17248 C 1591.52 -3.85292 -1.78425 0
M  V30 17249 O 1592.54 -3.2601 -1.43514 0
M  V30 17250 O 1591.4 -4.89526 -2.42953 0
M  V30 17251 H 1588.5 -0.724294 -0.399157 0
M  V30 17252 H 1591.04 -1.69491 -0.0842821 0
M  V30 17253 H 1589.82 -3.87756 -0.525434 0
M  V30 17254 H 1589.44 -3.34162 -2.15456 0
M  V30 17255 N 1590.44 0.372521 -1.53134 0
M  V30 17256 C 1591.38 1.45597 -1.79082 0
M  V30 17257 C 1592.35 1.5349 -0.63482 0
M  V30 17258 O 1593.54 1.69488 -0.876276 0
M  V30 17259 C 1590.68 2.8263 -1.98026 0
M  V30 17260 C 1589.79 2.83758 -3.25738 0
M  V30 17261 C 1588.93 4.12322 -3.34909 0
M  V30 17262 C 1587.96 4.07565 -4.5668 0
M  V30 17263 N 1587.1 5.27766 -4.63042 0
M  V30 17264 H 1591.94 1.22771 -2.71535 0
M  V30 17265 H 1589.48 0.595285 -1.34517 0
M  V30 17266 H 1591.44 3.62227 -2.06997 0
M  V30 17267 H 1590.07 3.0387 -1.08917 0
M  V30 17268 H 1589.12 1.96435 -3.25757 0
M  V30 17269 H 1590.43 2.76114 -4.15406 0
M  V30 17270 H 1589.58 5.00331 -3.43153 0
M  V30 17271 H 1588.32 4.22709 -2.43245 0
M  V30 17272 H 1587.33 3.17943 -4.48545 0
M  V30 17273 H 1588.55 3.98786 -5.49678 0
M  V30 17274 H 1586.5 5.38752 -3.74276 0
M  V30 17275 H 1586.42 5.22264 -5.46605 0
M  V30 17276 H 1587.68 6.17626 -4.75561 0
M  V30 17277 N 1591.91 1.44376 0.631925 0
M  V30 17278 C 1592.86 1.51181 1.74393 0
M  V30 17279 C 1593.83 0.359599 1.62161 0
M  V30 17280 O 1595.02 0.569725 1.82096 0
M  V30 17281 C 1592.16 1.46124 3.12637 0
M  V30 17282 C 1591.27 2.71714 3.35851 0
M  V30 17283 C 1590.4 2.58496 4.64062 0
M  V30 17284 C 1589.44 3.79252 4.80452 0
M  V30 17285 N 1588.58 3.64715 5.99939 0
M  V30 17286 H 1593.42 2.4619 1.67912 0
M  V30 17287 H 1590.96 1.22184 0.819108 0
M  V30 17288 H 1592.91 1.41183 3.92585 0
M  V30 17289 H 1591.54 0.546831 3.18135 0
M  V30 17290 H 1590.6 2.86845 2.49848 0
M  V30 17291 H 1591.91 3.61351 3.43841 0
M  V30 17292 H 1591.06 2.51383 5.5217 0
M  V30 17293 H 1589.8 1.66417 4.58428 0
M  V30 17294 H 1588.81 3.8675 3.90774 0
M  V30 17295 H 1590.03 4.72367 4.879 0
M  V30 17296 H 1587.98 2.75388 5.95397 0
M  V30 17297 H 1587.89 4.47969 6.08982 0
M  V30 17298 H 1589.16 3.61493 6.90611 0
M  V30 17299 N 1593.39 -0.872258 1.31261 0
M  V30 17300 C 1594.64 -1.62747 1.22004 0
M  V30 17301 C 1594.99 -1.91135 -0.220238 0
M  V30 17302 O 1594.29 -1.53024 -1.153 0
M  V30 17303 C 1594.48 -2.96524 1.9952 0
M  V30 17304 C 1594.31 -2.81198 3.50939 0
M  V30 17305 C 1593.08 -2.80506 4.20291 0
M  V30 17306 C 1595.28 -2.56222 4.45931 0
M  V30 17307 N 1593.26 -2.56205 5.57882 0
M  V30 17308 C 1594.63 -2.41163 5.71174 0
M  V30 17309 C 1596.68 -2.41548 4.35383 0
M  V30 17310 C 1595.39 -2.12923 6.87064 0
M  V30 17311 C 1597.41 -2.14695 5.51053 0
M  V30 17312 C 1596.78 -2.00423 6.75285 0
M  V30 17313 H 1592.87 -0.599977 0.501549 0
M  V30 17314 H 1595.46 -1.02681 1.65423 0
M  V30 17315 H 1593.63 -3.54599 1.58473 0
M  V30 17316 H 1595.36 -3.61315 1.82301 0
M  V30 17317 H 1592.12 -2.92804 3.7224 0
M  V30 17318 H 1592.54 -2.47032 6.30321 0
M  V30 17319 H 1597.18 -2.51311 3.40004 0
M  V30 17320 H 1594.9 -2.01897 7.82472 0
M  V30 17321 H 1598.49 -2.04145 5.44808 0
M  V30 17322 H 1597.37 -1.79938 7.63277 0
M  V30 17323 N 1594.87 -1.14184 -1.08627 0
M  V30 17324 C 1595.82 -0.826718 -2.15486 0
M  V30 17325 C 1596.79 0.214769 -1.64706 0
M  V30 17326 O 1597.97 0.0851909 -1.9061 0
M  V30 17327 C 1595.11 -0.307888 -3.43724 0
M  V30 17328 C 1594.22 -1.40941 -4.08362 0
M  V30 17329 C 1593.36 -0.848059 -5.24387 0
M  V30 17330 C 1592.4 -1.92741 -5.80962 0
M  V30 17331 N 1591.54 -1.3834 -6.88336 0
M  V30 17332 H 1596.38 -1.74198 -2.41783 0
M  V30 17333 H 1593.91 -0.869406 -1.18658 0
M  V30 17334 H 1595.87 0.0111149 -4.17199 0
M  V30 17335 H 1594.5 0.570488 -3.17719 0
M  V30 17336 H 1593.55 -1.84485 -3.3267 0
M  V30 17337 H 1594.86 -2.22485 -4.46433 0
M  V30 17338 H 1594.02 -0.480826 -6.04792 0
M  V30 17339 H 1592.76 -0.00163783 -4.877 0
M  V30 17340 H 1591.76 -2.30362 -4.99213 0
M  V30 17341 H 1592.99 -2.77738 -6.19708 0
M  V30 17342 H 1590.93 -0.559124 -6.53613 0
M  V30 17343 H 1590.85 -2.13524 -7.2522 0
M  V30 17344 H 1592.12 -1.044 -7.72477 0
M  V30 17345 N 1596.35 1.26749 -0.936613 0
M  V30 17346 C 1597.6 1.9358 -0.580605 0
M  V30 17347 C 1597.92 1.7389 0.882446 0
M  V30 17348 O 1597.19 1.09185 1.62652 0
M  V30 17349 H 1595.77 0.716363 -0.211739 0
M  V30 17350 H 1598.43 1.54281 -1.19095 0
M  V30 17351 H 1597.53 3.01819 -0.79448 0
M  V30 17352 N 1597.83 0.703118 1.41046 0
M  V30 17353 C 1599.24 0.311167 1.84089 0
M  V30 17354 C 1599.59 -1.15202 1.58818 0
M  V30 17355 O 1598.71 -1.88518 1.06254 0
M  V30 17356 C 1599.31 0.557986 3.34174 0
M  V30 17357 C 1597.87 0.219875 3.75757 0
M  V30 17358 C 1597.01 0.836543 2.64381 0
M  V30 17359 H 1599.97 0.903211 1.30491 0
M  V30 17360 H 1599.99 -0.180865 3.8007 0
M  V30 17361 H 1599.5 1.62298 3.52535 0
M  V30 17362 H 1597.6 -0.840559 3.62995 0
M  V30 17363 H 1597.71 0.680165 4.74247 0
M  V30 17364 H 1596.08 0.265547 2.53312 0
M  V30 17365 H 1596.86 1.90556 2.85558 0
M  V30 17366 N 1599.3 -1.51086 0.448402 0
M  V30 17367 C 1600.24 -2.24615 -0.402921 0
M  V30 17368 C 1601.22 -1.26994 -1.01544 0
M  V30 17369 O 1602.4 -1.56159 -1.05577 0
M  V30 17370 C 1599.53 -3.00504 -1.56253 0
M  V30 17371 C 1598.57 -4.1287 -1.06961 0
M  V30 17372 S 1599.41 -5.355 -0.00265176 0
M  V30 17373 C 1600.56 -6.14931 -1.16667 0
M  V30 17374 H 1600.79 -2.96475 0.221298 0
M  V30 17375 H 1598.33 -1.52631 0.23303 0
M  V30 17376 H 1600.29 -3.44824 -2.22726 0
M  V30 17377 H 1598.95 -2.28212 -2.15819 0
M  V30 17378 H 1598.14 -4.65288 -1.93708 0
M  V30 17379 H 1597.74 -3.70869 -0.48296 0
M  V30 17380 H 1600.03 -6.44688 -2.08286 0
M  V30 17381 H 1600.98 -7.04806 -0.682223 0
M  V30 17382 H 1601.38 -5.46601 -1.41024 0
M  V30 17383 N 1600.78 -0.180154 -1.56567 0
M  V30 17384 C 1602.2 0.175902 -1.58628 0
M  V30 17385 C 1602.4 1.62179 -1.19583 0
M  V30 17386 O 1601.45 2.35471 -0.911566 0
M  V30 17387 C 1602.77 -0.11292 -3.00488 0
M  V30 17388 C 1604.32 -0.051834 -3.12957 0
M  V30 17389 C 1604.79 -0.313764 -4.56924 0
M  V30 17390 N 1606.28 -0.261852 -4.62459 0
M  V30 17391 C 1607.02 -0.438573 -5.7172 0
M  V30 17392 N 1606.51 -0.674832 -6.89506 0
M  V30 17393 N 1608.31 -0.373864 -5.60855 0
M  V30 17394 H 1600.46 -1.12385 -1.80232 0
M  V30 17395 H 1602.72 -0.447459 -0.835754 0
M  V30 17396 H 1602.43 -1.11488 -3.33562 0
M  V30 17397 H 1602.3 0.591409 -3.72535 0
M  V30 17398 H 1604.69 0.940711 -2.79705 0
M  V30 17399 H 1604.77 -0.78901 -2.43327 0
M  V30 17400 H 1604.41 -1.30356 -4.90887 0
M  V30 17401 H 1604.34 0.444127 -5.24724 0
M  V30 17402 H 1606.83 -0.0852513 -3.77804 0
M  V30 17403 H 1607.15 -0.798891 -7.6866 0
M  V30 17404 H 1605.49 -0.711551 -6.91348 0
M  V30 17405 H 1608.68 -0.189815 -4.67715 0
M  V30 17406 H 1608.85 -0.515012 -6.4595 0
M  V30 17407 N 1602.26 1.57322 0.0935319 0
M  V30 17408 C 1603.51 1.86443 0.797919 0
M  V30 17409 C 1603.84 0.769491 1.78304 0
M  V30 17410 O 1603.11 -0.222383 1.93225 0
M  V30 17411 C 1603.4 3.26201 1.52528 0
M  V30 17412 C 1603.25 4.46325 0.558031 0
M  V30 17413 C 1604.57 3.63879 2.47548 0
M  V30 17414 H 1601.69 0.678136 0.288618 0
M  V30 17415 H 1604.33 1.899 0.0615161 0
M  V30 17416 H 1602.48 3.23385 2.15301 0
M  V30 17417 H 1604.15 4.61257 -0.0628154 0
M  V30 17418 H 1602.4 4.3361 -0.128462 0
M  V30 17419 H 1603.07 5.40845 1.10413 0
M  V30 17420 H 1605.54 3.6765 1.94866 0
M  V30 17421 H 1604.42 4.62598 2.95456 0
M  V30 17422 H 1604.68 2.92647 3.31376 0
M  V30 17423 N 1603.74 -0.364395 1.53329 0
M  V30 17424 C 1604.65 -1.47027 1.82812 0
M  V30 17425 C 1605.66 -1.58559 0.716598 0
M  V30 17426 O 1606.84 -1.7443 1.00678 0
M  V30 17427 C 1603.91 -2.82278 2.01295 0
M  V30 17428 C 1602.97 -2.80264 3.25193 0
M  V30 17429 C 1602.2 -4.09065 3.42785 0
M  V30 17430 O 1602.42 -5.0529 2.64648 0
M  V30 17431 O 1601.36 -4.14804 4.36144 0
M  V30 17432 H 1605.18 -1.25035 2.76767 0
M  V30 17433 H 1602.77 -0.554608 1.38724 0
M  V30 17434 H 1604.65 -3.62416 2.15017 0
M  V30 17435 H 1603.32 -3.04244 1.10531 0
M  V30 17436 H 1602.23 -1.9882 3.16893 0
M  V30 17437 H 1603.56 -2.63252 4.15884 0
M  V30 17438 N 1605.22 -1.44709 -0.62426 0
M  V30 17439 C 1606.45 -1.51129 -1.40867 0
M  V30 17440 C 1606.85 -0.1371 -1.88703 0
M  V30 17441 O 1606.2 0.868546 -1.6187 0
M  V30 17442 C 1606.26 -2.42015 -2.65836 0
M  V30 17443 C 1605.92 -3.89061 -2.39752 0
M  V30 17444 C 1606.92 -4.79411 -2.01151 0
M  V30 17445 C 1604.61 -4.33827 -2.53179 0
M  V30 17446 C 1606.6 -6.12529 -1.76314 0
M  V30 17447 C 1604.29 -5.66991 -2.27957 0
M  V30 17448 C 1605.28 -6.56161 -1.89584 0
M  V30 17449 O 1604.97 -7.86859 -1.64647 0
M  V30 17450 H 1604.7 -0.514731 -0.43821 0
M  V30 17451 H 1607.26 -1.90421 -0.770008 0
M  V30 17452 H 1605.49 -1.97663 -3.32365 0
M  V30 17453 H 1607.18 -2.39306 -3.27852 0
M  V30 17454 H 1607.94 -4.46095 -1.90328 0
M  V30 17455 H 1603.82 -3.64675 -2.82016 0
M  V30 17456 H 1607.37 -6.82089 -1.46288 0
M  V30 17457 H 1603.26 -5.99866 -2.38392 0
M  V30 17458 H 1604.03 -7.98724 -1.78837 0
M  V30 17459 N 1606.69 0.865285 -1.31722 0
M  V30 17460 C 1607.94 1.62098 -1.22865 0
M  V30 17461 C 1608.3 1.91249 0.210099 0
M  V30 17462 O 1607.59 1.53634 1.14487 0
M  V30 17463 C 1607.78 2.95462 -2.0109 0
M  V30 17464 C 1607.61 2.79333 -3.52425 0
M  V30 17465 C 1606.38 2.78273 -4.21773 0
M  V30 17466 C 1608.58 2.53854 -4.47284 0
M  V30 17467 N 1606.56 2.53243 -5.59233 0
M  V30 17468 C 1607.93 2.38131 -5.72445 0
M  V30 17469 C 1609.99 2.39236 -4.36658 0
M  V30 17470 C 1608.69 2.09276 -6.88183 0
M  V30 17471 C 1610.72 2.1177 -5.52184 0
M  V30 17472 C 1610.08 1.96839 -6.76338 0
M  V30 17473 H 1606.18 0.597308 -0.504724 0
M  V30 17474 H 1608.76 1.01803 -1.65965 0
M  V30 17475 H 1606.93 3.53754 -1.60352 0
M  V30 17476 H 1608.66 3.60343 -1.84214 0
M  V30 17477 H 1605.42 2.90826 -3.73788 0
M  V30 17478 H 1605.84 2.43686 -6.31622 0
M  V30 17479 H 1610.49 2.49505 -3.41331 0
M  V30 17480 H 1608.2 1.97745 -7.83532 0
M  V30 17481 H 1611.79 2.01253 -5.45883 0
M  V30 17482 H 1610.67 1.75888 -7.64221 0
M  V30 17483 N 1608.17 1.14759 1.0802 0
M  V30 17484 C 1609.42 0.916435 1.80127 0
M  V30 17485 C 1609.74 -0.558281 1.86837 0
M  V30 17486 O 1609.01 -1.40579 1.36434 0
M  V30 17487 H 1607.59 0.336066 0.667135 0
M  V30 17488 H 1610.25 1.44693 1.30576 0
M  V30 17489 H 1609.35 1.31986 2.82818 0
M  V30 17490 N 1609.65 -1.26251 0.943322 0
M  V30 17491 C 1610.58 -2.25468 0.411904 0
M  V30 17492 C 1611.6 -1.55988 -0.466005 0
M  V30 17493 O 1612.78 -1.76352 -0.276106 0
M  V30 17494 C 1609.88 -3.362 -0.426909 0
M  V30 17495 C 1609.06 -4.35228 0.435346 0
M  V30 17496 C 1608.12 -5.25078 -0.343388 0
M  V30 17497 O 1607.14 -5.68632 0.254322 0
M  V30 17498 N 1608.34 -5.5687 -1.63939 0
M  V30 17499 H 1611.11 -2.71701 1.26486 0
M  V30 17500 H 1608.67 -1.40039 0.812438 0
M  V30 17501 H 1610.66 -3.93263 -0.955316 0
M  V30 17502 H 1609.23 -2.89446 -1.18067 0
M  V30 17503 H 1608.45 -3.77206 1.14495 0
M  V30 17504 H 1609.74 -4.98384 1.02427 0
M  V30 17505 H 1609.14 -5.2337 -2.14709 0
M  V30 17506 H 1607.7 -6.16566 -2.11399 0
M  V30 17507 N 1611.13 -0.710588 -1.40671 0
M  V30 17508 C 1612.38 -0.247459 -2.00579 0
M  V30 17509 C 1612.7 1.16179 -1.56612 0
M  V30 17510 O 1611.97 1.7867 -0.803358 0
M  V30 17511 H 1610.55 -0.0884992 -0.741739 0
M  V30 17512 H 1613.21 -0.915103 -1.72081 0
M  V30 17513 H 1612.31 -0.276631 -3.10872 0
M  V30 17514 N 1612.61 1.50847 -0.456408 0
M  V30 17515 C 1613.83 2.07139 0.104054 0
M  V30 17516 C 1614.26 1.31966 1.34039 0
M  V30 17517 O 1613.62 0.363038 1.77628 0
M  V30 17518 C 1613.66 3.5853 0.385794 0
M  V30 17519 O 1612.77 3.85351 1.46895 0
M  V30 17520 H 1612.11 0.663968 -0.00651246 0
M  V30 17521 H 1614.64 1.94226 -0.64323 0
M  V30 17522 H 1614.65 4.03097 0.630644 0
M  V30 17523 H 1613.32 4.12665 -0.51773 0
M  V30 17524 H 1611.9 3.52635 1.21256 0
M  V30 17525 N 1614.09 0.188454 1.56469 0
M  V30 17526 C 1615.33 -0.452728 1.97682 0
M  V30 17527 C 1615.66 -1.61729 1.07506 0
M  V30 17528 O 1614.94 -1.94094 0.125677 0
M  V30 17529 C 1615.22 -0.919257 3.48169 0
M  V30 17530 C 1615.08 0.246656 4.49123 0
M  V30 17531 C 1616.39 -1.78706 4.02184 0
M  V30 17532 H 1613.51 -0.16309 0.718729 0
M  V30 17533 H 1616.16 0.27804 1.87955 0
M  V30 17534 H 1614.31 -1.54195 3.5659 0
M  V30 17535 H 1615.98 0.884178 4.52747 0
M  V30 17536 H 1614.22 0.89948 4.24372 0
M  V30 17537 H 1614.89 -0.122179 5.51865 0
M  V30 17538 H 1617.37 -1.26196 3.96502 0
M  V30 17539 H 1616.24 -2.08247 5.07863 0
M  V30 17540 H 1616.5 -2.73891 3.47039 0
M  V30 17541 N 1615.56 -1.5737 -0.0851874 0
M  V30 17542 C 1616.49 -2.05796 -1.10319 0
M  V30 17543 C 1617.47 -0.948796 -1.4118 0
M  V30 17544 O 1618.66 -1.22069 -1.51039 0
M  V30 17545 C 1615.79 -2.49069 -2.42037 0
M  V30 17546 C 1614.74 -3.6374 -2.25561 0
M  V30 17547 C 1614.07 -3.93023 -3.62543 0
M  V30 17548 C 1615.37 -4.94274 -1.68793 0
M  V30 17549 H 1617.06 -2.91095 -0.700274 0
M  V30 17550 H 1614.61 -1.40039 -0.335405 0
M  V30 17551 H 1616.56 -2.81558 -3.13534 0
M  V30 17552 H 1615.29 -1.60781 -2.84283 0
M  V30 17553 H 1613.95 -3.31513 -1.56507 0
M  V30 17554 H 1613.59 -3.01887 -4.02335 0
M  V30 17555 H 1613.29 -4.70229 -3.52362 0
M  V30 17556 H 1614.82 -4.27995 -4.35491 0
M  V30 17557 H 1616.23 -5.25079 -2.30141 0
M  V30 17558 H 1614.63 -5.75711 -1.69344 0
M  V30 17559 H 1615.7 -4.80548 -0.648204 0
M  V30 17560 N 1617.04 0.356258 -1.53521 0
M  V30 17561 C 1617.97 1.44271 -1.83598 0
M  V30 17562 C 1618.95 1.5547 -0.690141 0
M  V30 17563 O 1620.14 1.69886 -0.940868 0
M  V30 17564 C 1617.27 2.8149 -2.03422 0
M  V30 17565 C 1616.22 2.85108 -3.19213 0
M  V30 17566 C 1615.55 4.25091 -3.24348 0
M  V30 17567 C 1616.85 2.51788 -4.57602 0
M  V30 17568 H 1618.54 1.1935 -2.74583 0
M  V30 17569 H 1616.09 0.572707 -1.32121 0
M  V30 17570 H 1618.04 3.57531 -2.23046 0
M  V30 17571 H 1616.76 3.07819 -1.09155 0
M  V30 17572 H 1615.42 2.1152 -2.99424 0
M  V30 17573 H 1615.07 4.4851 -2.277 0
M  V30 17574 H 1614.77 4.28426 -4.0215 0
M  V30 17575 H 1616.3 5.02992 -3.46167 0
M  V30 17576 H 1617.71 3.17542 -4.77326 0
M  V30 17577 H 1616.11 2.66426 -5.37715 0
M  V30 17578 H 1617.18 1.4701 -4.62078 0
M  V30 17579 N 1618.52 1.45038 0.616577 0
M  V30 17580 C 1619.47 1.53022 1.7278 0
M  V30 17581 C 1620.44 0.376778 1.6177 0
M  V30 17582 O 1621.62 0.589006 1.81481 0
M  V30 17583 C 1618.76 1.49432 3.11069 0
M  V30 17584 C 1617.87 2.7526 3.3295 0
M  V30 17585 C 1617.01 2.63403 4.61294 0
M  V30 17586 C 1616.05 3.84327 4.76402 0
M  V30 17587 N 1615.19 3.71058 5.96037 0
M  V30 17588 H 1620.03 2.47957 1.65292 0
M  V30 17589 H 1617.56 1.23046 0.806102 0
M  V30 17590 H 1619.52 1.45339 3.91066 0
M  V30 17591 H 1618.15 0.580542 3.17537 0
M  V30 17592 H 1617.2 2.89479 2.46792 0
M  V30 17593 H 1618.51 3.64978 3.39989 0
M  V30 17594 H 1617.67 2.57226 5.49472 0
M  V30 17595 H 1616.41 1.7127 4.56638 0
M  V30 17596 H 1615.41 3.90873 3.8665 0
M  V30 17597 H 1616.64 4.77515 4.82863 0
M  V30 17598 H 1614.58 2.81687 5.92443 0
M  V30 17599 H 1614.5 4.54403 6.04197 0
M  V30 17600 H 1615.77 3.68798 6.86738 0
M  V30 17601 N 1620 -0.858287 1.32179 0
M  V30 17602 C 1621.27 -1.59548 1.13154 0
M  V30 17603 C 1621.65 -2.0882 -0.309439 0
M  V30 17604 O 1621 -1.87536 -1.30547 0
M  V30 17605 C 1621.21 -2.74443 2.15597 0
M  V30 17606 C 1622.56 -3.44115 2.48737 0
M  V30 17607 O 1623.58 -2.84664 2.14114 0
M  V30 17608 O 1622.44 -4.51389 3.08074 0
M  V30 17609 H 1619.54 -0.702481 0.436405 0
M  V30 17610 H 1622.08 -0.902731 1.43697 0
M  V30 17611 H 1620.86 -2.35533 3.12473 0
M  V30 17612 H 1620.48 -3.51397 1.86028 0
M  V30 17613 N 1621.48 -1.1533 -1.07409 0
M  V30 17614 C 1622.39 -0.863514 -2.1813 0
M  V30 17615 C 1623.4 0.159954 -1.73263 0
M  V30 17616 O 1624.58 -0.0139818 -2.01395 0
M  V30 17617 C 1621.64 -0.356271 -3.44865 0
M  V30 17618 C 1620.7 -1.44356 -4.04302 0
M  V30 17619 C 1619.94 -0.960429 -5.24987 0
M  V30 17620 O 1620.16 0.194227 -5.70069 0
M  V30 17621 O 1619.09 -1.74387 -5.76084 0
M  V30 17622 H 1622.92 -1.78909 -2.45408 0
M  V30 17623 H 1620.5 -0.932362 -1.16736 0
M  V30 17624 H 1622.39 -0.0798183 -4.21324 0
M  V30 17625 H 1621.06 0.541445 -3.1914 0
M  V30 17626 H 1619.97 -1.77361 -3.29384 0
M  V30 17627 H 1621.3 -2.31617 -4.34298 0
M  V30 17628 N 1622.95 1.25748 -0.950004 0
M  V30 17629 C 1623.86 2.29783 -0.472971 0
M  V30 17630 C 1624.88 1.6788 0.457403 0
M  V30 17631 O 1626.06 1.98598 0.334779 0
M  V30 17632 C 1623.12 3.45826 0.245955 0
M  V30 17633 C 1622.18 4.23184 -0.722063 0
M  V30 17634 C 1621.41 5.33687 -0.0373517 0
M  V30 17635 O 1621.64 5.58105 1.1779 0
M  V30 17636 O 1620.57 5.97572 -0.72054 0
M  V30 17637 H 1624.4 2.72668 -1.33737 0
M  V30 17638 H 1621.98 1.31111 -0.71626 0
M  V30 17639 H 1623.86 4.16348 0.650563 0
M  V30 17640 H 1622.54 3.04953 1.0856 0
M  V30 17641 H 1621.45 3.55109 -1.17679 0
M  V30 17642 H 1622.78 4.67829 -1.52959 0
M  V30 17643 N 1624.43 0.718038 1.40292 0
M  V30 17644 C 1625.38 0.0670495 2.30703 0
M  V30 17645 C 1626.35 -0.747716 1.48319 0
M  V30 17646 O 1627.53 -0.711161 1.77051 0
M  V30 17647 C 1624.67 -0.846918 3.34546 0
M  V30 17648 C 1623.79 -0.0213622 4.31995 0
M  V30 17649 C 1622.92 -0.935035 5.22906 0
M  V30 17650 C 1621.96 -0.103715 6.12012 0
M  V30 17651 N 1621.1 -0.972397 6.95334 0
M  V30 17652 H 1625.94 0.843724 2.85806 0
M  V30 17653 H 1623.47 0.427756 1.40743 0
M  V30 17654 H 1625.43 -1.39109 3.93325 0
M  V30 17655 H 1624.06 -1.58975 2.80939 0
M  V30 17656 H 1623.11 0.640026 3.74977 0
M  V30 17657 H 1624.43 0.62215 4.94905 0
M  V30 17658 H 1623.58 -1.54766 5.86628 0
M  V30 17659 H 1622.32 -1.61236 4.60276 0
M  V30 17660 H 1621.32 0.521826 5.47318 0
M  V30 17661 H 1622.55 0.570146 6.76702 0
M  V30 17662 H 1620.5 -1.63533 6.3529 0
M  V30 17663 H 1620.41 -0.384977 7.55019 0
M  V30 17664 H 1621.68 -1.57112 7.63503 0
M  V30 17665 N 1625.91 -1.50602 0.464402 0
M  V30 17666 C 1627.16 -2.01887 -0.0927084 0
M  V30 17667 C 1627.48 -1.34891 -1.40817 0
M  V30 17668 O 1626.75 -0.492078 -1.89619 0
M  V30 17669 H 1625.33 -0.746071 -0.0372514 0
M  V30 17670 H 1627.99 -1.84999 0.613296 0
M  V30 17671 H 1627.09 -3.11105 -0.249067 0
M  V30 17672 N 1627.39 -0.19675 -1.56367 0
M  V30 17673 C 1628.62 0.446491 -2.01718 0
M  V30 17674 C 1629.03 1.55621 -1.07604 0
M  V30 17675 O 1628.37 1.83553 -0.0733943 0
M  V30 17676 C 1628.43 1.06182 -3.43461 0
M  V30 17677 C 1628.1 0.0906278 -4.5691 0
M  V30 17678 C 1629.09 -0.700599 -5.15158 0
M  V30 17679 C 1626.78 -0.0209341 -5.02296 0
M  V30 17680 C 1628.77 -1.59034 -6.17241 0
M  V30 17681 C 1626.46 -0.91423 -6.04223 0
M  V30 17682 C 1627.46 -1.6975 -6.61569 0
M  V30 17683 O 1627.14 -2.57582 -7.61516 0
M  V30 17684 H 1626.88 0.116254 -0.665929 0
M  V30 17685 H 1629.43 -0.303224 -2.03149 0
M  V30 17686 H 1627.66 1.86015 -3.39021 0
M  V30 17687 H 1629.35 1.60988 -3.72609 0
M  V30 17688 H 1630.12 -0.624723 -4.8096 0
M  V30 17689 H 1625.99 0.578557 -4.57355 0
M  V30 17690 H 1629.54 -2.20215 -6.6193 0
M  V30 17691 H 1625.44 -0.991215 -6.37844 0
M  V30 17692 H 1626.2 -2.5138 -7.78942 0
M  V30 17693 N 1628.87 1.57413 0.0768405 0
M  V30 17694 C 1630.11 1.87002 0.776948 0
M  V30 17695 C 1630.44 0.787799 1.77831 0
M  V30 17696 O 1629.7 -0.216742 1.94496 0
M  V30 17697 C 1630 3.2324 1.52482 0
M  V30 17698 C 1629.66 4.45986 0.663899 0
M  V30 17699 C 1628.32 4.79305 0.426629 0
M  V30 17700 C 1630.68 5.21157 0.0665867 0
M  V30 17701 C 1628 5.85213 -0.417518 0
M  V30 17702 C 1630.36 6.27958 -0.764986 0
M  V30 17703 C 1629.02 6.59781 -1.01218 0
M  V30 17704 H 1628.29 0.684289 0.284306 0
M  V30 17705 H 1630.94 1.91463 0.0378686 0
M  V30 17706 H 1629.24 3.14547 2.33596 0
M  V30 17707 H 1630.94 3.43368 2.07123 0
M  V30 17708 H 1627.53 4.19905 0.858956 0
M  V30 17709 H 1631.71 4.95734 0.237022 0
M  V30 17710 H 1626.97 6.0827 -0.617827 0
M  V30 17711 H 1631.14 6.85369 -1.23459 0
M  V30 17712 H 1628.77 7.41674 -1.66806 0
M  V30 17713 N 1630.34 -0.348112 1.53707 0
M  V30 17714 C 1631.27 -1.43296 1.8436 0
M  V30 17715 C 1632.26 -1.55102 0.698376 0
M  V30 17716 O 1633.44 -1.69385 0.949864 0
M  V30 17717 C 1630.57 -2.80407 2.04912 0
M  V30 17718 C 1629.52 -2.83412 3.20721 0
M  V30 17719 C 1628.85 -4.23365 3.26597 0
M  V30 17720 C 1630.15 -2.49358 4.58931 0
M  V30 17721 H 1631.84 -1.17892 2.75212 0
M  V30 17722 H 1629.39 -0.565692 1.32423 0
M  V30 17723 H 1631.34 -3.56343 2.24939 0
M  V30 17724 H 1630.07 -3.07236 1.10786 0
M  V30 17725 H 1628.73 -2.09929 3.00542 0
M  V30 17726 H 1628.37 -4.47297 2.30076 0
M  V30 17727 H 1628.07 -4.26287 4.04417 0
M  V30 17728 H 1629.6 -5.01149 3.4883 0
M  V30 17729 H 1631.01 -3.15006 4.79003 0
M  V30 17730 H 1629.41 -2.6357 5.3912 0
M  V30 17731 H 1630.48 -1.44557 4.62851 0
M  V30 17732 N 1631.82 -1.45363 -0.608876 0
M  V30 17733 C 1633.07 -1.48586 -1.364 0
M  V30 17734 C 1633.38 -0.131213 -1.95159 0
M  V30 17735 O 1634.59 -0.0410845 -2.71469 0
M  V30 17736 C 1633.05 -2.61694 -2.47071 0
M  V30 17737 C 1632.65 -4.03466 -1.94729 0
M  V30 17738 C 1634.4 -2.74162 -3.24091 0
M  V30 17739 C 1632.31 -5.07958 -3.02874 0
M  V30 17740 H 1631.24 -0.552893 -0.512665 0
M  V30 17741 H 1633.89 -1.71499 -0.65271 0
M  V30 17742 H 1632.27 -2.32062 -3.20879 0
M  V30 17743 H 1633.44 -4.4277 -1.27638 0
M  V30 17744 H 1631.76 -3.95436 -1.30457 0
M  V30 17745 H 1634.35 -3.494 -4.04752 0
M  V30 17746 H 1634.7 -1.80751 -3.75013 0
M  V30 17747 H 1635.23 -3.03313 -2.57383 0
M  V30 17748 H 1631.97 -6.03073 -2.56871 0
M  V30 17749 H 1631.49 -4.73225 -3.68535 0
M  V30 17750 H 1633.17 -5.3265 -3.67277 0
M  V30 17751 N 1633.3 0.851265 -1.32632 0
M  V30 17752 C 1634.71 1.4217 -1.21015 0
M  V30 17753 C 1635.06 1.95409 0.175972 0
M  V30 17754 O 1634.19 1.87816 1.07489 0
M  V30 17755 C 1634.78 2.58431 -2.19086 0
M  V30 17756 C 1633.34 3.11464 -2.11346 0
M  V30 17757 C 1632.49 1.84221 -2.07263 0
M  V30 17758 H 1635.44 0.65812 -1.44411 0
M  V30 17759 H 1635.46 3.35694 -1.79137 0
M  V30 17760 H 1634.97 2.19652 -3.1996 0
M  V30 17761 H 1633.07 3.54818 -1.13732 0
M  V30 17762 H 1633.19 3.72478 -3.01325 0
M  V30 17763 H 1631.55 2.0396 -1.52553 0
M  V30 17764 H 1632.33 1.47654 -3.09924 0
M  V30 17765 N 1634.78 1.15898 1.06796 0
M  V30 17766 C 1636.19 0.902809 1.31611 0
M  V30 17767 C 1636.39 -0.447112 1.96477 0
M  V30 17768 O 1635.45 -1.18778 2.22818 0
M  V30 17769 C 1636.76 2.04803 2.20173 0
M  V30 17770 C 1638.31 2.08321 2.33605 0
M  V30 17771 C 1638.79 3.22182 3.25519 0
M  V30 17772 N 1640.28 3.21866 3.33101 0
M  V30 17773 C 1641.01 4.06608 4.04299 0
M  V30 17774 N 1640.51 5.01426 4.78063 0
M  V30 17775 N 1642.3 3.94612 4.00297 0
M  V30 17776 H 1634.45 2.02816 0.630831 0
M  V30 17777 H 1636.72 0.884683 0.340646 0
M  V30 17778 H 1636.42 3.02278 1.7978 0
M  V30 17779 H 1636.3 1.98521 3.20732 0
M  V30 17780 H 1638.68 1.11441 2.73249 0
M  V30 17781 H 1638.76 2.18668 1.32732 0
M  V30 17782 H 1638.41 4.19317 2.86594 0
M  V30 17783 H 1638.34 3.0907 4.2636 0
M  V30 17784 H 1640.83 2.53203 2.80529 0
M  V30 17785 H 1641.14 5.62517 5.29901 0
M  V30 17786 H 1639.49 5.0541 4.7706 0
M  V30 17787 H 1642.68 3.19843 3.41786 0
M  V30 17788 H 1642.85 4.60877 4.55518 0
M  V30 17789 N 1636.26 -1.25243 0.956659 0
M  V30 17790 C 1637.67 -1.4525 0.661409 0
M  V30 17791 C 1637.87 -1.85774 -0.780404 0
M  V30 17792 O 1636.93 -1.98899 -1.55549 0
M  V30 17793 C 1638.24 -2.52296 1.63607 0
M  V30 17794 C 1639.79 -2.66134 1.64748 0
M  V30 17795 C 1640.26 -3.76366 2.60983 0
M  V30 17796 N 1641.76 -3.8378 2.5936 0
M  V30 17797 C 1642.49 -4.68569 3.30501 0
M  V30 17798 N 1641.99 -5.5763 4.11122 0
M  V30 17799 N 1643.78 -4.62551 3.19378 0
M  V30 17800 H 1635.93 -0.972321 1.88838 0
M  V30 17801 H 1638.19 -0.488615 0.812379 0
M  V30 17802 H 1637.9 -2.29382 2.66603 0
M  V30 17803 H 1637.77 -3.5025 1.40017 0
M  V30 17804 H 1640.16 -2.88412 0.624692 0
M  V30 17805 H 1640.24 -1.68573 1.92397 0
M  V30 17806 H 1639.89 -3.54839 3.63389 0
M  V30 17807 H 1639.82 -4.73417 2.30617 0
M  V30 17808 H 1642.31 -3.20117 2.00832 0
M  V30 17809 H 1642.62 -6.19258 4.62319 0
M  V30 17810 H 1640.96 -5.57331 4.15219 0
M  V30 17811 H 1644.16 -3.91983 2.55865 0
M  V30 17812 H 1644.33 -5.28407 3.75086 0
M  V30 17813 N 1637.73 -0.725468 -1.3991 0
M  V30 17814 C 1638.68 -0.0555314 -2.27932 0
M  V30 17815 C 1639.67 0.722435 -1.4377 0
M  V30 17816 O 1640.86 0.593011 -1.6677 0
M  V30 17817 C 1637.99 0.858122 -3.32402 0
M  V30 17818 C 1637.08 0.0748146 -4.24034 0
M  V30 17819 N 1637.47 -0.947093 -4.96854 0
M  V30 17820 C 1635.76 0.305902 -4.4495 0
M  V30 17821 C 1636.47 -1.41861 -5.64137 0
M  V30 17822 N 1635.44 -0.738949 -5.38554 0
M  V30 17823 H 1639.24 -0.838606 -2.81682 0
M  V30 17824 H 1636.76 -0.558938 -1.52478 0
M  V30 17825 H 1638.75 1.35347 -3.94318 0
M  V30 17826 H 1637.41 1.64046 -2.80212 0
M  V30 17827 H 1638.43 -1.32821 -5.00579 0
M  V30 17828 H 1635.1 1.06379 -4.0372 0
M  V30 17829 H 1636.49 -2.26829 -6.32454 0
M  V30 17830 N 1639.21 1.50354 -0.472382 0
M  V30 17831 C 1640.46 2.01526 0.0838536 0
M  V30 17832 C 1640.77 1.35913 1.40667 0
M  V30 17833 O 1641.98 1.78248 2.04792 0
M  V30 17834 C 1640.44 3.59344 0.199949 0
M  V30 17835 C 1640.04 4.33916 -1.11451 0
M  V30 17836 C 1641.79 4.18553 0.708075 0
M  V30 17837 C 1639.7 5.83521 -0.962138 0
M  V30 17838 H 1638.63 0.753182 0.0351127 0
M  V30 17839 H 1641.28 1.73153 -0.607474 0
M  V30 17840 H 1639.66 3.8431 0.955088 0
M  V30 17841 H 1640.83 4.20673 -1.8807 0
M  V30 17842 H 1639.15 3.86322 -1.55385 0
M  V30 17843 H 1641.74 5.28075 0.839126 0
M  V30 17844 H 1642.09 3.80019 1.69973 0
M  V30 17845 H 1642.62 3.97799 0.0102847 0
M  V30 17846 H 1639.36 6.26529 -1.9272 0
M  V30 17847 H 1638.88 5.99334 -0.236348 0
M  V30 17848 H 1640.56 6.43933 -0.629276 0
M  V30 17849 N 1640.69 0.205039 1.56261 0
M  V30 17850 C 1642.11 -0.150644 1.58887 0
M  V30 17851 C 1642.31 -1.60256 1.22148 0
M  V30 17852 O 1641.36 -2.33991 0.948912 0
M  V30 17853 C 1642.68 0.160711 3.0027 0
M  V30 17854 C 1644.22 0.101616 3.12835 0
M  V30 17855 C 1644.7 0.386417 4.56367 0
M  V30 17856 N 1646.19 0.335392 4.61984 0
M  V30 17857 C 1646.93 0.529473 5.7095 0
M  V30 17858 N 1646.42 0.784441 6.88345 0
M  V30 17859 N 1648.21 0.463044 5.6019 0
M  V30 17860 H 1640.37 1.15238 1.78421 0
M  V30 17861 H 1642.63 0.460698 0.82853 0
M  V30 17862 H 1642.33 1.1678 3.31746 0
M  V30 17863 H 1642.21 -0.532067 3.73429 0
M  V30 17864 H 1644.6 -0.896093 2.81166 0
M  V30 17865 H 1644.68 0.827622 2.42041 0
M  V30 17866 H 1644.32 1.38149 4.88751 0
M  V30 17867 H 1644.25 -0.360592 5.25364 0
M  V30 17868 H 1646.74 0.145346 3.7762 0
M  V30 17869 H 1647.05 0.921077 7.67291 0
M  V30 17870 H 1645.4 0.821448 6.90128 0
M  V30 17871 H 1648.59 0.2642 4.67354 0
M  V30 17872 H 1648.76 0.617712 6.45049 0
M  V30 17873 N 1642.17 -1.57451 -0.0684915 0
M  V30 17874 C 1643.59 -1.53883 -0.423354 0
M  V30 17875 C 1643.79 -0.925698 -1.78978 0
M  V30 17876 O 1642.84 -0.529629 -2.46883 0
M  V30 17877 C 1644.15 -2.98521 -0.361386 0
M  V30 17878 C 1645.7 -3.09873 -0.441334 0
M  V30 17879 C 1646.18 -4.56168 -0.409239 0
M  V30 17880 N 1647.67 -4.60817 -0.469216 0
M  V30 17881 C 1648.4 -5.71498 -0.466648 0
M  V30 17882 N 1647.9 -6.91534 -0.4187 0
M  V30 17883 N 1649.69 -5.5975 -0.513452 0
M  V30 17884 H 1641.84 -1.95672 0.8262 0
M  V30 17885 H 1644.11 -0.895759 0.310354 0
M  V30 17886 H 1643.81 -3.46951 0.576035 0
M  V30 17887 H 1643.69 -3.58585 -1.17032 0
M  V30 17888 H 1646.07 -2.61414 -1.36918 0
M  V30 17889 H 1646.15 -2.52712 0.396237 0
M  V30 17890 H 1645.8 -5.05285 0.514772 0
M  V30 17891 H 1645.73 -5.11195 -1.26439 0
M  V30 17892 H 1648.22 -3.74438 -0.510387 0
M  V30 17893 H 1648.53 -7.71654 -0.420757 0
M  V30 17894 H 1646.88 -6.93931 -0.385338 0
M  V30 17895 H 1650.07 -4.64874 -0.548626 0
M  V30 17896 H 1650.24 -6.46006 -0.507982 0
M  V30 17897 N 1643.65 0.339955 -1.5389 0
M  V30 17898 C 1644.89 1.08139 -1.71563 0
M  V30 17899 C 1645.23 1.88193 -0.479292 0
M  V30 17900 O 1644.5 1.87317 0.523702 0
M  V30 17901 C 1644.78 2.01963 -2.98132 0
M  V30 17902 C 1644.64 1.25349 -4.31981 0
M  V30 17903 C 1645.96 3.01729 -3.20387 0
M  V30 17904 H 1643.08 0.391744 -0.624264 0
M  V30 17905 H 1645.72 0.359609 -1.86566 0
M  V30 17906 H 1643.87 2.63511 -2.85472 0
M  V30 17907 H 1645.54 0.66388 -4.56498 0
M  V30 17908 H 1643.78 0.555541 -4.30228 0
M  V30 17909 H 1644.45 1.94154 -5.16728 0
M  V30 17910 H 1646.93 2.50297 -3.32401 0
M  V30 17911 H 1645.81 3.64577 -4.10335 0
M  V30 17912 H 1646.07 3.73303 -2.36849 0
M  V30 17913 N 1645.13 1.45684 0.601159 0
M  V30 17914 C 1646.54 1.44423 1.18317 0
M  V30 17915 C 1646.89 0.17524 1.95416 0
M  V30 17916 O 1646.01 -0.722816 2.03971 0
M  V30 17917 C 1646.61 2.61651 2.1523 0
M  V30 17918 C 1645.17 2.6349 2.68793 0
M  V30 17919 C 1644.31 2.36787 1.44317 0
M  V30 17920 H 1647.26 1.53831 0.390108 0
M  V30 17921 H 1647.29 2.36117 2.98377 0
M  V30 17922 H 1646.8 3.53995 1.59088 0
M  V30 17923 H 1644.9 1.7517 3.28856 0
M  V30 17924 H 1645.01 3.62906 3.12787 0
M  V30 17925 H 1643.38 1.86472 1.73494 0
M  V30 17926 H 1644.16 3.31284 0.900327 0
M  V30 17927 N 1646.6 -0.84422 1.33082 0
M  V30 17928 C 1647.51 -1.9858 1.24913 0
M  V30 17929 C 1648.53 -1.73256 0.160708 0
M  V30 17930 O 1649.71 -1.97719 0.383313 0
M  V30 17931 C 1646.77 -3.32471 0.983063 0
M  V30 17932 C 1645.83 -3.70946 2.16096 0
M  V30 17933 C 1645.06 -4.98448 1.90749 0
M  V30 17934 O 1645.29 -5.63953 0.855173 0
M  V30 17935 O 1644.22 -5.34301 2.7714 0
M  V30 17936 H 1648.05 -2.0841 2.20905 0
M  V30 17937 H 1645.63 -0.976447 1.13075 0
M  V30 17938 H 1647.51 -4.12705 0.851612 0
M  V30 17939 H 1646.19 -3.23656 0.053384 0
M  V30 17940 H 1645.1 -2.91244 2.34793 0
M  V30 17941 H 1646.43 -3.8442 3.07379 0
M  V30 17942 N 1648.08 -1.16463 -1.0618 0
M  V30 17943 C 1649.49 -0.95436 -1.60465 0
M  V30 17944 C 1649.84 0.501455 -1.89684 0
M  V30 17945 O 1648.97 1.37488 -1.67111 0
M  V30 17946 C 1649.56 -1.72603 -2.91537 0
M  V30 17947 C 1648.12 -1.56071 -3.42518 0
M  V30 17948 C 1647.27 -1.73403 -2.16395 0
M  V30 17949 H 1650.22 -1.31316 -0.891166 0
M  V30 17950 H 1650.24 -1.20252 -3.60998 0
M  V30 17951 H 1649.75 -2.78554 -2.70239 0
M  V30 17952 H 1647.85 -0.525652 -3.68874 0
M  V30 17953 H 1647.97 -2.34533 -4.17769 0
M  V30 17954 H 1646.33 -1.16155 -2.26672 0
M  V30 17955 H 1647.11 -2.80745 -1.97578 0
M  V30 17956 N 1649.56 1.24734 -0.963288 0
M  V30 17957 C 1650.8 1.94431 -0.630554 0
M  V30 17958 C 1651.16 1.7368 0.818489 0
M  V30 17959 O 1652.36 2.37374 1.26123 0
M  V30 17960 C 1650.64 3.43421 -0.989774 0
M  V30 17961 S 1652.19 4.31975 -0.770922 0
M  V30 17962 H 1649.01 0.672265 -0.231474 0
M  V30 17963 H 1651.61 1.512 -1.2393 0
M  V30 17964 H 1650.32 3.5603 -2.04135 0
M  V30 17965 H 1649.85 3.91641 -0.371622 0
M  V30 17966 H 1651.86 4.94936 0.35396 0
M  V30 17967 N 1651.04 0.732878 1.39523 0
M  V30 17968 C 1652 0.10004 2.28982 0
M  V30 17969 C 1653 -0.669361 1.46206 0
M  V30 17970 O 1654.19 -0.498694 1.66909 0
M  V30 17971 C 1651.32 -0.867616 3.29674 0
M  V30 17972 H 1652.52 0.88816 2.86447 0
M  V30 17973 H 1650.07 0.498578 1.48135 0
M  V30 17974 H 1650.8 -1.68217 2.77261 0
M  V30 17975 H 1650.59 -0.318577 3.90804 0
M  V30 17976 H 1652.08 -1.30704 3.96618 0
M  V30 17977 N 1652.52 -1.50101 0.480349 0
M  V30 17978 C 1653.45 -2.31581 -0.298718 0
M  V30 17979 C 1654.43 -1.38905 -0.981798 0
M  V30 17980 O 1655.61 -1.67823 -0.977188 0
M  V30 17981 C 1652.74 -3.18891 -1.37571 0
M  V30 17982 C 1651.7 -4.20194 -0.813704 0
M  V30 17983 C 1651.02 -4.96302 -1.98968 0
M  V30 17984 C 1652.32 -5.21985 0.181295 0
M  V30 17985 H 1654.02 -2.96961 0.381349 0
M  V30 17986 H 1651.56 -1.42809 0.184842 0
M  V30 17987 H 1653.51 -3.74694 -1.92828 0
M  V30 17988 H 1652.24 -2.51414 -2.08467 0
M  V30 17989 H 1650.9 -3.65506 -0.283034 0
M  V30 17990 H 1650.55 -4.2529 -2.68584 0
M  V30 17991 H 1650.25 -5.64833 -1.61981 0
M  V30 17992 H 1651.77 -5.54943 -2.54698 0
M  V30 17993 H 1653.18 -5.72604 -0.28242 0
M  V30 17994 H 1651.58 -5.98289 0.465916 0
M  V30 17995 H 1652.65 -4.72162 1.10413 0
M  V30 17996 N 1653.99 -0.213323 -1.5615 0
M  V30 17997 C 1655.4 0.29602 -1.84338 0
M  V30 17998 C 1655.76 1.60073 -1.13451 0
M  V30 17999 O 1654.88 2.12645 -0.4014 0
M  V30 18000 C 1655.48 0.54387 -3.34406 0
M  V30 18001 C 1654.03 0.997539 -3.62941 0
M  V30 18002 C 1653.18 0.0560823 -2.77243 0
M  V30 18003 H 1656.13 -0.436707 -1.52573 0
M  V30 18004 H 1656.15 1.39093 -3.54166 0
M  V30 18005 H 1655.67 -0.405885 -3.85972 0
M  V30 18006 H 1653.77 1.96094 -3.16825 0
M  V30 18007 H 1653.88 0.877642 -4.70993 0
M  V30 18008 H 1652.24 0.561362 -2.48437 0
M  V30 18009 H 1653.03 -0.888442 -3.31605 0
M  V30 18010 N 1655.47 1.57485 0.0601405 0
M  V30 18011 C 1656.38 2.07853 1.08785 0
M  V30 18012 C 1657.4 1.01047 1.41653 0
M  V30 18013 O 1658.57 1.32592 1.51596 0
M  V30 18014 C 1655.64 2.52214 2.37885 0
M  V30 18015 C 1654.7 3.73369 2.11882 0
M  V30 18016 C 1653.93 4.15604 3.34827 0
M  V30 18017 O 1654.16 3.5761 4.44377 0
M  V30 18018 O 1653.09 5.08303 3.22353 0
M  V30 18019 H 1656.92 2.9576 0.689912 0
M  V30 18020 H 1654.5 1.46846 0.275065 0
M  V30 18021 H 1656.38 2.81216 3.1384 0
M  V30 18022 H 1655.06 1.67432 2.77035 0
M  V30 18023 H 1653.97 3.49433 1.33594 0
M  V30 18024 H 1655.3 4.59039 1.77606 0
M  V30 18025 N 1656.95 -0.331789 1.54068 0
M  V30 18026 C 1658.2 -1.06858 1.71539 0
M  V30 18027 C 1658.52 -1.88808 0.487506 0
M  V30 18028 O 1657.79 -1.8945 -0.498539 0
M  V30 18029 H 1656.37 -0.3975 0.632457 0
M  V30 18030 H 1659.03 -0.370216 1.91352 0
M  V30 18031 H 1658.13 -1.73929 2.59143 0
M  V30 18032 N 1658.43 -1.46001 -0.593424 0
M  V30 18033 C 1659.71 -1.4123 -1.35327 0
M  V30 18034 C 1660.09 -0.0901956 -2.10907 0
M  V30 18035 O 1659.43 0.928102 -2.08803 0
M  V30 18036 C 1659.64 -2.63515 -2.28825 0
M  V30 18037 C 1660.99 -3.09208 -2.90991 0
M  V30 18038 O 1662.02 -2.63988 -2.39142 0
M  V30 18039 O 1660.87 -3.87723 -3.8514 0
M  V30 18040 H 1657.97 -0.561132 -0.607503 0
M  V30 18041 H 1660.51 -1.58151 -0.615333 0
M  V30 18042 H 1659.29 -3.51308 -1.72333 0
M  V30 18043 H 1658.91 -2.48999 -3.09976 0
M  V30 18044 N 1659.91 0.83715 -1.33527 0
M  V30 18045 C 1660.82 1.97915 -1.25964 0
M  V30 18046 C 1661.83 1.73169 -0.169894 0
M  V30 18047 O 1663.01 1.97513 -0.393793 0
M  V30 18048 C 1660.07 3.31945 -1.00068 0
M  V30 18049 C 1659.13 3.69795 -2.1806 0
M  V30 18050 C 1658.37 4.97429 -1.9339 0
M  V30 18051 O 1658.59 5.63492 -0.885069 0
M  V30 18052 O 1657.52 5.32823 -2.79969 0
M  V30 18053 H 1661.35 2.07236 -2.22007 0
M  V30 18054 H 1658.94 0.970437 -1.13591 0
M  V30 18055 H 1660.82 4.12248 -0.873487 0
M  V30 18056 H 1659.49 3.23623 -0.0705475 0
M  V30 18057 H 1658.4 2.89995 -2.36334 0
M  V30 18058 H 1659.73 3.82784 -3.09414 0
M  V30 18059 O 1661.42 1.28743 0.975066 0
M  V30 18060 H 1662.11 1.09146 1.60021 0
M  V30 END ATOM
M  V30 BEGIN BOND
M  V30 END BOND
M  V30 END CTAB
M  END
$$$$
