drugbank_target|O95259 Potassium voltage-gated channel subfamily H member 1 (DB00228; DB01069; DB01110)
 OpenBabel12092121013D

  0  0  0     0  0            999 V3000
M  V30 BEGIN CTAB
M  V30 COUNTS 15683 15853 0 0 0
M  V30 BEGIN ATOM
M  V30 1 H -0.908 1.98254 -0.117106 0
M  V30 2 N 0 1.576 0 0
M  V30 3 C 0.933 2.03868 1.02534 0
M  V30 4 C 1.911 0.928543 1.3348 0
M  V30 5 O 3.095 1.19667 1.45644 0
M  V30 6 C 0.222 2.43627 2.35294 0
M  V30 7 C -0.732 3.65373 2.2001 0
M  V30 8 S 0.101 5.13292 1.52614 0
M  V30 9 C 1.257 5.56322 2.86805 0
M  V30 10 H 1.49 2.90518 0.631377 0
M  V30 11 H -0.977 1.52953 0.210867 0
M  V30 12 H 0.981 2.67203 3.11629 0
M  V30 13 H -0.358 1.57376 2.7183 0
M  V30 14 H -1.165 3.90944 3.18086 0
M  V30 15 H -1.563 3.418 1.51819 0
M  V30 16 H 0.729 5.58782 3.83104 0
M  V30 17 H 1.672 6.56266 2.65933 0
M  V30 18 H 2.08 4.83886 2.90714 0
M  V30 19 N 1.4781 -0.272755 1.55222 0
M  V30 20 C 2.7061 -1.02255 1.79865 0
M  V30 21 C 3.1211 -1.79924 0.572088 0
M  V30 22 O 2.4781 -1.76638 -0.458842 0
M  V30 23 C 2.5291 -1.98094 3.02392 0
M  V30 24 O 2.2501 -1.23572 4.20311 0
M  V30 25 C 3.7511 -2.84884 3.39641 0
M  V30 26 H 0.9711 -0.302057 0.599168 0
M  V30 27 H 3.5151 -0.303465 2.02236 0
M  V30 28 H 1.6701 -2.65465 2.82147 0
M  V30 29 H 2.0841 -1.88172 4.89583 0
M  V30 30 H 3.5581 -3.47927 4.28545 0
M  V30 31 H 4.0351 -3.54665 2.59055 0
M  V30 32 H 4.6411 -2.23003 3.62146 0
M  V30 33 N 2.9562 -1.48159 -0.537278 0
M  V30 34 C 3.8892 -1.567 -1.65893 0
M  V30 35 C 4.8672 -0.41787 -1.57139 0
M  V30 36 O 6.0512 -0.628461 -1.77715 0
M  V30 37 C 3.1782 -1.48818 -3.04255 0
M  V30 38 C 2.2242 -2.68482 -3.31391 0
M  V30 39 S 3.0572 -4.30516 -3.1846 0
M  V30 40 C 4.2132 -4.2522 -4.59281 0
M  V30 41 H 4.4462 -2.5159 -1.58397 0
M  V30 42 H 1.9792 -1.36602 -0.719672 0
M  V30 43 H 3.9372 -1.44958 -3.84054 0
M  V30 44 H 2.5982 -0.552777 -3.09198 0
M  V30 45 H 1.7912 -2.59085 -4.32309 0
M  V30 46 H 1.3932 -2.69567 -2.59248 0
M  V30 47 H 3.6852 -3.94703 -5.5065 0
M  V30 48 H 4.6282 -5.26292 -4.73732 0
M  V30 49 H 5.0362 -3.55791 -4.38261 0
M  V30 50 N 4.4343 0.785586 -1.36625 0
M  V30 51 C 5.3973 1.87999 -1.31107 0
M  V30 52 C 6.3973 1.59316 -0.217959 0
M  V30 53 O 7.5873 1.67656 -0.472977 0
M  V30 54 C 4.7193 3.24861 -1.03334 0
M  V30 55 H 5.9123 1.94307 -2.2844 0
M  V30 56 H 3.4653 0.983813 -1.21453 0
M  V30 57 H 4.2003 3.24235 -0.0647432 0
M  V30 58 H 3.9853 3.4707 -1.82441 0
M  V30 59 H 5.4753 4.04929 -1.02088 0
M  V30 60 N 5.9124 1.20967 1.01018 0
M  V30 61 C 7.1604 1.02172 1.74371 0
M  V30 62 C 7.4814 -0.446414 1.89821 0
M  V30 63 O 6.7514 -1.32234 1.44537 0
M  V30 64 H 5.3314 0.375066 0.646014 0
M  V30 65 H 7.9934 1.52187 1.21758 0
M  V30 66 H 7.0894 1.48538 2.74487 0
M  V30 67 N 7.3905 -1.2043 1.01659 0
M  V30 68 C 8.6385 -1.89423 0.704522 0
M  V30 69 C 8.9595 -1.79231 -0.768197 0
M  V30 70 O 8.2295 -1.1947 -1.55254 0
M  V30 71 H 6.8095 -0.701178 0.257602 0
M  V30 72 H 9.4715 -1.4626 1.28818 0
M  V30 73 H 8.5675 -2.96052 0.987916 0
M  V30 74 N 8.8686 -0.792821 -1.36206 0
M  V30 75 C 10.2846 -0.474903 -1.52371 0
M  V30 76 C 10.4846 1.00622 -1.74578 0
M  V30 77 O 9.5406 1.79162 -1.77924 0
M  V30 78 C 10.8536 -1.3083 -2.70747 0
M  V30 79 C 12.4016 -1.30234 -2.84619 0
M  V30 80 C 12.8766 -2.11956 -4.06004 0
M  V30 81 N 14.3676 -2.09419 -4.13156 0
M  V30 82 C 15.1026 -2.69419 -5.06163 0
M  V30 83 N 14.5986 -3.3829 -6.04592 0
M  V30 84 N 16.3916 -2.59134 -4.98804 0
M  V30 85 H 8.5426 -1.75222 -1.20046 0
M  V30 86 H 10.8056 -0.745024 -0.586211 0
M  V30 87 H 10.5116 -2.35881 -2.6087 0
M  V30 88 H 10.3856 -0.95196 -3.6499 0
M  V30 89 H 12.7726 -0.259748 -2.93955 0
M  V30 90 H 12.8536 -1.69847 -1.91274 0
M  V30 91 H 12.4976 -3.16248 -3.97429 0
M  V30 92 H 12.4276 -1.69711 -4.98503 0
M  V30 93 H 14.9186 -1.59297 -3.42685 0
M  V30 94 H 15.2316 -3.81394 -6.7213 0
M  V30 95 H 13.5766 -3.42393 -6.04807 0
M  V30 96 H 16.7676 -2.04927 -4.20859 0
M  V30 97 H 16.9406 -3.06185 -5.711 0
M  V30 98 N 10.3467 1.47872 -0.545128 0
M  V30 99 C 11.7627 1.5829 -0.204032 0
M  V30 100 C 11.9627 1.54529 1.29317 0
M  V30 101 O 11.0187 1.44232 2.07252 0
M  V30 102 C 12.3317 2.89304 -0.819987 0
M  V30 103 C 13.8797 3.02864 -0.790105 0
M  V30 104 C 14.3547 4.3656 -1.38491 0
M  V30 105 N 15.8457 4.43165 -1.34755 0
M  V30 106 C 16.5807 5.45153 -1.77753 0
M  V30 107 N 16.0767 6.54016 -2.2855 0
M  V30 108 N 17.8697 5.36125 -1.68897 0
M  V30 109 H 10.0207 1.4856 -1.51802 0
M  V30 110 H 12.2837 0.706305 -0.632327 0
M  V30 111 H 11.9897 2.97757 -1.87173 0
M  V30 112 H 11.8637 3.75957 -0.305915 0
M  V30 113 H 14.2507 2.94014 0.252913 0
M  V30 114 H 14.3317 2.17782 -1.34181 0
M  V30 115 H 13.9757 4.46164 -2.42693 0
M  V30 116 H 13.9057 5.20353 -0.808754 0
M  V30 117 H 16.3967 3.65083 -0.975855 0
M  V30 118 H 16.7097 7.27994 -2.59314 0
M  V30 119 H 15.0547 6.54938 -2.32553 0
M  V30 120 H 18.2457 4.49975 -1.28998 0
M  V30 121 H 18.4187 6.15472 -2.02726 0
M  V30 122 N 11.8248 0.280983 1.55075 0
M  V30 123 C 13.0728 -0.333455 1.9933 0
M  V30 124 C 13.3938 -1.55937 1.17085 0
M  V30 125 O 12.6638 -1.94143 0.261805 0
M  V30 126 H 11.2438 -0.126197 0.736263 0
M  V30 127 H 13.9058 0.387678 1.91005 0
M  V30 128 H 13.0018 -0.619292 3.05894 0
M  V30 129 N 13.3029 -1.57598 0.00835791 0
M  V30 130 C 14.2329 -2.1198 -0.979113 0
M  V30 131 C 15.2139 -1.03091 -1.35301 0
M  V30 132 O 16.3989 -1.30818 -1.43528 0
M  V30 133 C 13.5289 -2.62995 -2.26828 0
M  V30 134 C 12.4829 -3.76485 -2.03576 0
M  V30 135 C 11.8089 -4.13846 -3.38579 0
M  V30 136 C 13.1089 -5.0342 -1.39161 0
M  V30 137 H 14.8029 -2.94738 -0.526281 0
M  V30 138 H 12.3489 -1.41783 -0.251704 0
M  V30 139 H 14.3019 -2.99669 -2.96271 0
M  V30 140 H 13.0259 -1.7737 -2.7424 0
M  V30 141 H 11.6849 -3.40217 -1.36557 0
M  V30 142 H 11.3329 -3.25232 -3.83709 0
M  V30 143 H 11.0329 -4.90312 -3.23834 0
M  V30 144 H 12.5569 -4.53086 -4.09323 0
M  V30 145 H 13.9709 -5.37812 -1.98573 0
M  V30 146 H 12.3679 -5.84746 -1.34878 0
M  V30 147 H 13.4379 -4.83548 -0.361868 0
M  V30 148 N 14.781 0.264519 -1.55364 0
M  V30 149 C 16.027 0.99646 -1.76631 0
M  V30 150 C 16.36 1.85632 -0.570478 0
M  V30 151 O 15.635 1.89647 0.43175 0
M  V30 152 C 15.918 1.87187 -3.07625 0
M  V30 153 C 15.771 1.04138 -4.37579 0
M  V30 154 C 17.09 2.85749 -3.34717 0
M  V30 155 H 14.209 0.360841 -0.642622 0
M  V30 156 H 16.851 0.268218 -1.88097 0
M  V30 157 H 15.001 2.49279 -2.9798 0
M  V30 158 H 16.673 0.440517 -4.59192 0
M  V30 159 H 14.916 0.345115 -4.32425 0
M  V30 160 H 15.587 1.68729 -5.2558 0
M  V30 161 H 18.063 2.33793 -3.4421 0
M  V30 162 H 16.939 3.44136 -4.27623 0
M  V30 163 H 17.2 3.61311 -2.54768 0
M  V30 164 N 16.2591 1.48442 0.529413 0
M  V30 165 C 17.2221 1.62524 1.61612 0
M  V30 166 C 18.2221 0.498509 1.52877 0
M  V30 167 O 19.4121 0.76431 1.56537 0
M  V30 168 C 16.5441 1.59597 3.01233 0
M  V30 169 H 17.7371 2.59423 1.50465 0
M  V30 170 H 15.2901 1.37047 0.751514 0
M  V30 171 H 16.0251 0.641781 3.17886 0
M  V30 172 H 15.8101 2.41397 3.08982 0
M  V30 173 H 17.3001 1.72646 3.80241 0
M  V30 174 N 17.7372 -0.778329 1.37039 0
M  V30 175 C 19.1482 -1.35421 1.28523 0
M  V30 176 C 19.4992 -1.96075 -0.0700901 0
M  V30 177 O 18.6242 -1.93352 -0.971801 0
M  V30 178 C 19.2192 -2.46211 2.32735 0
M  V30 179 C 17.7782 -2.99585 2.27873 0
M  V30 180 C 16.9252 -1.72748 2.16918 0
M  V30 181 H 19.8762 -0.5791 1.47757 0
M  V30 182 H 19.8972 -3.2552 1.9702 0
M  V30 183 H 19.4092 -2.02036 3.31365 0
M  V30 184 H 17.5102 -3.48152 1.32745 0
M  V30 185 H 17.6232 -3.55646 3.21018 0
M  V30 186 H 15.9872 -1.95416 1.63354 0
M  V30 187 H 16.7702 -1.30686 3.17452 0
M  V30 188 N 19.2153 -1.21501 -1.00376 0
M  V30 189 C 20.1473 -0.933174 -2.09343 0
M  V30 190 C 21.1603 0.0840896 -1.62583 0
M  V30 191 O 22.3493 -0.148563 -1.77881 0
M  V30 192 C 19.4493 -0.379869 -3.36764 0
M  V30 193 C 18.6223 -1.45176 -4.12605 0
M  V30 194 C 17.6813 -0.907476 -5.18316 0
M  V30 195 O 16.7073 -1.5912 -5.46507 0
M  V30 196 N 17.9093 0.276649 -5.7984 0
M  V30 197 H 20.6743 -1.87124 -2.34104 0
M  V30 198 H 18.2353 -1.12043 -1.16867 0
M  V30 199 H 20.2273 -0.00131488 -4.047 0
M  V30 200 H 18.7973 0.463048 -3.09151 0
M  V30 201 H 18.0173 -2.00411 -3.39454 0
M  V30 202 H 19.3053 -2.17328 -4.6005 0
M  V30 203 H 18.7033 0.849147 -5.59291 0
M  V30 204 H 17.2603 0.596702 -6.49063 0
M  V30 205 N 20.6934 1.19889 -1.02296 0
M  V30 206 C 21.6414 2.24938 -0.592081 0
M  V30 207 C 22.6354 1.65257 0.372357 0
M  V30 208 O 23.8414 1.78371 0.241583 0
M  V30 209 H 20.2164 0.731787 -0.173182 0
M  V30 210 H 22.1874 2.58603 -1.48885 0
M  V30 211 C 20.9364 3.47668 0.047351 0
M  V30 212 H 20.2594 3.93875 -0.685772 0
M  V30 213 H 21.6994 4.22852 0.311862 0
M  V30 214 C 20.1584 3.11136 1.29212 0
M  V30 215 O 20.6884 3.2325 2.38479 0
M  V30 216 N 18.8944 2.65625 1.17863 0
M  V30 217 H 18.4414 2.55968 0.289493 0
M  V30 218 H 18.3994 2.41553 2.01245 0
M  V30 219 N 22.1715 0.800033 1.35784 0
M  V30 220 C 23.3995 0.389606 2.03199 0
M  V30 221 C 23.8145 -0.997375 1.60306 0
M  V30 222 O 23.1715 -1.64154 0.797481 0
M  V30 223 C 23.2225 0.455855 3.58614 0
M  V30 224 O 22.9435 1.78815 3.99946 0
M  V30 225 C 24.4445 0.0374032 4.43284 0
M  V30 226 H 21.6645 0.159132 0.651857 0
M  V30 227 H 24.2085 1.08183 1.73541 0
M  V30 228 H 22.3635 -0.188057 3.86943 0
M  V30 229 H 22.7775 1.74636 4.94573 0
M  V30 230 H 24.2515 0.134882 5.51835 0
M  V30 231 H 24.7285 -1.01651 4.27275 0
M  V30 232 H 25.3345 0.654215 4.20238 0
M  V30 233 N 23.6496 -1.47581 0.552962 0
M  V30 234 C 24.8966 -2.02482 0.0273243 0
M  V30 235 C 25.2246 -1.42776 -1.32081 0
M  V30 236 O 24.4796 -0.571393 -1.87173 0
M  V30 237 C 24.7786 -3.57199 -0.119728 0
M  V30 238 C 24.4446 -4.35804 1.15697 0
M  V30 239 C 23.1066 -4.57 1.50681 0
M  V30 240 C 25.4586 -4.81167 2.00319 0
M  V30 241 C 22.7866 -5.20807 2.70142 0
M  V30 242 C 25.1386 -5.46293 3.18978 0
M  V30 243 C 23.8026 -5.65722 3.54281 0
M  V30 244 H 23.0726 -0.740933 0.00999866 0
M  V30 245 H 25.7196 -1.77302 0.72362 0
M  V30 246 H 24.0246 -3.81348 -0.89896 0
M  V30 247 H 25.7216 -3.97324 -0.541718 0
M  V30 248 H 22.3116 -4.19582 0.874561 0
M  V30 249 H 26.4956 -4.64574 1.74599 0
M  V30 250 H 21.7516 -5.34045 2.97668 0
M  V30 251 H 25.9256 -5.80407 3.84838 0
M  V30 252 H 23.5526 -6.14936 4.46942 0
M  V30 253 N 25.1277 -0.289203 -1.54924 0
M  V30 254 C 26.0577 0.58549 -2.2604 0
M  V30 255 C 27.0387 1.14753 -1.25562 0
M  V30 256 O 28.2237 1.17906 -1.54311 0
M  V30 257 C 25.3537 1.76305 -2.99222 0
M  V30 258 C 24.3077 1.33191 -4.06748 0
M  V30 259 C 23.6337 2.5937 -4.6758 0
M  V30 260 C 24.9337 0.471775 -5.20165 0
M  V30 261 H 26.6277 -0.00763532 -2.99399 0
M  V30 262 H 24.1737 -0.00511229 -1.43999 0
M  V30 263 H 26.1267 2.38097 -3.47689 0
M  V30 264 H 24.8507 2.38223 -2.23422 0
M  V30 265 H 23.5097 0.737121 -3.59113 0
M  V30 266 H 23.1577 3.19576 -3.88433 0
M  V30 267 H 22.8577 2.31228 -5.40192 0
M  V30 268 H 24.3817 3.21985 -5.18804 0
M  V30 269 H 25.7957 0.995056 -5.64599 0
M  V30 270 H 24.1927 0.284639 -5.99425 0
M  V30 271 H 25.2627 -0.506041 -4.82252 0
M  V30 272 N 26.6058 1.57591 -0.0167156 0
M  V30 273 C 27.5158 2.1291 0.98521 0
M  V30 274 C 28.5318 1.07834 1.36557 0
M  V30 275 O 29.7078 1.39826 1.44951 0
M  V30 276 C 26.7728 2.63512 2.25305 0
M  V30 277 C 25.8338 3.83256 1.93426 0
M  V30 278 C 25.0668 4.31435 3.14165 0
M  V30 279 O 25.2898 3.78851 4.26413 0
M  V30 280 O 24.2238 5.23416 2.97186 0
M  V30 281 H 28.0498 2.98772 0.544888 0
M  V30 282 H 25.6348 1.48012 0.203141 0
M  V30 283 H 27.5168 2.96183 2.99756 0
M  V30 284 H 26.1918 1.8074 2.68542 0
M  V30 285 H 25.0988 3.55531 1.16398 0
M  V30 286 H 26.4318 4.67153 1.55013 0
M  V30 287 N 28.0839 -0.256276 1.55502 0
M  V30 288 C 29.0319 -1.33694 1.90338 0
M  V30 289 C 30.0259 -1.50299 0.781441 0
M  V30 290 O 31.2319 -1.51885 0.965966 0
M  V30 291 H 27.6069 -0.447483 0.60437 0
M  V30 292 H 29.5779 -1.01574 2.8058 0
M  V30 293 C 28.3269 -2.68724 2.20642 0
M  V30 294 H 27.6499 -2.56743 3.06469 0
M  V30 295 H 29.0899 -3.43237 2.48926 0
M  V30 296 C 27.5489 -3.21101 1.01959 0
M  V30 297 O 28.0789 -4.0084 0.262762 0
M  V30 298 N 26.2849 -2.79003 0.812746 0
M  V30 299 H 25.8319 -2.14271 1.42989 0
M  V30 300 H 25.7899 -3.14393 0.0203076 0
M  V30 301 N 29.562 -1.4872 -0.521534 0
M  V30 302 C 30.811 -1.56419 -1.27341 0
M  V30 303 C 31.124 -0.246805 -1.94037 0
M  V30 304 O 32.33 -0.202122 -2.70747 0
M  V30 305 C 30.786 -2.75896 -2.31105 0
M  V30 306 C 30.394 -4.14311 -1.70441 0
M  V30 307 C 32.138 -2.92913 -3.07249 0
M  V30 308 C 30.045 -5.25038 -2.72194 0
M  V30 309 H 28.975 -0.582344 -0.478949 0
M  V30 310 H 31.626 -1.75071 -0.549779 0
M  V30 311 H 30.008 -2.50697 -3.06541 0
M  V30 312 H 31.182 -4.49564 -1.01136 0
M  V30 313 H 29.497 -4.02482 -1.06759 0
M  V30 314 H 32.094 -3.72805 -3.83302 0
M  V30 315 H 32.437 -2.02689 -3.63625 0
M  V30 316 H 32.97 -3.18054 -2.38928 0
M  V30 317 H 29.709 -6.17255 -2.20627 0
M  V30 318 H 29.229 -4.94263 -3.39801 0
M  V30 319 H 30.908 -5.53508 -3.35019 0
M  V30 320 N 31.0401 0.771051 -1.3745 0
M  V30 321 C 32.2861 1.5319 -1.32894 0
M  V30 322 C 32.6191 1.94008 0.0862511 0
M  V30 323 O 31.8941 1.64124 1.04373 0
M  V30 324 C 32.1771 2.79648 -2.26868 0
M  V30 325 C 32.0301 2.45079 -3.77169 0
M  V30 326 C 33.3491 3.81583 -2.19277 0
M  V30 327 H 30.4681 0.555744 -0.484064 0
M  V30 328 H 33.1101 0.884492 -1.68157 0
M  V30 329 H 31.2601 3.34891 -1.96926 0
M  V30 330 H 32.9321 1.95745 -4.1771 0
M  V30 331 H 31.1751 1.77767 -3.95704 0
M  V30 332 H 31.8461 3.35478 -4.38359 0
M  V30 333 H 34.3221 3.35835 -2.45671 0
M  V30 334 H 33.1981 4.67787 -2.87171 0
M  V30 335 H 33.4591 4.25897 -1.18592 0
M  V30 336 N 32.5182 1.22032 0.997298 0
M  V30 337 C 33.9342 0.979326 1.26021 0
M  V30 338 C 34.1342 -0.32972 1.98784 0
M  V30 339 O 33.1902 -1.05345 2.29475 0
M  V30 340 C 34.5032 2.17509 2.07631 0
M  V30 341 C 36.0512 2.21817 2.2083 0
M  V30 342 C 36.5262 3.40933 3.05825 0
M  V30 343 N 38.0172 3.41067 3.13412 0
M  V30 344 C 38.7522 4.29885 3.79455 0
M  V30 345 N 38.2482 5.28914 4.47462 0
M  V30 346 N 40.0412 4.17673 3.76173 0
M  V30 347 H 32.1922 2.06202 0.509352 0
M  V30 348 H 34.4552 0.90334 0.287541 0
M  V30 349 H 34.1612 3.12415 1.61524 0
M  V30 350 H 34.0352 2.17206 3.08385 0
M  V30 351 H 36.4222 1.27462 2.66153 0
M  V30 352 H 36.5032 2.2616 1.1952 0
M  V30 353 H 36.1472 4.35586 2.61203 0
M  V30 354 H 36.0772 3.33829 4.07266 0
M  V30 355 H 38.5682 2.69406 2.65007 0
M  V30 356 H 38.8812 5.92973 4.95583 0
M  V30 357 H 37.2262 5.32831 4.46224 0
M  V30 358 H 40.4172 3.39564 3.22202 0
M  V30 359 H 40.5902 4.87098 4.27363 0
M  V30 360 N 33.9963 -1.19345 1.0293 0
M  V30 361 C 35.4123 -1.41069 0.746446 0
M  V30 362 C 35.6123 -1.90078 -0.668776 0
M  V30 363 O 34.6683 -2.0778 -1.4347 0
M  V30 364 C 35.9813 -2.42141 1.78292 0
M  V30 365 C 37.5293 -2.55887 1.80252 0
M  V30 366 C 38.0043 -3.60214 2.8286 0
M  V30 367 N 39.4953 -3.67711 2.81679 0
M  V30 368 C 40.2303 -4.48128 3.57727 0
M  V30 369 N 39.7263 -5.32248 4.43491 0
M  V30 370 N 41.5193 -4.42782 3.46267 0
M  V30 371 H 33.6703 -0.858536 1.94275 0
M  V30 372 H 35.9333 -0.439541 0.839945 0
M  V30 373 H 35.6393 -2.13155 2.79746 0
M  V30 374 H 35.5133 -3.41323 1.60557 0
M  V30 375 H 37.9003 -2.84196 0.794757 0
M  V30 376 H 37.9813 -1.56858 2.02062 0
M  V30 377 H 37.6253 -3.32647 3.83807 0
M  V30 378 H 37.5553 -4.58895 2.58307 0
M  V30 379 H 40.0463 -3.07634 2.19476 0
M  V30 380 H 40.3593 -5.90729 4.98256 0
M  V30 381 H 38.7043 -5.31707 4.47564 0
M  V30 382 H 41.8953 -3.76107 2.78677 0
M  V30 383 H 42.0683 -5.05215 4.05785 0
M  V30 384 N 35.4744 -0.807222 -1.35358 0
M  V30 385 C 36.6994 -0.399309 -2.0352 0
M  V30 386 C 37.1244 0.981986 -1.60433 0
M  V30 387 O 36.4824 1.63601 -0.781299 0
M  V30 388 C 36.5304 -0.491552 -3.57234 0
M  V30 389 O 35.6344 0.494754 -4.09421 0
M  V30 390 H 34.9754 -0.166682 -0.642739 0
M  V30 391 H 37.5054 -1.09328 -1.72941 0
M  V30 392 H 37.5154 -0.361588 -4.06395 0
M  V30 393 H 36.1904 -1.49907 -3.87944 0
M  V30 394 H 34.7674 0.324977 -3.71481 0
M  V30 395 N 36.9525 1.47285 -0.560781 0
M  V30 396 C 37.9005 2.31756 0.197942 0
M  V30 397 C 38.8945 1.43146 0.905854 0
M  V30 398 O 40.1005 1.59891 0.826733 0
M  V30 399 H 36.4755 0.747438 0.0827049 0
M  V30 400 H 38.4465 2.9359 -0.533629 0
M  V30 401 C 37.1955 3.25874 1.21249 0
M  V30 402 H 36.5185 3.94023 0.67719 0
M  V30 403 H 37.9585 3.87803 1.71419 0
M  V30 404 C 36.4175 2.49651 2.26221 0
M  V30 405 O 36.9475 2.24355 3.33208 0
M  V30 406 N 35.1535 2.10597 2.00243 0
M  V30 407 H 34.7005 2.31369 1.13252 0
M  V30 408 H 34.6585 1.59913 2.70694 0
M  V30 409 N 38.4306 0.297415 1.54768 0
M  V30 410 C 39.7076 -0.365847 1.92148 0
M  V30 411 C 40.0876 -1.71975 1.22424 0
M  V30 412 O 39.4356 -2.25666 0.358739 0
M  V30 413 C 39.6456 -0.484056 3.45627 0
M  V30 414 C 40.9936 -0.756594 4.17805 0
M  V30 415 O 42.0176 -0.568007 3.51642 0
M  V30 416 O 40.8766 -1.11863 5.34929 0
M  V30 417 H 37.9706 -0.203919 0.801465 0
M  V30 418 H 40.5166 0.34521 1.66152 0
M  V30 419 H 39.2886 0.467865 3.88493 0
M  V30 420 H 38.9116 -1.24372 3.77647 0
M  V30 421 N 39.9087 -1.5758 0.0250728 0
M  V30 422 C 41.1367 -1.9593 -0.664747 0
M  V30 423 C 41.5517 -0.901352 -1.65895 0
M  V30 424 O 40.9087 0.117255 -1.82123 0
M  V30 425 C 40.9597 -3.34342 -1.37468 0
M  V30 426 O 40.6807 -4.36079 -0.420324 0
M  V30 427 C 42.1817 -3.873 -2.1567 0
M  V30 428 H 39.4017 -0.645405 -0.183557 0
M  V30 429 H 41.9457 -2.04329 0.0836372 0
M  V30 430 H 40.1007 -3.27175 -2.0745 0
M  V30 431 H 40.5147 -5.16297 -0.923991 0
M  V30 432 H 41.9887 -4.86504 -2.60803 0
M  V30 433 H 42.4657 -3.21331 -2.99405 0
M  V30 434 H 43.0717 -3.97723 -1.50654 0
M  V30 435 N 41.3868 0.248026 -1.55636 0
M  V30 436 C 42.3348 1.32683 -1.91045 0
M  V30 437 C 43.3288 1.49883 -0.789401 0
M  V30 438 O 44.5348 1.51371 -0.974007 0
M  V30 439 H 40.9098 0.444272 -0.606734 0
M  V30 440 H 42.8808 1.00085 -2.81115 0
M  V30 441 C 41.6298 2.6755 -2.22064 0
M  V30 442 H 40.9528 2.55114 -3.07826 0
M  V30 443 H 42.3928 3.41912 -2.50743 0
M  V30 444 C 40.8518 3.20556 -1.0366 0
M  V30 445 O 41.3818 4.00695 -0.284016 0
M  V30 446 N 39.5878 2.78568 -0.82753 0
M  V30 447 H 39.1348 2.1351 -1.44123 0
M  V30 448 H 39.0928 3.14378 -0.0369803 0
M  V30 449 N 42.8649 1.48995 0.513639 0
M  V30 450 C 44.1119 1.57843 1.26854 0
M  V30 451 C 44.4399 0.259501 1.92761 0
M  V30 452 O 43.6949 -0.75159 1.80692 0
M  V30 453 C 43.9939 2.67756 2.36731 0
M  V30 454 C 43.6599 4.09669 1.88368 0
M  V30 455 C 42.3219 4.48291 1.74896 0
M  V30 456 C 44.6739 4.98537 1.52021 0
M  V30 457 C 42.0019 5.73568 1.23438 0
M  V30 458 C 44.3539 6.24319 1.0202 0
M  V30 459 C 43.0179 6.61783 0.871778 0
M  V30 460 H 42.2879 0.577587 0.464192 0
M  V30 461 H 44.9349 1.82778 0.571366 0
M  V30 462 H 43.2399 2.36743 3.12185 0
M  V30 463 H 44.9369 2.71813 2.9482 0
M  V30 464 H 41.5269 3.79176 1.99808 0
M  V30 465 H 45.7109 4.69363 1.61281 0
M  V30 466 H 40.9669 6.01304 1.10648 0
M  V30 467 H 45.1409 6.92566 0.729722 0
M  V30 468 H 42.7679 7.5874 0.470852 0
M  V30 469 N 44.343 -0.763751 1.37857 0
M  V30 470 C 45.589 -1.52483 1.33704 0
M  V30 471 C 45.922 -1.94051 -0.0759612 0
M  V30 472 O 45.197 -1.64675 -1.03501 0
M  V30 473 C 45.48 -2.78441 2.28348 0
M  V30 474 C 45.333 -2.43075 3.78463 0
M  V30 475 C 46.652 -3.80415 2.21298 0
M  V30 476 H 43.771 -0.553169 0.487005 0
M  V30 477 H 46.413 -0.875562 1.68624 0
M  V30 478 H 44.563 -3.33842 1.987 0
M  V30 479 H 46.235 -1.93527 4.18742 0
M  V30 480 H 44.478 -1.75666 3.96641 0
M  V30 481 H 45.149 -3.33149 4.40132 0
M  V30 482 H 47.625 -3.34527 2.47449 0
M  V30 483 H 46.501 -4.66257 2.89647 0
M  V30 484 H 46.762 -4.25262 1.20849 0
M  V30 485 N 45.8211 -1.22559 -0.990812 0
M  V30 486 C 46.7511 -1.0218 -2.09956 0
M  V30 487 C 47.7321 0.0579394 -1.70001 0
M  V30 488 O 48.9171 -0.104684 -1.93918 0
M  V30 489 C 46.0471 -0.601023 -3.4206 0
M  V30 490 C 45.0011 -1.62694 -3.95872 0
M  V30 491 C 44.3271 -1.06193 -5.24049 0
M  V30 492 C 45.6271 -3.01743 -4.2632 0
M  V30 493 H 47.3211 -1.94916 -2.27262 0
M  V30 494 H 44.8671 -0.938566 -1.09211 0
M  V30 495 H 46.8201 -0.445561 -4.19038 0
M  V30 496 H 45.5441 0.362005 -3.24588 0
M  V30 497 H 44.2031 -1.77021 -3.21028 0
M  V30 498 H 43.8511 -0.0901903 -5.02919 0
M  V30 499 H 43.5511 -1.74732 -5.61019 0
M  V30 500 H 45.0751 -0.918092 -6.03658 0
M  V30 501 H 46.4891 -2.90777 -4.94087 0
M  V30 502 H 44.8861 -3.67425 -4.74467 0
M  V30 503 H 45.9561 -3.51518 -3.34011 0
M  V30 504 N 47.2992 1.18797 -1.03562 0
M  V30 505 C 48.5472 1.88278 -0.734569 0
M  V30 506 C 48.8682 1.8043 0.739586 0
M  V30 507 O 48.1382 1.21925 1.53333 0
M  V30 508 H 46.7182 0.696991 -0.268725 0
M  V30 509 H 49.3802 1.44192 -1.31129 0
M  V30 510 H 48.4762 2.94443 -1.03489 0
M  V30 511 N 48.7773 0.814389 1.34928 0
M  V30 512 C 49.7253 0.218424 2.31572 0
M  V30 513 C 50.7193 -0.636128 1.57002 0
M  V30 514 O 51.9253 -0.52842 1.72069 0
M  V30 515 H 48.3003 0.0518799 0.750208 0
M  V30 516 H 50.2713 1.04852 2.79372 0
M  V30 517 C 49.0203 -0.61207 3.4227 0
M  V30 518 H 48.3433 0.0361578 3.99784 0
M  V30 519 H 49.7833 -0.995317 4.12152 0
M  V30 520 C 48.2423 -1.78087 2.85984 0
M  V30 521 O 48.7723 -2.8787 2.80168 0
M  V30 522 N 46.9783 -1.59488 2.42924 0
M  V30 523 H 46.5253 -0.701874 2.47854 0
M  V30 524 H 46.4833 -2.37846 2.05613 0
M  V30 525 N 50.2554 -1.46986 0.568584 0
M  V30 526 C 51.2184 -2.28624 -0.162366 0
M  V30 527 C 52.2184 -1.37596 -0.832103 0
M  V30 528 O 53.4084 -1.60115 -0.68622 0
M  V30 529 C 50.5404 -3.17596 -1.23878 0
M  V30 530 H 51.7334 -2.94722 0.554899 0
M  V30 531 H 49.2864 -1.52863 0.325976 0
M  V30 532 H 50.0214 -2.56214 -1.98808 0
M  V30 533 H 49.8064 -3.846 -0.763219 0
M  V30 534 H 51.2964 -3.79078 -1.75185 0
M  V30 535 N 51.7335 -0.305618 -1.54608 0
M  V30 536 C 52.6655 0.602161 -2.21149 0
M  V30 537 C 53.6785 1.09394 -1.20569 0
M  V30 538 O 54.8675 1.0106 -1.47136 0
M  V30 539 C 51.9675 1.83692 -2.84799 0
M  V30 540 C 51.1405 1.48686 -4.11353 0
M  V30 541 C 50.1995 2.57725 -4.58764 0
M  V30 542 O 49.2255 2.22623 -5.23858 0
M  V30 543 N 50.4275 3.88346 -4.31471 0
M  V30 544 H 53.1925 0.0324966 -2.99682 0
M  V30 545 H 50.7535 -0.128021 -1.61393 0
M  V30 546 H 52.7455 2.55994 -3.13448 0
M  V30 547 H 51.3155 2.31486 -2.10078 0
M  V30 548 H 50.5355 0.596269 -3.89664 0
M  V30 549 H 51.8235 1.22842 -4.93748 0
M  V30 550 H 51.2215 4.19671 -3.79331 0
M  V30 551 H 49.7785 4.56932 -4.64818 0
M  V30 552 N 53.2116 1.57565 -0.0334293 0
M  V30 553 C 54.4606 1.91155 0.643639 0
M  V30 554 C 54.7736 0.91192 1.73042 0
M  V30 555 O 55.9796 1.13923 2.46442 0
M  V30 556 C 54.4356 3.39443 1.1961 0
M  V30 557 C 54.0436 4.47774 0.142381 0
M  V30 558 C 55.7876 3.82094 1.84944 0
M  V30 559 C 53.6946 5.87162 0.706727 0
M  V30 560 H 52.6246 0.713368 0.244176 0
M  V30 561 H 55.2756 1.8323 -0.0994323 0
M  V30 562 H 53.6576 3.42313 1.99092 0
M  V30 563 H 54.8316 4.56469 -0.630296 0
M  V30 564 H 53.1466 4.14352 -0.412446 0
M  V30 565 H 55.7436 4.83591 2.2813 0
M  V30 566 H 56.0866 3.17386 2.69392 0
M  V30 567 H 56.6196 3.81665 1.12145 0
M  V30 568 H 53.3586 6.55424 -0.0997178 0
M  V30 569 H 52.8786 5.82064 1.44779 0
M  V30 570 H 54.5576 6.35866 1.19514 0
M  V30 571 N 54.6897 -0.239769 1.55765 0
M  V30 572 C 55.9357 -0.968234 1.78194 0
M  V30 573 C 56.2687 -1.84701 0.599938 0
M  V30 574 O 55.5437 -1.9031 -0.401524 0
M  V30 575 C 55.8267 -1.8227 3.10564 0
M  V30 576 C 55.6797 -0.971633 4.3918 0
M  V30 577 C 56.9987 -2.80388 3.39221 0
M  V30 578 H 54.1177 -0.350572 0.648281 0
M  V30 579 H 56.7597 -0.238259 1.885 0
M  V30 580 H 54.9097 -2.44507 3.01908 0
M  V30 581 H 56.5817 -0.367408 4.59835 0
M  V30 582 H 54.8247 -0.276276 4.32919 0
M  V30 583 H 55.4957 -1.60346 5.28198 0
M  V30 584 H 57.9717 -2.28287 3.47885 0
M  V30 585 H 56.8477 -3.3729 4.33044 0
M  V30 586 H 57.1087 -3.57212 2.60484 0
M  V30 587 N 56.1678 -1.49265 -0.50573 0
M  V30 588 C 57.4448 -1.49012 -1.26707 0
M  V30 589 C 57.8248 -0.215205 -2.1 0
M  V30 590 O 57.1728 0.802547 -2.13943 0
M  V30 591 C 57.3828 -2.7663 -2.12783 0
M  V30 592 C 58.7308 -3.25932 -2.72127 0
M  V30 593 O 59.7548 -2.77715 -2.23054 0
M  V30 594 O 58.6138 -4.09897 -3.61451 0
M  V30 595 H 55.7078 -0.596197 -0.57313 0
M  V30 596 H 58.2538 -1.61524 -0.52039 0
M  V30 597 H 57.0258 -3.60916 -1.5118 0
M  V30 598 H 56.6488 -2.66956 -2.94653 0
M  V30 599 N 57.6459 0.756429 -1.3826 0
M  V30 600 C 58.8919 1.5168 -1.35517 0
M  V30 601 C 59.2469 1.9232 0.0554451 0
M  V30 602 O 58.5399 1.62352 1.01746 0
M  V30 603 C 58.7339 2.78313 -2.24224 0
M  V30 604 C 58.5629 2.50053 -3.7377 0
M  V30 605 C 57.3329 2.43414 -4.42807 0
M  V30 606 C 59.5309 2.1702 -4.66269 0
M  V30 607 N 57.5129 2.07398 -5.77805 0
M  V30 608 C 58.8839 1.91271 -5.89759 0
M  V30 609 C 60.9389 2.03305 -4.54501 0
M  V30 610 C 59.6419 1.53192 -7.02798 0
M  V30 611 C 61.6679 1.66627 -5.67441 0
M  V30 612 C 61.0299 1.4175 -6.8999 0
M  V30 613 H 57.1289 0.554735 -0.551174 0
M  V30 614 H 59.7129 0.881106 -1.73622 0
M  V30 615 H 57.8839 3.39696 -1.88311 0
M  V30 616 H 59.6159 3.44343 -2.12627 0
M  V30 617 H 56.3709 2.59789 -3.95988 0
M  V30 618 H 56.7949 1.92044 -6.4919 0
M  V30 619 H 61.4369 2.21215 -3.60311 0
M  V30 620 H 59.1549 1.34022 -7.96909 0
M  V30 621 H 62.7409 1.56652 -5.60314 0
M  V30 622 H 61.6209 1.1379 -7.759 0
M  V30 623 N 59.124 1.23083 0.984299 0
M  V30 624 C 60.535 1.05609 1.5396 0
M  V30 625 C 60.886 -0.377793 1.92528 0
M  V30 626 O 60.011 -1.26398 1.75649 0
M  V30 627 C 60.606 1.91087 2.7977 0
M  V30 628 C 59.165 1.77885 3.31713 0
M  V30 629 C 58.312 1.87028 2.04733 0
M  V30 630 H 61.263 1.36802 0.804419 0
M  V30 631 H 61.284 1.43336 3.5247 0
M  V30 632 H 60.796 2.9544 2.51668 0
M  V30 633 H 58.897 0.762995 3.64704 0
M  V30 634 H 59.01 2.61047 4.01735 0
M  V30 635 H 57.374 1.30565 2.18689 0
M  V30 636 H 58.157 2.92929 1.79017 0
M  V30 637 N 60.6021 -1.18246 1.0419 0
M  V30 638 C 61.8511 -1.87588 0.741194 0
M  V30 639 C 62.1641 -1.81303 -0.734066 0
M  V30 640 O 63.3701 -2.46019 -1.14834 0
M  V30 641 C 61.8261 -3.36538 1.27555 0
M  V30 642 C 61.4341 -3.51349 2.77953 0
M  V30 643 C 63.1781 -4.11273 1.05143 0
M  V30 644 C 61.0851 -4.94265 3.2474 0
M  V30 645 H 60.0151 -0.702622 0.273565 0
M  V30 646 H 62.6661 -1.33601 1.25789 0
M  V30 647 H 61.0481 -3.9 0.686703 0
M  V30 648 H 62.2221 -3.08153 3.42605 0
M  V30 649 H 60.5371 -2.90022 2.98791 0
M  V30 650 H 63.1341 -5.16689 1.37611 0
M  V30 651 H 63.4771 -4.16298 -0.0112774 0
M  V30 652 H 64.0101 -3.63987 1.60495 0
M  V30 653 H 60.7491 -4.94408 4.30396 0
M  V30 654 H 60.2691 -5.38172 2.64823 0
M  V30 655 H 61.9481 -5.62987 3.18834 0
M  V30 656 N 62.0802 -0.821533 -1.34494 0
M  V30 657 C 63.3262 -0.409552 -1.98622 0
M  V30 658 C 63.6592 1.0244 -1.64984 0
M  V30 659 O 62.9342 1.71325 -0.920758 0
M  V30 660 C 63.2172 -0.610458 -3.54888 0
M  V30 661 C 63.0702 -2.09043 -3.98273 0
M  V30 662 C 64.3892 -0.0455379 -4.40076 0
M  V30 663 H 61.5082 -0.15028 -0.721516 0
M  V30 664 H 64.1502 -1.03384 -1.59411 0
M  V30 665 H 62.3002 -0.079044 -3.8842 0
M  V30 666 H 63.9722 -2.68537 -3.75081 0
M  V30 667 H 62.2152 -2.58139 -3.48635 0
M  V30 668 H 62.8862 -2.18182 -5.07051 0
M  V30 669 H 65.3622 -0.499557 -4.1309 0
M  V30 670 H 64.2382 -0.215922 -5.48475 0
M  V30 671 H 64.4992 1.04939 -4.29465 0
M  V30 672 N 63.5583 1.46682 -0.576371 0
M  V30 673 C 64.7883 2.06498 -0.0648694 0
M  V30 674 C 65.1963 1.42665 1.24271 0
M  V30 675 O 64.5393 0.523886 1.76071 0
M  V30 676 C 64.6013 3.5904 0.181816 0
M  V30 677 C 64.2653 4.45028 -1.0392 0
M  V30 678 C 65.2623 4.81959 -1.94966 0
M  V30 679 C 62.9473 4.86259 -1.25927 0
M  V30 680 C 64.9413 5.58942 -3.06371 0
M  V30 681 C 62.6283 5.63002 -2.37638 0
M  V30 682 C 63.6263 5.99257 -3.2769 0
M  V30 683 O 63.3143 6.7445 -4.37461 0
M  V30 684 H 63.0463 0.674028 -0.0515987 0
M  V30 685 H 65.6003 1.89393 -0.794951 0
M  V30 686 H 63.8303 3.74429 0.966436 0
M  V30 687 H 65.5193 4.00806 0.641047 0
M  V30 688 H 66.2853 4.50689 -1.79177 0
M  V30 689 H 62.1643 4.57494 -0.567448 0
M  V30 690 H 65.7083 5.87158 -3.76684 0
M  V30 691 H 61.6053 5.93686 -2.53392 0
M  V30 692 H 62.3733 6.92867 -4.35749 0
M  V30 693 N 65.0364 0.313813 1.54444 0
M  V30 694 C 66.2614 -0.296681 2.05267 0
M  V30 695 C 66.6864 -1.45757 1.18897 0
M  V30 696 O 66.0444 -1.80239 0.195886 0
M  V30 697 C 66.0924 -0.71831 3.53373 0
M  V30 698 O 65.1964 -1.82175 3.69981 0
M  V30 699 H 64.5374 -0.0554061 0.661684 0
M  V30 700 H 67.0674 0.459387 1.99376 0
M  V30 701 H 67.0774 -1.00364 3.95463 0
M  V30 702 H 65.7524 0.130821 4.15694 0
M  V30 703 H 64.3294 -1.53598 3.39797 0
M  V30 704 N 66.5145 -1.57545 0.0417849 0
M  V30 705 C 67.4625 -2.12148 -0.953723 0
M  V30 706 C 68.4565 -1.05104 -1.32852 0
M  V30 707 O 69.6625 -1.23524 -1.30927 0
M  V30 708 H 66.0375 -0.677957 -0.325389 0
M  V30 709 H 68.0085 -2.94707 -0.467991 0
M  V30 710 C 66.7575 -2.6739 -2.22257 0
M  V30 711 H 66.0805 -3.49413 -1.94295 0
M  V30 712 H 67.5205 -3.09227 -2.90094 0
M  V30 713 C 65.9795 -1.60723 -2.96091 0
M  V30 714 O 66.5095 -1.01449 -3.88679 0
M  V30 715 N 64.7155 -1.32466 -2.58652 0
M  V30 716 H 64.2625 -1.80856 -1.83437 0
M  V30 717 H 64.2205 -0.61325 -3.08361 0
M  V30 718 N 67.9926 0.231505 -1.5589 0
M  V30 719 C 69.2696 0.981096 -1.69215 0
M  V30 720 C 69.6496 2.02799 -0.586164 0
M  V30 721 O 68.9976 2.24823 0.408253 0
M  V30 722 C 69.2076 1.60054 -3.10135 0
M  V30 723 C 70.5556 2.09658 -3.69227 0
M  V30 724 O 71.5796 1.69967 -3.13033 0
M  V30 725 O 70.4386 2.8258 -4.67772 0
M  V30 726 H 67.5326 0.457653 -0.688827 0
M  V30 727 H 70.0786 0.224073 -1.68214 0
M  V30 728 H 68.8506 0.844105 -3.82087 0
M  V30 729 H 68.4736 2.42336 -3.15212 0
M  V30 730 N 69.4707 1.49531 0.497807 0
M  V30 731 C 70.7187 1.58865 1.24926 0
M  V30 732 C 71.0397 0.278721 1.92998 0
M  V30 733 O 70.3097 -0.702144 1.82885 0
M  V30 734 H 68.8897 0.585343 0.464094 0
M  V30 735 H 71.5517 1.86174 0.57666 0
M  V30 736 H 70.6477 2.38633 2.01149 0
M  V30 737 N 70.9488 -0.749086 1.3866 0
M  V30 738 C 72.1958 -1.50833 1.35114 0
M  V30 739 C 72.5238 -1.94415 -0.0574049 0
M  V30 740 O 71.7788 -1.66065 -1.03541 0
M  V30 741 C 72.0778 -2.7712 2.25697 0
M  V30 742 C 71.7438 -2.52477 3.73585 0
M  V30 743 C 70.4058 -2.45466 4.13884 0
M  V30 744 C 72.7578 -2.31066 4.67181 0
M  V30 745 C 70.0858 -2.15064 5.45861 0
M  V30 746 C 72.4378 -2.02183 5.9942 0
M  V30 747 C 71.1018 -1.93631 6.38798 0
M  V30 748 H 70.3718 -0.551936 0.494416 0
M  V30 749 H 73.0188 -0.860979 1.71054 0
M  V30 750 H 71.3238 -3.46528 1.82827 0
M  V30 751 H 73.0208 -3.35096 2.20254 0
M  V30 752 H 69.6108 -2.58807 3.41638 0
M  V30 753 H 73.7948 -2.35459 4.3689 0
M  V30 754 H 69.0508 -2.06954 5.75308 0
M  V30 755 H 73.2248 -1.8462 6.71482 0
M  V30 756 H 70.8518 -1.69839 7.40985 0
M  V30 757 N 72.4269 -1.23603 -0.977757 0
M  V30 758 C 73.6669 -1.08148 -1.73446 0
M  V30 759 C 74.0309 0.374785 -1.88307 0
M  V30 760 O 75.2319 0.650588 -2.60808 0
M  V30 761 C 73.5029 -1.78991 -3.0935 0
M  V30 762 S 75.0619 -1.79141 -4.00567 0
M  V30 763 H 71.8799 -0.386987 -0.596458 0
M  V30 764 H 74.4819 -1.5678 -1.16792 0
M  V30 765 H 73.1859 -2.8408 -2.96187 0
M  V30 766 H 72.7169 -1.30651 -3.71071 0
M  V30 767 H 74.7319 -0.851892 -4.88833 0
M  V30 768 N 73.905 1.17692 -1.04816 0
M  V30 769 C 74.852 2.21581 -0.645797 0
M  V30 770 C 75.822 1.62367 0.350159 0
M  V30 771 O 77.007 1.89254 0.242433 0
M  V30 772 C 74.147 3.45092 -0.0227568 0
M  V30 773 C 73.26 4.18613 -1.06709 0
M  V30 774 C 72.395 5.29602 -0.411767 0
M  V30 775 C 71.434 5.94904 -1.44067 0
M  V30 776 N 70.571 6.97414 -0.809781 0
M  V30 777 H 75.411 2.55353 -1.5362 0
M  V30 778 H 72.948 1.25438 -0.768364 0
M  V30 779 H 74.906 4.15679 0.35588 0
M  V30 780 H 73.536 3.11917 0.831122 0
M  V30 781 H 72.588 3.46779 -1.5636 0
M  V30 782 H 73.9 4.63293 -1.84827 0
M  V30 783 H 73.054 6.06696 0.0206623 0
M  V30 784 H 71.793 4.86045 0.401438 0
M  V30 785 H 70.798 5.16544 -1.88316 0
M  V30 786 H 72.023 6.40542 -2.25571 0
M  V30 787 H 69.969 6.55998 -0.0170186 0
M  V30 788 H 69.886 7.40386 -1.52856 0
M  V30 789 H 71.154 7.78463 -0.401999 0
M  V30 790 N 75.3831 0.828654 1.34056 0
M  V30 791 C 76.3131 0.269443 2.3194 0
M  V30 792 C 77.2941 -0.617247 1.58506 0
M  V30 793 O 78.4791 -0.542931 1.86456 0
M  V30 794 C 75.6091 -0.564793 3.42677 0
M  V30 795 C 74.5631 0.225241 4.27407 0
M  V30 796 C 73.8891 -0.7321 5.29664 0
M  V30 797 C 75.1891 1.43663 5.02154 0
M  V30 798 H 76.8831 1.08728 2.7896 0
M  V30 799 H 74.4291 0.524283 1.34117 0
M  V30 800 H 76.3821 -0.966233 4.10173 0
M  V30 801 H 75.1061 -1.41574 2.9432 0
M  V30 802 H 73.7651 0.608117 3.61521 0
M  V30 803 H 73.4131 -1.57916 4.77568 0
M  V30 804 H 73.1131 -0.20767 5.87233 0
M  V30 805 H 74.6371 -1.13128 6.00029 0
M  V30 806 H 76.0511 1.1089 5.62473 0
M  V30 807 H 74.4481 1.89711 5.69324 0
M  V30 808 H 75.5181 2.21181 4.31517 0
M  V30 809 N 76.8612 -1.46375 0.584142 0
M  V30 810 C 78.0862 -2.07268 0.0740405 0
M  V30 811 C 78.5112 -1.42979 -1.22223 0
M  V30 812 O 77.8692 -0.514092 -1.73859 0
M  V30 813 C 77.9172 -3.60518 -0.0767769 0
M  V30 814 O 77.0212 -3.96533 -1.13292 0
M  V30 815 H 76.3622 -0.660961 0.0634524 0
M  V30 816 H 78.8922 -1.87991 0.807492 0
M  V30 817 H 78.9022 -4.07021 -0.282489 0
M  V30 818 H 77.5772 -4.06702 0.86986 0
M  V30 819 H 76.1542 -3.61738 -0.905553 0
M  V30 820 N 78.3393 -0.321999 -1.54275 0
M  V30 821 C 79.5873 0.280489 -2.00144 0
M  V30 822 C 79.9083 1.52777 -1.21178 0
M  V30 823 O 79.1783 1.9338 -0.313187 0
M  V30 824 H 77.7583 0.106632 -0.73935 0
M  V30 825 H 80.4203 -0.438184 -1.8991 0
M  V30 826 H 79.5163 0.537972 -3.07428 0
M  V30 827 N 79.8174 1.5752 -0.0501392 0
M  V30 828 C 81.0474 1.96678 0.632573 0
M  V30 829 C 81.4554 0.926298 1.64974 0
M  V30 830 O 80.7984 -0.09802 1.83438 0
M  V30 831 C 80.8604 3.32068 1.37735 0
M  V30 832 C 80.5244 4.54076 0.516131 0
M  V30 833 C 81.5214 5.19445 -0.217357 0
M  V30 834 C 79.2064 5.00304 0.44736 0
M  V30 835 C 81.2004 6.29378 -1.00807 0
M  V30 836 C 78.8874 6.10114 -0.347038 0
M  V30 837 C 79.8854 6.74512 -1.07344 0
M  V30 838 O 79.5734 7.82211 -1.85477 0
M  V30 839 H 79.3054 0.652193 0.177821 0
M  V30 840 H 81.8594 2.05091 -0.112543 0
M  V30 841 H 80.0894 3.20206 2.16807 0
M  V30 842 H 81.7784 3.55981 1.95019 0
M  V30 843 H 82.5444 4.84689 -0.173688 0
M  V30 844 H 78.4234 4.49971 1.00235 0
M  V30 845 H 81.9674 6.79575 -1.57556 0
M  V30 846 H 77.8644 6.44307 -0.392349 0
M  V30 847 H 78.6324 7.98982 -1.77678 0
M  V30 848 N 81.2955 -0.223234 1.56011 0
M  V30 849 C 82.2455 -1.28008 1.88674 0
M  V30 850 C 83.2295 -1.42369 0.749663 0
M  V30 851 O 84.4215 -1.45212 1.01205 0
M  V30 852 C 81.5505 -2.63084 2.20548 0
M  V30 853 C 80.6365 -2.52632 3.40643 0
M  V30 854 N 81.0275 -2.11829 4.59306 0
M  V30 855 C 79.3255 -2.83594 3.44224 0
M  V30 856 C 80.0265 -2.12587 5.41463 0
M  V30 857 N 79.0025 -2.5301 4.81131 0
M  V30 858 H 82.8045 -0.955487 2.77935 0
M  V30 859 H 80.3185 -0.431801 1.56554 0
M  V30 860 H 82.3155 -3.39385 2.42122 0
M  V30 861 H 80.9755 -2.96391 1.32599 0
M  V30 862 H 81.9865 -1.82988 4.84496 0
M  V30 863 H 78.6635 -3.21284 2.66614 0
M  V30 864 H 80.0535 -1.83179 6.46448 0
M  V30 865 N 82.7736 -1.49793 -0.48987 0
M  V30 866 C 84.1896 -1.36803 -0.822022 0
M  V30 867 C 84.3896 -0.409652 -1.97292 0
M  V30 868 O 83.4456 0.154614 -2.52026 0
M  V30 869 C 84.7586 -2.77768 -1.15175 0
M  V30 870 C 86.3066 -2.86549 -1.25931 0
M  V30 871 C 86.7816 -4.28306 -1.62228 0
M  V30 872 N 88.2726 -4.31169 -1.69256 0
M  V30 873 C 89.0076 -5.37832 -1.98807 0
M  V30 874 N 88.5036 -6.54726 -2.26507 0
M  V30 875 N 90.2966 -5.25258 -2.00152 0
M  V30 876 H 82.4476 -2.10691 0.268881 0
M  V30 877 H 84.7106 -0.946241 0.057728 0
M  V30 878 H 84.4166 -3.49648 -0.379335 0
M  V30 879 H 84.2906 -3.13836 -2.09253 0
M  V30 880 H 86.6776 -2.14899 -2.02243 0
M  V30 881 H 86.7586 -2.54049 -0.298776 0
M  V30 882 H 86.4026 -5.00486 -0.864622 0
M  V30 883 H 86.3326 -4.58279 -2.594 0
M  V30 884 H 88.8236 -3.4687 -1.49965 0
M  V30 885 H 89.1366 -7.31833 -2.48276 0
M  V30 886 H 87.4816 -6.57933 -2.23939 0
M  V30 887 H 90.6726 -4.32938 -1.77996 0
M  V30 888 H 90.8456 -6.08476 -2.22848 0
M  V30 889 N 84.2517 0.741722 -1.39055 0
M  V30 890 C 85.2147 1.83733 -1.37021 0
M  V30 891 C 86.2147 1.58542 -0.268534 0
M  V30 892 O 87.4047 1.66067 -0.526076 0
M  V30 893 C 84.5367 3.2141 -1.13617 0
M  V30 894 H 85.7297 1.86941 -2.34506 0
M  V30 895 H 83.2827 0.944676 -1.24521 0
M  V30 896 H 84.0177 3.23865 -0.167863 0
M  V30 897 H 83.8027 3.4109 -1.93391 0
M  V30 898 H 85.2927 4.01477 -1.14918 0
M  V30 899 N 85.7298 1.2412 0.971189 0
M  V30 900 C 86.6398 1.04747 2.09917 0
M  V30 901 C 87.6558 -0.0107162 1.73997 0
M  V30 902 O 88.8318 0.186714 2.00533 0
M  V30 903 C 85.8968 0.650828 3.40537 0
M  V30 904 C 84.9578 1.7851 3.90426 0
M  V30 905 C 84.1908 1.40729 5.14812 0
M  V30 906 O 84.4138 0.29557 5.69634 0
M  V30 907 O 83.3478 2.23168 5.58999 0
M  V30 908 H 87.1738 1.99304 2.29154 0
M  V30 909 H 84.7588 1.02908 1.08307 0
M  V30 910 H 86.6408 0.440992 4.19086 0
M  V30 911 H 85.3158 -0.265649 3.22608 0
M  V30 912 H 84.2228 2.04966 3.12953 0
M  V30 913 H 85.5558 2.68023 4.12825 0
M  V30 914 N 87.2079 -1.17134 1.05439 0
M  V30 915 C 88.4539 -1.87733 0.767077 0
M  V30 916 C 88.7869 -1.8098 -0.704253 0
M  V30 917 O 88.0619 -1.21951 -1.5152 0
M  V30 918 C 88.3449 -3.37659 1.25133 0
M  V30 919 C 88.1979 -3.53149 2.78578 0
M  V30 920 C 89.5169 -4.31768 0.852324 0
M  V30 921 H 86.6359 -0.681687 0.280129 0
M  V30 922 H 89.2779 -1.37732 1.30881 0
M  V30 923 H 87.4279 -3.80373 0.790469 0
M  V30 924 H 89.0999 -3.19434 3.32806 0
M  V30 925 H 87.3429 -2.95345 3.17732 0
M  V30 926 H 88.0139 -4.58403 3.07523 0
M  V30 927 H 90.4899 -3.96909 1.24911 0
M  V30 928 H 89.3659 -5.35199 1.21873 0
M  V30 929 H 89.6269 -4.41429 -0.243485 0
M  V30 930 N 88.686 -0.835752 -1.33615 0
M  V30 931 C 89.619 -0.211815 -2.27215 0
M  V30 932 C 90.597 0.639249 -1.49507 0
M  V30 933 O 91.781 0.600193 -1.78689 0
M  V30 934 C 88.908 0.702893 -3.31326 0
M  V30 935 C 87.954 -0.0723049 -4.26439 0
M  V30 936 S 88.787 -1.42811 -5.16106 0
M  V30 937 C 89.943 -0.518613 -6.23748 0
M  V30 938 H 90.176 -1.00533 -2.79786 0
M  V30 939 H 87.709 -0.632336 -1.40858 0
M  V30 940 H 89.667 1.22505 -3.91794 0
M  V30 941 H 88.328 1.47004 -2.77576 0
M  V30 942 H 87.521 0.62359 -5.00127 0
M  V30 943 H 87.123 -0.525424 -3.70291 0
M  V30 944 H 89.415 0.284778 -6.76901 0
M  V30 945 H 90.358 -1.22556 -6.97413 0
M  V30 946 H 90.766 -0.101344 -5.64409 0
M  V30 947 N 90.1641 1.46063 -0.591896 0
M  V30 948 C 91.0961 2.28539 0.174001 0
M  V30 949 C 92.1091 1.39047 0.846753 0
M  V30 950 O 93.2981 1.63564 0.714774 0
M  V30 951 C 90.3981 3.14347 1.26645 0
M  V30 952 C 89.5711 4.32021 0.683856 0
M  V30 953 C 88.6301 4.99157 1.66518 0
M  V30 954 O 87.6561 5.56458 1.19763 0
M  V30 955 N 88.8581 4.97005 2.99943 0
M  V30 956 H 91.6231 2.94911 -0.533633 0
M  V30 957 H 89.1841 1.56077 -0.430294 0
M  V30 958 H 91.1761 3.56125 1.92242 0
M  V30 959 H 89.7461 2.49988 1.87682 0
M  V30 960 H 88.9661 3.93915 -0.1498 0
M  V30 961 H 90.2541 5.08059 0.274567 0
M  V30 962 H 89.6521 4.51714 3.40545 0
M  V30 963 H 88.2091 5.42696 3.61004 0
M  V30 964 N 91.6422 0.330177 1.54103 0
M  V30 965 C 92.5892 -0.532762 2.24567 0
M  V30 966 C 93.5592 -1.10635 1.23892 0
M  V30 967 O 94.7442 -1.14546 1.5259 0
M  V30 968 C 91.8842 -1.6845 3.01195 0
M  V30 969 C 90.9972 -1.13951 4.167 0
M  V30 970 C 90.1322 -2.25746 4.80845 0
M  V30 971 C 89.1712 -1.6853 5.88442 0
M  V30 972 N 88.3082 -2.74014 6.46421 0
M  V30 973 H 93.1482 0.0746905 2.97906 0
M  V30 974 H 90.6852 0.048632 1.4702 0
M  V30 975 H 92.6432 -2.36234 3.43874 0
M  V30 976 H 91.2732 -2.26314 2.30178 0
M  V30 977 H 90.3252 -0.35301 3.78758 0
M  V30 978 H 91.6372 -0.680892 4.94131 0
M  V30 979 H 90.7912 -3.01422 5.26526 0
M  V30 980 H 89.5302 -2.74947 4.0281 0
M  V30 981 H 88.5352 -0.913543 5.42157 0
M  V30 982 H 89.7602 -1.20198 6.68378 0
M  V30 983 H 87.7062 -3.22494 5.71256 0
M  V30 984 H 87.6232 -2.32735 7.19285 0
M  V30 985 H 88.8912 -3.49499 6.96757 0
M  V30 986 N 93.1203 -1.57491 0.0584922 0
M  V30 987 C 94.3453 -1.97711 -0.62652 0
M  V30 988 C 94.7703 -0.936132 -1.63151 0
M  V30 989 O 94.1283 0.099811 -1.81025 0
M  V30 990 C 94.1763 -3.36989 -1.28338 0
M  V30 991 O 93.2803 -3.35433 -2.39913 0
M  V30 992 H 92.6213 -0.643868 -0.162266 0
M  V30 993 H 95.1513 -2.04193 0.129064 0
M  V30 994 H 95.1613 -3.73879 -1.63335 0
M  V30 995 H 93.8363 -4.12289 -0.546889 0
M  V30 996 H 92.4133 -3.10298 -2.06809 0
M  V30 997 N 94.5984 0.214957 -1.56127 0
M  V30 998 C 95.8234 0.95924 -1.83884 0
M  V30 999 C 96.2484 1.7689 -0.639644 0
M  V30 1000 O 95.6064 1.76566 0.411601 0
M  V30 1001 C 95.6544 1.84723 -3.09693 0
M  V30 1002 O 94.7584 2.94346 -2.8885 0
M  V30 1003 H 94.0994 0.27125 -0.606069 0
M  V30 1004 H 96.6294 0.226276 -2.03345 0
M  V30 1005 H 96.6394 2.25576 -3.39969 0
M  V30 1006 H 95.3144 1.25218 -3.96602 0
M  V30 1007 H 93.8914 2.57391 -2.69823 0
M  V30 1008 N 96.0765 1.50051 0.48192 0
M  V30 1009 C 97.3045 1.64237 1.25832 0
M  V30 1010 C 97.7195 0.321336 1.86045 0
M  V30 1011 O 97.0765 -0.695478 1.68729 0
M  V30 1012 C 97.1275 2.72548 2.37487 0
M  V30 1013 O 96.8485 3.99529 1.79745 0
M  V30 1014 C 98.3495 2.9761 3.28547 0
M  V30 1015 H 95.5695 0.55237 0.380957 0
M  V30 1016 H 98.1135 1.96207 0.576467 0
M  V30 1017 H 96.2685 2.43303 3.01467 0
M  V30 1018 H 96.6825 4.59342 2.5319 0
M  V30 1019 H 98.1565 3.77084 4.03127 0
M  V30 1020 H 98.6335 2.0826 3.86684 0
M  V30 1021 H 99.2395 3.28345 2.70314 0
M  V30 1022 N 97.5546 -0.734337 1.39446 0
M  V30 1023 C 98.7946 -1.50655 1.38139 0
M  V30 1024 C 99.1586 -1.91986 -0.0228701 0
M  V30 1025 O 100.36 -2.68318 -0.160947 0
M  V30 1026 C 98.6306 -2.71251 2.32718 0
M  V30 1027 S 100.19 -3.60892 2.49605 0
M  V30 1028 H 97.0076 -0.515315 0.489869 0
M  V30 1029 H 99.6096 -0.860392 1.75549 0
M  V30 1030 H 98.3136 -2.39027 3.33608 0
M  V30 1031 H 97.8446 -3.40795 1.96526 0
M  V30 1032 H 99.8596 -4.64899 1.73446 0
M  V30 1033 N 99.0327 -1.24633 -0.964593 0
M  V30 1034 C 100.258 -1.11596 -1.74818 0
M  V30 1035 C 100.683 0.32723 -1.85232 0
M  V30 1036 O 100.041 1.23695 -1.32549 0
M  V30 1037 C 100.089 -1.76397 -3.1451 0
M  V30 1038 O 99.1927 -1.03685 -3.99153 0
M  V30 1039 H 98.5337 -0.390196 -0.537255 0
M  V30 1040 H 101.064 -1.65002 -1.20977 0
M  V30 1041 H 101.074 -1.8228 -3.65018 0
M  V30 1042 H 99.7487 -2.81401 -3.06246 0
M  V30 1043 H 98.3257 -1.05611 -3.57632 0
M  V30 1044 N 100.511 1.16574 -1.06058 0
M  V30 1045 C 101.758 1.87047 -0.775873 0
M  V30 1046 C 102.086 1.81562 0.697534 0
M  V30 1047 O 101.341 1.22445 1.52662 0
M  V30 1048 C 101.64 3.36195 -1.21275 0
M  V30 1049 C 101.306 3.6188 -2.68986 0
M  V30 1050 C 99.9678 3.68599 -3.09335 0
M  V30 1051 C 102.32 3.72648 -3.64394 0
M  V30 1052 C 99.6478 3.83584 -4.43937 0
M  V30 1053 C 102 3.89154 -4.98741 0
M  V30 1054 C 100.664 3.94114 -5.3873 0
M  V30 1055 H 99.9338 0.684452 -0.283912 0
M  V30 1056 H 102.581 1.37853 -1.32925 0
M  V30 1057 H 100.886 3.87505 -0.578528 0
M  V30 1058 H 102.583 3.89103 -0.969542 0
M  V30 1059 H 99.1728 3.57281 -2.36744 0
M  V30 1060 H 103.357 3.66769 -3.34356 0
M  V30 1061 H 98.6128 3.85677 -4.74409 0
M  V30 1062 H 102.787 3.96427 -5.72554 0
M  V30 1063 H 100.414 4.05478 -6.43033 0
M  V30 1064 N 101.989 0.842826 1.3317 0
M  V30 1065 C 102.922 0.223862 2.27099 0
M  V30 1066 C 103.9 -0.631311 1.49844 0
M  V30 1067 O 105.084 -0.590708 1.79005 0
M  V30 1068 C 102.211 -0.685313 3.31694 0
M  V30 1069 C 101.257 0.094919 4.26394 0
M  V30 1070 S 102.09 1.45546 5.15341 0
M  V30 1071 C 103.246 0.551685 6.23464 0
M  V30 1072 H 103.479 1.02015 2.79249 0
M  V30 1073 H 101.012 0.639797 1.4052 0
M  V30 1074 H 102.97 -1.20426 3.92438 0
M  V30 1075 H 101.631 -1.4553 2.78352 0
M  V30 1076 H 100.824 -0.597059 5.00451 0
M  V30 1077 H 100.426 0.545054 3.70007 0
M  V30 1078 H 102.718 -0.248877 6.77043 0
M  V30 1079 H 103.661 1.26253 6.96754 0
M  V30 1080 H 104.069 0.131275 5.64347 0
M  V30 1081 N 103.467 -1.45747 0.599634 0
M  V30 1082 C 104.697 -2.06369 0.0977132 0
M  V30 1083 C 105.105 -1.44624 -1.21985 0
M  V30 1084 O 104.448 -0.551831 -1.75216 0
M  V30 1085 C 104.51 -3.59284 -0.124673 0
M  V30 1086 C 104.174 -4.43318 1.10987 0
M  V30 1087 C 105.171 -4.78796 2.02609 0
M  V30 1088 C 102.856 -4.84194 1.33647 0
M  V30 1089 C 104.85 -5.53997 3.15224 0
M  V30 1090 C 102.537 -5.5915 2.46565 0
M  V30 1091 C 103.535 -5.93968 3.37182 0
M  V30 1092 O 103.223 -6.67405 4.48136 0
M  V30 1093 H 102.955 -0.673122 0.0623153 0
M  V30 1094 H 105.509 -1.88104 0.824981 0
M  V30 1095 H 103.739 -3.75919 -0.906745 0
M  V30 1096 H 105.428 -4.01775 -0.577201 0
M  V30 1097 H 106.194 -4.47781 1.86325 0
M  V30 1098 H 102.073 -4.56534 0.64016 0
M  V30 1099 H 105.617 -5.81091 3.85978 0
M  V30 1100 H 101.514 -5.89579 2.62805 0
M  V30 1101 H 102.282 -6.85847 4.46717 0
M  V30 1102 N 104.945 -0.338344 -1.53925 0
M  V30 1103 C 106.193 0.259245 -2.0043 0
M  V30 1104 C 106.514 1.51484 -1.22791 0
M  V30 1105 O 105.784 1.93037 -0.33368 0
M  V30 1106 H 104.364 0.0987845 -0.740439 0
M  V30 1107 H 107.026 -0.458302 -1.89435 0
M  V30 1108 H 106.122 0.505334 -3.07982 0
M  V30 1109 N 106.423 1.57458 -0.0668435 0
M  V30 1110 C 107.333 2.15937 0.916975 0
M  V30 1111 C 108.349 1.12123 1.33058 0
M  V30 1112 O 109.525 1.44366 1.40429 0
M  V30 1113 C 106.59 2.70547 2.16807 0
M  V30 1114 C 105.651 3.89215 1.81135 0
M  V30 1115 C 104.884 4.41211 3.0028 0
M  V30 1116 O 105.107 3.92225 4.14144 0
M  V30 1117 O 104.041 5.32605 2.80384 0
M  V30 1118 H 107.867 3.00354 0.449561 0
M  V30 1119 H 105.452 1.48584 0.155949 0
M  V30 1120 H 107.334 3.0557 2.90181 0
M  V30 1121 H 106.009 1.89192 2.62656 0
M  V30 1122 H 104.916 3.59054 1.05028 0
M  V30 1123 H 106.249 4.71848 1.40073 0
M  V30 1124 N 107.901 -0.206675 1.56239 0
M  V30 1125 C 108.831 -1.25909 1.96645 0
M  V30 1126 C 109.812 -1.48097 0.836734 0
M  V30 1127 O 110.997 -1.6003 1.10019 0
M  V30 1128 C 108.127 -2.6058 2.29599 0
M  V30 1129 C 107.081 -2.53024 3.452 0
M  V30 1130 C 106.407 -3.91861 3.63798 0
M  V30 1131 C 107.707 -2.06524 4.79734 0
M  V30 1132 H 109.401 -0.923369 2.84806 0
M  V30 1133 H 106.947 -0.442735 1.37025 0
M  V30 1134 H 108.9 -3.34375 2.56459 0
M  V30 1135 H 107.624 -2.95869 1.38307 0
M  V30 1136 H 106.283 -1.81684 3.18412 0
M  V30 1137 H 105.931 -4.24483 2.69857 0
M  V30 1138 H 105.631 -3.87683 4.4156 0
M  V30 1139 H 107.155 -4.67296 3.93022 0
M  V30 1140 H 108.569 -2.70072 5.05702 0
M  V30 1141 H 106.966 -2.13374 5.60885 0
M  V30 1142 H 108.036 -1.01802 4.74093 0
M  V30 1143 N 109.379 -1.50304 -0.473955 0
M  V30 1144 C 110.607 -1.64902 -1.24959 0
M  V30 1145 C 111.022 -0.331198 -1.85872 0
M  V30 1146 O 110.379 0.68652 -1.69095 0
M  V30 1147 C 110.43 -2.73803 -2.36038 0
M  V30 1148 O 110.151 -4.00477 -1.77624 0
M  V30 1149 C 111.652 -2.99349 -3.26964 0
M  V30 1150 H 108.872 -0.554383 -0.378022 0
M  V30 1151 H 111.416 -1.9651 -0.566054 0
M  V30 1152 H 109.571 -2.44898 -3.00173 0
M  V30 1153 H 109.985 -4.60678 -2.5075 0
M  V30 1154 H 111.459 -3.79217 -4.01121 0
M  V30 1155 H 111.936 -2.10307 -3.85574 0
M  V30 1156 H 112.542 -3.29774 -2.68569 0
M  V30 1157 N 110.857 0.726932 -1.39834 0
M  V30 1158 C 112.134 1.47902 -1.28001 0
M  V30 1159 C 112.514 2.1083 0.106789 0
M  V30 1160 O 111.862 1.99242 1.11869 0
M  V30 1161 C 112.072 2.52392 -2.41038 0
M  V30 1162 C 113.42 3.18546 -2.80737 0
M  V30 1163 O 114.444 2.62708 -2.40547 0
M  V30 1164 O 113.303 4.19604 -3.50135 0
M  V30 1165 H 110.397 0.657163 -0.502062 0
M  V30 1166 H 112.943 0.760071 -1.51727 0
M  V30 1167 H 111.715 2.04329 -3.33715 0
M  V30 1168 H 111.338 3.31837 -2.19021 0
M  V30 1169 N 112.336 1.25143 0.95797 0
M  V30 1170 C 113.283 1.05235 2.05412 0
M  V30 1171 C 114.253 -0.0374561 1.66058 0
M  V30 1172 O 115.438 0.119073 1.90428 0
M  V30 1173 C 112.578 0.673589 3.38462 0
M  V30 1174 C 111.691 1.8379 3.90954 0
M  V30 1175 C 110.826 1.40381 5.12315 0
M  V30 1176 C 109.865 2.53746 5.57027 0
M  V30 1177 N 109.002 2.11136 6.69601 0
M  V30 1178 H 113.842 1.99048 2.21774 0
M  V30 1179 H 111.379 0.991277 1.08683 0
M  V30 1180 H 113.337 0.434964 4.14926 0
M  V30 1181 H 111.967 -0.227554 3.21997 0
M  V30 1182 H 111.019 2.18992 3.11041 0
M  V30 1183 H 112.331 2.68937 4.20089 0
M  V30 1184 H 111.485 1.12464 5.96185 0
M  V30 1185 H 110.224 0.523015 4.84887 0
M  V30 1186 H 109.229 2.82412 4.71724 0
M  V30 1187 H 110.454 3.42398 5.86464 0
M  V30 1188 H 108.4 1.25468 6.4389 0
M  V30 1189 H 108.317 2.89832 6.98236 0
M  V30 1190 H 109.585 1.86385 7.56889 0
M  V30 1191 N 113.814 -1.1601 1.06675 0
M  V30 1192 C 115.091 -1.82679 0.699114 0
M  V30 1193 C 115.471 -1.94559 -0.819137 0
M  V30 1194 O 114.819 -1.49169 -1.73092 0
M  V30 1195 C 115.029 -3.19445 1.40555 0
M  V30 1196 C 116.377 -3.95171 1.55323 0
M  V30 1197 O 117.401 -3.28976 1.36577 0
M  V30 1198 O 116.26 -5.13833 1.86112 0
M  V30 1199 H 113.354 -0.788954 0.247951 0
M  V30 1200 H 115.9 -1.23179 1.16726 0
M  V30 1201 H 114.672 -3.05856 2.44065 0
M  V30 1202 H 114.295 -3.86625 0.927733 0
M  V30 1203 N 115.292 -0.849877 -1.32721 0
M  V30 1204 C 116.52 -0.464754 -2.01613 0
M  V30 1205 C 116.935 0.937191 -1.63897 0
M  V30 1206 O 116.292 1.61081 -0.857856 0
M  V30 1207 C 116.343 -0.588638 -3.56675 0
M  V30 1208 O 116.064 -1.93535 -3.93034 0
M  V30 1209 C 117.565 -0.2019 -4.4284 0
M  V30 1210 H 114.785 -0.183215 -0.645502 0
M  V30 1211 H 117.329 -1.1455 -1.69407 0
M  V30 1212 H 115.484 0.0443159 -3.87375 0
M  V30 1213 H 115.898 -1.92871 -4.87751 0
M  V30 1214 H 117.372 -0.339599 -5.50954 0
M  V30 1215 H 117.849 0.857224 -4.30753 0
M  V30 1216 H 118.455 -0.809733 -4.17521 0
M  V30 1217 N 116.77 1.45427 -0.607355 0
M  V30 1218 C 118.019 2.01452 -0.100036 0
M  V30 1219 C 118.332 1.48159 1.27704 0
M  V30 1220 O 119.538 1.96159 1.87707 0
M  V30 1221 C 117.994 3.59672 -0.128158 0
M  V30 1222 C 117.602 4.21962 -1.50507 0
M  V30 1223 C 119.346 4.23262 0.323932 0
M  V30 1224 C 117.253 5.72333 -1.48959 0
M  V30 1225 H 116.183 0.75325 -0.0336299 0
M  V30 1226 H 118.834 1.66901 -0.76265 0
M  V30 1227 H 117.216 3.91411 0.601105 0
M  V30 1228 H 118.39 4.01796 -2.25602 0
M  V30 1229 H 116.705 3.70565 -1.89923 0
M  V30 1230 H 119.302 5.33522 0.354691 0
M  V30 1231 H 119.645 3.93921 1.34656 0
M  V30 1232 H 120.178 3.96239 -0.352056 0
M  V30 1233 H 116.917 6.06373 -2.48981 0
M  V30 1234 H 116.437 5.94691 -0.781214 0
M  V30 1235 H 118.116 6.35525 -1.21313 0
M  V30 1236 N 118.248 0.346503 1.53744 0
M  V30 1237 C 119.158 -0.517293 2.28826 0
M  V30 1238 C 120.174 -1.10935 1.3405 0
M  V30 1239 O 121.35 -1.1244 1.6709 0
M  V30 1240 C 118.415 -1.65098 3.04866 0
M  V30 1241 C 117.476 -1.0884 4.15274 0
M  V30 1242 C 116.709 -2.16806 4.87679 0
M  V30 1243 O 116.932 -3.3758 4.59778 0
M  V30 1244 O 115.866 -1.80934 5.74061 0
M  V30 1245 H 119.692 0.0931396 3.03557 0
M  V30 1246 H 117.277 0.111458 1.48984 0
M  V30 1247 H 119.159 -2.31053 3.5241 0
M  V30 1248 H 117.834 -2.24717 2.32989 0
M  V30 1249 H 116.741 -0.3933 3.72027 0
M  V30 1250 H 118.074 -0.537036 4.89261 0
M  V30 1251 N 119.726 -1.57421 0.075193 0
M  V30 1252 C 120.673 -2.12915 -0.890843 0
M  V30 1253 C 121.643 -1.04252 -1.29309 0
M  V30 1254 O 122.828 -1.31933 -1.37834 0
M  V30 1255 C 119.968 -2.69795 -2.15186 0
M  V30 1256 C 119.081 -3.92624 -1.80194 0
M  V30 1257 C 118.216 -4.37736 -3.00933 0
M  V30 1258 C 117.255 -5.53205 -2.61974 0
M  V30 1259 N 116.392 -5.9326 -3.75483 0
M  V30 1260 H 121.232 -2.95156 -0.410735 0
M  V30 1261 H 118.769 -1.45854 -0.191086 0
M  V30 1262 H 120.727 -3.00883 -2.89008 0
M  V30 1263 H 119.357 -1.90313 -2.60731 0
M  V30 1264 H 118.409 -3.67977 -0.964218 0
M  V30 1265 H 119.721 -4.76482 -1.47534 0
M  V30 1266 H 118.875 -4.70503 -3.8303 0
M  V30 1267 H 117.614 -3.52739 -3.36789 0
M  V30 1268 H 116.619 -5.20086 -1.783 0
M  V30 1269 H 117.844 -6.39936 -2.27284 0
M  V30 1270 H 115.79 -5.11212 -4.11094 0
M  V30 1271 H 115.707 -6.71865 -3.46602 0
M  V30 1272 H 116.975 -6.30651 -4.58148 0
M  V30 1273 N 121.204 0.198386 -1.56346 0
M  V30 1274 C 122.45 0.920648 -1.80698 0
M  V30 1275 C 122.783 1.83045 -0.648697 0
M  V30 1276 O 122.058 1.91308 0.350925 0
M  V30 1277 C 122.341 1.73971 -3.15287 0
M  V30 1278 C 122.194 0.85485 -4.41602 0
M  V30 1279 C 123.513 2.71296 -3.46535 0
M  V30 1280 H 120.632 0.333261 -0.657348 0
M  V30 1281 H 123.274 0.188198 -1.89066 0
M  V30 1282 H 121.424 2.36416 -3.08285 0
M  V30 1283 H 123.096 0.245362 -4.60647 0
M  V30 1284 H 121.339 0.161398 -4.335 0
M  V30 1285 H 122.01 1.46286 -5.32264 0
M  V30 1286 H 124.486 2.18983 -3.53816 0
M  V30 1287 H 123.362 3.2569 -4.41834 0
M  V30 1288 H 123.623 3.5018 -2.69864 0
M  V30 1289 N 122.682 1.50554 0.465978 0
M  V30 1290 C 124.098 1.38093 0.800154 0
M  V30 1291 C 124.298 0.440988 1.96615 0
M  V30 1292 O 123.354 -0.114499 2.5224 0
M  V30 1293 C 124.667 2.79565 1.10742 0
M  V30 1294 C 126.215 2.88516 1.21357 0
M  V30 1295 C 126.69 4.30833 1.55393 0
M  V30 1296 N 128.181 4.33807 1.62375 0
M  V30 1297 C 128.916 5.40927 1.90225 0
M  V30 1298 N 128.412 6.58247 2.16062 0
M  V30 1299 N 130.205 5.28376 1.9177 0
M  V30 1300 H 122.356 2.10237 -0.302366 0
M  V30 1301 H 124.619 0.945203 -0.0727746 0
M  V30 1302 H 124.325 3.50208 0.323661 0
M  V30 1303 H 124.199 3.17125 2.04234 0
M  V30 1304 H 126.586 2.1809 1.98799 0
M  V30 1305 H 126.667 2.54492 0.258321 0
M  V30 1306 H 126.311 5.01799 0.784889 0
M  V30 1307 H 126.241 4.62347 2.52076 0
M  V30 1308 H 128.732 3.49212 1.44427 0
M  V30 1309 H 129.045 7.3569 2.36601 0
M  V30 1310 H 127.39 6.61413 2.13444 0
M  V30 1311 H 130.581 4.35715 1.71085 0
M  V30 1312 H 130.754 6.11944 2.13139 0
M  V30 1313 N 124.16 -0.719506 1.40217 0
M  V30 1314 C 125.092 -1.84428 1.36084 0
M  V30 1315 C 126.105 -1.60597 0.266913 0
M  V30 1316 O 127.294 -1.70544 0.526983 0
M  V30 1317 C 124.394 -3.20757 1.094 0
M  V30 1318 C 123.567 -3.71817 2.30372 0
M  V30 1319 C 122.626 -4.86748 1.99907 0
M  V30 1320 O 121.652 -4.99603 2.72737 0
M  V30 1321 N 122.854 -5.7226 0.974635 0
M  V30 1322 H 125.619 -1.88473 2.33019 0
M  V30 1323 H 123.18 -0.900885 1.3452 0
M  V30 1324 H 125.172 -3.95235 0.870116 0
M  V30 1325 H 123.742 -3.11884 0.211452 0
M  V30 1326 H 122.962 -2.88514 2.68614 0
M  V30 1327 H 124.25 -4.02666 3.11026 0
M  V30 1328 H 123.648 -5.6448 0.371368 0
M  V30 1329 H 122.205 -6.46739 0.810656 0
M  V30 1330 N 125.638 -1.25649 -0.95132 0
M  V30 1331 C 126.866 -1.13343 -1.73092 0
M  V30 1332 C 127.281 0.312434 -1.86197 0
M  V30 1333 O 126.638 1.21465 -1.36207 0
M  V30 1334 C 126.689 -1.78602 -3.14299 0
M  V30 1335 O 126.41 -3.17537 -3.01831 0
M  V30 1336 C 127.911 -1.72119 -4.08522 0
M  V30 1337 H 125.131 -0.395181 -0.542285 0
M  V30 1338 H 127.675 -1.66076 -1.19328 0
M  V30 1339 H 125.83 -1.29832 -3.64996 0
M  V30 1340 H 126.244 -3.49676 -3.90931 0
M  V30 1341 H 127.718 -2.22435 -5.052 0
M  V30 1342 H 128.195 -0.685635 -4.33815 0
M  V30 1343 H 128.801 -2.20393 -3.63741 0
M  V30 1344 N 127.117 1.15442 -1.07289 0
M  V30 1345 C 128.364 1.86213 -0.795668 0
M  V30 1346 C 128.692 1.82291 0.678238 0
M  V30 1347 O 127.947 1.24057 1.51355 0
M  V30 1348 C 128.246 3.3489 -1.24834 0
M  V30 1349 C 127.912 3.59007 -2.72809 0
M  V30 1350 C 126.574 3.65298 -3.13227 0
M  V30 1351 C 128.926 3.68762 -3.68326 0
M  V30 1352 C 126.254 3.78854 -4.4798 0
M  V30 1353 C 128.606 3.83842 -5.0284 0
M  V30 1354 C 127.27 3.88378 -5.4288 0
M  V30 1355 H 126.54 0.681403 -0.291155 0
M  V30 1356 H 129.187 1.36435 -1.34379 0
M  V30 1357 H 127.492 3.8687 -0.619595 0
M  V30 1358 H 129.189 3.88052 -1.01076 0
M  V30 1359 H 125.779 3.5475 -2.40521 0
M  V30 1360 H 129.963 3.63202 -3.38227 0
M  V30 1361 H 125.219 3.80623 -4.78472 0
M  V30 1362 H 129.393 3.90332 -5.76727 0
M  V30 1363 H 127.02 3.98635 -6.47298 0
M  V30 1364 N 128.595 0.856903 1.32268 0
M  V30 1365 C 129.505 0.306131 2.32594 0
M  V30 1366 C 130.521 -0.577209 1.64147 0
M  V30 1367 O 131.697 -0.477043 1.95669 0
M  V30 1368 C 128.762 -0.494561 3.43154 0
M  V30 1369 C 127.823 0.415186 4.27288 0
M  V30 1370 C 127.056 -0.347387 5.32568 0
M  V30 1371 O 127.279 -1.57708 5.48165 0
M  V30 1372 O 126.213 0.287982 6.01211 0
M  V30 1373 H 130.039 1.13737 2.81598 0
M  V30 1374 H 127.624 0.619902 1.35932 0
M  V30 1375 H 129.506 -0.948944 4.10576 0
M  V30 1376 H 128.181 -1.30257 2.96336 0
M  V30 1377 H 127.088 0.917793 3.62667 0
M  V30 1378 H 128.421 1.18844 4.77637 0
M  V30 1379 N 130.073 -1.45103 0.615059 0
M  V30 1380 C 131.021 -2.32331 -0.111791 0
M  V30 1381 C 132.015 -1.46409 -0.852102 0
M  V30 1382 O 133.221 -1.62849 -0.766821 0
M  V30 1383 H 129.596 -0.749993 -0.0549072 0
M  V30 1384 H 131.567 -2.91407 0.642225 0
M  V30 1385 C 130.316 -3.3015 -1.09071 0
M  V30 1386 H 129.639 -3.96265 -0.530485 0
M  V30 1387 H 131.079 -3.93898 -1.56908 0
M  V30 1388 C 129.538 -2.57875 -2.168 0
M  V30 1389 O 130.068 -2.36567 -3.24652 0
M  V30 1390 N 128.274 -2.17884 -1.92289 0
M  V30 1391 H 127.821 -2.35413 -1.04587 0
M  V30 1392 H 127.779 -1.6985 -2.64572 0
M  V30 1393 N 131.551 -0.354651 -1.53558 0
M  V30 1394 C 132.781 0.239167 -2.05211 0
M  V30 1395 C 133.189 1.43879 -1.22863 0
M  V30 1396 O 132.532 1.81857 -0.259565 0
M  V30 1397 C 132.594 0.707251 -3.52474 0
M  V30 1398 C 132.258 -0.374212 -4.55465 0
M  V30 1399 C 133.255 -1.22054 -5.0537 0
M  V30 1400 C 130.94 -0.531323 -4.99482 0
M  V30 1401 C 132.934 -2.20942 -5.97882 0
M  V30 1402 C 130.621 -1.52358 -5.91802 0
M  V30 1403 C 131.619 -2.36108 -6.40892 0
M  V30 1404 O 131.307 -3.33643 -7.31394 0
M  V30 1405 H 131.039 0.0479716 -0.674296 0
M  V30 1406 H 133.593 -0.508121 -1.99016 0
M  V30 1407 H 131.823 1.50596 -3.56171 0
M  V30 1408 H 133.512 1.22285 -3.87042 0
M  V30 1409 H 134.278 -1.1103 -4.7212 0
M  V30 1410 H 130.157 0.110738 -4.60867 0
M  V30 1411 H 133.701 -2.86348 -6.36121 0
M  V30 1412 H 129.598 -1.63434 -6.24467 0
M  V30 1413 H 130.366 -3.29244 -7.4936 0
M  V30 1414 N 133.029 1.57378 -0.0835403 0
M  V30 1415 C 133.939 2.16897 0.894021 0
M  V30 1416 C 134.955 1.13528 1.31861 0
M  V30 1417 O 136.131 1.45848 1.3889 0
M  V30 1418 C 133.196 2.72831 2.13925 0
M  V30 1419 C 132.257 3.91115 1.76997 0
M  V30 1420 C 131.49 4.44371 2.95584 0
M  V30 1421 O 131.713 3.96596 4.09961 0
M  V30 1422 O 130.647 5.35549 2.74719 0
M  V30 1423 H 134.473 3.00814 0.417679 0
M  V30 1424 H 132.058 1.48741 0.140181 0
M  V30 1425 H 133.94 3.0863 2.86924 0
M  V30 1426 H 132.615 1.91967 2.60635 0
M  V30 1427 H 131.522 3.60148 1.01214 0
M  V30 1428 H 132.855 4.73307 1.3506 0
M  V30 1429 N 134.507 -0.190092 1.56449 0
M  V30 1430 C 135.44 -1.26375 1.90012 0
M  V30 1431 C 136.418 -1.43705 0.760765 0
M  V30 1432 O 137.602 -1.59014 1.01226 0
M  V30 1433 C 134.729 -2.62962 2.13468 0
M  V30 1434 C 133.775 -2.62474 3.36169 0
M  V30 1435 S 134.608 -2.13412 4.91137 0
M  V30 1436 C 135.764 -3.51812 5.17667 0
M  V30 1437 H 135.997 -0.977181 2.80782 0
M  V30 1438 H 133.53 -0.393814 1.49293 0
M  V30 1439 H 135.488 -3.41583 2.27664 0
M  V30 1440 H 134.149 -2.88828 1.23439 0
M  V30 1441 H 133.342 -3.62918 3.49723 0
M  V30 1442 H 132.944 -1.91937 3.20992 0
M  V30 1443 H 135.236 -4.47706 5.08494 0
M  V30 1444 H 136.179 -3.43148 6.19399 0
M  V30 1445 H 136.587 -3.46956 4.45288 0
M  V30 1446 N 135.985 -1.50799 -0.457987 0
M  V30 1447 C 136.933 -1.71162 -1.575 0
M  V30 1448 C 137.927 -0.577592 -1.59249 0
M  V30 1449 O 139.133 -0.758443 -1.63241 0
M  V30 1450 H 135.508 -0.540468 -0.522875 0
M  V30 1451 H 137.479 -2.64837 -1.37492 0
M  V30 1452 C 136.228 -1.83496 -2.95338 0
M  V30 1453 H 135.551 -2.70153 -2.94716 0
M  V30 1454 H 136.991 -2.01765 -3.72917 0
M  V30 1455 C 135.45 -0.589694 -3.31699 0
M  V30 1456 O 135.98 0.265163 -4.00824 0
M  V30 1457 N 134.186 -0.439845 -2.87252 0
M  V30 1458 H 133.733 -1.13655 -2.31172 0
M  V30 1459 H 133.691 0.392159 -3.11945 0
M  V30 1460 N 137.463 0.71206 -1.40597 0
M  V30 1461 C 138.688 1.50617 -1.42581 0
M  V30 1462 C 139.113 1.88079 -0.0282102 0
M  V30 1463 O 138.471 1.53511 0.964579 0
M  V30 1464 C 138.519 2.7557 -2.3258 0
M  V30 1465 O 137.623 3.72414 -1.77148 0
M  V30 1466 H 136.964 0.453966 -0.484573 0
M  V30 1467 H 139.494 0.876649 -1.84868 0
M  V30 1468 H 139.504 3.2406 -2.47889 0
M  V30 1469 H 138.179 2.47639 -3.34138 0
M  V30 1470 H 136.756 3.31276 -1.71204 0
M  V30 1471 N 138.941 1.26152 0.944643 0
M  V30 1472 C 140.188 1.11492 1.69044 0
M  V30 1473 C 140.516 -0.342366 1.91463 0
M  V30 1474 O 139.771 -1.26812 1.49054 0
M  V30 1475 C 140.07 1.82541 3.07268 0
M  V30 1476 C 139.736 3.32445 3.04616 0
M  V30 1477 C 138.398 3.73337 3.036 0
M  V30 1478 C 140.75 4.28171 2.97185 0
M  V30 1479 C 138.078 5.08348 2.92915 0
M  V30 1480 C 140.43 5.63218 2.88041 0
M  V30 1481 C 139.094 6.03426 2.85366 0
M  V30 1482 H 138.364 0.407977 0.618576 0
M  V30 1483 H 141.011 1.56551 1.10291 0
M  V30 1484 H 139.316 1.29941 3.69625 0
M  V30 1485 H 141.013 1.68642 3.63815 0
M  V30 1486 H 137.603 2.99915 3.06185 0
M  V30 1487 H 141.787 3.97563 2.97081 0
M  V30 1488 H 137.043 5.38667 2.89219 0
M  V30 1489 H 141.217 6.37078 2.81254 0
M  V30 1490 H 138.844 7.07999 2.76842 0
M  V30 1491 N 140.419 -1.14872 1.07899 0
M  V30 1492 C 141.329 -2.2341 0.715915 0
M  V30 1493 C 142.345 -1.71808 -0.275306 0
M  V30 1494 O 143.521 -2.01039 -0.120545 0
M  V30 1495 C 140.586 -3.46474 0.125168 0
M  V30 1496 C 139.647 -4.13039 1.17034 0
M  V30 1497 C 138.88 -5.30229 0.607688 0
M  V30 1498 O 139.103 -5.675 -0.574497 0
M  V30 1499 O 138.037 -5.86444 1.35526 0
M  V30 1500 H 141.863 -2.56808 1.62121 0
M  V30 1501 H 139.448 -1.22702 0.852322 0
M  V30 1502 H 141.33 -4.20917 -0.201729 0
M  V30 1503 H 140.005 -3.14811 -0.753364 0
M  V30 1504 H 138.912 -3.40493 1.54968 0
M  V30 1505 H 140.245 -4.48796 2.02097 0
M  V30 1506 N 141.898 -0.863906 -1.31812 0
M  V30 1507 C 143.147 -0.46801 -1.96195 0
M  V30 1508 C 143.46 0.983474 -1.69077 0
M  V30 1509 O 144.666 1.48523 -2.27273 0
M  V30 1510 C 143.122 -0.785995 -3.51212 0
M  V30 1511 C 142.73 -2.25383 -3.87178 0
M  V30 1512 C 144.474 -0.458274 -4.22019 0
M  V30 1513 C 142.381 -2.51455 -5.3528 0
M  V30 1514 H 141.311 -0.171283 -0.734287 0
M  V30 1515 H 143.962 -1.05597 -1.50072 0
M  V30 1516 H 142.344 -0.127359 -3.95795 0
M  V30 1517 H 143.518 -2.95502 -3.53575 0
M  V30 1518 H 141.833 -2.54698 -3.2942 0
M  V30 1519 H 144.43 -0.630369 -5.30971 0
M  V30 1520 H 144.773 0.600834 -4.11941 0
M  V30 1521 H 145.306 -1.07319 -3.8305 0
M  V30 1522 H 142.045 -3.56025 -5.50387 0
M  V30 1523 H 141.565 -1.85923 -5.70257 0
M  V30 1524 H 143.244 -2.35874 -6.02472 0
M  V30 1525 N 143.376 1.44774 -0.622745 0
M  V30 1526 C 144.306 2.33382 0.0741861 0
M  V30 1527 C 145.287 1.47719 0.843387 0
M  V30 1528 O 146.472 1.76458 0.810934 0
M  V30 1529 C 143.602 3.30663 1.06204 0
M  V30 1530 C 142.556 4.26079 0.405037 0
M  V30 1531 C 141.882 5.13165 1.5022 0
M  V30 1532 C 143.182 5.1781 -0.683414 0
M  V30 1533 H 144.876 2.91905 -0.665713 0
M  V30 1534 H 142.422 1.40363 -0.321587 0
M  V30 1535 H 144.375 3.9153 1.55827 0
M  V30 1536 H 143.099 2.70331 1.83272 0
M  V30 1537 H 141.758 3.66532 -0.0704683 0
M  V30 1538 H 141.406 4.49191 2.26355 0
M  V30 1539 H 141.106 5.77812 1.06803 0
M  V30 1540 H 142.63 5.76902 2.00041 0
M  V30 1541 H 144.044 5.72661 -0.270631 0
M  V30 1542 H 142.441 5.91015 -1.04023 0
M  V30 1543 H 143.511 4.59326 -1.55395 0
M  V30 1544 N 144.854 0.36279 1.53368 0
M  V30 1545 C 145.787 -0.528507 2.21996 0
M  V30 1546 C 146.765 -1.0852 1.21087 0
M  V30 1547 O 147.949 -1.14186 1.4998 0
M  V30 1548 C 145.076 -1.72893 2.91249 0
M  V30 1549 C 144.122 -1.29994 4.06207 0
M  V30 1550 S 144.955 -0.303575 5.34639 0
M  V30 1551 C 146.111 -1.51039 6.07403 0
M  V30 1552 H 146.344 0.0543423 2.9725 0
M  V30 1553 H 143.877 0.146889 1.537 0
M  V30 1554 H 145.835 -2.41751 3.31763 0
M  V30 1555 H 144.496 -2.28303 2.15724 0
M  V30 1556 H 143.689 -2.19549 4.53667 0
M  V30 1557 H 143.291 -0.690608 3.67569 0
M  V30 1558 H 145.583 -2.44186 6.31965 0
M  V30 1559 H 146.526 -1.07721 6.99858 0
M  V30 1560 H 146.934 -1.71518 5.37812 0
M  V30 1561 N 146.332 -1.57332 0.0918853 0
M  V30 1562 C 147.562 -1.98286 -0.580205 0
M  V30 1563 C 147.97 -0.969713 -1.6246 0
M  V30 1564 O 147.313 0.0493501 -1.83634 0
M  V30 1565 C 147.375 -3.35603 -1.28882 0
M  V30 1566 C 147.039 -4.55285 -0.395559 0
M  V30 1567 C 148.036 -5.18687 0.355002 0
M  V30 1568 C 145.721 -5.01314 -0.314556 0
M  V30 1569 C 147.715 -6.26484 1.17458 0
M  V30 1570 C 145.402 -6.08979 0.508677 0
M  V30 1571 C 146.4 -6.71429 1.2519 0
M  V30 1572 O 146.088 -7.77018 2.06151 0
M  V30 1573 H 145.82 -0.656678 -0.160466 0
M  V30 1574 H 148.374 -2.04721 0.16688 0
M  V30 1575 H 146.604 -3.25842 -2.08241 0
M  V30 1576 H 148.293 -3.61026 -1.85512 0
M  V30 1577 H 149.059 -4.84058 0.302134 0
M  V30 1578 H 144.938 -4.5247 -0.882697 0
M  V30 1579 H 148.482 -6.75159 1.75518 0
M  V30 1580 H 144.379 -6.4304 0.563037 0
M  V30 1581 H 145.147 -7.93991 1.98799 0
M  V30 1582 N 147.81 0.181792 -1.56548 0
M  V30 1583 C 148.757 1.22521 -1.95595 0
M  V30 1584 C 149.727 1.4454 -0.818373 0
M  V30 1585 O 150.912 1.57454 -1.07763 0
M  V30 1586 C 148.052 2.56193 -2.31212 0
M  V30 1587 C 147.165 2.41641 -3.58097 0
M  V30 1588 C 146.3 3.68108 -3.82975 0
M  V30 1589 C 145.339 3.48445 -5.03242 0
M  V30 1590 N 144.476 4.66956 -5.24306 0
M  V30 1591 H 149.316 0.885226 -2.84548 0
M  V30 1592 H 146.853 0.425718 -1.40805 0
M  V30 1593 H 148.811 3.34088 -2.49882 0
M  V30 1594 H 147.441 2.88208 -1.45382 0
M  V30 1595 H 146.493 1.54976 -3.474 0
M  V30 1596 H 147.805 2.23052 -4.46149 0
M  V30 1597 H 146.959 4.54441 -4.01956 0
M  V30 1598 H 145.698 3.89666 -2.93278 0
M  V30 1599 H 144.703 2.60499 -4.8417 0
M  V30 1600 H 145.928 3.2832 -5.9446 0
M  V30 1601 H 143.874 4.88752 -4.37559 0
M  V30 1602 H 143.791 4.51242 -6.06561 0
M  V30 1603 H 145.059 5.54602 -5.47756 0
M  V30 1604 N 149.288 1.51039 0.449983 0
M  V30 1605 C 150.235 1.71439 1.54523 0
M  V30 1606 C 151.205 0.555871 1.56522 0
M  V30 1607 O 152.39 0.788871 1.73728 0
M  V30 1608 C 149.53 1.83384 2.92343 0
M  V30 1609 C 148.643 3.10873 2.9997 0
M  V30 1610 C 147.778 3.13488 4.28834 0
M  V30 1611 C 146.817 4.35343 4.30282 0
M  V30 1612 N 145.954 4.35579 5.5065 0
M  V30 1613 H 150.794 2.64934 1.36433 0
M  V30 1614 H 148.331 1.31312 0.662982 0
M  V30 1615 H 150.289 1.88291 3.72293 0
M  V30 1616 H 148.919 0.933086 3.0902 0
M  V30 1617 H 147.971 3.15336 2.12761 0
M  V30 1618 H 149.283 4.00814 2.96901 0
M  V30 1619 H 148.437 3.17241 5.17149 0
M  V30 1620 H 147.176 2.21414 4.34543 0
M  V30 1621 H 146.181 4.3178 3.40362 0
M  V30 1622 H 147.406 5.28668 4.26248 0
M  V30 1623 H 145.352 3.46369 5.57104 0
M  V30 1624 H 145.269 5.19313 5.49409 0
M  V30 1625 H 146.537 4.43507 6.41032 0
M  V30 1626 N 150.766 -0.704594 1.40972 0
M  V30 1627 C 151.714 -1.83994 1.42299 0
M  V30 1628 C 152.708 -1.66684 0.302111 0
M  V30 1629 O 153.914 -1.73655 0.473697 0
M  V30 1630 H 150.289 -0.606171 0.44504 0
M  V30 1631 H 152.26 -1.79992 2.38003 0
M  V30 1632 C 151.009 -3.21946 1.31323 0
M  V30 1633 H 150.332 -3.35878 2.16855 0
M  V30 1634 H 151.772 -4.01491 1.36311 0
M  V30 1635 C 150.231 -3.36891 0.0245977 0
M  V30 1636 O 150.761 -3.90687 -0.934153 0
M  V30 1637 N 148.967 -2.90559 -0.0485243 0
M  V30 1638 H 148.514 -2.46968 0.732419 0
M  V30 1639 H 148.472 -3.00937 -0.910171 0
M  V30 1640 N 152.244 -1.26651 -0.937939 0
M  V30 1641 C 153.66 -1.03834 -1.21205 0
M  V30 1642 C 153.86 0.234502 -2.00131 0
M  V30 1643 O 152.916 0.942767 -2.3424 0
M  V30 1644 C 154.229 -2.27167 -1.97017 0
M  V30 1645 C 155.777 -2.32101 -2.09996 0
M  V30 1646 C 156.252 -3.55136 -2.8921 0
M  V30 1647 N 157.743 -3.55632 -2.96783 0
M  V30 1648 C 158.478 -4.475 -3.58512 0
M  V30 1649 N 157.974 -5.4966 -4.21717 0
M  V30 1650 N 159.767 -4.35145 -3.55816 0
M  V30 1651 H 151.918 -2.08398 -0.410391 0
M  V30 1652 H 154.181 -0.916031 -0.244114 0
M  V30 1653 H 153.887 -3.19765 -1.46434 0
M  V30 1654 H 153.761 -2.31672 -2.97671 0
M  V30 1655 H 156.148 -1.40015 -2.59769 0
M  V30 1656 H 156.229 -2.31605 -1.08594 0
M  V30 1657 H 155.873 -4.47553 -2.40123 0
M  V30 1658 H 155.803 -3.5288 -3.90875 0
M  V30 1659 H 158.294 -2.81743 -2.51852 0
M  V30 1660 H 158.607 -6.15943 -4.66727 0
M  V30 1661 H 156.952 -5.53514 -4.20294 0
M  V30 1662 H 160.143 -3.5455 -3.05634 0
M  V30 1663 H 160.316 -5.06934 -4.03636 0
M  V30 1664 N 153.722 1.14298 -1.08507 0
M  V30 1665 C 154.95 1.89219 -0.836876 0
M  V30 1666 C 155.365 1.78638 0.611054 0
M  V30 1667 O 154.722 1.14643 1.41998 0
M  V30 1668 C 154.773 3.39158 -1.25116 0
M  V30 1669 O 154.494 3.49449 -2.64229 0
M  V30 1670 C 155.995 4.31073 -1.03398 0
M  V30 1671 H 153.215 0.599328 -0.301739 0
M  V30 1672 H 155.759 1.44746 -1.44461 0
M  V30 1673 H 153.914 3.81251 -0.687514 0
M  V30 1674 H 154.328 4.42589 -2.81452 0
M  V30 1675 H 155.802 5.34646 -1.37323 0
M  V30 1676 H 156.279 4.3919 0.0289259 0
M  V30 1677 H 156.885 3.94738 -1.58311 0
M  V30 1678 N 155.201 0.870884 1.31352 0
M  V30 1679 C 156.612 0.534714 1.78879 0
M  V30 1680 C 156.963 -0.948423 1.71754 0
M  V30 1681 O 156.088 -1.74055 1.28584 0
M  V30 1682 C 156.683 0.963839 3.24801 0
M  V30 1683 C 155.242 0.679311 3.70219 0
M  V30 1684 C 154.389 1.15465 2.52117 0
M  V30 1685 H 157.34 1.05651 1.18421 0
M  V30 1686 H 157.361 0.286892 3.79417 0
M  V30 1687 H 156.873 2.04332 3.29955 0
M  V30 1688 H 154.974 -0.388769 3.70566 0
M  V30 1689 H 155.087 1.25698 4.62317 0
M  V30 1690 H 153.451 0.574383 2.48139 0
M  V30 1691 H 154.234 2.24157 2.60016 0
M  V30 1692 N 156.679 -1.44442 0.630414 0
M  V30 1693 C 157.925 -2.02351 0.134816 0
M  V30 1694 C 158.258 -1.4947 -1.23986 0
M  V30 1695 O 157.533 -0.678475 -1.82283 0
M  V30 1696 C 157.816 -3.59898 0.120707 0
M  V30 1697 C 157.669 -4.23063 1.52767 0
M  V30 1698 C 158.988 -4.36585 -0.555127 0
M  V30 1699 H 156.107 -0.73527 0.0504646 0
M  V30 1700 H 158.749 -1.72022 0.806751 0
M  V30 1701 H 156.899 -3.85868 -0.451477 0
M  V30 1702 H 158.571 -4.08202 2.14869 0
M  V30 1703 H 156.814 -3.80586 2.08175 0
M  V30 1704 H 157.485 -5.32071 1.46984 0
M  V30 1705 H 159.961 -4.16044 -0.0685429 0
M  V30 1706 H 158.837 -5.46294 -0.534185 0
M  V30 1707 H 159.098 -4.11138 -1.62535 0
M  V30 1708 N 158.157 -0.370918 -1.53173 0
M  V30 1709 C 159.403 0.209976 -2.02313 0
M  V30 1710 C 159.758 1.45987 -1.25322 0
M  V30 1711 O 159.051 1.8856 -0.339965 0
M  V30 1712 C 159.245 0.549696 -3.53147 0
M  V30 1713 C 159.074 -0.665721 -4.44745 0
M  V30 1714 C 157.844 -1.17942 -4.91343 0
M  V30 1715 C 160.042 -1.53255 -4.90935 0
M  V30 1716 N 158.024 -2.35431 -5.66962 0
M  V30 1717 C 159.395 -2.55403 -5.64951 0
M  V30 1718 C 161.45 -1.5548 -4.73002 0
M  V30 1719 C 160.153 -3.5964 -6.22938 0
M  V30 1720 C 162.179 -2.58613 -5.31858 0
M  V30 1721 C 161.541 -3.59485 -6.05764 0
M  V30 1722 H 157.64 0.0394095 -0.781006 0
M  V30 1723 H 160.224 -0.516666 -1.8772 0
M  V30 1724 H 158.395 1.24541 -3.67891 0
M  V30 1725 H 160.127 1.11614 -3.89004 0
M  V30 1726 H 156.882 -0.743228 -4.67732 0
M  V30 1727 H 157.306 -2.94827 -6.09431 0
M  V30 1728 H 161.948 -0.788457 -4.15383 0
M  V30 1729 H 159.666 -4.37153 -6.79649 0
M  V30 1730 H 163.252 -2.61195 -5.19873 0
M  V30 1731 H 162.132 -4.3798 -6.50495 0
M  V30 1732 N 159.635 1.57281 -0.100228 0
M  V30 1733 C 160.882 1.94537 0.562268 0
M  V30 1734 C 161.21 0.982315 1.67871 0
M  V30 1735 O 160.465 0.00280936 1.957 0
M  V30 1736 C 160.764 3.38305 1.15259 0
M  V30 1737 C 160.43 4.50618 0.159409 0
M  V30 1738 C 159.092 4.81066 -0.113741 0
M  V30 1739 C 161.444 5.18615 -0.518461 0
M  V30 1740 C 158.772 5.76835 -1.07137 0
M  V30 1741 C 161.124 6.15412 -1.46459 0
M  V30 1742 C 159.788 6.44262 -1.74592 0
M  V30 1743 H 159.058 0.711863 0.205748 0
M  V30 1744 H 161.705 1.90679 -0.17715 0
M  V30 1745 H 160.01 3.38766 1.96836 0
M  V30 1746 H 161.707 3.64435 1.67297 0
M  V30 1747 H 158.297 4.2689 0.382491 0
M  V30 1748 H 162.481 4.95264 -0.320581 0
M  V30 1749 H 157.737 5.975 -1.29628 0
M  V30 1750 H 161.911 6.67194 -1.99564 0
M  V30 1751 H 159.538 7.1828 -2.48953 0
M  V30 1752 N 161.113 -0.173488 1.56642 0
M  V30 1753 C 162.36 -0.890465 1.81871 0
M  V30 1754 C 162.688 -1.82339 0.67696 0
M  V30 1755 O 161.943 -1.92795 -0.335926 0
M  V30 1756 C 162.242 -1.72069 3.13252 0
M  V30 1757 C 161.908 -0.936878 4.41059 0
M  V30 1758 C 160.57 -0.720545 4.75775 0
M  V30 1759 C 162.922 -0.386919 5.19762 0
M  V30 1760 C 160.25 0.0568829 5.86672 0
M  V30 1761 C 162.602 0.37741 6.31473 0
M  V30 1762 C 161.266 0.604563 6.64757 0
M  V30 1763 H 160.536 -0.325844 0.665512 0
M  V30 1764 H 163.183 -0.155527 1.90867 0
M  V30 1765 H 161.488 -2.52496 2.99588 0
M  V30 1766 H 163.185 -2.27844 3.29982 0
M  V30 1767 H 159.775 -1.11553 4.13828 0
M  V30 1768 H 163.959 -0.541398 4.93338 0
M  V30 1769 H 159.215 0.242635 6.10918 0
M  V30 1770 H 163.389 0.810825 6.91664 0
M  V30 1771 H 161.016 1.20885 7.50527 0
M  V30 1772 N 162.591 -1.51276 -0.441967 0
M  V30 1773 C 163.837 -1.63958 -1.19355 0
M  V30 1774 C 164.17 -0.352543 -1.90973 0
M  V30 1775 O 163.445 0.647627 -1.83401 0
M  V30 1776 C 163.728 -2.83979 -2.21422 0
M  V30 1777 C 163.581 -4.22646 -1.53918 0
M  V30 1778 C 164.9 -2.99521 -3.22451 0
M  V30 1779 H 162.019 -0.596709 -0.432559 0
M  V30 1780 H 164.661 -1.83748 -0.483398 0
M  V30 1781 H 162.811 -2.67237 -2.81987 0
M  V30 1782 H 164.483 -4.51045 -0.967256 0
M  V30 1783 H 162.726 -4.25558 -0.841615 0
M  V30 1784 H 163.397 -5.02609 -2.28229 0
M  V30 1785 H 165.873 -3.14944 -2.71937 0
M  V30 1786 H 164.749 -3.85072 -3.91166 0
M  V30 1787 H 165.01 -2.11391 -3.88287 0
M  V30 1788 N 164.069 0.697108 -1.41344 0
M  V30 1789 C 165.016 1.81106 -1.43071 0
M  V30 1790 C 165.986 1.63632 -0.285275 0
M  V30 1791 O 167.171 1.84504 -0.486091 0
M  V30 1792 C 164.311 3.18975 -1.31715 0
M  V30 1793 C 163.424 3.47892 -2.56115 0
M  V30 1794 C 162.559 4.75367 -2.37064 0
M  V30 1795 C 161.598 4.97247 -3.56948 0
M  V30 1796 N 160.735 6.15947 -3.36977 0
M  V30 1797 H 165.575 1.78965 -2.38276 0
M  V30 1798 H 163.112 0.873975 -1.18322 0
M  V30 1799 H 165.07 3.98615 -1.23133 0
M  V30 1800 H 163.7 3.20297 -0.401183 0
M  V30 1801 H 162.752 2.62669 -2.75153 0
M  V30 1802 H 164.064 3.59962 -3.45295 0
M  V30 1803 H 163.218 5.63059 -2.25941 0
M  V30 1804 H 161.957 4.65541 -1.45338 0
M  V30 1805 H 160.962 4.08004 -3.68527 0
M  V30 1806 H 162.187 5.08934 -4.49626 0
M  V30 1807 H 160.133 6.07336 -2.47949 0
M  V30 1808 H 160.05 6.28777 -4.19732 0
M  V30 1809 H 161.318 7.06377 -3.29623 0
M  V30 1810 N 165.547 1.27147 0.931209 0
M  V30 1811 C 166.796 1.12664 1.67302 0
M  V30 1812 C 167.109 -0.327718 1.92835 0
M  V30 1813 O 168.315 -0.593392 2.64936 0
M  V30 1814 C 166.771 1.9683 3.01307 0
M  V30 1815 C 166.379 3.46901 2.83485 0
M  V30 1816 C 168.123 1.90985 3.79111 0
M  V30 1817 C 166.03 4.23279 4.13024 0
M  V30 1818 H 164.96 0.41803 0.627509 0
M  V30 1819 H 167.611 1.51539 1.03481 0
M  V30 1820 H 165.993 1.50797 3.66164 0
M  V30 1821 H 167.167 4.00773 2.27415 0
M  V30 1822 H 165.482 3.54088 2.19113 0
M  V30 1823 H 168.079 2.45328 4.75098 0
M  V30 1824 H 168.422 0.882718 4.06834 0
M  V30 1825 H 168.955 2.34895 3.21044 0
M  V30 1826 H 165.694 5.26503 3.90481 0
M  V30 1827 H 165.214 3.74186 4.6877 0
M  V30 1828 H 166.893 4.32265 4.81411 0
M  V30 1829 N 167.025 -1.13721 1.09112 0
M  V30 1830 C 167.988 -2.17222 0.731241 0
M  V30 1831 C 168.988 -1.59035 -0.237566 0
M  V30 1832 O 170.178 -1.74192 -0.0161704 0
M  V30 1833 C 167.31 -3.40804 0.0808443 0
M  V30 1834 H 168.503 -2.50573 1.64783 0
M  V30 1835 H 166.056 -1.28493 0.889897 0
M  V30 1836 H 166.791 -3.1304 -0.847127 0
M  V30 1837 H 166.576 -3.84306 0.777896 0
M  V30 1838 H 168.066 -4.1731 -0.155657 0
M  V30 1839 N 168.503 -0.877838 -1.30888 0
M  V30 1840 C 169.914 -0.544193 -1.78593 0
M  V30 1841 C 170.265 0.939301 -1.72254 0
M  V30 1842 O 169.39 1.7337 -1.29505 0
M  V30 1843 C 169.985 -0.98105 -3.24285 0
M  V30 1844 C 168.544 -0.698935 -3.69854 0
M  V30 1845 C 167.691 -1.168 -2.51502 0
M  V30 1846 H 170.642 -1.06278 -1.17859 0
M  V30 1847 H 170.663 -0.307009 -3.79259 0
M  V30 1848 H 170.175 -2.06079 -3.28866 0
M  V30 1849 H 168.276 0.369112 -3.70767 0
M  V30 1850 H 168.389 -1.28148 -4.61644 0
M  V30 1851 H 166.753 -0.587535 -2.47831 0
M  V30 1852 H 167.536 -2.25533 -2.58824 0
M  V30 1853 N 169.982 1.44106 -0.638065 0
M  V30 1854 C 171.231 2.01194 -0.142744 0
M  V30 1855 C 171.544 1.50835 1.24532 0
M  V30 1856 O 172.75 2.00096 1.83504 0
M  V30 1857 C 171.206 3.59319 -0.20442 0
M  V30 1858 C 170.814 4.18674 -1.59423 0
M  V30 1859 C 172.558 4.23854 0.234079 0
M  V30 1860 C 170.465 5.69045 -1.61065 0
M  V30 1861 H 169.395 0.752367 -0.0495998 0
M  V30 1862 H 172.046 1.65246 -0.797881 0
M  V30 1863 H 170.428 3.92598 0.517946 0
M  V30 1864 H 171.602 3.96921 -2.34074 0
M  V30 1865 H 169.917 3.66453 -1.97741 0
M  V30 1866 H 172.514 5.34155 0.241443 0
M  V30 1867 H 172.857 3.96688 1.2627 0
M  V30 1868 H 173.39 3.95403 -0.436025 0
M  V30 1869 H 170.129 6.00956 -2.61787 0
M  V30 1870 H 169.649 5.929 -0.90718 0
M  V30 1871 H 171.328 6.32809 -1.34766 0
M  V30 1872 N 171.46 0.379036 1.52974 0
M  V30 1873 C 172.876 0.0285448 1.59574 0
M  V30 1874 C 173.076 -1.45542 1.39355 0
M  V30 1875 O 172.132 -2.2187 1.20541 0
M  V30 1876 C 173.445 0.496535 2.96572 0
M  V30 1877 C 174.993 0.451909 3.0972 0
M  V30 1878 C 175.468 0.895924 4.49152 0
M  V30 1879 N 176.959 0.851522 4.55306 0
M  V30 1880 C 177.694 1.16661 5.61407 0
M  V30 1881 N 177.19 1.55166 6.752 0
M  V30 1882 N 178.983 1.08853 5.51459 0
M  V30 1883 H 171.134 1.34525 1.64367 0
M  V30 1884 H 173.397 0.550733 0.771619 0
M  V30 1885 H 173.103 1.53258 3.16552 0
M  V30 1886 H 172.977 -0.109802 3.7704 0
M  V30 1887 H 175.364 -0.575029 2.89443 0
M  V30 1888 H 175.445 1.09392 2.3123 0
M  V30 1889 H 175.089 1.92104 4.70168 0
M  V30 1890 H 175.019 0.23103 5.26093 0
M  V30 1891 H 177.51 0.568038 3.73606 0
M  V30 1892 H 177.823 1.776 7.52116 0
M  V30 1893 H 176.168 1.59044 6.76557 0
M  V30 1894 H 179.359 0.786803 4.6144 0
M  V30 1895 H 179.532 1.33742 6.34048 0
M  V30 1896 N 172.938 -1.57226 0.108567 0
M  V30 1897 C 173.886 -2.16002 -0.862885 0
M  V30 1898 C 174.88 -1.10644 -1.28274 0
M  V30 1899 O 176.086 -1.28966 -1.2557 0
M  V30 1900 H 172.461 -0.691148 -0.296342 0
M  V30 1901 H 174.432 -2.96427 -0.342575 0
M  V30 1902 C 173.181 -2.76576 -2.10716 0
M  V30 1903 H 172.504 -3.5734 -1.793 0
M  V30 1904 H 173.944 -3.21253 -2.76717 0
M  V30 1905 C 172.403 -1.73137 -2.89007 0
M  V30 1906 O 172.933 -1.17842 -3.84026 0
M  V30 1907 N 171.139 -1.43317 -2.52801 0
M  V30 1908 H 170.686 -1.88473 -1.75601 0
M  V30 1909 H 170.644 -0.743485 -3.05483 0
M  V30 1910 N 174.416 0.165178 -1.56732 0
M  V30 1911 C 175.326 1.22423 -2.00125 0
M  V30 1912 C 176.342 1.48084 -0.913619 0
M  V30 1913 O 177.518 1.60112 -1.22172 0
M  V30 1914 C 174.583 2.54197 -2.35764 0
M  V30 1915 C 173.644 2.36343 -3.58386 0
M  V30 1916 C 172.877 3.61834 -3.92316 0
M  V30 1917 O 173.1 4.67267 -3.27135 0
M  V30 1918 O 172.034 3.55579 -4.85641 0
M  V30 1919 H 175.86 0.885886 -2.90492 0
M  V30 1920 H 173.445 0.372518 -1.44681 0
M  V30 1921 H 175.327 3.3192 -2.59629 0
M  V30 1922 H 174.002 2.87598 -1.48557 0
M  V30 1923 H 172.909 1.56632 -3.39731 0
M  V30 1924 H 174.242 2.07865 -4.46154 0
M  V30 1925 N 175.894 1.51508 0.433938 0
M  V30 1926 C 176.826 1.69266 1.54537 0
M  V30 1927 C 177.839 0.573276 1.52373 0
M  V30 1928 O 179.028 0.847698 1.57087 0
M  V30 1929 C 176.128 1.69524 2.93453 0
M  V30 1930 C 175.301 2.98101 3.20085 0
M  V30 1931 C 174.36 2.90502 4.38742 0
M  V30 1932 O 173.386 3.64442 4.3723 0
M  V30 1933 N 174.588 2.06586 5.42496 0
M  V30 1934 H 177.353 2.65145 1.39708 0
M  V30 1935 H 174.914 1.49437 0.622922 0
M  V30 1936 H 176.906 1.62004 3.70859 0
M  V30 1937 H 175.476 0.812245 3.01863 0
M  V30 1938 H 174.696 3.19464 2.30947 0
M  V30 1939 H 175.984 3.83207 3.34708 0
M  V30 1940 H 175.382 1.45896 5.46563 0
M  V30 1941 H 173.939 2.04943 6.18742 0
M  V30 1942 N 177.372 -0.689602 1.41712 0
M  V30 1943 C 178.649 -1.44457 1.31877 0
M  V30 1944 C 179.029 -2.11039 -0.0508537 0
M  V30 1945 O 178.377 -2.02138 -1.06547 0
M  V30 1946 C 178.587 -2.45913 2.47645 0
M  V30 1947 C 179.935 -3.10991 2.89084 0
M  V30 1948 O 180.959 -2.56238 2.47428 0
M  V30 1949 O 179.818 -4.10174 3.61137 0
M  V30 1950 H 176.912 -0.64362 0.519309 0
M  V30 1951 H 179.458 -0.719576 1.53689 0
M  V30 1952 H 178.23 -1.95409 3.39015 0
M  V30 1953 H 177.853 -3.25913 2.27742 0
M  V30 1954 N 178.85 -1.27639 -0.924453 0
M  V30 1955 C 179.797 -1.10644 -2.0255 0
M  V30 1956 C 180.767 -0.00658438 -1.66099 0
M  V30 1957 O 181.952 -0.16952 -1.90045 0
M  V30 1958 C 179.092 -0.76309 -3.36557 0
M  V30 1959 C 178.205 -1.94091 -3.85944 0
M  V30 1960 C 177.34 -1.53914 -5.08413 0
M  V30 1961 C 176.379 -2.68425 -5.50104 0
M  V30 1962 N 175.516 -2.28815 -6.63768 0
M  V30 1963 H 180.356 -2.04858 -2.16419 0
M  V30 1964 H 177.893 -1.01974 -1.06017 0
M  V30 1965 H 179.851 -0.544822 -4.13627 0
M  V30 1966 H 178.481 0.142102 -3.22487 0
M  V30 1967 H 177.533 -2.27162 -3.05125 0
M  V30 1968 H 178.845 -2.7998 -4.12811 0
M  V30 1969 H 177.999 -1.28231 -5.92994 0
M  V30 1970 H 176.738 -0.651391 -4.8333 0
M  V30 1971 H 175.743 -2.94819 -4.64071 0
M  V30 1972 H 176.968 -3.57826 -5.7718 0
M  V30 1973 H 174.914 -1.42495 -6.40337 0
M  V30 1974 H 174.831 -3.08242 -6.90306 0
M  V30 1975 H 176.099 -2.06387 -7.51681 0
M  V30 1976 N 180.328 1.1314 -1.09713 0
M  V30 1977 C 181.574 1.84757 -0.836224 0
M  V30 1978 C 181.907 1.8347 0.636598 0
M  V30 1979 O 181.182 1.27491 1.46889 0
M  V30 1980 C 181.465 3.32782 -1.37578 0
M  V30 1981 C 181.318 3.42567 -2.91493 0
M  V30 1982 C 182.637 4.28307 -1.01198 0
M  V30 1983 H 179.756 0.67082 -0.305236 0
M  V30 1984 H 182.398 1.3278 -1.35903 0
M  V30 1985 H 180.548 3.77177 -0.931097 0
M  V30 1986 H 182.22 3.06862 -3.44432 0
M  V30 1987 H 180.463 2.83349 -3.28475 0
M  V30 1988 H 181.134 4.46674 -3.24324 0
M  V30 1989 H 183.61 3.91999 -1.39556 0
M  V30 1990 H 182.486 5.30307 -1.41653 0
M  V30 1991 H 182.747 4.42029 0.0794833 0
M  V30 1992 N 181.806 0.884767 1.30421 0
M  V30 1993 C 183.052 0.503851 1.96441 0
M  V30 1994 C 183.385 -0.944518 1.69684 0
M  V30 1995 O 182.66 -1.66737 1.00145 0
M  V30 1996 C 182.943 0.779085 3.51571 0
M  V30 1997 C 182.796 2.27807 3.87846 0
M  V30 1998 C 184.115 0.255452 4.39358 0
M  V30 1999 H 181.234 0.184533 0.713524 0
M  V30 2000 H 183.876 1.10872 1.54297 0
M  V30 2001 H 182.026 0.264274 3.876 0
M  V30 2002 H 183.698 2.86127 3.61841 0
M  V30 2003 H 181.941 2.74479 3.35922 0
M  V30 2004 H 182.612 2.42125 4.96064 0
M  V30 2005 H 185.088 0.696079 4.10236 0
M  V30 2006 H 183.964 0.477361 5.4682 0
M  V30 2007 H 184.225 -0.843293 4.33983 0
M  V30 2008 N 183.284 -1.43765 0.645699 0
M  V30 2009 C 184.214 -2.33471 -0.0370477 0
M  V30 2010 C 185.195 -1.49042 -0.819779 0
M  V30 2011 O 186.38 -1.77726 -0.782758 0
M  V30 2012 C 183.51 -3.32311 -1.0093 0
M  V30 2013 C 182.464 -4.2667 -0.337201 0
M  V30 2014 C 181.79 -5.1549 -1.42037 0
M  V30 2015 C 183.09 -5.16657 0.765706 0
M  V30 2016 H 184.784 -2.90809 0.712069 0
M  V30 2017 H 182.33 -1.39834 0.343876 0
M  V30 2018 H 184.283 -3.9396 -1.49578 0
M  V30 2019 H 183.007 -2.73213 -1.78948 0
M  V30 2020 H 181.666 -3.66374 0.128771 0
M  V30 2021 H 181.314 -4.52735 -2.1918 0
M  V30 2022 H 181.014 -5.79438 -0.975966 0
M  V30 2023 H 182.538 -5.80012 -1.90838 0
M  V30 2024 H 183.952 -5.72158 0.361702 0
M  V30 2025 H 182.349 -5.89286 1.13413 0
M  V30 2026 H 183.419 -4.56796 1.62683 0
M  V30 2027 N 184.763 -0.387143 -1.52771 0
M  V30 2028 C 186.01 0.195735 -2.01552 0
M  V30 2029 C 186.338 1.46995 -1.27369 0
M  V30 2030 O 185.593 1.92325 -0.361879 0
M  V30 2031 C 185.892 0.512209 -3.53711 0
M  V30 2032 C 185.558 -0.670202 -4.45891 0
M  V30 2033 C 184.22 -0.994586 -4.70809 0
M  V30 2034 C 186.572 -1.46134 -5.00294 0
M  V30 2035 C 183.9 -2.11169 -5.4738 0
M  V30 2036 C 186.252 -2.56903 -5.78086 0
M  V30 2037 C 184.916 -2.89852 -6.01284 0
M  V30 2038 H 184.186 0.0716246 -0.73753 0
M  V30 2039 H 186.833 -0.524046 -1.8419 0
M  V30 2040 H 185.138 1.31329 -3.69134 0
M  V30 2041 H 186.835 0.975804 -3.88946 0
M  V30 2042 H 183.425 -0.407366 -4.2666 0
M  V30 2043 H 187.609 -1.22397 -4.80971 0
M  V30 2044 H 182.865 -2.3707 -5.63567 0
M  V30 2045 H 187.039 -3.18608 -6.19243 0
M  V30 2046 H 184.666 -3.76533 -6.60399 0
M  V30 2047 N 186.241 1.57166 -0.116904 0
M  V30 2048 C 187.171 2.18222 0.830759 0
M  V30 2049 C 188.152 1.12167 1.27877 0
M  V30 2050 O 189.337 1.40394 1.34176 0
M  V30 2051 C 186.467 2.77996 2.08172 0
M  V30 2052 C 185.421 3.89614 1.77157 0
M  V30 2053 C 184.747 4.36187 3.09265 0
M  V30 2054 C 186.047 5.1181 1.04151 0
M  V30 2055 H 187.741 2.97664 0.321992 0
M  V30 2056 H 185.287 1.4318 0.153434 0
M  V30 2057 H 187.24 3.19366 2.74924 0
M  V30 2058 H 185.964 1.9584 2.6137 0
M  V30 2059 H 184.623 3.48816 1.12796 0
M  V30 2060 H 184.271 3.50893 3.60393 0
M  V30 2061 H 183.971 5.11455 2.89288 0
M  V30 2062 H 185.495 4.80207 3.77139 0
M  V30 2063 H 186.909 5.50214 1.61052 0
M  V30 2064 H 185.306 5.92648 0.942762 0
M  V30 2065 H 186.376 4.84892 0.0279022 0
M  V30 2066 N 187.719 -0.156864 1.56817 0
M  V30 2067 C 188.959 -0.877453 1.84608 0
M  V30 2068 C 189.323 -1.78791 0.699845 0
M  V30 2069 O 190.524 -2.5472 0.858553 0
M  V30 2070 C 188.795 -1.63992 3.17555 0
M  V30 2071 S 190.354 -2.40729 3.66872 0
M  V30 2072 H 187.172 -0.293612 0.647544 0
M  V30 2073 H 189.774 -0.138099 1.95012 0
M  V30 2074 H 188.478 -0.962363 3.98957 0
M  V30 2075 H 188.009 -2.42038 3.10131 0
M  V30 2076 H 190.024 -3.65725 3.3535 0
M  V30 2077 N 189.197 -1.51736 -0.425897 0
M  V30 2078 C 190.425 -1.68794 -1.1965 0
M  V30 2079 C 190.84 -0.390164 -1.84725 0
M  V30 2080 O 190.197 0.632376 -1.71194 0
M  V30 2081 C 190.248 -2.81174 -2.27208 0
M  V30 2082 O 189.969 -4.05925 -1.64793 0
M  V30 2083 C 191.47 -3.09599 -3.17275 0
M  V30 2084 H 188.69 -0.566128 -0.360194 0
M  V30 2085 H 191.234 -1.98211 -0.503249 0
M  V30 2086 H 189.389 -2.54324 -2.9223 0
M  V30 2087 H 189.803 -4.68423 -2.35967 0
M  V30 2088 H 191.277 -3.91786 -3.88854 0
M  V30 2089 H 191.754 -2.22468 -3.78688 0
M  V30 2090 H 192.36 -3.38151 -2.57941 0
M  V30 2091 N 190.675 0.682077 -1.42076 0
M  V30 2092 C 191.922 1.44215 -1.42156 0
M  V30 2093 C 192.25 1.94468 -0.0354186 0
M  V30 2094 O 191.505 1.70816 0.955002 0
M  V30 2095 C 191.804 2.66036 -2.38662 0
M  V30 2096 C 191.47 2.34366 -3.85206 0
M  V30 2097 C 190.132 2.25439 -4.25124 0
M  V30 2098 C 192.484 2.08513 -4.77673 0
M  V30 2099 C 189.812 1.88775 -5.55501 0
M  V30 2100 C 192.164 1.73354 -6.08384 0
M  V30 2101 C 190.828 1.62933 -6.47309 0
M  V30 2102 H 190.098 0.527718 -0.520187 0
M  V30 2103 H 192.745 0.778387 -1.74967 0
M  V30 2104 H 191.05 3.3741 -1.99152 0
M  V30 2105 H 192.747 3.24205 -2.35991 0
M  V30 2106 H 189.337 2.42213 -3.53597 0
M  V30 2107 H 193.521 2.14346 -4.47626 0
M  V30 2108 H 188.777 1.7927 -5.84527 0
M  V30 2109 H 192.951 1.52373 -6.79526 0
M  V30 2110 H 190.578 1.34292 -7.48244 0
M  V30 2111 N 192.153 1.28127 0.917671 0
M  V30 2112 C 193.378 1.18007 1.70555 0
M  V30 2113 C 193.803 -0.258257 1.86319 0
M  V30 2114 O 193.161 -1.1869 1.37049 0
M  V30 2115 C 193.209 1.87948 3.07746 0
M  V30 2116 O 192.313 1.18427 3.9503 0
M  V30 2117 H 191.654 0.409867 0.522403 0
M  V30 2118 H 194.184 1.69379 1.1477 0
M  V30 2119 H 194.194 1.95701 3.58001 0
M  V30 2120 H 192.869 2.92573 2.95591 0
M  V30 2121 H 191.446 1.18811 3.53466 0
M  V30 2122 N 193.631 -1.12557 1.10312 0
M  V30 2123 C 194.908 -1.80363 0.756878 0
M  V30 2124 C 195.288 -1.97067 -0.756824 0
M  V30 2125 O 194.636 -1.54601 -1.68259 0
M  V30 2126 C 194.846 -3.14812 1.50647 0
M  V30 2127 C 196.194 -3.90029 1.67817 0
M  V30 2128 O 197.218 -3.24464 1.46974 0
M  V30 2129 O 196.077 -5.07652 2.02365 0
M  V30 2130 H 193.171 -0.780667 0.272926 0
M  V30 2131 H 195.717 -1.19404 1.20586 0
M  V30 2132 H 194.489 -2.97936 2.53672 0
M  V30 2133 H 194.112 -3.83478 1.05026 0
M  V30 2134 N 195.109 -0.891671 -1.2995 0
M  V30 2135 C 196.358 -0.509521 -1.95158 0
M  V30 2136 C 196.671 0.947388 -1.71125 0
M  V30 2137 O 197.877 1.43669 -2.30372 0
M  V30 2138 C 196.333 -0.860315 -3.49466 0
M  V30 2139 C 195.941 -2.33545 -3.8231 0
M  V30 2140 C 197.685 -0.547687 -4.20952 0
M  V30 2141 C 195.592 -2.62752 -5.29826 0
M  V30 2142 H 194.522 -0.18682 -0.730489 0
M  V30 2143 H 197.173 -1.08756 -1.47798 0
M  V30 2144 H 195.555 -0.211285 -3.95436 0
M  V30 2145 H 196.729 -3.02936 -3.47227 0
M  V30 2146 H 195.044 -2.61629 -3.23944 0
M  V30 2147 H 197.641 -0.742854 -5.29515 0
M  V30 2148 H 197.984 0.51332 -4.13123 0
M  V30 2149 H 198.517 -1.1542 -3.80688 0
M  V30 2150 H 195.256 -3.6762 -5.42712 0
M  V30 2151 H 194.776 -1.97977 -5.66185 0
M  V30 2152 H 196.455 -2.48601 -5.97333 0
M  V30 2153 N 196.587 1.43421 -0.653314 0
M  V30 2154 C 197.815 2.06163 -0.174491 0
M  V30 2155 C 198.23 1.48969 1.1599 0
M  V30 2156 O 197.587 0.621042 1.71608 0
M  V30 2157 C 197.638 3.61417 -0.0774865 0
M  V30 2158 O 197.359 4.16485 -1.35912 0
M  V30 2159 C 198.86 4.41235 0.427402 0
M  V30 2160 H 196.08 0.664946 -0.0899353 0
M  V30 2161 H 198.624 1.83924 -0.893988 0
M  V30 2162 H 196.779 3.82841 0.59257 0
M  V30 2163 H 197.193 5.10153 -1.21839 0
M  V30 2164 H 198.667 5.5021 0.44423 0
M  V30 2165 H 199.144 4.14268 1.45873 0
M  V30 2166 H 199.75 4.2478 -0.210167 0
M  V30 2167 N 198.065 0.39524 1.52563 0
M  V30 2168 C 199.028 -0.425001 2.25225 0
M  V30 2169 C 200.028 -0.985266 1.27079 0
M  V30 2170 O 201.218 -0.866332 1.5113 0
M  V30 2171 C 198.35 -1.59686 3.01186 0
M  V30 2172 H 199.543 0.211233 2.99155 0
M  V30 2173 H 197.096 0.147472 1.55603 0
M  V30 2174 H 197.831 -2.27035 2.31572 0
M  V30 2175 H 197.616 -1.20176 3.73229 0
M  V30 2176 H 199.106 -2.17743 3.5634 0
M  V30 2177 N 199.544 -1.57102 0.125237 0
M  V30 2178 C 200.791 -1.95407 -0.531248 0
M  V30 2179 C 201.119 -1.0089 -1.66287 0
M  V30 2180 O 200.374 -0.0339431 -1.95671 0
M  V30 2181 C 200.673 -3.40096 -1.09862 0
M  V30 2182 C 200.339 -4.50815 -0.0876989 0
M  V30 2183 C 199.001 -4.80824 0.19026 0
M  V30 2184 C 201.353 -5.17724 0.600902 0
M  V30 2185 C 198.681 -5.75058 1.163 0
M  V30 2186 C 201.033 -6.13005 1.56231 0
M  V30 2187 C 199.697 -6.41403 1.8482 0
M  V30 2188 H 198.967 -0.715046 -0.194397 0
M  V30 2189 H 201.614 -1.90373 0.207463 0
M  V30 2190 H 199.919 -3.41855 -1.91422 0
M  V30 2191 H 201.616 -3.6705 -1.61478 0
M  V30 2192 H 198.206 -4.27444 -0.314528 0
M  V30 2193 H 202.39 -4.94691 0.399333 0
M  V30 2194 H 197.646 -5.95362 1.39117 0
M  V30 2195 H 201.82 -6.63934 2.10153 0
M  V30 2196 H 199.447 -7.14229 2.60349 0
M  V30 2197 N 201.022 0.148545 -1.56898 0
M  V30 2198 C 201.969 1.18345 -1.98149 0
M  V30 2199 C 202.939 1.42772 -0.848848 0
M  V30 2200 O 204.124 1.55132 -1.11079 0
M  V30 2201 C 201.264 2.51231 -2.36594 0
M  V30 2202 C 200.377 2.33991 -3.63142 0
M  V30 2203 C 199.512 3.59902 -3.90697 0
M  V30 2204 C 198.551 3.37692 -5.1052 0
M  V30 2205 N 197.688 4.5573 -5.34092 0
M  V30 2206 H 202.528 0.82467 -2.86362 0
M  V30 2207 H 200.065 0.395756 -1.41676 0
M  V30 2208 H 202.023 3.28713 -2.56912 0
M  V30 2209 H 200.653 2.85059 -1.51463 0
M  V30 2210 H 199.705 1.47572 -3.50609 0
M  V30 2211 H 201.017 2.13539 -4.5078 0
M  V30 2212 H 200.171 4.45813 -4.11505 0
M  V30 2213 H 198.91 3.83357 -3.01477 0
M  V30 2214 H 197.915 2.5017 -4.89587 0
M  V30 2215 H 199.14 3.15637 -6.0129 0
M  V30 2216 H 197.086 4.79361 -4.47827 0
M  V30 2217 H 197.003 4.38274 -6.15996 0
M  V30 2218 H 198.271 5.42858 -5.59397 0
M  V30 2219 N 202.5 1.5196 0.417844 0
M  V30 2220 C 203.432 1.70895 1.52733 0
M  V30 2221 C 204.445 0.589405 1.51756 0
M  V30 2222 O 205.634 0.864312 1.56179 0
M  V30 2223 C 202.734 1.72627 2.91639 0
M  V30 2224 C 201.907 3.01479 3.16905 0
M  V30 2225 C 200.966 2.95139 4.35637 0
M  V30 2226 O 199.992 3.69059 4.3334 0
M  V30 2227 N 201.194 2.12328 5.40275 0
M  V30 2228 H 203.959 2.66612 1.36888 0
M  V30 2229 H 201.52 1.50089 0.607037 0
M  V30 2230 H 203.512 1.65928 3.6912 0
M  V30 2231 H 202.082 0.844216 3.00985 0
M  V30 2232 H 201.302 3.21895 2.27546 0
M  V30 2233 H 202.59 3.86736 3.30625 0
M  V30 2234 H 201.988 1.51685 5.44985 0
M  V30 2235 H 200.545 2.11494 6.16534 0
M  V30 2236 N 203.978 -0.674533 1.42435 0
M  V30 2237 C 205.389 -1.25514 1.38214 0
M  V30 2238 C 205.74 -1.96055 0.0755464 0
M  V30 2239 O 204.865 -2.00028 -0.8257 0
M  V30 2240 C 205.46 -2.28269 2.50357 0
M  V30 2241 C 204.019 -2.81856 2.49467 0
M  V30 2242 C 203.166 -1.56182 2.29134 0
M  V30 2243 H 206.117 -0.467902 1.51646 0
M  V30 2244 H 206.138 -3.10009 2.20624 0
M  V30 2245 H 205.65 -1.769 3.45439 0
M  V30 2246 H 203.751 -3.37346 1.58204 0
M  V30 2247 H 203.864 -3.30854 3.46515 0
M  V30 2248 H 202.228 -1.82761 1.774 0
M  V30 2249 H 203.011 -1.06778 3.26272 0
M  V30 2250 N 205.456 -1.28612 -0.910864 0
M  V30 2251 C 206.705 -1.15311 -1.65488 0
M  V30 2252 C 207.018 0.296999 -1.93332 0
M  V30 2253 O 208.224 0.551168 -2.65847 0
M  V30 2254 C 206.68 -2.01599 -2.98137 0
M  V30 2255 C 206.288 -3.51367 -2.7793 0
M  V30 2256 C 208.032 -1.96993 -3.76024 0
M  V30 2257 C 205.939 -4.29797 -4.06237 0
M  V30 2258 H 204.869 -0.42796 -0.620779 0
M  V30 2259 H 207.52 -1.53166 -1.01057 0
M  V30 2260 H 205.902 -1.56603 -3.63719 0
M  V30 2261 H 207.076 -4.0434 -2.21011 0
M  V30 2262 H 205.391 -3.57529 -2.13452 0
M  V30 2263 H 207.988 -2.52856 -4.71135 0
M  V30 2264 H 208.331 -0.94733 -4.05378 0
M  V30 2265 H 208.864 -2.39973 -3.17266 0
M  V30 2266 H 205.603 -5.32648 -3.82055 0
M  V30 2267 H 205.123 -3.81596 -4.62757 0
M  V30 2268 H 206.802 -4.39869 -4.74473 0
M  V30 2269 N 206.934 1.1197 -1.10907 0
M  V30 2270 C 207.844 2.21433 -0.774896 0
M  V30 2271 C 208.86 1.72478 0.229657 0
M  V30 2272 O 210.036 2.01288 0.0672008 0
M  V30 2273 C 207.101 3.4602 -0.216986 0
M  V30 2274 C 206.162 4.09791 -1.27944 0
M  V30 2275 C 205.395 5.28431 -0.748055 0
M  V30 2276 O 205.618 5.68823 0.423833 0
M  V30 2277 O 204.552 5.82644 -1.51027 0
M  V30 2278 H 208.378 2.5242 -1.68873 0
M  V30 2279 H 205.963 1.20399 -0.884555 0
M  V30 2280 H 207.845 4.21304 0.090059 0
M  V30 2281 H 206.52 3.16698 0.669633 0
M  V30 2282 H 205.427 3.36265 -1.63941 0
M  V30 2283 H 206.76 4.4328 -2.13925 0
M  V30 2284 N 208.412 0.89855 1.29475 0
M  V30 2285 C 209.689 0.443416 1.90508 0
M  V30 2286 C 210.069 -1.07685 1.81569 0
M  V30 2287 O 209.417 -1.9182 1.24166 0
M  V30 2288 C 209.627 0.956708 3.35631 0
M  V30 2289 C 210.975 0.999728 4.12663 0
M  V30 2290 O 211.999 0.904299 3.4453 0
M  V30 2291 O 210.858 1.14289 5.34416 0
M  V30 2292 H 207.952 0.138025 0.815401 0
M  V30 2293 H 210.498 0.98834 1.37949 0
M  V30 2294 H 209.27 2.00067 3.36287 0
M  V30 2295 H 208.893 0.391728 3.95666 0
M  V30 2296 N 209.89 -1.43072 0.660911 0
M  V30 2297 C 211.167 -1.95307 0.107017 0
M  V30 2298 C 211.547 -1.60192 -1.37484 0
M  V30 2299 O 210.895 -0.890949 -2.10415 0
M  V30 2300 C 211.105 -3.47124 0.361402 0
M  V30 2301 C 212.453 -4.23738 0.270455 0
M  V30 2302 O 213.477 -3.54981 0.294382 0
M  V30 2303 O 212.336 -5.46131 0.200737 0
M  V30 2304 H 209.43 -0.826984 -0.00517729 0
M  V30 2305 H 211.976 -1.52972 0.734681 0
M  V30 2306 H 210.748 -3.65837 1.38848 0
M  V30 2307 H 210.371 -3.96475 -0.298953 0
M  V30 2308 N 211.368 -0.403325 -1.52352 0
M  V30 2309 C 212.593 0.176499 -2.06648 0
M  V30 2310 C 213.018 1.38577 -1.27193 0
M  V30 2311 O 212.376 1.7879 -0.300637 0
M  V30 2312 C 212.424 0.511061 -3.5696 0
M  V30 2313 O 211.528 1.60294 -3.79973 0
M  V30 2314 H 210.869 0.0167337 -0.663789 0
M  V30 2315 H 213.399 -0.574848 -1.96359 0
M  V30 2316 H 213.409 0.771362 -4.00642 0
M  V30 2317 H 212.084 -0.37296 -4.14224 0
M  V30 2318 H 210.661 1.33526 -3.48174 0
M  V30 2319 N 212.846 1.57033 -0.133567 0
M  V30 2320 C 214.086 1.97575 0.523789 0
M  V30 2321 C 214.45 1.01605 1.62912 0
M  V30 2322 O 215.651 1.3114 2.3464 0
M  V30 2323 C 213.922 3.42256 1.02935 0
M  V30 2324 S 215.481 4.04817 1.69319 0
M  V30 2325 H 212.299 0.690427 0.169799 0
M  V30 2326 H 214.901 1.94234 -0.222101 0
M  V30 2327 H 213.605 4.09842 0.213917 0
M  V30 2328 H 213.136 3.4928 1.81017 0
M  V30 2329 H 215.151 3.96767 2.97977 0
M  V30 2330 N 214.325 -0.140222 1.56975 0
M  V30 2331 C 215.272 -1.17292 1.98774 0
M  V30 2332 C 216.242 -1.4232 0.856408 0
M  V30 2333 O 217.427 -1.54541 1.119 0
M  V30 2334 C 214.567 -2.49973 2.37923 0
M  V30 2335 C 213.68 -2.32062 3.64378 0
M  V30 2336 C 212.815 -3.57825 3.926 0
M  V30 2337 C 211.854 -3.3498 5.12303 0
M  V30 2338 N 210.991 -4.52891 5.36502 0
M  V30 2339 H 215.831 -0.809472 2.86795 0
M  V30 2340 H 213.368 -0.388237 1.41884 0
M  V30 2341 H 215.326 -3.27346 2.58652 0
M  V30 2342 H 213.956 -2.84252 1.52972 0
M  V30 2343 H 213.008 -1.45711 3.51387 0
M  V30 2344 H 214.32 -2.11145 4.51906 0
M  V30 2345 H 213.474 -4.43624 4.13863 0
M  V30 2346 H 212.213 -3.81753 3.03506 0
M  V30 2347 H 211.218 -2.4757 4.90906 0
M  V30 2348 H 212.443 -3.12444 6.02956 0
M  V30 2349 H 210.389 -4.76979 4.50363 0
M  V30 2350 H 210.306 -4.35001 6.18312 0
M  V30 2351 H 211.574 -5.39884 5.62268 0
M  V30 2352 N 215.803 -1.52179 -0.40978 0
M  V30 2353 C 217.051 -1.65878 -1.15451 0
M  V30 2354 C 217.372 -0.390771 -1.91044 0
M  V30 2355 O 216.642 0.594323 -1.86667 0
M  V30 2356 H 215.222 -0.611405 -0.429177 0
M  V30 2357 H 217.884 -1.89219 -0.467134 0
M  V30 2358 H 216.98 -2.49954 -1.86894 0
M  V30 2359 N 217.281 0.66697 -1.42791 0
M  V30 2360 C 218.527 1.42754 -1.44889 0
M  V30 2361 C 218.882 1.92283 -0.0669755 0
M  V30 2362 O 218.175 1.68494 0.912154 0
M  V30 2363 C 218.369 2.6349 -2.4147 0
M  V30 2364 C 218.198 2.25776 -3.88915 0
M  V30 2365 C 216.968 2.1476 -4.57391 0
M  V30 2366 C 219.166 1.86927 -4.79127 0
M  V30 2367 N 217.148 1.70232 -5.89826 0
M  V30 2368 C 218.519 1.53378 -6.00729 0
M  V30 2369 C 220.574 1.73989 -4.66511 0
M  V30 2370 C 219.277 1.08187 -7.11117 0
M  V30 2371 C 221.303 1.30203 -5.76889 0
M  V30 2372 C 220.665 0.975818 -6.97608 0
M  V30 2373 H 216.764 0.518559 -0.585338 0
M  V30 2374 H 219.348 0.768906 -1.78874 0
M  V30 2375 H 217.519 3.27033 -2.09533 0
M  V30 2376 H 219.251 3.30123 -2.34096 0
M  V30 2377 H 216.006 2.3408 -4.11708 0
M  V30 2378 H 216.43 1.50369 -6.6009 0
M  V30 2379 H 221.072 1.97853 -3.7365 0
M  V30 2380 H 218.79 0.830701 -8.03819 0
M  V30 2381 H 222.376 1.20701 -5.69142 0
M  V30 2382 H 221.256 0.642157 -7.81566 0
M  V30 2383 N 218.759 1.29093 0.90403 0
M  V30 2384 C 220.007 1.16583 1.65085 0
M  V30 2385 C 220.328 -0.283933 1.92922 0
M  V30 2386 O 219.598 -1.19509 1.55224 0
M  V30 2387 H 218.178 0.428467 0.611903 0
M  V30 2388 H 220.84 1.61959 1.08422 0
M  V30 2389 H 219.936 1.71266 2.6091 0
M  V30 2390 N 220.237 -1.11381 1.11499 0
M  V30 2391 C 221.184 -2.17439 0.773887 0
M  V30 2392 C 222.154 -1.64132 -0.254899 0
M  V30 2393 O 223.339 -1.90345 -0.13168 0
M  V30 2394 C 220.479 -3.44373 0.223917 0
M  V30 2395 C 219.592 -4.1168 1.30934 0
M  V30 2396 C 218.727 -5.263 0.71984 0
M  V30 2397 C 217.766 -5.85493 1.78507 0
M  V30 2398 N 216.903 -6.91507 1.21502 0
M  V30 2399 H 221.743 -2.45962 1.68246 0
M  V30 2400 H 219.28 -1.20744 0.840191 0
M  V30 2401 H 221.238 -4.17047 -0.112921 0
M  V30 2402 H 219.868 -3.16232 -0.647851 0
M  V30 2403 H 218.92 -3.37073 1.76312 0
M  V30 2404 H 220.232 -4.51729 2.11524 0
M  V30 2405 H 219.386 -6.05785 0.333094 0
M  V30 2406 H 218.125 -4.87559 -0.117377 0
M  V30 2407 H 217.13 -5.04686 2.18111 0
M  V30 2408 H 218.355 -6.26301 2.62533 0
M  V30 2409 H 216.301 -6.54783 0.399455 0
M  V30 2410 H 216.218 -7.30214 1.95763 0
M  V30 2411 H 217.486 -7.74795 0.855181 0
M  V30 2412 N 221.715 -0.905404 -1.28997 0
M  V30 2413 C 222.962 -0.534248 -1.95325 0
M  V30 2414 C 223.29 0.920535 -1.71337 0
M  V30 2415 O 222.545 1.66861 -1.02254 0
M  V30 2416 C 222.844 -0.779906 -3.48787 0
M  V30 2417 C 222.51 -2.21293 -3.92861 0
M  V30 2418 C 221.172 -2.60475 -4.04606 0
M  V30 2419 C 223.524 -3.14587 -4.15553 0
M  V30 2420 C 220.852 -3.9212 -4.36416 0
M  V30 2421 C 223.204 -4.45787 -4.48839 0
M  V30 2422 C 221.868 -4.84834 -4.58794 0
M  V30 2423 H 221.138 -0.195495 -0.714747 0
M  V30 2424 H 223.785 -1.14514 -1.53488 0
M  V30 2425 H 222.09 -0.0861365 -3.91705 0
M  V30 2426 H 223.787 -0.472029 -3.98212 0
M  V30 2427 H 220.377 -1.89887 -3.84241 0
M  V30 2428 H 224.561 -2.85528 -4.0594 0
M  V30 2429 H 219.817 -4.22086 -4.42327 0
M  V30 2430 H 223.991 -5.18098 -4.65346 0
M  V30 2431 H 221.618 -5.86877 -4.83197 0
M  V30 2432 N 223.193 1.4272 -0.668489 0
M  V30 2433 C 224.156 2.292 0.00448567 0
M  V30 2434 C 225.156 1.43001 0.735339 0
M  V30 2435 O 226.346 1.64461 0.57429 0
M  V30 2436 C 223.478 3.25375 1.01705 0
M  V30 2437 H 224.671 2.90199 -0.756608 0
M  V30 2438 H 222.224 1.50254 -0.430506 0
M  V30 2439 H 222.959 2.69301 1.80686 0
M  V30 2440 H 222.744 3.88944 0.496463 0
M  V30 2441 H 224.234 3.90245 1.48655 0
M  V30 2442 N 224.671 0.411399 1.52136 0
M  V30 2443 C 226.087 0.0623865 1.59478 0
M  V30 2444 C 226.287 -1.42554 1.4241 0
M  V30 2445 O 225.343 -2.19263 1.2522 0
M  V30 2446 C 226.656 0.559331 2.95452 0
M  V30 2447 C 228.204 0.517503 3.08692 0
M  V30 2448 C 228.679 0.990994 4.4715 0
M  V30 2449 N 230.17 0.947908 4.53397 0
M  V30 2450 C 230.905 1.28544 5.58806 0
M  V30 2451 N 230.401 1.69454 6.71757 0
M  V30 2452 N 232.194 1.20526 5.49026 0
M  V30 2453 H 224.345 1.37982 1.61477 0
M  V30 2454 H 226.608 0.566977 0.759764 0
M  V30 2455 H 226.314 1.59938 3.1323 0
M  V30 2456 H 226.188 -0.0298014 3.77188 0
M  V30 2457 H 228.575 -0.513505 2.90598 0
M  V30 2458 H 228.656 1.14272 2.28857 0
M  V30 2459 H 228.3 2.02034 4.65988 0
M  V30 2460 H 228.23 0.34257 5.25485 0
M  V30 2461 H 230.721 0.647157 3.72317 0
M  V30 2462 H 231.034 1.93513 7.48179 0
M  V30 2463 H 229.379 1.73359 6.73032 0
M  V30 2464 H 232.57 0.884505 4.59667 0
M  V30 2465 H 232.743 1.47161 6.31069 0
M  V30 2466 N 226.149 -1.5696 0.141893 0
M  V30 2467 C 227.079 -2.19516 -0.795936 0
M  V30 2468 C 228.06 -1.14187 -1.26077 0
M  V30 2469 O 229.245 -1.42511 -1.31925 0
M  V30 2470 C 226.375 -2.81272 -2.03723 0
M  V30 2471 C 225.329 -3.92384 -1.70936 0
M  V30 2472 C 224.655 -4.41052 -3.02287 0
M  V30 2473 C 225.955 -5.13403 -0.959954 0
M  V30 2474 H 227.649 -2.98138 -0.274596 0
M  V30 2475 H 225.195 -1.43406 -0.130636 0
M  V30 2476 H 227.148 -3.237 -2.69808 0
M  V30 2477 H 225.872 -1.99973 -2.58221 0
M  V30 2478 H 224.531 -3.50566 -1.07232 0
M  V30 2479 H 224.179 -3.56582 -3.54765 0
M  V30 2480 H 223.879 -5.15993 -2.81114 0
M  V30 2481 H 225.403 -4.86146 -3.69451 0
M  V30 2482 H 226.817 -5.52706 -1.52279 0
M  V30 2483 H 225.214 -5.94073 -0.848357 0
M  V30 2484 H 226.284 -4.84875 0.0492434 0
M  V30 2485 N 227.627 0.131896 -1.57047 0
M  V30 2486 C 228.855 0.856461 -1.88341 0
M  V30 2487 C 229.27 1.74042 -0.731757 0
M  V30 2488 O 228.627 1.80051 0.297945 0
M  V30 2489 C 228.678 1.70064 -3.18999 0
M  V30 2490 O 228.399 0.852278 -4.2973 0
M  V30 2491 C 229.9 2.53148 -3.63911 0
M  V30 2492 H 227.12 0.246885 -0.62393 0
M  V30 2493 H 229.664 0.120152 -2.04147 0
M  V30 2494 H 227.819 2.38984 -3.04902 0
M  V30 2495 H 228.233 1.43329 -5.04537 0
M  V30 2496 H 229.707 3.07931 -4.58129 0
M  V30 2497 H 230.184 3.29901 -2.89935 0
M  V30 2498 H 230.79 1.89492 -3.80753 0
M  V30 2499 N 229.106 1.52395 0.401703 0
M  V30 2500 C 230.522 1.41363 0.740864 0
M  V30 2501 C 230.722 0.523982 1.94568 0
M  V30 2502 O 229.778 -0.00741204 2.52499 0
M  V30 2503 C 231.091 2.84011 0.987847 0
M  V30 2504 C 232.639 2.93404 1.09011 0
M  V30 2505 C 233.114 4.37036 1.3698 0
M  V30 2506 N 234.605 4.40304 1.43829 0
M  V30 2507 C 235.34 5.48508 1.67112 0
M  V30 2508 N 234.836 6.66819 1.87949 0
M  V30 2509 N 236.629 5.36034 1.69187 0
M  V30 2510 H 228.78 2.08765 -0.391262 0
M  V30 2511 H 231.043 0.941265 -0.112798 0
M  V30 2512 H 230.749 3.51265 0.174835 0
M  V30 2513 H 230.623 3.25502 1.906 0
M  V30 2514 H 233.01 2.26325 1.8937 0
M  V30 2515 H 233.091 2.55359 0.15015 0
M  V30 2516 H 232.735 5.04676 0.571353 0
M  V30 2517 H 232.665 4.72623 2.3224 0
M  V30 2518 H 235.156 3.55024 1.29486 0
M  V30 2519 H 235.469 7.45063 2.05185 0
M  V30 2520 H 233.814 6.6987 1.85199 0
M  V30 2521 H 237.005 4.42579 1.52451 0
M  V30 2522 H 237.178 6.20434 1.86993 0
M  V30 2523 N 230.584 -0.659388 1.43143 0
M  V30 2524 C 231.547 -1.75432 1.47501 0
M  V30 2525 C 232.547 -1.56707 0.360512 0
M  V30 2526 O 233.737 -1.62717 0.622002 0
M  V30 2527 C 230.869 -3.14239 1.32162 0
M  V30 2528 H 232.062 -1.7295 2.45006 0
M  V30 2529 H 229.615 -0.870469 1.29817 0
M  V30 2530 H 230.35 -3.22336 0.356401 0
M  V30 2531 H 230.135 -3.29235 2.12948 0
M  V30 2532 H 231.625 -3.94094 1.3813 0
M  V30 2533 N 232.062 -1.29571 -0.897171 0
M  V30 2534 C 232.992 -1.17473 -2.01798 0
M  V30 2535 C 233.973 -0.068323 -1.69963 0
M  V30 2536 O 235.158 -0.248239 -1.92607 0
M  V30 2537 C 232.288 -0.853099 -3.36659 0
M  V30 2538 C 231.242 -1.9161 -3.82713 0
M  V30 2539 C 230.568 -1.44773 -5.14728 0
M  V30 2540 C 231.868 -3.32535 -4.02763 0
M  V30 2541 H 233.562 -2.11237 -2.12177 0
M  V30 2542 H 231.108 -1.01699 -1.01948 0
M  V30 2543 H 233.061 -0.755165 -4.14578 0
M  V30 2544 H 231.785 0.120236 -3.26379 0
M  V30 2545 H 230.444 -2.00346 -3.07013 0
M  V30 2546 H 230.092 -0.462995 -5.00865 0
M  V30 2547 H 229.792 -2.15865 -5.46513 0
M  V30 2548 H 231.316 -1.36334 -5.95185 0
M  V30 2549 H 232.73 -3.26626 -4.71156 0
M  V30 2550 H 231.127 -4.01607 -4.45905 0
M  V30 2551 H 232.197 -3.75326 -3.07016 0
M  V30 2552 N 233.54 1.10788 -1.12088 0
M  V30 2553 C 234.768 1.86461 -0.896651 0
M  V30 2554 C 235.183 1.80492 0.553912 0
M  V30 2555 O 234.54 1.19102 1.38278 0
M  V30 2556 C 234.591 3.35006 -1.35843 0
M  V30 2557 O 234.312 3.40866 -2.75213 0
M  V30 2558 C 235.813 4.27565 -1.1706 0
M  V30 2559 H 233.033 0.589425 -0.320654 0
M  V30 2560 H 235.577 1.40076 -1.48993 0
M  V30 2561 H 233.732 3.7887 -0.808458 0
M  V30 2562 H 234.146 4.33411 -2.9539 0
M  V30 2563 H 235.62 5.30007 -1.54263 0
M  V30 2564 H 236.097 4.3906 -0.110814 0
M  V30 2565 H 236.703 3.89501 -1.70789 0
M  V30 2566 N 235.018 0.912232 1.28515 0
M  V30 2567 C 236.243 0.559774 1.99703 0
M  V30 2568 C 236.668 -0.851393 1.67729 0
M  V30 2569 O 236.026 -1.56875 0.908834 0
M  V30 2570 C 236.074 0.773874 3.52198 0
M  V30 2571 O 235.178 -0.167842 4.12058 0
M  V30 2572 H 234.519 0.21723 0.627461 0
M  V30 2573 H 237.049 1.22725 1.63706 0
M  V30 2574 H 237.059 0.683386 4.02236 0
M  V30 2575 H 235.734 1.80261 3.74805 0
M  V30 2576 H 234.311 -0.0287509 3.72889 0
M  V30 2577 N 236.496 -1.42363 0.676048 0
M  V30 2578 C 237.721 -2.06377 0.205705 0
M  V30 2579 C 238.146 -1.50463 -1.12883 0
M  V30 2580 O 237.504 -0.623619 -1.70237 0
M  V30 2581 C 237.552 -3.60277 0.152655 0
M  V30 2582 O 236.656 -4.02935 -0.87845 0
M  V30 2583 H 235.997 -0.655588 0.105359 0
M  V30 2584 H 238.527 -1.82475 0.925412 0
M  V30 2585 H 238.537 -4.07993 -0.0230675 0
M  V30 2586 H 237.212 -4.00346 1.12675 0
M  V30 2587 H 235.789 -3.66764 -0.673668 0
M  V30 2588 N 237.974 -0.419461 -1.51915 0
M  V30 2589 C 239.39 -0.0708431 -1.59443 0
M  V30 2590 C 239.59 1.41796 -1.43164 0
M  V30 2591 O 238.646 2.18596 -1.26381 0
M  V30 2592 C 239.959 -0.574991 -2.95151 0
M  V30 2593 C 241.507 -0.533867 -3.08413 0
M  V30 2594 C 241.982 -1.01469 -4.46618 0
M  V30 2595 N 243.473 -0.971939 -4.52888 0
M  V30 2596 C 244.208 -1.31505 -5.58116 0
M  V30 2597 N 243.704 -1.73014 -6.70849 0
M  V30 2598 N 245.497 -1.23436 -5.48379 0
M  V30 2599 H 237.648 -1.38836 -1.60743 0
M  V30 2600 H 239.911 -0.570998 -0.756747 0
M  V30 2601 H 239.617 -1.61597 -3.12377 0
M  V30 2602 H 239.491 0.00979777 -3.77199 0
M  V30 2603 H 241.878 0.498086 -2.90866 0
M  V30 2604 H 241.959 -1.15484 -2.28248 0
M  V30 2605 H 241.603 -2.04502 -4.6491 0
M  V30 2606 H 241.533 -0.370433 -5.25295 0
M  V30 2607 H 244.024 -0.666893 -3.71969 0
M  V30 2608 H 244.337 -1.97479 -7.47143 0
M  V30 2609 H 242.682 -1.76926 -6.72103 0
M  V30 2610 H 245.873 -0.908869 -4.59192 0
M  V30 2611 H 246.046 -1.50506 -6.30279 0
M  V30 2612 N 239.452 1.56882 -0.150215 0
M  V30 2613 C 240.7 1.9584 0.499105 0
M  V30 2614 C 241.021 1.03623 1.65188 0
M  V30 2615 O 240.291 0.0984084 1.95653 0
M  V30 2616 H 238.871 0.723119 0.187373 0
M  V30 2617 H 241.533 1.9358 -0.226466 0
M  V30 2618 H 240.629 2.99638 0.873122 0
M  V30 2619 N 240.93 -0.123565 1.57115 0
M  V30 2620 C 242.176 -0.833386 1.84885 0
M  V30 2621 C 242.509 -1.79742 0.735292 0
M  V30 2622 O 241.784 -1.92764 -0.25925 0
M  V30 2623 C 242.067 -1.5873 3.23228 0
M  V30 2624 C 241.92 -0.643183 4.45178 0
M  V30 2625 C 243.239 -2.54453 3.59085 0
M  V30 2626 H 240.358 -0.301518 0.6725 0
M  V30 2627 H 243 -0.097778 1.89748 0
M  V30 2628 H 241.15 -2.21438 3.19214 0
M  V30 2629 H 242.822 -0.0253015 4.61293 0
M  V30 2630 H 241.065 0.0456139 4.33776 0
M  V30 2631 H 241.736 -1.20724 5.38637 0
M  V30 2632 H 244.212 -2.01853 3.63861 0
M  V30 2633 H 243.088 -3.04238 4.5687 0
M  V30 2634 H 243.349 -3.36906 2.86264 0
M  V30 2635 N 242.408 -1.52605 -0.393616 0
M  V30 2636 C 243.338 -1.80022 -1.48709 0
M  V30 2637 C 244.319 -0.651995 -1.57108 0
M  V30 2638 O 245.504 -0.89913 -1.72132 0
M  V30 2639 C 242.634 -1.96492 -2.86371 0
M  V30 2640 C 241.588 -3.12161 -2.92813 0
M  V30 2641 C 240.914 -3.13877 -4.3288 0
M  V30 2642 C 242.214 -4.51322 -2.6288 0
M  V30 2643 H 243.908 -2.71589 -1.26015 0
M  V30 2644 H 241.454 -1.30684 -0.604778 0
M  V30 2645 H 243.407 -2.14255 -3.62867 0
M  V30 2646 H 242.131 -1.01611 -3.10391 0
M  V30 2647 H 240.79 -2.94173 -2.18764 0
M  V30 2648 H 240.438 -2.16687 -4.53933 0
M  V30 2649 H 240.138 -3.91576 -4.38112 0
M  V30 2650 H 241.662 -3.33789 -5.1129 0
M  V30 2651 H 243.076 -4.69435 -3.29096 0
M  V30 2652 H 241.473 -5.31053 -2.79468 0
M  V30 2653 H 242.543 -4.58353 -1.58242 0
M  V30 2654 N 243.887 0.651787 -1.4349 0
M  V30 2655 C 244.819 1.77725 -1.44729 0
M  V30 2656 C 245.832 1.59141 -0.343231 0
M  V30 2657 O 247.021 1.67835 -0.607751 0
M  V30 2658 C 244.121 3.15172 -1.24579 0
M  V30 2659 C 243.294 3.60402 -2.47849 0
M  V30 2660 C 242.353 4.76656 -2.22902 0
M  V30 2661 O 241.379 4.86022 -2.96263 0
M  V30 2662 N 242.581 5.66958 -1.24656 0
M  V30 2663 H 245.346 1.77141 -2.41746 0
M  V30 2664 H 242.907 0.835678 -1.38665 0
M  V30 2665 H 244.899 3.90634 -1.0577 0
M  V30 2666 H 243.469 3.1052 -0.360015 0
M  V30 2667 H 242.689 2.75369 -2.82073 0
M  V30 2668 H 243.977 3.87368 -3.29884 0
M  V30 2669 H 243.375 5.62065 -0.640265 0
M  V30 2670 H 241.932 6.42135 -1.1183 0
M  V30 2671 N 245.365 1.30045 0.890287 0
M  V30 2672 C 246.297 1.11786 2.00091 0
M  V30 2673 C 247.31 0.0626307 1.62679 0
M  V30 2674 O 248.499 0.308112 1.75821 0
M  V30 2675 C 245.599 0.681527 3.31977 0
M  V30 2676 C 244.772 1.81735 3.97858 0
M  V30 2677 C 243.831 1.37045 5.08041 0
M  V30 2678 O 242.857 2.07677 5.29961 0
M  V30 2679 N 244.059 0.246525 5.79976 0
M  V30 2680 H 246.824 2.07441 2.16306 0
M  V30 2681 H 244.385 1.2211 1.06305 0
M  V30 2682 H 246.377 0.365675 4.03045 0
M  V30 2683 H 244.947 -0.182828 3.12065 0
M  V30 2684 H 244.167 2.30159 3.20032 0
M  V30 2685 H 245.455 2.57865 4.38615 0
M  V30 2686 H 244.853 -0.34215 5.64664 0
M  V30 2687 H 243.41 -0.00990438 6.51799 0
M  V30 2688 N 246.843 -1.10192 1.12674 0
M  V30 2689 C 247.773 -2.18652 0.819362 0
M  V30 2690 C 248.754 -1.68698 -0.217915 0
M  V30 2691 O 249.939 -1.94041 -0.0785581 0
M  V30 2692 C 247.069 -3.46202 0.27594 0
M  V30 2693 C 246.023 -4.09444 1.24656 0
M  V30 2694 C 245.349 -5.31725 0.563258 0
M  V30 2695 C 246.649 -4.52863 2.60217 0
M  V30 2696 H 248.343 -2.44622 1.72628 0
M  V30 2697 H 245.889 -1.17571 0.831451 0
M  V30 2698 H 247.842 -4.21372 0.0486149 0
M  V30 2699 H 246.566 -3.1973 -0.666331 0
M  V30 2700 H 245.225 -3.36284 1.45974 0
M  V30 2701 H 244.873 -5.0153 -0.384235 0
M  V30 2702 H 244.573 -5.74991 1.21075 0
M  V30 2703 H 246.097 -6.09624 0.34503 0
M  V30 2704 H 247.511 -5.19294 2.42913 0
M  V30 2705 H 245.908 -5.06986 3.21068 0
M  V30 2706 H 246.978 -3.65656 3.18471 0
M  V30 2707 N 248.321 -0.919034 -1.28029 0
M  V30 2708 C 249.284 -0.416182 -2.2539 0
M  V30 2709 C 250.284 0.460438 -1.54067 0
M  V30 2710 O 251.474 0.262744 -1.72207 0
M  V30 2711 C 248.606 0.402707 -3.38513 0
M  V30 2712 H 249.799 -1.27629 -2.71387 0
M  V30 2713 H 247.352 -0.698919 -1.39803 0
M  V30 2714 H 248.087 1.282 -2.97885 0
M  V30 2715 H 247.872 -0.225698 -3.9145 0
M  V30 2716 H 249.362 0.745191 -4.10897 0
M  V30 2717 N 249.799 1.42003 -0.683588 0
M  V30 2718 C 251.21 1.84501 -0.285736 0
M  V30 2719 C 251.561 1.57213 1.17382 0
M  V30 2720 O 250.686 1.03642 1.89966 0
M  V30 2721 C 251.281 3.34912 -0.511821 0
M  V30 2722 C 249.84 3.76025 -0.168005 0
M  V30 2723 C 248.987 2.6551 -0.799983 0
M  V30 2724 H 251.938 1.31724 -0.885119 0
M  V30 2725 H 251.959 3.79784 0.233292 0
M  V30 2726 H 251.471 3.54741 -1.57418 0
M  V30 2727 H 249.572 3.61801 0.890567 0
M  V30 2728 H 249.685 4.75141 -0.614661 0
M  V30 2729 H 248.049 2.53654 -0.230568 0
M  V30 2730 H 248.832 2.8816 -1.86597 0
M  V30 2731 N 251.277 0.427512 1.51691 0
M  V30 2732 C 252.502 -0.143601 2.06902 0
M  V30 2733 C 252.927 -1.36536 1.29382 0
M  V30 2734 O 252.285 -1.78289 0.329043 0
M  V30 2735 C 252.333 -0.454207 3.57728 0
M  V30 2736 O 251.437 -1.54228 3.82475 0
M  V30 2737 H 250.778 -0.00617128 0.663971 0
M  V30 2738 H 253.308 0.606014 1.95419 0
M  V30 2739 H 253.318 -0.707525 4.01818 0
M  V30 2740 H 251.993 0.438812 4.13579 0
M  V30 2741 H 250.57 -1.2797 3.50254 0
M  V30 2742 N 252.755 -1.56801 0.158532 0
M  V30 2743 C 254.001 -1.96781 -0.490405 0
M  V30 2744 C 254.334 -1.04397 -1.63753 0
M  V30 2745 O 253.609 -0.0885805 -1.94298 0
M  V30 2746 C 253.892 -3.4635 -0.985594 0
M  V30 2747 C 253.745 -4.49512 0.160824 0
M  V30 2748 C 255.064 -3.98697 -1.86355 0
M  V30 2749 H 252.183 -0.715482 -0.176788 0
M  V30 2750 H 254.825 -1.88451 0.242088 0
M  V30 2751 H 252.975 -3.53579 -1.60978 0
M  V30 2752 H 254.647 -4.54353 0.797537 0
M  V30 2753 H 252.89 -4.26013 0.818256 0
M  V30 2754 H 253.561 -5.51531 -0.227569 0
M  V30 2755 H 256.037 -3.94019 -1.33746 0
M  V30 2756 H 254.913 -5.03792 -2.17909 0
M  V30 2757 H 255.174 -3.41744 -2.8047 0
M  V30 2758 N 254.233 0.115231 -1.57178 0
M  V30 2759 C 255.165 1.16694 -1.97269 0
M  V30 2760 C 256.178 1.37445 -0.872502 0
M  V30 2761 O 257.367 1.36454 -1.15077 0
M  V30 2762 C 254.467 2.52627 -2.25905 0
M  V30 2763 C 253.64 2.52427 -3.57211 0
M  V30 2764 C 252.699 3.70134 -3.74016 0
M  V30 2765 O 251.725 3.53546 -4.46087 0
M  V30 2766 N 252.927 4.88844 -3.13068 0
M  V30 2767 H 255.692 0.82588 -2.88096 0
M  V30 2768 H 253.253 0.304461 -1.59011 0
M  V30 2769 H 255.245 3.29937 -2.34359 0
M  V30 2770 H 253.815 2.789 -1.41186 0
M  V30 2771 H 253.035 1.60805 -3.5991 0
M  V30 2772 H 254.323 2.49353 -4.43509 0
M  V30 2773 H 253.721 5.05225 -2.54489 0
M  V30 2774 H 252.278 5.63817 -3.27037 0
M  V30 2775 N 255.711 1.52812 0.385517 0
M  V30 2776 C 256.658 1.77838 1.47113 0
M  V30 2777 C 257.628 0.621757 1.54024 0
M  V30 2778 O 258.813 0.861846 1.70226 0
M  V30 2779 C 255.953 1.95618 2.84302 0
M  V30 2780 C 255.066 3.23316 2.86515 0
M  V30 2781 C 254.201 3.31394 4.15152 0
M  V30 2782 C 253.24 4.53201 4.1143 0
M  V30 2783 N 252.377 4.58542 5.3168 0
M  V30 2784 H 257.217 2.70482 1.25073 0
M  V30 2785 H 254.754 1.34006 0.606692 0
M  V30 2786 H 256.712 2.03912 3.63972 0
M  V30 2787 H 255.342 1.06331 3.04784 0
M  V30 2788 H 254.394 3.24076 1.99195 0
M  V30 2789 H 255.706 4.13045 2.79634 0
M  V30 2790 H 254.86 3.3889 5.03228 0
M  V30 2791 H 253.599 2.39645 4.24761 0
M  V30 2792 H 252.604 4.45827 3.21742 0
M  V30 2793 H 253.829 5.46271 4.03442 0
M  V30 2794 H 251.775 3.69686 5.41912 0
M  V30 2795 H 251.692 5.42148 5.26889 0
M  V30 2796 H 252.96 4.70296 6.21644 0
M  V30 2797 N 257.189 -0.644168 1.43834 0
M  V30 2798 C 258.437 -1.40117 1.45642 0
M  V30 2799 C 258.758 -1.94814 0.0852413 0
M  V30 2800 O 258.028 -1.74988 -0.880688 0
M  V30 2801 H 256.608 -0.52005 0.536243 0
M  V30 2802 H 259.27 -0.7591 1.7951 0
M  V30 2803 H 258.366 -2.23902 2.17427 0
M  V30 2804 N 258.668 -1.30515 -0.883378 0
M  V30 2805 C 259.578 -1.18959 -2.02203 0
M  V30 2806 C 260.594 -0.109172 -1.73657 0
M  V30 2807 O 261.77 -0.324413 -1.9877 0
M  V30 2808 C 258.835 -0.883871 -3.35244 0
M  V30 2809 C 257.896 -2.04982 -3.77201 0
M  V30 2810 C 257.129 -1.75859 -5.03894 0
M  V30 2811 O 257.352 -0.687276 -5.66244 0
M  V30 2812 O 256.286 -2.61146 -5.42297 0
M  V30 2813 H 260.112 -2.14616 -2.1488 0
M  V30 2814 H 257.697 -1.10124 -1.0096 0
M  V30 2815 H 259.579 -0.728644 -4.15053 0
M  V30 2816 H 258.254 0.0427798 -3.23672 0
M  V30 2817 H 257.161 -2.26038 -2.9809 0
M  V30 2818 H 258.494 -2.95825 -3.93381 0
M  V30 2819 N 260.146 1.09593 -1.13257 0
M  V30 2820 C 261.094 2.18271 -0.803783 0
M  V30 2821 C 262.088 1.68054 0.213148 0
M  V30 2822 O 263.294 1.79862 0.0704699 0
M  V30 2823 H 259.669 0.711949 -0.242143 0
M  V30 2824 H 261.64 2.43235 -1.72856 0
M  V30 2825 C 260.389 3.46536 -0.28424 0
M  V30 2826 H 259.712 3.85545 -1.05807 0
M  V30 2827 H 261.152 4.23899 -0.0925945 0
M  V30 2828 C 259.611 3.22036 0.989684 0
M  V30 2829 O 260.141 3.44509 2.06584 0
M  V30 2830 N 258.347 2.7565 0.920086 0
M  V30 2831 H 257.894 2.57562 0.0442019 0
M  V30 2832 H 257.852 2.59635 1.77306 0
M  V30 2833 N 261.624 0.925811 1.2754 0
M  V30 2834 C 262.87 0.566092 1.94739 0
M  V30 2835 C 263.203 -0.890057 1.72603 0
M  V30 2836 O 262.478 -1.63467 1.05399 0
M  V30 2837 C 262.761 0.89054 3.48915 0
M  V30 2838 C 262.614 2.4003 3.80402 0
M  V30 2839 C 263.933 0.395101 4.38323 0
M  V30 2840 H 261.052 0.20714 0.707292 0
M  V30 2841 H 263.694 1.15725 1.50691 0
M  V30 2842 H 261.844 0.387452 3.86563 0
M  V30 2843 H 263.516 2.97494 3.52555 0
M  V30 2844 H 261.759 2.85028 3.2702 0
M  V30 2845 H 262.43 2.57785 4.8811 0
M  V30 2846 H 264.906 0.826241 4.07814 0
M  V30 2847 H 263.782 0.651086 5.45025 0
M  V30 2848 H 264.043 -0.704798 4.36446 0
M  V30 2849 N 263.102 -1.41638 0.69111 0
M  V30 2850 C 264.052 -2.28 -0.000107832 0
M  V30 2851 C 265.036 -1.41964 -0.757304 0
M  V30 2852 O 266.228 -1.65274 -0.633532 0
M  V30 2853 C 263.357 -3.30209 -0.938983 0
M  V30 2854 C 262.443 -4.23725 -0.17827 0
M  V30 2855 N 262.834 -4.99017 0.825563 0
M  V30 2856 C 261.132 -4.44071 -0.414392 0
M  V30 2857 C 261.833 -5.67431 1.28052 0
M  V30 2858 N 260.809 -5.40197 0.607304 0
M  V30 2859 H 264.611 -2.83644 0.769617 0
M  V30 2860 H 262.125 -1.53797 0.521562 0
M  V30 2861 H 264.122 -3.90898 -1.44929 0
M  V30 2862 H 262.782 -2.76126 -1.70836 0
M  V30 2863 H 263.793 -5.03671 1.20566 0
M  V30 2864 H 260.47 -4.01004 -1.162 0
M  V30 2865 H 261.86 -6.37801 2.11327 0
M  V30 2866 N 264.58 -0.43555 -1.51462 0
M  V30 2867 C 265.527 0.376797 -2.27703 0
M  V30 2868 C 266.497 1.01838 -1.31219 0
M  V30 2869 O 267.682 1.03762 -1.60119 0
M  V30 2870 C 264.822 1.47301 -3.12084 0
M  V30 2871 C 263.935 0.849744 -4.2356 0
M  V30 2872 C 263.07 1.92086 -4.95254 0
M  V30 2873 C 262.109 1.27593 -5.98654 0
M  V30 2874 N 261.246 2.28833 -6.63762 0
M  V30 2875 H 266.086 -0.279734 -2.96684 0
M  V30 2876 H 263.623 -0.149795 -1.46335 0
M  V30 2877 H 265.581 2.11984 -3.59331 0
M  V30 2878 H 264.211 2.0992 -2.45221 0
M  V30 2879 H 263.263 0.0912529 -3.80291 0
M  V30 2880 H 264.575 0.338878 -4.97648 0
M  V30 2881 H 263.729 2.64435 -5.46039 0
M  V30 2882 H 262.468 2.46545 -4.20793 0
M  V30 2883 H 261.473 0.537893 -5.47162 0
M  V30 2884 H 262.698 0.738693 -6.7507 0
M  V30 2885 H 260.644 2.82375 -5.92115 0
M  V30 2886 H 260.561 1.82632 -7.33608 0
M  V30 2887 H 261.829 3.00671 -7.19178 0
M  V30 2888 N 266.058 1.56714 -0.166846 0
M  V30 2889 C 267.008 2.14338 0.777382 0
M  V30 2890 C 267.992 1.07642 1.19591 0
M  V30 2891 O 269.184 1.33775 1.15902 0
M  V30 2892 C 266.313 2.78417 2.00846 0
M  V30 2893 C 265.399 3.92264 1.61212 0
M  V30 2894 N 265.79 4.97268 0.925104 0
M  V30 2895 C 264.088 4.03342 1.90346 0
M  V30 2896 C 264.789 5.77093 0.730627 0
M  V30 2897 N 263.765 5.2854 1.27067 0
M  V30 2898 H 267.567 2.9289 0.243466 0
M  V30 2899 H 265.081 1.62364 0.0339954 0
M  V30 2900 H 267.078 3.18073 2.69509 0
M  V30 2901 H 265.738 2.01344 2.54736 0
M  V30 2902 H 266.749 5.14601 0.583646 0
M  V30 2903 H 263.426 3.37368 2.45946 0
M  V30 2904 H 264.816 6.71638 0.187668 0
M  V30 2905 N 267.536 -0.106894 1.57237 0
M  V30 2906 C 268.761 -0.830287 1.90055 0
M  V30 2907 C 269.186 -1.72064 0.75998 0
M  V30 2908 O 268.544 -1.78982 -0.288991 0
M  V30 2909 C 268.592 -1.6295 3.21683 0
M  V30 2910 O 267.696 -2.73748 3.08441 0
M  V30 2911 H 267.037 -0.228855 0.623315 0
M  V30 2912 H 269.567 -0.085658 2.04421 0
M  V30 2913 H 269.577 -2.01621 3.54701 0
M  V30 2914 H 268.252 -0.975989 4.04286 0
M  V30 2915 H 266.829 -2.38192 2.86913 0
M  V30 2916 N 269.014 -1.53014 -0.377408 0
M  V30 2917 C 270.43 -1.42523 -0.718281 0
M  V30 2918 C 270.63 -0.55487 -1.9371 0
M  V30 2919 O 269.686 -0.0327593 -2.52479 0
M  V30 2920 C 270.999 -2.85546 -0.942539 0
M  V30 2921 C 272.547 -2.95101 -1.04329 0
M  V30 2922 C 273.022 -4.3916 -1.3001 0
M  V30 2923 N 274.513 -4.42536 -1.36806 0
M  V30 2924 C 275.248 -5.51097 -1.58364 0
M  V30 2925 N 274.744 -6.69724 -1.77317 0
M  V30 2926 N 276.537 -5.38657 -1.60638 0
M  V30 2927 H 268.688 -2.08116 0.424426 0
M  V30 2928 H 270.951 -0.939352 0.127759 0
M  V30 2929 H 270.657 -3.51499 -0.118929 0
M  V30 2930 H 270.531 -3.28493 -1.85397 0
M  V30 2931 H 272.918 -2.29309 -1.85745 0
M  V30 2932 H 272.999 -2.55566 -0.109505 0
M  V30 2933 H 272.643 -5.05521 -0.490991 0
M  V30 2934 H 272.573 -4.76258 -2.24691 0
M  V30 2935 H 275.064 -3.57039 -1.23821 0
M  V30 2936 H 275.377 -7.48233 -1.93306 0
M  V30 2937 H 273.722 -6.72732 -1.74518 0
M  V30 2938 H 276.913 -4.44948 -1.45391 0
M  V30 2939 H 277.086 -6.2333 -1.77098 0
M  V30 2940 N 270.492 0.636531 -1.44174 0
M  V30 2941 C 271.422 1.76003 -1.53444 0
M  V30 2942 C 272.403 1.65619 -0.387841 0
M  V30 2943 O 273.588 1.84461 -0.607257 0
M  V30 2944 C 270.718 3.14511 -1.4731 0
M  V30 2945 C 269.672 3.39677 -2.60391 0
M  V30 2946 C 268.998 4.78159 -2.39308 0
M  V30 2947 C 270.298 3.32772 -4.02567 0
M  V30 2948 H 271.992 1.68501 -2.47483 0
M  V30 2949 H 269.538 0.809237 -1.19111 0
M  V30 2950 H 271.491 3.92878 -1.52397 0
M  V30 2951 H 270.215 3.22783 -0.49785 0
M  V30 2952 H 268.874 2.63688 -2.54684 0
M  V30 2953 H 268.522 4.83128 -1.39988 0
M  V30 2954 H 268.222 4.95956 -3.15122 0
M  V30 2955 H 269.746 5.58762 -2.46205 0
M  V30 2956 H 271.16 4.01051 -4.09672 0
M  V30 2957 H 269.557 3.62104 -4.7854 0
M  V30 2958 H 270.627 2.30669 -4.2652 0
M  V30 2959 N 271.97 1.30982 0.876444 0
M  V30 2960 C 272.933 1.18054 1.96459 0
M  V30 2961 C 273.933 0.109399 1.60427 0
M  V30 2962 O 275.123 0.358173 1.70478 0
M  V30 2963 C 272.255 0.810616 3.31122 0
M  V30 2964 H 273.448 2.14735 2.09354 0
M  V30 2965 H 271.001 1.145 1.06392 0
M  V30 2966 H 271.736 -0.155322 3.23928 0
M  V30 2967 H 271.521 1.58481 3.58645 0
M  V30 2968 H 273.011 0.743876 4.10921 0
M  V30 2969 N 273.449 -1.08991 1.13837 0
M  V30 2970 C 274.359 -2.19301 0.833333 0
M  V30 2971 C 275.375 -1.73026 -0.183847 0
M  V30 2972 O 276.551 -2.01395 -0.0138092 0
M  V30 2973 C 273.616 -3.45323 0.308651 0
M  V30 2974 C 272.677 -4.06255 1.38764 0
M  V30 2975 C 271.91 -5.26262 0.887896 0
M  V30 2976 O 272.133 -5.69747 -0.27287 0
M  V30 2977 O 271.067 -5.78435 1.66421 0
M  V30 2978 H 274.893 -2.47854 1.75506 0
M  V30 2979 H 272.478 -1.18012 0.916166 0
M  V30 2980 H 274.36 -4.21394 0.0216739 0
M  V30 2981 H 273.035 -3.18362 -0.585431 0
M  V30 2982 H 271.942 -3.318 1.72799 0
M  V30 2983 H 273.275 -4.37452 2.25602 0
M  V30 2984 N 274.927 -0.932562 -1.27047 0
M  V30 2985 C 276.173 -0.576412 -1.94436 0
M  V30 2986 C 276.506 0.880891 -1.73072 0
M  V30 2987 O 275.781 1.62905 -1.06264 0
M  V30 2988 C 276.064 -0.909031 -3.48437 0
M  V30 2989 C 275.917 -2.42044 -3.79123 0
M  V30 2990 C 277.236 -0.418341 -4.38107 0
M  V30 2991 H 274.355 -0.210888 -0.706184 0
M  V30 2992 H 276.997 -1.16522 -1.50075 0
M  V30 2993 H 275.147 -0.407947 -3.86352 0
M  V30 2994 H 276.819 -2.99359 -3.50973 0
M  V30 2995 H 275.062 -2.86758 -3.25503 0
M  V30 2996 H 275.733 -2.6037 -4.86736 0
M  V30 2997 H 278.209 -0.847856 -4.0737 0
M  V30 2998 H 277.085 -0.679981 -5.44672 0
M  V30 2999 H 277.346 0.681642 -4.36814 0
M  V30 3000 N 276.405 1.4127 -0.698611 0
M  V30 3001 C 277.335 2.33447 -0.049629 0
M  V30 3002 C 278.316 1.51982 0.763898 0
M  V30 3003 O 279.501 1.80509 0.716257 0
M  V30 3004 C 276.631 3.35828 0.885267 0
M  V30 3005 C 275.585 4.27627 0.178613 0
M  V30 3006 C 274.911 5.20406 1.22807 0
M  V30 3007 C 276.211 5.13459 -0.956933 0
M  V30 3008 H 277.905 2.87966 -0.81951 0
M  V30 3009 H 275.451 1.38461 -0.395538 0
M  V30 3010 H 277.404 3.9924 1.34854 0
M  V30 3011 H 276.128 2.79666 1.68685 0
M  V30 3012 H 274.787 3.65643 -0.26466 0
M  V30 3013 H 274.435 4.60558 2.02226 0
M  V30 3014 H 274.135 5.82661 0.760239 0
M  V30 3015 H 275.659 5.86695 1.69179 0
M  V30 3016 H 277.073 5.70421 -0.573805 0
M  V30 3017 H 275.47 5.8467 -1.35205 0
M  V30 3018 H 276.54 4.50443 -1.79524 0
M  V30 3019 N 277.883 0.443576 1.51229 0
M  V30 3020 C 278.815 -0.400608 2.25672 0
M  V30 3021 C 279.828 -0.980945 1.29928 0
M  V30 3022 O 281.017 -0.874024 1.55638 0
M  V30 3023 C 278.117 -1.57304 3.00181 0
M  V30 3024 C 277.29 -1.11046 4.23069 0
M  V30 3025 C 276.349 -2.15374 4.80105 0
M  V30 3026 O 275.375 -1.74554 5.41774 0
M  V30 3027 N 276.577 -3.47922 4.64683 0
M  V30 3028 H 279.342 0.23745 2.98758 0
M  V30 3029 H 276.903 0.272809 1.59585 0
M  V30 3030 H 278.895 -2.26733 3.35223 0
M  V30 3031 H 277.465 -2.11632 2.30066 0
M  V30 3032 H 276.685 -0.243019 3.9345 0
M  V30 3033 H 277.973 -0.778888 5.02803 0
M  V30 3034 H 277.371 -3.83815 4.15575 0
M  V30 3035 H 275.928 -4.13228 5.0407 0
M  V30 3036 N 279.361 -1.56624 0.175154 0
M  V30 3037 C 280.291 -2.21155 -0.749195 0
M  V30 3038 C 281.272 -1.16836 -1.23626 0
M  V30 3039 O 282.457 -1.45277 -1.28873 0
M  V30 3040 C 279.587 -2.8553 -1.97711 0
M  V30 3041 C 278.541 -3.95921 -1.62575 0
M  V30 3042 C 277.867 -4.47365 -2.92864 0
M  V30 3043 C 279.167 -5.15323 -0.850838 0
M  V30 3044 H 280.861 -2.98653 -0.211295 0
M  V30 3045 H 278.407 -1.43651 -0.100188 0
M  V30 3046 H 280.36 -3.2935 -2.62881 0
M  V30 3047 H 279.084 -2.05406 -2.53921 0
M  V30 3048 H 277.743 -3.52762 -0.997719 0
M  V30 3049 H 277.391 -3.64027 -3.47122 0
M  V30 3050 H 277.091 -5.21839 -2.70106 0
M  V30 3051 H 278.615 -4.93873 -3.59056 0
M  V30 3052 H 280.029 -5.55812 -1.40521 0
M  V30 3053 H 278.426 -5.95739 -0.722154 0
M  V30 3054 H 279.496 -4.84661 0.152082 0
M  V30 3055 N 280.839 0.0985539 -1.57292 0
M  V30 3056 C 282.087 0.801092 -1.85545 0
M  V30 3057 C 282.408 1.79438 -0.763353 0
M  V30 3058 O 281.678 1.94763 0.21073 0
M  V30 3059 H 280.258 0.29884 -0.684619 0
M  V30 3060 H 282.92 0.0810064 -1.94732 0
M  V30 3061 H 282.016 1.3338 -2.82163 0
M  V30 3062 N 282.317 1.53212 0.369288 0
M  V30 3063 C 283.542 1.73423 1.1375 0
M  V30 3064 C 283.967 0.460404 1.82378 0
M  V30 3065 O 283.325 -0.585298 1.71592 0
M  V30 3066 C 283.373 2.89769 2.1463 0
M  V30 3067 O 282.477 2.58119 3.21634 0
M  V30 3068 H 281.818 0.576061 0.330227 0
M  V30 3069 H 284.348 2.00083 0.427547 0
M  V30 3070 H 284.358 3.15829 2.58294 0
M  V30 3071 H 283.033 3.8217 1.64071 0
M  V30 3072 H 281.61 2.42864 2.82969 0
M  V30 3073 N 283.795 -0.628877 1.44509 0
M  V30 3074 C 285.072 -1.38733 1.37886 0
M  V30 3075 C 285.452 -2.11065 0.0387008 0
M  V30 3076 O 284.8 -2.06476 -0.97878 0
M  V30 3077 C 285.01 -2.35188 2.57852 0
M  V30 3078 C 286.358 -2.9845 3.02014 0
M  V30 3079 O 287.382 -2.45513 2.58073 0
M  V30 3080 O 286.241 -3.94487 3.78209 0
M  V30 3081 H 283.335 -0.621015 0.54614 0
M  V30 3082 H 285.881 -0.653744 1.56602 0
M  V30 3083 H 284.653 -1.80855 3.46998 0
M  V30 3084 H 284.276 -3.1596 2.4136 0
M  V30 3085 N 285.273 -1.31445 -0.869486 0
M  V30 3086 C 286.522 -1.20517 -1.61736 0
M  V30 3087 C 286.835 0.235341 -1.94179 0
M  V30 3088 O 288.041 0.466312 -2.67465 0
M  V30 3089 C 286.497 -2.10982 -2.91573 0
M  V30 3090 C 286.105 -3.60032 -2.66611 0
M  V30 3091 C 287.849 -2.08856 -3.69567 0
M  V30 3092 C 285.756 -4.42503 -3.92358 0
M  V30 3093 H 284.686 -0.447493 -0.606849 0
M  V30 3094 H 287.337 -1.56303 -0.96133 0
M  V30 3095 H 285.719 -1.68095 -3.58553 0
M  V30 3096 H 286.893 -4.11167 -2.08035 0
M  V30 3097 H 285.208 -3.64139 -2.0197 0
M  V30 3098 H 287.805 -2.67716 -4.62852 0
M  V30 3099 H 288.148 -1.07582 -4.02159 0
M  V30 3100 H 288.681 -2.49945 -3.09471 0
M  V30 3101 H 285.42 -5.44533 -3.64916 0
M  V30 3102 H 284.94 -3.96125 -4.50383 0
M  V30 3103 H 286.619 -4.54741 -4.60238 0
M  V30 3104 N 286.751 1.08385 -1.14413 0
M  V30 3105 C 287.681 2.17321 -0.854044 0
M  V30 3106 C 288.662 1.69024 0.191049 0
M  V30 3107 O 289.847 1.94141 0.0476779 0
M  V30 3108 C 286.977 3.45719 -0.330983 0
M  V30 3109 C 285.931 4.07409 -1.31155 0
M  V30 3110 C 285.257 5.30762 -0.64778 0
M  V30 3111 C 286.557 4.48665 -2.67388 0
M  V30 3112 H 288.251 2.41845 -1.76498 0
M  V30 3113 H 285.797 1.16233 -0.850051 0
M  V30 3114 H 287.75 4.21241 -0.115645 0
M  V30 3115 H 286.474 3.2075 0.615381 0
M  V30 3116 H 285.133 3.33919 -1.51306 0
M  V30 3117 H 284.781 5.02078 0.304398 0
M  V30 3118 H 284.481 5.72992 -1.30207 0
M  V30 3119 H 286.005 6.08998 -0.441972 0
M  V30 3120 H 287.419 5.15364 -2.51143 0
M  V30 3121 H 285.816 5.01814 -3.29093 0
M  V30 3122 H 286.886 3.60543 -3.24248 0
M  V30 3123 N 288.23 0.939286 1.26551 0
M  V30 3124 C 289.641 0.628782 1.75793 0
M  V30 3125 C 289.992 -0.856046 1.7654 0
M  V30 3126 O 289.117 -1.66994 1.3763 0
M  V30 3127 C 289.712 1.13465 3.19235 0
M  V30 3128 C 288.271 0.874601 3.66098 0
M  V30 3129 C 287.418 1.28667 2.45642 0
M  V30 3130 H 290.369 1.1178 1.12654 0
M  V30 3131 H 290.39 0.487609 3.77363 0
M  V30 3132 H 289.902 2.21535 3.1866 0
M  V30 3133 H 288.003 -0.191793 3.72106 0
M  V30 3134 H 288.116 1.50028 4.55004 0
M  V30 3135 H 286.48 0.705109 2.44745 0
M  V30 3136 H 287.263 2.37625 2.47769 0
M  V30 3137 N 289.708 -1.40897 0.706093 0
M  V30 3138 C 290.64 -2.29199 0.00815776 0
M  V30 3139 C 291.653 -1.45336 -0.733582 0
M  V30 3140 O 292.842 -1.68727 -0.582537 0
M  V30 3141 C 289.942 -3.23417 -1.01265 0
M  V30 3142 C 289.115 -4.36089 -0.338387 0
M  V30 3143 C 288.174 -5.10811 -1.26326 0
M  V30 3144 O 287.2 -5.64215 -0.751651 0
M  V30 3145 N 288.402 -5.19269 -2.595 0
M  V30 3146 H 291.167 -2.89738 0.766297 0
M  V30 3147 H 288.728 -1.52164 0.55296 0
M  V30 3148 H 290.72 -3.70276 -1.63334 0
M  V30 3149 H 289.29 -2.64112 -1.67223 0
M  V30 3150 H 288.51 -3.91479 0.462352 0
M  V30 3151 H 289.798 -5.08634 0.130031 0
M  V30 3152 H 289.196 -4.77347 -3.03573 0
M  V30 3153 H 287.753 -5.69667 -3.16737 0
M  V30 3154 N 291.186 -0.45159 -1.50991 0
M  V30 3155 C 292.416 0.108177 -2.06317 0
M  V30 3156 C 292.824 1.35774 -1.31765 0
M  V30 3157 O 292.167 1.79838 -0.374694 0
M  V30 3158 C 292.229 0.481659 -3.56259 0
M  V30 3159 C 291.893 -0.663114 -4.52163 0
M  V30 3160 C 292.89 -1.53947 -4.96585 0
M  V30 3161 C 290.575 -0.8479 -4.95092 0
M  V30 3162 C 292.569 -2.58518 -5.82621 0
M  V30 3163 C 290.256 -1.89686 -5.80915 0
M  V30 3164 C 291.254 -2.76388 -6.24579 0
M  V30 3165 O 290.942 -3.79482 -7.08695 0
M  V30 3166 H 290.674 0.00499183 -0.675982 0
M  V30 3167 H 293.228 -0.633659 -1.95381 0
M  V30 3168 H 291.458 1.27641 -3.65027 0
M  V30 3169 H 293.147 0.974233 -3.94035 0
M  V30 3170 H 293.913 -1.4083 -4.64103 0
M  V30 3171 H 289.792 -0.18258 -4.60638 0
M  V30 3172 H 293.336 -3.26224 -6.16623 0
M  V30 3173 H 289.233 -2.02817 -6.12809 0
M  V30 3174 H 290.001 -3.76234 -7.26905 0
M  V30 3175 N 292.664 1.56529 -0.183458 0
M  V30 3176 C 293.611 2.18546 0.742055 0
M  V30 3177 C 294.581 1.12912 1.2182 0
M  V30 3178 O 295.766 1.41115 1.28418 0
M  V30 3179 C 292.906 2.83977 1.96089 0
M  V30 3180 C 292.019 4.04105 1.52719 0
M  V30 3181 C 291.154 4.57427 2.70063 0
M  V30 3182 C 290.193 5.69938 2.23243 0
M  V30 3183 N 289.33 6.17717 3.33722 0
M  V30 3184 H 294.17 2.97284 0.206432 0
M  V30 3185 H 291.707 1.46823 0.0901571 0
M  V30 3186 H 293.665 3.20077 2.67594 0
M  V30 3187 H 292.295 2.07822 2.47002 0
M  V30 3188 H 291.347 3.73745 0.708436 0
M  V30 3189 H 292.659 4.85513 1.1436 0
M  V30 3190 H 291.813 4.95772 3.49708 0
M  V30 3191 H 290.552 3.75101 3.11689 0
M  V30 3192 H 289.557 5.31133 1.42048 0
M  V30 3193 H 290.782 6.54073 1.82661 0
M  V30 3194 H 288.728 5.38317 3.74902 0
M  V30 3195 H 288.645 6.94146 2.99495 0
M  V30 3196 H 289.913 6.60713 4.13616 0
M  V30 3197 N 294.142 -0.090211 1.57342 0
M  V30 3198 C 295.074 -1.13541 1.99101 0
M  V30 3199 C 296.087 -1.3604 0.894258 0
M  V30 3200 O 297.276 -1.34606 1.17233 0
M  V30 3201 C 294.376 -2.49001 2.29895 0
M  V30 3202 C 293.549 -2.46712 3.61182 0
M  V30 3203 C 292.608 -3.64136 3.79857 0
M  V30 3204 O 291.634 -3.46405 4.51655 0
M  V30 3205 N 292.836 -4.83802 3.20806 0
M  V30 3206 H 295.601 -0.779942 2.89373 0
M  V30 3207 H 293.162 -0.279125 1.59476 0
M  V30 3208 H 295.154 -3.26166 2.39578 0
M  V30 3209 H 293.724 -2.76619 1.45605 0
M  V30 3210 H 292.944 -1.55058 3.62423 0
M  V30 3211 H 294.232 -2.42265 4.4742 0
M  V30 3212 H 293.63 -5.01112 2.62494 0
M  V30 3213 H 292.187 -5.58543 3.35966 0
M  V30 3214 N 295.62 -1.53406 -0.361157 0
M  V30 3215 C 296.53 -1.83122 -1.4664 0
M  V30 3216 C 297.546 -0.719943 -1.58407 0
M  V30 3217 O 298.722 -1.01046 -1.74218 0
M  V30 3218 C 295.787 -2.01891 -2.81853 0
M  V30 3219 C 294.848 -3.25784 -2.79577 0
M  V30 3220 C 294.081 -3.43648 -4.0834 0
M  V30 3221 O 294.304 -2.65714 -5.0473 0
M  V30 3222 O 293.238 -4.37018 -4.13883 0
M  V30 3223 H 297.064 -2.7703 -1.24451 0
M  V30 3224 H 294.649 -1.38841 -0.551678 0
M  V30 3225 H 296.531 -2.15782 -3.61962 0
M  V30 3226 H 295.206 -1.11173 -3.0401 0
M  V30 3227 H 294.113 -3.17312 -1.98151 0
M  V30 3228 H 295.446 -4.16439 -2.62373 0
M  V30 3229 N 297.098 0.621204 -1.44841 0
M  V30 3230 C 298.061 1.71459 -1.521 0
M  V30 3231 C 299.061 1.55696 -0.401933 0
M  V30 3232 O 300.251 1.61011 -0.664925 0
M  V30 3233 C 297.383 3.10624 -1.40447 0
M  V30 3234 H 298.576 1.66394 -2.49506 0
M  V30 3235 H 296.129 0.835745 -1.3208 0
M  V30 3236 H 296.864 3.21277 -0.441737 0
M  V30 3237 H 296.649 3.23473 -2.21602 0
M  V30 3238 H 298.139 3.90293 -1.4853 0
M  V30 3239 N 298.576 1.31904 0.862503 0
M  V30 3240 C 299.987 1.19803 1.43193 0
M  V30 3241 C 300.338 -0.192567 1.95253 0
M  V30 3242 O 299.463 -1.09081 1.86896 0
M  V30 3243 C 300.058 2.16883 2.60283 0
M  V30 3244 C 298.617 2.08692 3.13248 0
M  V30 3245 C 297.764 2.05691 1.85975 0
M  V30 3246 H 300.715 1.43846 0.670365 0
M  V30 3247 H 300.736 1.76278 3.37204 0
M  V30 3248 H 300.248 3.18083 2.22363 0
M  V30 3249 H 298.349 1.10713 3.55771 0
M  V30 3250 H 298.462 2.9815 3.75025 0
M  V30 3251 H 296.826 1.50814 2.05249 0
M  V30 3252 H 297.609 3.08659 1.50282 0
M  V30 3253 N 300.054 -1.07777 1.14986 0
M  V30 3254 C 301.001 -2.14867 0.842672 0
M  V30 3255 C 301.971 -1.6486 -0.202552 0
M  V30 3256 O 303.156 -1.90668 -0.0710568 0
M  V30 3257 C 300.296 -3.43486 0.333363 0
M  V30 3258 C 299.409 -4.07306 1.43965 0
M  V30 3259 C 298.544 -5.23744 0.886914 0
M  V30 3260 C 297.583 -5.79517 1.97043 0
M  V30 3261 N 296.72 -6.87291 1.4344 0
M  V30 3262 H 301.56 -2.40485 1.75986 0
M  V30 3263 H 299.097 -1.1801 0.878179 0
M  V30 3264 H 301.055 -4.17195 0.0198163 0
M  V30 3265 H 299.685 -3.18133 -0.546916 0
M  V30 3266 H 298.737 -3.31293 1.86946 0
M  V30 3267 H 300.049 -4.44771 2.25788 0
M  V30 3268 H 299.203 -6.04419 0.525651 0
M  V30 3269 H 297.942 -4.87685 0.0377957 0
M  V30 3270 H 296.947 -4.97491 2.34057 0
M  V30 3271 H 298.172 -6.17632 2.82325 0
M  V30 3272 H 296.118 -6.5318 0.607567 0
M  V30 3273 H 296.035 -7.23617 2.18895 0
M  V30 3274 H 297.303 -7.71682 1.10124 0
M  V30 3275 N 301.532 -0.945985 -1.26051 0
M  V30 3276 C 302.76 -0.613025 -1.9761 0
M  V30 3277 C 303.175 0.813035 -1.70397 0
M  V30 3278 O 302.532 1.54274 -0.974979 0
M  V30 3279 C 302.583 -0.85159 -3.51326 0
M  V30 3280 O 302.304 -2.22157 -3.77595 0
M  V30 3281 C 303.805 -0.529831 -4.40122 0
M  V30 3282 H 301.025 -0.230593 -0.630133 0
M  V30 3283 H 303.569 -1.268 -1.60443 0
M  V30 3284 H 301.724 -0.243151 -3.86636 0
M  V30 3285 H 302.138 -2.2852 -4.721 0
M  V30 3286 H 303.612 -0.747348 -5.46917 0
M  V30 3287 H 304.089 0.535341 -4.35925 0
M  V30 3288 H 304.695 -1.11721 -4.10364 0
M  V30 3289 N 303.011 1.40521 -0.713556 0
M  V30 3290 C 304.422 1.83853 -0.324807 0
M  V30 3291 C 304.773 1.59667 1.14021 0
M  V30 3292 O 303.898 1.07649 1.87725 0
M  V30 3293 C 304.493 3.33751 -0.582746 0
M  V30 3294 C 303.052 3.75584 -0.247727 0
M  V30 3295 C 302.199 2.63753 -0.856121 0
M  V30 3296 H 305.15 1.29817 -0.91286 0
M  V30 3297 H 305.171 3.80194 0.152682 0
M  V30 3298 H 304.683 3.51322 -1.64908 0
M  V30 3299 H 302.784 3.63608 0.813624 0
M  V30 3300 H 302.897 4.7373 -0.715307 0
M  V30 3301 H 301.261 2.53108 -0.28432 0
M  V30 3302 H 302.044 2.84137 -1.92668 0
M  V30 3303 N 304.489 0.459591 1.5075 0
M  V30 3304 C 305.9 0.00171547 1.867 0
M  V30 3305 C 306.251 -1.39934 1.37525 0
M  V30 3306 O 305.376 -2.03523 0.735349 0
M  V30 3307 C 305.971 -0.00366298 3.388 0
M  V30 3308 C 304.53 -0.406026 3.74204 0
M  V30 3309 C 303.677 0.38673 2.7459 0
M  V30 3310 H 306.628 0.674413 1.43657 0
M  V30 3311 H 306.649 -0.808371 3.71814 0
M  V30 3312 H 306.161 1.01617 3.74561 0
M  V30 3313 H 304.262 -1.43063 3.4404 0
M  V30 3314 H 304.375 -0.115362 4.78961 0
M  V30 3315 H 302.739 -0.158019 2.54209 0
M  V30 3316 H 303.522 1.40585 3.13194 0
M  V30 3317 N 305.967 -1.56429 0.191757 0
M  V30 3318 C 306.917 -2.15548 -0.743184 0
M  V30 3319 C 307.901 -1.09531 -1.17863 0
M  V30 3320 O 309.093 -1.35602 -1.13759 0
M  V30 3321 C 306.222 -2.81577 -1.96391 0
M  V30 3322 C 305.308 -3.9478 -1.54951 0
M  V30 3323 N 305.699 -4.98677 -0.845876 0
M  V30 3324 C 303.997 -4.06319 -1.83905 0
M  V30 3325 C 304.698 -5.78183 -0.638724 0
M  V30 3326 N 303.674 -5.30495 -1.18643 0
M  V30 3327 H 307.476 -2.9324 -0.196839 0
M  V30 3328 H 304.99 -1.62398 -0.0081603 0
M  V30 3329 H 306.987 -3.22321 -2.64415 0
M  V30 3330 H 305.647 -2.05371 -2.51501 0
M  V30 3331 H 306.658 -5.15464 -0.501704 0
M  V30 3332 H 303.335 -3.41238 -2.40548 0
M  V30 3333 H 304.725 -6.71851 -0.0807929 0
M  V30 3334 N 307.445 0.0818655 -1.57387 0
M  V30 3335 C 308.694 0.781681 -1.85937 0
M  V30 3336 C 309.007 1.79246 -0.782957 0
M  V30 3337 O 310.213 2.54112 -0.955987 0
M  V30 3338 C 308.669 1.44109 -3.29789 0
M  V30 3339 C 308.277 0.469396 -4.45534 0
M  V30 3340 C 310.021 2.12386 -3.67549 0
M  V30 3341 C 307.928 1.13415 -5.80423 0
M  V30 3342 H 306.858 0.295682 -0.693605 0
M  V30 3343 H 309.509 0.0348051 -1.83467 0
M  V30 3344 H 307.891 2.23588 -3.2684 0
M  V30 3345 H 309.065 -0.294856 -4.59856 0
M  V30 3346 H 307.38 -0.108383 -4.16259 0
M  V30 3347 H 309.977 2.62878 -4.65617 0
M  V30 3348 H 310.32 2.91877 -2.96839 0
M  V30 3349 H 310.853 1.39751 -3.72444 0
M  V30 3350 H 307.592 0.379771 -6.54399 0
M  V30 3351 H 307.112 1.8695 -5.69921 0
M  V30 3352 H 308.791 1.65686 -6.25426 0
M  V30 3353 N 308.923 1.53595 0.353017 0
M  V30 3354 C 310.172 1.69603 1.09168 0
M  V30 3355 C 310.485 0.460925 1.90092 0
M  V30 3356 O 311.691 0.501774 2.66823 0
M  V30 3357 C 310.147 2.99872 1.9901 0
M  V30 3358 C 309.755 4.30687 1.23339 0
M  V30 3359 C 311.499 3.25246 2.72792 0
M  V30 3360 C 309.406 5.52036 2.12156 0
M  V30 3361 H 308.336 0.631966 0.411261 0
M  V30 3362 H 310.987 1.80096 0.351802 0
M  V30 3363 H 309.369 2.83212 2.7678 0
M  V30 3364 H 310.543 4.58019 0.505456 0
M  V30 3365 H 308.858 4.11853 0.613663 0
M  V30 3366 H 311.455 4.13095 3.39495 0
M  V30 3367 H 311.798 2.41846 3.38846 0
M  V30 3368 H 312.331 3.42638 2.021 0
M  V30 3369 H 309.07 6.37951 1.50659 0
M  V30 3370 H 308.59 5.28966 2.82764 0
M  V30 3371 H 310.269 5.87313 2.71427 0
M  V30 3372 N 310.401 -0.613514 1.45168 0
M  V30 3373 C 311.331 -1.7354 1.56225 0
M  V30 3374 C 312.312 -1.64981 0.41414 0
M  V30 3375 O 313.497 -1.83472 0.636526 0
M  V30 3376 C 310.627 -3.12128 1.52295 0
M  V30 3377 C 309.581 -3.35491 2.65762 0
M  V30 3378 C 308.907 -4.74291 2.46885 0
M  V30 3379 C 310.207 -3.26325 4.0781 0
M  V30 3380 H 311.901 -1.64543 2.50132 0
M  V30 3381 H 309.447 -0.790185 1.20383 0
M  V30 3382 H 311.4 -3.90404 1.58628 0
M  V30 3383 H 310.124 -3.2195 0.549139 0
M  V30 3384 H 308.783 -2.59603 2.58847 0
M  V30 3385 H 308.431 -4.80839 1.47657 0
M  V30 3386 H 308.131 -4.9088 3.22972 0
M  V30 3387 H 309.655 -5.54775 2.55063 0
M  V30 3388 H 311.069 -3.94483 4.16 0
M  V30 3389 H 309.466 -3.54445 4.8424 0
M  V30 3390 H 310.536 -2.23855 4.30136 0
M  V30 3391 N 311.879 -1.3236 -0.855495 0
M  V30 3392 C 312.829 -1.17809 -1.95205 0
M  V30 3393 C 313.813 -0.0852319 -1.60674 0
M  V30 3394 O 315.005 -0.311651 -1.74235 0
M  V30 3395 C 312.134 -0.902437 -3.31226 0
M  V30 3396 C 311.22 -2.03695 -3.7198 0
M  V30 3397 N 311.611 -3.28544 -3.84568 0
M  V30 3398 C 309.909 -1.93993 -4.016 0
M  V30 3399 C 310.61 -4.02847 -4.19629 0
M  V30 3400 N 309.586 -3.31138 -4.31102 0
M  V30 3401 H 313.388 -2.12462 -2.0307 0
M  V30 3402 H 310.902 -1.24127 -1.0472 0
M  V30 3403 H 312.899 -0.77915 -4.09554 0
M  V30 3404 H 311.559 0.0357267 -3.2468 0
M  V30 3405 H 312.57 -3.6349 -3.68911 0
M  V30 3406 H 309.247 -1.07733 -4.03361 0
M  V30 3407 H 310.637 -5.10506 -4.36845 0
M  V30 3408 N 313.357 1.07166 -1.15556 0
M  V30 3409 C 314.587 1.83248 -0.954133 0
M  V30 3410 C 314.995 1.82449 0.500911 0
M  V30 3411 O 314.338 1.23575 1.35923 0
M  V30 3412 C 314.4 3.31393 -1.39351 0
M  V30 3413 C 314.064 3.5591 -2.86666 0
M  V30 3414 C 315.061 3.49695 -3.8472 0
M  V30 3415 C 312.746 3.83515 -3.24379 0
M  V30 3416 C 314.74 3.70737 -5.18491 0
M  V30 3417 C 312.427 4.04209 -4.58321 0
M  V30 3418 C 313.425 3.97815 -5.55186 0
M  V30 3419 O 313.113 4.17954 -6.86709 0
M  V30 3420 H 312.845 0.584941 -0.338851 0
M  V30 3421 H 315.399 1.36169 -1.53777 0
M  V30 3422 H 313.629 3.79292 -0.75329 0
M  V30 3423 H 315.318 3.88945 -1.16089 0
M  V30 3424 H 316.084 3.28368 -3.56931 0
M  V30 3425 H 311.963 3.87605 -2.49567 0
M  V30 3426 H 315.507 3.65663 -5.94085 0
M  V30 3427 H 311.404 4.25023 -4.85825 0
M  V30 3428 H 312.172 4.35291 -6.93155 0
M  V30 3429 N 314.835 0.952656 1.25548 0
M  V30 3430 C 316.075 0.614013 1.9496 0
M  V30 3431 C 316.439 -0.833215 1.72978 0
M  V30 3432 O 317.64 -1.28135 2.36294 0
M  V30 3433 C 315.911 0.960562 3.4425 0
M  V30 3434 S 317.47 0.734195 4.32614 0
M  V30 3435 H 314.288 0.225754 0.674208 0
M  V30 3436 H 316.89 1.22641 1.52248 0
M  V30 3437 H 315.594 2.01103 3.57751 0
M  V30 3438 H 315.125 0.338336 3.91942 0
M  V30 3439 H 317.14 -0.395995 4.94617 0
M  V30 3440 N 316.313 -1.40141 0.720998 0
M  V30 3441 C 317.559 -2.01084 0.263231 0
M  V30 3442 C 317.892 -1.57052 -1.14229 0
M  V30 3443 O 317.167 -0.793027 -1.77599 0
M  V30 3444 C 317.45 -3.58401 0.349344 0
M  V30 3445 C 317.303 -4.12491 1.79363 0
M  V30 3446 C 318.622 -4.39231 -0.276351 0
M  V30 3447 H 315.741 -0.730572 0.0971228 0
M  V30 3448 H 318.383 -1.66543 0.914518 0
M  V30 3449 H 316.533 -3.87958 -0.205165 0
M  V30 3450 H 318.205 -3.93711 2.40394 0
M  V30 3451 H 316.448 -3.66576 2.31958 0
M  V30 3452 H 317.119 -5.21646 1.80524 0
M  V30 3453 H 319.595 -4.15637 0.196184 0
M  V30 3454 H 318.471 -5.48586 -0.185681 0
M  V30 3455 H 318.732 -4.20643 -1.36059 0
M  V30 3456 N 317.792 -0.46758 -1.50504 0
M  V30 3457 C 319.039 0.0886219 -2.02306 0
M  V30 3458 C 319.367 1.40037 -1.34981 0
M  V30 3459 O 318.622 1.90136 -0.463318 0
M  V30 3460 C 318.921 0.323995 -3.55928 0
M  V30 3461 C 318.587 -0.905618 -4.41712 0
M  V30 3462 C 317.249 -1.24275 -4.64875 0
M  V30 3463 C 319.601 -1.72448 -4.91845 0
M  V30 3464 C 316.929 -2.39888 -5.35417 0
M  V30 3465 C 319.281 -2.87185 -5.63656 0
M  V30 3466 C 317.945 -3.21317 -5.85074 0
M  V30 3467 H 317.215 0.0324291 -0.74029 0
M  V30 3468 H 319.862 -0.620945 -1.81153 0
M  V30 3469 H 318.167 1.11577 -3.75577 0
M  V30 3470 H 319.864 0.76826 -3.93572 0
M  V30 3471 H 316.454 -0.632956 -4.239 0
M  V30 3472 H 320.638 -1.4772 -4.73806 0
M  V30 3473 H 315.894 -2.66611 -5.50208 0
M  V30 3474 H 320.068 -3.50985 -6.01484 0
M  V30 3475 H 317.695 -4.1101 -6.39511 0
M  V30 3476 N 319.27 1.56325 -0.20005 0
M  V30 3477 C 320.217 2.1932 0.718833 0
M  V30 3478 C 321.187 1.14198 1.20615 0
M  V30 3479 O 322.372 1.42469 1.26914 0
M  V30 3480 C 319.512 2.86041 1.93066 0
M  V30 3481 C 318.625 4.05702 1.48425 0
M  V30 3482 C 317.76 4.60266 2.65196 0
M  V30 3483 C 316.799 5.72273 2.17185 0
M  V30 3484 N 315.936 6.21221 3.27152 0
M  V30 3485 H 320.776 2.97486 0.17489 0
M  V30 3486 H 318.313 1.46911 0.0745794 0
M  V30 3487 H 320.271 3.22897 2.64184 0
M  V30 3488 H 318.901 2.1043 2.44783 0
M  V30 3489 H 317.953 3.74475 0.668755 0
M  V30 3490 H 319.265 4.86699 1.09204 0
M  V30 3491 H 318.419 4.99453 3.4443 0
M  V30 3492 H 317.158 3.78386 3.07693 0
M  V30 3493 H 316.163 5.3261 1.36407 0
M  V30 3494 H 317.388 6.55974 1.75713 0
M  V30 3495 H 315.334 5.42263 3.69171 0
M  V30 3496 H 315.251 6.97284 2.92116 0
M  V30 3497 H 316.519 6.65063 4.06585 0
M  V30 3498 N 320.748 -0.0735177 1.57428 0
M  V30 3499 C 321.976 -0.785969 1.9139 0
M  V30 3500 C 322.391 -1.71207 0.795847 0
M  V30 3501 O 321.748 -1.81033 -0.230915 0
M  V30 3502 C 321.799 -1.58107 3.25091 0
M  V30 3503 O 321.52 -0.6922 4.32597 0
M  V30 3504 C 323.021 -2.39467 3.73055 0
M  V30 3505 H 320.241 -0.223558 0.632663 0
M  V30 3506 H 322.785 -0.044302 2.04452 0
M  V30 3507 H 320.94 -2.27503 3.13562 0
M  V30 3508 H 321.354 -1.24504 5.09508 0
M  V30 3509 H 322.828 -2.90716 4.69242 0
M  V30 3510 H 323.305 -3.18913 3.01979 0
M  V30 3511 H 323.911 -1.7523 3.87523 0
M  V30 3512 N 322.226 -1.5378 -0.344866 0
M  V30 3513 C 323.454 -1.74899 -1.10534 0
M  V30 3514 C 323.869 -0.487534 -1.82397 0
M  V30 3515 O 323.226 0.540741 -1.74305 0
M  V30 3516 C 323.277 -2.92822 -2.11984 0
M  V30 3517 O 322.998 -4.14089 -1.43044 0
M  V30 3518 C 324.499 -3.25982 -3.00417 0
M  V30 3519 H 321.719 -0.584426 -0.329678 0
M  V30 3520 H 324.263 -2.006 -0.397474 0
M  V30 3521 H 322.418 -2.69457 -2.78338 0
M  V30 3522 H 322.832 -4.80272 -2.10805 0
M  V30 3523 H 324.306 -4.11848 -3.67539 0
M  V30 3524 H 324.783 -2.42228 -3.66363 0
M  V30 3525 H 325.389 -3.51349 -2.39654 0
M  V30 3526 N 323.704 0.605807 -1.45491 0
M  V30 3527 C 324.95 1.36481 -1.50813 0
M  V30 3528 C 325.305 1.91826 -0.148469 0
M  V30 3529 O 324.598 1.72211 0.839869 0
M  V30 3530 C 324.792 2.53012 -2.52428 0
M  V30 3531 C 324.621 2.09078 -3.98141 0
M  V30 3532 C 323.391 1.95167 -4.66088 0
M  V30 3533 C 325.589 1.66438 -4.86624 0
M  V30 3534 N 323.571 1.45062 -5.96515 0
M  V30 3535 C 324.942 1.27761 -6.06694 0
M  V30 3536 C 326.997 1.54046 -4.7347 0
M  V30 3537 C 325.7 0.779286 -7.15066 0
M  V30 3538 C 327.726 1.05618 -5.81892 0
M  V30 3539 C 327.088 0.67906 -7.01119 0
M  V30 3540 H 323.187 0.493267 -0.606805 0
M  V30 3541 H 325.771 0.692347 -1.81974 0
M  V30 3542 H 323.942 3.17851 -2.23215 0
M  V30 3543 H 325.674 3.19897 -2.47887 0
M  V30 3544 H 322.429 2.16407 -4.21266 0
M  V30 3545 H 322.853 1.22237 -6.65873 0
M  V30 3546 H 327.495 1.81827 -3.81705 0
M  V30 3547 H 325.213 0.489026 -8.06619 0
M  V30 3548 H 328.799 0.964529 -5.73749 0
M  V30 3549 H 327.679 0.310091 -7.83587 0
M  V30 3550 N 325.182 1.32811 0.848464 0
M  V30 3551 C 326.459 1.14334 1.58704 0
M  V30 3552 C 326.839 -0.293948 2.09043 0
M  V30 3553 O 326.187 -1.29153 1.88499 0
M  V30 3554 C 326.397 2.17626 2.72837 0
M  V30 3555 C 327.745 2.51282 3.42261 0
M  V30 3556 O 328.769 2.16219 2.83068 0
M  V30 3557 O 327.628 3.11413 4.49093 0
M  V30 3558 H 324.722 0.441601 0.699226 0
M  V30 3559 H 327.268 1.44362 0.892053 0
M  V30 3560 H 326.04 3.14211 2.3321 0
M  V30 3561 H 325.663 1.88628 3.50008 0
M  V30 3562 N 326.66 -1.06551 1.16123 0
M  V30 3563 C 327.906 -1.79719 0.952505 0
M  V30 3564 C 328.261 -1.85396 -0.514385 0
M  V30 3565 O 327.554 -1.33263 -1.37665 0
M  V30 3566 C 327.748 -3.23911 1.51052 0
M  V30 3567 C 327.577 -3.32284 3.03013 0
M  V30 3568 C 326.347 -3.42371 3.71632 0
M  V30 3569 C 328.545 -3.22363 4.00732 0
M  V30 3570 N 326.527 -3.39732 5.11327 0
M  V30 3571 C 327.898 -3.26937 5.26794 0
M  V30 3572 C 329.953 -3.0623 3.92591 0
M  V30 3573 C 328.656 -3.17035 6.45663 0
M  V30 3574 C 330.682 -2.97665 5.11028 0
M  V30 3575 C 330.044 -3.02858 6.35969 0
M  V30 3576 H 326.143 -0.670585 0.402293 0
M  V30 3577 H 328.727 -1.27125 1.4747 0
M  V30 3578 H 326.898 -3.74907 1.01484 0
M  V30 3579 H 328.63 -3.85242 1.2398 0
M  V30 3580 H 325.385 -3.47058 3.22254 0
M  V30 3581 H 325.809 -3.41919 5.84312 0
M  V30 3582 H 330.451 -3.01063 2.96852 0
M  V30 3583 H 328.169 -3.2096 7.41627 0
M  V30 3584 H 331.755 -2.86273 5.06497 0
M  V30 3585 H 330.635 -2.96286 7.26075 0
M  V30 3586 N 328.138 -0.959301 -1.25041 0
M  V30 3587 C 329.387 -0.612254 -1.92183 0
M  V30 3588 C 329.7 0.855347 -1.75907 0
M  V30 3589 O 330.906 1.31256 -2.37664 0
M  V30 3590 C 329.362 -1.04435 -3.44414 0
M  V30 3591 C 328.97 -2.53482 -3.69393 0
M  V30 3592 C 330.714 -0.770055 -4.17457 0
M  V30 3593 C 328.621 -2.90468 -5.15153 0
M  V30 3594 H 327.551 -0.225279 -0.719559 0
M  V30 3595 H 330.202 -1.16438 -1.41825 0
M  V30 3596 H 328.584 -0.4206 -3.9376 0
M  V30 3597 H 329.758 -3.20916 -3.30681 0
M  V30 3598 H 328.073 -2.78432 -3.0962 0
M  V30 3599 H 330.67 -1.02249 -5.24832 0
M  V30 3600 H 331.013 0.293611 -4.15263 0
M  V30 3601 H 331.546 -1.35437 -3.74034 0
M  V30 3602 H 328.285 -3.95871 -5.22462 0
M  V30 3603 H 327.805 -2.27711 -5.54894 0
M  V30 3604 H 329.484 -2.79914 -5.83315 0
M  V30 3605 N 329.616 1.39756 -0.72842 0
M  V30 3606 C 330.865 1.99879 -0.270407 0
M  V30 3607 C 331.178 1.58449 1.14688 0
M  V30 3608 O 332.384 2.11362 1.70407 0
M  V30 3609 C 330.84 3.57292 -0.43252 0
M  V30 3610 C 330.448 4.07688 -1.85727 0
M  V30 3611 C 332.192 4.24485 -0.0359507 0
M  V30 3612 C 330.099 5.5765 -1.96928 0
M  V30 3613 H 329.029 0.747689 -0.0973472 0
M  V30 3614 H 331.68 1.59837 -0.901355 0
M  V30 3615 H 330.062 3.95097 0.267219 0
M  V30 3616 H 331.236 3.81231 -2.58843 0
M  V30 3617 H 329.551 3.53135 -2.20646 0
M  V30 3618 H 332.148 5.34609 -0.0987484 0
M  V30 3619 H 332.491 4.03915 1.00787 0
M  V30 3620 H 333.024 3.9183 -0.686604 0
M  V30 3621 H 329.763 5.8309 -2.99476 0
M  V30 3622 H 329.283 5.8593 -1.28241 0
M  V30 3623 H 330.962 6.22957 -1.74737 0
M  V30 3624 N 331.094 0.475555 1.50254 0
M  V30 3625 C 332.024 -0.30611 2.31485 0
M  V30 3626 C 333.005 -0.986228 1.38591 0
M  V30 3627 O 334.19 -0.982541 1.67511 0
M  V30 3628 C 331.32 -1.38588 3.1845 0
M  V30 3629 C 330.274 -0.827115 4.19932 0
M  V30 3630 C 329.6 -2.00551 4.95665 0
M  V30 3631 C 330.9 0.16463 5.2204 0
M  V30 3632 H 332.594 0.371866 2.97082 0
M  V30 3633 H 330.14 0.180282 1.42867 0
M  V30 3634 H 332.093 -1.94023 3.74076 0
M  V30 3635 H 330.817 -2.09269 2.50747 0
M  V30 3636 H 329.476 -0.294702 3.65414 0
M  V30 3637 H 329.124 -2.6994 4.2443 0
M  V30 3638 H 328.824 -1.63784 5.64313 0
M  V30 3639 H 330.348 -2.56468 5.54127 0
M  V30 3640 H 331.762 -0.300699 5.72511 0
M  V30 3641 H 330.159 0.446813 5.98434 0
M  V30 3642 H 331.229 1.08905 4.72512 0
M  V30 3643 N 332.573 -1.56217 0.208337 0
M  V30 3644 C 333.822 -1.97124 -0.427204 0
M  V30 3645 C 334.135 -1.09859 -1.61835 0
M  V30 3646 O 335.341 -1.40606 -2.32255 0
M  V30 3647 C 333.797 -3.50633 -0.811442 0
M  V30 3648 C 333.405 -4.46582 0.35615 0
M  V30 3649 C 335.149 -4.00282 -1.41332 0
M  V30 3650 C 333.056 -5.91379 -0.0497852 0
M  V30 3651 H 331.986 -0.736086 -0.163381 0
M  V30 3652 H 334.637 -1.8099 0.302456 0
M  V30 3653 H 333.019 -3.62319 -1.59815 0
M  V30 3654 H 334.193 -4.46636 1.1337 0
M  V30 3655 H 332.508 -4.07202 0.870396 0
M  V30 3656 H 335.105 -5.0595 -1.72972 0
M  V30 3657 H 335.448 -3.45359 -2.32449 0
M  V30 3658 H 335.981 -3.91764 -0.690323 0
M  V30 3659 H 332.72 -6.50255 0.827529 0
M  V30 3660 H 332.24 -5.94549 -0.791926 0
M  V30 3661 H 333.919 -6.45209 -0.481042 0
M  V30 3662 N 334.051 0.0651679 -1.57465 0
M  V30 3663 C 334.981 1.07693 -2.07182 0
M  V30 3664 C 335.962 1.39962 -0.966673 0
M  V30 3665 O 337.147 1.49475 -1.2398 0
M  V30 3666 C 334.277 2.3885 -2.52127 0
M  V30 3667 C 333.231 2.20917 -3.66579 0
M  V30 3668 C 332.557 3.57515 -3.97601 0
M  V30 3669 C 333.857 1.62493 -4.9638 0
M  V30 3670 H 335.551 0.663199 -2.91962 0
M  V30 3671 H 333.097 0.317569 -1.40455 0
M  V30 3672 H 335.05 3.09928 -2.85522 0
M  V30 3673 H 333.774 2.82215 -1.64384 0
M  V30 3674 H 332.433 1.52279 -3.33477 0
M  V30 3675 H 332.081 3.98463 -3.06979 0
M  V30 3676 H 331.781 3.46353 -4.74672 0
M  V30 3677 H 333.305 4.30013 -4.33499 0
M  V30 3678 H 334.719 2.23445 -5.27963 0
M  V30 3679 H 333.116 1.62009 -5.77818 0
M  V30 3680 H 334.186 0.587041 -4.81333 0
M  V30 3681 N 335.529 1.53961 0.336706 0
M  V30 3682 C 336.757 1.75483 1.09605 0
M  V30 3683 C 337.172 0.4972 1.82136 0
M  V30 3684 O 336.529 -0.53149 1.74589 0
M  V30 3685 C 336.58 2.93943 2.10428 0
M  V30 3686 O 336.301 4.14842 1.40846 0
M  V30 3687 C 337.802 3.27571 2.98684 0
M  V30 3688 H 335.022 0.586166 0.326574 0
M  V30 3689 H 337.566 2.00808 0.38683 0
M  V30 3690 H 335.721 2.70929 2.76905 0
M  V30 3691 H 336.135 4.81383 2.08255 0
M  V30 3692 H 337.609 4.13791 3.6535 0
M  V30 3693 H 338.086 2.44168 3.65074 0
M  V30 3694 H 338.692 3.52615 2.37787 0
M  V30 3695 N 337.007 -0.598083 1.45811 0
M  V30 3696 C 338.254 -1.35681 1.50323 0
M  V30 3697 C 338.582 -1.9393 0.148739 0
M  V30 3698 O 337.837 -1.76094 -0.853787 0
M  V30 3699 C 338.136 -2.51669 2.53766 0
M  V30 3700 C 337.802 -2.11508 3.98215 0
M  V30 3701 C 336.464 -2.0027 4.37545 0
M  V30 3702 C 338.816 -1.80308 4.89018 0
M  V30 3703 C 336.144 -1.56067 5.65562 0
M  V30 3704 C 338.496 -1.37589 6.17456 0
M  V30 3705 C 337.16 -1.24916 6.55708 0
M  V30 3706 H 336.43 -0.496492 0.550069 0
M  V30 3707 H 339.077 -0.675052 1.79207 0
M  V30 3708 H 337.382 -3.25225 2.18486 0
M  V30 3709 H 339.079 -3.09895 2.54492 0
M  V30 3710 H 335.669 -2.21185 3.67117 0
M  V30 3711 H 339.853 -1.87884 4.59362 0
M  V30 3712 H 335.109 -1.44886 5.93985 0
M  V30 3713 H 339.283 -1.12495 6.87254 0
M  V30 3714 H 336.91 -0.904386 7.54801 0
M  V30 3715 N 338.485 -1.33259 -0.841409 0
M  V30 3716 C 339.715 -1.2742 -1.62628 0
M  V30 3717 C 340.123 0.157604 -1.88542 0
M  V30 3718 O 339.466 1.10938 -1.46419 0
M  V30 3719 C 339.528 -1.97797 -3.00194 0
M  V30 3720 C 339.192 -3.47109 -2.97261 0
M  V30 3721 C 340.189 -4.42358 -2.73159 0
M  V30 3722 C 337.874 -3.89247 -3.17478 0
M  V30 3723 C 339.868 -5.77718 -2.69296 0
M  V30 3724 C 337.555 -5.24713 -3.13241 0
M  V30 3725 C 338.553 -6.1876 -2.89181 0
M  V30 3726 O 338.241 -7.51745 -2.84843 0
M  V30 3727 H 337.973 -0.440436 -0.512827 0
M  V30 3728 H 340.527 -1.76153 -1.05638 0
M  V30 3729 H 338.757 -1.43652 -3.59028 0
M  V30 3730 H 340.446 -1.8549 -3.61038 0
M  V30 3731 H 341.212 -4.11127 -2.57294 0
M  V30 3732 H 337.091 -3.16456 -3.35226 0
M  V30 3733 H 340.635 -6.51097 -2.50436 0
M  V30 3734 H 336.532 -5.55569 -3.28654 0
M  V30 3735 H 337.3 -7.61262 -3.00702 0
M  V30 3736 N 339.963 1.05934 -1.16686 0
M  V30 3737 C 341.191 1.8249 -0.974929 0
M  V30 3738 C 341.606 1.82679 0.476861 0
M  V30 3739 O 340.963 1.2486 1.33103 0
M  V30 3740 C 341.014 3.28943 -1.49929 0
M  V30 3741 O 340.735 3.28886 -2.89423 0
M  V30 3742 C 342.236 4.22215 -1.35089 0
M  V30 3743 H 339.456 0.575295 -0.345365 0
M  V30 3744 H 342 1.33631 -1.548 0
M  V30 3745 H 340.155 3.751 -0.968423 0
M  V30 3746 H 340.569 4.20493 -3.13506 0
M  V30 3747 H 342.043 5.22987 -1.76603 0
M  V30 3748 H 342.52 4.38195 -0.296935 0
M  V30 3749 H 343.126 3.81907 -1.87155 0
M  V30 3750 N 341.441 0.965919 1.2453 0
M  V30 3751 C 342.404 0.499547 2.2369 0
M  V30 3752 C 343.404 -0.40294 1.5567 0
M  V30 3753 O 344.594 -0.19865 1.73064 0
M  V30 3754 C 341.726 -0.276792 3.39774 0
M  V30 3755 H 342.919 1.37613 2.66463 0
M  V30 3756 H 340.472 0.750324 1.37112 0
M  V30 3757 H 341.207 -1.17055 3.02438 0
M  V30 3758 H 340.992 0.370826 3.90343 0
M  V30 3759 H 342.482 -0.592175 4.1338 0
M  V30 3760 N 342.919 -1.39368 0.735821 0
M  V30 3761 C 344.168 -1.99733 0.281004 0
M  V30 3762 C 344.481 -1.59055 -1.13846 0
M  V30 3763 O 345.687 -2.12262 -1.69284 0
M  V30 3764 C 344.143 -3.57057 0.451462 0
M  V30 3765 C 343.751 -4.06697 1.87886 0
M  V30 3766 C 345.495 -4.2446 0.0584616 0
M  V30 3767 C 343.402 -5.56598 1.99883 0
M  V30 3768 H 342.332 -0.747163 0.101311 0
M  V30 3769 H 344.983 -1.59357 0.909819 0
M  V30 3770 H 343.365 -3.95234 -0.246263 0
M  V30 3771 H 344.539 -3.79853 2.60861 0
M  V30 3772 H 342.854 -3.5196 2.22515 0
M  V30 3773 H 345.451 -5.34549 0.127099 0
M  V30 3774 H 345.794 -4.04444 -0.986433 0
M  V30 3775 H 346.327 -3.9146 0.707374 0
M  V30 3776 H 343.066 -5.81494 3.02564 0
M  V30 3777 H 342.586 -5.85242 1.31346 0
M  V30 3778 H 344.265 -6.22022 1.78039 0
M  V30 3779 N 344.397 -0.483516 -1.5 0
M  V30 3780 C 345.327 0.293829 -2.31644 0
M  V30 3781 C 346.308 0.978864 -1.39112 0
M  V30 3782 O 347.493 0.973644 -1.68029 0
M  V30 3783 C 344.623 1.36897 -3.19181 0
M  V30 3784 C 343.577 0.804833 -4.20365 0
M  V30 3785 C 342.903 1.9792 -4.96721 0
M  V30 3786 C 344.203 -0.192313 -5.21946 0
M  V30 3787 H 345.897 -0.387616 -2.9688 0
M  V30 3788 H 343.443 -0.187856 -1.42769 0
M  V30 3789 H 345.396 1.92037 -3.751 0
M  V30 3790 H 344.12 2.07936 -2.51853 0
M  V30 3791 H 342.779 0.275319 -3.65565 0
M  V30 3792 H 342.427 2.67686 -4.25856 0
M  V30 3793 H 342.127 1.60789 -5.65173 0
M  V30 3794 H 343.651 2.53526 -5.55479 0
M  V30 3795 H 345.065 0.270333 -5.72662 0
M  V30 3796 H 343.462 -0.478543 -5.98189 0
M  V30 3797 H 344.532 -1.11409 -4.71928 0
M  V30 3798 N 345.875 1.56104 -0.216619 0
M  V30 3799 C 347.121 1.98466 0.417033 0
M  V30 3800 C 347.454 1.10403 1.59765 0
M  V30 3801 O 346.729 0.160632 1.93836 0
M  V30 3802 C 347.012 3.49769 0.85637 0
M  V30 3803 C 346.865 4.48606 -0.327546 0
M  V30 3804 C 348.184 4.05339 1.7143 0
M  V30 3805 H 345.303 0.721551 0.150112 0
M  V30 3806 H 347.945 1.87423 -0.311864 0
M  V30 3807 H 346.095 3.5931 1.47745 0
M  V30 3808 H 347.767 4.5108 -0.965618 0
M  V30 3809 H 346.01 4.22682 -0.975805 0
M  V30 3810 H 346.681 5.51995 0.0227149 0
M  V30 3811 H 349.157 3.98712 1.19031 0
M  V30 3812 H 348.033 5.11533 1.99061 0
M  V30 3813 H 348.294 3.51918 2.67593 0
M  V30 3814 N 347.353 -0.0568162 1.57498 0
M  V30 3815 C 348.764 -0.606858 1.76562 0
M  V30 3816 C 349.115 -1.77114 0.844094 0
M  V30 3817 O 348.24 -2.16376 0.0318911 0
M  V30 3818 C 348.835 -1.10766 3.20182 0
M  V30 3819 C 347.394 -1.60344 3.40539 0
M  V30 3820 C 346.541 -0.529311 2.72201 0
M  V30 3821 H 349.492 0.169393 1.57793 0
M  V30 3822 H 349.513 -1.97602 3.25167 0
M  V30 3823 H 349.025 -0.26006 3.87228 0
M  V30 3824 H 347.126 -2.47379 2.78629 0
M  V30 3825 H 347.239 -1.67006 4.4905 0
M  V30 3826 H 345.603 -0.977893 2.35179 0
M  V30 3827 H 346.386 0.308352 3.41912 0
M  V30 3828 N 348.832 -1.54138 -0.328536 0
M  V30 3829 C 350.062 -1.75807 -1.08516 0
M  V30 3830 C 350.47 -0.50428 -1.82356 0
M  V30 3831 O 349.813 0.534451 -1.75754 0
M  V30 3832 C 349.875 -2.89423 -2.13248 0
M  V30 3833 C 349.539 -4.28504 -1.5885 0
M  V30 3834 C 350.536 -5.09536 -1.03289 0
M  V30 3835 C 348.221 -4.75034 -1.63243 0
M  V30 3836 C 350.215 -6.35206 -0.52845 0
M  V30 3837 C 347.902 -6.00672 -1.12411 0
M  V30 3838 C 348.9 -6.80592 -0.573062 0
M  V30 3839 O 348.588 -8.03867 -0.0723692 0
M  V30 3840 H 348.32 -0.590633 -0.328829 0
M  V30 3841 H 350.874 -2.01819 -0.381868 0
M  V30 3842 H 349.104 -2.5897 -2.87178 0
M  V30 3843 H 350.793 -2.98921 -2.74592 0
M  V30 3844 H 351.559 -4.74745 -0.99206 0
M  V30 3845 H 347.438 -4.12875 -2.05074 0
M  V30 3846 H 350.982 -6.97532 -0.0976774 0
M  V30 3847 H 346.879 -6.34955 -1.162 0
M  V30 3848 H 347.647 -8.18283 -0.188258 0
M  V30 3849 N 350.31 0.590341 -1.46126 0
M  V30 3850 C 351.258 1.72105 -1.5647 0
M  V30 3851 C 352.252 1.63756 -0.433612 0
M  V30 3852 O 353.458 1.69342 -0.610194 0
M  V30 3853 H 349.833 0.568889 -0.491802 0
M  V30 3854 H 351.804 1.6051 -2.51553 0
M  V30 3855 C 350.553 3.10493 -1.56491 0
M  V30 3856 H 349.876 3.17583 -2.4286 0
M  V30 3857 H 351.316 3.8939 -1.67785 0
M  V30 3858 C 349.775 3.3563 -0.292231 0
M  V30 3859 O 350.305 3.96875 0.620739 0
M  V30 3860 N 348.511 2.90026 -0.182523 0
M  V30 3861 H 348.058 2.40367 -0.926356 0
M  V30 3862 H 348.016 3.07218 0.668152 0
M  V30 3863 N 351.788 1.33704 0.83433 0
M  V30 3864 C 353.034 1.25603 1.59222 0
M  V30 3865 C 353.367 -0.176659 1.93395 0
M  V30 3866 O 352.642 -1.11915 1.59076 0
M  V30 3867 C 352.925 2.13576 2.89926 0
M  V30 3868 C 352.778 3.65326 2.62406 0
M  V30 3869 C 354.097 2.01238 3.91397 0
M  V30 3870 H 351.216 0.457613 0.577719 0
M  V30 3871 H 353.858 1.63848 0.961972 0
M  V30 3872 H 352.008 1.8109 3.43713 0
M  V30 3873 H 353.68 4.08124 2.15017 0
M  V30 3874 H 351.923 3.8698 1.96033 0
M  V30 3875 H 352.594 4.22232 3.55562 0
M  V30 3876 H 355.07 2.29738 3.46929 0
M  V30 3877 H 353.946 2.65036 4.80673 0
M  V30 3878 H 354.207 0.985951 4.30966 0
M  V30 3879 N 353.266 -1.05314 1.17247 0
M  V30 3880 C 354.491 -1.82509 0.985148 0
M  V30 3881 C 354.916 -1.82343 -0.461788 0
M  V30 3882 O 354.274 -1.23151 -1.33055 0
M  V30 3883 C 354.322 -3.26566 1.52929 0
M  V30 3884 O 353.426 -4.05666 0.742225 0
M  V30 3885 H 352.767 -0.564347 0.349869 0
M  V30 3886 H 355.297 -1.32718 1.55715 0
M  V30 3887 H 355.307 -3.77369 1.55103 0
M  V30 3888 H 353.982 -3.26001 2.58256 0
M  V30 3889 H 352.559 -3.64397 0.791794 0
M  V30 3890 N 354.744 -0.972509 -1.24016 0
M  V30 3891 C 355.991 -0.637034 -1.92219 0
M  V30 3892 C 356.319 0.828418 -1.75976 0
M  V30 3893 O 355.574 1.61206 -1.10955 0
M  V30 3894 C 355.873 -0.963694 -3.44162 0
M  V30 3895 C 355.539 -2.41807 -3.80579 0
M  V30 3896 C 354.201 -2.81556 -3.9023 0
M  V30 3897 C 356.553 -3.36172 -3.98293 0
M  V30 3898 C 353.881 -4.14702 -4.15017 0
M  V30 3899 C 356.233 -4.68952 -4.24578 0
M  V30 3900 C 354.897 -5.08472 -4.32449 0
M  V30 3901 H 354.167 -0.233107 -0.703379 0
M  V30 3902 H 356.814 -1.2249 -1.47202 0
M  V30 3903 H 355.119 -0.29365 -3.90698 0
M  V30 3904 H 356.816 -0.682449 -3.9515 0
M  V30 3905 H 353.406 -2.09988 -3.73635 0
M  V30 3906 H 357.59 -3.06644 -3.90234 0
M  V30 3907 H 352.846 -4.4494 -4.19331 0
M  V30 3908 H 357.02 -5.42037 -4.37229 0
M  V30 3909 H 354.647 -6.11665 -4.51409 0
M  V30 3910 N 356.222 1.38976 -0.743202 0
M  V30 3911 C 357.169 2.30544 -0.10861 0
M  V30 3912 C 358.139 1.49642 0.720869 0
M  V30 3913 O 359.324 1.78304 0.679142 0
M  V30 3914 C 356.464 3.36018 0.786496 0
M  V30 3915 C 355.577 4.31963 -0.0564849 0
M  V30 3916 C 354.712 5.24506 0.840657 0
M  V30 3917 C 353.751 6.121 -0.00658363 0
M  V30 3918 N 352.888 6.96973 0.846943 0
M  V30 3919 H 357.728 2.8424 -0.895088 0
M  V30 3920 H 355.265 1.3995 -0.453048 0
M  V30 3921 H 357.223 3.95768 1.31999 0
M  V30 3922 H 355.853 2.83758 1.53887 0
M  V30 3923 H 354.905 3.73763 -0.707492 0
M  V30 3924 H 356.217 4.93703 -0.711229 0
M  V30 3925 H 355.371 5.89322 1.4417 0
M  V30 3926 H 354.11 4.63107 1.52916 0
M  V30 3927 H 353.115 5.46289 -0.620366 0
M  V30 3928 H 354.34 6.75565 -0.691992 0
M  V30 3929 H 352.286 6.38133 1.52059 0
M  V30 3930 H 352.203 7.5559 0.248864 0
M  V30 3931 H 353.471 7.6621 1.43328 0
M  V30 3932 N 357.7 0.491464 1.49741 0
M  V30 3933 C 358.928 -0.0535151 2.06831 0
M  V30 3934 C 359.343 -1.31683 1.35296 0
M  V30 3935 O 358.7 -1.77402 0.42836 0
M  V30 3936 C 358.751 -0.320835 3.60073 0
M  V30 3937 O 358.472 0.892394 4.28915 0
M  V30 3938 C 359.973 -0.910519 4.33848 0
M  V30 3939 H 357.193 0.0161909 0.670805 0
M  V30 3940 H 359.737 0.68609 1.92647 0
M  V30 3941 H 357.892 -1.0104 3.73991 0
M  V30 3942 H 358.306 0.649401 5.20464 0
M  V30 3943 H 359.78 -1.04721 5.41976 0
M  V30 3944 H 360.257 -1.90589 3.95692 0
M  V30 3945 H 360.863 -0.258712 4.24512 0
M  V30 3946 N 359.178 -1.55987 0.224894 0
M  V30 3947 C 360.594 -1.59066 -0.130426 0
M  V30 3948 C 360.794 -1.24176 -1.5869 0
M  V30 3949 O 359.85 -0.978592 -2.32766 0
M  V30 3950 C 361.163 -3.00042 0.198883 0
M  V30 3951 C 362.711 -3.1268 0.141391 0
M  V30 3952 C 363.186 -4.55839 0.444422 0
M  V30 3953 N 364.677 -4.6152 0.394115 0
M  V30 3954 C 365.412 -5.70231 0.602038 0
M  V30 3955 N 364.908 -6.87291 0.871914 0
M  V30 3956 N 366.701 -5.59555 0.534245 0
M  V30 3957 H 358.852 -1.76941 1.17497 0
M  V30 3958 H 361.115 -0.822604 0.471197 0
M  V30 3959 H 360.821 -3.30234 1.2099 0
M  V30 3960 H 360.695 -3.74075 -0.484535 0
M  V30 3961 H 363.082 -2.82283 -0.860265 0
M  V30 3962 H 363.163 -2.40969 0.858335 0
M  V30 3963 H 362.807 -4.86954 1.44353 0
M  V30 3964 H 362.737 -5.2578 -0.293752 0
M  V30 3965 H 365.228 -3.77405 0.193356 0
M  V30 3966 H 365.541 -7.66058 1.01858 0
M  V30 3967 H 363.886 -6.89028 0.909145 0
M  V30 3968 H 367.077 -4.6698 0.323612 0
M  V30 3969 H 367.25 -6.44211 0.699693 0
M  V30 3970 N 360.656 0.0484629 -1.57525 0
M  V30 3971 C 361.588 1.08222 -2.02041 0
M  V30 3972 C 362.601 1.33621 -0.930012 0
M  V30 3973 O 363.79 1.3145 -1.20761 0
M  V30 3974 C 360.89 2.42818 -2.36416 0
M  V30 3975 C 360.063 2.37049 -3.67596 0
M  V30 3976 C 359.122 3.53937 -3.89378 0
M  V30 3977 O 358.148 3.34308 -4.60681 0
M  V30 3978 N 359.35 4.75126 -3.3352 0
M  V30 3979 H 362.115 0.702946 -2.9134 0
M  V30 3980 H 359.676 0.236745 -1.6016 0
M  V30 3981 H 361.668 3.197 -2.48141 0
M  V30 3982 H 360.238 2.72661 -1.52888 0
M  V30 3983 H 359.458 1.45395 -3.66407 0
M  V30 3984 H 360.746 2.30318 -4.53686 0
M  V30 3985 H 360.144 4.93976 -2.75688 0
M  V30 3986 H 358.701 5.49439 -3.50656 0
M  V30 3987 N 362.134 1.5431 0.320358 0
M  V30 3988 C 363.082 1.84647 1.4145 0
M  V30 3989 C 364.076 0.718624 1.53402 0
M  V30 3990 O 365.282 0.902335 1.5575 0
M  V30 3991 H 361.657 0.585349 0.472091 0
M  V30 3992 H 363.628 2.7614 1.13089 0
M  V30 3993 C 362.377 2.09341 2.77617 0
M  V30 3994 H 361.7 2.9559 2.69196 0
M  V30 3995 H 363.14 2.3452 3.53237 0
M  V30 3996 C 361.599 0.885939 3.25043 0
M  V30 3997 O 362.129 0.0967891 4.01583 0
M  V30 3998 N 360.335 0.696682 2.82125 0
M  V30 3999 H 359.882 1.34006 2.2 0
M  V30 4000 H 359.84 -0.109712 3.14209 0
M  V30 4001 N 363.613 -0.582584 1.46437 0
M  V30 4002 C 364.561 -1.71272 1.5738 0
M  V30 4003 C 365.555 -1.63524 0.44229 0
M  V30 4004 O 366.761 -1.69016 0.619166 0
M  V30 4005 H 363.136 -0.566273 0.494813 0
M  V30 4006 H 365.107 -1.59174 2.52401 0
M  V30 4007 C 363.856 -3.09658 1.58136 0
M  V30 4008 H 363.179 -3.16291 2.44541 0
M  V30 4009 H 364.619 -3.88494 1.69847 0
M  V30 4010 C 363.078 -3.3547 0.310026 0
M  V30 4011 O 363.608 -3.97199 -0.599683 0
M  V30 4012 N 361.814 -2.89925 0.197901 0
M  V30 4013 H 361.361 -2.39873 0.93909 0
M  V30 4014 H 361.319 -3.07568 -0.65185 0
M  V30 4015 N 365.091 -1.34144 -0.827227 0
M  V30 4016 C 366.337 -1.26446 -1.58554 0
M  V30 4017 C 366.67 0.1664 -1.93486 0
M  V30 4018 O 365.945 1.1107 -1.59667 0
M  V30 4019 C 366.228 -2.15111 -2.8879 0
M  V30 4020 C 366.081 -3.66712 -2.60465 0
M  V30 4021 C 367.4 -2.03311 -3.90324 0
M  V30 4022 H 364.519 -0.46067 -0.575284 0
M  V30 4023 H 367.161 -1.64356 -0.953269 0
M  V30 4024 H 365.311 -1.8291 -3.42748 0
M  V30 4025 H 366.983 -4.09259 -2.1285 0
M  V30 4026 H 365.226 -3.88014 -1.93978 0
M  V30 4027 H 365.897 -4.24112 -3.53317 0
M  V30 4028 H 368.373 -2.31574 -3.45706 0
M  V30 4029 H 367.249 -2.67582 -4.79261 0
M  V30 4030 H 367.51 -1.00879 -4.30437 0
M  V30 4031 N 366.569 1.04691 -1.17803 0
M  V30 4032 C 367.532 2.10724 -0.901545 0
M  V30 4033 C 368.532 1.6042 0.110437 0
M  V30 4034 O 369.722 1.7377 -0.122303 0
M  V30 4035 C 366.854 3.39084 -0.351409 0
M  V30 4036 H 368.047 2.36686 -1.84174 0
M  V30 4037 H 365.6 1.21015 -0.98919 0
M  V30 4038 H 366.335 3.18782 0.59569 0
M  V30 4039 H 366.12 3.76909 -1.08083 0
M  V30 4040 H 367.61 4.17227 -0.176451 0
M  V30 4041 N 368.047 0.979072 1.23499 0
M  V30 4042 C 369.293 0.6578 1.9247 0
M  V30 4043 C 369.648 -0.799746 1.74991 0
M  V30 4044 O 368.941 -1.56922 1.09937 0
M  V30 4045 C 369.135 0.981932 3.43646 0
M  V30 4046 C 368.964 2.46944 3.75831 0
M  V30 4047 C 367.734 3.13119 3.96591 0
M  V30 4048 C 369.932 3.45006 3.81412 0
M  V30 4049 N 367.914 4.51489 4.15969 0
M  V30 4050 C 369.285 4.68778 4.05768 0
M  V30 4051 C 371.34 3.39505 3.64198 0
M  V30 4052 C 370.043 5.87723 4.14697 0
M  V30 4053 C 372.069 4.57814 3.7438 0
M  V30 4054 C 371.431 5.80381 3.99171 0
M  V30 4055 H 367.53 0.291746 0.72554 0
M  V30 4056 H 370.114 1.25626 1.48749 0
M  V30 4057 H 368.285 0.412179 3.86207 0
M  V30 4058 H 370.017 0.618068 3.99953 0
M  V30 4059 H 366.772 2.63619 3.93449 0
M  V30 4060 H 367.196 5.23221 4.29615 0
M  V30 4061 H 371.838 2.45773 3.44029 0
M  V30 4062 H 369.556 6.81874 4.33675 0
M  V30 4063 H 373.142 4.55132 3.62417 0
M  V30 4064 H 372.022 6.70398 4.06861 0
M  V30 4065 N 369.525 -1.3858 0.750561 0
M  V30 4066 C 370.455 -2.33102 0.136237 0
M  V30 4067 C 371.436 -1.54713 -0.706965 0
M  V30 4068 O 372.621 -1.83043 -0.648769 0
M  V30 4069 C 369.751 -3.38882 -0.760017 0
M  V30 4070 C 368.705 -4.27995 -0.0197785 0
M  V30 4071 C 368.031 -5.24605 -1.03408 0
M  V30 4072 C 369.331 -5.09554 1.14684 0
M  V30 4073 H 371.025 -2.84726 0.925822 0
M  V30 4074 H 368.571 -1.36898 0.446654 0
M  V30 4075 H 370.524 -4.0397 -1.19943 0
M  V30 4076 H 369.248 -2.85734 -1.58189 0
M  V30 4077 H 367.907 -3.64409 0.400184 0
M  V30 4078 H 367.555 -4.67746 -1.84994 0
M  V30 4079 H 367.255 -5.85081 -0.543464 0
M  V30 4080 H 368.779 -5.9257 -1.47288 0
M  V30 4081 H 370.193 -5.67899 0.785118 0
M  V30 4082 H 368.59 -5.7925 1.56812 0
M  V30 4083 H 369.66 -4.4347 1.96118 0
M  V30 4084 N 371.003 -0.499398 -1.49478 0
M  V30 4085 C 372.249 0.0457576 -2.02748 0
M  V30 4086 C 372.582 1.36793 -1.37846 0
M  V30 4087 O 371.857 1.87596 -0.513601 0
M  V30 4088 C 372.14 0.199986 -3.59544 0
M  V30 4089 C 371.993 -1.1452 -4.34977 0
M  V30 4090 C 373.312 0.94137 -4.29914 0
M  V30 4091 H 370.431 0.0151552 -0.736844 0
M  V30 4092 H 373.073 -0.650498 -1.78518 0
M  V30 4093 H 371.223 0.793007 -3.8032 0
M  V30 4094 H 372.895 -1.77697 -4.25701 0
M  V30 4095 H 371.138 -1.73488 -3.97598 0
M  V30 4096 H 371.809 -0.990607 -5.43039 0
M  V30 4097 H 374.285 0.43844 -4.13784 0
M  V30 4098 H 373.161 1.01812 -5.39375 0
M  V30 4099 H 373.422 1.98471 -3.95046 0
M  V30 4100 N 372.481 1.55866 -0.233164 0
M  V30 4101 C 373.727 1.98897 0.395959 0
M  V30 4102 C 374.06 1.12091 1.58585 0
M  V30 4103 O 373.335 0.181182 1.93654 0
M  V30 4104 C 373.618 3.50658 0.819224 0
M  V30 4105 C 373.471 4.48233 -0.375109 0
M  V30 4106 C 374.79 4.07135 1.67121 0
M  V30 4107 H 371.909 0.723102 0.142451 0
M  V30 4108 H 374.551 1.87082 -0.331725 0
M  V30 4109 H 372.701 3.60857 1.43925 0
M  V30 4110 H 374.373 4.50031 -1.01341 0
M  V30 4111 H 372.616 4.21624 -1.02058 0
M  V30 4112 H 373.287 5.51988 -0.0358328 0
M  V30 4113 H 375.763 3.99952 1.14795 0
M  V30 4114 H 374.639 5.13615 1.93625 0
M  V30 4115 H 374.9 3.54736 2.63846 0
M  V30 4116 N 373.959 -0.0401083 1.57549 0
M  V30 4117 C 375.236 -0.767917 1.79896 0
M  V30 4118 C 375.616 -1.9416 0.82856 0
M  V30 4119 O 374.964 -2.2812 -0.131671 0
M  V30 4120 C 375.174 -1.2113 3.27305 0
M  V30 4121 C 376.522 -1.63175 3.91994 0
M  V30 4122 O 377.546 -1.30616 3.31388 0
M  V30 4123 O 376.405 -2.23565 4.98679 0
M  V30 4124 H 373.499 -0.370441 0.739393 0
M  V30 4125 H 376.045 -0.017737 1.69691 0
M  V30 4126 H 374.817 -0.372937 3.89519 0
M  V30 4127 H 374.44 -2.02183 3.42356 0
M  V30 4128 N 375.437 -1.54477 -0.31217 0
M  V30 4129 C 376.662 -1.77526 -1.07235 0
M  V30 4130 C 377.087 -0.527775 -1.80544 0
M  V30 4131 O 376.445 0.52121 -1.73646 0
M  V30 4132 C 376.493 -2.97535 -2.03728 0
M  V30 4133 O 375.597 -2.69878 -3.11833 0
M  V30 4134 H 374.938 -0.58792 -0.30862 0
M  V30 4135 H 377.468 -2.01532 -0.352993 0
M  V30 4136 H 377.478 -3.25198 -2.46395 0
M  V30 4137 H 376.153 -3.87996 -1.49774 0
M  V30 4138 H 374.73 -2.53199 -2.7376 0
M  V30 4139 N 376.915 0.57481 -1.46744 0
M  V30 4140 C 378.164 1.32898 -1.51727 0
M  V30 4141 C 378.477 1.948 -0.176692 0
M  V30 4142 O 379.683 2.71299 -0.104385 0
M  V30 4143 C 378.139 2.40901 -2.67385 0
M  V30 4144 C 377.747 1.85266 -4.07898 0
M  V30 4145 C 379.491 3.17609 -2.81646 0
M  V30 4146 C 377.398 2.90945 -5.14883 0
M  V30 4147 H 376.328 0.499631 -0.564699 0
M  V30 4148 H 378.979 0.612536 -1.72975 0
M  V30 4149 H 377.361 3.15379 -2.39483 0
M  V30 4150 H 378.535 1.17278 -4.45626 0
M  V30 4151 H 376.85 1.21199 -3.98371 0
M  V30 4152 H 379.447 3.96493 -3.58744 0
M  V30 4153 H 379.79 3.70696 -1.89448 0
M  V30 4154 H 380.323 2.50239 -3.09233 0
M  V30 4155 H 377.062 2.42736 -6.089 0
M  V30 4156 H 376.582 3.57398 -4.81691 0
M  V30 4157 H 378.261 3.54755 -5.41071 0
M  V30 4158 N 378.394 1.34581 0.820102 0
M  V30 4159 C 379.64 1.27285 1.57881 0
M  V30 4160 C 379.973 -0.156137 1.93571 0
M  V30 4161 O 379.248 -1.10222 1.60254 0
M  V30 4162 C 379.531 2.16639 2.87645 0
M  V30 4163 C 379.384 3.68088 2.58517 0
M  V30 4164 C 380.703 2.05378 3.8924 0
M  V30 4165 H 377.822 0.463714 0.572833 0
M  V30 4166 H 380.464 1.64859 0.944539 0
M  V30 4167 H 378.614 1.84725 3.41773 0
M  V30 4168 H 380.286 4.10382 2.10676 0
M  V30 4169 H 378.529 3.89038 1.91917 0
M  V30 4170 H 379.2 4.2598 3.51063 0
M  V30 4171 H 381.676 2.33404 3.44473 0
M  V30 4172 H 380.552 2.7012 4.77835 0
M  V30 4173 H 380.813 1.0316 4.29896 0
M  V30 4174 N 379.872 -1.04064 1.18357 0
M  V30 4175 C 381.149 -1.74252 0.888581 0
M  V30 4176 C 381.529 -2.02138 -0.60856 0
M  V30 4177 O 380.877 -1.66656 -1.56327 0
M  V30 4178 C 381.087 -3.0277 1.73584 0
M  V30 4179 C 382.435 -3.76506 1.96286 0
M  V30 4180 O 383.459 -3.12668 1.70637 0
M  V30 4181 O 382.318 -4.91243 2.39464 0
M  V30 4182 H 379.412 -0.758271 0.330082 0
M  V30 4183 H 381.958 -1.1013 1.2911 0
M  V30 4184 H 380.73 -2.78299 2.75073 0
M  V30 4185 H 380.353 -3.74631 1.33183 0
M  V30 4186 N 381.35 -0.985608 -1.22978 0
M  V30 4187 C 382.596 -0.65836 -1.91816 0
M  V30 4188 C 382.929 0.806692 -1.76653 0
M  V30 4189 O 382.204 1.58252 -1.13078 0
M  V30 4190 C 382.487 -1.056 -3.44268 0
M  V30 4191 C 382.34 -2.57906 -3.68516 0
M  V30 4192 C 383.659 -0.603781 -4.35939 0
M  V30 4193 H 380.778 -0.24065 -0.696604 0
M  V30 4194 H 383.42 -1.22783 -1.44998 0
M  V30 4195 H 381.57 -0.571445 -3.84274 0
M  V30 4196 H 383.242 -3.13976 -3.3796 0
M  V30 4197 H 381.485 -3.00305 -3.13048 0
M  V30 4198 H 382.156 -2.80779 -4.75255 0
M  V30 4199 H 384.632 -1.01987 -4.03408 0
M  V30 4200 H 383.508 -0.910383 -5.41298 0
M  V30 4201 H 383.769 0.495761 -4.39312 0
M  V30 4202 N 382.828 1.3818 -0.7579 0
M  V30 4203 C 384.077 1.99261 -0.312744 0
M  V30 4204 C 384.39 1.60846 1.11301 0
M  V30 4205 O 385.596 2.14929 1.65885 0
M  V30 4206 C 384.052 3.56294 -0.50821 0
M  V30 4207 C 383.66 4.03657 -1.94333 0
M  V30 4208 C 385.404 4.24313 -0.125982 0
M  V30 4209 C 383.311 5.53347 -2.08712 0
M  V30 4210 H 382.241 0.745456 -0.113185 0
M  V30 4211 H 384.892 1.57889 -0.935056 0
M  V30 4212 H 383.274 3.95575 0.183353 0
M  V30 4213 H 384.448 3.75655 -2.66871 0
M  V30 4214 H 382.763 3.48376 -2.28086 0
M  V30 4215 H 385.36 5.34279 -0.212125 0
M  V30 4216 H 385.703 4.05962 0.921964 0
M  V30 4217 H 386.236 3.90285 -0.769563 0
M  V30 4218 H 382.975 5.76607 -3.11777 0
M  V30 4219 H 382.495 5.83078 -1.4064 0
M  V30 4220 H 384.174 6.19111 -1.87912 0
M  V30 4221 N 384.306 0.507319 1.49211 0
M  V30 4222 C 385.553 -0.0349529 2.0247 0
M  V30 4223 C 385.881 -1.36409 1.38647 0
M  V30 4224 O 385.136 -1.88841 0.513566 0
M  V30 4225 C 385.435 -0.229513 3.56662 0
M  V30 4226 C 385.101 1.02241 4.39156 0
M  V30 4227 C 383.763 1.36557 4.61417 0
M  V30 4228 C 386.115 1.85428 4.871 0
M  V30 4229 C 383.443 2.53999 5.28868 0
M  V30 4230 C 385.795 3.02028 5.55843 0
M  V30 4231 C 384.459 3.36717 5.76349 0
M  V30 4232 H 383.729 -0.0127902 0.74089 0
M  V30 4233 H 386.376 0.668756 1.79443 0
M  V30 4234 H 384.681 -1.0158 3.78403 0
M  V30 4235 H 386.378 -0.663641 3.9547 0
M  V30 4236 H 382.968 0.745124 4.22073 0
M  V30 4237 H 387.152 1.6023 4.69723 0
M  V30 4238 H 382.408 2.81105 5.42946 0
M  V30 4239 H 386.582 3.66808 5.91967 0
M  V30 4240 H 384.209 4.27821 6.28389 0
M  V30 4241 N 385.784 -1.5574 0.241426 0
M  V30 4242 C 386.714 -2.24133 -0.654722 0
M  V30 4243 C 387.695 -1.21974 -1.1856 0
M  V30 4244 O 388.88 -1.50612 -1.22595 0
M  V30 4245 C 386.01 -2.93659 -1.85423 0
M  V30 4246 C 384.964 -4.0246 -1.45636 0
M  V30 4247 C 384.29 -4.59383 -2.73626 0
M  V30 4248 C 385.59 -5.18468 -0.631506 0
M  V30 4249 H 387.284 -2.99281 -0.0844353 0
M  V30 4250 H 384.83 -1.43947 -0.0391707 0
M  V30 4251 H 386.783 -3.40203 -2.48676 0
M  V30 4252 H 385.507 -2.15991 -2.44981 0
M  V30 4253 H 384.166 -3.56676 -0.847202 0
M  V30 4254 H 383.814 -3.78422 -3.3137 0
M  V30 4255 H 383.514 -5.32826 -2.4773 0
M  V30 4256 H 385.038 -5.08658 -3.37786 0
M  V30 4257 H 386.452 -5.61272 -1.1682 0
M  V30 4258 H 384.849 -5.98266 -0.468831 0
M  V30 4259 H 385.919 -4.8358 0.357506 0
M  V30 4260 N 387.262 0.0317525 -1.57568 0
M  V30 4261 C 388.508 0.724175 -1.8943 0
M  V30 4262 C 388.841 1.75149 -0.838836 0
M  V30 4263 O 388.116 1.93948 0.146422 0
M  V30 4264 C 388.399 1.39615 -3.31933 0
M  V30 4265 C 388.252 0.382537 -4.4817 0
M  V30 4266 C 389.571 2.33084 -3.73309 0
M  V30 4267 H 386.69 0.261797 -0.688935 0
M  V30 4268 H 389.332 -0.013017 -1.89996 0
M  V30 4269 H 387.482 2.02451 -3.31581 0
M  V30 4270 H 389.154 -0.243689 -4.60656 0
M  V30 4271 H 387.397 -0.29844 -4.32772 0
M  V30 4272 H 388.068 0.891145 -5.44759 0
M  V30 4273 H 390.544 1.80295 -3.7501 0
M  V30 4274 H 389.42 2.77084 -4.73831 0
M  V30 4275 H 389.681 3.19643 -3.05419 0
M  V30 4276 N 388.74 1.54641 0.303973 0
M  V30 4277 C 390.017 1.64455 1.05896 0
M  V30 4278 C 390.397 0.490923 2.05312 0
M  V30 4279 O 389.745 -0.512685 2.22674 0
M  V30 4280 C 389.955 3.02331 1.74347 0
M  V30 4281 C 391.303 3.59045 2.26653 0
M  V30 4282 O 392.327 3.04764 1.84384 0
M  V30 4283 O 391.186 4.54081 3.04093 0
M  V30 4284 H 388.28 0.666729 0.489287 0
M  V30 4285 H 390.826 1.66986 0.302298 0
M  V30 4286 H 389.598 3.77734 1.02142 0
M  V30 4287 H 389.221 3.03565 2.56777 0
M  V30 4288 N 390.218 -0.567019 1.47046 0
M  V30 4289 C 391.467 -1.32091 1.5243 0
M  V30 4290 C 391.78 -1.94704 0.187021 0
M  V30 4291 O 392.986 -2.7124 0.118771 0
M  V30 4292 C 391.442 -2.39479 2.68659 0
M  V30 4293 C 391.05 -1.831 4.08874 0
M  V30 4294 C 392.794 -3.16111 2.83327 0
M  V30 4295 C 390.701 -2.8821 5.16419 0
M  V30 4296 H 389.631 -0.496629 0.56734 0
M  V30 4297 H 392.282 -0.603354 1.73297 0
M  V30 4298 H 390.664 -3.14105 2.41152 0
M  V30 4299 H 391.838 -1.14913 4.46242 0
M  V30 4300 H 390.153 -1.19085 3.99008 0
M  V30 4301 H 392.75 -3.94585 3.60842 0
M  V30 4302 H 393.093 -3.69686 1.91411 0
M  V30 4303 H 393.626 -2.48595 3.10556 0
M  V30 4304 H 390.365 -2.39504 6.10179 0
M  V30 4305 H 389.885 -3.54839 4.8358 0
M  V30 4306 H 391.564 -3.51881 5.42945 0
M  V30 4307 N 391.696 -1.35014 -0.812953 0
M  V30 4308 C 392.942 -1.2812 -1.57204 0
M  V30 4309 C 393.275 0.145869 -1.93651 0
M  V30 4310 O 392.55 1.0937 -1.60836 0
M  V30 4311 C 392.833 -2.18162 -2.86492 0
M  V30 4312 C 392.686 -3.69454 -2.56561 0
M  V30 4313 C 394.005 -2.07439 -3.88145 0
M  V30 4314 H 391.124 -0.466746 -0.570366 0
M  V30 4315 H 393.766 -1.65357 -0.935783 0
M  V30 4316 H 391.916 -1.86535 -3.40789 0
M  V30 4317 H 393.588 -4.11493 -2.08497 0
M  V30 4318 H 391.831 -3.9005 -1.89851 0
M  V30 4319 H 392.502 -4.27835 -3.48799 0
M  V30 4320 H 394.978 -2.35228 -3.4323 0
M  V30 4321 H 393.854 -2.7265 -4.76396 0
M  V30 4322 H 394.115 -1.05439 -4.29343 0
M  V30 4323 N 393.175 1.03435 -1.18907 0
M  V30 4324 C 394.105 2.13503 -0.945448 0
M  V30 4325 C 395.086 1.69682 0.119189 0
M  V30 4326 O 396.271 1.94169 -0.034707 0
M  V30 4327 C 393.401 3.44004 -0.477316 0
M  V30 4328 C 392.355 4.0148 -1.48316 0
M  V30 4329 C 391.681 5.27537 -0.872311 0
M  V30 4330 C 392.981 4.36921 -2.86177 0
M  V30 4331 H 394.675 2.34141 -1.86597 0
M  V30 4332 H 392.221 1.12523 -0.898584 0
M  V30 4333 H 394.174 4.20372 -0.294204 0
M  V30 4334 H 392.898 3.23072 0.478786 0
M  V30 4335 H 391.557 3.27201 -1.65332 0
M  V30 4336 H 391.205 5.02917 0.0911752 0
M  V30 4337 H 390.905 5.66954 -1.54393 0
M  V30 4338 H 392.429 6.06576 -0.699871 0
M  V30 4339 H 393.843 5.04248 -2.72776 0
M  V30 4340 H 392.24 4.87405 -3.50081 0
M  V30 4341 H 393.31 3.46466 -3.39248 0
M  V30 4342 N 394.653 0.992116 1.22453 0
M  V30 4343 C 395.601 0.534644 2.26372 0
M  V30 4344 C 396.595 -0.414293 1.64256 0
M  V30 4345 O 397.801 -0.286899 1.77699 0
M  V30 4346 H 394.176 0.154502 0.735957 0
M  V30 4347 H 396.147 1.42256 2.62309 0
M  V30 4348 C 394.896 -0.135815 3.47435 0
M  V30 4349 H 394.219 0.585311 3.95492 0
M  V30 4350 H 395.659 -0.419374 4.21921 0
M  V30 4351 C 394.118 -1.37089 3.07747 0
M  V30 4352 O 394.648 -2.46629 3.17076 0
M  V30 4353 N 392.854 -1.24585 2.62539 0
M  V30 4354 H 392.401 -0.354542 2.55149 0
M  V30 4355 H 392.359 -2.07327 2.36353 0
M  V30 4356 N 396.131 -1.37776 0.765217 0
M  V30 4357 C 397.378 -1.99849 0.326588 0
M  V30 4358 C 397.706 -1.60746 -1.09504 0
M  V30 4359 O 396.961 -0.84202 -1.76659 0
M  V30 4360 C 397.26 -3.5504 0.410053 0
M  V30 4361 C 396.926 -4.13891 1.78899 0
M  V30 4362 C 395.588 -4.29678 2.16635 0
M  V30 4363 C 397.94 -4.46236 2.69301 0
M  V30 4364 C 395.268 -4.7511 3.44221 0
M  V30 4365 C 397.62 -4.93089 3.9629 0
M  V30 4366 C 396.284 -5.07082 4.34078 0
M  V30 4367 H 395.554 -0.7313 0.119507 0
M  V30 4368 H 398.201 -1.64645 0.977968 0
M  V30 4369 H 396.506 -3.90451 -0.324878 0
M  V30 4370 H 398.203 -4.00966 0.0520699 0
M  V30 4371 H 394.793 -4.02026 1.48569 0
M  V30 4372 H 398.977 -4.3363 2.41409 0
M  V30 4373 H 394.233 -4.84129 3.73402 0
M  V30 4374 H 398.407 -5.17084 4.66472 0
M  V30 4375 H 396.034 -5.42046 5.33001 0
M  V30 4376 N 397.609 -0.515225 -1.4894 0
M  V30 4377 C 398.559 0.275113 -2.26334 0
M  V30 4378 C 399.543 0.923007 -1.31793 0
M  V30 4379 O 400.735 0.828254 -1.56426 0
M  V30 4380 C 397.864 1.33041 -3.16473 0
M  V30 4381 C 396.95 0.688051 -4.18481 0
M  V30 4382 N 397.341 -0.217638 -5.05332 0
M  V30 4383 C 395.639 0.94699 -4.3583 0
M  V30 4384 C 396.34 -0.58676 -5.78733 0
M  V30 4385 N 395.316 0.0486966 -5.43578 0
M  V30 4386 H 399.118 -0.421876 -2.90856 0
M  V30 4387 H 396.632 -0.332249 -1.58965 0
M  V30 4388 H 398.629 1.9102 -3.70563 0
M  V30 4389 H 397.289 2.02894 -2.53504 0
M  V30 4390 H 398.3 -0.589343 -5.14536 0
M  V30 4391 H 394.977 1.63719 -3.8406 0
M  V30 4392 H 396.367 -1.32855 -6.58634 0
M  V30 4393 N 399.087 1.5561 -0.249682 0
M  V30 4394 C 400.315 2.03411 0.378352 0
M  V30 4395 C 400.73 1.12886 1.51335 0
M  V30 4396 O 400.087 0.143833 1.81932 0
M  V30 4397 C 400.138 3.50537 0.88351 0
M  V30 4398 O 399.859 4.37614 -0.20626 0
M  V30 4399 C 401.36 4.14113 1.58195 0
M  V30 4400 H 398.58 0.664994 0.08958 0
M  V30 4401 H 401.124 2.01044 -0.374357 0
M  V30 4402 H 399.279 3.5343 1.58639 0
M  V30 4403 H 399.693 5.24199 0.177782 0
M  V30 4404 H 401.167 5.18741 1.8871 0
M  V30 4405 H 401.644 3.60767 2.50487 0
M  V30 4406 H 402.25 4.15151 0.923573 0
M  V30 4407 N 400.565 -0.0233959 1.57583 0
M  V30 4408 C 401.793 -0.724682 1.93794 0
M  V30 4409 C 402.208 -1.68588 0.849912 0
M  V30 4410 O 401.565 -1.81676 -0.173204 0
M  V30 4411 C 401.616 -1.47684 3.29957 0
M  V30 4412 O 401.337 -0.554222 4.3458 0
M  V30 4413 C 402.838 -2.27477 3.80485 0
M  V30 4414 H 400.058 -0.203317 0.639455 0
M  V30 4415 H 402.602 0.0207653 2.04489 0
M  V30 4416 H 400.757 -2.17412 3.20641 0
M  V30 4417 H 401.171 -1.08232 5.13212 0
M  V30 4418 H 402.645 -2.7564 4.78254 0
M  V30 4419 H 403.122 -3.09144 3.11972 0
M  V30 4420 H 403.728 -1.62813 3.92902 0
M  V30 4421 N 402.043 -1.548 -0.295768 0
M  V30 4422 C 403.29 -1.74329 -1.03032 0
M  V30 4423 C 403.618 -0.531915 -1.87085 0
M  V30 4424 O 402.873 0.486052 -1.89568 0
M  V30 4425 C 403.172 -2.98797 -1.961 0
M  V30 4426 C 402.838 -4.32356 -1.2798 0
M  V30 4427 C 401.5 -4.68661 -1.09135 0
M  V30 4428 C 403.852 -5.15128 -0.793243 0
M  V30 4429 C 401.18 -5.85312 -0.403269 0
M  V30 4430 C 403.532 -6.32488 -0.118854 0
M  V30 4431 C 402.196 -6.6745 0.0815043 0
M  V30 4432 H 401.466 -0.637916 -0.37702 0
M  V30 4433 H 404.113 -1.8906 -0.304696 0
M  V30 4434 H 402.418 -2.78869 -2.75207 0
M  V30 4435 H 404.115 -3.11102 -2.53015 0
M  V30 4436 H 400.705 -4.03808 -1.43655 0
M  V30 4437 H 404.889 -4.87575 -0.92653 0
M  V30 4438 H 400.145 -6.1094 -0.237098 0
M  V30 4439 H 404.319 -6.95892 0.266035 0
M  V30 4440 H 401.946 -7.57695 0.616685 0
M  V30 4441 N 403.521 0.559213 -1.47345 0
M  V30 4442 C 404.767 1.31843 -1.54095 0
M  V30 4443 C 405.1 1.93149 -0.201726 0
M  V30 4444 O 404.375 1.77759 0.789428 0
M  V30 4445 C 404.658 2.43006 -2.65744 0
M  V30 4446 C 404.511 1.86581 -4.09277 0
M  V30 4447 C 405.83 3.44943 -2.73318 0
M  V30 4448 H 402.949 0.478012 -0.560957 0
M  V30 4449 H 405.591 0.625977 -1.79392 0
M  V30 4450 H 403.741 3.02072 -2.44305 0
M  V30 4451 H 405.413 1.31792 -4.42073 0
M  V30 4452 H 403.656 1.17268 -4.17649 0
M  V30 4453 H 404.327 2.66933 -4.83168 0
M  V30 4454 H 406.803 2.95793 -2.92653 0
M  V30 4455 H 405.679 4.20153 -3.53218 0
M  V30 4456 H 405.94 4.03665 -1.80296 0
M  V30 4457 N 404.999 1.35443 0.805782 0
M  V30 4458 C 406.247 1.28507 1.55982 0
M  V30 4459 C 406.568 -0.140046 1.94496 0
M  V30 4460 O 405.838 -1.07666 1.63661 0
M  V30 4461 H 404.418 0.472676 0.578434 0
M  V30 4462 H 407.08 1.69555 0.961098 0
M  V30 4463 H 406.176 1.90148 2.47488 0
M  V30 4464 N 406.477 -1.02803 1.19454 0
M  V30 4465 C 407.888 -1.57667 0.999899 0
M  V30 4466 C 408.239 -1.91041 -0.446956 0
M  V30 4467 O 407.364 -1.70978 -1.32648 0
M  V30 4468 C 407.959 -2.86477 1.80877 0
M  V30 4469 C 406.518 -3.37911 1.65811 0
M  V30 4470 C 405.665 -2.11343 1.79526 0
M  V30 4471 H 408.616 -0.853214 1.33813 0
M  V30 4472 H 408.637 -3.57408 1.30536 0
M  V30 4473 H 408.149 -2.62155 2.86175 0
M  V30 4474 H 406.25 -3.67218 0.63102 0
M  V30 4475 H 406.363 -4.10885 2.46395 0
M  V30 4476 H 404.727 -2.23254 1.22596 0
M  V30 4477 H 405.51 -1.89461 2.86285 0
M  V30 4478 N 407.956 -0.998596 -1.21925 0
M  V30 4479 C 408.919 -0.558679 -2.22287 0
M  V30 4480 C 409.919 0.361525 -1.56683 0
M  V30 4481 O 411.109 0.152695 -1.73529 0
M  V30 4482 C 408.241 0.18661 -3.40389 0
M  V30 4483 H 409.434 -1.4463 -2.62721 0
M  V30 4484 H 406.987 -0.786413 -1.35075 0
M  V30 4485 H 407.722 1.08996 -3.05435 0
M  V30 4486 H 407.507 -0.474188 -3.89222 0
M  V30 4487 H 408.997 0.482367 -4.14805 0
M  V30 4488 N 409.434 1.37368 -0.772513 0
M  V30 4489 C 410.682 1.99279 -0.336516 0
M  V30 4490 C 411.003 1.6163 1.09091 0
M  V30 4491 O 410.273 0.882109 1.74916 0
M  V30 4492 H 408.853 0.737063 -0.121435 0
M  V30 4493 H 411.515 1.67836 -0.990809 0
M  V30 4494 H 410.611 3.09332 -0.414763 0
M  V30 4495 N 410.912 0.523116 1.48665 0
M  V30 4496 C 411.822 -0.247406 2.33292 0
M  V30 4497 C 412.838 -0.945769 1.46052 0
M  V30 4498 O 414.014 -0.922253 1.79043 0
M  V30 4499 C 411.079 -1.28487 3.22012 0
M  V30 4500 C 410.14 -0.597592 4.2512 0
M  V30 4501 C 409.373 -1.58563 5.09601 0
M  V30 4502 O 409.596 -2.81763 4.95949 0
M  V30 4503 O 408.53 -1.12879 5.91221 0
M  V30 4504 H 412.356 0.445869 3.00409 0
M  V30 4505 H 409.941 0.284128 1.46673 0
M  V30 4506 H 411.823 -1.88459 3.7691 0
M  V30 4507 H 410.498 -1.96068 2.57564 0
M  V30 4508 H 409.405 0.0424407 3.74076 0
M  V30 4509 H 410.738 0.0361517 4.92187 0
M  V30 4510 N 412.39 -1.55475 0.257931 0
M  V30 4511 C 413.636 -1.99502 -0.364266 0
M  V30 4512 C 413.969 -1.146 -1.56782 0
M  V30 4513 O 413.244 -0.211968 -1.93342 0
M  V30 4514 C 413.527 -3.51917 -0.763333 0
M  V30 4515 C 413.38 -4.4758 0.446371 0
M  V30 4516 C 414.699 -4.09742 -1.60623 0
M  V30 4517 H 411.818 -0.725277 -0.130929 0
M  V30 4518 H 414.46 -1.8653 0.361446 0
M  V30 4519 H 412.61 -3.63101 -1.38166 0
M  V30 4520 H 414.282 -4.48362 1.08487 0
M  V30 4521 H 412.525 -4.19947 1.08753 0
M  V30 4522 H 413.196 -5.51862 0.123645 0
M  V30 4523 H 415.672 -4.01727 -1.08418 0
M  V30 4524 H 414.548 -5.16631 -1.85429 0
M  V30 4525 H 414.809 -3.58889 -2.58169 0
M  V30 4526 N 413.868 0.0150385 -1.57593 0
M  V30 4527 C 415.117 0.702115 -1.89085 0
M  V30 4528 C 415.43 1.75764 -0.858277 0
M  V30 4529 O 416.636 2.49829 -1.0629 0
M  V30 4530 C 415.092 1.29992 -3.35604 0
M  V30 4531 C 414.7 0.280007 -4.47124 0
M  V30 4532 C 416.444 1.96606 -3.76227 0
M  V30 4533 C 414.351 0.886949 -5.84711 0
M  V30 4534 H 413.281 0.265997 -0.705522 0
M  V30 4535 H 415.932 -0.0430408 -1.8345 0
M  V30 4536 H 414.314 2.09525 -3.36029 0
M  V30 4537 H 415.488 -0.489631 -4.58191 0
M  V30 4538 H 413.803 -0.284835 -4.15425 0
M  V30 4539 H 416.4 2.42893 -4.76347 0
M  V30 4540 H 416.743 2.79024 -3.08952 0
M  V30 4541 H 417.276 1.23828 -3.78036 0
M  V30 4542 H 414.015 0.101876 -6.55421 0
M  V30 4543 H 413.535 1.6261 -5.77337 0
M  V30 4544 H 415.214 1.39011 -6.3189 0
M  V30 4545 N 415.346 1.54954 0.287554 0
M  V30 4546 C 416.571 1.79209 1.04397 0
M  V30 4547 C 416.996 0.556431 1.79682 0
M  V30 4548 O 416.354 -0.493518 1.74454 0
M  V30 4549 C 416.402 3.00739 1.98969 0
M  V30 4550 O 415.506 2.74805 3.075 0
M  V30 4551 H 414.847 0.592755 0.299227 0
M  V30 4552 H 417.377 2.02068 0.320886 0
M  V30 4553 H 417.387 3.29077 2.4119 0
M  V30 4554 H 416.062 3.90329 1.43582 0
M  V30 4555 H 414.639 2.57523 2.69697 0
M  V30 4556 N 416.824 -0.551391 1.4764 0
M  V30 4557 C 418.101 -1.31229 1.45046 0
M  V30 4558 C 418.481 -2.10563 0.150527 0
M  V30 4559 O 417.829 -2.11374 -0.867956 0
M  V30 4560 C 418.039 -2.21189 2.69956 0
M  V30 4561 C 419.387 -2.82021 3.1741 0
M  V30 4562 O 420.411 -2.31488 2.70724 0
M  V30 4563 O 419.27 -3.73885 3.98588 0
M  V30 4564 H 416.364 -0.591193 0.578291 0
M  V30 4565 H 418.91 -0.569813 1.59847 0
M  V30 4566 H 417.682 -1.62207 3.56096 0
M  V30 4567 H 417.305 -3.02722 2.57769 0
M  V30 4568 N 418.302 -1.35869 -0.798587 0
M  V30 4569 C 419.713 -1.26498 -1.37314 0
M  V30 4570 C 420.064 0.0991899 -1.95949 0
M  V30 4571 O 419.189 1.0004 -1.91888 0
M  V30 4572 C 419.784 -2.29054 -2.49639 0
M  V30 4573 C 418.343 -2.234 -3.02935 0
M  V30 4574 C 417.49 -2.14329 -1.75949 0
M  V30 4575 H 420.441 -1.46881 -0.600971 0
M  V30 4576 H 420.462 -1.92166 -3.28409 0
M  V30 4577 H 419.974 -3.2833 -2.06933 0
M  V30 4578 H 418.075 -1.27562 -3.50084 0
M  V30 4579 H 418.188 -3.15703 -3.60372 0
M  V30 4580 H 416.552 -1.60435 -1.9782 0
M  V30 4581 H 417.335 -3.15477 -1.35384 0
M  V30 4582 N 419.78 1.02168 -1.19998 0
M  V30 4583 C 420.727 2.10601 -0.944228 0
M  V30 4584 C 421.697 1.65639 0.123664 0
M  V30 4585 O 422.882 1.9079 -0.0199941 0
M  V30 4586 C 420.022 3.41504 -0.496865 0
M  V30 4587 C 419.135 3.99973 -1.63234 0
M  V30 4588 C 418.27 5.18915 -1.13579 0
M  V30 4589 C 417.309 5.69456 -2.24468 0
M  V30 4590 N 416.446 6.79665 -1.76068 0
M  V30 4591 H 421.286 2.31814 -1.8726 0
M  V30 4592 H 418.823 1.13686 -0.933483 0
M  V30 4593 H 420.781 4.16626 -0.218843 0
M  V30 4594 H 419.411 3.2038 0.394508 0
M  V30 4595 H 418.463 3.21997 -2.0254 0
M  V30 4596 H 419.775 4.33492 -2.46752 0
M  V30 4597 H 418.929 6.01222 -0.813429 0
M  V30 4598 H 417.668 4.8695 -0.270434 0
M  V30 4599 H 416.673 4.85757 -2.57526 0
M  V30 4600 H 417.898 6.03459 -3.11472 0
M  V30 4601 H 415.844 6.49538 -0.918516 0
M  V30 4602 H 415.761 7.12349 -2.5317 0
M  V30 4603 H 417.029 7.65549 -1.46817 0
M  V30 4604 N 421.258 1.00505 1.21394 0
M  V30 4605 C 422.188 0.585684 2.26035 0
M  V30 4606 C 423.169 -0.393525 1.65485 0
M  V30 4607 O 424.354 -0.281497 1.92149 0
M  V30 4608 C 421.484 -0.0884283 3.47187 0
M  V30 4609 C 420.438 0.810567 4.20254 0
M  V30 4610 C 419.764 0.00286382 5.347 0
M  V30 4611 C 421.064 2.1132 4.77641 0
M  V30 4612 H 422.758 1.46039 2.61368 0
M  V30 4613 H 420.304 0.703648 1.25638 0
M  V30 4614 H 422.257 -0.393286 4.19561 0
M  V30 4615 H 420.981 -0.997766 3.10986 0
M  V30 4616 H 419.64 1.09925 3.49731 0
M  V30 4617 H 419.288 -0.907765 4.94741 0
M  V30 4618 H 418.988 0.601444 5.84514 0
M  V30 4619 H 420.512 -0.295808 6.09883 0
M  V30 4620 H 421.926 1.87148 5.41893 0
M  V30 4621 H 420.323 2.66164 5.37845 0
M  V30 4622 H 421.393 2.78393 3.9702 0
M  V30 4623 N 422.737 -1.36956 0.779787 0
M  V30 4624 C 423.986 -1.98738 0.344405 0
M  V30 4625 C 424.299 -1.62596 -1.08728 0
M  V30 4626 O 425.505 -2.1754 -1.62445 0
M  V30 4627 C 423.961 -3.5544 0.564829 0
M  V30 4628 C 423.569 -4.00514 2.0073 0
M  V30 4629 C 425.313 -4.24059 0.193471 0
M  V30 4630 C 423.22 -5.49957 2.17489 0
M  V30 4631 H 422.15 -0.743561 0.12503 0
M  V30 4632 H 424.801 -1.56381 0.960057 0
M  V30 4633 H 423.183 -3.95817 -0.120397 0
M  V30 4634 H 424.357 -3.71362 2.72814 0
M  V30 4635 H 422.672 -3.44703 2.336 0
M  V30 4636 H 425.269 -5.33874 0.297097 0
M  V30 4637 H 425.612 -4.07378 -0.857263 0
M  V30 4638 H 426.145 -3.89012 0.831556 0
M  V30 4639 H 422.884 -5.71574 3.2091 0
M  V30 4640 H 422.404 -5.80767 1.49899 0
M  V30 4641 H 424.083 -6.16043 1.97738 0
M  V30 4642 N 424.215 -0.530993 -1.48385 0
M  V30 4643 C 425.631 -0.188919 -1.58478 0
M  V30 4644 C 425.831 1.30786 -1.53288 0
M  V30 4645 O 424.887 2.08619 -1.42248 0
M  V30 4646 C 426.2 -0.792343 -2.90073 0
M  V30 4647 C 427.748 -0.76117 -3.03604 0
M  V30 4648 C 428.223 -1.34319 -4.37861 0
M  V30 4649 N 429.714 -1.3052 -4.44431 0
M  V30 4650 C 430.449 -1.72543 -5.46824 0
M  V30 4651 N 429.945 -2.22299 -6.56167 0
M  V30 4652 N 431.738 -1.63773 -5.37712 0
M  V30 4653 H 423.889 -1.50377 -1.50002 0
M  V30 4654 H 426.152 -0.625559 -0.712306 0
M  V30 4655 H 425.858 -1.84323 -2.99529 0
M  V30 4656 H 425.732 -0.270026 -3.76232 0
M  V30 4657 H 428.119 0.280957 -2.93759 0
M  V30 4658 H 428.2 -1.32097 -2.19053 0
M  V30 4659 H 427.844 -2.38425 -4.4846 0
M  V30 4660 H 427.774 -0.759064 -5.21101 0
M  V30 4661 H 430.265 -0.940973 -3.65997 0
M  V30 4662 H 430.578 -2.52356 -7.30436 0
M  V30 4663 H 428.923 -2.26293 -6.57127 0
M  V30 4664 H 432.114 -1.24698 -4.51185 0
M  V30 4665 H 432.287 -1.96844 -6.17379 0
M  V30 4666 N 425.693 1.55336 -0.266172 0
M  V30 4667 C 426.626 2.18256 0.666296 0
M  V30 4668 C 427.604 1.14064 1.1588 0
M  V30 4669 O 428.788 1.42546 1.23341 0
M  V30 4670 C 425.915 2.79867 1.90768 0
M  V30 4671 C 424.961 3.97283 1.55141 0
M  V30 4672 S 425.794 5.31694 0.637313 0
M  V30 4673 C 426.95 5.96769 1.88727 0
M  V30 4674 H 427.183 2.97008 0.131647 0
M  V30 4675 H 424.716 1.54317 -0.0504869 0
M  V30 4676 H 426.674 3.15996 2.62025 0
M  V30 4677 H 425.335 2.01025 2.41346 0
M  V30 4678 H 424.528 4.3905 2.4749 0
M  V30 4679 H 424.13 3.6253 0.919113 0
M  V30 4680 H 426.422 6.15458 2.83227 0
M  V30 4681 H 427.365 6.91752 1.51276 0
M  V30 4682 H 427.773 5.26034 2.04814 0
M  V30 4683 N 427.171 -0.0066808 1.57599 0
M  V30 4684 C 428.119 -1.01851 2.09115 0
M  V30 4685 C 429.113 -1.36021 1.00969 0
M  V30 4686 O 430.319 -1.34663 1.19439 0
M  V30 4687 H 426.694 -0.346083 0.667631 0
M  V30 4688 H 428.665 -0.558394 2.93129 0
M  V30 4689 C 427.414 -2.30374 2.60429 0
M  V30 4690 H 426.737 -2.04947 3.43273 0
M  V30 4691 H 428.177 -2.99466 3.00161 0
M  V30 4692 C 426.636 -3.00893 1.51542 0
M  V30 4693 O 427.166 -3.91614 0.894484 0
M  V30 4694 N 425.372 -2.62603 1.2445 0
M  V30 4695 H 424.919 -1.88911 1.75129 0
M  V30 4696 H 424.877 -3.10101 0.518137 0
M  V30 4697 N 428.649 -1.55105 -0.279332 0
M  V30 4698 C 429.879 -1.7917 -1.02867 0
M  V30 4699 C 430.287 -0.56204 -1.80659 0
M  V30 4700 O 429.63 0.478266 -1.77365 0
M  V30 4701 C 429.692 -2.96061 -2.03932 0
M  V30 4702 C 429.356 -4.33341 -1.45137 0
M  V30 4703 C 430.353 -5.12565 -0.870266 0
M  V30 4704 C 428.038 -4.79987 -1.48048 0
M  V30 4705 C 430.032 -6.36565 -0.326097 0
M  V30 4706 C 427.719 -6.03944 -0.932443 0
M  V30 4707 C 428.717 -6.8207 -0.356247 0
M  V30 4708 O 428.405 -8.03691 0.183412 0
M  V30 4709 H 428.137 -0.600796 -0.309872 0
M  V30 4710 H 430.691 -2.02932 -0.317468 0
M  V30 4711 H 428.921 -2.67975 -2.78794 0
M  V30 4712 H 430.61 -3.07506 -2.64943 0
M  V30 4713 H 431.376 -4.77661 -0.840521 0
M  V30 4714 H 427.255 -4.1919 -1.91835 0
M  V30 4715 H 430.799 -6.97489 0.124286 0
M  V30 4716 H 426.696 -6.3833 -0.959407 0
M  V30 4717 H 427.464 -8.18468 0.0721681 0
M  V30 4718 N 430.127 0.543554 -1.4793 0
M  V30 4719 C 431.057 1.65888 -1.64327 0
M  V30 4720 C 432.038 1.62818 -0.492383 0
M  V30 4721 O 433.223 1.80226 -0.723338 0
M  V30 4722 C 430.353 3.04506 -1.67013 0
M  V30 4723 C 429.307 3.2243 -2.81466 0
M  V30 4724 C 428.633 4.61972 -2.69233 0
M  V30 4725 C 429.933 3.06496 -4.22915 0
M  V30 4726 H 431.627 1.52421 -2.57698 0
M  V30 4727 H 429.173 0.731849 -1.24016 0
M  V30 4728 H 431.126 3.82391 -1.77074 0
M  V30 4729 H 429.85 3.18964 -0.70212 0
M  V30 4730 H 428.509 2.46957 -2.70938 0
M  V30 4731 H 428.157 4.73247 -1.7043 0
M  V30 4732 H 427.857 4.74911 -3.46025 0
M  V30 4733 H 429.381 5.41974 -2.81242 0
M  V30 4734 H 430.795 3.74186 -4.34348 0
M  V30 4735 H 429.192 3.30938 -5.006 0
M  V30 4736 H 430.262 2.03077 -4.40327 0
M  V30 4737 N 431.605 1.3629 0.791371 0
M  V30 4738 C 432.552 1.30458 1.90393 0
M  V30 4739 C 433.522 0.173632 1.6519 0
M  V30 4740 O 434.707 0.35983 1.87376 0
M  V30 4741 C 431.847 1.09777 3.27174 0
M  V30 4742 C 430.96 2.31929 3.64462 0
M  V30 4743 C 430.095 2.04276 4.90352 0
M  V30 4744 C 429.134 3.224 5.20312 0
M  V30 4745 N 428.271 2.94424 6.37385 0
M  V30 4746 H 433.111 2.25589 1.94714 0
M  V30 4747 H 430.648 1.12122 0.952216 0
M  V30 4748 H 432.606 0.958133 4.06049 0
M  V30 4749 H 431.236 0.183014 3.22281 0
M  V30 4750 H 430.288 2.56703 2.80727 0
M  V30 4751 H 431.6 3.20085 3.82553 0
M  V30 4752 H 430.754 1.87231 5.77087 0
M  V30 4753 H 429.493 1.13428 4.74326 0
M  V30 4754 H 428.498 3.40005 4.32061 0
M  V30 4755 H 429.723 4.14071 5.38258 0
M  V30 4756 H 427.669 2.06185 6.22755 0
M  V30 4757 H 427.586 3.76118 6.55798 0
M  V30 4758 H 428.854 2.80953 7.27108 0
M  V30 4759 N 433.083 -1.0153 1.20538 0
M  V30 4760 C 434.311 -1.78746 1.04199 0
M  V30 4761 C 434.726 -1.84323 -0.408733 0
M  V30 4762 O 434.083 -1.29714 -1.28377 0
M  V30 4763 C 434.134 -3.23152 1.62035 0
M  V30 4764 O 433.855 -3.17918 3.0143 0
M  V30 4765 C 435.356 -4.16911 1.50666 0
M  V30 4766 H 432.576 -0.56208 0.366479 0
M  V30 4767 H 435.12 -1.27794 1.59653 0
M  V30 4768 H 433.275 -3.71248 1.10697 0
M  V30 4769 H 433.689 -4.08567 3.28897 0
M  V30 4770 H 435.163 -5.16072 1.95892 0
M  V30 4771 H 435.64 -4.36791 0.459363 0
M  V30 4772 H 436.246 -3.74698 2.01201 0
M  V30 4773 N 434.561 -1.01147 -1.20859 0
M  V30 4774 C 435.807 -0.708598 -1.90658 0
M  V30 4775 C 436.162 0.753069 -1.7705 0
M  V30 4776 O 435.455 1.53952 -1.14059 0
M  V30 4777 C 435.649 -1.0727 -3.40922 0
M  V30 4778 C 435.478 -2.56821 -3.69152 0
M  V30 4779 C 434.248 -3.23524 -3.8815 0
M  V30 4780 C 436.446 -3.54997 -3.72131 0
M  V30 4781 N 434.428 -4.62359 -4.03853 0
M  V30 4782 C 435.799 -4.79371 -3.93196 0
M  V30 4783 C 437.854 -3.49042 -3.55069 0
M  V30 4784 C 436.557 -5.98512 -3.98969 0
M  V30 4785 C 438.583 -4.67579 -3.6211 0
M  V30 4786 C 437.945 -5.9076 -3.83643 0
M  V30 4787 H 434.044 -0.31088 -0.71755 0
M  V30 4788 H 436.628 -1.29526 -1.45366 0
M  V30 4789 H 434.799 -0.51443 -3.84978 0
M  V30 4790 H 436.531 -0.723891 -3.98173 0
M  V30 4791 H 433.286 -2.73958 -3.86321 0
M  V30 4792 H 433.71 -5.34427 -4.15592 0
M  V30 4793 H 438.352 -2.54808 -3.37391 0
M  V30 4794 H 436.07 -6.93132 -4.15444 0
M  V30 4795 H 439.656 -4.64581 -3.50222 0
M  V30 4796 H 438.536 -6.8095 -3.88944 0
M  V30 4797 N 436.039 1.36541 -0.78704 0
M  V30 4798 C 437.286 1.99304 -0.358341 0
M  V30 4799 C 437.614 1.62467 1.06933 0
M  V30 4800 O 436.869 0.870019 1.75297 0
M  V30 4801 C 437.168 3.54343 -0.466485 0
M  V30 4802 C 436.834 4.10993 -1.85461 0
M  V30 4803 C 435.496 4.26177 -2.23443 0
M  V30 4804 C 437.848 4.41895 -2.76366 0
M  V30 4805 C 435.176 4.69573 -3.51736 0
M  V30 4806 C 437.528 4.86722 -4.04084 0
M  V30 4807 C 436.192 5.00112 -4.42091 0
M  V30 4808 H 435.462 0.729306 -0.131126 0
M  V30 4809 H 438.109 1.63068 -1.00404 0
M  V30 4810 H 436.414 3.90918 0.262719 0
M  V30 4811 H 438.111 4.00833 -0.115854 0
M  V30 4812 H 434.701 3.99612 -1.54946 0
M  V30 4813 H 438.885 4.29735 -2.48277 0
M  V30 4814 H 434.141 4.78127 -3.81057 0
M  V30 4815 H 438.315 5.09598 -4.7464 0
M  V30 4816 H 435.942 5.33498 -5.41557 0
M  V30 4817 N 437.518 0.538854 1.48102 0
M  V30 4818 C 438.764 0.00801365 2.02798 0
M  V30 4819 C 439.097 -1.3309 1.41424 0
M  V30 4820 O 438.372 -1.86169 0.563158 0
M  V30 4821 C 438.655 -0.104589 3.59948 0
M  V30 4822 C 438.508 1.26012 4.31788 0
M  V30 4823 C 439.827 -0.827055 4.32259 0
M  V30 4824 H 436.946 0.00438624 0.736987 0
M  V30 4825 H 439.588 0.6976 1.7673 0
M  V30 4826 H 437.738 -0.691893 3.82289 0
M  V30 4827 H 439.41 1.88922 4.2084 0
M  V30 4828 H 437.653 1.83968 3.92859 0
M  V30 4829 H 438.324 1.13424 5.40221 0
M  V30 4830 H 440.8 -0.328578 4.14801 0
M  V30 4831 H 439.676 -0.87476 5.41885 0
M  V30 4832 H 439.937 -1.87927 4.0017 0
M  V30 4833 N 438.996 -1.55193 0.274407 0
M  V30 4834 C 440.245 -1.98758 -0.343213 0
M  V30 4835 C 440.558 -1.16624 -1.5703 0
M  V30 4836 O 441.764 -1.5033 -2.26082 0
M  V30 4837 C 440.22 -3.53759 -0.661996 0
M  V30 4838 C 439.828 -4.4467 0.54524 0
M  V30 4839 C 441.572 -4.05916 -1.24228 0
M  V30 4840 C 439.479 -5.91058 0.201084 0
M  V30 4841 H 438.409 -0.742353 -0.132014 0
M  V30 4842 H 441.06 -1.79545 0.378948 0
M  V30 4843 H 439.442 -3.68772 -1.44304 0
M  V30 4844 H 440.616 -4.41426 1.32212 0
M  V30 4845 H 438.931 -4.03143 1.04232 0
M  V30 4846 H 441.528 -5.12831 -1.51357 0
M  V30 4847 H 441.871 -3.54908 -2.17592 0
M  V30 4848 H 442.404 -3.9434 -0.523542 0
M  V30 4849 H 439.143 -6.46161 1.10258 0
M  V30 4850 H 438.663 -5.97373 -0.539045 0
M  V30 4851 H 440.342 -6.46669 -0.206954 0
M  V30 4852 N 440.474 -0.00167713 -1.576 0
M  V30 4853 C 441.751 0.719951 -1.81868 0
M  V30 4854 C 442.131 1.91895 -0.879747 0
M  V30 4855 O 441.479 2.28389 0.0711423 0
M  V30 4856 C 441.689 1.12409 -3.30402 0
M  V30 4857 C 443.037 1.52724 -3.96182 0
M  V30 4858 O 444.061 1.21784 -3.34734 0
M  V30 4859 O 442.92 2.10265 -5.04431 0
M  V30 4860 H 440.014 0.350707 -0.748955 0
M  V30 4861 H 442.56 -0.0272597 -1.69678 0
M  V30 4862 H 441.332 0.269532 -3.90371 0
M  V30 4863 H 440.955 1.93035 -3.47596 0
M  V30 4864 N 441.952 1.55251 0.271103 0
M  V30 4865 C 442.882 1.9127 1.33933 0
M  V30 4866 C 443.863 0.77478 1.5143 0
M  V30 4867 O 445.048 1.03307 1.64442 0
M  V30 4868 C 442.178 2.18627 2.69851 0
M  V30 4869 C 441.132 3.34442 2.67081 0
M  V30 4870 C 440.458 3.47284 4.06569 0
M  V30 4871 C 441.758 4.70784 2.26185 0
M  V30 4872 H 443.452 2.80744 1.04035 0
M  V30 4873 H 440.998 1.35077 0.499017 0
M  V30 4874 H 442.951 2.42413 3.44694 0
M  V30 4875 H 441.675 1.25955 3.01335 0
M  V30 4876 H 440.334 3.10627 1.94695 0
M  V30 4877 H 439.982 2.52074 4.35279 0
M  V30 4878 H 439.682 4.25152 4.0561 0
M  V30 4879 H 441.206 3.73363 4.83148 0
M  V30 4880 H 442.62 4.94102 2.90751 0
M  V30 4881 H 441.017 5.51582 2.36384 0
M  V30 4882 H 442.087 4.69478 1.21319 0
M  V30 4883 N 443.43 -0.535701 1.48216 0
M  V30 4884 C 444.36 -1.65014 1.65204 0
M  V30 4885 C 445.341 -1.62554 0.501011 0
M  V30 4886 O 446.526 -1.7984 0.732886 0
M  V30 4887 C 443.656 -3.03616 1.68626 0
M  V30 4888 C 442.61 -3.20932 2.83172 0
M  V30 4889 C 441.936 -4.60537 2.71679 0
M  V30 4890 C 443.236 -3.04249 4.24535 0
M  V30 4891 H 444.93 -1.51053 2.58502 0
M  V30 4892 H 442.476 -0.725262 1.24402 0
M  V30 4893 H 444.429 -3.81446 1.79099 0
M  V30 4894 H 443.153 -3.18587 0.719026 0
M  V30 4895 H 441.812 -2.45517 2.72244 0
M  V30 4896 H 441.46 -4.72336 1.72937 0
M  V30 4897 H 441.16 -4.73069 3.48538 0
M  V30 4898 H 442.684 -5.40475 2.84112 0
M  V30 4899 H 444.098 -3.71877 4.36326 0
M  V30 4900 H 442.495 -3.28278 5.02348 0
M  V30 4901 H 443.565 -2.00739 4.41397 0
M  V30 4902 N 444.908 -1.36708 -0.784132 0
M  V30 4903 C 446.133 -1.34565 -1.5782 0
M  V30 4904 C 446.558 0.0695257 -1.87971 0
M  V30 4905 O 445.916 1.04302 -1.48293 0
M  V30 4906 C 445.964 -2.17952 -2.87279 0
M  V30 4907 O 445.068 -1.57563 -3.81114 0
M  V30 4908 H 444.409 -0.460337 -0.478524 0
M  V30 4909 H 446.939 -1.80064 -0.971495 0
M  V30 4910 H 446.949 -2.30721 -3.365 0
M  V30 4911 H 445.624 -3.20823 -2.64661 0
M  V30 4912 H 444.201 -1.53764 -3.39722 0
M  V30 4913 N 446.386 1.0089 -1.21074 0
M  V30 4914 C 447.626 1.76142 -1.03699 0
M  V30 4915 C 447.99 1.87292 0.422587 0
M  V30 4916 O 449.191 2.59068 0.716752 0
M  V30 4917 C 447.462 3.13805 -1.7106 0
M  V30 4918 S 449.021 4.04996 -1.68889 0
M  V30 4919 H 445.839 0.606113 -0.371683 0
M  V30 4920 H 448.441 1.20744 -1.53756 0
M  V30 4921 H 447.145 3.0332 -2.76451 0
M  V30 4922 H 446.676 3.74276 -1.21166 0
M  V30 4923 H 448.691 4.90842 -0.727211 0
M  V30 4924 N 447.864 1.01787 1.20321 0
M  V30 4925 C 448.794 0.609625 2.25401 0
M  V30 4926 C 449.775 -0.375951 1.65893 0
M  V30 4927 O 450.96 -0.261101 1.92437 0
M  V30 4928 C 448.09 -0.0515995 3.47262 0
M  V30 4929 C 447.044 0.855095 4.19371 0
M  V30 4930 C 446.37 0.0595757 5.34667 0
M  V30 4931 C 447.67 2.16374 4.75373 0
M  V30 4932 H 449.364 1.48803 2.59804 0
M  V30 4933 H 446.91 0.716934 1.24884 0
M  V30 4934 H 448.863 -0.348764 4.19954 0
M  V30 4935 H 447.587 -0.964726 3.12027 0
M  V30 4936 H 446.246 1.13628 3.48546 0
M  V30 4937 H 445.894 -0.85524 4.95676 0
M  V30 4938 H 445.594 0.663406 5.83843 0
M  V30 4939 H 447.118 -0.231105 6.10162 0
M  V30 4940 H 448.532 1.92885 5.39878 0
M  V30 4941 H 446.929 2.71853 5.34991 0
M  V30 4942 H 447.999 2.82589 3.94045 0
M  V30 4943 N 449.342 -1.36122 0.79427 0
M  V30 4944 C 450.753 -1.81646 0.431446 0
M  V30 4945 C 451.104 -1.66043 -1.04518 0
M  V30 4946 O 450.229 -1.1841 -1.8113 0
M  V30 4947 C 450.824 -3.29785 0.776341 0
M  V30 4948 C 449.383 -3.73501 0.466282 0
M  V30 4949 C 448.53 -2.58313 1.00844 0
M  V30 4950 H 451.481 -1.24274 0.986995 0
M  V30 4951 H 451.502 -3.80437 0.0692413 0
M  V30 4952 H 451.014 -3.4111 1.8511 0
M  V30 4953 H 449.115 -3.67733 -0.600245 0
M  V30 4954 H 449.228 -4.68754 0.990288 0
M  V30 4955 H 447.592 -2.5102 0.431406 0
M  V30 4956 H 448.375 -2.72421 2.08906 0
M  V30 4957 N 450.82 -0.546701 -1.47814 0
M  V30 4958 C 452.05 -0.0232519 -2.06587 0
M  V30 4959 C 452.458 1.2712 -1.40133 0
M  V30 4960 O 451.801 1.77091 -0.488305 0
M  V30 4961 C 451.863 0.254117 -3.58601 0
M  V30 4962 C 451.527 -0.949331 -4.47031 0
M  V30 4963 C 452.524 -1.85216 -4.85789 0
M  V30 4964 C 450.209 -1.16104 -4.88697 0
M  V30 4965 C 452.203 -2.95047 -5.65001 0
M  V30 4966 C 449.89 -2.26247 -5.67676 0
M  V30 4967 C 450.888 -3.1555 -6.05737 0
M  V30 4968 O 450.576 -4.23784 -6.83127 0
M  V30 4969 H 450.308 -0.0380082 -0.674931 0
M  V30 4970 H 452.862 -0.756631 -1.90956 0
M  V30 4971 H 451.092 1.04168 -3.72406 0
M  V30 4972 H 452.781 0.72167 -3.99433 0
M  V30 4973 H 453.547 -1.70061 -4.54207 0
M  V30 4974 H 449.426 -0.475159 -4.58545 0
M  V30 4975 H 452.97 -3.64778 -5.94628 0
M  V30 4976 H 448.867 -2.41379 -5.98671 0
M  V30 4977 H 449.635 -4.21701 -7.01506 0
M  V30 4978 N 452.299 1.55045 -0.282633 0
M  V30 4979 C 453.576 1.9179 0.384166 0
M  V30 4980 C 453.956 1.20778 1.73136 0
M  V30 4981 O 453.304 0.33719 2.25998 0
M  V30 4982 C 453.514 3.45149 0.517014 0
M  V30 4983 C 454.862 4.17064 0.796427 0
M  V30 4984 O 455.886 3.51084 0.601535 0
M  V30 4985 O 454.745 5.33837 1.16962 0
M  V30 4986 H 451.839 0.799483 0.211558 0
M  V30 4987 H 454.385 1.66474 -0.32934 0
M  V30 4988 H 453.157 3.88922 -0.430772 0
M  V30 4989 H 452.78 3.76443 1.2797 0
M  V30 4990 N 453.777 0.010035 1.57597 0
M  V30 4991 C 455.023 -0.673697 1.91283 0
M  V30 4992 C 455.356 -1.72863 0.884979 0
M  V30 4993 O 454.631 -1.94268 -0.0949487 0
M  V30 4994 C 454.914 -1.30766 3.35518 0
M  V30 4995 C 454.767 -0.263578 4.49027 0
M  V30 4996 C 456.086 -2.23105 3.79358 0
M  V30 4997 H 453.205 -0.243439 0.695634 0
M  V30 4998 H 455.847 0.0633864 1.89894 0
M  V30 4999 H 453.997 -1.93588 3.36832 0
M  V30 5000 H 455.669 0.365738 4.59848 0
M  V30 5001 H 453.912 0.413077 4.31829 0
M  V30 5002 H 454.583 -0.746398 5.4693 0
M  V30 5003 H 457.059 -1.70289 3.79659 0
M  V30 5004 H 455.935 -2.64424 4.81011 0
M  V30 5005 H 456.196 -3.11433 3.13787 0
M  V30 5006 N 455.255 -1.55392 -0.262866 0
M  V30 5007 C 456.504 -1.75679 -0.990943 0
M  V30 5008 C 456.817 -0.57097 -1.87081 0
M  V30 5009 O 458.023 -0.656486 -2.63444 0
M  V30 5010 C 456.479 -3.10964 -1.81188 0
M  V30 5011 C 456.087 -4.37146 -0.980188 0
M  V30 5012 C 457.831 -3.40597 -2.53365 0
M  V30 5013 C 455.738 -5.63466 -1.7961 0
M  V30 5014 H 454.668 -0.654868 -0.373716 0
M  V30 5015 H 457.319 -1.81841 -0.246203 0
M  V30 5016 H 455.701 -2.98867 -2.59797 0
M  V30 5017 H 456.875 -4.60187 -0.237558 0
M  V30 5018 H 455.19 -4.14731 -0.372497 0
M  V30 5019 H 457.787 -4.32186 -3.14833 0
M  V30 5020 H 458.13 -2.6119 -3.24169 0
M  V30 5021 H 458.663 -3.53838 -1.81779 0
M  V30 5022 H 455.402 -6.4565 -1.13209 0
M  V30 5023 H 454.922 -5.44552 -2.51443 0
M  V30 5024 H 456.601 -6.02139 -2.36723 0
M  V30 5025 N 456.733 0.527833 -1.48498 0
M  V30 5026 C 457.681 1.65313 -1.63628 0
M  V30 5027 C 458.675 1.6177 -0.502676 0
M  V30 5028 O 459.881 1.66601 -0.681469 0
M  V30 5029 H 456.256 0.547518 -0.515488 0
M  V30 5030 H 458.227 1.49696 -2.58135 0
M  V30 5031 C 456.976 3.03576 -1.6952 0
M  V30 5032 H 456.299 3.06997 -2.56111 0
M  V30 5033 H 457.739 3.81923 -1.84149 0
M  V30 5034 C 456.198 3.34089 -0.43432 0
M  V30 5035 O 456.728 3.99151 0.451852 0
M  V30 5036 N 454.934 2.88991 -0.305368 0
M  V30 5037 H 454.481 2.36222 -1.02747 0
M  V30 5038 H 454.439 3.09776 0.537249 0
M  V30 5039 N 458.211 1.37122 0.776871 0
M  V30 5040 C 459.174 1.32301 1.8716 0
M  V30 5041 C 460.174 0.228099 1.59174 0
M  V30 5042 O 461.364 0.483642 1.67352 0
M  V30 5043 C 458.496 1.054 3.24197 0
M  V30 5044 H 459.689 2.29673 1.92848 0
M  V30 5045 H 457.242 1.22077 0.97606 0
M  V30 5046 H 457.977 0.0853872 3.24188 0
M  V30 5047 H 457.762 1.84648 3.45901 0
M  V30 5048 H 459.252 1.04664 4.04271 0
M  V30 5049 N 459.689 -1.00246 1.21608 0
M  V30 5050 C 460.936 -1.74061 1.03485 0
M  V30 5051 C 461.264 -1.89658 -0.431308 0
M  V30 5052 O 460.519 -1.42976 -1.33627 0
M  V30 5053 C 460.818 -3.15448 1.68009 0
M  V30 5054 C 460.484 -3.19792 3.17874 0
M  V30 5055 C 459.146 -3.20685 3.58768 0
M  V30 5056 C 461.498 -3.16835 4.13842 0
M  V30 5057 C 458.826 -3.16309 4.94131 0
M  V30 5058 C 461.178 -3.14001 5.49169 0
M  V30 5059 C 459.842 -3.13204 5.89457 0
M  V30 5060 H 459.112 -0.636934 0.378677 0
M  V30 5061 H 461.759 -1.17473 1.51236 0
M  V30 5062 H 460.064 -3.75284 1.12557 0
M  V30 5063 H 461.761 -3.71285 1.51487 0
M  V30 5064 H 458.351 -3.19842 2.85305 0
M  V30 5065 H 462.535 -3.15303 3.83272 0
M  V30 5066 H 457.791 -3.14032 5.24589 0
M  V30 5067 H 461.965 -3.10667 6.23265 0
M  V30 5068 H 459.592 -3.09568 6.94314 0
M  V30 5069 N 461.167 -1.02423 -1.1978 0
M  V30 5070 C 462.077 -0.610919 -2.26506 0
M  V30 5071 C 463.093 0.355152 -1.70337 0
M  V30 5072 O 464.269 0.214195 -2.00258 0
M  V30 5073 C 461.334 0.0365921 -3.46681 0
M  V30 5074 C 460.395 -0.976389 -4.18049 0
M  V30 5075 C 459.628 -0.359683 -5.32487 0
M  V30 5076 O 459.851 0.838601 -5.64202 0
M  V30 5077 O 458.785 -1.08022 -5.92127 0
M  V30 5078 H 462.611 -1.49965 -2.64091 0
M  V30 5079 H 460.196 -0.794156 -1.26545 0
M  V30 5080 H 462.078 0.39786 -4.19518 0
M  V30 5081 H 460.753 0.899398 -3.10954 0
M  V30 5082 H 459.66 -1.38916 -3.47352 0
M  V30 5083 H 460.993 -1.80941 -4.57735 0
M  V30 5084 N 462.645 1.35699 -0.801477 0
M  V30 5085 C 463.593 2.3177 -0.196317 0
M  V30 5086 C 464.587 1.56388 0.651081 0
M  V30 5087 O 465.793 1.71557 0.544815 0
M  V30 5088 H 462.168 0.750669 -0.0447189 0
M  V30 5089 H 464.139 2.8036 -1.02181 0
M  V30 5090 C 462.888 3.41671 0.644702 0
M  V30 5091 H 462.211 3.998 0.0019921 0
M  V30 5092 H 463.651 4.11184 1.0346 0
M  V30 5093 C 462.11 2.84271 1.80808 0
M  V30 5094 O 462.64 2.77408 2.9053 0
M  V30 5095 N 460.846 2.41391 1.61799 0
M  V30 5096 H 460.393 2.47173 0.725493 0
M  V30 5097 H 460.351 2.03334 2.39797 0
M  V30 5098 N 464.123 0.554532 1.47522 0
M  V30 5099 C 465.369 0.0295227 2.02779 0
M  V30 5100 C 465.702 -1.31582 1.42828 0
M  V30 5101 O 464.977 -1.85561 0.582872 0
M  V30 5102 C 465.26 -0.0664057 3.60039 0
M  V30 5103 C 465.113 1.30585 4.30427 0
M  V30 5104 C 466.432 -0.781162 4.33112 0
M  V30 5105 H 463.551 0.0122027 0.736899 0
M  V30 5106 H 466.193 0.716305 1.7598 0
M  V30 5107 H 464.343 -0.651307 3.83002 0
M  V30 5108 H 466.015 1.93374 4.18813 0
M  V30 5109 H 464.258 1.88125 3.90886 0
M  V30 5110 H 464.929 1.19147 5.38988 0
M  V30 5111 H 467.405 -0.284565 4.15126 0
M  V30 5112 H 466.281 -0.817237 5.42782 0
M  V30 5113 H 466.542 -1.83672 4.0214 0
M  V30 5114 N 465.601 -1.54893 0.290851 0
M  V30 5115 C 466.878 -1.91991 -0.373989 0
M  V30 5116 C 467.258 -1.21694 -1.72493 0
M  V30 5117 O 466.606 -0.34917 -2.25816 0
M  V30 5118 C 466.816 -3.45419 -0.498703 0
M  V30 5119 C 468.164 -4.1748 -0.774298 0
M  V30 5120 O 469.188 -3.51398 -0.582908 0
M  V30 5121 O 468.047 -5.3445 -1.14129 0
M  V30 5122 H 465.141 -0.800593 -0.207315 0
M  V30 5123 H 467.687 -1.66297 0.338164 0
M  V30 5124 H 466.459 -3.88688 0.451392 0
M  V30 5125 H 466.082 -3.77117 -1.25972 0
M  V30 5126 N 467.08 -0.0183926 -1.57589 0
M  V30 5127 C 467.99 0.982943 -2.13015 0
M  V30 5128 C 469.006 1.36443 -1.07979 0
M  V30 5129 O 470.182 1.44802 -1.3998 0
M  V30 5130 C 467.247 2.25024 -2.63752 0
M  V30 5131 C 466.308 1.93018 -3.83461 0
M  V30 5132 C 465.541 3.13706 -4.31769 0
M  V30 5133 O 465.764 4.2601 -3.79305 0
M  V30 5134 O 464.698 2.96629 -5.23732 0
M  V30 5135 H 468.524 0.541709 -2.9883 0
M  V30 5136 H 466.109 0.201565 -1.48034 0
M  V30 5137 H 467.991 2.99441 -2.96502 0
M  V30 5138 H 466.666 2.68349 -1.81026 0
M  V30 5139 H 465.573 1.16019 -3.55655 0
M  V30 5140 H 466.906 1.54516 -4.67317 0
M  V30 5141 N 468.558 1.5553 0.254621 0
M  V30 5142 C 469.804 1.77262 0.985193 0
M  V30 5143 C 470.137 0.582286 1.85265 0
M  V30 5144 O 469.412 -0.419666 1.89919 0
M  V30 5145 C 469.695 3.0881 1.85225 0
M  V30 5146 C 469.548 4.38233 1.0135 0
M  V30 5147 C 470.867 3.3653 2.83612 0
M  V30 5148 H 467.986 0.644906 0.356742 0
M  V30 5149 H 470.628 1.88264 0.256236 0
M  V30 5150 H 468.778 2.99562 2.47376 0
M  V30 5151 H 470.45 4.59463 0.411269 0
M  V30 5152 H 468.693 4.32636 0.317574 0
M  V30 5153 H 469.364 5.26644 1.65379 0
M  V30 5154 H 471.84 3.45691 2.31596 0
M  V30 5155 H 470.716 4.29805 3.41407 0
M  V30 5156 H 470.977 2.57064 3.59681 0
M  V30 5157 N 470.036 -0.519951 1.48776 0
M  V30 5158 C 471.261 -1.30447 1.6124 0
M  V30 5159 C 471.686 -1.86055 0.276591 0
M  V30 5160 O 471.044 -1.64915 -0.753183 0
M  V30 5161 C 471.092 -2.42406 2.66967 0
M  V30 5162 O 470.196 -3.45728 2.24824 0
M  V30 5163 H 469.537 -0.385924 0.540332 0
M  V30 5164 H 472.067 -0.624572 1.94834 0
M  V30 5165 H 472.077 -2.88447 2.88552 0
M  V30 5166 H 470.752 -2.01294 3.63941 0
M  V30 5167 H 469.329 -3.05737 2.13494 0
M  V30 5168 N 471.514 -1.37532 -0.769588 0
M  V30 5169 C 472.477 -1.33292 -1.86456 0
M  V30 5170 C 473.477 -0.236537 -1.59051 0
M  V30 5171 O 474.667 -0.492511 -1.67093 0
M  V30 5172 C 471.799 -1.07118 -3.23633 0
M  V30 5173 H 472.992 -2.30692 -1.91628 0
M  V30 5174 H 470.545 -1.22593 -0.969572 0
M  V30 5175 H 471.28 -0.102578 -3.24138 0
M  V30 5176 H 471.065 -1.86479 -3.44917 0
M  V30 5177 H 472.555 -1.06806 -4.03711 0
M  V30 5178 N 472.992 0.995999 -1.22138 0
M  V30 5179 C 474.239 1.7351 -1.04406 0
M  V30 5180 C 474.567 1.89884 0.421244 0
M  V30 5181 O 473.822 1.43683 1.32867 0
M  V30 5182 C 474.121 3.14553 -1.6968 0
M  V30 5183 C 473.787 3.18102 -3.19565 0
M  V30 5184 C 472.449 3.18778 -3.60464 0
M  V30 5185 C 474.801 3.14636 -4.15516 0
M  V30 5186 C 472.129 3.13684 -4.95801 0
M  V30 5187 C 474.481 3.11084 -5.50826 0
M  V30 5188 C 473.145 3.10074 -5.91109 0
M  V30 5189 H 472.415 0.634916 -0.38205 0
M  V30 5190 H 475.062 1.1667 -1.51857 0
M  V30 5191 H 473.367 3.74682 -1.14546 0
M  V30 5192 H 475.064 3.70477 -1.53454 0
M  V30 5193 H 471.654 3.18324 -2.86998 0
M  V30 5194 H 475.838 3.13266 -3.84939 0
M  V30 5195 H 471.094 3.11245 -5.26247 0
M  V30 5196 H 475.268 3.07357 -6.24904 0
M  V30 5197 H 472.895 3.05882 -6.95946 0
M  V30 5198 N 474.47 1.03057 1.19235 0
M  V30 5199 C 475.403 0.557384 2.21288 0
M  V30 5200 C 476.381 -0.402675 1.57535 0
M  V30 5201 O 477.565 -0.319376 1.85775 0
M  V30 5202 C 474.692 -0.187041 3.38183 0
M  V30 5203 C 473.738 0.72471 4.20298 0
M  V30 5204 S 474.571 2.20187 4.88137 0
M  V30 5205 C 475.727 1.46801 6.08441 0
M  V30 5206 H 475.96 1.42207 2.61083 0
M  V30 5207 H 473.493 0.840651 1.29508 0
M  V30 5208 H 475.451 -0.610405 4.05936 0
M  V30 5209 H 474.112 -1.02748 2.96819 0
M  V30 5210 H 473.305 0.149911 5.03777 0
M  V30 5211 H 472.907 1.08647 3.57871 0
M  V30 5212 H 475.199 0.755522 6.73274 0
M  V30 5213 H 476.142 2.27946 6.70407 0
M  V30 5214 H 476.55 0.964762 5.56195 0
M  V30 5215 N 475.948 -1.35272 0.808662 0
M  V30 5216 C 477.196 -1.98316 0.389233 0
M  V30 5217 C 477.517 -1.64465 -1.04767 0
M  V30 5218 O 476.787 -0.928175 -1.72516 0
M  V30 5219 H 475.367 -0.733585 0.140935 0
M  V30 5220 H 478.029 -1.6515 1.03496 0
M  V30 5221 H 477.125 -3.08123 0.496631 0
M  V30 5222 N 477.426 -0.562348 -1.47226 0
M  V30 5223 C 478.703 0.0256985 -1.95583 0
M  V30 5224 C 479.083 1.48032 -1.50498 0
M  V30 5225 O 478.431 2.15973 -0.746181 0
M  V30 5226 C 478.641 -0.125129 -3.48776 0
M  V30 5227 C 479.989 0.0175728 -4.24596 0
M  V30 5228 O 481.013 -0.0529341 -3.56161 0
M  V30 5229 O 479.872 0.170145 -5.46235 0
M  V30 5230 H 476.966 0.0612565 -0.824728 0
M  V30 5231 H 479.512 -0.629233 -1.57603 0
M  V30 5232 H 478.284 -1.13715 -3.74412 0
M  V30 5233 H 477.907 0.567178 -3.93534 0
M  V30 5234 N 478.904 1.54736 -0.299062 0
M  V30 5235 C 480.315 1.8569 0.193971 0
M  V30 5236 C 480.666 1.22101 1.53577 0
M  V30 5237 O 479.791 0.51799 2.10109 0
M  V30 5238 C 480.386 3.36895 0.358733 0
M  V30 5239 C 478.945 3.67887 0.795986 0
M  V30 5240 C 478.092 2.77131 -0.096807 0
M  V30 5241 H 481.043 1.49934 -0.520134 0
M  V30 5242 H 481.064 3.61294 1.19361 0
M  V30 5243 H 480.576 3.83148 -0.617998 0
M  V30 5244 H 478.677 3.27151 1.78334 0
M  V30 5245 H 478.79 4.75114 0.616718 0
M  V30 5246 H 477.154 2.51153 0.423581 0
M  V30 5247 H 477.937 3.26204 -1.06986 0
M  V30 5248 N 480.382 0.0267497 1.57577 0
M  V30 5249 C 481.63 -0.651116 1.91324 0
M  V30 5250 C 481.951 -1.72804 0.90353 0
M  V30 5251 O 481.221 -1.95822 -0.0552946 0
M  V30 5252 H 479.801 -0.243491 0.706202 0
M  V30 5253 H 482.463 0.0739935 1.94759 0
M  V30 5254 H 481.559 -1.10536 2.9187 0
M  V30 5255 N 481.861 -1.55662 -0.24637 0
M  V30 5256 C 482.808 -1.90361 -1.30504 0
M  V30 5257 C 483.778 -0.757905 -1.47801 0
M  V30 5258 O 484.963 -1.01161 -1.61775 0
M  V30 5259 C 482.103 -2.2042 -2.65535 0
M  V30 5260 C 481.216 -3.47799 -2.56242 0
M  V30 5261 C 480.351 -3.67426 -3.8363 0
M  V30 5262 C 479.39 -4.88403 -3.68956 0
M  V30 5263 N 478.527 -5.04548 -4.88237 0
M  V30 5264 H 483.367 -2.80645 -1.00213 0
M  V30 5265 H 480.904 -1.38924 -0.483577 0
M  V30 5266 H 482.862 -2.35853 -3.44135 0
M  V30 5267 H 481.492 -1.3334 -2.93973 0
M  V30 5268 H 480.544 -3.40694 -1.69208 0
M  V30 5269 H 481.856 -4.36544 -2.4131 0
M  V30 5270 H 481.01 -3.82821 -4.70673 0
M  V30 5271 H 479.749 -2.76914 -4.01459 0
M  V30 5272 H 478.754 -4.72984 -2.80296 0
M  V30 5273 H 479.979 -5.80375 -3.52621 0
M  V30 5274 H 477.925 -4.16974 -5.06427 0
M  V30 5275 H 477.842 -5.87384 -4.75937 0
M  V30 5276 H 479.11 -5.24355 -5.76777 0
M  V30 5277 N 483.339 0.512053 -1.4905 0
M  V30 5278 C 484.588 1.26343 -1.57227 0
M  V30 5279 C 484.901 1.93876 -0.259155 0
M  V30 5280 O 486.107 2.70612 -0.219358 0
M  V30 5281 C 484.563 2.29343 -2.77362 0
M  V30 5282 C 484.171 1.67799 -4.15388 0
M  V30 5283 C 485.915 3.05378 -2.94864 0
M  V30 5284 C 483.822 2.68845 -5.2676 0
M  V30 5285 H 482.752 0.475231 -0.585382 0
M  V30 5286 H 485.403 0.53862 -1.75417 0
M  V30 5287 H 483.785 3.04938 -2.52643 0
M  V30 5288 H 484.959 0.982715 -4.50199 0
M  V30 5289 H 483.274 1.04194 -4.03153 0
M  V30 5290 H 485.871 3.80921 -3.75238 0
M  V30 5291 H 486.214 3.62327 -2.05 0
M  V30 5292 H 486.747 2.36898 -3.19569 0
M  V30 5293 H 483.486 2.16692 -6.18647 0
M  V30 5294 H 483.006 3.36647 -4.96416 0
M  V30 5295 H 484.685 3.31487 -5.5563 0
M  V30 5296 N 484.817 1.37938 0.762283 0
M  V30 5297 C 486.065 1.33404 1.51815 0
M  V30 5298 C 486.386 -0.0780975 1.94844 0
M  V30 5299 O 485.656 -1.02405 1.67003 0
M  V30 5300 H 484.236 0.490839 0.563104 0
M  V30 5301 H 486.898 1.72527 0.906669 0
M  V30 5302 H 485.994 1.97926 2.41313 0
M  V30 5303 N 486.295 -0.989507 1.22664 0
M  V30 5304 C 487.542 -1.72953 1.05325 0
M  V30 5305 C 487.87 -1.90104 -0.411168 0
M  V30 5306 O 487.125 -1.44386 -1.32103 0
M  V30 5307 C 487.424 -3.13649 1.71345 0
M  V30 5308 C 487.09 -3.16403 3.21248 0
M  V30 5309 C 485.752 -3.16862 3.62149 0
M  V30 5310 C 488.104 -3.12428 4.17179 0
M  V30 5311 C 485.432 -3.11051 4.97458 0
M  V30 5312 C 487.784 -3.08159 5.52468 0
M  V30 5313 C 486.448 -3.06935 5.92746 0
M  V30 5314 H 485.718 -0.632881 0.385412 0
M  V30 5315 H 488.365 -1.15863 1.52473 0
M  V30 5316 H 486.67 -3.74069 1.16532 0
M  V30 5317 H 488.367 -3.69658 1.55416 0
M  V30 5318 H 484.957 -3.16798 2.88682 0
M  V30 5319 H 489.141 -3.11221 3.86595 0
M  V30 5320 H 484.397 -3.0845 5.27891 0
M  V30 5321 H 488.571 -3.04039 6.26525 0
M  V30 5322 H 486.198 -3.02186 6.97558 0
M  V30 5323 N 487.773 -1.03688 -1.18687 0
M  V30 5324 C 488.736 -0.629115 -2.20397 0
M  V30 5325 C 489.736 0.311495 -1.57754 0
M  V30 5326 O 490.926 0.0974107 -1.73927 0
M  V30 5327 C 488.058 0.0782231 -3.4081 0
M  V30 5328 H 489.251 -1.52915 -2.57987 0
M  V30 5329 H 486.804 -0.828988 -1.32505 0
M  V30 5330 H 487.539 0.992233 -3.08748 0
M  V30 5331 H 487.324 -0.597776 -3.87517 0
M  V30 5332 H 488.814 0.350156 -4.16129 0
M  V30 5333 N 489.251 1.34841 -0.815825 0
M  V30 5334 C 490.528 1.92908 -0.323416 0
M  V30 5335 C 490.908 1.74479 1.18828 0
M  V30 5336 O 490.256 1.11928 1.99209 0
M  V30 5337 C 490.466 3.40957 -0.744952 0
M  V30 5338 C 491.814 4.18107 -0.739716 0
M  V30 5339 O 492.838 3.49511 -0.68708 0
M  V30 5340 O 491.697 5.40517 -0.806456 0
M  V30 5341 H 488.791 0.822436 -0.0867646 0
M  V30 5342 H 491.337 1.4386 -0.90014 0
M  V30 5343 H 490.109 3.4814 -1.78646 0
M  V30 5344 H 489.732 3.97341 -0.143535 0
M  V30 5345 N 490.729 0.570148 1.46925 0
M  V30 5346 C 491.661 -0.207909 2.28255 0
M  V30 5347 C 492.674 -0.867301 1.37774 0
M  V30 5348 O 493.863 -0.738976 1.62485 0
M  V30 5349 C 490.963 -1.31298 3.12433 0
M  V30 5350 C 490.136 -0.747915 4.30958 0
M  V30 5351 C 489.195 -1.7391 4.9663 0
M  V30 5352 O 488.221 -1.2801 5.54619 0
M  V30 5353 N 489.423 -3.07288 4.92498 0
M  V30 5354 H 492.188 0.489794 2.95671 0
M  V30 5355 H 489.749 0.407076 1.56699 0
M  V30 5356 H 491.741 -1.97507 3.53232 0
M  V30 5357 H 490.311 -1.91373 2.47175 0
M  V30 5358 H 489.531 0.0913066 3.94094 0
M  V30 5359 H 490.819 -0.349958 5.07595 0
M  V30 5360 H 490.217 -3.47213 4.46609 0
M  V30 5361 H 488.774 -3.69021 5.37277 0
M  V30 5362 N 492.207 -1.54576 0.307264 0
M  V30 5363 C 493.456 -1.99442 -0.300976 0
M  V30 5364 C 493.769 -1.19928 -1.5452 0
M  V30 5365 O 494.975 -1.55092 -2.22842 0
M  V30 5366 C 493.431 -3.55084 -0.586809 0
M  V30 5367 C 493.039 -4.43413 0.639438 0
M  V30 5368 C 494.783 -4.0846 -1.1559 0
M  V30 5369 C 492.69 -5.90499 0.326411 0
M  V30 5370 H 491.62 -0.744986 -0.116238 0
M  V30 5371 H 494.271 -1.787 0.416947 0
M  V30 5372 H 492.653 -3.71749 -1.36449 0
M  V30 5373 H 493.827 -4.38522 1.41545 0
M  V30 5374 H 492.142 -4.00842 1.1276 0
M  V30 5375 H 494.739 -5.15926 -1.40445 0
M  V30 5376 H 495.082 -3.59443 -2.10015 0
M  V30 5377 H 495.615 -3.95362 -0.439778 0
M  V30 5378 H 492.354 -6.43676 1.23939 0
M  V30 5379 H 491.874 -5.98382 -0.412212 0
M  V30 5380 H 493.553 -6.46962 -0.0697393 0
M  V30 5381 N 493.685 -0.035106 -1.57561 0
M  V30 5382 C 495.096 0.502885 -1.798 0
M  V30 5383 C 495.447 1.71892 -0.945921 0
M  V30 5384 O 494.572 2.15822 -0.157991 0
M  V30 5385 C 495.167 0.919097 -3.26095 0
M  V30 5386 C 493.726 1.40216 -3.49308 0
M  V30 5387 C 492.873 0.369709 -2.74824 0
M  V30 5388 H 495.824 -0.261102 -1.56537 0
M  V30 5389 H 495.845 1.78308 -3.36135 0
M  V30 5390 H 495.357 0.0338526 -3.88085 0
M  V30 5391 H 493.458 2.30714 -2.92578 0
M  V30 5392 H 493.571 1.40541 -4.58023 0
M  V30 5393 H 491.935 0.839113 -2.40481 0
M  V30 5394 H 492.718 -0.507173 -3.39533 0
M  V30 5395 N 495.163 1.55791 0.238111 0
M  V30 5396 C 496.574 1.68383 0.806472 0
M  V30 5397 C 496.925 0.634157 1.85669 0
M  V30 5398 O 496.05 -0.217913 2.153 0
M  V30 5399 C 496.645 3.05268 1.46959 0
M  V30 5400 C 495.204 3.1977 1.98555 0
M  V30 5401 C 494.351 2.64279 0.839763 0
M  V30 5402 H 497.302 1.58694 0.0137535 0
M  V30 5403 H 497.323 3.00203 2.33792 0
M  V30 5404 H 496.835 3.81643 0.704993 0
M  V30 5405 H 494.936 2.48234 2.77868 0
M  V30 5406 H 495.049 4.26788 2.17689 0
M  V30 5407 H 493.413 2.22329 1.24265 0
M  V30 5408 H 494.196 3.43187 0.0881032 0
M  V30 5409 N 496.642 -0.504142 1.49319 0
M  V30 5410 C 498.053 -1.08572 1.51885 0
M  V30 5411 C 498.404 -1.93842 0.303255 0
M  V30 5412 O 497.529 -2.0828 -0.58724 0
M  V30 5413 C 498.124 -1.97574 2.75227 0
M  V30 5414 C 496.683 -2.509 2.80581 0
M  V30 5415 C 495.83 -1.28447 2.45757 0
M  V30 5416 H 498.781 -0.288194 1.56061 0
M  V30 5417 H 498.802 -2.82219 2.55211 0
M  V30 5418 H 498.314 -1.35486 3.63683 0
M  V30 5419 H 496.415 -3.16636 1.96398 0
M  V30 5420 H 496.528 -2.88268 3.82673 0
M  V30 5421 H 494.892 -1.60868 1.97468 0
M  V30 5422 H 495.675 -0.68072 3.36483 0
M  V30 5423 N 498.12 -1.38341 -0.754957 0
M  V30 5424 C 499.05 -1.38176 -1.88227 0
M  V30 5425 C 500.031 -0.247873 -1.68284 0
M  V30 5426 O 501.216 -0.45075 -1.88896 0
M  V30 5427 C 498.346 -1.20471 -3.25736 0
M  V30 5428 C 497.3 -2.3105 -3.60278 0
M  V30 5429 C 496.626 -1.98452 -4.96509 0
M  V30 5430 C 497.926 -3.73305 -3.65295 0
M  V30 5431 H 499.62 -2.32512 -1.88622 0
M  V30 5432 H 497.166 -1.1192 -0.906082 0
M  V30 5433 H 499.119 -1.18982 -4.04254 0
M  V30 5434 H 497.843 -0.225965 -3.25817 0
M  V30 5435 H 496.502 -2.31723 -2.84078 0
M  V30 5436 H 496.15 -0.990641 -4.93148 0
M  V30 5437 H 495.85 -2.7251 -5.20588 0
M  V30 5438 H 497.374 -1.98578 -5.77407 0
M  V30 5439 H 498.788 -3.7467 -4.3393 0
M  V30 5440 H 497.185 -4.46557 -4.00883 0
M  V30 5441 H 498.255 -4.05719 -2.65556 0
M  V30 5442 N 499.598 0.982988 -1.23187 0
M  V30 5443 C 500.508 2.10907 -1.02739 0
M  V30 5444 C 501.524 1.73979 0.0273188 0
M  V30 5445 O 502.7 2.00702 -0.16757 0
M  V30 5446 C 499.765 3.41142 -0.618304 0
M  V30 5447 C 498.826 3.92112 -1.74777 0
M  V30 5448 C 498.059 5.16131 -1.3581 0
M  V30 5449 O 498.282 5.6989 -0.241201 0
M  V30 5450 O 497.216 5.61103 -2.17824 0
M  V30 5451 H 501.042 2.31046 -1.97108 0
M  V30 5452 H 498.627 1.09284 -1.01869 0
M  V30 5453 H 500.509 4.19488 -0.400982 0
M  V30 5454 H 499.184 3.2234 0.296421 0
M  V30 5455 H 498.091 3.14895 -2.0197 0
M  V30 5456 H 499.424 4.15364 -2.64071 0
M  V30 5457 N 501.076 1.04316 1.18135 0
M  V30 5458 C 502.324 0.746542 1.87806 0
M  V30 5459 C 502.645 -0.728082 1.80898 0
M  V30 5460 O 501.915 -1.52554 1.22899 0
M  V30 5461 H 500.495 0.273157 0.695265 0
M  V30 5462 H 503.157 1.32044 1.43354 0
M  V30 5463 H 502.253 1.05362 2.93778 0
M  V30 5464 N 502.554 -1.34406 0.822964 0
M  V30 5465 C 503.97 -1.51275 0.508727 0
M  V30 5466 C 504.17 -1.76776 -0.967083 0
M  V30 5467 O 503.226 -1.81871 -1.75155 0
M  V30 5468 C 504.539 -2.67765 1.36829 0
M  V30 5469 C 506.087 -2.81647 1.36542 0
M  V30 5470 C 506.562 -4.01181 2.20947 0
M  V30 5471 N 508.053 -4.08388 2.18571 0
M  V30 5472 C 508.788 -5.00036 2.80627 0
M  V30 5473 N 508.284 -5.96906 3.51674 0
M  V30 5474 N 510.077 -4.92908 2.70181 0
M  V30 5475 H 502.228 -1.16113 1.77852 0
M  V30 5476 H 504.491 -0.56947 0.757897 0
M  V30 5477 H 504.197 -2.55551 2.41633 0
M  V30 5478 H 504.071 -3.62779 1.03303 0
M  V30 5479 H 506.458 -2.93303 0.325163 0
M  V30 5480 H 506.539 -1.87443 1.74066 0
M  V30 5481 H 506.183 -3.90286 3.25022 0
M  V30 5482 H 506.113 -4.94599 1.80774 0
M  V30 5483 H 508.604 -3.39051 1.66891 0
M  V30 5484 H 508.917 -6.63468 3.96271 0
M  V30 5485 H 507.262 -5.9703 3.5578 0
M  V30 5486 H 510.453 -4.1619 2.14251 0
M  V30 5487 H 510.626 -5.64137 3.18831 0
M  V30 5488 N 504.032 -0.577932 -1.46621 0
M  V30 5489 C 504.942 0.160651 -2.34049 0
M  V30 5490 C 505.958 0.890911 -1.49462 0
M  V30 5491 O 507.134 0.855166 -1.82343 0
M  V30 5492 C 504.199 1.16447 -3.26559 0
M  V30 5493 C 503.26 0.4394 -4.27045 0
M  V30 5494 C 502.493 1.3954 -5.15135 0
M  V30 5495 O 502.716 2.63162 -5.06065 0
M  V30 5496 O 501.65 0.908585 -5.95003 0
M  V30 5497 H 505.476 -0.557057 -2.98547 0
M  V30 5498 H 503.061 -0.338369 -1.45518 0
M  V30 5499 H 504.943 1.7434 -3.83645 0
M  V30 5500 H 503.618 1.86373 -2.64663 0
M  V30 5501 H 502.525 -0.181247 -3.73661 0
M  V30 5502 H 503.858 -0.218799 -4.91713 0
M  V30 5503 N 505.51 1.54411 -0.315457 0
M  V30 5504 C 506.735 2.05299 0.294496 0
M  V30 5505 C 507.16 1.19052 1.4563 0
M  V30 5506 O 506.518 0.197804 1.80218 0
M  V30 5507 C 506.566 3.5345 0.714549 0
M  V30 5508 O 505.67 3.70175 1.81781 0
M  V30 5509 H 505.011 0.661743 0.0547019 0
M  V30 5510 H 507.541 1.99327 -0.461508 0
M  V30 5511 H 507.551 3.9557 0.999426 0
M  V30 5512 H 506.226 4.1568 -0.135244 0
M  V30 5513 H 504.803 3.3996 1.53236 0
M  V30 5514 N 506.988 0.0434614 1.5754 0
M  V30 5515 C 507.92 -0.962586 2.08007 0
M  V30 5516 C 508.933 -1.27972 1.00634 0
M  V30 5517 O 510.122 -1.24186 1.28219 0
M  V30 5518 C 507.222 -2.28621 2.50171 0
M  V30 5519 C 506.395 -2.15214 3.80791 0
M  V30 5520 C 505.454 -3.30633 4.09351 0
M  V30 5521 O 504.48 -3.0688 4.79388 0
M  V30 5522 N 505.682 -4.54873 3.60654 0
M  V30 5523 H 508.447 -0.531891 2.94942 0
M  V30 5524 H 506.008 -0.142965 1.61268 0
M  V30 5525 H 508 -3.04689 2.66359 0
M  V30 5526 H 506.57 -2.63283 1.68525 0
M  V30 5527 H 505.79 -1.23785 3.74261 0
M  V30 5528 H 507.078 -2.03475 4.66343 0
M  V30 5529 H 506.476 -4.77063 3.04019 0
M  V30 5530 H 505.033 -5.2806 3.82094 0
M  V30 5531 N 508.466 -1.55915 -0.229846 0
M  V30 5532 C 509.714 -1.7819 -0.953565 0
M  V30 5533 C 510.035 -0.610504 -1.85197 0
M  V30 5534 O 509.305 0.372988 -1.92316 0
M  V30 5535 H 507.885 -0.657208 -0.355087 0
M  V30 5536 H 510.547 -1.9337 -0.243693 0
M  V30 5537 H 509.643 -2.70011 -1.56527 0
M  V30 5538 N 509.944 0.496216 -1.49584 0
M  V30 5539 C 511.193 1.24668 -1.58558 0
M  V30 5540 C 511.506 1.9359 -0.279703 0
M  V30 5541 O 512.712 2.70365 -0.248048 0
M  V30 5542 C 511.168 2.26388 -2.79779 0
M  V30 5543 C 510.776 1.63384 -4.17145 0
M  V30 5544 C 512.52 3.02233 -2.98086 0
M  V30 5545 C 510.427 2.63243 -5.29582 0
M  V30 5546 H 509.357 0.468995 -0.590389 0
M  V30 5547 H 512.008 0.519985 -1.75978 0
M  V30 5548 H 510.39 3.02241 -2.55863 0
M  V30 5549 H 511.564 0.93491 -4.51216 0
M  V30 5550 H 509.879 0.999121 -4.04236 0
M  V30 5551 H 512.476 3.76919 -3.79257 0
M  V30 5552 H 512.819 3.60132 -2.08831 0
M  V30 5553 H 513.352 2.33495 -3.22063 0
M  V30 5554 H 510.091 2.10119 -6.20911 0
M  V30 5555 H 509.611 3.31363 -4.99959 0
M  V30 5556 H 511.29 3.25575 -5.59115 0
M  V30 5557 N 511.423 1.38739 0.74761 0
M  V30 5558 C 512.648 1.38702 1.54197 0
M  V30 5559 C 513.073 -0.019664 1.8809 0
M  V30 5560 O 512.431 -1.00333 1.51006 0
M  V30 5561 C 512.479 2.25492 2.814 0
M  V30 5562 O 511.583 1.67613 3.76802 0
M  V30 5563 H 510.924 0.472863 0.466151 0
M  V30 5564 H 513.454 1.82577 0.923413 0
M  V30 5565 H 513.464 2.39561 3.30264 0
M  V30 5566 H 512.139 3.27727 2.56062 0
M  V30 5567 H 510.716 1.62718 3.35526 0
M  V30 5568 N 512.901 -0.976442 1.23707 0
M  V30 5569 C 514.126 -1.75875 1.09922 0
M  V30 5570 C 514.551 -1.84911 -0.34489 0
M  V30 5571 O 513.909 -1.31363 -1.24954 0
M  V30 5572 C 513.957 -3.16179 1.73388 0
M  V30 5573 O 513.061 -4.00124 0.99871 0
M  V30 5574 H 512.402 -0.540954 0.385052 0
M  V30 5575 H 514.932 -1.22546 1.6384 0
M  V30 5576 H 514.942 -3.66741 1.78788 0
M  V30 5577 H 513.617 -3.08917 2.78466 0
M  V30 5578 H 512.194 -3.58624 1.02193 0
M  V30 5579 N 514.379 -1.04941 -1.1758 0
M  V30 5580 C 515.309 -0.669172 -2.23706 0
M  V30 5581 C 516.29 0.331835 -1.66832 0
M  V30 5582 O 517.475 0.209988 -1.93061 0
M  V30 5583 C 514.605 -0.0404889 -3.47276 0
M  V30 5584 C 513.559 -0.965983 -4.16957 0
M  V30 5585 C 512.885 -0.201312 -5.34321 0
M  V30 5586 C 514.185 -2.28902 -4.69469 0
M  V30 5587 H 515.879 -1.55639 -2.55767 0
M  V30 5588 H 513.425 -0.749793 -1.22939 0
M  V30 5589 H 515.378 0.237298 -4.20731 0
M  V30 5590 H 514.102 0.881658 -3.14475 0
M  V30 5591 H 512.761 -1.22829 -3.45411 0
M  V30 5592 H 512.409 0.723519 -4.97769 0
M  V30 5593 H 512.109 -0.817968 -5.81879 0
M  V30 5594 H 513.633 0.0692499 -6.10561 0
M  V30 5595 H 515.047 -2.07132 -5.34574 0
M  V30 5596 H 513.444 -2.85942 -5.27596 0
M  V30 5597 H 514.514 -2.92937 -3.86414 0
M  V30 5598 N 515.857 1.33968 -0.830081 0
M  V30 5599 C 517.104 1.98063 -0.421566 0
M  V30 5600 C 517.432 1.65787 1.0171 0
M  V30 5601 O 516.687 0.925348 1.72441 0
M  V30 5602 C 516.986 3.52679 -0.57898 0
M  V30 5603 C 516.652 4.04884 -1.98443 0
M  V30 5604 C 515.314 4.18852 -2.36888 0
M  V30 5605 C 517.666 4.32879 -2.90285 0
M  V30 5606 C 514.994 4.58145 -3.66497 0
M  V30 5607 C 517.346 4.7362 -4.19364 0
M  V30 5608 C 516.01 4.85794 -4.57778 0
M  V30 5609 H 515.28 0.724765 -0.154262 0
M  V30 5610 H 517.927 1.59792 -1.05541 0
M  V30 5611 H 516.232 3.91556 0.138219 0
M  V30 5612 H 517.929 4.00261 -0.243317 0
M  V30 5613 H 514.519 3.9448 -1.67581 0
M  V30 5614 H 518.703 4.21619 -2.61823 0
M  V30 5615 H 513.959 4.65762 -3.96075 0
M  V30 5616 H 518.133 4.9424 -4.90612 0
M  V30 5617 H 515.76 5.15998 -5.58256 0
M  V30 5618 N 517.335 0.585699 1.46312 0
M  V30 5619 C 518.56 0.0762461 2.0726 0
M  V30 5620 C 518.985 -1.22071 1.43109 0
M  V30 5621 O 518.343 -1.73804 0.515942 0
M  V30 5622 C 518.391 -0.0729404 3.60526 0
M  V30 5623 O 517.495 -1.1287 3.96654 0
M  V30 5624 H 516.836 0.0641558 0.660893 0
M  V30 5625 H 519.366 0.809492 1.87905 0
M  V30 5626 H 519.376 -0.278158 4.07051 0
M  V30 5627 H 518.051 0.874188 4.06609 0
M  V30 5628 H 516.628 -0.901703 3.61834 0
M  V30 5629 N 518.813 -1.54241 0.323641 0
M  V30 5630 C 520.038 -2.05452 -0.283605 0
M  V30 5631 C 520.463 -1.19823 -1.44997 0
M  V30 5632 O 519.821 -0.207358 -1.8011 0
M  V30 5633 C 519.869 -3.53823 -0.695795 0
M  V30 5634 O 518.973 -3.71134 -1.79815 0
M  V30 5635 H 518.314 -0.662024 -0.0511917 0
M  V30 5636 H 520.844 -1.99079 0.472073 0
M  V30 5637 H 520.854 -3.96094 -0.978434 0
M  V30 5638 H 519.529 -4.15602 0.157287 0
M  V30 5639 H 518.106 -3.40768 -1.51431 0
M  V30 5640 N 520.291 -0.0518155 -1.57515 0
M  V30 5641 C 521.221 0.920283 -2.146 0
M  V30 5642 C 522.202 1.32406 -1.06783 0
M  V30 5643 O 523.387 1.39866 -1.34726 0
M  V30 5644 C 520.517 2.1949 -2.6915 0
M  V30 5645 C 519.471 1.93116 -3.81956 0
M  V30 5646 C 518.797 3.27037 -4.23026 0
M  V30 5647 C 520.097 1.25225 -5.07066 0
M  V30 5648 H 521.791 0.444801 -2.96077 0
M  V30 5649 H 519.337 0.212508 -1.42423 0
M  V30 5650 H 521.29 2.87894 -3.07725 0
M  V30 5651 H 520.014 2.69244 -1.84865 0
M  V30 5652 H 518.673 1.27123 -3.43854 0
M  V30 5653 H 518.321 3.74595 -3.3569 0
M  V30 5654 H 518.021 3.10189 -4.99056 0
M  V30 5655 H 519.545 3.96673 -4.64202 0
M  V30 5656 H 520.959 1.83666 -5.43083 0
M  V30 5657 H 519.356 1.18702 -5.88243 0
M  V30 5658 H 520.426 0.228382 -4.84362 0
M  V30 5659 N 521.769 1.56035 0.221574 0
M  V30 5660 C 522.716 1.92413 1.27459 0
M  V30 5661 C 523.686 0.781323 1.46576 0
M  V30 5662 O 524.871 1.03721 1.60145 0
M  V30 5663 C 522.011 2.24617 2.61995 0
M  V30 5664 C 521.124 3.51831 2.50677 0
M  V30 5665 C 520.259 3.73482 3.77736 0
M  V30 5666 C 519.298 4.94211 3.6114 0
M  V30 5667 N 518.435 5.12252 4.80148 0
M  V30 5668 H 523.275 2.82203 0.957355 0
M  V30 5669 H 520.812 1.39676 0.461415 0
M  V30 5670 H 522.77 2.41298 3.40339 0
M  V30 5671 H 521.4 1.38 2.91815 0
M  V30 5672 H 520.452 3.43343 1.63767 0
M  V30 5673 H 521.764 4.40328 2.34334 0
M  V30 5674 H 520.918 3.9026 4.64523 0
M  V30 5675 H 519.657 2.83266 3.97003 0
M  V30 5676 H 518.662 4.77384 2.72736 0
M  V30 5677 H 519.887 5.85912 3.43343 0
M  V30 5678 H 517.833 4.24978 4.99729 0
M  V30 5679 H 517.75 5.94881 4.66532 0
M  V30 5680 H 519.018 5.33465 5.68362 0
M  V30 5681 N 523.247 -0.488276 1.49845 0
M  V30 5682 C 524.493 -1.24341 1.6021 0
M  V30 5683 C 524.826 -1.91967 0.293651 0
M  V30 5684 O 524.101 -1.81323 -0.703718 0
M  V30 5685 C 524.384 -2.3005 2.77036 0
M  V30 5686 C 524.237 -1.66842 4.17713 0
M  V30 5687 C 525.556 -3.31509 2.89464 0
M  V30 5688 H 522.675 -0.450704 0.583125 0
M  V30 5689 H 525.317 -0.539673 1.82174 0
M  V30 5690 H 523.467 -2.90071 2.58439 0
M  V30 5691 H 525.139 -1.1055 4.47858 0
M  V30 5692 H 523.382 -0.972079 4.22768 0
M  V30 5693 H 524.053 -2.43576 4.95353 0
M  V30 5694 H 526.529 -2.81493 3.06433 0
M  V30 5695 H 525.405 -4.02822 3.72861 0
M  V30 5696 H 525.666 -3.94603 1.99351 0
M  V30 5697 N 524.725 -1.39134 -0.740242 0
M  V30 5698 C 525.971 -1.36273 -1.50192 0
M  V30 5699 C 526.304 0.0430136 -1.94152 0
M  V30 5700 O 525.579 1.00691 -1.66408 0
M  V30 5701 C 525.862 -2.33041 -2.74525 0
M  V30 5702 C 525.715 -3.82535 -2.36617 0
M  V30 5703 C 527.034 -2.27723 -3.76604 0
M  V30 5704 H 524.153 -0.496323 -0.544823 0
M  V30 5705 H 526.795 -1.70085 -0.846815 0
M  V30 5706 H 524.945 -2.04337 -3.30422 0
M  V30 5707 H 526.617 -4.21967 -1.86391 0
M  V30 5708 H 524.86 -3.99565 -1.68909 0
M  V30 5709 H 525.531 -4.45723 -3.2563 0
M  V30 5710 H 528.007 -2.53091 -3.30279 0
M  V30 5711 H 526.883 -2.97519 -4.61274 0
M  V30 5712 H 527.144 -1.28049 -4.2315 0
M  V30 5713 N 526.204 0.969867 -1.24223 0
M  V30 5714 C 527.62 1.23809 -1.00716 0
M  V30 5715 C 527.82 1.99469 0.285358 0
M  V30 5716 O 526.876 2.31764 1.00207 0
M  V30 5717 C 528.189 2.02734 -2.2208 0
M  V30 5718 C 529.737 2.15834 -2.26681 0
M  V30 5719 C 530.212 2.98154 -3.47661 0
M  V30 5720 N 531.703 3.05737 -3.47964 0
M  V30 5721 C 532.438 3.69785 -4.38231 0
M  V30 5722 N 531.934 4.35569 -5.3875 0
M  V30 5723 N 533.727 3.66775 -4.25949 0
M  V30 5724 H 525.878 0.463294 -2.07286 0
M  V30 5725 H 528.141 0.267348 -0.909521 0
M  V30 5726 H 527.847 1.54524 -3.15935 0
M  V30 5727 H 527.721 3.0347 -2.24021 0
M  V30 5728 H 530.108 2.63248 -1.33359 0
M  V30 5729 H 530.189 1.14453 -2.28767 0
M  V30 5730 H 529.833 2.51435 -4.41297 0
M  V30 5731 H 529.763 3.99729 -3.42818 0
M  V30 5732 H 532.254 2.58941 -2.75242 0
M  V30 5733 H 532.567 4.82251 -6.03866 0
M  V30 5734 H 530.912 4.34244 -5.42639 0
M  V30 5735 H 534.103 3.14558 -3.46657 0
M  V30 5736 H 534.276 4.16407 -4.96497 0
M  V30 5737 N 527.682 1.05563 1.17022 0
M  V30 5738 C 528.612 0.681026 2.23348 0
M  V30 5739 C 529.593 -0.322983 1.67005 0
M  V30 5740 O 530.778 -0.199746 1.9317 0
M  V30 5741 C 527.908 0.0589053 3.4725 0
M  V30 5742 C 526.862 0.988082 4.16438 0
M  V30 5743 C 526.188 0.229646 5.34207 0
M  V30 5744 C 527.488 2.31388 4.68249 0
M  V30 5745 H 529.182 1.56993 2.54938 0
M  V30 5746 H 526.728 0.756302 1.2254 0
M  V30 5747 H 528.681 -0.214982 4.20851 0
M  V30 5748 H 527.405 -0.864968 3.14938 0
M  V30 5749 H 526.064 1.24659 3.44754 0
M  V30 5750 H 525.712 -0.697111 4.98146 0
M  V30 5751 H 525.412 0.848815 5.81437 0
M  V30 5752 H 526.936 -0.0368694 6.10589 0
M  V30 5753 H 528.35 2.09964 5.33468 0
M  V30 5754 H 526.747 2.88736 5.26072 0
M  V30 5755 H 527.817 2.94982 3.84855 0
M  V30 5756 N 529.16 -1.33526 0.837174 0
M  V30 5757 C 530.09 -2.31764 0.284206 0
M  V30 5758 C 531.071 -1.58896 -0.607142 0
M  V30 5759 O 532.256 -1.86798 -0.531047 0
M  V30 5760 C 529.386 -3.43029 -0.542962 0
M  V30 5761 C 528.34 -4.27255 0.252451 0
M  V30 5762 C 527.666 -5.3012 -0.69836 0
M  V30 5763 C 528.966 -5.01229 1.46858 0
M  V30 5764 H 530.66 -2.78262 1.10502 0
M  V30 5765 H 528.206 -1.3378 0.532812 0
M  V30 5766 H 530.159 -4.1078 -0.940096 0
M  V30 5767 H 528.883 -2.95216 -1.39697 0
M  V30 5768 H 527.542 -3.61127 0.631124 0
M  V30 5769 H 527.19 -4.78564 -1.54872 0
M  V30 5770 H 526.89 -5.87353 -0.170274 0
M  V30 5771 H 528.414 -6.00737 -1.09305 0
M  V30 5772 H 529.828 -5.61756 1.14469 0
M  V30 5773 H 528.225 -5.68104 1.93333 0
M  V30 5774 H 529.295 -4.301 2.23924 0
M  V30 5775 N 530.638 -0.59345 -1.46 0
M  V30 5776 C 532.054 -0.255965 -1.57534 0
M  V30 5777 C 532.254 1.24167 -1.58697 0
M  V30 5778 O 531.31 2.02398 -1.50968 0
M  V30 5779 C 532.623 -0.91466 -2.86451 0
M  V30 5780 C 534.171 -0.889253 -3.00102 0
M  V30 5781 C 534.646 -1.52769 -4.3177 0
M  V30 5782 N 536.137 -1.49253 -4.38495 0
M  V30 5783 C 536.872 -1.9558 -5.39014 0
M  V30 5784 N 536.368 -2.49929 -6.46148 0
M  V30 5785 N 538.161 -1.86432 -5.30282 0
M  V30 5786 H 530.312 -1.56604 -1.43489 0
M  V30 5787 H 532.575 -0.655207 -0.685133 0
M  V30 5788 H 532.281 -1.96861 -2.91442 0
M  V30 5789 H 532.155 -0.429356 -3.74748 0
M  V30 5790 H 534.542 0.156111 -2.94687 0
M  V30 5791 H 534.623 -1.41268 -2.13253 0
M  V30 5792 H 534.267 -2.57231 -4.37944 0
M  V30 5793 H 534.197 -0.979398 -5.17412 0
M  V30 5794 H 536.688 -1.09536 -3.61677 0
M  V30 5795 H 537.001 -2.83109 -7.19075 0
M  V30 5796 H 535.346 -2.53961 -6.46938 0
M  V30 5797 H 538.537 -1.43722 -4.4549 0
M  V30 5798 H 538.71 -2.22852 -6.08474 0
M  V30 5799 N 532.116 1.54067 -0.331816 0
M  V30 5800 C 533.046 2.27569 0.522932 0
M  V30 5801 C 534.027 1.28679 1.11247 0
M  V30 5802 O 535.212 1.57504 1.13605 0
M  V30 5803 C 532.342 3.0397 1.67987 0
M  V30 5804 C 531.296 4.10267 1.21924 0
M  V30 5805 C 530.622 4.74555 2.46377 0
M  V30 5806 C 531.922 5.21268 0.32815 0
M  V30 5807 H 533.616 2.99264 -0.0901977 0
M  V30 5808 H 531.162 1.4393 -0.044821 0
M  V30 5809 H 533.115 3.54123 2.28418 0
M  V30 5810 H 531.839 2.29906 2.31971 0
M  V30 5811 H 530.498 3.61009 0.637809 0
M  V30 5812 H 530.146 3.97098 3.08743 0
M  V30 5813 H 529.846 5.46363 2.16243 0
M  V30 5814 H 531.37 5.27487 3.07555 0
M  V30 5815 H 532.784 5.67128 0.838978 0
M  V30 5816 H 531.181 5.99982 0.119228 0
M  V30 5817 H 532.251 4.80673 -0.638839 0
M  V30 5818 N 533.594 0.0601682 1.57485 0
M  V30 5819 C 534.842 -0.610386 1.92662 0
M  V30 5820 C 535.163 -1.70849 0.939981 0
M  V30 5821 O 534.433 -1.95895 -0.0137455 0
M  V30 5822 H 533.013 -0.228457 0.711208 0
M  V30 5823 H 535.675 0.115288 1.94559 0
M  V30 5824 H 534.771 -1.0432 2.94149 0
M  V30 5825 N 535.072 -1.5615 -0.213296 0
M  V30 5826 C 536.488 -1.49327 -0.56336 0
M  V30 5827 C 536.688 -0.756826 -1.86747 0
M  V30 5828 O 535.744 -0.299866 -2.50713 0
M  V30 5829 C 537.057 -2.9392 -0.634944 0
M  V30 5830 C 538.605 -3.04487 -0.725013 0
M  V30 5831 C 539.08 -4.50456 -0.82787 0
M  V30 5832 N 540.571 -4.54533 -0.891876 0
M  V30 5833 C 541.306 -5.64766 -0.991315 0
M  V30 5834 N 540.802 -6.84733 -1.05419 0
M  V30 5835 N 542.595 -5.52637 -1.02709 0
M  V30 5836 H 534.746 -2.02453 0.642366 0
M  V30 5837 H 537.009 -0.920548 0.226487 0
M  V30 5838 H 536.715 -3.50783 0.253859 0
M  V30 5839 H 536.589 -3.46274 -1.49579 0
M  V30 5840 H 538.976 -2.47685 -1.60425 0
M  V30 5841 H 539.057 -2.55289 0.161669 0
M  V30 5842 H 538.701 -5.07878 0.0469464 0
M  V30 5843 H 538.631 -4.97369 -1.73009 0
M  V30 5844 H 541.122 -3.68141 -0.85327 0
M  V30 5845 H 541.435 -7.64493 -1.13007 0
M  V30 5846 H 539.78 -6.87427 -1.02318 0
M  V30 5847 H 542.971 -4.5784 -0.974687 0
M  V30 5848 H 543.144 -6.38576 -1.10113 0
M  V30 5849 N 536.55 0.480323 -1.50102 0
M  V30 5850 C 537.796 1.23489 -1.60867 0
M  V30 5851 C 538.129 1.91809 -0.303827 0
M  V30 5852 O 537.404 1.81694 0.694092 0
M  V30 5853 C 537.687 2.28578 -2.78252 0
M  V30 5854 C 537.54 1.64624 -4.18592 0
M  V30 5855 C 538.859 3.2997 -2.91218 0
M  V30 5856 H 535.978 0.447605 -0.585507 0
M  V30 5857 H 538.62 0.530005 -1.82458 0
M  V30 5858 H 536.77 2.88697 -2.59974 0
M  V30 5859 H 538.442 1.08173 -4.48438 0
M  V30 5860 H 536.685 0.949645 -4.23278 0
M  V30 5861 H 537.356 2.40946 -4.96638 0
M  V30 5862 H 539.832 2.79864 -3.07921 0
M  V30 5863 H 538.708 4.00839 -3.74993 0
M  V30 5864 H 538.969 3.93541 -2.0144 0
M  V30 5865 N 538.028 1.39524 0.732853 0
M  V30 5866 C 538.991 1.38189 1.82857 0
M  V30 5867 C 539.991 0.278624 1.58368 0
M  V30 5868 O 541.181 0.536639 1.65728 0
M  V30 5869 C 538.313 1.15661 3.2068 0
M  V30 5870 H 539.506 2.35692 1.85444 0
M  V30 5871 H 537.059 1.2512 0.936728 0
M  V30 5872 H 537.794 0.188482 3.23752 0
M  V30 5873 H 537.579 1.95559 3.39852 0
M  V30 5874 H 539.069 1.17472 4.00737 0
M  V30 5875 N 539.506 -0.963266 1.24736 0
M  V30 5876 C 540.922 -1.23273 1.01371 0
M  V30 5877 C 541.122 -1.99618 -0.274776 0
M  V30 5878 O 540.178 -2.32293 -0.989769 0
M  V30 5879 C 541.491 -2.01554 2.23152 0
M  V30 5880 C 543.039 -2.14629 2.27823 0
M  V30 5881 C 543.514 -2.96307 3.49237 0
M  V30 5882 N 545.005 -3.03887 3.49581 0
M  V30 5883 C 545.74 -3.67456 4.40186 0
M  V30 5884 N 545.236 -4.32706 5.41052 0
M  V30 5885 N 547.029 -3.64511 4.27888 0
M  V30 5886 H 539.18 -0.452294 2.07528 0
M  V30 5887 H 541.443 -0.262521 0.910926 0
M  V30 5888 H 541.149 -1.52847 3.1675 0
M  V30 5889 H 541.023 -3.02278 2.25628 0
M  V30 5890 H 543.41 -2.62537 1.34753 0
M  V30 5891 H 543.491 -1.13238 2.2937 0
M  V30 5892 H 543.135 -2.49091 4.42624 0
M  V30 5893 H 543.065 -3.97905 3.44933 0
M  V30 5894 H 545.556 -2.57477 2.76611 0
M  V30 5895 H 545.869 -4.79042 6.06415 0
M  V30 5896 H 544.214 -4.31361 5.44934 0
M  V30 5897 H 547.405 -3.12715 3.4832 0
M  V30 5898 H 547.578 -4.13768 4.98698 0
M  V30 5899 N 540.985 -1.06182 -1.16461 0
M  V30 5900 C 541.932 -0.671613 -2.20812 0
M  V30 5901 C 542.902 0.331186 -1.62765 0
M  V30 5902 O 544.087 0.22033 -1.89524 0
M  V30 5903 C 541.227 -0.063029 -3.45042 0
M  V30 5904 C 540.34 -1.11587 -4.1734 0
M  V30 5905 C 539.475 -0.473546 -5.29085 0
M  V30 5906 C 538.514 -1.51 -5.93182 0
M  V30 5907 N 537.651 -0.891118 -6.96422 0
M  V30 5908 H 542.491 -1.56589 -2.53542 0
M  V30 5909 H 540.028 -0.782951 -1.24532 0
M  V30 5910 H 541.986 0.307344 -4.16066 0
M  V30 5911 H 540.616 0.794663 -3.12866 0
M  V30 5912 H 539.668 -1.60396 -3.44931 0
M  V30 5913 H 540.98 -1.90221 -4.61104 0
M  V30 5914 H 540.134 -0.0501432 -6.06679 0
M  V30 5915 H 538.873 0.344687 -4.8648 0
M  V30 5916 H 537.878 -1.94331 -5.14311 0
M  V30 5917 H 539.103 -2.33031 -6.37866 0
M  V30 5918 H 537.049 -0.0935753 -6.55933 0
M  V30 5919 H 536.966 -1.61486 -7.38551 0
M  V30 5920 H 538.234 -0.492822 -7.77941 0
M  V30 5921 N 542.463 1.3308 -0.844243 0
M  V30 5922 C 543.393 2.3161 -0.296493 0
M  V30 5923 C 544.374 1.59215 0.598707 0
M  V30 5924 O 545.559 1.87077 0.521134 0
M  V30 5925 C 542.689 3.43313 0.524762 0
M  V30 5926 C 541.643 4.27115 -0.275106 0
M  V30 5927 C 540.969 5.30483 0.670236 0
M  V30 5928 C 542.269 5.00443 -1.49514 0
M  V30 5929 H 543.963 2.77672 -1.11976 0
M  V30 5930 H 541.509 1.33496 -0.539899 0
M  V30 5931 H 543.462 4.11273 0.918298 0
M  V30 5932 H 542.186 2.95952 1.3813 0
M  V30 5933 H 540.845 3.60787 -0.650267 0
M  V30 5934 H 540.493 4.79379 1.52332 0
M  V30 5935 H 540.193 5.87435 0.139123 0
M  V30 5936 H 541.717 6.01308 1.06117 0
M  V30 5937 H 543.131 5.61141 -1.17447 0
M  V30 5938 H 541.528 5.67071 -1.96343 0
M  V30 5939 H 542.598 4.28906 -2.26202 0
M  V30 5940 N 543.941 0.601185 1.45683 0
M  V30 5941 C 545.218 0.0261659 1.95582 0
M  V30 5942 C 545.598 -1.4399 1.5437 0
M  V30 5943 O 544.946 -2.13919 0.80318 0
M  V30 5944 C 545.156 0.217557 3.48321 0
M  V30 5945 C 546.504 0.0950076 4.24494 0
M  V30 5946 O 547.528 0.147345 3.55895 0
M  V30 5947 O 546.387 -0.025261 5.46494 0
M  V30 5948 H 543.481 -0.0393688 0.826062 0
M  V30 5949 H 546.027 0.670798 1.55879 0
M  V30 5950 H 544.799 1.23601 3.71266 0
M  V30 5951 H 544.422 -0.46264 3.94899 0
M  V30 5952 N 545.419 -1.53889 0.339982 0
M  V30 5953 C 546.369 -2.2165 -0.534354 0
M  V30 5954 C 547.353 -1.20266 -1.06887 0
M  V30 5955 O 548.545 -1.45827 -1.00316 0
M  V30 5956 C 545.674 -2.99014 -1.68659 0
M  V30 5957 C 544.76 -4.07751 -1.16618 0
M  V30 5958 N 545.151 -5.04469 -0.366717 0
M  V30 5959 C 543.449 -4.21998 -1.4434 0
M  V30 5960 C 544.15 -5.81638 -0.0847275 0
M  V30 5961 N 543.126 -5.39388 -0.675391 0
M  V30 5962 H 546.928 -2.93781 0.0835562 0
M  V30 5963 H 544.442 -1.61736 0.146665 0
M  V30 5964 H 546.439 -3.46056 -2.32489 0
M  V30 5965 H 545.099 -2.28408 -2.30781 0
M  V30 5966 H 546.11 -5.17899 -0.00811038 0
M  V30 5967 H 542.787 -3.62612 -2.06928 0
M  V30 5968 H 544.177 -6.69563 0.559943 0
M  V30 5969 N 546.897 -0.0685191 -1.57451 0
M  V30 5970 C 548.127 0.609577 -1.97402 0
M  V30 5971 C 548.535 1.63882 -0.945489 0
M  V30 5972 O 547.878 1.8354 0.0766052 0
M  V30 5973 C 547.94 1.3385 -3.33653 0
M  V30 5974 C 547.604 0.463103 -4.54648 0
M  V30 5975 C 548.601 -0.277964 -5.19156 0
M  V30 5976 C 546.286 0.388941 -5.00792 0
M  V30 5977 C 548.28 -1.08145 -6.28159 0
M  V30 5978 C 545.967 -0.418217 -6.09667 0
M  V30 5979 C 546.965 -1.15208 -6.73213 0
M  V30 5980 O 546.653 -1.94594 -7.79993 0
M  V30 5981 H 546.385 0.170197 -0.654224 0
M  V30 5982 H 548.939 -0.13647 -2.04946 0
M  V30 5983 H 547.169 2.13055 -3.22714 0
M  V30 5984 H 548.858 1.90851 -3.58233 0
M  V30 5985 H 549.624 -0.230241 -4.84453 0
M  V30 5986 H 545.503 0.949769 -4.5111 0
M  V30 5987 H 549.047 -1.65476 -6.7769 0
M  V30 5988 H 544.944 -0.467515 -6.43805 0
M  V30 5989 H 545.712 -1.8699 -7.96854 0
M  V30 5990 N 548.375 1.56261 0.205012 0
M  V30 5991 C 549.624 1.79236 0.925058 0
M  V30 5992 C 549.937 0.640011 1.84833 0
M  V30 5993 O 551.143 0.753809 2.60826 0
M  V30 5994 C 549.599 3.17475 1.69522 0
M  V30 5995 C 549.207 4.40482 0.817269 0
M  V30 5996 C 550.951 3.49766 2.4055 0
M  V30 5997 C 548.858 5.69744 1.58573 0
M  V30 5998 H 547.788 0.668287 0.349153 0
M  V30 5999 H 550.439 1.82629 0.178544 0
M  V30 6000 H 548.821 3.08304 2.48526 0
M  V30 6001 H 549.995 4.60752 0.0665988 0
M  V30 6002 H 548.31 4.15827 0.218316 0
M  V30 6003 H 550.907 4.43573 2.98575 0
M  V30 6004 H 551.25 2.73041 3.14252 0
M  V30 6005 H 551.783 3.60341 1.68522 0
M  V30 6006 H 548.522 6.49407 0.891679 0
M  V30 6007 H 548.042 5.53509 2.31059 0
M  V30 6008 H 549.721 6.1051 2.14212 0
M  V30 6009 N 549.853 -0.472356 1.50355 0
M  V30 6010 C 550.763 -1.59637 1.7191 0
M  V30 6011 C 551.779 -1.63247 0.602195 0
M  V30 6012 O 552.955 -1.81139 0.880369 0
M  V30 6013 C 550.02 -2.9586 1.80742 0
M  V30 6014 C 549.081 -3.02649 3.04471 0
M  V30 6015 C 548.314 -4.32374 3.12872 0
M  V30 6016 O 548.537 -5.22807 2.28099 0
M  V30 6017 O 547.471 -4.44728 4.05587 0
M  V30 6018 H 551.297 -1.44373 2.67189 0
M  V30 6019 H 548.882 -0.651717 1.34436 0
M  V30 6020 H 550.764 -3.7677 1.88739 0
M  V30 6021 H 549.439 -3.11325 0.88647 0
M  V30 6022 H 548.346 -2.20821 3.01975 0
M  V30 6023 H 549.679 -2.92119 3.9614 0
M  V30 6024 N 551.331 -1.39911 -0.725443 0
M  V30 6025 C 552.561 -1.40744 -1.51244 0
M  V30 6026 C 552.969 -0.00275403 -1.892 0
M  V30 6027 O 552.312 0.981299 -1.55294 0
M  V30 6028 C 552.374 -2.22527 -2.82351 0
M  V30 6029 C 552.038 -3.71053 -2.66774 0
M  V30 6030 C 553.035 -4.63916 -2.34686 0
M  V30 6031 C 550.72 -4.14753 -2.83347 0
M  V30 6032 C 552.714 -5.98463 -2.19366 0
M  V30 6033 C 550.401 -5.49372 -2.67644 0
M  V30 6034 C 551.399 -6.41042 -2.357 0
M  V30 6035 O 551.087 -7.73181 -2.20107 0
M  V30 6036 H 550.819 -0.482314 -0.473655 0
M  V30 6037 H 553.373 -1.84472 -0.903284 0
M  V30 6038 H 551.603 -1.73563 -3.45562 0
M  V30 6039 H 553.292 -2.15421 -3.44018 0
M  V30 6040 H 554.058 -4.31453 -2.21525 0
M  V30 6041 H 549.937 -3.43728 -3.072 0
M  V30 6042 H 553.481 -6.69979 -1.94354 0
M  V30 6043 H 549.378 -5.81424 -2.80387 0
M  V30 6044 H 550.146 -7.84008 -2.35103 0
M  V30 6045 N 552.809 0.956637 -1.25245 0
M  V30 6046 C 554.057 1.69764 -1.09657 0
M  V30 6047 C 554.378 1.91583 0.363464 0
M  V30 6048 O 553.648 1.50149 1.25825 0
M  V30 6049 H 552.228 0.629097 -0.402798 0
M  V30 6050 H 554.89 1.15026 -1.57337 0
M  V30 6051 H 553.986 2.67769 -1.60331 0
M  V30 6052 N 554.287 1.06798 1.15896 0
M  V30 6053 C 555.25 0.687328 2.18651 0
M  V30 6054 C 556.25 -0.269559 1.58524 0
M  V30 6055 O 557.44 -0.0512627 1.74125 0
M  V30 6056 C 554.572 0.0121642 3.40898 0
M  V30 6057 H 555.765 1.59701 2.53842 0
M  V30 6058 H 553.318 0.863828 1.3026 0
M  V30 6059 H 554.053 -0.910025 3.1127 0
M  V30 6060 H 553.838 0.700309 3.85795 0
M  V30 6061 H 555.328 -0.239703 4.16911 0
M  V30 6062 N 555.766 -1.3263 0.851289 0
M  V30 6063 C 556.729 -2.27247 0.298541 0
M  V30 6064 C 557.729 -1.51467 -0.539847 0
M  V30 6065 O 558.919 -1.7061 -0.351843 0
M  V30 6066 C 556.051 -3.35964 -0.578004 0
M  V30 6067 H 557.244 -2.7765 1.13359 0
M  V30 6068 H 554.797 -1.43245 0.625354 0
M  V30 6069 H 555.532 -2.90823 -1.435 0
M  V30 6070 H 555.317 -3.92094 0.0220539 0
M  V30 6071 H 556.807 -4.06472 -0.957626 0
M  V30 6072 N 557.244 -0.608902 -1.45362 0
M  V30 6073 C 558.49 -0.104762 -2.02529 0
M  V30 6074 C 558.823 1.26191 -1.47613 0
M  V30 6075 O 558.098 1.8327 -0.65134 0
M  V30 6076 C 558.381 -0.0672661 -3.60037 0
M  V30 6077 C 558.234 -1.4647 -4.25284 0
M  V30 6078 C 559.553 0.619877 -4.35713 0
M  V30 6079 H 556.672 -0.0395438 -0.735938 0
M  V30 6080 H 559.314 -0.781126 -1.73201 0
M  V30 6081 H 557.464 0.50871 -3.85155 0
M  V30 6082 H 559.136 -2.08785 -4.11347 0
M  V30 6083 H 557.379 -2.02502 -3.83634 0
M  V30 6084 H 558.05 -1.39069 -5.34195 0
M  V30 6085 H 560.526 0.130297 -4.15896 0
M  V30 6086 H 559.402 0.615224 -5.45441 0
M  V30 6087 H 559.663 1.68621 -4.0868 0
M  V30 6088 N 558.722 1.53707 -0.348139 0
M  V30 6089 C 559.652 2.28111 0.498766 0
M  V30 6090 C 560.633 1.29851 1.09876 0
M  V30 6091 O 561.818 1.587 1.11928 0
M  V30 6092 C 558.948 3.05735 1.64753 0
M  V30 6093 C 557.902 4.11537 1.17565 0
M  V30 6094 C 557.228 4.77142 2.4133 0
M  V30 6095 C 558.528 5.21587 0.272844 0
M  V30 6096 H 560.222 2.99152 -0.121934 0
M  V30 6097 H 557.768 1.43875 -0.0600842 0
M  V30 6098 H 559.721 3.56526 2.24649 0
M  V30 6099 H 558.445 2.32354 2.2952 0
M  V30 6100 H 557.104 3.61665 0.599483 0
M  V30 6101 H 556.752 4.0035 3.04514 0
M  V30 6102 H 556.452 5.48626 2.10436 0
M  V30 6103 H 557.976 5.30719 3.01943 0
M  V30 6104 H 559.39 5.67986 0.778779 0
M  V30 6105 H 557.787 6.00074 0.0555849 0
M  V30 6106 H 558.857 4.79969 -0.689785 0
M  V30 6107 N 560.2 0.0768682 1.57412 0
M  V30 6108 C 561.446 -0.591961 1.93968 0
M  V30 6109 C 561.779 -1.68954 0.9575 0
M  V30 6110 O 561.054 -1.94496 -0.0124675 0
M  V30 6111 C 561.337 -1.16418 3.40762 0
M  V30 6112 C 561.19 -0.0728933 4.49741 0
M  V30 6113 C 562.509 -2.06814 3.88479 0
M  V30 6114 H 559.628 -0.213716 0.705333 0
M  V30 6115 H 562.27 0.14387 1.89455 0
M  V30 6116 H 560.42 -1.79128 3.4474 0
M  V30 6117 H 562.092 0.560446 4.57883 0
M  V30 6118 H 560.335 0.595859 4.29688 0
M  V30 6119 H 561.006 -0.513755 5.49604 0
M  V30 6120 H 563.482 -1.54033 3.8654 0
M  V30 6121 H 562.358 -2.43785 4.91793 0
M  V30 6122 H 562.619 -2.97844 3.26713 0
M  V30 6123 N 561.678 -1.56367 -0.196722 0
M  V30 6124 C 562.608 -1.97442 -1.24655 0
M  V30 6125 C 563.589 -0.846147 -1.47561 0
M  V30 6126 O 564.774 -1.11035 -1.59326 0
M  V30 6127 C 561.904 -2.31253 -2.59112 0
M  V30 6128 C 560.858 -3.46804 -2.50821 0
M  V30 6129 C 560.184 -3.66286 -3.89536 0
M  V30 6130 C 561.484 -4.8104 -2.03465 0
M  V30 6131 H 563.178 -2.85388 -0.905216 0
M  V30 6132 H 560.724 -1.37304 -0.434002 0
M  V30 6133 H 562.677 -2.58583 -3.32736 0
M  V30 6134 H 561.401 -1.40188 -2.94983 0
M  V30 6135 H 560.06 -3.19563 -1.79653 0
M  V30 6136 H 559.708 -2.72555 -4.22756 0
M  V30 6137 H 559.408 -4.4402 -3.84864 0
M  V30 6138 H 560.932 -3.9599 -4.64784 0
M  V30 6139 H 562.346 -5.07411 -2.66846 0
M  V30 6140 H 560.743 -5.62232 -2.09798 0
M  V30 6141 H 561.813 -4.74732 -0.98781 0
M  V30 6142 N 563.156 0.464375 -1.50603 0
M  V30 6143 C 564.086 1.56944 -1.72889 0
M  V30 6144 C 565.067 1.59979 -0.577997 0
M  V30 6145 O 566.252 1.76138 -0.817855 0
M  V30 6146 C 563.382 2.95225 -1.8292 0
M  V30 6147 C 562.336 3.07056 -2.98162 0
M  V30 6148 C 561.662 4.47051 -2.93343 0
M  V30 6149 C 562.962 2.83648 -4.38567 0
M  V30 6150 H 564.656 1.38547 -2.65415 0
M  V30 6151 H 562.202 0.665082 -1.27721 0
M  V30 6152 H 564.155 3.72467 -1.97095 0
M  V30 6153 H 562.879 3.14793 -0.870209 0
M  V30 6154 H 561.538 2.32248 -2.83648 0
M  V30 6155 H 561.186 4.63547 -1.95276 0
M  V30 6156 H 560.886 4.55902 -3.70712 0
M  V30 6157 H 562.41 5.26304 -3.09575 0
M  V30 6158 H 563.824 3.50636 -4.53572 0
M  V30 6159 H 562.221 3.03937 -5.17438 0
M  V30 6160 H 563.291 1.79451 -4.50472 0
M  V30 6161 N 564.634 1.40294 0.718013 0
M  V30 6162 C 565.88 1.38645 1.48005 0
M  V30 6163 C 566.213 -0.0121202 1.94196 0
M  V30 6164 O 565.488 -0.980309 1.67989 0
M  V30 6165 C 565.771 2.37379 2.70782 0
M  V30 6166 C 565.624 3.8625 2.30501 0
M  V30 6167 C 566.943 2.33685 3.72933 0
M  V30 6168 H 564.062 0.504928 0.536858 0
M  V30 6169 H 566.704 1.71411 0.819649 0
M  V30 6170 H 564.854 2.09568 3.27129 0
M  V30 6171 H 566.526 4.24879 1.79655 0
M  V30 6172 H 564.769 4.02202 1.6253 0
M  V30 6173 H 565.44 4.50847 3.18498 0
M  V30 6174 H 567.916 2.58314 3.2621 0
M  V30 6175 H 566.792 3.0482 4.56482 0
M  V30 6176 H 567.053 1.34765 4.21059 0
M  V30 6177 N 566.112 -0.949982 1.2575 0
M  V30 6178 C 567.352 -1.70994 1.11984 0
M  V30 6179 C 567.716 -1.89095 -0.332746 0
M  V30 6180 O 568.917 -2.62192 -0.592331 0
M  V30 6181 C 567.188 -3.05286 1.85837 0
M  V30 6182 S 568.747 -3.96477 1.88019 0
M  V30 6183 H 565.565 -0.587689 0.400178 0
M  V30 6184 H 568.167 -1.13271 1.59342 0
M  V30 6185 H 566.871 -2.89785 2.90608 0
M  V30 6186 H 566.402 -3.68069 1.38885 0
M  V30 6187 H 568.417 -4.86814 0.96057 0
M  V30 6188 N 567.59 -1.07411 -1.15328 0
M  V30 6189 C 568.836 -0.798831 -1.86404 0
M  V30 6190 C 569.169 0.673433 -1.8215 0
M  V30 6191 O 568.444 1.49428 -1.24505 0
M  V30 6192 C 568.727 -1.30846 -3.35487 0
M  V30 6193 C 568.58 -2.84532 -3.4837 0
M  V30 6194 C 569.899 -0.925486 -4.30259 0
M  V30 6195 H 567.018 -0.291659 -0.676834 0
M  V30 6196 H 569.66 -1.332 -1.35491 0
M  V30 6197 H 567.81 -0.854916 -3.78977 0
M  V30 6198 H 569.482 -3.3818 -3.13739 0
M  V30 6199 H 567.725 -3.22699 -2.8991 0
M  V30 6200 H 568.396 -3.15259 -4.53118 0
M  V30 6201 H 570.872 -1.3163 -3.94731 0
M  V30 6202 H 569.748 -1.3094 -5.33053 0
M  V30 6203 H 570.009 0.168525 -4.41779 0
M  V30 6204 N 569.068 1.32177 -0.85831 0
M  V30 6205 C 570.315 1.97125 -0.463484 0
M  V30 6206 C 570.643 1.67907 0.981705 0
M  V30 6207 O 569.898 0.961717 1.70439 0
M  V30 6208 C 570.197 3.51372 -0.653658 0
M  V30 6209 C 569.863 4.00584 -2.06987 0
M  V30 6210 C 568.525 4.13733 -2.4572 0
M  V30 6211 C 570.877 4.26624 -2.99402 0
M  V30 6212 C 568.205 4.50268 -3.76132 0
M  V30 6213 C 570.557 4.64618 -4.29316 0
M  V30 6214 C 569.221 4.75975 -4.67979 0
M  V30 6215 H 568.491 0.72133 -0.169601 0
M  V30 6216 H 571.138 1.57517 -1.08907 0
M  V30 6217 H 569.443 3.91761 0.0551328 0
M  V30 6218 H 571.14 3.99655 -0.328163 0
M  V30 6219 H 567.73 3.90837 -1.75911 0
M  V30 6220 H 571.914 4.1597 -2.70708 0
M  V30 6221 H 567.17 4.57256 -4.05865 0
M  V30 6222 H 571.344 4.83722 -5.00985 0
M  V30 6223 H 568.971 5.04041 -5.69076 0
M  V30 6224 N 570.547 0.616602 1.45037 0
M  V30 6225 C 571.795 0.115103 2.01772 0
M  V30 6226 C 572.116 -1.2622 1.48639 0
M  V30 6227 O 571.386 -1.83563 0.684199 0
M  V30 6228 H 569.966 0.0395607 0.745952 0
M  V30 6229 H 572.628 0.800032 1.77723 0
M  V30 6230 H 571.724 0.0717274 3.12018 0
M  V30 6231 N 572.025 -1.5352 0.356285 0
M  V30 6232 C 572.955 -2.28372 -0.486661 0
M  V30 6233 C 573.936 -1.30432 -1.09185 0
M  V30 6234 O 575.121 -1.59291 -1.11085 0
M  V30 6235 C 572.251 -3.06604 -1.63129 0
M  V30 6236 C 571.205 -4.12154 -1.15381 0
M  V30 6237 C 570.531 -4.78415 -2.38796 0
M  V30 6238 C 571.831 -5.21724 -0.245179 0
M  V30 6239 H 573.525 -2.99083 0.137797 0
M  V30 6240 H 571.071 -1.43841 0.0677134 0
M  V30 6241 H 573.024 -3.57712 -2.22755 0
M  V30 6242 H 571.748 -2.33568 -2.28284 0
M  V30 6243 H 570.407 -3.61978 -0.580294 0
M  V30 6244 H 570.055 -4.01959 -3.02387 0
M  V30 6245 H 569.755 -5.49734 -2.07524 0
M  V30 6246 H 571.279 -5.32313 -2.99125 0
M  V30 6247 H 572.693 -5.68391 -0.748646 0
M  V30 6248 H 571.09 -6.00095 -0.0237608 0
M  V30 6249 H 572.16 -4.79596 0.715229 0
M  V30 6250 N 573.503 -0.0852151 -1.57369 0
M  V30 6251 C 574.466 0.8627 -2.12344 0
M  V30 6252 C 575.466 1.21746 -1.05046 0
M  V30 6253 O 576.656 1.14852 -1.30976 0
M  V30 6254 C 573.788 2.1618 -2.63589 0
M  V30 6255 H 574.981 0.385511 -2.97412 0
M  V30 6256 H 572.534 0.163663 -1.55441 0
M  V30 6257 H 573.269 2.68406 -1.82013 0
M  V30 6258 H 573.054 1.91723 -3.4203 0
M  V30 6259 H 574.544 2.84011 -3.06149 0
M  V30 6260 N 574.981 1.5647 0.188427 0
M  V30 6261 C 575.944 1.9421 1.21718 0
M  V30 6262 C 576.944 0.823901 1.38089 0
M  V30 6263 O 578.134 1.09122 1.35787 0
M  V30 6264 C 575.266 2.22197 2.58537 0
M  V30 6265 H 576.459 2.86252 0.894418 0
M  V30 6266 H 574.012 1.50263 0.430211 0
M  V30 6267 H 574.747 1.32814 2.95856 0
M  V30 6268 H 574.532 3.03688 2.48025 0
M  V30 6269 H 576.022 2.52376 3.3271 0
M  V30 6270 N 576.459 -0.456382 1.50847 0
M  V30 6271 C 577.409 -1.55045 1.67168 0
M  V30 6272 C 578.393 -1.52061 0.525958 0
M  V30 6273 O 579.585 -1.58836 0.781036 0
M  V30 6274 C 576.714 -2.93386 1.78268 0
M  V30 6275 C 575.8 -3.01198 2.98564 0
M  V30 6276 N 576.191 -2.78792 4.22029 0
M  V30 6277 C 574.489 -3.32346 2.97426 0
M  V30 6278 C 575.19 -2.91953 5.03128 0
M  V30 6279 N 574.166 -3.22797 4.37382 0
M  V30 6280 H 577.968 -1.36444 2.60308 0
M  V30 6281 H 575.482 -0.663375 1.48233 0
M  V30 6282 H 577.479 -3.72071 1.88067 0
M  V30 6283 H 576.139 -3.13022 0.862965 0
M  V30 6284 H 577.15 -2.54087 4.51287 0
M  V30 6285 H 573.827 -3.57877 2.15012 0
M  V30 6286 H 575.217 -2.78745 6.11351 0
M  V30 6287 N 577.937 -1.40673 -0.710563 0
M  V30 6288 C 579.183 -1.4043 -1.47142 0
M  V30 6289 C 579.538 -0.00781557 -1.92398 0
M  V30 6290 O 578.831 0.963535 -1.6561 0
M  V30 6291 C 579.025 -2.33253 -2.70791 0
M  V30 6292 C 578.854 -3.81789 -2.37629 0
M  V30 6293 C 577.624 -4.5057 -2.28724 0
M  V30 6294 C 579.822 -4.73152 -2.01572 0
M  V30 6295 N 577.804 -5.84312 -1.88289 0
M  V30 6296 C 579.175 -5.95728 -1.71778 0
M  V30 6297 C 581.23 -4.6094 -1.88252 0
M  V30 6298 C 579.933 -7.07454 -1.30003 0
M  V30 6299 C 581.959 -5.72613 -1.47881 0
M  V30 6300 C 581.321 -6.94278 -1.18987 0
M  V30 6301 H 577.42 -0.569115 -0.536314 0
M  V30 6302 H 580.004 -1.76425 -0.823547 0
M  V30 6303 H 578.175 -1.99378 -3.33321 0
M  V30 6304 H 579.907 -2.23833 -3.37166 0
M  V30 6305 H 576.662 -4.04315 -2.46629 0
M  V30 6306 H 577.086 -6.55153 -1.70596 0
M  V30 6307 H 581.728 -3.67389 -2.09249 0
M  V30 6308 H 579.446 -8.00884 -1.07749 0
M  V30 6309 H 583.032 -5.65161 -1.38145 0
M  V30 6310 H 581.912 -7.79222 -0.88219 0
M  V30 6311 N 579.415 0.9433 -1.26252 0
M  V30 6312 C 580.348 2.04162 -1.01946 0
M  V30 6313 C 581.326 1.62507 0.0550808 0
M  V30 6314 O 582.51 1.883 -0.0869025 0
M  V30 6315 C 579.637 3.34313 -0.54335 0
M  V30 6316 C 578.683 3.94939 -1.61013 0
M  V30 6317 S 579.516 4.29484 -3.19849 0
M  V30 6318 C 580.672 5.62738 -2.74001 0
M  V30 6319 H 580.905 2.24466 -1.94942 0
M  V30 6320 H 578.438 1.08441 -1.09909 0
M  V30 6321 H 580.396 4.09576 -0.275315 0
M  V30 6322 H 579.057 3.11957 0.36629 0
M  V30 6323 H 578.25 4.88812 -1.22795 0
M  V30 6324 H 577.852 3.26202 -1.82943 0
M  V30 6325 H 580.144 6.41356 -2.18333 0
M  V30 6326 H 581.087 6.05839 -3.66558 0
M  V30 6327 H 581.495 5.22514 -2.13634 0
M  V30 6328 N 580.893 1.08022 1.14757 0
M  V30 6329 C 581.856 0.71048 2.1791 0
M  V30 6330 C 582.856 -0.252731 1.58801 0
M  V30 6331 O 584.046 -0.0327915 1.74169 0
M  V30 6332 C 581.178 0.0483203 3.40866 0
M  V30 6333 H 582.371 1.62384 2.52134 0
M  V30 6334 H 579.924 0.877595 1.29337 0
M  V30 6335 H 580.659 -0.876959 3.12218 0
M  V30 6336 H 580.444 0.741189 3.85031 0
M  V30 6337 H 581.934 -0.195471 4.17142 0
M  V30 6338 N 582.371 -1.3172 0.865308 0
M  V30 6339 C 583.611 -1.98675 0.480365 0
M  V30 6340 C 583.975 -1.66929 -0.948621 0
M  V30 6341 O 585.176 -2.27059 -1.43867 0
M  V30 6342 C 583.447 -3.49972 0.724858 0
M  V30 6343 S 585.006 -4.36598 0.439078 0
M  V30 6344 H 581.824 -0.687967 0.179506 0
M  V30 6345 H 584.426 -1.60215 1.12033 0
M  V30 6346 H 583.13 -3.70567 1.76375 0
M  V30 6347 H 582.661 -3.93335 0.0717173 0
M  V30 6348 H 584.676 -4.90792 -0.730564 0
M  V30 6349 N 583.85 -0.624285 -1.44708 0
M  V30 6350 C 585.099 -0.123539 -2.01321 0
M  V30 6351 C 585.412 1.25966 -1.49639 0
M  V30 6352 O 586.618 1.85405 -1.98336 0
M  V30 6353 C 585.074 -0.170124 -3.59498 0
M  V30 6354 C 584.682 -1.55421 -4.20176 0
M  V30 6355 C 586.426 0.274513 -4.23611 0
M  V30 6356 C 584.332 -1.55628 -5.70556 0
M  V30 6357 H 583.263 -0.0424183 -0.752806 0
M  V30 6358 H 585.913 -0.782076 -1.65999 0
M  V30 6359 H 584.296 0.555385 -3.92086 0
M  V30 6360 H 585.47 -2.30276 -3.99136 0
M  V30 6361 H 583.784 -1.94235 -3.68323 0
M  V30 6362 H 586.382 0.292402 -5.339 0
M  V30 6363 H 586.725 1.3005 -3.95465 0
M  V30 6364 H 587.258 -0.398275 -3.95801 0
M  V30 6365 H 583.997 -2.56041 -6.03426 0
M  V30 6366 H 583.517 -0.850563 -5.93739 0
M  V30 6367 H 585.196 -1.28721 -6.34066 0
M  V30 6368 N 585.328 1.53329 -0.364422 0
M  V30 6369 C 586.574 2.02222 0.21855 0
M  V30 6370 C 586.929 1.24702 1.46517 0
M  V30 6371 O 586.222 0.331969 1.88702 0
M  V30 6372 C 586.416 3.52911 0.564661 0
M  V30 6373 C 586.245 4.45023 -0.646862 0
M  V30 6374 C 585.015 4.91838 -1.15858 0
M  V30 6375 C 587.213 4.91581 -1.51172 0
M  V30 6376 N 585.195 5.67955 -2.33025 0
M  V30 6377 C 586.566 5.66028 -2.53006 0
M  V30 6378 C 588.621 4.73656 -1.53473 0
M  V30 6379 C 587.324 6.24457 -3.56996 0
M  V30 6380 C 589.35 5.3295 -2.56356 0
M  V30 6381 C 588.712 6.07282 -3.56914 0
M  V30 6382 H 584.811 0.780832 0.0427199 0
M  V30 6383 H 587.395 1.87937 -0.508704 0
M  V30 6384 H 585.566 3.6736 1.26099 0
M  V30 6385 H 587.298 3.88528 1.13262 0
M  V30 6386 H 584.053 4.68043 -0.723393 0
M  V30 6387 H 584.477 6.10675 -2.92241 0
M  V30 6388 H 589.119 4.15714 -0.770842 0
M  V30 6389 H 586.837 6.81496 -4.34268 0
M  V30 6390 H 590.423 5.20976 -2.58989 0
M  V30 6391 H 589.303 6.52345 -4.35218 0
M  V30 6392 N 586.806 0.0935595 1.57322 0
M  V30 6393 C 588.036 -0.578095 1.98347 0
M  V30 6394 C 588.444 -1.62357 0.971441 0
M  V30 6395 O 587.787 -1.83639 -0.0473959 0
M  V30 6396 C 587.849 -1.28525 3.3574 0
M  V30 6397 C 587.513 -0.390714 4.55327 0
M  V30 6398 C 588.51 0.360522 5.18648 0
M  V30 6399 C 586.195 -0.309221 5.01347 0
M  V30 6400 C 588.189 1.18125 6.26359 0
M  V30 6401 C 585.876 0.515157 6.08925 0
M  V30 6402 C 586.874 1.25904 6.71295 0
M  V30 6403 O 586.562 2.06978 7.76798 0
M  V30 6404 H 586.294 -0.159767 0.656849 0
M  V30 6405 H 588.848 0.169058 2.04703 0
M  V30 6406 H 587.078 -2.07894 3.26063 0
M  V30 6407 H 588.767 -1.85128 3.61223 0
M  V30 6408 H 589.533 0.307285 4.84026 0
M  V30 6409 H 585.412 -0.877881 4.52564 0
M  V30 6410 H 588.956 1.76236 6.74971 0
M  V30 6411 H 584.853 0.56988 6.42979 0
M  V30 6412 H 585.621 1.99644 7.93779 0
M  V30 6413 N 588.284 -1.56567 -0.180126 0
M  V30 6414 C 589.509 -1.85975 -0.918041 0
M  V30 6415 C 589.934 -0.678888 -1.75422 0
M  V30 6416 O 589.292 0.372168 -1.77439 0
M  V30 6417 C 589.34 -3.13731 -1.77779 0
M  V30 6418 O 588.444 -2.95335 -2.87838 0
M  V30 6419 H 587.785 -0.61196 -0.257683 0
M  V30 6420 H 590.315 -2.03798 -0.180923 0
M  V30 6421 H 590.325 -3.4491 -2.17948 0
M  V30 6422 H 589 -3.99293 -1.16352 0
M  V30 6423 H 587.577 -2.7549 -2.51316 0
M  V30 6424 N 589.762 0.448376 -1.51087 0
M  V30 6425 C 591.011 1.19561 -1.62444 0
M  V30 6426 C 591.324 1.92602 -0.341151 0
M  V30 6427 O 592.53 2.69439 -0.333936 0
M  V30 6428 C 590.986 2.17373 -2.8684 0
M  V30 6429 C 590.594 1.5003 -4.22131 0
M  V30 6430 C 592.338 2.92597 -3.0755 0
M  V30 6431 C 590.245 2.46262 -5.37689 0
M  V30 6432 H 589.175 0.449975 -0.605011 0
M  V30 6433 H 591.826 0.463735 -1.77544 0
M  V30 6434 H 590.208 2.93948 -2.65349 0
M  V30 6435 H 591.382 0.790886 -4.53962 0
M  V30 6436 H 589.697 0.870011 -4.0721 0
M  V30 6437 H 592.294 3.64663 -3.91056 0
M  V30 6438 H 592.637 3.53306 -2.20183 0
M  V30 6439 H 593.17 2.23131 -3.29329 0
M  V30 6440 H 589.909 1.90258 -6.27281 0
M  V30 6441 H 589.429 3.15289 -5.10248 0
M  V30 6442 H 591.108 3.07623 -5.6919 0
M  V30 6443 N 591.24 1.41047 0.703093 0
M  V30 6444 C 592.488 1.39723 1.4602 0
M  V30 6445 C 592.809 0.00461257 1.94999 0
M  V30 6446 O 592.079 -0.952292 1.71196 0
M  V30 6447 H 590.659 0.514281 0.541779 0
M  V30 6448 H 593.321 1.76217 0.832678 0
M  V30 6449 H 592.417 2.07982 2.32701 0
M  V30 6450 N 592.718 -0.936591 1.26751 0
M  V30 6451 C 593.995 -1.66094 1.03306 0
M  V30 6452 C 594.375 -2.06568 -0.435058 0
M  V30 6453 O 593.723 -1.79305 -1.41641 0
M  V30 6454 C 593.933 -2.86969 1.98619 0
M  V30 6455 C 595.281 -3.58516 2.27489 0
M  V30 6456 O 596.305 -2.97082 1.96522 0
M  V30 6457 O 595.164 -4.69181 2.80235 0
M  V30 6458 H 592.258 -0.727568 0.393158 0
M  V30 6459 H 594.804 -0.987914 1.3798 0
M  V30 6460 H 593.576 -2.53985 2.9767 0
M  V30 6461 H 593.199 -3.61996 1.64454 0
M  V30 6462 N 594.196 -1.08629 -1.14182 0
M  V30 6463 C 595.426 -0.837673 -1.88856 0
M  V30 6464 C 595.834 0.614024 -1.78959 0
M  V30 6465 O 595.177 1.43384 -1.14833 0
M  V30 6466 C 595.239 -1.18355 -3.39459 0
M  V30 6467 C 594.903 -2.63848 -3.73139 0
M  V30 6468 C 595.9 -3.62099 -3.73069 0
M  V30 6469 C 593.585 -2.99761 -4.03049 0
M  V30 6470 C 595.579 -4.94292 -4.02435 0
M  V30 6471 C 593.266 -4.32147 -4.32078 0
M  V30 6472 C 594.264 -5.29223 -4.31755 0
M  V30 6473 O 593.952 -6.59229 -4.60079 0
M  V30 6474 H 593.684 -0.301609 -0.604986 0
M  V30 6475 H 596.238 -1.44961 -1.45518 0
M  V30 6476 H 594.468 -0.514628 -3.8326 0
M  V30 6477 H 596.157 -0.915391 -3.95443 0
M  V30 6478 H 596.923 -3.35698 -3.50046 0
M  V30 6479 H 592.802 -2.2484 -4.02453 0
M  V30 6480 H 596.346 -5.70055 -4.02098 0
M  V30 6481 H 592.243 -4.58296 -4.54571 0
M  V30 6482 H 593.011 -6.64578 -4.77785 0
M  V30 6483 N 595.674 1.31259 -0.872281 0
M  V30 6484 C 596.584 2.32221 -0.333255 0
M  V30 6485 C 597.6 1.6481 0.558013 0
M  V30 6486 O 598.776 1.96212 0.454175 0
M  V30 6487 C 595.841 3.43708 0.454479 0
M  V30 6488 C 594.902 4.26774 -0.465024 0
M  V30 6489 C 594.135 5.32937 0.28521 0
M  V30 6490 O 594.358 5.49968 1.513 0
M  V30 6491 O 593.292 6.00834 -0.358126 0
M  V30 6492 H 597.118 2.80252 -1.17016 0
M  V30 6493 H 594.703 1.352 -0.635724 0
M  V30 6494 H 596.585 4.11656 0.900963 0
M  V30 6495 H 595.26 2.97836 1.26789 0
M  V30 6496 H 594.167 3.61571 -0.960055 0
M  V30 6497 H 595.5 4.76217 -1.2441 0
M  V30 6498 N 597.152 0.631951 1.44375 0
M  V30 6499 C 598.401 0.134214 2.01253 0
M  V30 6500 C 598.714 -1.25171 1.50305 0
M  V30 6501 O 599.92 -1.8435 1.99317 0
M  V30 6502 C 598.376 0.189187 3.59402 0
M  V30 6503 C 597.984 1.57647 4.19346 0
M  V30 6504 C 599.728 -0.252044 4.23751 0
M  V30 6505 C 597.635 1.58651 5.69722 0
M  V30 6506 H 596.565 0.0464101 0.75257 0
M  V30 6507 H 599.216 0.790868 1.65582 0
M  V30 6508 H 597.598 -0.534584 3.92375 0
M  V30 6509 H 598.772 2.32389 3.97909 0
M  V30 6510 H 597.087 1.96186 3.67288 0
M  V30 6511 H 599.684 -0.264084 5.34047 0
M  V30 6512 H 600.027 -1.27951 3.96149 0
M  V30 6513 H 600.56 0.41926 3.95584 0
M  V30 6514 H 597.299 2.59237 6.0206 0
M  V30 6515 H 596.819 0.882039 5.93279 0
M  V30 6516 H 598.498 1.32082 6.33375 0
M  V30 6517 N 598.631 -1.53133 0.372548 0
M  V30 6518 C 599.878 -2.01356 -0.214959 0
M  V30 6519 C 600.206 -1.2596 -1.48204 0
M  V30 6520 O 599.461 -0.343511 -1.92662 0
M  V30 6521 C 599.76 -3.53206 -0.545938 0
M  V30 6522 C 599.426 -4.46511 0.627624 0
M  V30 6523 C 598.088 -4.71737 0.949615 0
M  V30 6524 C 600.44 -5.01666 1.41353 0
M  V30 6525 C 597.768 -5.4937 2.05936 0
M  V30 6526 C 600.12 -5.80511 2.51375 0
M  V30 6527 C 598.784 -6.04022 2.84101 0
M  V30 6528 H 598.054 -0.736813 -0.078659 0
M  V30 6529 H 600.701 -1.84682 0.506447 0
M  V30 6530 H 599.006 -3.67864 -1.34845 0
M  V30 6531 H 600.703 -3.87997 -1.01287 0
M  V30 6532 H 597.293 -4.27029 0.366635 0
M  V30 6533 H 601.477 -4.82117 1.17802 0
M  V30 6534 H 596.733 -5.65803 2.31682 0
M  V30 6535 H 600.907 -6.22255 3.12684 0
M  V30 6536 H 598.534 -6.63962 3.70214 0
M  V30 6537 N 600.109 -0.101901 -1.5727 0
M  V30 6538 C 601.386 0.602832 -1.86079 0
M  V30 6539 C 601.766 1.85912 -1 0
M  V30 6540 O 601.114 2.28379 -0.0742488 0
M  V30 6541 C 601.324 0.911694 -3.36881 0
M  V30 6542 C 602.672 1.2722 -4.05093 0
M  V30 6543 O 603.696 1.0025 -3.41802 0
M  V30 6544 O 602.555 1.7776 -5.16782 0
M  V30 6545 H 599.649 0.302366 -0.769743 0
M  V30 6546 H 602.195 -0.135113 -1.69161 0
M  V30 6547 H 600.967 0.0207256 -3.91295 0
M  V30 6548 H 600.59 1.70538 -3.59169 0
M  V30 6549 N 601.587 1.56661 0.17182 0
M  V30 6550 C 602.497 1.99604 1.2327 0
M  V30 6551 C 603.513 0.907333 1.4847 0
M  V30 6552 O 604.689 1.21492 1.60629 0
M  V30 6553 C 601.754 2.34685 2.55194 0
M  V30 6554 C 600.815 3.57381 2.3786 0
M  V30 6555 C 600.048 3.90779 3.63494 0
M  V30 6556 O 600.271 3.25152 4.6865 0
M  V30 6557 O 599.205 4.84129 3.57634 0
M  V30 6558 H 603.031 2.90114 0.898192 0
M  V30 6559 H 600.616 1.44522 0.378647 0
M  V30 6560 H 602.498 2.5822 3.33017 0
M  V30 6561 H 601.173 1.47336 2.88225 0
M  V30 6562 H 600.08 3.39064 1.5807 0
M  V30 6563 H 601.413 4.45268 2.09754 0
M  V30 6564 N 603.065 -0.440357 1.51323 0
M  V30 6565 C 604.342 -1.20109 1.5438 0
M  V30 6566 C 604.722 -2.08866 0.306303 0
M  V30 6567 O 604.07 -2.1723 -0.708773 0
M  V30 6568 C 604.28 -2.00555 2.8562 0
M  V30 6569 C 605.628 -2.577 3.37455 0
M  V30 6570 O 606.652 -2.10769 2.8715 0
M  V30 6571 O 605.511 -3.43289 4.25224 0
M  V30 6572 H 602.605 -0.546668 0.620551 0
M  V30 6573 H 605.151 -0.449672 1.63634 0
M  V30 6574 H 603.923 -1.35346 3.67147 0
M  V30 6575 H 603.546 -2.82768 2.79514 0
M  V30 6576 N 604.543 -1.41418 -0.695603 0
M  V30 6577 C 605.771 -1.4413 -1.48439 0
M  V30 6578 C 606.186 -0.0465698 -1.88743 0
M  V30 6579 O 605.543 0.934117 -1.56782 0
M  V30 6580 C 605.594 -2.34998 -2.74696 0
M  V30 6581 O 605.315 -3.69043 -2.36091 0
M  V30 6582 C 606.816 -2.46513 -3.68438 0
M  V30 6583 H 604.036 -0.490905 -0.457442 0
M  V30 6584 H 606.58 -1.85702 -0.856454 0
M  V30 6585 H 604.735 -1.96735 -3.33728 0
M  V30 6586 H 605.149 -4.17505 -3.17474 0
M  V30 6587 H 606.623 -3.1426 -4.53811 0
M  V30 6588 H 607.1 -1.49638 -4.12922 0
M  V30 6589 H 607.706 -2.85412 -3.1531 0
M  V30 6590 N 606.021 0.929856 -1.27246 0
M  V30 6591 C 606.968 2.03017 -1.09785 0
M  V30 6592 C 607.938 1.661 0.000456744 0
M  V30 6593 O 609.123 1.90116 -0.161462 0
M  V30 6594 C 606.263 3.36878 -0.748816 0
M  V30 6595 C 605.376 3.86763 -1.92453 0
M  V30 6596 C 604.511 5.09061 -1.51758 0
M  V30 6597 C 603.55 5.51237 -2.66091 0
M  V30 6598 N 602.687 6.64732 -2.25999 0
M  V30 6599 H 607.527 2.17285 -2.03939 0
M  V30 6600 H 605.064 1.06448 -1.01524 0
M  V30 6601 H 607.022 4.13855 -0.527283 0
M  V30 6602 H 605.652 3.22424 0.155771 0
M  V30 6603 H 604.704 3.06086 -2.25867 0
M  V30 6604 H 606.016 4.13994 -2.78227 0
M  V30 6605 H 605.17 5.93532 -1.25716 0
M  V30 6606 H 603.909 4.83602 -0.630896 0
M  V30 6607 H 602.914 4.65316 -2.92849 0
M  V30 6608 H 604.139 5.78692 -3.55377 0
M  V30 6609 H 602.085 6.40935 -1.3978 0
M  V30 6610 H 602.002 6.91607 -3.05313 0
M  V30 6611 H 603.27 7.52549 -2.03199 0
M  V30 6612 N 607.499 1.09233 1.13605 0
M  V30 6613 C 608.727 0.848908 1.88683 0
M  V30 6614 C 609.142 -0.599667 1.79024 0
M  V30 6615 O 608.499 -1.41265 1.15544 0
M  V30 6616 C 608.55 1.27273 3.38355 0
M  V30 6617 O 608.271 2.66449 3.47759 0
M  V30 6618 C 609.772 1.0614 4.30406 0
M  V30 6619 H 606.992 0.305549 0.597395 0
M  V30 6620 H 609.536 1.4538 1.43823 0
M  V30 6621 H 607.691 0.711776 3.80805 0
M  V30 6622 H 608.105 2.84264 4.40788 0
M  V30 6623 H 609.579 1.40725 5.33761 0
M  V30 6624 H 610.056 -0.000960332 4.392 0
M  V30 6625 H 610.662 1.60821 3.93722 0
M  V30 6626 N 608.977 -1.30795 0.87923 0
M  V30 6627 C 610.226 -1.95636 0.490875 0
M  V30 6628 C 610.539 -1.70214 -0.963674 0
M  V30 6629 O 611.745 -2.28991 -1.45861 0
M  V30 6630 C 610.201 -3.50271 0.826929 0
M  V30 6631 C 609.809 -3.84521 2.29886 0
M  V30 6632 C 611.553 -4.21456 0.507494 0
M  V30 6633 C 609.46 -5.32309 2.57685 0
M  V30 6634 H 608.39 -0.732238 0.179841 0
M  V30 6635 H 611.041 -1.48829 1.07341 0
M  V30 6636 H 609.423 -3.9562 0.173542 0
M  V30 6637 H 610.597 -3.50102 2.99609 0
M  V30 6638 H 608.912 -3.26425 2.58526 0
M  V30 6639 H 611.509 -5.30199 0.692293 0
M  V30 6640 H 611.852 -4.12614 -0.552718 0
M  V30 6641 H 612.385 -3.81772 1.11782 0
M  V30 6642 H 609.124 -5.46195 3.62424 0
M  V30 6643 H 608.644 -5.68048 1.92566 0
M  V30 6644 H 610.323 -5.99678 2.42889 0
M  V30 6645 N 610.455 -0.639598 -1.44038 0
M  V30 6646 C 611.871 -0.305953 -1.5664 0
M  V30 6647 C 612.071 1.19055 -1.62567 0
M  V30 6648 O 611.127 1.97492 -1.57331 0
M  V30 6649 C 612.44 -1.00533 -2.83397 0
M  V30 6650 C 613.988 -0.984278 -2.97121 0
M  V30 6651 C 614.463 -1.66428 -4.26691 0
M  V30 6652 N 615.954 -1.63127 -4.33525 0
M  V30 6653 C 616.689 -2.12629 -5.32519 0
M  V30 6654 N 616.185 -2.70359 -6.3787 0
M  V30 6655 N 617.978 -2.03208 -5.24083 0
M  V30 6656 H 610.129 -1.6109 -1.38434 0
M  V30 6657 H 612.392 -0.676672 -0.663942 0
M  V30 6658 H 612.098 -2.06034 -2.85032 0
M  V30 6659 H 611.972 -0.548362 -3.73193 0
M  V30 6660 H 614.359 0.0622792 -2.95034 0
M  V30 6661 H 614.44 -1.47981 -2.08651 0
M  V30 6662 H 614.084 -2.71034 -4.29538 0
M  V30 6663 H 614.014 -1.14351 -5.14034 0
M  V30 6664 H 616.505 -1.20987 -3.58009 0
M  V30 6665 H 616.818 -3.05842 -7.09704 0
M  V30 6666 H 615.163 -2.74414 -6.38531 0
M  V30 6667 H 618.354 -1.57823 -4.40692 0
M  V30 6668 H 618.527 -2.42097 -6.01077 0
M  V30 6669 N 611.933 1.52934 -0.380664 0
M  V30 6670 C 612.881 2.27727 0.47361 0
M  V30 6671 C 613.875 1.31288 1.0705 0
M  V30 6672 O 615.081 1.4886 1.01197 0
M  V30 6673 H 611.456 0.732189 0.171475 0
M  V30 6674 H 613.427 2.97864 -0.178785 0
M  V30 6675 C 612.176 3.0904 1.59341 0
M  V30 6676 H 611.499 3.831 1.14343 0
M  V30 6677 H 612.939 3.64527 2.16555 0
M  V30 6678 C 611.398 2.20813 2.54447 0
M  V30 6679 O 611.928 1.82907 3.57642 0
M  V30 6680 N 610.134 1.85145 2.23986 0
M  V30 6681 H 609.681 2.16169 1.40103 0
M  V30 6682 H 609.639 1.26402 2.87871 0
M  V30 6683 N 613.412 0.11024 1.57214 0
M  V30 6684 C 614.36 -0.860586 2.16094 0
M  V30 6685 C 615.354 -1.28156 1.1078 0
M  V30 6686 O 616.56 -1.25433 1.29099 0
M  V30 6687 H 612.935 -0.295606 0.691463 0
M  V30 6688 H 614.906 -0.33942 2.96463 0
M  V30 6689 C 613.655 -2.10421 2.768 0
M  V30 6690 H 612.978 -1.7892 3.5753 0
M  V30 6691 H 614.418 -2.76375 3.21547 0
M  V30 6692 C 612.877 -2.88823 1.73444 0
M  V30 6693 O 613.407 -3.839 1.18251 0
M  V30 6694 N 611.613 -2.52649 1.43586 0
M  V30 6695 H 611.16 -1.754 1.8866 0
M  V30 6696 H 611.118 -3.05403 0.746735 0
M  V30 6697 N 614.89 -1.56749 -0.16351 0
M  V30 6698 C 616.115 -1.86938 -0.898264 0
M  V30 6699 C 616.54 -0.697456 -1.74692 0
M  V30 6700 O 615.898 0.353327 -1.77824 0
M  V30 6701 C 615.946 -3.15599 -1.74441 0
M  V30 6702 O 615.05 -2.98371 -2.8469 0
M  V30 6703 H 614.391 -0.614659 -0.251178 0
M  V30 6704 H 616.921 -2.03979 -0.159298 0
M  V30 6705 H 616.931 -3.47202 -2.14277 0
M  V30 6706 H 615.606 -4.00505 -1.1211 0
M  V30 6707 H 614.183 -2.7814 -2.4838 0
M  V30 6708 N 616.368 0.432326 -1.51554 0
M  V30 6709 C 617.614 1.17997 -1.65675 0
M  V30 6710 C 617.969 1.88794 -0.37076 0
M  V30 6711 O 617.262 1.80817 0.633692 0
M  V30 6712 C 617.456 2.21907 -2.80164 0
M  V30 6713 C 617.285 1.6131 -4.19773 0
M  V30 6714 C 616.055 1.39585 -4.85638 0
M  V30 6715 C 618.253 1.08659 -5.0269 0
M  V30 6716 N 616.235 0.746374 -6.09346 0
M  V30 6717 C 617.606 0.562685 -6.17441 0
M  V30 6718 C 619.661 0.978831 -4.88184 0
M  V30 6719 C 618.364 -0.0584015 -7.19276 0
M  V30 6720 C 620.39 0.371631 -5.90231 0
M  V30 6721 C 619.752 -0.141711 -7.04257 0
M  V30 6722 H 615.851 0.419277 -0.660099 0
M  V30 6723 H 618.435 0.475809 -1.88797 0
M  V30 6724 H 616.606 2.89706 -2.58698 0
M  V30 6725 H 618.338 2.88867 -2.8344 0
M  V30 6726 H 615.093 1.65897 -4.43593 0
M  V30 6727 H 615.517 0.438934 -6.75576 0
M  V30 6728 H 620.159 1.36157 -4.00276 0
M  V30 6729 H 617.877 -0.453262 -8.06828 0
M  V30 6730 H 621.463 0.290086 -5.81076 0
M  V30 6731 H 620.343 -0.60417 -7.81869 0
M  V30 6732 N 617.846 1.41785 0.688094 0
M  V30 6733 C 618.776 1.47 1.8142 0
M  V30 6734 C 619.757 0.327881 1.6691 0
M  V30 6735 O 620.942 0.540362 1.86531 0
M  V30 6736 C 618.072 1.35876 3.19617 0
M  V30 6737 C 617.026 2.47976 3.48844 0
M  V30 6738 C 616.352 2.21915 4.86475 0
M  V30 6739 C 617.652 3.90309 3.47068 0
M  V30 6740 H 619.346 2.41247 1.77314 0
M  V30 6741 H 616.892 1.16116 0.851651 0
M  V30 6742 H 618.845 1.38134 3.98117 0
M  V30 6743 H 617.569 0.38116 3.24368 0
M  V30 6744 H 616.228 2.45013 2.72698 0
M  V30 6745 H 615.876 1.2248 4.8786 0
M  V30 6746 H 615.576 2.97037 5.06994 0
M  V30 6747 H 617.1 2.25901 5.67275 0
M  V30 6748 H 618.514 3.94947 4.1556 0
M  V30 6749 H 616.911 4.65175 3.7912 0
M  V30 6750 H 617.981 4.17927 2.45896 0
M  V30 6751 N 619.324 -0.923095 1.27737 0
M  V30 6752 C 620.554 -1.70277 1.17001 0
M  V30 6753 C 620.962 -1.87188 -0.275199 0
M  V30 6754 O 620.305 -1.39195 -1.19877 0
M  V30 6755 C 620.367 -3.11976 1.78637 0
M  V30 6756 C 620.031 -3.18386 3.27841 0
M  V30 6757 C 621.028 -3.00287 4.2441 0
M  V30 6758 C 618.713 -3.41198 3.68632 0
M  V30 6759 C 620.707 -3.04896 5.59747 0
M  V30 6760 C 618.394 -3.4544 5.04097 0
M  V30 6761 C 619.392 -3.27309 5.99465 0
M  V30 6762 O 619.08 -3.31295 7.32461 0
M  V30 6763 H 618.812 -0.539366 0.407505 0
M  V30 6764 H 621.366 -1.16446 1.69202 0
M  V30 6765 H 619.596 -3.67308 1.20919 0
M  V30 6766 H 621.285 -3.7193 1.6255 0
M  V30 6767 H 622.051 -2.825 3.94232 0
M  V30 6768 H 617.93 -3.54359 2.94873 0
M  V30 6769 H 621.474 -2.90662 6.34162 0
M  V30 6770 H 617.371 -3.62753 5.33929 0
M  V30 6771 H 618.139 -3.47719 7.40968 0
M  V30 6772 N 620.802 -1.09834 -1.13024 0
M  V30 6773 C 621.734 -0.699379 -2.18269 0
M  V30 6774 C 622.747 0.260841 -1.60697 0
M  V30 6775 O 623.936 0.0462538 -1.7844 0
M  V30 6776 C 621.036 -0.0104537 -3.38898 0
M  V30 6777 C 620.209 -0.993275 -4.25973 0
M  V30 6778 C 619.268 -0.336982 -5.2512 0
M  V30 6779 O 618.294 -0.985892 -5.60597 0
M  V30 6780 N 619.496 0.90716 -5.73368 0
M  V30 6781 H 622.261 -1.60486 -2.5311 0
M  V30 6782 H 619.822 -0.986337 -1.28386 0
M  V30 6783 H 621.814 0.43991 -4.02302 0
M  V30 6784 H 620.384 0.797335 -3.0226 0
M  V30 6785 H 619.604 -1.62208 -3.5928 0
M  V30 6786 H 620.892 -1.65876 -4.81002 0
M  V30 6787 H 620.29 1.45384 -5.46699 0
M  V30 6788 H 618.847 1.30077 -6.38689 0
M  V30 6789 N 622.28 1.30327 -0.886154 0
M  V30 6790 C 623.21 2.30549 -0.370028 0
M  V30 6791 C 624.191 1.61039 0.547751 0
M  V30 6792 O 625.376 1.8864 0.461353 0
M  V30 6793 C 622.506 3.44808 0.415275 0
M  V30 6794 C 621.46 4.26024 -0.41085 0
M  V30 6795 C 620.786 5.32347 0.501128 0
M  V30 6796 C 622.086 4.95433 -1.65359 0
M  V30 6797 H 623.78 2.73969 -1.20754 0
M  V30 6798 H 621.326 1.3171 -0.582097 0
M  V30 6799 H 623.279 4.13986 0.78699 0
M  V30 6800 H 622.003 3.00197 1.28644 0
M  V30 6801 H 620.662 3.58535 -0.764719 0
M  V30 6802 H 620.31 4.83982 1.37004 0
M  V30 6803 H 620.01 5.87581 -0.0478356 0
M  V30 6804 H 621.534 6.0438 0.869333 0
M  V30 6805 H 622.948 5.5712 -1.35239 0
M  V30 6806 H 621.345 5.60537 -2.14284 0
M  V30 6807 H 622.415 4.21493 -2.39733 0
M  V30 6808 N 623.758 0.647228 1.43697 0
M  V30 6809 C 624.721 -0.0385101 2.29168 0
M  V30 6810 C 625.721 -0.756487 1.41894 0
M  V30 6811 O 626.911 -0.598641 1.63591 0
M  V30 6812 C 624.043 -1.06524 3.23829 0
M  V30 6813 H 625.236 0.713445 2.9129 0
M  V30 6814 H 622.789 0.408153 1.50877 0
M  V30 6815 H 623.524 -1.84664 2.66589 0
M  V30 6816 H 623.309 -0.554147 3.88164 0
M  V30 6817 H 624.799 -1.54432 3.87996 0
M  V30 6818 N 625.236 -1.5273 0.388769 0
M  V30 6819 C 626.169 -2.22861 -0.490752 0
M  V30 6820 C 627.147 -1.22912 -1.06449 0
M  V30 6821 O 628.331 -1.51896 -1.11624 0
M  V30 6822 C 625.458 -2.94141 -1.67925 0
M  V30 6823 C 624.504 -4.08355 -1.23081 0
M  V30 6824 S 625.337 -5.35077 -0.212786 0
M  V30 6825 C 626.493 -6.09879 -1.40708 0
M  V30 6826 H 626.726 -2.97115 0.104787 0
M  V30 6827 H 624.259 -1.53428 0.172956 0
M  V30 6828 H 626.217 -3.35818 -2.36085 0
M  V30 6829 H 624.878 -2.19568 -2.24608 0
M  V30 6830 H 624.071 -4.57328 -2.11818 0
M  V30 6831 H 623.673 -3.68688 -0.628121 0
M  V30 6832 H 625.965 -6.36018 -2.33424 0
M  V30 6833 H 626.908 -7.01586 -0.958271 0
M  V30 6834 H 627.316 -5.40646 -1.62364 0
M  V30 6835 N 626.714 -0.118576 -1.57153 0
M  V30 6836 C 627.991 0.583062 -1.86708 0
M  V30 6837 C 628.371 1.84841 -1.01967 0
M  V30 6838 O 627.719 2.28288 -0.0984673 0
M  V30 6839 C 627.929 0.875912 -3.3783 0
M  V30 6840 C 629.277 1.22916 -4.0642 0
M  V30 6841 O 630.301 0.966188 -3.42846 0
M  V30 6842 O 629.16 1.72269 -5.18638 0
M  V30 6843 H 626.254 0.294185 -0.772906 0
M  V30 6844 H 628.8 -0.153048 -1.69008 0
M  V30 6845 H 627.572 -0.0207776 -3.91294 0
M  V30 6846 H 627.195 1.66719 -3.60958 0
M  V30 6847 N 628.193 1.56834 0.155195 0
M  V30 6848 C 629.442 1.82088 0.867567 0
M  V30 6849 C 629.755 0.69849 1.82703 0
M  V30 6850 O 630.961 0.836407 2.58295 0
M  V30 6851 C 629.417 3.22707 1.59336 0
M  V30 6852 C 629.025 4.42859 0.676719 0
M  V30 6853 C 630.769 3.57242 2.293 0
M  V30 6854 C 628.676 5.74501 1.40367 0
M  V30 6855 H 627.606 0.679057 0.327715 0
M  V30 6856 H 630.257 1.83105 0.120351 0
M  V30 6857 H 628.639 3.16054 2.38591 0
M  V30 6858 H 629.813 4.60731 -0.0800196 0
M  V30 6859 H 628.128 4.16311 0.0859129 0
M  V30 6860 H 630.725 4.52847 2.84312 0
M  V30 6861 H 631.068 2.82901 3.05406 0
M  V30 6862 H 631.601 3.6552 1.56972 0
M  V30 6863 H 628.34 6.51915 0.684623 0
M  V30 6864 H 627.86 5.60579 2.13332 0
M  V30 6865 H 629.539 6.17016 1.94681 0
M  V30 6866 N 629.671 -0.424282 1.51781 0
M  V30 6867 C 630.919 -1.17028 1.64769 0
M  V30 6868 C 631.24 -1.91409 0.372523 0
M  V30 6869 O 630.51 -1.86091 -0.612108 0
M  V30 6870 H 629.09 -0.434992 0.607282 0
M  V30 6871 H 631.752 -0.485169 1.88765 0
M  V30 6872 H 630.848 -1.8927 2.4816 0
M  V30 6873 N 631.149 -1.42148 -0.680565 0
M  V30 6874 C 632.377 -1.45696 -1.46902 0
M  V30 6875 C 632.792 -0.0665858 -1.88683 0
M  V30 6876 O 632.149 0.917436 -1.57764 0
M  V30 6877 C 632.2 -2.37898 -2.72188 0
M  V30 6878 O 631.921 -3.71526 -2.32163 0
M  V30 6879 C 633.422 -2.50407 -3.65802 0
M  V30 6880 H 630.642 -0.495729 -0.45221 0
M  V30 6881 H 633.186 -1.866 -0.836709 0
M  V30 6882 H 631.341 -2.00263 -3.31622 0
M  V30 6883 H 631.755 -4.20849 -3.13027 0
M  V30 6884 H 633.229 -3.19056 -4.50452 0
M  V30 6885 H 633.706 -1.5401 -4.11312 0
M  V30 6886 H 634.312 -2.8874 -3.12265 0
M  V30 6887 N 632.627 0.916307 -1.28225 0
M  V30 6888 C 634.038 1.48024 -1.13779 0
M  V30 6889 C 634.389 1.94289 0.273139 0
M  V30 6890 O 633.514 1.82226 1.16716 0
M  V30 6891 C 634.109 2.69029 -2.05935 0
M  V30 6892 C 632.668 3.2161 -1.95561 0
M  V30 6893 C 631.815 1.94321 -1.97825 0
M  V30 6894 H 634.766 0.729272 -1.40951 0
M  V30 6895 H 634.787 3.44204 -1.62184 0
M  V30 6896 H 634.299 2.35325 -3.08616 0
M  V30 6897 H 632.4 3.60045 -0.959076 0
M  V30 6898 H 632.513 3.87032 -2.82388 0
M  V30 6899 H 630.877 2.1131 -1.42198 0
M  V30 6900 H 631.66 1.62917 -3.0218 0
M  V30 6901 N 634.105 1.10431 1.1244 0
M  V30 6902 C 635.335 0.867612 1.87499 0
M  V30 6903 C 635.743 -0.585475 1.79913 0
M  V30 6904 O 635.086 -1.41539 1.171 0
M  V30 6905 C 635.148 1.2374 3.37533 0
M  V30 6906 C 634.812 2.69751 3.68895 0
M  V30 6907 C 635.809 3.67988 3.67261 0
M  V30 6908 C 633.494 3.06135 3.98229 0
M  V30 6909 C 635.488 5.00632 3.9452 0
M  V30 6910 C 633.175 4.38967 4.25149 0
M  V30 6911 C 634.173 5.36025 4.23281 0
M  V30 6912 O 633.861 6.66465 4.49533 0
M  V30 6913 H 633.593 0.311196 0.600111 0
M  V30 6914 H 636.147 1.47257 1.43194 0
M  V30 6915 H 634.377 0.575537 3.82393 0
M  V30 6916 H 636.066 0.978187 3.93937 0
M  V30 6917 H 636.832 3.41224 3.44661 0
M  V30 6918 H 632.711 2.31214 3.98825 0
M  V30 6919 H 636.255 5.7638 3.92978 0
M  V30 6920 H 632.152 4.6547 4.47223 0
M  V30 6921 H 632.92 6.72095 4.67152 0
M  V30 6922 N 635.583 -1.29855 0.893053 0
M  V30 6923 C 636.515 -2.26911 0.32311 0
M  V30 6924 C 637.528 -1.54039 -0.526858 0
M  V30 6925 O 638.717 -1.75132 -0.345095 0
M  V30 6926 C 635.817 -3.34266 -0.558509 0
M  V30 6927 C 634.99 -4.36601 0.264222 0
M  V30 6928 C 634.049 -5.23326 -0.549171 0
M  V30 6929 O 633.075 -5.69192 0.0309883 0
M  V30 6930 N 634.277 -5.50008 -1.85664 0
M  V30 6931 H 637.042 -2.76455 1.15726 0
M  V30 6932 H 634.603 -1.4312 0.756859 0
M  V30 6933 H 636.595 -3.89211 -1.1089 0
M  V30 6934 H 635.165 -2.8459 -1.29334 0
M  V30 6935 H 634.385 -3.81409 0.996046 0
M  V30 6936 H 635.673 -5.02019 0.827906 0
M  V30 6937 H 635.071 -5.14542 -2.35081 0
M  V30 6938 H 633.628 -6.07796 -2.35431 0
M  V30 6939 N 637.061 -0.65484 -1.43351 0
M  V30 6940 C 638.308 -0.168892 -2.01794 0
M  V30 6941 C 638.636 1.2177 -1.51665 0
M  V30 6942 O 637.891 1.82717 -0.70092 0
M  V30 6943 C 638.19 -0.130424 -3.57162 0
M  V30 6944 C 637.856 -1.45898 -4.26643 0
M  V30 6945 C 636.518 -1.82279 -4.4534 0
M  V30 6946 C 638.87 -2.33485 -4.65976 0
M  V30 6947 C 636.198 -3.0591 -5.00635 0
M  V30 6948 C 638.55 -3.5641 -5.22642 0
M  V30 6949 C 637.214 -3.92985 -5.39555 0
M  V30 6950 H 636.484 -0.061802 -0.738418 0
M  V30 6951 H 639.131 -0.845869 -1.71806 0
M  V30 6952 H 637.436 0.630008 -3.86702 0
M  V30 6953 H 639.133 0.262465 -4.0014 0
M  V30 6954 H 635.723 -1.16591 -4.12437 0
M  V30 6955 H 639.907 -2.06668 -4.51223 0
M  V30 6956 H 635.163 -3.34295 -5.11915 0
M  V30 6957 H 639.337 -4.24495 -5.52066 0
M  V30 6958 H 636.964 -4.88862 -5.82167 0
M  V30 6959 N 638.539 1.52521 -0.396863 0
M  V30 6960 C 639.487 2.28217 0.44943 0
M  V30 6961 C 640.481 1.32416 1.05652 0
M  V30 6962 O 641.687 1.49925 0.996124 0
M  V30 6963 H 638.062 0.733966 0.1637 0
M  V30 6964 H 640.033 2.97658 -0.210367 0
M  V30 6965 C 638.782 3.10713 1.56054 0
M  V30 6966 H 638.105 3.84291 1.10273 0
M  V30 6967 H 639.545 3.66803 2.12677 0
M  V30 6968 C 638.004 2.23499 2.52091 0
M  V30 6969 O 638.534 1.8669 3.55682 0
M  V30 6970 N 636.74 1.8751 2.2201 0
M  V30 6971 H 636.287 2.17643 1.37802 0
M  V30 6972 H 636.245 1.29448 2.86514 0
M  V30 6973 N 640.017 0.126909 1.57088 0
M  V30 6974 C 641.265 -0.528123 1.95078 0
M  V30 6975 C 641.586 -1.66708 1.0116 0
M  V30 6976 O 640.856 -1.95777 0.0693527 0
M  V30 6977 H 639.436 -0.198087 0.720257 0
M  V30 6978 H 642.098 0.197703 1.93895 0
M  V30 6979 H 641.194 -0.917507 2.98309 0
M  V30 6980 N 641.495 -1.56914 -0.146875 0
M  V30 6981 C 642.72 -1.87881 -0.878386 0
M  V30 6982 C 643.145 -0.715945 -1.73942 0
M  V30 6983 O 642.503 0.334447 -1.78189 0
M  V30 6984 C 642.551 -3.17431 -1.71084 0
M  V30 6985 O 641.655 -3.01374 -2.81509 0
M  V30 6986 H 640.996 -0.617289 -0.244644 0
M  V30 6987 H 643.526 -2.04136 -0.137654 0
M  V30 6988 H 643.536 -3.49455 -2.10582 0
M  V30 6989 H 642.211 -4.01671 -1.07856 0
M  V30 6990 H 640.788 -2.80758 -2.45416 0
M  V30 6991 N 642.974 0.416227 -1.52004 0
M  V30 6992 C 644.222 1.16153 -1.65387 0
M  V30 6993 C 644.543 1.91208 -0.382669 0
M  V30 6994 O 643.813 1.86413 0.602231 0
M  V30 6995 H 642.393 0.431765 -0.60958 0
M  V30 6996 H 645.055 0.475151 -1.89019 0
M  V30 6997 H 644.151 1.87952 -2.4916 0
M  V30 6998 N 644.452 1.42507 0.673017 0
M  V30 6999 C 645.677 1.4668 1.46627 0
M  V30 7000 C 646.102 0.080066 1.8793 0
M  V30 7001 O 645.46 -0.921879 1.56112 0
M  V30 7002 C 645.508 2.40091 2.69051 0
M  V30 7003 O 644.612 1.8735 3.67387 0
M  V30 7004 H 643.953 0.496908 0.44043 0
M  V30 7005 H 646.483 1.87215 0.825334 0
M  V30 7006 H 646.493 2.56731 3.17101 0
M  V30 7007 H 645.168 3.4084 2.3833 0
M  V30 7008 H 643.745 1.80274 3.26429 0
M  V30 7009 N 645.93 -0.909495 1.28709 0
M  V30 7010 C 647.178 -1.65577 1.15882 0
M  V30 7011 C 647.499 -1.928 -0.292108 0
M  V30 7012 O 646.769 -1.54716 -1.20166 0
M  V30 7013 H 645.349 -0.613714 0.425869 0
M  V30 7014 H 648.011 -1.09108 1.61498 0
M  V30 7015 H 647.107 -2.61634 1.70159 0
M  V30 7016 N 647.408 -1.11026 -1.11852 0
M  V30 7017 C 648.355 -0.764662 -2.17765 0
M  V30 7018 C 649.325 0.261854 -1.64023 0
M  V30 7019 O 650.51 0.139748 -1.90288 0
M  V30 7020 C 647.65 -0.209317 -3.44465 0
M  V30 7021 C 646.763 -1.29187 -4.12231 0
M  V30 7022 C 645.898 -0.697523 -5.266 0
M  V30 7023 C 644.937 -1.76023 -5.86244 0
M  V30 7024 N 644.074 -1.18569 -6.92016 0
M  V30 7025 H 648.914 -1.67202 -2.46673 0
M  V30 7026 H 646.451 -0.835065 -1.21099 0
M  V30 7027 H 648.409 0.130599 -4.16996 0
M  V30 7028 H 647.039 0.661251 -3.15955 0
M  V30 7029 H 646.091 -1.74881 -3.37818 0
M  V30 7030 H 647.403 -2.09607 -4.52622 0
M  V30 7031 H 646.557 -0.307412 -6.05921 0
M  V30 7032 H 645.296 0.138044 -4.87505 0
M  V30 7033 H 644.301 -2.1597 -5.05606 0
M  V30 7034 H 645.526 -2.59875 -6.27409 0
M  V30 7035 H 643.472 -0.371695 -6.54946 0
M  V30 7036 H 643.389 -1.92666 -7.31038 0
M  V30 7037 H 644.657 -0.82233 -7.7515 0
M  V30 7038 N 648.886 1.2938 -0.899927 0
M  V30 7039 C 650.132 1.96206 -0.536153 0
M  V30 7040 C 650.487 1.69647 0.90761 0
M  V30 7041 O 649.78 0.999089 1.63489 0
M  V30 7042 C 649.974 3.49114 -0.765113 0
M  V30 7043 C 649.803 3.90538 -2.22958 0
M  V30 7044 C 648.573 4.15395 -2.87706 0
M  V30 7045 C 650.771 4.0224 -3.20479 0
M  V30 7046 N 648.753 4.43389 -4.24593 0
M  V30 7047 C 650.124 4.34288 -4.42486 0
M  V30 7048 C 652.179 3.84716 -3.16066 0
M  V30 7049 C 650.882 4.50638 -5.6064 0
M  V30 7050 C 652.908 4.02276 -4.33507 0
M  V30 7051 C 652.27 4.34684 -5.54283 0
M  V30 7052 H 648.369 0.742364 -0.245804 0
M  V30 7053 H 650.953 1.56314 -1.16078 0
M  V30 7054 H 649.124 3.88028 -0.169861 0
M  V30 7055 H 650.856 4.03035 -0.366751 0
M  V30 7056 H 647.611 4.09164 -2.385 0
M  V30 7057 H 648.035 4.61494 -4.95331 0
M  V30 7058 H 652.677 3.58724 -2.23778 0
M  V30 7059 H 650.395 4.75467 -6.5342 0
M  V30 7060 H 653.981 3.90169 -4.31578 0
M  V30 7061 H 652.861 4.47988 -6.43643 0
M  V30 7062 N 650.364 0.662433 1.43002 0
M  V30 7063 C 651.274 -0.0239199 2.34588 0
M  V30 7064 C 652.29 -0.802255 1.54402 0
M  V30 7065 O 653.466 -0.747401 1.87018 0
M  V30 7066 C 650.531 -0.972098 3.32793 0
M  V30 7067 C 649.592 -0.189673 4.28881 0
M  V30 7068 C 648.825 -1.09269 5.22395 0
M  V30 7069 O 649.048 -2.33209 5.20547 0
M  V30 7070 O 647.982 -0.560136 5.99288 0
M  V30 7071 H 651.808 0.730171 2.94792 0
M  V30 7072 H 649.393 0.422635 1.43297 0
M  V30 7073 H 651.275 -1.51676 3.93157 0
M  V30 7074 H 649.95 -1.70626 2.75079 0
M  V30 7075 H 648.857 0.398794 3.71968 0
M  V30 7076 H 650.19 0.50511 4.89601 0
M  V30 7077 N 651.842 -1.52309 0.404946 0
M  V30 7078 C 653.09 -2.01368 -0.17186 0
M  V30 7079 C 653.411 -1.29261 -1.46002 0
M  V30 7080 O 652.681 -0.41729 -1.91404 0
M  V30 7081 H 651.261 -0.744034 -0.0664993 0
M  V30 7082 H 653.923 -1.87263 0.540228 0
M  V30 7083 H 653.019 -3.09888 -0.370957 0
M  V30 7084 N 653.32 -0.135238 -1.57019 0
M  V30 7085 C 654.568 0.51777 -1.95355 0
M  V30 7086 C 654.889 1.6617 -1.02042 0
M  V30 7087 O 654.159 1.95738 -0.0797343 0
M  V30 7088 H 652.739 0.194264 -0.721298 0
M  V30 7089 H 655.401 -0.207983 -1.93787 0
M  V30 7090 H 654.497 0.901675 -2.98791 0
M  V30 7091 N 654.798 1.5699 0.138552 0
M  V30 7092 C 656.209 1.73171 0.697754 0
M  V30 7093 C 656.56 0.750952 1.8126 0
M  V30 7094 O 655.685 -0.080549 2.1625 0
M  V30 7095 C 656.28 3.13996 1.27248 0
M  V30 7096 C 654.839 3.3175 1.77816 0
M  V30 7097 C 653.986 2.69084 0.669991 0
M  V30 7098 H 656.937 1.5846 -0.0871979 0
M  V30 7099 H 656.958 3.14463 2.14227 0
M  V30 7100 H 656.47 3.85354 0.460855 0
M  V30 7101 H 654.571 2.65403 2.61519 0
M  V30 7102 H 654.684 4.39768 1.90107 0
M  V30 7103 H 653.048 2.29782 1.09874 0
M  V30 7104 H 653.831 3.43053 -0.130329 0
M  V30 7105 N 656.276 -0.40816 1.52223 0
M  V30 7106 C 657.501 -1.18127 1.70472 0
M  V30 7107 C 657.926 -1.83491 0.41384 0
M  V30 7108 O 657.284 -1.70047 -0.628778 0
M  V30 7109 C 657.332 -2.21935 2.84213 0
M  V30 7110 O 656.436 -3.28099 2.4985 0
M  V30 7111 H 655.777 -0.344781 0.56747 0
M  V30 7112 H 658.307 -0.478328 1.9893 0
M  V30 7113 H 658.317 -2.66248 3.09153 0
M  V30 7114 H 656.992 -1.73744 3.7787 0
M  V30 7115 H 655.569 -2.89058 2.35584 0
M  V30 7116 N 657.755 -1.42862 -0.66545 0
M  V30 7117 C 658.702 -1.4707 -1.77874 0
M  V30 7118 C 659.672 -0.321654 -1.62956 0
M  V30 7119 O 660.857 -0.52707 -1.83376 0
M  V30 7120 C 657.997 -1.38788 -3.15962 0
M  V30 7121 C 657.11 -2.63801 -3.42101 0
M  V30 7122 C 656.245 -2.47594 -4.69969 0
M  V30 7123 C 655.284 -3.67936 -4.89172 0
M  V30 7124 N 654.421 -3.50614 -6.08288 0
M  V30 7125 H 659.261 -2.42204 -1.73613 0
M  V30 7126 H 656.798 -1.20239 -0.847401 0
M  V30 7127 H 658.756 -1.31982 -3.95773 0
M  V30 7128 H 657.386 -0.472431 -3.19324 0
M  V30 7129 H 656.438 -2.80935 -2.56475 0
M  V30 7130 H 657.75 -3.53228 -3.52181 0
M  V30 7131 H 656.904 -2.38427 -5.57886 0
M  V30 7132 H 655.643 -1.55672 -4.62188 0
M  V30 7133 H 654.648 -3.77525 -3.99694 0
M  V30 7134 H 655.873 -4.60851 -4.98792 0
M  V30 7135 H 653.819 -2.61417 -6.01662 0
M  V30 7136 H 653.736 -4.33634 -6.19272 0
M  V30 7137 H 655.004 -3.45276 -6.98859 0
M  V30 7138 N 659.233 0.902656 -1.29189 0
M  V30 7139 C 660.181 2.0278 -1.13943 0
M  V30 7140 C 661.175 1.69308 -0.055787 0
M  V30 7141 O 662.381 1.78707 -0.215371 0
M  V30 7142 H 658.756 0.664595 -0.351877 0
M  V30 7143 H 660.727 2.12778 -2.09208 0
M  V30 7144 C 659.476 3.37657 -0.82966 0
M  V30 7145 H 658.799 3.63913 -1.65551 0
M  V30 7146 H 660.239 4.17078 -0.762998 0
M  V30 7147 C 658.698 3.33648 0.466991 0
M  V30 7148 O 659.228 3.72886 1.49395 0
M  V30 7149 N 657.434 2.86745 0.471761 0
M  V30 7150 H 656.981 2.55009 -0.364406 0
M  V30 7151 H 656.939 2.84446 1.33933 0
M  V30 7152 N 660.711 1.11618 1.11262 0
M  V30 7153 C 661.936 0.889013 1.8738 0
M  V30 7154 C 662.361 -0.555884 1.79698 0
M  V30 7155 O 661.719 -1.39272 1.16073 0
M  V30 7156 C 661.767 1.35759 3.34069 0
M  V30 7157 O 660.871 0.530499 4.08974 0
M  V30 7158 H 660.212 0.320082 0.581759 0
M  V30 7159 H 662.742 1.48611 1.40627 0
M  V30 7160 H 662.752 1.35291 3.84916 0
M  V30 7161 H 661.427 2.40973 3.38976 0
M  V30 7162 H 660.004 0.601439 3.68018 0
M  V30 7163 N 662.189 -1.289 0.906776 0
M  V30 7164 C 663.435 -1.95558 0.53712 0
M  V30 7165 C 663.768 -1.71262 -0.915582 0
M  V30 7166 O 663.043 -1.02961 -1.65013 0
M  V30 7167 C 663.326 -3.50198 0.838645 0
M  V30 7168 C 663.179 -3.83923 2.34357 0
M  V30 7169 C 664.498 -4.38861 0.329988 0
M  V30 7170 H 661.617 -0.710289 0.196617 0
M  V30 7171 H 664.259 -1.52392 1.13475 0
M  V30 7172 H 662.409 -3.87096 0.330024 0
M  V30 7173 H 664.081 -3.56933 2.92227 0
M  V30 7174 H 662.324 -3.31215 2.80141 0
M  V30 7175 H 662.995 -4.91883 2.5051 0
M  V30 7176 H 665.471 -4.08996 0.765609 0
M  V30 7177 H 664.347 -5.45931 0.570105 0
M  V30 7178 H 664.608 -4.35352 -0.769511 0
M  V30 7179 N 663.667 -0.670007 -1.42649 0
M  V30 7180 C 664.897 -0.198252 -2.05647 0
M  V30 7181 C 665.305 1.14786 -1.50402 0
M  V30 7182 O 664.648 1.72316 -0.636634 0
M  V30 7183 C 664.71 -0.0507132 -3.59464 0
M  V30 7184 C 664.374 -1.32478 -4.37377 0
M  V30 7185 C 665.371 -2.2572 -4.68344 0
M  V30 7186 C 663.056 -1.57104 -4.77099 0
M  V30 7187 C 665.05 -3.4187 -5.37963 0
M  V30 7188 C 662.737 -2.73543 -5.46459 0
M  V30 7189 C 663.735 -3.65751 -5.76815 0
M  V30 7190 O 663.423 -4.80154 -6.44753 0
M  V30 7191 H 663.155 -0.0950721 -0.669281 0
M  V30 7192 H 665.709 -0.915745 -1.83857 0
M  V30 7193 H 663.939 0.722314 -3.79894 0
M  V30 7194 H 665.628 0.380552 -4.04112 0
M  V30 7195 H 666.394 -2.07943 -4.38161 0
M  V30 7196 H 662.273 -0.862069 -4.52868 0
M  V30 7197 H 665.817 -4.13861 -5.61574 0
M  V30 7198 H 661.714 -2.91248 -5.7606 0
M  V30 7199 H 662.482 -4.79637 -6.63243 0
M  V30 7200 N 665.145 1.52092 -0.413018 0
M  V30 7201 C 666.394 2.01041 0.16287 0
M  V30 7202 C 666.707 1.30288 1.45892 0
M  V30 7203 O 667.913 1.70075 2.11629 0
M  V30 7204 C 666.369 3.58283 0.340806 0
M  V30 7205 C 665.977 4.37955 -0.943377 0
M  V30 7206 C 667.721 4.15452 0.871774 0
M  V30 7207 C 665.628 5.86847 -0.732417 0
M  V30 7208 H 664.558 0.751224 0.0646414 0
M  V30 7209 H 667.209 1.75404 -0.539059 0
M  V30 7210 H 665.591 3.80266 1.10516 0
M  V30 7211 H 666.765 4.2773 -1.71418 0
M  V30 7212 H 665.08 3.92122 -1.40105 0
M  V30 7213 H 667.677 5.24375 1.0457 0
M  V30 7214 H 668.02 3.73057 1.84755 0
M  V30 7215 H 668.553 3.97452 0.166377 0
M  V30 7216 H 665.292 6.33609 -1.67986 0
M  V30 7217 H 664.812 5.998 -0.000980058 0
M  V30 7218 H 666.491 6.45906 -0.376105 0
M  V30 7219 N 666.623 0.143563 1.56945 0
M  V30 7220 C 667.848 -0.518701 2.00809 0
M  V30 7221 C 668.273 -1.5785 1.02298 0
M  V30 7222 O 667.631 -1.813 -0.0017839 0
M  V30 7223 C 667.679 -1.09929 3.43436 0
M  V30 7224 O 666.783 -2.21425 3.47915 0
M  V30 7225 H 666.124 -0.127215 0.6517 0
M  V30 7226 H 668.654 0.239283 2.03196 0
M  V30 7227 H 668.664 -1.4288 3.82164 0
M  V30 7228 H 667.339 -0.323162 4.14643 0
M  V30 7229 H 665.916 -1.89728 3.21026 0
M  V30 7230 N 668.101 -1.57061 -0.130224 0
M  V30 7231 C 669.326 -1.88802 -0.858409 0
M  V30 7232 C 669.751 -0.734353 -1.73173 0
M  V30 7233 O 669.109 0.315529 -1.78533 0
M  V30 7234 C 669.157 -3.19228 -1.67708 0
M  V30 7235 O 668.261 -3.04343 -2.78297 0
M  V30 7236 H 667.602 -0.619849 -0.238083 0
M  V30 7237 H 670.132 -2.04271 -0.115995 0
M  V30 7238 H 670.142 -3.51669 -2.06864 0
M  V30 7239 H 668.817 -4.02793 -1.0359 0
M  V30 7240 H 667.394 -2.83346 -2.42425 0
M  V30 7241 N 669.579 0.400081 -1.52437 0
M  V30 7242 C 670.509 1.4947 -1.7939 0
M  V30 7243 C 671.49 1.57383 -0.645329 0
M  V30 7244 O 672.675 1.72511 -0.891826 0
M  V30 7245 C 669.805 2.87201 -1.95276 0
M  V30 7246 C 668.759 2.94134 -3.10917 0
M  V30 7247 C 668.085 4.34207 -3.1204 0
M  V30 7248 C 669.385 2.64791 -4.50203 0
M  V30 7249 H 671.079 1.27165 -2.71052 0
M  V30 7250 H 668.625 0.610312 -1.30427 0
M  V30 7251 H 670.578 3.63772 -2.12715 0
M  V30 7252 H 669.302 3.10819 -1.00294 0
M  V30 7253 H 667.961 2.20009 -2.93243 0
M  V30 7254 H 667.609 4.54848 -2.14761 0
M  V30 7255 H 667.309 4.39768 -3.89715 0
M  V30 7256 H 668.833 5.127 -3.31619 0
M  V30 7257 H 670.247 3.31083 -4.68035 0
M  V30 7258 H 668.644 2.81717 -5.29864 0
M  V30 7259 H 669.714 1.60184 -4.57678 0
M  V30 7260 N 671.057 1.43213 0.657864 0
M  V30 7261 C 672.287 1.478 1.44356 0
M  V30 7262 C 672.695 0.0930206 1.88971 0
M  V30 7263 O 672.038 -0.906089 1.59799 0
M  V30 7264 C 672.1 2.35745 2.71412 0
M  V30 7265 C 671.764 3.83359 2.48767 0
M  V30 7266 C 672.761 4.74585 2.12285 0
M  V30 7267 C 670.446 4.27799 2.63235 0
M  V30 7268 C 672.44 6.08247 1.90562 0
M  V30 7269 C 670.127 5.61516 2.41128 0
M  V30 7270 C 671.125 6.51557 2.04847 0
M  V30 7271 O 670.813 7.82802 1.82967 0
M  V30 7272 H 670.545 0.504363 0.450104 0
M  V30 7273 H 673.099 1.88572 0.814241 0
M  V30 7274 H 671.329 1.89852 3.36887 0
M  V30 7275 H 673.018 2.31589 3.33348 0
M  V30 7276 H 673.784 4.41531 2.00687 0
M  V30 7277 H 669.663 3.57993 2.90451 0
M  V30 7278 H 673.207 6.78489 1.62168 0
M  V30 7279 H 669.104 5.94139 2.52327 0
M  V30 7280 H 669.872 7.94332 1.97429 0
M  V30 7281 N 672.536 -0.895792 1.29666 0
M  V30 7282 C 673.783 -1.64664 1.17864 0
M  V30 7283 C 674.111 -1.92631 -0.26902 0
M  V30 7284 O 673.366 -1.53787 -1.21029 0
M  V30 7285 C 673.665 -3.00075 1.94139 0
M  V30 7286 C 673.331 -2.91702 3.43833 0
M  V30 7287 C 671.993 -2.89126 3.84656 0
M  V30 7288 C 674.345 -2.80622 4.39205 0
M  V30 7289 C 671.673 -2.73293 5.1916 0
M  V30 7290 C 674.025 -2.66329 5.73805 0
M  V30 7291 C 672.689 -2.62121 6.1388 0
M  V30 7292 H 671.959 -0.602549 0.431295 0
M  V30 7293 H 674.606 -1.04234 1.60648 0
M  V30 7294 H 672.911 -3.64394 1.43958 0
M  V30 7295 H 674.608 -3.57111 1.82408 0
M  V30 7296 H 671.198 -2.94511 3.11386 0
M  V30 7297 H 675.382 -2.81686 4.08615 0
M  V30 7298 H 670.638 -2.68443 5.49316 0
M  V30 7299 H 674.812 -2.56727 6.47352 0
M  V30 7300 H 672.439 -2.49611 7.18052 0
M  V30 7301 N 674.014 -1.12206 -1.10668 0
M  V30 7302 C 675.242 -0.898635 -1.86366 0
M  V30 7303 C 675.657 0.551991 -1.80551 0
M  V30 7304 O 675.014 1.38152 -1.19249 0
M  V30 7305 C 675.065 -1.36199 -3.34861 0
M  V30 7306 O 674.786 -2.75576 -3.40573 0
M  V30 7307 C 676.287 -1.17515 -4.2744 0
M  V30 7308 H 673.507 -0.321281 -0.589084 0
M  V30 7309 H 676.051 -1.49142 -1.39918 0
M  V30 7310 H 674.206 -0.81249 -3.78784 0
M  V30 7311 H 674.62 -2.95851 -4.33096 0
M  V30 7312 H 676.094 -1.54827 -5.29842 0
M  V30 7313 H 676.571 -0.115486 -4.39048 0
M  V30 7314 H 677.177 -1.71203 -3.89319 0
M  V30 7315 N 675.492 1.28418 -0.913599 0
M  V30 7316 C 676.425 2.25557 -0.346328 0
M  V30 7317 C 677.403 1.53038 0.549366 0
M  V30 7318 O 678.587 1.81937 0.493055 0
M  V30 7319 C 675.714 3.34915 0.504961 0
M  V30 7320 C 674.76 4.25257 -0.325334 0
M  V30 7321 S 675.593 5.06718 -1.73198 0
M  V30 7322 C 676.749 6.19569 -0.887988 0
M  V30 7323 H 676.982 2.73325 -1.16965 0
M  V30 7324 H 674.515 1.36855 -0.714841 0
M  V30 7325 H 676.473 3.98376 0.990301 0
M  V30 7326 H 675.134 2.85814 1.30267 0
M  V30 7327 H 674.327 5.02947 0.325589 0
M  V30 7328 H 673.929 3.66519 -0.744321 0
M  V30 7329 H 676.221 6.77398 -0.117568 0
M  V30 7330 H 677.164 6.88908 -1.63742 0
M  V30 7331 H 677.572 5.62812 -0.436228 0
M  V30 7332 N 676.97 0.677563 1.42291 0
M  V30 7333 C 678.198 0.209459 2.05837 0
M  V30 7334 C 678.613 -1.13444 1.50917 0
M  V30 7335 O 677.97 -1.70529 0.65008 0
M  V30 7336 C 678.021 0.138819 3.61233 0
M  V30 7337 O 677.742 1.42962 4.14118 0
M  V30 7338 C 679.243 -0.352449 4.41897 0
M  V30 7339 H 676.463 0.101209 0.663323 0
M  V30 7340 H 679.007 0.925077 1.8238 0
M  V30 7341 H 677.162 -0.527505 3.83792 0
M  V30 7342 H 677.576 1.3048 5.08011 0
M  V30 7343 H 679.05 -0.350778 5.50884 0
M  V30 7344 H 679.527 -1.3882 4.16684 0
M  V30 7345 H 680.133 0.282236 4.24362 0
M  V30 7346 N 678.448 -1.51871 0.421078 0
M  V30 7347 C 679.673 -2.0684 -0.152371 0
M  V30 7348 C 680.098 -1.28802 -1.37083 0
M  V30 7349 O 679.456 -0.321482 -1.78427 0
M  V30 7350 C 679.504 -3.57532 -0.469368 0
M  V30 7351 O 678.608 -3.81818 -1.55848 0
M  V30 7352 H 677.949 -0.663939 -0.00898586 0
M  V30 7353 H 680.479 -1.95674 0.597724 0
M  V30 7354 H 680.489 -4.01515 -0.724553 0
M  V30 7355 H 679.164 -4.13761 0.421276 0
M  V30 7356 H 677.741 -3.49709 -1.29453 0
M  V30 7357 N 679.926 -0.151884 -1.56866 0
M  V30 7358 C 680.856 0.781943 -2.20018 0
M  V30 7359 C 681.837 1.25347 -1.14987 0
M  V30 7360 O 683.022 1.31015 -1.43348 0
M  V30 7361 C 680.152 2.01928 -2.82564 0
M  V30 7362 C 679.106 1.68434 -3.93464 0
M  V30 7363 C 678.432 2.99472 -4.42968 0
M  V30 7364 C 679.732 0.927244 -5.14003 0
M  V30 7365 H 681.426 0.255607 -2.98307 0
M  V30 7366 H 678.972 0.121502 -1.43486 0
M  V30 7367 H 680.925 2.67741 -3.25411 0
M  V30 7368 H 679.649 2.56943 -2.01614 0
M  V30 7369 H 678.308 1.04998 -3.51242 0
M  V30 7370 H 677.956 3.52488 -3.58834 0
M  V30 7371 H 677.656 2.77823 -5.17772 0
M  V30 7372 H 679.18 3.66348 -4.88489 0
M  V30 7373 H 680.594 1.48756 -5.53665 0
M  V30 7374 H 678.991 0.810513 -5.94601 0
M  V30 7375 H 680.061 -0.0801163 -4.84834 0
M  V30 7376 N 681.404 1.57128 0.121893 0
M  V30 7377 C 682.632 1.88883 0.844451 0
M  V30 7378 C 683.047 0.742824 1.73573 0
M  V30 7379 O 682.404 -0.286475 1.80238 0
M  V30 7380 C 682.455 3.20076 1.68029 0
M  V30 7381 O 682.176 4.30264 0.824898 0
M  V30 7382 C 683.677 3.65515 2.50826 0
M  V30 7383 H 680.897 0.62549 0.242907 0
M  V30 7384 H 683.441 2.04219 0.107151 0
M  V30 7385 H 681.596 3.06418 2.37038 0
M  V30 7386 H 682.01 5.05439 1.40113 0
M  V30 7387 H 683.484 4.60081 3.05008 0
M  V30 7388 H 683.961 2.92029 3.28048 0
M  V30 7389 H 684.567 3.81952 1.87064 0
M  V30 7390 N 682.882 -0.391992 1.52647 0
M  V30 7391 C 684.107 -1.16312 1.71716 0
M  V30 7392 C 684.532 -1.83042 0.433279 0
M  V30 7393 O 683.89 -1.70705 -0.610707 0
M  V30 7394 C 683.938 -2.18908 2.86551 0
M  V30 7395 O 683.042 -3.2543 2.53316 0
M  V30 7396 H 682.383 -0.338743 0.571095 0
M  V30 7397 H 684.913 -0.457202 1.99426 0
M  V30 7398 H 684.923 -2.62954 3.1196 0
M  V30 7399 H 683.598 -1.69726 3.79692 0
M  V30 7400 H 682.175 -2.86543 2.38637 0
M  V30 7401 N 684.36 -1.4356 -0.65026 0
M  V30 7402 C 685.606 -1.45549 -1.41221 0
M  V30 7403 C 685.939 -0.0805472 -1.94033 0
M  V30 7404 O 685.214 0.899043 -1.72475 0
M  V30 7405 C 685.497 -2.50028 -2.59148 0
M  V30 7406 C 685.35 -3.96808 -2.1181 0
M  V30 7407 C 686.669 -2.51212 -3.61359 0
M  V30 7408 H 683.788 -0.529967 -0.512156 0
M  V30 7409 H 686.43 -1.75127 -0.736933 0
M  V30 7410 H 684.58 -2.24937 -3.16758 0
M  V30 7411 H 686.252 -4.32966 -1.59178 0
M  V30 7412 H 684.495 -4.09498 -1.43156 0
M  V30 7413 H 685.166 -4.6553 -2.96625 0
M  V30 7414 H 687.642 -2.73583 -3.13515 0
M  V30 7415 H 686.518 -3.26252 -4.41419 0
M  V30 7416 H 686.779 -1.54701 -4.1415 0
M  V30 7417 N 685.838 0.888903 -1.30139 0
M  V30 7418 C 687.086 1.63713 -1.18501 0
M  V30 7419 C 687.407 1.9324 0.261399 0
M  V30 7420 O 686.677 1.56608 1.17689 0
M  V30 7421 H 685.257 0.606861 -0.435579 0
M  V30 7422 H 687.919 1.06525 -1.63213 0
M  V30 7423 H 687.015 2.58894 -1.743 0
M  V30 7424 N 687.317 1.12792 1.10072 0
M  V30 7425 C 688.564 0.885545 1.82111 0
M  V30 7426 C 688.892 -0.588519 1.85383 0
M  V30 7427 O 688.147 -1.45124 1.31292 0
M  V30 7428 C 688.446 1.4102 3.28403 0
M  V30 7429 C 688.112 2.89995 3.45273 0
M  V30 7430 C 686.774 3.30671 3.49585 0
M  V30 7431 C 689.126 3.85874 3.50358 0
M  V30 7432 C 686.454 4.65925 3.56553 0
M  V30 7433 C 688.806 5.20963 3.58859 0
M  V30 7434 C 687.47 5.61177 3.61437 0
M  V30 7435 H 686.74 0.324044 0.666391 0
M  V30 7436 H 689.387 1.40874 1.29718 0
M  V30 7437 H 687.692 0.807551 3.83387 0
M  V30 7438 H 689.389 1.19882 3.82661 0
M  V30 7439 H 685.979 2.57537 3.42597 0
M  V30 7440 H 690.163 3.5554 3.46273 0
M  V30 7441 H 685.419 4.96468 3.56833 0
M  V30 7442 H 689.593 5.95079 3.61738 0
M  V30 7443 H 687.22 6.6597 3.66589 0
M  V30 7444 N 688.795 -1.27931 0.920396 0
M  V30 7445 C 690.043 -1.94304 0.555906 0
M  V30 7446 C 690.364 -1.72753 -0.904519 0
M  V30 7447 O 689.634 -1.07104 -1.64029 0
M  V30 7448 H 688.214 -0.719001 0.202599 0
M  V30 7449 H 690.876 -1.55785 1.1712 0
M  V30 7450 H 689.972 -3.02806 0.755981 0
M  V30 7451 N 690.273 -0.685099 -1.4193 0
M  V30 7452 C 691.221 -0.00165985 -2.326 0
M  V30 7453 C 692.215 0.779678 -1.50391 0
M  V30 7454 O 693.421 0.68648 -1.66395 0
M  V30 7455 H 689.796 0.0182616 -0.751778 0
M  V30 7456 H 691.767 -0.783592 -2.87928 0
M  V30 7457 C 690.516 0.928385 -3.35077 0
M  V30 7458 H 689.839 0.336578 -3.98381 0
M  V30 7459 H 691.279 1.37509 -4.01083 0
M  V30 7460 C 689.738 2.03964 -2.68142 0
M  V30 7461 O 690.268 3.12727 -2.5212 0
M  V30 7462 N 688.474 1.81433 -2.27003 0
M  V30 7463 H 688.021 0.929807 -2.40234 0
M  V30 7464 H 687.979 2.55973 -1.82552 0
M  V30 7465 N 691.751 1.51645 -0.429126 0
M  V30 7466 C 693 2.01203 0.141538 0
M  V30 7467 C 693.313 1.31828 1.44502 0
M  V30 7468 O 694.519 1.7231 2.09813 0
M  V30 7469 C 692.975 3.58624 0.302786 0
M  V30 7470 C 692.583 4.3693 -0.989775 0
M  V30 7471 C 694.327 4.16353 0.827661 0
M  V30 7472 C 692.234 5.86037 -0.794619 0
M  V30 7473 H 691.164 0.751867 0.05667 0
M  V30 7474 H 693.815 1.74822 -0.557633 0
M  V30 7475 H 692.197 3.81417 1.06476 0
M  V30 7476 H 693.371 4.25887 -1.75945 0
M  V30 7477 H 691.686 3.90614 -1.44256 0
M  V30 7478 H 694.283 5.25455 0.990026 0
M  V30 7479 H 694.626 3.74995 1.80787 0
M  V30 7480 H 695.159 3.97606 0.124213 0
M  V30 7481 H 691.898 6.31792 -1.74697 0
M  V30 7482 H 691.418 5.99765 -0.0645968 0
M  V30 7483 H 693.097 6.45471 -0.444591 0
M  V30 7484 N 693.229 0.160201 1.56784 0
M  V30 7485 C 694.192 -0.760405 2.16219 0
M  V30 7486 C 695.192 -1.16595 1.10735 0
M  V30 7487 O 696.382 -1.08472 1.36306 0
M  V30 7488 C 693.514 -2.03358 2.73603 0
M  V30 7489 H 694.707 -0.243173 2.98912 0
M  V30 7490 H 692.26 -0.0893139 1.56045 0
M  V30 7491 H 692.995 -2.59416 1.94612 0
M  V30 7492 H 692.78 -1.75186 3.50788 0
M  V30 7493 H 694.27 -2.69081 3.19351 0
M  V30 7494 N 694.707 -1.5719 -0.113559 0
M  V30 7495 C 696.118 -1.74259 -0.670116 0
M  V30 7496 C 696.469 -0.779694 -1.80042 0
M  V30 7497 O 695.594 0.0461353 -2.16351 0
M  V30 7498 C 696.189 -3.15981 -1.22236 0
M  V30 7499 C 694.748 -3.34537 -1.72516 0
M  V30 7500 C 693.895 -2.70116 -0.627098 0
M  V30 7501 H 696.846 -1.58301 0.112396 0
M  V30 7502 H 696.867 -3.17832 -2.09197 0
M  V30 7503 H 696.379 -3.86038 -0.39949 0
M  V30 7504 H 694.48 -2.6953 -2.57263 0
M  V30 7505 H 694.593 -4.42737 -1.83086 0
M  V30 7506 H 692.957 -2.31501 -1.06204 0
M  V30 7507 H 693.74 -3.42802 0.184889 0
M  V30 7508 N 696.185 0.383891 -1.52853 0
M  V30 7509 C 697.41 1.154 -1.7233 0
M  V30 7510 C 697.835 1.82809 -0.44298 0
M  V30 7511 O 697.193 1.71026 0.601645 0
M  V30 7512 C 697.241 2.17386 -2.87708 0
M  V30 7513 O 696.345 3.24082 -2.55038 0
M  V30 7514 H 695.686 0.335709 -0.572883 0
M  V30 7515 H 698.216 0.44662 -1.99666 0
M  V30 7516 H 698.226 2.61296 -3.1335 0
M  V30 7517 H 696.901 1.6771 -3.80587 0
M  V30 7518 H 695.478 2.85273 -2.40153 0
M  V30 7519 N 697.663 1.43903 0.642637 0
M  V30 7520 C 698.891 1.4954 1.42988 0
M  V30 7521 C 699.306 0.116588 1.8844 0
M  V30 7522 O 698.663 -0.875285 1.60141 0
M  V30 7523 C 698.714 2.45031 2.65785 0
M  V30 7524 O 698.435 3.77551 2.22232 0
M  V30 7525 C 699.936 2.60017 3.59035 0
M  V30 7526 H 697.156 0.507544 0.438907 0
M  V30 7527 H 699.7 1.88752 0.786942 0
M  V30 7528 H 697.855 2.08985 3.26196 0
M  V30 7529 H 698.269 4.29001 3.01759 0
M  V30 7530 H 699.743 3.30887 4.41835 0
M  V30 7531 H 700.22 1.64861 4.07084 0
M  V30 7532 H 700.826 2.96918 3.045 0
M  V30 7533 N 699.141 -0.881989 1.30609 0
M  V30 7534 C 700.418 -1.61563 1.10258 0
M  V30 7535 C 700.798 -2.08228 -0.347053 0
M  V30 7536 O 700.146 -1.85151 -1.33908 0
M  V30 7537 C 700.356 -2.78287 2.10612 0
M  V30 7538 C 701.704 -3.48545 2.4249 0
M  V30 7539 O 702.728 -2.88479 2.08945 0
M  V30 7540 O 701.587 -4.56873 2.99883 0
M  V30 7541 H 698.681 -0.710238 0.423663 0
M  V30 7542 H 701.227 -0.928503 1.42045 0
M  V30 7543 H 699.999 -2.41131 3.08174 0
M  V30 7544 H 699.622 -3.54695 1.79659 0
M  V30 7545 N 700.619 -1.13374 -1.09472 0
M  V30 7546 C 701.868 -0.889844 -1.8101 0
M  V30 7547 C 702.181 0.585686 -1.86625 0
M  V30 7548 O 703.387 0.946497 -2.54467 0
M  V30 7549 C 701.843 -1.54241 -3.25174 0
M  V30 7550 C 701.451 -3.05343 -3.27826 0
M  V30 7551 C 703.195 -1.37919 -4.0147 0
M  V30 7552 C 701.102 -3.63486 -4.6651 0
M  V30 7553 H 700.032 -0.329256 -0.678311 0
M  V30 7554 H 702.683 -1.36139 -1.23038 0
M  V30 7555 H 701.065 -0.998525 -3.83204 0
M  V30 7556 H 702.239 -3.66307 -2.79563 0
M  V30 7557 H 700.554 -3.21175 -2.65019 0
M  V30 7558 H 703.151 -1.78771 -5.03929 0
M  V30 7559 H 703.494 -0.323987 -4.15037 0
M  V30 7560 H 704.027 -1.89284 -3.49881 0
M  V30 7561 H 700.766 -4.68811 -4.58145 0
M  V30 7562 H 700.286 -3.073 -5.15099 0
M  V30 7563 H 701.965 -3.63134 -5.35484 0
M  V30 7564 N 702.098 1.27442 -0.927168 0
M  V30 7565 C 703.008 2.30599 -0.431448 0
M  V30 7566 C 704.024 1.67028 0.48761 0
M  V30 7567 O 705.2 1.97962 0.370546 0
M  V30 7568 C 702.265 3.45327 0.308292 0
M  V30 7569 C 701.326 4.24418 -0.645615 0
M  V30 7570 C 700.559 5.33667 0.0589164 0
M  V30 7571 O 700.782 5.5589 1.27838 0
M  V30 7572 O 699.716 5.98774 -0.612638 0
M  V30 7573 H 703.542 2.75036 -1.28797 0
M  V30 7574 H 701.127 1.32382 -0.692495 0
M  V30 7575 H 703.009 4.15107 0.725555 0
M  V30 7576 H 701.684 3.02945 1.14043 0
M  V30 7577 H 700.591 3.57174 -1.11255 0
M  V30 7578 H 701.924 4.70512 -1.44496 0
M  V30 7579 N 703.576 0.692616 1.41565 0
M  V30 7580 C 704.523 0.0254264 2.30786 0
M  V30 7581 C 705.493 -0.774347 1.46946 0
M  V30 7582 O 706.678 -0.742981 1.7574 0
M  V30 7583 C 703.818 -0.907123 3.32964 0
M  V30 7584 C 702.931 -0.0992784 4.31886 0
M  V30 7585 C 702.066 -1.0292 5.21134 0
M  V30 7586 C 701.105 -0.214088 6.11725 0
M  V30 7587 N 700.242 -1.09766 6.93467 0
M  V30 7588 H 705.082 0.792036 2.87282 0
M  V30 7589 H 702.619 0.4023 1.41492 0
M  V30 7590 H 704.577 -1.46181 3.90752 0
M  V30 7591 H 703.207 -1.64016 2.78026 0
M  V30 7592 H 702.259 0.572287 3.76071 0
M  V30 7593 H 703.571 0.532782 4.95946 0
M  V30 7594 H 702.725 -1.65321 5.83741 0
M  V30 7595 H 701.464 -1.69512 4.57293 0
M  V30 7596 H 700.469 0.42302 5.4817 0
M  V30 7597 H 701.694 0.447995 6.77621 0
M  V30 7598 H 699.64 -1.74965 6.32237 0
M  V30 7599 H 699.557 -0.521099 7.54202 0
M  V30 7600 H 700.825 -1.70858 7.60544 0
M  V30 7601 N 705.054 -1.51416 0.437162 0
M  V30 7602 C 706.303 -2.01275 -0.130865 0
M  V30 7603 C 706.616 -1.32593 -1.438 0
M  V30 7604 O 707.822 -1.7342 -2.08897 0
M  V30 7605 C 706.278 -3.5878 -0.283763 0
M  V30 7606 C 705.886 -4.36399 1.01293 0
M  V30 7607 C 707.63 -4.16786 -0.805569 0
M  V30 7608 C 705.537 -5.85608 0.825687 0
M  V30 7609 H 704.467 -0.752157 -0.0526818 0
M  V30 7610 H 707.118 -1.74524 0.566896 0
M  V30 7611 H 705.5 -3.81976 -1.04452 0
M  V30 7612 H 706.674 -4.24948 1.78201 0
M  V30 7613 H 704.989 -3.89843 1.46326 0
M  V30 7614 H 707.586 -5.25972 -0.962146 0
M  V30 7615 H 707.929 -3.75949 -1.78796 0
M  V30 7616 H 708.462 -3.97666 -0.103125 0
M  V30 7617 H 705.201 -6.30857 1.78045 0
M  V30 7618 H 704.721 -5.99723 0.0964029 0
M  V30 7619 H 706.4 -6.45226 0.478815 0
M  V30 7620 N 706.532 -0.168513 -1.56696 0
M  V30 7621 C 707.779 0.477158 -1.96798 0
M  V30 7622 C 708.107 1.63442 -1.05437 0
M  V30 7623 O 707.362 1.95503 -0.0878903 0
M  V30 7624 C 707.661 1.00441 -3.42996 0
M  V30 7625 C 707.327 -0.0366556 -4.50885 0
M  V30 7626 C 705.989 -0.322785 -4.80116 0
M  V30 7627 C 708.341 -0.743447 -5.1587 0
M  V30 7628 C 705.669 -1.32114 -5.71632 0
M  V30 7629 C 708.021 -1.73077 -6.08463 0
M  V30 7630 C 706.685 -2.02437 -6.36062 0
M  V30 7631 H 705.955 0.174604 -0.720135 0
M  V30 7632 H 708.602 -0.259884 -1.89728 0
M  V30 7633 H 706.907 1.81922 -3.47004 0
M  V30 7634 H 708.604 1.51294 -3.71364 0
M  V30 7635 H 705.194 0.196532 -4.28149 0
M  V30 7636 H 709.378 -0.535602 -4.93401 0
M  V30 7637 H 704.634 -1.55482 -5.913 0
M  V30 7638 H 708.808 -2.28382 -6.57886 0
M  V30 7639 H 706.435 -2.79946 -7.06777 0
M  V30 7640 N 708.01 1.57248 0.105221 0
M  V30 7641 C 708.973 2.00388 1.11252 0
M  V30 7642 C 709.973 0.89594 1.33527 0
M  V30 7643 O 711.163 1.16166 1.29811 0
M  V30 7644 C 708.295 2.35589 2.46395 0
M  V30 7645 H 709.488 2.90591 0.741424 0
M  V30 7646 H 707.041 1.52332 0.349956 0
M  V30 7647 H 707.776 1.4831 2.884 0
M  V30 7648 H 707.561 3.16408 2.31578 0
M  V30 7649 H 709.051 2.69658 3.18864 0
M  V30 7650 N 709.488 -0.375779 1.53054 0
M  V30 7651 C 710.734 -1.12114 1.68992 0
M  V30 7652 C 711.067 -1.8926 0.435238 0
M  V30 7653 O 710.342 -1.86044 -0.567278 0
M  V30 7654 C 710.625 -2.08867 2.93337 0
M  V30 7655 C 710.478 -1.35397 4.28938 0
M  V30 7656 C 711.797 -3.09124 3.13257 0
M  V30 7657 H 708.916 -0.406207 0.614951 0
M  V30 7658 H 711.558 -0.403054 1.85676 0
M  V30 7659 H 709.708 -2.70102 2.79244 0
M  V30 7660 H 711.38 -0.770242 4.54824 0
M  V30 7661 H 709.623 -0.655801 4.28814 0
M  V30 7662 H 710.294 -2.06161 5.12056 0
M  V30 7663 H 712.77 -2.57987 3.26469 0
M  V30 7664 H 711.646 -3.74054 4.01715 0
M  V30 7665 H 711.907 -3.78729 2.28072 0
M  V30 7666 N 710.966 -1.44241 -0.634997 0
M  V30 7667 C 711.929 -1.50457 -1.72903 0
M  V30 7668 C 712.929 -0.387058 -1.56072 0
M  V30 7669 O 714.119 -0.649531 -1.61638 0
M  V30 7670 C 711.251 -1.37477 -3.1195 0
M  V30 7671 H 712.444 -2.47907 -1.68767 0
M  V30 7672 H 709.997 -1.31276 -0.84831 0
M  V30 7673 H 710.732 -0.41106 -3.21684 0
M  V30 7674 H 710.517 -2.18506 -3.25573 0
M  V30 7675 H 712.007 -1.44799 -3.91692 0
M  V30 7676 N 712.444 0.87505 -1.31075 0
M  V30 7677 C 713.693 1.62245 -1.19831 0
M  V30 7678 C 714.006 1.94078 0.24357 0
M  V30 7679 O 715.212 2.67265 0.477646 0
M  V30 7680 C 713.668 2.92464 -2.09744 0
M  V30 7681 C 713.276 2.68134 -3.58898 0
M  V30 7682 C 715.02 3.70449 -2.07287 0
M  V30 7683 C 712.927 3.9423 -4.40836 0
M  V30 7684 H 711.857 0.608741 -0.444916 0
M  V30 7685 H 714.508 0.967947 -1.55894 0
M  V30 7686 H 712.89 3.59262 -1.66574 0
M  V30 7687 H 714.064 2.09776 -4.10281 0
M  V30 7688 H 712.379 2.03511 -3.6328 0
M  V30 7689 H 714.976 4.63983 -2.65752 0
M  V30 7690 H 715.319 4.02611 -1.05876 0
M  V30 7691 H 715.852 3.10528 -2.48631 0
M  V30 7692 H 712.591 3.67221 -5.42982 0
M  V30 7693 H 712.111 4.52058 -3.94213 0
M  V30 7694 H 713.79 4.62162 -4.52786 0
M  V30 7695 N 713.922 1.13953 1.08869 0
M  V30 7696 C 714.855 0.765765 2.14968 0
M  V30 7697 C 715.833 -0.250689 1.60656 0
M  V30 7698 O 717.017 -0.140852 1.87973 0
M  V30 7699 C 714.144 0.136146 3.38426 0
M  V30 7700 C 713.19 1.12201 4.11477 0
M  V30 7701 S 714.023 2.65711 4.64928 0
M  V30 7702 C 715.179 2.04125 5.91679 0
M  V30 7703 H 715.412 1.66444 2.46341 0
M  V30 7704 H 712.945 0.960263 1.20906 0
M  V30 7705 H 714.903 -0.220712 4.09906 0
M  V30 7706 H 713.564 -0.739887 3.05261 0
M  V30 7707 H 712.757 0.629398 5.00055 0
M  V30 7708 H 712.359 1.42262 3.45886 0
M  V30 7709 H 714.651 1.39381 6.63008 0
M  V30 7710 H 715.594 2.90808 6.45629 0
M  V30 7711 H 716.002 1.4905 5.44467 0
M  V30 7712 N 715.4 -1.26948 0.933913 0
M  V30 7713 C 716.333 -2.24977 0.382169 0
M  V30 7714 C 717.311 -1.53893 -0.524949 0
M  V30 7715 O 718.495 -1.82699 -0.464048 0
M  V30 7716 C 715.622 -3.35676 -0.451615 0
M  V30 7717 C 714.668 -4.24686 0.392947 0
M  V30 7718 S 715.501 -5.03898 1.81237 0
M  V30 7719 C 716.657 -6.18078 0.986443 0
M  V30 7720 H 716.89 -2.71429 1.21299 0
M  V30 7721 H 714.423 -1.35701 0.736523 0
M  V30 7722 H 716.381 -3.99901 -0.926797 0
M  V30 7723 H 715.042 -2.8785 -1.25703 0
M  V30 7724 H 714.235 -5.03402 -0.245533 0
M  V30 7725 H 713.837 -3.65288 0.802537 0
M  V30 7726 H 716.129 -6.77125 0.225321 0
M  V30 7727 H 717.072 -6.86216 1.74682 0
M  V30 7728 H 717.48 -5.62047 0.525711 0
M  V30 7729 N 716.879 -0.700114 -1.41195 0
M  V30 7730 C 718.128 -0.230082 -2.00383 0
M  V30 7731 C 718.441 1.17857 -1.56106 0
M  V30 7732 O 719.647 1.74631 -2.07885 0
M  V30 7733 C 718.103 -0.360447 -3.5809 0
M  V30 7734 C 717.711 -1.77475 -4.11347 0
M  V30 7735 C 719.455 0.0495799 -4.24471 0
M  V30 7736 C 717.362 -1.85653 -5.61504 0
M  V30 7737 H 716.292 -0.0822633 -0.749499 0
M  V30 7738 H 718.943 -0.868969 -1.6162 0
M  V30 7739 H 717.325 0.346768 -3.94479 0
M  V30 7740 H 718.499 -2.51109 -3.86369 0
M  V30 7741 H 716.814 -2.13486 -3.57509 0
M  V30 7742 H 719.411 0.00898219 -5.34699 0
M  V30 7743 H 719.754 1.08904 -4.01803 0
M  V30 7744 H 720.287 -0.607521 -3.93134 0
M  V30 7745 H 717.026 -2.87667 -5.89006 0
M  V30 7746 H 716.546 -1.1641 -5.88395 0
M  V30 7747 H 718.225 -1.62151 -6.26351 0
M  V30 7748 N 718.357 1.51182 -0.445186 0
M  V30 7749 C 719.605 2.01753 0.11841 0
M  V30 7750 C 719.926 1.33087 1.42523 0
M  V30 7751 O 719.196 0.467891 1.9023 0
M  V30 7752 H 717.776 0.745536 0.0467492 0
M  V30 7753 H 720.438 1.85765 -0.589688 0
M  V30 7754 H 719.534 3.10762 0.288665 0
M  V30 7755 N 719.835 0.176821 1.56605 0
M  V30 7756 C 721.06 -0.47599 2.01864 0
M  V30 7757 C 721.485 -1.55645 1.05623 0
M  V30 7758 O 720.843 -1.81263 0.0366729 0
M  V30 7759 C 720.891 -1.02619 3.4569 0
M  V30 7760 O 719.995 -2.13996 3.52533 0
M  V30 7761 H 719.336 -0.113363 0.654251 0
M  V30 7762 H 721.866 0.28233 2.02643 0
M  V30 7763 H 721.876 -1.34742 3.85109 0
M  V30 7764 H 720.551 -0.235138 4.15235 0
M  V30 7765 H 719.128 -1.82876 3.24978 0
M  V30 7766 N 721.313 -1.57302 -0.09688 0
M  V30 7767 C 722.243 -2.0497 -1.11846 0
M  V30 7768 C 723.224 -0.938278 -1.41882 0
M  V30 7769 O 724.409 -1.20943 -1.51942 0
M  V30 7770 C 721.539 -2.47264 -2.43881 0
M  V30 7771 C 720.493 -3.62053 -2.28257 0
M  V30 7772 C 719.819 -3.90318 -3.65453 0
M  V30 7773 C 721.119 -4.93005 -1.72461 0
M  V30 7774 H 722.813 -2.90567 -0.721888 0
M  V30 7775 H 720.359 -1.39786 -0.345803 0
M  V30 7776 H 722.312 -2.7922 -3.15617 0
M  V30 7777 H 721.036 -1.58664 -2.8547 0
M  V30 7778 H 719.695 -3.30341 -1.58967 0
M  V30 7779 H 719.343 -2.98889 -4.04567 0
M  V30 7780 H 719.043 -4.67597 -3.55846 0
M  V30 7781 H 720.567 -4.24747 -4.3866 0
M  V30 7782 H 721.981 -5.23354 -2.34036 0
M  V30 7783 H 720.378 -5.74436 -1.73618 0
M  V30 7784 H 721.448 -4.80053 -0.683898 0
M  V30 7785 N 722.791 0.367657 -1.53252 0
M  V30 7786 C 723.721 1.45632 -1.8252 0
M  V30 7787 C 724.702 1.55979 -0.678568 0
M  V30 7788 O 725.887 1.70581 -0.928217 0
M  V30 7789 C 723.017 2.82994 -2.01325 0
M  V30 7790 C 721.971 2.87473 -3.17086 0
M  V30 7791 C 721.297 4.2749 -3.21179 0
M  V30 7792 C 722.597 2.55182 -4.55719 0
M  V30 7793 H 724.291 1.21387 -2.73689 0
M  V30 7794 H 721.837 0.58251 -1.31692 0
M  V30 7795 H 723.79 3.59179 -2.20383 0
M  V30 7796 H 722.514 3.08622 -1.06864 0
M  V30 7797 H 721.173 2.13739 -2.97844 0
M  V30 7798 H 720.821 4.5019 -2.24361 0
M  V30 7799 H 720.521 4.31403 -3.98955 0
M  V30 7800 H 722.045 5.0555 -3.42419 0
M  V30 7801 H 723.459 3.21081 -4.74953 0
M  V30 7802 H 721.856 2.70414 -5.3572 0
M  V30 7803 H 722.926 1.5044 -4.60973 0
M  V30 7804 N 724.269 1.44576 0.627338 0
M  V30 7805 C 725.499 1.50829 1.41189 0
M  V30 7806 C 725.907 0.133083 1.88731 0
M  V30 7807 O 725.25 -0.87199 1.61685 0
M  V30 7808 C 725.312 2.41449 2.66351 0
M  V30 7809 C 724.976 3.88549 2.40579 0
M  V30 7810 C 725.973 4.78981 2.0217 0
M  V30 7811 C 723.658 4.33287 2.54102 0
M  V30 7812 C 725.652 6.12153 1.77618 0
M  V30 7813 C 723.339 5.66505 2.29163 0
M  V30 7814 C 724.337 6.55756 1.9098 0
M  V30 7815 O 724.025 7.86506 1.66321 0
M  V30 7816 H 723.757 0.513797 0.439304 0
M  V30 7817 H 726.311 1.90256 0.774059 0
M  V30 7818 H 724.541 1.96955 3.32784 0
M  V30 7819 H 726.23 2.38608 3.28361 0
M  V30 7820 H 726.996 4.45689 1.91277 0
M  V30 7821 H 722.875 3.64074 2.82792 0
M  V30 7822 H 726.419 6.81776 1.47739 0
M  V30 7823 H 722.316 5.99358 2.39668 0
M  V30 7824 H 723.084 7.98341 1.80536 0
M  V30 7825 N 725.747 -0.868086 1.31537 0
M  V30 7826 C 726.71 -1.95703 1.19302 0
M  V30 7827 C 727.71 -1.60355 0.119612 0
M  V30 7828 O 728.9 -1.70247 0.36902 0
M  V30 7829 C 726.032 -3.30599 0.831684 0
M  V30 7830 H 727.225 -2.07982 2.16064 0
M  V30 7831 H 724.778 -1.05661 1.15176 0
M  V30 7832 H 725.513 -3.2402 -0.134694 0
M  V30 7833 H 725.298 -3.57629 1.60761 0
M  V30 7834 H 726.788 -4.10439 0.770026 0
M  V30 7835 N 727.225 -1.14528 -1.08264 0
M  V30 7836 C 728.453 -0.937964 -1.84418 0
M  V30 7837 C 728.868 0.51357 -1.81681 0
M  V30 7838 O 728.225 1.35591 -1.22153 0
M  V30 7839 C 728.276 -1.43272 -3.31897 0
M  V30 7840 O 727.997 -2.82738 -3.34651 0
M  V30 7841 C 729.498 -1.26555 -4.24851 0
M  V30 7842 H 726.718 -0.333704 -0.582136 0
M  V30 7843 H 729.262 -1.52076 -1.36723 0
M  V30 7844 H 727.417 -0.892653 -3.76975 0
M  V30 7845 H 727.831 -3.04971 -4.26724 0
M  V30 7846 H 729.305 -1.66031 -5.26439 0
M  V30 7847 H 729.782 -0.208589 -4.38704 0
M  V30 7848 H 730.388 -1.79423 -3.856 0
M  V30 7849 N 728.703 1.26451 -0.940633 0
M  V30 7850 C 729.952 1.93071 -0.583656 0
M  V30 7851 C 730.265 1.74618 0.881366 0
M  V30 7852 O 731.471 2.35689 1.34769 0
M  V30 7853 C 729.927 3.45927 -0.993106 0
M  V30 7854 C 729.535 3.73115 -2.4797 0
M  V30 7855 C 731.279 4.18554 -0.707998 0
M  V30 7856 C 729.186 5.19408 -2.82788 0
M  V30 7857 H 728.116 0.722824 -0.214572 0
M  V30 7858 H 730.767 1.43538 -1.1432 0
M  V30 7859 H 729.149 3.94341 -0.362099 0
M  V30 7860 H 730.323 3.35408 -3.15971 0
M  V30 7861 H 728.638 3.13719 -2.73805 0
M  V30 7862 H 731.235 5.26293 -0.94447 0
M  V30 7863 H 731.578 4.14782 0.355225 0
M  V30 7864 H 732.111 3.76003 -1.2987 0
M  V30 7865 H 728.85 5.28281 -3.88071 0
M  V30 7866 H 728.37 5.58214 -2.19449 0
M  V30 7867 H 730.049 5.87407 -2.71224 0
M  V30 7868 N 730.181 0.707592 1.40822 0
M  V30 7869 C 731.428 0.243671 2.01029 0
M  V30 7870 C 731.756 -1.16057 1.5608 0
M  V30 7871 O 731.011 -1.7999 0.768251 0
M  V30 7872 C 731.31 0.262892 3.56432 0
M  V30 7873 C 730.976 1.61632 4.20935 0
M  V30 7874 C 729.638 1.98682 4.38268 0
M  V30 7875 C 731.99 2.50619 4.5699 0
M  V30 7876 C 729.318 3.2428 4.88937 0
M  V30 7877 C 731.67 3.75562 5.09054 0
M  V30 7878 C 730.334 4.12739 5.24598 0
M  V30 7879 H 729.604 0.0891654 0.735616 0
M  V30 7880 H 732.251 0.909051 1.68548 0
M  V30 7881 H 730.556 -0.486052 3.88773 0
M  V30 7882 H 732.253 -0.113775 4.00839 0
M  V30 7883 H 728.843 1.31818 4.07826 0
M  V30 7884 H 733.027 2.23272 4.43242 0
M  V30 7885 H 728.283 3.53064 4.99155 0
M  V30 7886 H 732.457 4.44692 5.35931 0
M  V30 7887 H 730.084 5.10132 5.63622 0
M  V30 7888 N 731.66 -1.50943 0.453197 0
M  V30 7889 C 732.908 -2.01813 -0.107709 0
M  V30 7890 C 733.229 -1.33841 -1.41816 0
M  V30 7891 O 732.499 -0.477973 -1.8998 0
M  V30 7892 H 731.079 -0.745773 -0.0427948 0
M  V30 7893 H 733.741 -1.8545 0.599531 0
M  V30 7894 H 732.837 -3.10911 -0.27218 0
M  V30 7895 N 733.138 -0.185124 -1.56509 0
M  V30 7896 C 734.086 0.756505 -2.19954 0
M  V30 7897 C 735.08 1.22725 -1.16769 0
M  V30 7898 O 736.286 1.1913 -1.34937 0
M  V30 7899 H 732.661 0.262279 -0.704779 0
M  V30 7900 H 734.632 0.197587 -2.97745 0
M  V30 7901 C 733.381 1.96975 -2.86524 0
M  V30 7902 H 732.704 1.61658 -3.65659 0
M  V30 7903 H 734.144 2.60719 -3.34367 0
M  V30 7904 C 732.603 2.80219 -1.87027 0
M  V30 7905 O 733.133 3.77821 -1.36433 0
M  V30 7906 N 731.339 2.4551 -1.55477 0
M  V30 7907 H 730.886 1.66199 -1.96813 0
M  V30 7908 H 730.844 3.01493 -0.891597 0
M  V30 7909 N 734.616 1.57351 0.0885366 0
M  V30 7910 C 735.862 1.86696 0.791996 0
M  V30 7911 C 736.195 0.775148 1.78059 0
M  V30 7912 O 735.47 -0.216247 1.93294 0
M  V30 7913 C 735.753 3.26684 1.51491 0
M  V30 7914 C 735.606 4.465 0.543858 0
M  V30 7915 C 736.925 3.64664 2.46391 0
M  V30 7916 H 734.044 0.679049 0.286463 0
M  V30 7917 H 736.686 1.89919 0.0554866 0
M  V30 7918 H 734.836 3.24067 2.14273 0
M  V30 7919 H 736.508 4.61235 -0.0774597 0
M  V30 7920 H 734.751 4.33567 -0.142228 0
M  V30 7921 H 735.422 5.41192 1.08696 0
M  V30 7922 H 737.898 3.68267 1.93698 0
M  V30 7923 H 736.774 4.63534 2.93986 0
M  V30 7924 H 737.035 2.93698 3.30445 0
M  V30 7925 N 736.094 -0.359525 1.53444 0
M  V30 7926 C 737.322 -1.12198 1.73837 0
M  V30 7927 C 737.737 -1.82854 0.470107 0
M  V30 7928 O 737.094 -1.73781 -0.557349 0
M  V30 7929 C 737.145 -2.14769 2.90786 0
M  V30 7930 O 736.866 -1.46989 4.12706 0
M  V30 7931 C 738.367 -3.03514 3.231 0
M  V30 7932 H 735.587 -0.33524 0.581253 0
M  V30 7933 H 738.131 -0.416598 2.00212 0
M  V30 7934 H 736.286 -2.80896 2.66788 0
M  V30 7935 H 736.7 -2.15378 4.78239 0
M  V30 7936 H 738.174 -3.71453 4.08322 0
M  V30 7937 H 738.651 -3.68658 2.38721 0
M  V30 7938 H 739.257 -2.42996 3.49046 0
M  V30 7939 N 737.572 -1.44907 -0.619662 0
M  V30 7940 C 738.8 -1.51795 -1.40591 0
M  V30 7941 C 739.215 -0.146553 -1.8823 0
M  V30 7942 O 738.572 0.849698 -1.61513 0
M  V30 7943 C 738.623 -2.49229 -2.61853 0
M  V30 7944 O 738.344 -3.81039 -2.16197 0
M  V30 7945 C 739.845 -2.65696 -3.54853 0
M  V30 7946 H 737.065 -0.514463 -0.430777 0
M  V30 7947 H 739.609 -1.8998 -0.756813 0
M  V30 7948 H 737.764 -2.14149 -3.2283 0
M  V30 7949 H 738.178 -4.33747 -2.94896 0
M  V30 7950 H 739.652 -3.37874 -4.36515 0
M  V30 7951 H 740.129 -1.71316 -4.0441 0
M  V30 7952 H 740.735 -3.01724 -2.99737 0
M  V30 7953 N 739.05 0.861098 -1.31996 0
M  V30 7954 C 740.299 1.60965 -1.21545 0
M  V30 7955 C 740.612 1.94325 0.222972 0
M  V30 7956 O 741.818 2.67757 0.449272 0
M  V30 7957 C 740.274 2.90223 -2.12834 0
M  V30 7958 C 739.882 2.64313 -3.61722 0
M  V30 7959 C 741.626 3.68229 -2.11205 0
M  V30 7960 C 739.533 3.89532 -4.44993 0
M  V30 7961 H 738.463 0.603988 -0.451348 0
M  V30 7962 H 741.114 0.951358 -1.56912 0
M  V30 7963 H 739.496 3.57475 -1.70375 0
M  V30 7964 H 740.67 2.05413 -4.12483 0
M  V30 7965 H 738.985 1.99647 -3.65418 0
M  V30 7966 H 741.582 4.61138 -2.70658 0
M  V30 7967 H 741.925 4.01466 -1.1014 0
M  V30 7968 H 742.458 3.07873 -2.51911 0
M  V30 7969 H 739.197 3.61441 -5.46846 0
M  V30 7970 H 738.717 4.47851 -3.98985 0
M  V30 7971 H 740.396 4.57334 -4.57663 0
M  V30 7972 N 740.528 1.15101 1.07655 0
M  V30 7973 C 741.775 0.923974 1.80191 0
M  V30 7974 C 742.103 -0.549065 1.86589 0
M  V30 7975 O 741.358 -1.42307 1.3434 0
M  V30 7976 C 741.657 1.47954 3.25337 0
M  V30 7977 C 741.323 2.97253 3.39044 0
M  V30 7978 C 739.985 3.38012 3.42493 0
M  V30 7979 C 742.337 3.93219 3.42094 0
M  V30 7980 C 739.665 4.73384 3.4659 0
M  V30 7981 C 742.017 5.28458 3.47728 0
M  V30 7982 C 740.681 5.68717 3.49453 0
M  V30 7983 H 739.951 0.338106 0.659367 0
M  V30 7984 H 742.598 1.43594 1.26701 0
M  V30 7985 H 740.903 0.888691 3.81588 0
M  V30 7986 H 742.6 1.27972 3.80032 0
M  V30 7987 H 739.19 2.64746 3.37057 0
M  V30 7988 H 743.374 3.62805 3.38654 0
M  V30 7989 H 738.63 5.03925 3.46222 0
M  V30 7990 H 742.804 6.02618 3.49034 0
M  V30 7991 H 740.431 6.73596 3.5238 0
M  V30 7992 N 742.006 -1.2595 0.947325 0
M  V30 7993 C 742.938 -2.25336 0.41906 0
M  V30 7994 C 743.951 -1.56135 -0.461051 0
M  V30 7995 O 745.14 -1.76438 -0.270505 0
M  V30 7996 C 742.24 -3.36334 -0.416233 0
M  V30 7997 C 741.413 -4.35088 0.449162 0
M  V30 7998 C 740.472 -5.25185 -0.326716 0
M  V30 7999 O 739.498 -5.68548 0.272374 0
M  V30 8000 N 740.7 -5.57388 -1.6217 0
M  V30 8001 H 743.465 -2.71298 1.27348 0
M  V30 8002 H 741.026 -1.39781 0.81688 0
M  V30 8003 H 743.018 -3.93564 -0.942826 0
M  V30 8004 H 741.588 -2.89819 -1.17148 0
M  V30 8005 H 740.808 -3.76841 1.15692 0
M  V30 8006 H 742.096 -4.98056 1.04008 0
M  V30 8007 H 741.494 -5.2405 -2.13046 0
M  V30 8008 H 740.051 -6.17234 -2.0944 0
M  V30 8009 N 743.484 -0.715051 -1.40445 0
M  V30 8010 C 744.416 -0.0227516 -2.29189 0
M  V30 8011 C 745.429 0.724313 -1.458 0
M  V30 8012 O 746.618 0.571781 -1.69094 0
M  V30 8013 C 743.718 0.992038 -3.24055 0
M  V30 8014 C 742.891 0.310613 -4.36296 0
M  V30 8015 C 741.95 1.23071 -5.11605 0
M  V30 8016 O 740.976 0.71571 -5.64682 0
M  V30 8017 N 742.178 2.56188 -5.2091 0
M  V30 8018 H 744.943 -0.78473 -2.89244 0
M  V30 8019 H 742.504 -0.562637 -1.51809 0
M  V30 8020 H 744.496 1.60973 -3.71308 0
M  V30 8021 H 743.066 1.65538 -2.65171 0
M  V30 8022 H 742.286 -0.487269 -3.91177 0
M  V30 8023 H 743.574 -0.162415 -5.08541 0
M  V30 8024 H 742.972 3.00527 -4.7927 0
M  V30 8025 H 741.529 3.13103 -5.71673 0
M  V30 8026 N 744.962 1.50701 -0.461195 0
M  V30 8027 C 745.895 2.24948 0.383863 0
M  V30 8028 C 746.873 1.27851 1.00464 0
M  V30 8029 O 748.057 1.57049 1.04249 0
M  V30 8030 C 745.184 3.01818 1.537 0
M  V30 8031 C 744.23 4.13762 1.03457 0
M  V30 8032 S 745.063 5.35483 -0.0427485 0
M  V30 8033 C 746.219 6.15898 1.11449 0
M  V30 8034 H 746.452 2.96277 -0.246425 0
M  V30 8035 H 743.985 1.52428 -0.245961 0
M  V30 8036 H 745.943 3.467 2.19794 0
M  V30 8037 H 744.604 2.30034 2.13877 0
M  V30 8038 H 743.797 4.66914 1.89757 0
M  V30 8039 H 743.399 3.71265 0.4515 0
M  V30 8040 H 745.691 6.46431 2.02813 0
M  V30 8041 H 746.634 7.05359 0.622444 0
M  V30 8042 H 747.042 5.47777 1.36385 0
M  V30 8043 N 746.441 0.193421 1.56409 0
M  V30 8044 C 747.671 -0.450783 2.01622 0
M  V30 8045 C 748.079 -1.5585 1.07273 0
M  V30 8046 O 747.422 -1.83569 0.0694875 0
M  V30 8047 C 747.484 -1.06913 3.43235 0
M  V30 8048 C 747.148 -0.100352 4.5689 0
M  V30 8049 C 748.145 0.689633 5.15306 0
M  V30 8050 C 745.83 0.0102436 5.02299 0
M  V30 8051 C 747.824 1.5772 6.17579 0
M  V30 8052 C 745.511 0.901368 6.04416 0
M  V30 8053 C 746.509 1.68341 6.61929 0
M  V30 8054 O 746.197 2.5596 7.62063 0
M  V30 8055 H 745.929 -0.117671 0.66568 0
M  V30 8056 H 748.483 0.2989 2.03214 0
M  V30 8057 H 746.713 -1.86736 3.38624 0
M  V30 8058 H 748.402 -1.61781 3.72266 0
M  V30 8059 H 749.168 0.614485 4.81092 0
M  V30 8060 H 745.047 -0.58829 4.57231 0
M  V30 8061 H 748.591 2.18805 6.62397 0
M  V30 8062 H 744.488 0.977637 6.38054 0
M  V30 8063 H 745.256 2.49721 7.79475 0
M  V30 8064 N 747.919 -1.57396 -0.0801906 0
M  V30 8065 C 748.882 -2.02133 -1.0805 0
M  V30 8066 C 749.882 -0.91707 -1.32085 0
M  V30 8067 O 751.072 -1.18217 -1.27947 0
M  V30 8068 C 748.204 -2.39479 -2.42616 0
M  V30 8069 H 749.397 -2.91733 -0.6951 0
M  V30 8070 H 746.95 -1.52869 -0.325677 0
M  V30 8071 H 747.685 -1.52879 -2.86004 0
M  V30 8072 H 747.47 -3.20052 -2.26515 0
M  V30 8073 H 748.96 -2.74697 -3.14534 0
M  V30 8074 N 749.397 0.351382 -1.53633 0
M  V30 8075 C 750.345 1.45142 -1.8176 0
M  V30 8076 C 751.339 1.54819 -0.687571 0
M  V30 8077 O 752.545 1.57536 -0.870772 0
M  V30 8078 H 748.92 0.483789 -0.575719 0
M  V30 8079 H 750.891 1.1863 -2.73806 0
M  V30 8080 C 749.64 2.81779 -2.03706 0
M  V30 8081 H 748.963 2.75097 -2.90107 0
M  V30 8082 H 750.403 3.5789 -2.27356 0
M  V30 8083 C 748.862 3.26762 -0.820271 0
M  V30 8084 O 749.392 4.01697 -0.0158603 0
M  V30 8085 N 747.598 2.83472 -0.639699 0
M  V30 8086 H 747.145 2.22655 -1.29547 0
M  V30 8087 H 747.103 3.13924 0.172995 0
M  V30 8088 N 750.875 1.45233 0.611969 0
M  V30 8089 C 752.103 1.52539 1.39784 0
M  V30 8090 C 752.518 0.156533 1.8815 0
M  V30 8091 O 751.875 -0.84112 1.61961 0
M  V30 8092 C 751.926 2.50614 2.60528 0
M  V30 8093 O 751.647 3.8218 2.14173 0
M  V30 8094 C 753.148 2.67574 3.53439 0
M  V30 8095 H 750.368 0.51674 0.428043 0
M  V30 8096 H 752.912 1.90379 0.746727 0
M  V30 8097 H 751.067 2.15858 3.2169 0
M  V30 8098 H 751.481 4.35305 2.92592 0
M  V30 8099 H 752.955 3.40184 4.34717 0
M  V30 8100 H 753.432 1.73458 4.03496 0
M  V30 8101 H 754.038 3.0331 2.98133 0
M  V30 8102 N 752.353 -0.854086 1.3245 0
M  V30 8103 C 753.301 -1.98411 1.21391 0
M  V30 8104 C 754.295 -1.68984 0.118586 0
M  V30 8105 O 755.501 -1.77784 0.281549 0
M  V30 8106 H 751.876 -0.651077 0.376301 0
M  V30 8107 H 753.847 -2.04867 2.16961 0
M  V30 8108 C 752.596 -3.34345 0.954407 0
M  V30 8109 H 751.919 -3.57518 1.78944 0
M  V30 8110 H 753.359 -4.13959 0.917269 0
M  V30 8111 C 751.818 -3.35151 -0.342838 0
M  V30 8112 O 752.348 -3.78174 -1.35452 0
M  V30 8113 N 750.554 -2.88298 -0.365012 0
M  V30 8114 H 750.101 -2.53481 0.4588 0
M  V30 8115 H 750.059 -2.8922 -1.23284 0
M  V30 8116 N 753.831 -1.1567 -1.07043 0
M  V30 8117 C 755.247 -0.900006 -1.31803 0
M  V30 8118 C 755.447 0.451293 -1.96381 0
M  V30 8119 O 754.503 1.19252 -2.22565 0
M  V30 8120 C 755.816 -2.04334 -2.20609 0
M  V30 8121 C 757.364 -2.07823 -2.34048 0
M  V30 8122 C 757.839 -3.21488 -3.26204 0
M  V30 8123 N 759.33 -3.21156 -3.33786 0
M  V30 8124 C 760.065 -4.05746 -4.05163 0
M  V30 8125 N 759.561 -5.00407 -4.79129 0
M  V30 8126 N 761.354 -3.93759 -4.01136 0
M  V30 8127 H 753.505 -2.02681 -0.635146 0
M  V30 8128 H 755.768 -0.883956 -0.342528 0
M  V30 8129 H 755.474 -3.01895 -1.80423 0
M  V30 8130 H 755.348 -1.97838 -3.21154 0
M  V30 8131 H 757.735 -1.1086 -2.73485 0
M  V30 8132 H 757.816 -2.18386 -1.33197 0
M  V30 8133 H 757.46 -4.18706 -2.87485 0
M  V30 8134 H 757.39 -3.08162 -4.27017 0
M  V30 8135 H 759.881 -2.52606 -2.81067 0
M  V30 8136 H 760.194 -5.61387 -5.31097 0
M  V30 8137 H 758.539 -5.04393 -4.78135 0
M  V30 8138 H 761.73 -3.19115 -3.42466 0
M  V30 8139 H 761.903 -4.59906 -4.56498 0
M  V30 8140 N 755.309 1.25446 -0.953992 0
M  V30 8141 C 756.539 1.96929 -0.624688 0
M  V30 8142 C 756.947 1.71112 0.807292 0
M  V30 8143 O 756.29 0.983512 1.55154 0
M  V30 8144 C 756.352 3.50425 -0.802676 0
M  V30 8145 C 756.016 3.99916 -2.21169 0
M  V30 8146 C 757.013 4.10662 -3.18831 0
M  V30 8147 C 754.698 4.33598 -2.53571 0
M  V30 8148 C 756.692 4.54401 -4.46988 0
M  V30 8149 C 754.379 4.77024 -3.81958 0
M  V30 8150 C 755.377 4.87388 -4.78478 0
M  V30 8151 O 755.065 5.29851 -6.04577 0
M  V30 8152 H 754.797 0.634511 -0.233179 0
M  V30 8153 H 757.351 1.60591 -1.28061 0
M  V30 8154 H 755.581 3.86596 -0.0896044 0
M  V30 8155 H 757.27 4.03117 -0.47452 0
M  V30 8156 H 758.036 3.84872 -2.95124 0
M  V30 8157 H 753.915 4.24757 -1.79171 0
M  V30 8158 H 757.459 4.62406 -5.22328 0
M  V30 8159 H 753.356 5.02258 -4.05471 0
M  V30 8160 H 754.124 5.48039 -6.07944 0
M  V30 8161 N 756.787 0.722489 1.40064 0
M  V30 8162 C 757.737 0.0506801 2.27944 0
M  V30 8163 C 758.721 -0.725493 1.43615 0
M  V30 8164 O 759.913 -0.596559 1.66644 0
M  V30 8165 C 757.042 -0.865195 3.32219 0
M  V30 8166 C 756.128 -0.0838393 4.24017 0
M  V30 8167 N 756.519 0.936516 4.97054 0
M  V30 8168 C 754.817 -0.315371 4.44884 0
M  V30 8169 C 755.518 1.4066 5.64437 0
M  V30 8170 N 754.494 0.727485 5.3871 0
M  V30 8171 H 758.296 0.832609 2.8186 0
M  V30 8172 H 755.81 0.555691 1.52597 0
M  V30 8173 H 757.807 -1.36186 3.94029 0
M  V30 8174 H 756.467 -1.64642 2.79862 0
M  V30 8175 H 757.478 1.31755 5.0086 0
M  V30 8176 H 754.155 -1.07238 4.03492 0
M  V30 8177 H 755.545 2.25482 6.32936 0
M  V30 8178 N 758.265 -1.50454 0.469181 0
M  V30 8179 C 759.175 -2.32248 -0.331349 0
M  V30 8180 C 760.191 -1.42548 -0.997807 0
M  V30 8181 O 761.367 -1.75602 -0.9862 0
M  V30 8182 C 758.432 -3.17171 -1.40012 0
M  V30 8183 C 757.493 -4.2269 -0.750463 0
M  V30 8184 C 756.726 -5.03554 -1.76831 0
M  V30 8185 O 756.949 -4.85469 -2.99459 0
M  V30 8186 O 755.883 -5.86767 -1.3412 0
M  V30 8187 H 759.709 -3.01821 0.337279 0
M  V30 8188 H 757.294 -1.47602 0.231066 0
M  V30 8189 H 759.176 -3.69871 -2.01924 0
M  V30 8190 H 757.851 -2.50328 -2.05226 0
M  V30 8191 H 756.758 -3.73986 -0.0924446 0
M  V30 8192 H 758.091 -4.91997 -0.14131 0
M  V30 8193 N 759.743 -0.201713 -1.56304 0
M  V30 8194 C 760.676 0.755976 -2.15314 0
M  V30 8195 C 761.654 1.20497 -1.09175 0
M  V30 8196 O 762.838 1.2913 -1.37323 0
M  V30 8197 C 759.965 2.02177 -2.71739 0
M  V30 8198 C 759.011 1.71436 -3.90528 0
M  V30 8199 S 759.844 0.856624 -5.28604 0
M  V30 8200 C 761 2.13242 -5.88455 0
M  V30 8201 H 761.233 0.254348 -2.9621 0
M  V30 8202 H 758.766 0.0133669 -1.54394 0
M  V30 8203 H 760.724 2.74867 -3.04891 0
M  V30 8204 H 759.385 2.49452 -1.90873 0
M  V30 8205 H 758.578 2.65433 -4.28441 0
M  V30 8206 H 758.18 1.06823 -3.5842 0
M  V30 8207 H 760.472 3.08435 -6.0322 0
M  V30 8208 H 761.415 1.7975 -6.84905 0
M  V30 8209 H 761.823 2.2639 -5.17115 0
M  V30 8210 N 761.222 1.57436 0.0718424 0
M  V30 8211 C 762.152 2.06724 1.08571 0
M  V30 8212 C 763.133 0.960731 1.40371 0
M  V30 8213 O 764.318 1.23345 1.49999 0
M  V30 8214 C 761.448 2.51112 2.39916 0
M  V30 8215 C 760.402 3.65639 2.22469 0
M  V30 8216 C 759.728 3.96082 3.59198 0
M  V30 8217 C 761.028 4.95687 1.64596 0
M  V30 8218 H 762.722 2.91679 0.675569 0
M  V30 8219 H 760.268 1.40319 0.32352 0
M  V30 8220 H 762.221 2.84206 3.11135 0
M  V30 8221 H 760.945 1.63186 2.8291 0
M  V30 8222 H 759.604 3.32828 1.53691 0
M  V30 8223 H 759.252 3.05287 3.99761 0
M  V30 8224 H 758.952 4.73199 3.48362 0
M  V30 8225 H 760.476 4.31672 4.31847 0
M  V30 8226 H 761.89 5.27011 2.25681 0
M  V30 8227 H 760.287 5.77126 1.64457 0
M  V30 8228 H 761.357 4.8108 0.60744 0
M  V30 8229 N 762.7 -0.34323 1.53817 0
M  V30 8230 C 763.648 -1.44176 1.82527 0
M  V30 8231 C 764.642 -1.54452 0.695772 0
M  V30 8232 O 765.848 -1.57072 0.879114 0
M  V30 8233 H 762.223 -0.480729 0.578277 0
M  V30 8234 H 764.194 -1.17176 2.74431 0
M  V30 8235 C 762.943 -2.80695 2.05197 0
M  V30 8236 H 762.266 -2.73554 2.91561 0
M  V30 8237 H 763.706 -3.56679 2.29251 0
M  V30 8238 C 762.165 -3.26322 0.837589 0
M  V30 8239 O 762.695 -4.01683 0.0371631 0
M  V30 8240 N 760.901 -2.83128 0.654724 0
M  V30 8241 H 760.448 -2.21965 1.30725 0
M  V30 8242 H 760.406 -3.14011 -0.156345 0
M  V30 8243 N 764.178 -1.45556 -0.604258 0
M  V30 8244 C 765.403 -1.53509 -1.39462 0
M  V30 8245 C 765.828 -0.169638 -1.87333 0
M  V30 8246 O 765.186 0.846346 -1.60333 0
M  V30 8247 C 765.234 -2.52654 -2.5729 0
M  V30 8248 O 764.338 -2.04666 -3.5803 0
M  V30 8249 H 763.679 -0.517355 -0.416221 0
M  V30 8250 H 766.209 -1.90939 -0.735072 0
M  V30 8251 H 766.219 -2.71568 -3.04491 0
M  V30 8252 H 764.894 -3.51823 -2.21797 0
M  V30 8253 H 763.471 -1.95643 -3.17456 0
M  V30 8254 N 765.656 0.84705 -1.32902 0
M  V30 8255 C 766.902 1.60414 -1.24078 0
M  V30 8256 C 767.235 1.93217 0.195105 0
M  V30 8257 O 766.51 1.58001 1.13428 0
M  V30 8258 C 766.793 2.91951 -2.108 0
M  V30 8259 C 766.646 2.6588 -3.62805 0
M  V30 8260 C 767.965 3.93299 -1.97494 0
M  V30 8261 H 765.084 0.58206 -0.452079 0
M  V30 8262 H 767.726 0.977562 -1.62922 0
M  V30 8263 H 765.876 3.45425 -1.77802 0
M  V30 8264 H 767.548 2.18902 -4.06054 0
M  V30 8265 H 765.791 1.99716 -3.85092 0
M  V30 8266 H 766.462 3.59574 -4.1882 0
M  V30 8267 H 768.938 3.49105 -2.26417 0
M  V30 8268 H 767.814 4.8318 -2.60438 0
M  V30 8269 H 768.075 4.31887 -0.944782 0
M  V30 8270 N 767.134 1.16236 1.06428 0
M  V30 8271 C 768.55 0.906983 1.31324 0
M  V30 8272 C 768.75 -0.440872 1.96618 0
M  V30 8273 O 767.806 -1.1807 2.23194 0
M  V30 8274 C 769.119 2.05501 2.19522 0
M  V30 8275 C 770.667 2.09061 2.32943 0
M  V30 8276 C 771.142 3.23214 3.24495 0
M  V30 8277 N 772.633 3.22922 3.32078 0
M  V30 8278 C 773.368 4.07889 4.03006 0
M  V30 8279 N 772.864 5.02941 4.76469 0
M  V30 8280 N 774.657 3.95881 3.99043 0
M  V30 8281 H 766.808 2.03015 0.624388 0
M  V30 8282 H 769.071 0.88576 0.337835 0
M  V30 8283 H 768.777 3.02847 1.78819 0
M  V30 8284 H 768.651 1.99538 3.201 0
M  V30 8285 H 771.038 1.12308 2.72893 0
M  V30 8286 H 771.119 2.19089 1.32037 0
M  V30 8287 H 770.763 4.20225 2.85261 0
M  V30 8288 H 770.693 3.10423 4.25377 0
M  V30 8289 H 773.184 2.54093 2.79724 0
M  V30 8290 H 773.497 5.64196 5.28112 0
M  V30 8291 H 771.842 5.06922 4.75453 0
M  V30 8292 H 775.033 3.20927 3.40769 0
M  V30 8293 H 775.206 4.62321 4.54052 0
M  V30 8294 N 768.612 -1.24939 0.960631 0
M  V30 8295 C 769.889 -1.88118 0.535807 0
M  V30 8296 C 770.269 -1.86605 -0.987009 0
M  V30 8297 O 769.617 -1.33375 -1.85536 0
M  V30 8298 C 769.827 -3.30565 1.11927 0
M  V30 8299 C 771.175 -4.07296 1.19981 0
M  V30 8300 O 772.199 -3.39709 1.07126 0
M  V30 8301 O 771.058 -5.28206 1.40218 0
M  V30 8302 H 768.152 -0.807698 0.177631 0
M  V30 8303 H 770.698 -1.32964 1.05445 0
M  V30 8304 H 769.47 -3.26128 2.16231 0
M  V30 8305 H 769.093 -3.93284 0.584245 0
M  V30 8306 N 770.09 -0.729906 -1.39679 0
M  V30 8307 C 771.337 -0.275622 -2.00615 0
M  V30 8308 C 771.665 1.13559 -1.57907 0
M  V30 8309 O 770.92 1.78745 -0.796789 0
M  V30 8310 C 771.219 -0.319564 -3.55968 0
M  V30 8311 C 770.885 -1.68308 -4.1831 0
M  V30 8312 C 769.547 -2.05629 -4.35052 0
M  V30 8313 C 771.899 -2.57857 -4.52945 0
M  V30 8314 C 769.227 -3.32018 -4.83716 0
M  V30 8315 C 771.579 -3.83613 -5.03015 0
M  V30 8316 C 770.243 -4.21033 -5.17965 0
M  V30 8317 H 769.513 -0.100857 -0.734104 0
M  V30 8318 H 772.16 -0.93575 -1.67081 0
M  V30 8319 H 770.465 0.42414 -3.89497 0
M  V30 8320 H 772.162 0.0499905 -4.00969 0
M  V30 8321 H 768.752 -1.3829 -4.05677 0
M  V30 8322 H 772.936 -2.30295 -4.39634 0
M  V30 8323 H 768.192 -3.6096 -4.93475 0
M  V30 8324 H 772.366 -4.53162 -5.28788 0
M  V30 8325 H 769.993 -5.19034 -5.55435 0
M  V30 8326 N 771.568 1.50203 -0.477153 0
M  V30 8327 C 772.498 2.31517 0.303646 0
M  V30 8328 C 773.479 1.38696 0.984753 0
M  V30 8329 O 774.664 1.67615 0.980758 0
M  V30 8330 C 771.794 3.18598 1.38249 0
M  V30 8331 C 770.748 4.2002 0.822645 0
M  V30 8332 C 770.074 4.95878 2.00024 0
M  V30 8333 C 771.374 5.22023 -0.170185 0
M  V30 8334 H 773.068 2.97042 -0.375027 0
M  V30 8335 H 770.614 1.42848 -0.181802 0
M  V30 8336 H 772.567 3.74282 1.93625 0
M  V30 8337 H 771.291 2.5097 2.09002 0
M  V30 8338 H 769.95 3.65445 0.290813 0
M  V30 8339 H 769.598 4.24717 2.69489 0
M  V30 8340 H 769.298 5.64487 1.63183 0
M  V30 8341 H 770.822 5.54399 2.55878 0
M  V30 8342 H 772.236 5.72543 0.294606 0
M  V30 8343 H 770.633 5.98386 -0.453181 0
M  V30 8344 H 771.703 4.72396 -1.09408 0
M  V30 8345 N 773.046 0.209999 1.56195 0
M  V30 8346 C 773.993 -0.704854 2.19774 0
M  V30 8347 C 774.963 -1.19886 1.14964 0
M  V30 8348 O 776.148 -1.26005 1.43274 0
M  V30 8349 C 773.288 -1.91241 2.87265 0
M  V30 8350 C 772.401 -1.45838 4.06639 0
M  V30 8351 C 771.536 -2.6226 4.61945 0
M  V30 8352 C 770.575 -2.13537 5.73645 0
M  V30 8353 N 769.712 -3.2319 6.23292 0
M  V30 8354 H 774.552 -0.155944 2.97592 0
M  V30 8355 H 772.089 -0.0652235 1.46955 0
M  V30 8356 H 774.047 -2.62123 3.24573 0
M  V30 8357 H 772.677 -2.43439 2.11985 0
M  V30 8358 H 771.729 -0.644897 3.74894 0
M  V30 8359 H 773.041 -1.06103 4.87384 0
M  V30 8360 H 772.195 -3.41243 5.01636 0
M  V30 8361 H 770.934 -3.05278 3.80338 0
M  V30 8362 H 769.939 -1.33013 5.33468 0
M  V30 8363 H 771.164 -1.71533 6.57079 0
M  V30 8364 H 769.11 -3.65711 5.44602 0
M  V30 8365 H 769.027 -2.8767 6.99129 0
M  V30 8366 H 770.295 -4.02342 6.67639 0
M  V30 8367 N 774.524 -1.57472 -0.0634922 0
M  V30 8368 C 775.454 -2.07297 -1.07473 0
M  V30 8369 C 776.435 -0.968162 -1.39859 0
M  V30 8370 O 777.62 -1.24139 -1.49343 0
M  V30 8371 C 774.75 -2.52381 -2.38581 0
M  V30 8372 C 773.704 -3.66813 -2.20526 0
M  V30 8373 C 773.03 -3.97982 -3.57092 0
M  V30 8374 C 774.33 -4.96553 -1.61965 0
M  V30 8375 H 776.024 -2.92033 -0.660092 0
M  V30 8376 H 773.57 -1.40488 -0.316074 0
M  V30 8377 H 775.523 -2.85852 -3.09624 0
M  V30 8378 H 774.247 -1.64684 -2.8204 0
M  V30 8379 H 772.906 -3.33639 -1.51924 0
M  V30 8380 H 772.554 -3.07403 -3.98136 0
M  V30 8381 H 772.254 -4.7504 -3.45848 0
M  V30 8382 H 773.778 -4.33956 -4.29552 0
M  V30 8383 H 775.192 -5.28201 -2.22883 0
M  V30 8384 H 773.589 -5.7799 -1.61394 0
M  V30 8385 H 774.659 -4.81396 -0.581918 0
M  V30 8386 N 776.003 0.335068 -1.53997 0
M  V30 8387 C 777.233 1.0926 -1.75345 0
M  V30 8388 C 777.641 1.82568 -0.496545 0
M  V30 8389 O 776.984 1.75525 0.541897 0
M  V30 8390 C 777.046 2.14473 -2.88516 0
M  V30 8391 C 776.71 1.60665 -4.27827 0
M  V30 8392 C 777.707 1.05448 -5.09094 0
M  V30 8393 C 775.392 1.65255 -4.74337 0
M  V30 8394 C 777.386 0.555372 -6.34976 0
M  V30 8395 C 775.073 1.14956 -6.0019 0
M  V30 8396 C 776.071 0.601907 -6.80343 0
M  V30 8397 O 775.759 0.106445 -8.0383 0
M  V30 8398 H 775.491 0.331329 -0.589234 0
M  V30 8399 H 778.045 0.39042 -2.01655 0
M  V30 8400 H 776.275 2.88274 -2.5775 0
M  V30 8401 H 777.964 2.75857 -2.97755 0
M  V30 8402 H 778.73 1.01218 -4.74321 0
M  V30 8403 H 774.609 2.06822 -4.12002 0
M  V30 8404 H 778.153 0.127245 -6.97484 0
M  V30 8405 H 774.05 1.18891 -6.34457 0
M  V30 8406 H 774.818 0.222944 -8.18196 0
M  V30 8407 N 777.481 1.45874 0.596531 0
M  V30 8408 C 778.413 1.51408 1.7207 0
M  V30 8409 C 779.426 0.403738 1.57714 0
M  V30 8410 O 780.615 0.671384 1.65393 0
M  V30 8411 C 777.715 1.3652 3.10186 0
M  V30 8412 C 776.888 2.61428 3.50677 0
M  V30 8413 C 775.947 2.40937 4.67799 0
M  V30 8414 O 774.973 3.14602 4.74357 0
M  V30 8415 N 776.175 1.4621 5.61785 0
M  V30 8416 H 778.94 2.48333 1.67782 0
M  V30 8417 H 776.501 1.41755 0.782129 0
M  V30 8418 H 778.493 1.20606 3.86311 0
M  V30 8419 H 777.063 0.478302 3.08919 0
M  V30 8420 H 776.283 2.92381 2.644 0
M  V30 8421 H 777.571 3.44432 3.74491 0
M  V30 8422 H 776.969 0.854382 5.59211 0
M  V30 8423 H 775.526 1.36264 6.37397 0
M  V30 8424 N 778.959 -0.83999 1.33349 0
M  V30 8425 C 780.205 -1.59753 1.24927 0
M  V30 8426 C 780.538 -1.93318 -0.184855 0
M  V30 8427 O 779.813 -1.586 -1.12589 0
M  V30 8428 C 780.096 -2.90829 2.12345 0
M  V30 8429 C 779.949 -2.63953 3.6421 0
M  V30 8430 C 781.268 -3.92246 1.99577 0
M  V30 8431 H 778.387 -0.579654 0.45516 0
M  V30 8432 H 781.029 -0.968909 1.63439 0
M  V30 8433 H 779.179 -3.44478 1.79631 0
M  V30 8434 H 780.851 -2.16745 4.07209 0
M  V30 8435 H 779.094 -1.97671 3.86146 0
M  V30 8436 H 779.765 -3.57348 4.20721 0
M  V30 8437 H 782.241 -3.479 2.28265 0
M  V30 8438 H 781.117 -4.81793 2.62996 0
M  V30 8439 H 781.378 -4.3138 0.967673 0
M  V30 8440 N 780.437 -1.16799 -1.0581 0
M  V30 8441 C 781.848 -0.95945 -1.60161 0
M  V30 8442 C 782.199 0.49543 -1.89842 0
M  V30 8443 O 781.324 1.36957 -1.67546 0
M  V30 8444 C 781.919 -1.73527 -2.90987 0
M  V30 8445 C 780.478 -1.57158 -3.42021 0
M  V30 8446 C 779.625 -1.74089 -2.15843 0
M  V30 8447 H 782.576 -1.31598 -0.886992 0
M  V30 8448 H 782.597 -1.21397 -3.60615 0
M  V30 8449 H 782.109 -2.79411 -2.69353 0
M  V30 8450 H 780.21 -0.537361 -3.68705 0
M  V30 8451 H 780.323 -2.35858 -4.17022 0
M  V30 8452 H 778.687 -1.16874 -2.26302 0
M  V30 8453 H 779.47 -2.81371 -1.96686 0
M  V30 8454 N 781.915 1.24427 -0.967243 0
M  V30 8455 C 782.862 2.25398 -0.496419 0
M  V30 8456 C 783.832 1.59667 0.457781 0
M  V30 8457 O 785.017 1.87213 0.368246 0
M  V30 8458 C 782.157 3.44474 0.207693 0
M  V30 8459 C 781.27 4.24804 -0.785221 0
M  V30 8460 C 780.405 5.31169 -0.0572631 0
M  V30 8461 C 779.444 6.03195 -1.04027 0
M  V30 8462 N 778.581 7.01265 -0.34235 0
M  V30 8463 H 783.421 2.65039 -1.36229 0
M  V30 8464 H 780.958 1.30288 -0.682902 0
M  V30 8465 H 782.916 4.12376 0.632612 0
M  V30 8466 H 781.546 3.05672 1.03752 0
M  V30 8467 H 780.598 3.56445 -1.32858 0
M  V30 8468 H 781.91 4.74599 -1.53483 0
M  V30 8469 H 781.064 6.05205 0.425674 0
M  V30 8470 H 779.803 4.8228 0.725047 0
M  V30 8471 H 778.808 5.27964 -1.53409 0
M  V30 8472 H 780.033 6.54173 -1.82302 0
M  V30 8473 H 777.979 6.54648 0.420993 0
M  V30 8474 H 777.896 7.48939 -1.03084 0
M  V30 8475 H 779.164 7.7941 0.118634 0
M  V30 8476 N 783.393 0.737304 1.3929 0
M  V30 8477 C 784.641 0.285691 2.00071 0
M  V30 8478 C 784.962 -1.13169 1.58801 0
M  V30 8479 O 784.232 -1.77104 0.837308 0
M  V30 8480 H 782.812 0.102638 0.739915 0
M  V30 8481 H 785.474 0.947775 1.70303 0
M  V30 8482 H 784.57 0.335906 3.10287 0
M  V30 8483 N 784.871 -1.49948 0.485112 0
M  V30 8484 C 785.801 -2.31675 -0.291364 0
M  V30 8485 C 786.782 -1.39216 -0.977383 0
M  V30 8486 O 787.967 -1.68133 -0.971855 0
M  V30 8487 C 785.097 -3.19326 -1.36558 0
M  V30 8488 C 784.051 -4.2045 -0.800359 0
M  V30 8489 C 783.377 -4.96931 -1.97391 0
M  V30 8490 C 784.677 -5.21925 0.197867 0
M  V30 8491 H 786.371 -2.96839 0.390775 0
M  V30 8492 H 783.917 -1.42749 0.189375 0
M  V30 8493 H 785.87 -3.75304 -1.91638 0
M  V30 8494 H 784.594 -2.52074 -2.07668 0
M  V30 8495 H 783.253 -3.65594 -0.271428 0
M  V30 8496 H 782.901 -4.26141 -2.67232 0
M  V30 8497 H 782.601 -5.65344 -1.60187 0
M  V30 8498 H 784.125 -5.55749 -2.52935 0
M  V30 8499 H 785.539 -5.72691 -0.264239 0
M  V30 8500 H 783.936 -5.98138 0.484908 0
M  V30 8501 H 785.006 -4.71809 1.11912 0
M  V30 8502 N 786.349 -0.21828 -1.56081 0
M  V30 8503 C 787.574 0.422302 -2.03055 0
M  V30 8504 C 787.999 1.5279 -1.09713 0
M  V30 8505 O 787.357 1.81102 -0.0847187 0
M  V30 8506 C 787.405 0.934177 -3.48289 0
M  V30 8507 O 786.509 2.04574 -3.58083 0
M  V30 8508 H 785.85 0.0959764 -0.657027 0
M  V30 8509 H 788.38 -0.335958 -2.01823 0
M  V30 8510 H 788.39 1.24484 -3.88546 0
M  V30 8511 H 787.065 0.124963 -4.15712 0
M  V30 8512 H 785.642 1.74196 -3.29712 0
M  V30 8513 N 787.827 1.57504 0.0551401 0
M  V30 8514 C 788.737 2.08198 1.08124 0
M  V30 8515 C 789.753 1.01496 1.41331 0
M  V30 8516 O 790.929 1.33073 1.51174 0
M  V30 8517 C 787.994 2.52968 2.37083 0
M  V30 8518 C 787.055 3.7404 2.10696 0
M  V30 8519 C 786.288 4.16665 3.33505 0
M  V30 8520 O 786.511 3.59019 4.4324 0
M  V30 8521 O 785.445 5.09324 3.20737 0
M  V30 8522 H 789.271 2.95977 0.680518 0
M  V30 8523 H 786.856 1.46933 0.270401 0
M  V30 8524 H 788.738 2.82211 3.12946 0
M  V30 8525 H 787.413 1.6831 2.76502 0
M  V30 8526 H 786.32 3.49855 1.32484 0
M  V30 8527 H 787.653 4.59601 1.76148 0
M  V30 8528 N 789.305 -0.326896 1.54172 0
M  V30 8529 C 790.721 -0.671034 1.44808 0
M  V30 8530 C 790.921 -1.91781 0.618258 0
M  V30 8531 O 789.977 -2.52235 0.115751 0
M  V30 8532 C 791.29 -0.848147 2.88491 0
M  V30 8533 C 792.838 -0.945702 2.98371 0
M  V30 8534 C 793.313 -1.15501 4.43197 0
M  V30 8535 N 794.804 -1.22183 4.46795 0
M  V30 8536 C 795.539 -1.4016 5.56006 0
M  V30 8537 N 795.035 -1.55202 6.75192 0
M  V30 8538 N 796.828 -1.42841 5.43648 0
M  V30 8539 H 788.979 0.49262 2.06608 0
M  V30 8540 H 791.242 0.158574 0.934643 0
M  V30 8541 H 790.948 -0.00329969 3.517 0
M  V30 8542 H 790.822 -1.74497 3.34411 0
M  V30 8543 H 793.209 -1.78106 2.35292 0
M  V30 8544 H 793.29 -0.0254215 2.55787 0
M  V30 8545 H 792.934 -0.324521 5.06862 0
M  V30 8546 H 792.864 -2.08911 4.83388 0
M  V30 8547 H 795.355 -1.12016 3.60917 0
M  V30 8548 H 795.668 -1.68601 7.54184 0
M  V30 8549 H 794.013 -1.52306 6.78106 0
M  V30 8550 H 797.204 -1.30683 4.49488 0
M  V30 8551 H 797.377 -1.56509 6.28816 0
M  V30 8552 N 790.784 -1.46188 -0.588786 0
M  V30 8553 C 792.03 -1.51407 -1.34921 0
M  V30 8554 C 792.363 -0.162771 -1.93517 0
M  V30 8555 O 791.638 0.825082 -1.76132 0
M  V30 8556 C 791.921 -2.60795 -2.48311 0
M  V30 8557 C 791.774 -4.05435 -1.94789 0
M  V30 8558 C 793.093 -2.66313 -3.50379 0
M  V30 8559 H 790.212 -0.551213 -0.489217 0
M  V30 8560 H 792.854 -1.78095 -0.661993 0
M  V30 8561 H 791.004 -2.3817 -3.06932 0
M  V30 8562 H 792.676 -4.39328 -1.40672 0
M  V30 8563 H 790.919 -4.15202 -1.25659 0
M  V30 8564 H 791.59 -4.77691 -2.76613 0
M  V30 8565 H 794.066 -2.86634 -3.01629 0
M  V30 8566 H 792.942 -3.44681 -4.27184 0
M  V30 8567 H 793.203 -1.72127 -4.07216 0
M  V30 8568 N 792.262 0.832906 -1.33792 0
M  V30 8569 C 793.195 1.94788 -1.18882 0
M  V30 8570 C 794.173 1.62389 -0.0828426 0
M  V30 8571 O 795.357 1.86886 -0.246175 0
M  V30 8572 C 792.484 3.28506 -0.824728 0
M  V30 8573 C 791.53 3.79872 -1.93905 0
M  V30 8574 S 792.363 4.00832 -3.55097 0
M  V30 8575 C 793.519 5.37492 -3.20708 0
M  V30 8576 H 793.752 2.07137 -2.13264 0
M  V30 8577 H 791.285 0.987362 -1.18704 0
M  V30 8578 H 793.243 4.05769 -0.621442 0
M  V30 8579 H 791.904 3.13939 0.100587 0
M  V30 8580 H 791.097 4.76647 -1.6378 0
M  V30 8581 H 790.699 3.09524 -2.09931 0
M  V30 8582 H 792.991 6.20544 -2.71903 0
M  V30 8583 H 793.934 5.72593 -4.16584 0
M  V30 8584 H 794.342 5.02529 -2.57148 0
M  V30 8585 N 793.74 1.17359 1.05189 0
M  V30 8586 C 795.017 0.871914 1.75091 0
M  V30 8587 C 795.397 -0.627821 2.01548 0
M  V30 8588 O 794.745 -1.5791 1.65156 0
M  V30 8589 C 794.955 1.70687 3.04413 0
M  V30 8590 C 796.303 1.92684 3.78362 0
M  V30 8591 O 797.327 1.67645 3.14282 0
M  V30 8592 O 796.186 2.34765 4.93505 0
M  V30 8593 H 793.28 0.322831 0.761386 0
M  V30 8594 H 795.826 1.28054 1.11357 0
M  V30 8595 H 794.598 2.72405 2.80911 0
M  V30 8596 H 794.221 1.29602 3.75884 0
M  V30 8597 N 795.218 -1.23913 0.973828 0
M  V30 8598 C 796.448 -1.95911 0.655938 0
M  V30 8599 C 796.856 -1.72375 -0.779967 0
M  V30 8600 O 796.199 -1.00807 -1.5357 0
M  V30 8601 C 796.261 -3.49103 0.858324 0
M  V30 8602 C 795.925 -3.96347 2.27504 0
M  V30 8603 C 796.922 -4.05537 3.25324 0
M  V30 8604 C 794.607 -4.29509 2.60437 0
M  V30 8605 C 796.601 -4.47233 4.5416 0
M  V30 8606 C 794.288 -4.70887 3.89498 0
M  V30 8607 C 795.286 -4.79714 4.86172 0
M  V30 8608 O 794.974 -5.20166 6.1293 0
M  V30 8609 H 794.706 -0.630721 0.243244 0
M  V30 8610 H 797.26 -1.58534 1.30599 0
M  V30 8611 H 795.49 -3.86405 0.151097 0
M  V30 8612 H 797.179 -4.02311 0.538592 0
M  V30 8613 H 797.945 -3.80128 3.0121 0
M  V30 8614 H 793.824 -4.21853 1.85906 0
M  V30 8615 H 797.368 -4.54038 5.29618 0
M  V30 8616 H 793.265 -4.95744 4.1341 0
M  V30 8617 H 794.033 -5.38298 6.16586 0
M  V30 8618 N 796.696 -0.74468 -1.38897 0
M  V30 8619 C 797.945 -0.293716 -1.9955 0
M  V30 8620 C 798.258 1.12831 -1.59777 0
M  V30 8621 O 799.464 1.67929 -2.13336 0
M  V30 8622 C 797.92 -0.474188 -3.56762 0
M  V30 8623 C 797.528 -1.90472 -4.05493 0
M  V30 8624 C 799.272 -0.0854875 -4.24414 0
M  V30 8625 C 797.179 -2.03423 -5.55314 0
M  V30 8626 H 796.109 -0.106066 -0.746502 0
M  V30 8627 H 798.76 -0.919948 -1.58774 0
M  V30 8628 H 797.142 0.221092 -3.95382 0
M  V30 8629 H 798.316 -2.63274 -3.78184 0
M  V30 8630 H 796.631 -2.24752 -3.50536 0
M  V30 8631 H 799.228 -0.161133 -5.34457 0
M  V30 8632 H 799.571 0.96066 -4.05064 0
M  V30 8633 H 800.104 -0.732286 -3.91002 0
M  V30 8634 H 796.843 -3.0626 -5.79556 0
M  V30 8635 H 796.363 -1.3507 -5.84394 0
M  V30 8636 H 798.042 -1.81996 -6.20876 0
M  V30 8637 N 798.174 1.49689 -0.493057 0
M  V30 8638 C 799.42 2.02727 0.0543518 0
M  V30 8639 C 799.753 1.37264 1.37376 0
M  V30 8640 O 799.028 0.505644 1.87812 0
M  V30 8641 C 799.311 3.59456 0.215226 0
M  V30 8642 C 799.164 4.35459 -1.12675 0
M  V30 8643 C 800.483 4.29511 0.959586 0
M  V30 8644 H 797.602 0.736773 0.0182786 0
M  V30 8645 H 800.244 1.78792 -0.642924 0
M  V30 8646 H 798.394 3.79981 0.809122 0
M  V30 8647 H 800.066 4.2645 -1.75891 0
M  V30 8648 H 798.309 3.9833 -1.71801 0
M  V30 8649 H 798.98 5.43454 -0.967578 0
M  V30 8650 H 801.456 4.13594 0.455977 0
M  V30 8651 H 800.332 5.38939 1.04098 0
M  V30 8652 H 800.593 3.94202 2.00144 0
M  V30 8653 N 799.652 0.226554 1.55963 0
M  V30 8654 C 800.877 -0.411527 2.03276 0
M  V30 8655 C 801.302 -1.52206 1.10521 0
M  V30 8656 O 800.66 -1.81054 0.0943217 0
M  V30 8657 C 800.708 -0.915694 3.4878 0
M  V30 8658 O 799.812 -2.02672 3.59163 0
M  V30 8659 H 799.153 -0.0924907 0.657527 0
M  V30 8660 H 801.683 0.346656 2.01642 0
M  V30 8661 H 801.693 -1.22421 3.892 0
M  V30 8662 H 800.368 -0.102915 4.15773 0
M  V30 8663 H 798.945 -1.72445 3.30632 0
M  V30 8664 N 801.13 -1.57531 -0.0467866 0
M  V30 8665 C 802.358 -1.92696 -0.753371 0
M  V30 8666 C 802.773 -0.824792 -1.69831 0
M  V30 8667 O 802.13 0.200155 -1.81399 0
M  V30 8668 C 802.181 -3.27728 -1.52566 0
M  V30 8669 O 801.902 -4.3371 -0.618674 0
M  V30 8670 C 803.403 -3.77066 -2.33101 0
M  V30 8671 H 800.623 -0.636367 -0.212788 0
M  V30 8672 H 803.167 -2.04498 -0.00959361 0
M  V30 8673 H 801.322 -3.17378 -2.22148 0
M  V30 8674 H 801.736 -5.11548 -1.15839 0
M  V30 8675 H 803.21 -4.74109 -2.82709 0
M  V30 8676 H 803.687 -3.07348 -3.13741 0
M  V30 8677 H 804.293 -3.90442 -1.68628 0
M  V30 8678 N 802.608 0.318715 -1.54344 0
M  V30 8679 C 803.854 1.05383 -1.73971 0
M  V30 8680 C 804.209 1.85524 -0.509781 0
M  V30 8681 O 803.502 1.8502 0.49782 0
M  V30 8682 C 803.696 2.00514 -2.95853 0
M  V30 8683 C 803.525 1.29728 -4.30582 0
M  V30 8684 C 802.295 1.03177 -4.94654 0
M  V30 8685 C 804.493 0.710718 -5.09366 0
M  V30 8686 N 802.475 0.29232 -6.13204 0
M  V30 8687 C 803.846 0.103132 -6.19914 0
M  V30 8688 C 805.901 0.614011 -4.94099 0
M  V30 8689 C 804.604 -0.591782 -7.16862 0
M  V30 8690 C 806.63 -0.0672115 -5.91362 0
M  V30 8691 C 805.992 -0.663721 -7.01266 0
M  V30 8692 H 802.091 0.369157 -0.689382 0
M  V30 8693 H 804.675 0.334453 -1.91806 0
M  V30 8694 H 802.846 2.69719 -2.79475 0
M  V30 8695 H 804.578 2.67046 -3.04086 0
M  V30 8696 H 801.333 1.32536 -4.54677 0
M  V30 8697 H 801.757 -0.0634005 -6.7697 0
M  V30 8698 H 806.399 1.06091 -4.09273 0
M  V30 8699 H 804.117 -1.0505 -8.01243 0
M  V30 8700 H 807.703 -0.141742 -5.81627 0
M  V30 8701 H 806.583 -1.18248 -7.75234 0
M  V30 8702 N 804.086 1.46499 0.581025 0
M  V30 8703 C 805.311 1.55708 1.37002 0
M  V30 8704 C 805.736 0.19942 1.8704 0
M  V30 8705 O 805.094 -0.820731 1.61659 0
M  V30 8706 C 805.142 2.56716 2.53238 0
M  V30 8707 O 804.246 2.10336 3.54729 0
M  V30 8708 H 803.587 0.523912 0.407937 0
M  V30 8709 H 806.117 1.92085 0.704602 0
M  V30 8710 H 806.127 2.76378 3.00132 0
M  V30 8711 H 804.802 3.55307 2.16171 0
M  V30 8712 H 803.379 2.00669 3.14303 0
M  V30 8713 N 805.565 -0.825799 1.34232 0
M  V30 8714 C 806.498 -1.94155 1.19914 0
M  V30 8715 C 807.476 -1.62343 0.0914533 0
M  V30 8716 O 808.66 -1.86752 0.256082 0
M  V30 8717 C 805.787 -3.28064 0.842138 0
M  V30 8718 C 804.833 -3.78839 1.95917 0
M  V30 8719 S 805.666 -3.98943 3.57218 0
M  V30 8720 C 806.822 -5.35783 3.23554 0
M  V30 8721 H 807.055 -2.06003 2.14359 0
M  V30 8722 H 804.588 -0.981053 1.19225 0
M  V30 8723 H 806.546 -4.05434 0.642952 0
M  V30 8724 H 805.207 -3.13988 -0.0839363 0
M  V30 8725 H 804.4 -4.75771 1.66306 0
M  V30 8726 H 804.002 -3.08406 2.11569 0
M  V30 8727 H 806.294 -6.19094 2.7519 0
M  V30 8728 H 807.237 -5.70376 4.19615 0
M  V30 8729 H 807.645 -5.01158 2.5981 0
M  V30 8730 N 807.043 -1.17915 -1.04565 0
M  V30 8731 C 808.268 -0.996749 -1.81878 0
M  V30 8732 C 808.693 0.450169 -1.82634 0
M  V30 8733 O 808.051 1.32268 -1.23995 0
M  V30 8734 C 808.099 -1.55005 -3.25585 0
M  V30 8735 O 807.203 -0.76804 -4.05185 0
M  V30 8736 H 806.544 -0.353456 -0.562108 0
M  V30 8737 H 809.074 -1.56557 -1.31723 0
M  V30 8738 H 809.084 -1.57503 -3.76373 0
M  V30 8739 H 807.759 -2.60327 -3.2435 0
M  V30 8740 H 806.336 -0.81498 -3.63885 0
M  V30 8741 N 808.521 1.23394 -0.980386 0
M  V30 8742 C 809.937 1.43961 -0.689008 0
M  V30 8743 C 810.137 1.87229 0.744809 0
M  V30 8744 O 809.193 2.01831 1.51725 0
M  V30 8745 C 810.506 2.49128 -1.68392 0
M  V30 8746 C 812.054 2.62941 -1.69796 0
M  V30 8747 C 812.529 3.71317 -2.68118 0
M  V30 8748 N 814.02 3.7876 -2.66636 0
M  V30 8749 C 814.755 4.62176 -3.39383 0
M  V30 8750 N 814.251 5.49682 -4.21688 0
M  V30 8751 N 816.044 4.56372 -3.28147 0
M  V30 8752 H 808.195 0.936106 -1.90659 0
M  V30 8753 H 810.458 0.473023 -0.821555 0
M  V30 8754 H 810.164 2.24252 -2.70931 0
M  V30 8755 H 810.038 3.47514 -1.46675 0
M  V30 8756 H 812.425 2.87168 -0.679617 0
M  V30 8757 H 812.506 1.64871 -1.95579 0
M  V30 8758 H 812.15 3.4784 -3.70095 0
M  V30 8759 H 812.08 4.68929 -2.3961 0
M  V30 8760 H 814.571 3.16226 -2.06904 0
M  V30 8761 H 814.884 6.10323 -4.74053 0
M  V30 8762 H 813.229 5.49306 -4.25779 0
M  V30 8763 H 816.42 3.87029 -2.63299 0
M  V30 8764 H 816.593 5.21153 -3.85102 0
M  V30 8765 N 809.999 0.752036 1.385 0
M  V30 8766 C 811.247 0.306895 1.99756 0
M  V30 8767 C 811.568 -1.11478 1.59992 0
M  V30 8768 O 810.838 -1.76206 0.856045 0
M  V30 8769 H 809.418 0.11048 0.738785 0
M  V30 8770 H 812.08 0.965785 1.69289 0
M  V30 8771 H 811.176 0.368797 3.09913 0
M  V30 8772 N 811.477 -1.49425 0.500989 0
M  V30 8773 C 812.726 -2.01649 -0.04538 0
M  V30 8774 C 813.039 -1.38572 -1.38047 0
M  V30 8775 O 814.245 -1.82124 -2.01353 0
M  V30 8776 C 812.701 -3.5966 -0.131337 0
M  V30 8777 C 812.309 -4.3171 1.19711 0
M  V30 8778 C 814.053 -4.19828 -0.628071 0
M  V30 8779 C 811.96 -5.81579 1.07332 0
M  V30 8780 H 810.89 -0.753715 -0.0207329 0
M  V30 8781 H 813.541 -1.71962 0.640407 0
M  V30 8782 H 811.923 -3.86063 -0.881574 0
M  V30 8783 H 813.097 -4.17008 1.96064 0
M  V30 8784 H 811.412 -3.83286 1.62729 0
M  V30 8785 H 814.009 -5.2958 -0.738198 0
M  V30 8786 H 814.352 -3.83194 -1.6269 0
M  V30 8787 H 814.885 -3.97746 0.0656314 0
M  V30 8788 H 811.624 -6.22738 2.04642 0
M  V30 8789 H 811.144 -5.98774 0.350679 0
M  V30 8790 H 812.823 -6.42614 0.752047 0
M  V30 8791 N 812.955 -0.234822 -1.55841 0
M  V30 8792 C 814.232 0.442961 -1.90518 0
M  V30 8793 C 814.612 1.76768 -1.15397 0
M  V30 8794 O 813.96 2.26928 -0.267534 0
M  V30 8795 C 814.17 0.622905 -3.43396 0
M  V30 8796 C 815.518 0.9243 -4.14417 0
M  V30 8797 O 816.542 0.709211 -3.49068 0
M  V30 8798 O 815.401 1.33323 -5.29988 0
M  V30 8799 H 812.495 0.236042 -0.792599 0
M  V30 8800 H 815.041 -0.277992 -1.67408 0
M  V30 8801 H 813.813 -0.310973 -3.90062 0
M  V30 8802 H 813.436 1.39485 -3.7233 0
M  V30 8803 N 814.433 1.57553 0.0384317 0
M  V30 8804 C 815.661 1.93093 0.743141 0
M  V30 8805 C 816.076 0.833787 1.69391 0
M  V30 8806 O 815.433 -0.190532 1.81503 0
M  V30 8807 C 815.484 3.28533 1.50826 0
M  V30 8808 O 815.205 4.34032 0.595665 0
M  V30 8809 C 816.706 3.78297 2.31098 0
M  V30 8810 H 813.926 0.637486 0.20941 0
M  V30 8811 H 816.47 2.045 -0.00125154 0
M  V30 8812 H 814.625 3.18552 2.20462 0
M  V30 8813 H 815.039 5.12155 1.13124 0
M  V30 8814 H 816.513 4.75602 2.80191 0
M  V30 8815 H 816.99 3.09008 3.12107 0
M  V30 8816 H 817.596 3.91331 1.66555 0
M  V30 8817 N 815.911 -0.310526 1.54511 0
M  V30 8818 C 816.821 -1.4054 1.87844 0
M  V30 8819 C 817.837 -1.55954 0.771635 0
M  V30 8820 O 819.013 -1.70801 1.06719 0
M  V30 8821 C 816.078 -2.75063 2.11048 0
M  V30 8822 C 815.139 -2.68715 3.348 0
M  V30 8823 C 814.372 -3.96821 3.56887 0
M  V30 8824 O 814.595 -4.95721 2.82165 0
M  V30 8825 O 813.529 -3.99291 4.50389 0
M  V30 8826 H 817.355 -1.15275 2.80972 0
M  V30 8827 H 814.94 -0.505732 1.4058 0
M  V30 8828 H 816.822 -3.54671 2.27566 0
M  V30 8829 H 815.497 -3.00191 1.21108 0
M  V30 8830 H 814.404 -1.87611 3.23655 0
M  V30 8831 H 815.737 -2.4854 4.2484 0
M  V30 8832 N 817.389 -1.46805 -0.573248 0
M  V30 8833 C 818.336 -1.58084 -1.68161 0
M  V30 8834 C 819.306 -0.424636 -1.6058 0
M  V30 8835 O 820.491 -0.642623 -1.79652 0
M  V30 8836 C 817.631 -1.58601 -3.06496 0
M  V30 8837 C 816.744 -2.85023 -3.24632 0
M  V30 8838 C 815.879 -2.76981 -4.53271 0
M  V30 8839 C 814.918 -3.983 -4.64783 0
M  V30 8840 N 814.055 -3.88589 -5.84759 0
M  V30 8841 H 818.895 -2.52755 -1.57858 0
M  V30 8842 H 816.432 -1.25385 -0.769218 0
M  V30 8843 H 818.39 -1.56885 -3.86579 0
M  V30 8844 H 817.02 -0.674553 -3.15673 0
M  V30 8845 H 816.072 -2.96678 -2.38089 0
M  V30 8846 H 817.384 -3.7491 -3.29004 0
M  V30 8847 H 816.538 -2.73424 -5.41594 0
M  V30 8848 H 815.277 -1.84751 -4.51352 0
M  V30 8849 H 814.282 -4.02179 -3.74876 0
M  V30 8850 H 815.507 -4.91639 -4.68474 0
M  V30 8851 H 813.453 -2.99151 -5.83819 0
M  V30 8852 H 813.37 -4.7214 -5.90441 0
M  V30 8853 H 814.638 -3.89022 -6.75486 0
M  V30 8854 N 818.867 0.818669 -1.34668 0
M  V30 8855 C 820.113 1.57746 -1.27453 0
M  V30 8856 C 820.446 1.93588 0.154077 0
M  V30 8857 O 819.721 1.60371 1.10051 0
M  V30 8858 C 820.004 2.87414 -2.16945 0
M  V30 8859 C 819.857 2.58125 -3.68363 0
M  V30 8860 C 821.176 3.89021 -2.05792 0
M  V30 8861 H 818.295 0.572339 -0.464324 0
M  V30 8862 H 820.937 0.942784 -1.64959 0
M  V30 8863 H 819.087 3.41576 -1.85089 0
M  V30 8864 H 820.759 2.10239 -4.10606 0
M  V30 8865 H 819.002 1.91503 -3.89242 0
M  V30 8866 H 819.673 3.5061 -4.26353 0
M  V30 8867 H 822.149 3.44224 -2.33771 0
M  V30 8868 H 821.025 4.77548 -2.70628 0
M  V30 8869 H 821.286 4.29786 -1.03618 0
M  V30 8870 N 820.346 1.18468 1.03938 0
M  V30 8871 C 821.276 0.936389 2.13902 0
M  V30 8872 C 822.257 -0.126381 1.6963 0
M  V30 8873 O 823.442 0.0264757 1.94182 0
M  V30 8874 C 820.572 0.462729 3.44204 0
M  V30 8875 C 819.526 1.46613 4.02105 0
M  V30 8876 C 818.852 0.84994 5.27902 0
M  V30 8877 C 820.152 2.84323 4.3813 0
M  V30 8878 H 821.846 1.85602 2.3493 0
M  V30 8879 H 819.392 0.893806 1.12903 0
M  V30 8880 H 821.345 0.276382 4.20493 0
M  V30 8881 H 820.069 -0.492477 3.22866 0
M  V30 8882 H 818.728 1.63944 3.27899 0
M  V30 8883 H 818.376 -0.112493 5.02874 0
M  V30 8884 H 818.076 1.51988 5.67603 0
M  V30 8885 H 819.6 0.674152 6.06867 0
M  V30 8886 H 821.014 2.70636 5.054 0
M  V30 8887 H 819.411 3.48012 4.88884 0
M  V30 8888 H 820.481 3.37776 3.47901 0
M  V30 8889 N 821.824 -1.22873 0.986916 0
M  V30 8890 C 822.756 -2.23889 0.490537 0
M  V30 8891 C 823.769 -1.57523 -0.411144 0
M  V30 8892 O 824.958 -1.7721 -0.214236 0
M  V30 8893 C 822.058 -3.37488 -0.30902 0
M  V30 8894 C 821.231 -4.33438 0.587354 0
M  V30 8895 C 820.29 -5.25958 -0.159467 0
M  V30 8896 O 819.316 -5.67394 0.453115 0
M  V30 8897 N 820.518 -5.62265 -1.44355 0
M  V30 8898 H 823.283 -2.67109 1.35914 0
M  V30 8899 H 820.844 -1.37111 0.860937 0
M  V30 8900 H 822.836 -3.96365 -0.817139 0
M  V30 8901 H 821.406 -2.934 -1.07868 0
M  V30 8902 H 820.626 -3.72969 1.27622 0
M  V30 8903 H 821.914 -4.94495 1.19801 0
M  V30 8904 H 821.312 -5.30562 -1.96266 0
M  V30 8905 H 819.869 -6.23585 -1.89698 0
M  V30 8906 N 823.302 -0.75937 -1.38099 0
M  V30 8907 C 824.551 -0.314864 -1.99227 0
M  V30 8908 C 824.864 1.1113 -1.60964 0
M  V30 8909 O 826.07 1.65657 -2.15105 0
M  V30 8910 C 824.526 -0.512001 -3.56239 0
M  V30 8911 C 824.134 -1.94762 -4.0345 0
M  V30 8912 C 825.878 -0.130497 -4.24299 0
M  V30 8913 C 823.785 -2.09301 -5.53125 0
M  V30 8914 H 822.715 -0.113978 -0.745335 0
M  V30 8915 H 825.366 -0.936736 -1.57789 0
M  V30 8916 H 823.748 0.179144 -3.95595 0
M  V30 8917 H 824.922 -2.67271 -3.75371 0
M  V30 8918 H 823.237 -2.28457 -3.48133 0
M  V30 8919 H 825.834 -0.21781 -5.34256 0
M  V30 8920 H 826.177 0.917644 -4.0606 0
M  V30 8921 H 826.71 -0.773716 -3.90203 0
M  V30 8922 H 823.449 -3.1239 -5.76275 0
M  V30 8923 H 822.969 -1.41261 -5.82928 0
M  V30 8924 H 824.648 -1.88571 -6.1891 0
M  V30 8925 N 824.78 1.49157 -0.508906 0
M  V30 8926 C 826.02 2.04376 0.0310623 0
M  V30 8927 C 826.384 1.37946 1.33547 0
M  V30 8928 O 827.585 1.83931 1.96017 0
M  V30 8929 C 825.856 3.56985 0.172191 0
M  V30 8930 S 827.415 4.33728 0.665267 0
M  V30 8931 H 824.233 0.710997 -0.00199266 0
M  V30 8932 H 826.835 1.83119 -0.684674 0
M  V30 8933 H 825.539 4.02874 -0.78234 0
M  V30 8934 H 825.07 3.82661 0.912933 0
M  V30 8935 H 827.085 4.56992 1.9332 0
M  V30 8936 N 826.258 0.243083 1.55714 0
M  V30 8937 C 827.669 -0.260788 1.8487 0
M  V30 8938 C 828.02 -1.57879 1.16485 0
M  V30 8939 O 827.145 -2.1184 0.441908 0
M  V30 8940 C 827.74 -0.479954 3.35383 0
M  V30 8941 C 826.299 -0.928096 3.64778 0
M  V30 8942 C 825.446 -0.00316416 2.773 0
M  V30 8943 H 828.397 0.465743 1.51712 0
M  V30 8944 H 828.418 -1.32308 3.56756 0
M  V30 8945 H 827.93 0.479468 3.85127 0
M  V30 8946 H 826.031 -1.90012 3.20509 0
M  V30 8947 H 826.144 -0.7876 4.72582 0
M  V30 8948 H 824.508 -0.513849 2.49463 0
M  V30 8949 H 825.291 0.951562 3.29849 0
M  V30 8950 N 827.736 -1.57571 -0.0300757 0
M  V30 8951 C 828.683 -2.06492 -1.03101 0
M  V30 8952 C 829.653 -0.953862 -1.3598 0
M  V30 8953 O 830.838 -1.22436 -1.46335 0
M  V30 8954 C 827.978 -2.54826 -2.32718 0
M  V30 8955 C 827.091 -3.79718 -2.06006 0
M  V30 8956 C 826.226 -4.16668 -3.29487 0
M  V30 8957 C 825.265 -5.3448 -2.98324 0
M  V30 8958 N 824.402 -5.66867 -4.14254 0
M  V30 8959 H 829.242 -2.91755 -0.606877 0
M  V30 8960 H 826.779 -1.44252 -0.288038 0
M  V30 8961 H 828.737 -2.80916 -3.08451 0
M  V30 8962 H 827.367 -1.72481 -2.72856 0
M  V30 8963 H 826.419 -3.60718 -1.20774 0
M  V30 8964 H 827.731 -4.65569 -1.79017 0
M  V30 8965 H 826.885 -4.43881 -4.13588 0
M  V30 8966 H 825.624 -3.29466 -3.59588 0
M  V30 8967 H 824.629 -5.07021 -2.12625 0
M  V30 8968 H 825.854 -6.23334 -2.69502 0
M  V30 8969 H 823.8 -4.82625 -4.44308 0
M  V30 8970 H 823.717 -6.47226 -3.90685 0
M  V30 8971 H 824.985 -5.98656 -4.99231 0
M  V30 8972 N 829.214 0.302327 -1.54673 0
M  V30 8973 C 830.491 1.05721 -1.64567 0
M  V30 8974 C 830.871 2.0526 -0.493108 0
M  V30 8975 O 830.219 2.22729 0.510315 0
M  V30 8976 C 830.429 1.74025 -3.02517 0
M  V30 8977 C 831.777 2.26271 -3.59286 0
M  V30 8978 O 832.801 1.8406 -3.0496 0
M  V30 8979 O 831.66 3.0361 -4.54404 0
M  V30 8980 H 828.754 0.488577 -0.667249 0
M  V30 8981 H 831.3 0.300521 -1.67018 0
M  V30 8982 H 830.072 1.0174 -3.77842 0
M  V30 8983 H 829.695 2.56454 -3.03838 0
M  V30 8984 N 830.692 1.47107 0.565454 0
M  V30 8985 C 831.625 1.53505 1.68853 0
M  V30 8986 C 832.603 0.387806 1.57908 0
M  V30 8987 O 833.787 0.594433 1.78882 0
M  V30 8988 C 830.914 1.42985 3.07039 0
M  V30 8989 C 829.96 2.62109 3.36454 0
M  V30 8990 S 830.793 4.2436 3.26617 0
M  V30 8991 C 831.949 4.16378 4.67312 0
M  V30 8992 H 832.182 2.48522 1.63169 0
M  V30 8993 H 829.715 1.35204 0.745609 0
M  V30 8994 H 831.673 1.37602 3.8675 0
M  V30 8995 H 830.334 0.493671 3.10196 0
M  V30 8996 H 829.527 2.50788 4.37174 0
M  V30 8997 H 829.129 2.64571 2.64345 0
M  V30 8998 H 831.421 3.84123 5.58082 0
M  V30 8999 H 832.364 5.17156 4.83689 0
M  V30 9000 H 832.772 3.47363 4.44971 0
M  V30 9001 N 832.17 -0.811516 1.35101 0
M  V30 9002 C 833.586 -1.10634 1.15031 0
M  V30 9003 C 833.786 -2.01459 -0.0405379 0
M  V30 9004 O 832.842 -2.42235 -0.712635 0
M  V30 9005 C 834.155 -1.74207 2.45097 0
M  V30 9006 C 835.703 -1.8665 2.51258 0
M  V30 9007 C 836.178 -2.53638 3.81355 0
M  V30 9008 N 837.669 -2.61128 3.82579 0
M  V30 9009 C 838.404 -3.13717 4.79968 0
M  V30 9010 N 837.9 -3.66782 5.87744 0
M  V30 9011 N 839.693 -3.12224 4.67411 0
M  V30 9012 H 831.844 -0.207641 2.11383 0
M  V30 9013 H 834.107 -0.154697 0.935293 0
M  V30 9014 H 833.813 -1.14936 3.32389 0
M  V30 9015 H 833.687 -2.73958 2.59281 0
M  V30 9016 H 836.074 -2.45066 1.64398 0
M  V30 9017 H 836.155 -0.857678 2.40993 0
M  V30 9018 H 835.799 -1.95873 4.68611 0
M  V30 9019 H 835.729 -3.55047 3.88907 0
M  V30 9020 H 838.22 -2.23527 3.04703 0
M  V30 9021 H 838.533 -4.05194 6.58056 0
M  V30 9022 H 836.878 -3.64994 5.91443 0
M  V30 9023 H 840.069 -2.70042 3.82354 0
M  V30 9024 H 840.242 -3.52903 5.43474 0
M  V30 9025 N 833.648 -1.19017 -1.03309 0
M  V30 9026 C 834.611 -0.926076 -2.09658 0
M  V30 9027 C 835.611 0.0917077 -1.60538 0
M  V30 9028 O 836.801 -0.142574 -1.73616 0
M  V30 9029 C 833.933 -0.390958 -3.38651 0
M  V30 9030 H 835.126 -1.86923 -2.3452 0
M  V30 9031 H 832.679 -1.00325 -1.19853 0
M  V30 9032 H 833.414 0.558446 -3.19456 0
M  V30 9033 H 833.199 -1.12474 -3.75622 0
M  V30 9034 H 834.689 -0.225131 -4.16993 0
M  V30 9035 N 835.127 1.22348 -0.993418 0
M  V30 9036 C 836.404 1.86632 -0.585495 0
M  V30 9037 C 836.784 1.89156 0.937187 0
M  V30 9038 O 836.132 1.38247 1.81934 0
M  V30 9039 C 836.342 3.27481 -1.20652 0
M  V30 9040 C 837.69 4.03971 -1.30738 0
M  V30 9041 O 838.714 3.3675 -1.16096 0
M  V30 9042 O 837.573 5.24302 -1.54173 0
M  V30 9043 H 834.667 0.802704 -0.198984 0
M  V30 9044 H 837.213 1.30122 -1.08933 0
M  V30 9045 H 835.985 3.20281 -2.24802 0
M  V30 9046 H 835.608 3.91597 -0.688312 0
M  V30 9047 N 836.605 0.766683 1.37694 0
M  V30 9048 C 837.854 0.325425 1.99057 0
M  V30 9049 C 838.167 -1.10275 1.61551 0
M  V30 9050 O 839.373 -1.64513 2.1598 0
M  V30 9051 C 837.829 0.530886 3.55963 0
M  V30 9052 C 837.437 1.96899 4.02411 0
M  V30 9053 C 839.181 0.152997 4.24224 0
M  V30 9054 C 837.088 2.12232 5.52007 0
M  V30 9055 H 836.018 0.117929 0.744721 0
M  V30 9056 H 838.669 0.945091 1.5729 0
M  V30 9057 H 837.051 -0.158162 3.95684 0
M  V30 9058 H 838.225 2.69258 3.73948 0
M  V30 9059 H 836.54 2.303 3.46916 0
M  V30 9060 H 839.137 0.24614 5.34133 0
M  V30 9061 H 839.48 -0.896096 4.06541 0
M  V30 9062 H 840.013 0.794398 3.89787 0
M  V30 9063 H 836.752 3.15442 5.7461 0
M  V30 9064 H 836.272 1.4435 5.82171 0
M  V30 9065 H 837.951 1.9185 6.17902 0
M  V30 9066 N 838.083 -1.48885 0.516809 0
M  V30 9067 C 839.323 -2.0439 -0.0202232 0
M  V30 9068 C 839.687 -1.38652 -1.32814 0
M  V30 9069 O 840.888 -1.84968 -1.95039 0
M  V30 9070 C 839.159 -3.57071 -0.153257 0
M  V30 9071 S 840.718 -4.34074 -0.642256 0
M  V30 9072 H 837.536 -0.710977 0.00576322 0
M  V30 9073 H 840.138 -1.82753 0.694376 0
M  V30 9074 H 838.842 -4.02454 0.803695 0
M  V30 9075 H 838.373 -3.83139 -0.892627 0
M  V30 9076 H 840.388 -4.58011 -1.90893 0
M  V30 9077 N 839.561 -0.251338 -1.55583 0
M  V30 9078 C 840.807 0.37272 -1.99346 0
M  V30 9079 C 841.14 1.57266 -1.13934 0
M  V30 9080 O 840.415 1.9343 -0.20377 0
M  V30 9081 C 840.698 0.778245 -3.5159 0
M  V30 9082 C 840.551 -0.427394 -4.47765 0
M  V30 9083 C 841.87 1.62358 -4.09057 0
M  V30 9084 H 838.989 0.134002 -0.724715 0
M  V30 9085 H 841.631 -0.353536 -1.86682 0
M  V30 9086 H 839.781 1.39704 -3.62512 0
M  V30 9087 H 841.453 -1.06586 -4.48818 0
M  V30 9088 H 839.696 -1.06972 -4.20404 0
M  V30 9089 H 840.367 -0.10025 -5.51909 0
M  V30 9090 H 842.843 1.1012 -4.01264 0
M  V30 9091 H 841.719 1.87617 -5.1584 0
M  V30 9092 H 841.98 2.59688 -3.57791 0
M  V30 9093 N 841.039 1.57585 0.0217189 0
M  V30 9094 C 841.989 2.03506 1.02807 0
M  V30 9095 C 842.973 0.925716 1.31603 0
M  V30 9096 O 844.165 1.18958 1.31065 0
M  V30 9097 C 841.294 2.52407 2.32693 0
M  V30 9098 C 840.38 3.70176 2.06955 0
M  V30 9099 N 840.771 4.82641 1.513 0
M  V30 9100 C 839.069 3.77691 2.37204 0
M  V30 9101 C 839.77 5.64218 1.41536 0
M  V30 9102 N 838.746 5.09557 1.89348 0
M  V30 9103 H 842.548 2.87878 0.591899 0
M  V30 9104 H 840.062 1.60793 0.227875 0
M  V30 9105 H 842.059 2.83569 3.05605 0
M  V30 9106 H 840.719 1.69444 2.76982 0
M  V30 9107 H 841.73 5.03931 1.19472 0
M  V30 9108 H 838.407 3.05542 2.84517 0
M  V30 9109 H 839.797 6.64576 0.989333 0
M  V30 9110 N 842.517 -0.29412 1.54831 0
M  V30 9111 C 843.447 -1.36757 1.89261 0
M  V30 9112 C 844.428 -1.52564 0.752214 0
M  V30 9113 O 845.613 -1.65958 1.00855 0
M  V30 9114 C 842.743 -2.73066 2.14597 0
M  V30 9115 C 841.697 -2.72017 3.3044 0
M  V30 9116 C 841.023 -4.11679 3.4121 0
M  V30 9117 C 842.323 -2.33149 4.67375 0
M  V30 9118 H 844.017 -1.08191 2.79169 0
M  V30 9119 H 841.563 -0.519014 1.34321 0
M  V30 9120 H 843.516 -3.48255 2.37269 0
M  V30 9121 H 842.24 -3.03172 1.21467 0
M  V30 9122 H 840.899 -1.99285 3.07703 0
M  V30 9123 H 840.547 -4.38973 2.45584 0
M  V30 9124 H 840.247 -4.11877 4.19084 0
M  V30 9125 H 841.771 -4.88637 3.6615 0
M  V30 9126 H 843.185 -2.98054 4.89731 0
M  V30 9127 H 841.582 -2.44546 5.48012 0
M  V30 9128 H 842.652 -1.28275 4.67626 0
M  V30 9129 N 843.995 -1.47404 -0.557645 0
M  V30 9130 C 844.943 -1.60265 -1.68576 0
M  V30 9131 C 845.937 -0.469982 -1.6275 0
M  V30 9132 O 847.143 -0.647764 -1.67941 0
M  V30 9133 H 843.518 -0.504353 -0.557792 0
M  V30 9134 H 845.489 -2.55066 -1.54867 0
M  V30 9135 C 844.238 -1.63369 -3.0693 0
M  V30 9136 H 843.561 -2.49874 -3.12095 0
M  V30 9137 H 845.001 -1.76417 -3.85556 0
M  V30 9138 C 843.46 -0.366921 -3.34896 0
M  V30 9139 O 843.99 0.53218 -3.98159 0
M  V30 9140 N 842.196 -0.247082 -2.89548 0
M  V30 9141 H 841.743 -0.979669 -2.38244 0
M  V30 9142 H 841.701 0.599552 -3.0863 0
M  V30 9143 N 845.473 0.80434 -1.35529 0
M  V30 9144 C 846.889 1.10023 -1.15616 0
M  V30 9145 C 847.089 2.01478 0.0298535 0
M  V30 9146 O 846.145 2.42609 0.699778 0
M  V30 9147 C 847.458 1.72905 -2.46017 0
M  V30 9148 C 849.006 1.85315 -2.52245 0
M  V30 9149 C 849.481 2.51612 -3.82695 0
M  V30 9150 N 850.972 2.59095 -3.83958 0
M  V30 9151 C 851.707 3.11167 -4.81625 0
M  V30 9152 N 851.203 3.63659 -5.89681 0
M  V30 9153 N 852.996 3.09741 -4.6906 0
M  V30 9154 H 845.147 0.196428 -2.1149 0
M  V30 9155 H 847.41 0.149735 -0.9361 0
M  V30 9156 H 847.116 1.13171 -3.32994 0
M  V30 9157 H 846.99 2.72579 -2.6073 0
M  V30 9158 H 849.377 2.44191 -1.65695 0
M  V30 9159 H 849.458 0.844886 -2.41444 0
M  V30 9160 H 849.102 1.93385 -4.69643 0
M  V30 9161 H 849.032 3.5298 -3.90785 0
M  V30 9162 H 851.523 2.21908 -3.05884 0
M  V30 9163 H 851.836 4.01699 -6.60195 0
M  V30 9164 H 850.181 3.61852 -5.9337 0
M  V30 9165 H 853.372 2.68011 -3.83781 0
M  V30 9166 H 853.545 3.50016 -5.45338 0
M  V30 9167 N 846.951 1.19563 1.02676 0
M  V30 9168 C 847.898 0.935291 2.11 0
M  V30 9169 C 848.868 -0.130685 1.65585 0
M  V30 9170 O 850.053 0.0119062 1.90796 0
M  V30 9171 C 847.193 0.482384 3.41712 0
M  V30 9172 C 846.306 1.61537 4.00662 0
M  V30 9173 C 845.441 1.11378 5.19392 0
M  V30 9174 C 844.48 2.22052 5.70403 0
M  V30 9175 N 843.617 1.73185 6.80405 0
M  V30 9176 H 848.457 1.86275 2.32606 0
M  V30 9177 H 845.994 0.928656 1.14081 0
M  V30 9178 H 847.952 0.20118 4.16715 0
M  V30 9179 H 846.582 -0.408086 3.2021 0
M  V30 9180 H 845.634 2.01173 3.22852 0
M  V30 9181 H 846.946 2.44912 4.34534 0
M  V30 9182 H 846.1 0.787935 6.01562 0
M  V30 9183 H 844.839 0.249789 4.8706 0
M  V30 9184 H 843.844 2.55465 4.86845 0
M  V30 9185 H 845.069 3.08911 6.04774 0
M  V30 9186 H 843.015 0.890973 6.49921 0
M  V30 9187 H 842.932 2.50148 7.13416 0
M  V30 9188 H 844.2 1.4357 7.66164 0
M  V30 9189 N 848.429 -1.21819 0.999893 0
M  V30 9190 C 849.675 -1.91035 0.680701 0
M  V30 9191 C 850.008 -1.77582 -0.786021 0
M  V30 9192 O 849.283 -1.14917 -1.56921 0
M  V30 9193 C 849.566 -3.43013 1.0961 0
M  V30 9194 C 849.419 -3.65481 2.6219 0
M  V30 9195 C 850.738 -4.35204 0.654616 0
M  V30 9196 H 847.857 -0.693748 0.248763 0
M  V30 9197 H 850.499 -1.43555 1.24466 0
M  V30 9198 H 848.649 -3.83581 0.616253 0
M  V30 9199 H 850.321 -3.34273 3.17899 0
M  V30 9200 H 848.564 -3.09522 3.03938 0
M  V30 9201 H 849.235 -4.71945 2.86307 0
M  V30 9202 H 851.711 -4.0219 1.06688 0
M  V30 9203 H 850.587 -5.40198 0.973492 0
M  V30 9204 H 850.848 -4.3986 -0.444458 0
M  V30 9205 N 849.908 -0.773975 -1.37286 0
M  V30 9206 C 851.155 -0.339306 -1.99637 0
M  V30 9207 C 851.483 1.08478 -1.61439 0
M  V30 9208 O 850.738 1.7612 -0.853252 0
M  V30 9209 C 851.037 -0.432651 -3.54772 0
M  V30 9210 C 850.703 -1.81531 -4.12744 0
M  V30 9211 C 849.365 -2.19366 -4.2829 0
M  V30 9212 C 851.717 -2.72137 -4.44512 0
M  V30 9213 C 849.045 -3.47239 -4.72908 0
M  V30 9214 C 851.397 -3.99421 -4.90556 0
M  V30 9215 C 850.061 -4.37298 -5.04308 0
M  V30 9216 H 849.331 -0.124161 -0.730524 0
M  V30 9217 H 851.978 -0.988432 -1.64019 0
M  V30 9218 H 850.283 0.30001 -3.9065 0
M  V30 9219 H 851.98 -0.0776 -4.00925 0
M  V30 9220 H 848.57 -1.51126 -4.01072 0
M  V30 9221 H 852.754 -2.44165 -4.32084 0
M  V30 9222 H 848.01 -3.76477 -4.81742 0
M  V30 9223 H 852.184 -4.69756 -5.14104 0
M  V30 9224 H 849.811 -5.36442 -5.38641 0
M  V30 9225 N 851.386 1.48609 -0.524698 0
M  V30 9226 C 852.333 2.29539 0.240956 0
M  V30 9227 C 853.303 1.37033 0.938681 0
M  V30 9228 O 854.488 1.65996 0.940737 0
M  V30 9229 C 851.628 3.20278 1.28514 0
M  V30 9230 C 850.741 4.27858 0.596798 0
M  V30 9231 C 849.876 5.05784 1.62346 0
M  V30 9232 C 848.915 6.05173 0.918287 0
M  V30 9233 N 848.052 6.76176 1.89025 0
M  V30 9234 H 852.892 2.945 -0.455368 0
M  V30 9235 H 850.429 1.45188 -0.236403 0
M  V30 9236 H 852.387 3.71281 1.90279 0
M  V30 9237 H 851.017 2.57251 1.94992 0
M  V30 9238 H 850.069 3.80162 -0.134668 0
M  V30 9239 H 851.381 4.98782 0.0428506 0
M  V30 9240 H 850.535 5.60775 2.31553 0
M  V30 9241 H 849.274 4.34687 2.2113 0
M  V30 9242 H 848.279 5.49391 0.21212 0
M  V30 9243 H 849.504 6.78265 0.336633 0
M  V30 9244 H 847.45 6.07834 2.46726 0
M  V30 9245 H 847.367 7.43157 1.3876 0
M  V30 9246 H 848.635 7.35759 2.57446 0
M  V30 9247 N 852.864 0.259585 1.55447 0
M  V30 9248 C 853.774 -0.645026 2.25558 0
M  V30 9249 C 854.79 -1.18291 1.27606 0
M  V30 9250 O 855.966 -1.21649 1.6051 0
M  V30 9251 C 853.031 -1.81964 2.9511 0
M  V30 9252 C 852.092 -1.31997 4.08504 0
M  V30 9253 C 851.325 -2.43861 4.74729 0
M  V30 9254 O 851.548 -3.62876 4.40088 0
M  V30 9255 O 850.482 -2.12898 5.6299 0
M  V30 9256 H 854.308 -0.0775399 3.03601 0
M  V30 9257 H 851.893 0.0275859 1.49375 0
M  V30 9258 H 853.775 -2.50485 3.38873 0
M  V30 9259 H 852.45 -2.37451 2.19997 0
M  V30 9260 H 851.357 -0.601676 3.6923 0
M  V30 9261 H 852.69 -0.811045 4.85472 0
M  V30 9262 N 854.342 -1.57594 -0.0133615 0
M  V30 9263 C 855.292 -2.04048 -1.01726 0
M  V30 9264 C 856.276 -0.932682 -1.3111 0
M  V30 9265 O 857.468 -1.19652 -1.30432 0
M  V30 9266 C 854.597 -2.53637 -2.31351 0
M  V30 9267 C 853.683 -3.71269 -2.04989 0
M  V30 9268 N 854.074 -4.83436 -1.48739 0
M  V30 9269 C 852.372 -3.78943 -2.35198 0
M  V30 9270 C 853.073 -5.64961 -1.38542 0
M  V30 9271 N 852.049 -5.10554 -1.86643 0
M  V30 9272 H 855.851 -2.88188 -0.576623 0
M  V30 9273 H 853.365 -1.60912 -0.219344 0
M  V30 9274 H 855.362 -2.85186 -3.04096 0
M  V30 9275 H 854.022 -1.7091 -2.76079 0
M  V30 9276 H 855.033 -5.04558 -1.16798 0
M  V30 9277 H 851.71 -3.07047 -2.82893 0
M  V30 9278 H 853.1 -6.65092 -0.954075 0
M  V30 9279 N 855.82 0.285905 -1.54985 0
M  V30 9280 C 857.231 0.857869 -1.65824 0
M  V30 9281 C 857.582 1.87531 -0.576763 0
M  V30 9282 O 856.707 2.14528 0.284016 0
M  V30 9283 C 857.302 1.56277 -3.00604 0
M  V30 9284 C 855.861 2.08294 -3.13513 0
M  V30 9285 C 855.008 0.920633 -2.61571 0
M  V30 9286 H 857.959 0.0625463 -1.58577 0
M  V30 9287 H 857.98 2.42912 -2.92872 0
M  V30 9288 H 857.492 0.822017 -3.79295 0
M  V30 9289 H 855.593 2.8537 -2.39572 0
M  V30 9290 H 855.706 2.3071 -4.19892 0
M  V30 9291 H 854.07 1.31043 -2.18403 0
M  V30 9292 H 854.853 0.193594 -3.42754 0
M  V30 9293 N 857.298 1.47698 0.54982 0
M  V30 9294 C 858.261 1.60282 1.63837 0
M  V30 9295 C 859.261 0.477394 1.5355 0
M  V30 9296 O 860.451 0.742665 1.57576 0
M  V30 9297 C 857.583 1.55431 3.03404 0
M  V30 9298 H 858.776 2.57325 1.54026 0
M  V30 9299 H 856.329 1.35999 0.770329 0
M  V30 9300 H 857.064 0.597912 3.1874 0
M  V30 9301 H 856.849 2.37116 3.12279 0
M  V30 9302 H 858.339 1.6739 3.82584 0
M  V30 9303 N 858.776 -0.797141 1.35954 0
M  V30 9304 C 860.023 -1.55468 1.29754 0
M  V30 9305 C 860.351 -1.94095 -0.125391 0
M  V30 9306 O 859.606 -1.62341 -1.09288 0
M  V30 9307 C 859.905 -2.84847 2.15863 0
M  V30 9308 C 859.571 -2.65394 3.64523 0
M  V30 9309 C 858.233 -2.59796 4.05042 0
M  V30 9310 C 860.585 -2.4727 4.58811 0
M  V30 9311 C 857.913 -2.3403 5.38002 0
M  V30 9312 C 860.265 -2.23032 5.91979 0
M  V30 9313 C 858.929 -2.15862 6.31633 0
M  V30 9314 H 858.199 -0.568897 0.474803 0
M  V30 9315 H 860.846 -0.920299 1.67937 0
M  V30 9316 H 859.151 -3.52712 1.70591 0
M  V30 9317 H 860.848 -3.42597 2.08395 0
M  V30 9318 H 857.438 -2.70602 3.32374 0
M  V30 9319 H 861.622 -2.506 4.28384 0
M  V30 9320 H 856.878 -2.26956 5.67715 0
M  V30 9321 H 861.052 -2.08001 6.64612 0
M  V30 9322 H 858.679 -1.9566 7.34589 0
M  V30 9323 N 860.254 -1.20106 -1.0204 0
M  V30 9324 C 861.67 -0.955099 -1.27867 0
M  V30 9325 C 861.87 0.367595 -1.98119 0
M  V30 9326 O 860.926 1.09705 -2.27423 0
M  V30 9327 C 862.239 -2.13507 -2.11744 0
M  V30 9328 C 863.787 -2.17563 -2.25023 0
M  V30 9329 C 864.262 -3.35035 -3.12275 0
M  V30 9330 N 865.753 -3.35024 -3.19864 0
M  V30 9331 C 866.488 -4.22566 -3.8759 0
M  V30 9332 N 865.984 -5.20278 -4.57474 0
M  V30 9333 N 867.777 -4.10418 -3.84075 0
M  V30 9334 H 859.928 -2.05193 -0.54861 0
M  V30 9335 H 862.191 -0.897689 -0.304728 0
M  V30 9336 H 861.897 -3.09275 -1.67456 0
M  V30 9337 H 861.771 -2.11281 -3.12474 0
M  V30 9338 H 864.158 -1.22359 -2.68537 0
M  V30 9339 H 864.239 -2.23838 -1.23815 0
M  V30 9340 H 863.883 -4.30522 -2.69468 0
M  V30 9341 H 863.813 -3.25996 -4.13563 0
M  V30 9342 H 866.304 -2.64299 -2.701 0
M  V30 9343 H 866.617 -5.83408 -5.06809 0
M  V30 9344 H 864.962 -5.24219 -4.56311 0
M  V30 9345 H 868.153 -3.33353 -3.28623 0
M  V30 9346 H 868.326 -4.78854 -4.36581 0
M  V30 9347 N 861.732 1.21287 -1.00634 0
M  V30 9348 C 862.662 2.25973 -0.588089 0
M  V30 9349 C 863.643 1.65527 0.391764 0
M  V30 9350 O 864.828 1.92179 0.279452 0
M  V30 9351 C 861.958 3.47197 0.0847336 0
M  V30 9352 C 860.912 4.20168 -0.815039 0
M  V30 9353 C 860.238 5.34699 -0.00855393 0
M  V30 9354 C 861.538 4.77416 -2.11828 0
M  V30 9355 H 863.232 2.61212 -1.46317 0
M  V30 9356 H 860.778 1.25563 -0.704985 0
M  V30 9357 H 862.731 4.19602 0.388821 0
M  V30 9358 H 861.455 3.11092 0.994456 0
M  V30 9359 H 860.114 3.49614 -1.10297 0
M  V30 9360 H 859.762 4.94837 0.902499 0
M  V30 9361 H 859.462 5.84449 -0.607664 0
M  V30 9362 H 860.986 6.09914 0.289317 0
M  V30 9363 H 862.4 5.41694 -1.87725 0
M  V30 9364 H 860.797 5.37561 -2.66736 0
M  V30 9365 H 861.867 3.96724 -2.78816 0
M  V30 9366 N 863.21 0.781244 1.36873 0
M  V30 9367 C 864.173 0.180094 2.28491 0
M  V30 9368 C 865.173 -0.617798 1.48458 0
M  V30 9369 O 866.363 -0.439991 1.68552 0
M  V30 9370 C 863.495 -0.751741 3.32508 0
M  V30 9371 H 864.688 0.987837 2.83164 0
M  V30 9372 H 862.241 0.550102 1.463 0
M  V30 9373 H 862.976 -1.58413 2.82977 0
M  V30 9374 H 862.761 -0.181649 3.91679 0
M  V30 9375 H 864.251 -1.16748 4.00949 0
M  V30 9376 N 864.689 -1.48329 0.532571 0
M  V30 9377 C 865.914 -2.074 0.00147755 0
M  V30 9378 C 866.339 -1.38615 -1.27151 0
M  V30 9379 O 865.697 -0.452949 -1.75551 0
M  V30 9380 C 865.745 -3.60029 -0.202866 0
M  V30 9381 O 864.849 -3.92327 -1.27097 0
M  V30 9382 H 864.19 -0.662777 0.0402883 0
M  V30 9383 H 866.72 -1.90701 0.741224 0
M  V30 9384 H 866.73 -4.05783 -0.424722 0
M  V30 9385 H 865.405 -4.09496 0.727033 0
M  V30 9386 H 863.982 -3.58348 -1.03156 0
M  V30 9387 N 866.167 -0.267825 -1.55308 0
M  V30 9388 C 867.444 0.402449 -1.91415 0
M  V30 9389 C 867.824 1.7428 -1.1912 0
M  V30 9390 O 867.172 2.2631 -0.315609 0
M  V30 9391 C 867.382 0.549926 -3.4464 0
M  V30 9392 C 868.73 0.836188 -4.16285 0
M  V30 9393 O 869.754 0.635009 -3.50494 0
M  V30 9394 O 868.613 1.22051 -5.32697 0
M  V30 9395 H 865.707 0.219177 -0.797427 0
M  V30 9396 H 868.253 -0.313439 -1.6678 0
M  V30 9397 H 867.025 -0.393641 -3.89315 0
M  V30 9398 H 866.648 1.31556 -3.75205 0
M  V30 9399 N 867.645 1.57599 0.00500368 0
M  V30 9400 C 868.893 1.89973 0.68953 0
M  V30 9401 C 869.214 0.868531 1.7459 0
M  V30 9402 O 868.484 -0.0947367 1.95671 0
M  V30 9403 H 867.064 0.701153 0.25767 0
M  V30 9404 H 869.726 1.94869 -0.0347392 0
M  V30 9405 H 868.822 2.89584 1.16394 0
M  V30 9406 N 869.123 -0.277682 1.55134 0
M  V30 9407 C 870.363 -1.01761 1.77269 0
M  V30 9408 C 870.727 -1.83668 0.559465 0
M  V30 9409 O 871.928 -2.60597 0.658972 0
M  V30 9410 C 870.199 -1.88062 3.0392 0
M  V30 9411 S 871.758 -2.68383 3.47154 0
M  V30 9412 H 868.576 -0.342816 0.622895 0
M  V30 9413 H 871.178 -0.288514 1.93359 0
M  V30 9414 H 869.882 -1.26805 3.90319 0
M  V30 9415 H 869.413 -2.65299 2.90482 0
M  V30 9416 H 871.428 -3.90567 3.06059 0
M  V30 9417 N 870.601 -1.47988 -0.541979 0
M  V30 9418 C 871.531 -1.64503 -1.65713 0
M  V30 9419 C 872.512 -0.494116 -1.62765 0
M  V30 9420 O 873.697 -0.725256 -1.80149 0
M  V30 9421 C 870.827 -1.67337 -3.04328 0
M  V30 9422 C 869.781 -2.81809 -3.2213 0
M  V30 9423 C 869.107 -2.69724 -4.61685 0
M  V30 9424 C 870.407 -4.23241 -3.06046 0
M  V30 9425 H 872.101 -2.5786 -1.52147 0
M  V30 9426 H 869.647 -1.24094 -0.730529 0
M  V30 9427 H 871.6 -1.77481 -3.82202 0
M  V30 9428 H 870.324 -0.705514 -3.18889 0
M  V30 9429 H 868.983 -2.71201 -2.46669 0
M  V30 9430 H 868.631 -1.70934 -4.73065 0
M  V30 9431 H 868.331 -3.4653 -4.74543 0
M  V30 9432 H 869.855 -2.81818 -5.41674 0
M  V30 9433 H 871.269 -4.34746 -3.73723 0
M  V30 9434 H 869.666 -5.00952 -3.30405 0
M  V30 9435 H 870.736 -4.40543 -2.02609 0
M  V30 9436 N 872.079 0.78992 -1.36375 0
M  V30 9437 C 873.495 1.0879 -1.16777 0
M  V30 9438 C 873.695 2.01498 0.00848236 0
M  V30 9439 O 872.751 2.43338 0.674007 0
M  V30 9440 C 874.064 1.70285 -2.47837 0
M  V30 9441 C 875.612 1.82629 -2.54196 0
M  V30 9442 C 876.087 2.47539 -3.85342 0
M  V30 9443 N 877.578 2.55008 -3.86685 0
M  V30 9444 C 878.313 3.06041 -4.84898 0
M  V30 9445 N 877.809 3.57385 -5.93505 0
M  V30 9446 N 879.602 3.04748 -4.72319 0
M  V30 9447 H 871.753 0.173985 -2.11686 0
M  V30 9448 H 874.016 0.139798 -0.937636 0
M  V30 9449 H 873.722 1.09633 -3.34176 0
M  V30 9450 H 873.596 2.69799 -2.63607 0
M  V30 9451 H 875.983 2.42419 -1.68276 0
M  V30 9452 H 876.064 0.81923 -2.42327 0
M  V30 9453 H 875.708 1.88393 -4.71668 0
M  V30 9454 H 875.638 3.48815 -3.94507 0
M  V30 9455 H 878.129 2.18651 -3.08221 0
M  V30 9456 H 878.442 3.94674 -6.64419 0
M  V30 9457 H 876.787 3.55538 -5.97175 0
M  V30 9458 H 879.978 2.63925 -3.86602 0
M  V30 9459 H 880.151 3.44212 -5.49019 0
M  V30 9460 N 873.557 1.20646 1.01402 0
M  V30 9461 C 874.52 0.959314 2.08158 0
M  V30 9462 C 875.52 -0.0661558 1.60664 0
M  V30 9463 O 876.71 0.170177 1.73367 0
M  V30 9464 C 873.842 0.444785 3.37986 0
M  V30 9465 H 875.035 1.90631 2.31517 0
M  V30 9466 H 872.588 1.02219 1.18241 0
M  V30 9467 H 873.323 -0.507553 3.20304 0
M  V30 9468 H 873.108 1.18435 3.73785 0
M  V30 9469 H 874.598 0.291443 4.16582 0
M  V30 9470 N 875.035 -1.20752 1.01276 0
M  V30 9471 C 875.965 -2.25658 0.600064 0
M  V30 9472 C 876.946 -1.65733 -0.38298 0
M  V30 9473 O 878.131 -1.92324 -0.269256 0
M  V30 9474 C 875.261 -3.47237 -0.0663197 0
M  V30 9475 C 874.215 -4.1973 0.83731 0
M  V30 9476 C 873.541 -5.34687 0.0369102 0
M  V30 9477 C 874.841 -4.76286 2.14357 0
M  V30 9478 H 876.535 -2.60432 1.477 0
M  V30 9479 H 874.081 -1.25187 0.711634 0
M  V30 9480 H 876.034 -4.19803 -0.366563 0
M  V30 9481 H 874.758 -3.11615 -0.977944 0
M  V30 9482 H 873.417 -3.49024 1.1215 0
M  V30 9483 H 873.065 -4.95309 -0.876244 0
M  V30 9484 H 872.765 -5.84119 0.63865 0
M  V30 9485 H 874.289 -6.10059 -0.256968 0
M  V30 9486 H 875.703 -5.40691 1.90595 0
M  V30 9487 H 874.1 -5.36139 2.69583 0
M  V30 9488 H 875.17 -3.9524 2.80916 0
M  V30 9489 N 876.513 -0.788492 -1.36457 0
M  V30 9490 C 877.476 -0.192209 -2.28393 0
M  V30 9491 C 878.476 0.609916 -1.48784 0
M  V30 9492 O 879.666 0.431046 -1.68783 0
M  V30 9493 C 876.798 0.734096 -3.32902 0
M  V30 9494 H 877.991 -1.00284 -2.82636 0
M  V30 9495 H 875.544 -0.557852 -1.46006 0
M  V30 9496 H 876.279 1.5691 -2.83813 0
M  V30 9497 H 876.064 0.160875 -3.9177 0
M  V30 9498 H 877.554 1.1462 -4.01562 0
M  V30 9499 N 877.991 1.48044 -0.54043 0
M  V30 9500 C 878.924 2.26667 0.264083 0
M  V30 9501 C 879.902 1.32996 0.935456 0
M  V30 9502 O 881.086 1.62354 0.95778 0
M  V30 9503 C 878.213 3.09541 1.37485 0
M  V30 9504 C 877.259 4.18664 0.813792 0
M  V30 9505 S 878.092 5.34503 -0.326536 0
M  V30 9506 C 879.248 6.20939 0.786452 0
M  V30 9507 H 879.481 2.94554 -0.403129 0
M  V30 9508 H 877.014 1.5091 -0.326415 0
M  V30 9509 H 878.972 3.57863 2.01107 0
M  V30 9510 H 877.633 2.41048 2.01382 0
M  V30 9511 H 876.826 4.76316 1.6474 0
M  V30 9512 H 876.428 3.73136 0.254066 0
M  V30 9513 H 878.72 6.56273 1.68262 0
M  V30 9514 H 879.663 7.07667 0.247673 0
M  V30 9515 H 880.071 5.54236 1.07156 0
M  V30 9516 N 879.47 0.276058 1.55163 0
M  V30 9517 C 880.38 -0.621066 2.2623 0
M  V30 9518 C 881.396 -1.16931 1.28853 0
M  V30 9519 O 882.572 -1.1994 1.61791 0
M  V30 9520 C 879.637 -1.78824 2.97023 0
M  V30 9521 C 878.698 -1.27657 4.09881 0
M  V30 9522 C 877.931 -2.38812 4.77289 0
M  V30 9523 O 878.154 -3.58188 4.43912 0
M  V30 9524 O 877.088 -2.06915 5.65217 0
M  V30 9525 H 880.914 -0.0453346 3.03666 0
M  V30 9526 H 878.499 0.0434275 1.49337 0
M  V30 9527 H 880.381 -2.46877 3.41511 0
M  V30 9528 H 879.056 -2.35104 2.22503 0
M  V30 9529 H 877.963 -0.56248 3.69847 0
M  V30 9530 H 879.296 -0.759509 4.86305 0
M  V30 9531 N 880.948 -1.576 0.00335426 0
M  V30 9532 C 882.195 -1.90713 -0.680791 0
M  V30 9533 C 882.523 -0.877263 -1.73592 0
M  V30 9534 O 881.778 0.117497 -1.95347 0
M  V30 9535 C 882.077 -3.3058 -1.35837 0
M  V30 9536 C 881.743 -4.48786 -0.436111 0
M  V30 9537 C 880.405 -4.80855 -0.182195 0
M  V30 9538 C 882.757 -5.20821 0.198677 0
M  V30 9539 C 880.085 -5.8233 0.714747 0
M  V30 9540 C 882.437 -6.23252 1.08351 0
M  V30 9541 C 881.101 -6.53776 1.34658 0
M  V30 9542 H 880.371 -0.697869 -0.249119 0
M  V30 9543 H 883.018 -1.91407 0.0596011 0
M  V30 9544 H 881.323 -3.26026 -2.17289 0
M  V30 9545 H 883.02 -3.53462 -1.89383 0
M  V30 9546 H 879.61 -4.23731 -0.644186 0
M  V30 9547 H 883.794 -4.96298 0.0155259 0
M  V30 9548 H 879.05 -6.04339 0.926529 0
M  V30 9549 H 883.224 -6.78199 1.58172 0
M  V30 9550 H 880.851 -7.32225 2.04328 0
M  V30 9551 N 882.426 0.269451 -1.5528 0
M  V30 9552 C 883.358 1.35553 -1.84819 0
M  V30 9553 C 884.371 1.45369 -0.732914 0
M  V30 9554 O 885.56 1.47122 -1.0108 0
M  V30 9555 C 882.66 2.73645 -1.9993 0
M  V30 9556 C 881.833 2.86376 -3.30617 0
M  V30 9557 C 880.892 4.05165 -3.35749 0
M  V30 9558 O 879.918 3.95756 -4.09104 0
M  V30 9559 N 881.12 5.17297 -2.63408 0
M  V30 9560 H 883.885 1.10557 -2.78563 0
M  V30 9561 H 881.446 0.459566 -1.5524 0
M  V30 9562 H 883.438 3.51411 -2.00729 0
M  V30 9563 H 882.008 2.91448 -1.13035 0
M  V30 9564 H 881.228 1.95465 -3.42326 0
M  V30 9565 H 882.516 2.91815 -4.16799 0
M  V30 9566 H 881.914 5.2783 -2.03501 0
M  V30 9567 H 880.471 5.93281 -2.69927 0
M  V30 9568 N 883.904 1.48273 0.534124 0
M  V30 9569 C 885.132 1.59734 1.31501 0
M  V30 9570 C 885.547 0.256047 1.87056 0
M  V30 9571 O 884.904 -0.754086 1.66192 0
M  V30 9572 C 884.955 2.64072 2.46877 0
M  V30 9573 O 884.676 3.92995 1.93613 0
M  V30 9574 C 886.177 2.85933 3.38758 0
M  V30 9575 H 883.397 0.538703 0.40005 0
M  V30 9576 H 885.941 1.9407 0.644762 0
M  V30 9577 H 884.096 2.32606 3.09795 0
M  V30 9578 H 884.51 4.50203 2.69106 0
M  V30 9579 H 885.984 3.62749 4.16073 0
M  V30 9580 H 886.461 1.94603 3.93734 0
M  V30 9581 H 887.067 3.18687 2.81636 0
M  V30 9582 N 885.382 -0.782676 1.36792 0
M  V30 9583 C 886.628 -1.54311 1.3159 0
M  V30 9584 C 886.961 -1.93928 -0.102696 0
M  V30 9585 O 886.236 -1.63233 -1.05761 0
M  V30 9586 C 886.519 -2.81561 2.24489 0
M  V30 9587 C 886.372 -2.48268 3.75078 0
M  V30 9588 C 887.691 -3.83428 2.16034 0
M  V30 9589 H 884.81 -0.559828 0.479335 0
M  V30 9590 H 887.452 -0.898717 1.67401 0
M  V30 9591 H 885.602 -3.36549 1.9408 0
M  V30 9592 H 887.274 -1.99279 4.16036 0
M  V30 9593 H 885.517 -1.81116 3.94182 0
M  V30 9594 H 886.188 -3.39183 4.35499 0
M  V30 9595 H 888.664 -3.37905 2.42815 0
M  V30 9596 H 887.54 -4.70204 2.83194 0
M  V30 9597 H 887.801 -4.26887 1.14976 0
M  V30 9598 N 886.86 -1.21182 -1.00761 0
M  V30 9599 C 887.81 -0.936247 -2.0789 0
M  V30 9600 C 888.794 0.107482 -1.60541 0
M  V30 9601 O 889.986 -0.1011 -1.76711 0
M  V30 9602 C 887.115 -0.499949 -3.3964 0
M  V30 9603 C 886.201 -1.5776 -3.93666 0
M  V30 9604 N 886.592 -2.80208 -4.2109 0
M  V30 9605 C 884.89 -1.44586 -4.21913 0
M  V30 9606 C 885.591 -3.49787 -4.64784 0
M  V30 9607 N 884.567 -2.7722 -4.676 0
M  V30 9608 H 888.369 -1.86659 -2.27015 0
M  V30 9609 H 885.883 -1.10716 -1.1881 0
M  V30 9610 H 887.88 -0.283897 -4.15932 0
M  V30 9611 H 886.54 0.423659 -3.21924 0
M  V30 9612 H 887.551 -3.16776 -4.09724 0
M  V30 9613 H 884.228 -0.587346 -4.13348 0
M  V30 9614 H 885.618 -4.54615 -4.94747 0
M  V30 9615 N 888.338 1.20213 -1.01915 0
M  V30 9616 C 889.578 1.91354 -0.71853 0
M  V30 9617 C 889.942 1.77231 0.738466 0
M  V30 9618 O 891.143 2.42876 1.15172 0
M  V30 9619 C 889.414 3.38552 -1.14529 0
M  V30 9620 S 890.973 4.28011 -0.967037 0
M  V30 9621 H 887.791 0.661015 -0.261879 0
M  V30 9622 H 890.393 1.45394 -1.30694 0
M  V30 9623 H 889.097 3.46354 -2.20153 0
M  V30 9624 H 888.628 3.8954 -0.549766 0
M  V30 9625 H 890.643 4.96035 0.127974 0
M  V30 9626 N 889.816 0.795718 1.36037 0
M  V30 9627 C 890.779 0.204318 2.28287 0
M  V30 9628 C 891.779 -0.602017 1.49105 0
M  V30 9629 O 892.969 -0.422089 1.69009 0
M  V30 9630 C 890.101 -0.716431 3.33287 0
M  V30 9631 H 891.294 1.01781 2.821 0
M  V30 9632 H 888.847 0.565588 1.45708 0
M  V30 9633 H 889.582 -1.55403 2.84641 0
M  V30 9634 H 889.367 -0.140096 3.9185 0
M  V30 9635 H 890.857 -1.12488 4.02164 0
M  V30 9636 N 891.294 -1.47756 0.548274 0
M  V30 9637 C 892.705 -1.8636 0.112547 0
M  V30 9638 C 893.056 -1.45589 -1.31523 0
M  V30 9639 O 892.181 -0.854874 -1.98799 0
M  V30 9640 C 892.776 -3.38224 0.197473 0
M  V30 9641 C 891.335 -3.75954 -0.183163 0
M  V30 9642 C 890.482 -2.7181 0.549059 0
M  V30 9643 H 893.433 -1.394 0.758506 0
M  V30 9644 H 893.454 -3.75957 -0.586217 0
M  V30 9645 H 892.966 -3.67868 1.23673 0
M  V30 9646 H 891.067 -3.51926 -1.22387 0
M  V30 9647 H 891.18 -4.78801 0.169178 0
M  V30 9648 H 889.544 -2.54699 -0.00682862 0
M  V30 9649 H 890.327 -3.04296 1.5893 0
M  V30 9650 N 892.772 -0.284283 -1.55015 0
M  V30 9651 C 894.02 0.329212 -1.99401 0
M  V30 9652 C 894.341 1.55687 -1.17416 0
M  V30 9653 O 893.611 1.94087 -0.265937 0
M  V30 9654 H 892.191 0.12463 -0.73653 0
M  V30 9655 H 894.853 -0.391743 -1.90922 0
M  V30 9656 H 893.949 0.61278 -3.06025 0
M  V30 9657 N 894.251 1.57596 -0.0117121 0
M  V30 9658 C 895.528 1.82323 0.708356 0
M  V30 9659 C 895.908 0.891947 1.91331 0
M  V30 9660 O 895.256 -0.0565984 2.2843 0
M  V30 9661 C 895.466 3.31111 1.10303 0
M  V30 9662 C 896.814 3.97147 1.50199 0
M  V30 9663 O 897.838 3.35503 1.1965 0
M  V30 9664 O 896.697 5.0576 2.07049 0
M  V30 9665 H 893.791 0.751173 0.345931 0
M  V30 9666 H 896.337 1.69657 -0.0380632 0
M  V30 9667 H 895.109 3.90534 0.24467 0
M  V30 9668 H 894.732 3.48818 1.90818 0
M  V30 9669 N 895.729 -0.261212 1.5542 0
M  V30 9670 C 896.659 -1.32712 1.92119 0
M  V30 9671 C 897.64 -1.50934 0.784406 0
M  V30 9672 O 898.825 -1.63781 1.04352 0
M  V30 9673 C 895.955 -2.68453 2.20341 0
M  V30 9674 C 894.909 -2.64947 3.36136 0
M  V30 9675 C 894.235 -4.04349 3.49865 0
M  V30 9676 C 895.535 -2.23182 4.72215 0
M  V30 9677 H 897.229 -1.02245 2.81401 0
M  V30 9678 H 894.775 -0.490406 1.35392 0
M  V30 9679 H 896.728 -3.43144 2.44603 0
M  V30 9680 H 895.452 -3.00527 1.27871 0
M  V30 9681 H 894.111 -1.92714 3.11861 0
M  V30 9682 H 893.759 -4.33665 2.5484 0
M  V30 9683 H 893.459 -4.02895 4.27726 0
M  V30 9684 H 894.983 -4.80761 3.76432 0
M  V30 9685 H 896.397 -2.87599 4.95943 0
M  V30 9686 H 894.794 -2.32867 5.53076 0
M  V30 9687 H 895.864 -1.18327 4.70241 0
M  V30 9688 N 897.207 -1.48554 -0.526253 0
M  V30 9689 C 898.456 -1.56014 -1.27837 0
M  V30 9690 C 898.769 -0.240643 -1.94114 0
M  V30 9691 O 899.975 -0.193525 -2.70809 0
M  V30 9692 C 898.431 -2.75161 -2.31979 0
M  V30 9693 C 898.039 -4.13768 -1.71755 0
M  V30 9694 C 899.783 -2.91936 -3.08178 0
M  V30 9695 C 897.69 -5.24171 -2.7386 0
M  V30 9696 H 896.62 -0.58082 -0.480795 0
M  V30 9697 H 899.271 -1.74895 -0.555335 0
M  V30 9698 H 897.653 -2.49722 -3.07335 0
M  V30 9699 H 898.827 -4.49241 -1.02563 0
M  V30 9700 H 897.142 -4.02141 -1.08036 0
M  V30 9701 H 899.739 -3.71586 -3.84484 0
M  V30 9702 H 900.082 -2.01533 -3.64267 0
M  V30 9703 H 900.615 -3.17294 -2.39937 0
M  V30 9704 H 897.354 -6.16552 -2.22586 0
M  V30 9705 H 896.874 -4.93181 -3.41368 0
M  V30 9706 H 898.553 -5.52442 -3.36774 0
M  V30 9707 N 898.685 0.775411 -1.37205 0
M  V30 9708 C 899.915 1.56219 -1.352 0
M  V30 9709 C 900.323 1.89087 0.065456 0
M  V30 9710 O 899.666 1.51655 1.03665 0
M  V30 9711 C 899.728 2.9019 -2.12203 0
M  V30 9712 C 899.392 2.79978 -3.61195 0
M  V30 9713 C 900.389 2.51258 -4.55154 0
M  V30 9714 C 898.074 2.98115 -4.04268 0
M  V30 9715 C 900.068 2.40798 -5.90165 0
M  V30 9716 C 897.755 2.87276 -5.39366 0
M  V30 9717 C 898.753 2.58657 -6.32128 0
M  V30 9718 O 898.441 2.47838 -7.64743 0
M  V30 9719 H 898.173 0.490735 -0.464925 0
M  V30 9720 H 900.727 0.969201 -1.81096 0
M  V30 9721 H 898.957 3.51594 -1.60992 0
M  V30 9722 H 900.646 3.51561 -2.02879 0
M  V30 9723 H 901.412 2.36935 -4.23186 0
M  V30 9724 H 897.291 3.19392 -3.3243 0
M  V30 9725 H 900.835 2.18381 -6.62537 0
M  V30 9726 H 896.732 3.01166 -5.70937 0
M  V30 9727 H 897.5 2.63215 -7.75023 0
M  V30 9728 N 900.163 1.21714 1.00117 0
M  V30 9729 C 901.113 0.947259 2.07391 0
M  V30 9730 C 902.097 -0.0989662 1.60595 0
M  V30 9731 O 903.289 0.11047 1.76655 0
M  V30 9732 C 900.418 0.517954 3.3937 0
M  V30 9733 C 899.504 1.59846 3.92823 0
M  V30 9734 N 899.895 2.82438 4.19598 0
M  V30 9735 C 898.193 1.46822 4.2114 0
M  V30 9736 C 898.894 3.52247 4.62922 0
M  V30 9737 N 897.87 2.79696 4.66124 0
M  V30 9738 H 901.672 1.8786 2.26022 0
M  V30 9739 H 899.186 1.11344 1.18221 0
M  V30 9740 H 901.183 0.305951 4.15776 0
M  V30 9741 H 899.843 -0.40658 3.22144 0
M  V30 9742 H 900.854 3.18944 4.08038 0
M  V30 9743 H 897.531 0.609259 4.13031 0
M  V30 9744 H 898.921 4.57232 4.9233 0
M  V30 9745 N 901.641 -1.19671 1.02551 0
M  V30 9746 C 902.604 -2.20987 0.608055 0
M  V30 9747 C 903.604 -1.5745 -0.326534 0
M  V30 9748 O 904.794 -1.73827 -0.114003 0
M  V30 9749 C 901.926 -3.4072 -0.11074 0
M  V30 9750 H 903.119 -2.59434 1.50446 0
M  V30 9751 H 900.672 -1.3329 0.816307 0
M  V30 9752 H 901.407 -3.07787 -1.02165 0
M  V30 9753 H 901.192 -3.88069 0.560772 0
M  V30 9754 H 902.682 -4.15776 -0.389848 0
M  V30 9755 N 903.119 -0.802921 -1.35613 0
M  V30 9756 C 904.367 -0.380822 -1.9848 0
M  V30 9757 C 904.688 1.05464 -1.6402 0
M  V30 9758 O 903.958 1.72908 -0.920854 0
M  V30 9759 H 902.538 -0.137824 -0.734176 0
M  V30 9760 H 905.2 -1.02795 -1.65587 0
M  V30 9761 H 904.296 -0.483565 -3.08331 0
M  V30 9762 N 904.597 1.47463 -0.556102 0
M  V30 9763 C 905.507 2.33785 0.195378 0
M  V30 9764 C 906.523 1.48123 0.913 0
M  V30 9765 O 907.699 1.81053 0.882141 0
M  V30 9766 C 904.764 3.24795 1.21282 0
M  V30 9767 C 903.825 4.26346 0.502747 0
M  V30 9768 C 903.058 5.13007 1.47172 0
M  V30 9769 O 903.281 5.02103 2.70646 0
M  V30 9770 O 902.215 5.93588 0.996814 0
M  V30 9771 H 906.041 2.99341 -0.512676 0
M  V30 9772 H 903.626 1.46004 -0.31673 0
M  V30 9773 H 905.508 3.81015 1.80016 0
M  V30 9774 H 904.183 2.61868 1.90282 0
M  V30 9775 H 903.09 3.73889 -0.125757 0
M  V30 9776 H 904.423 4.91984 -0.145779 0
M  V30 9777 N 906.075 0.2925 1.54862 0
M  V30 9778 C 907.3 -0.32494 2.04839 0
M  V30 9779 C 907.725 -1.47381 1.16877 0
M  V30 9780 O 907.083 -1.80492 0.171028 0
M  V30 9781 C 907.131 -0.76694 3.5235 0
M  V30 9782 O 906.235 -1.87256 3.67436 0
M  V30 9783 H 905.576 -0.0645195 0.660858 0
M  V30 9784 H 908.106 0.431867 1.9999 0
M  V30 9785 H 908.116 -1.05804 3.94043 0
M  V30 9786 H 906.791 0.0735212 4.15835 0
M  V30 9787 H 905.368 -1.58266 3.37648 0
M  V30 9788 N 907.553 -1.57587 0.0200696 0
M  V30 9789 C 908.799 -1.91708 -0.661503 0
M  V30 9790 C 909.132 -0.895968 -1.72296 0
M  V30 9791 O 908.407 0.082577 -1.94325 0
M  V30 9792 C 908.69 -3.36344 -1.28627 0
M  V30 9793 C 908.543 -4.49186 -0.234982 0
M  V30 9794 C 909.862 -3.80771 -2.20685 0
M  V30 9795 H 906.981 -0.69717 -0.239005 0
M  V30 9796 H 909.623 -1.8985 0.0754764 0
M  V30 9797 H 907.773 -3.38058 -1.91439 0
M  V30 9798 H 909.445 -4.59606 0.395011 0
M  V30 9799 H 907.688 -4.31557 0.440565 0
M  V30 9800 H 908.359 -5.47395 -0.711558 0
M  V30 9801 H 910.835 -3.80735 -1.67868 0
M  V30 9802 H 909.711 -4.82685 -2.61356 0
M  V30 9803 H 909.972 -3.15764 -3.09428 0
M  V30 9804 N 909.032 0.252966 -1.55557 0
M  V30 9805 C 910.309 1.00432 -1.67847 0
M  V30 9806 C 910.689 2.03587 -0.55816 0
M  V30 9807 O 910.037 2.24239 0.439197 0
M  V30 9808 C 910.247 1.64313 -3.079 0
M  V30 9809 C 911.595 2.14726 -3.66303 0
M  V30 9810 O 912.619 1.74264 -3.10661 0
M  V30 9811 O 911.478 2.89 -4.63833 0
M  V30 9812 H 908.572 0.467102 -0.682455 0
M  V30 9813 H 911.118 0.247233 -1.67889 0
M  V30 9814 H 909.89 0.896681 -3.80888 0
M  V30 9815 H 909.513 2.46657 -3.11843 0
M  V30 9816 N 910.51 1.48831 0.518367 0
M  V30 9817 C 911.735 1.61379 1.30275 0
M  V30 9818 C 912.16 0.278571 1.86026 0
M  V30 9819 O 911.518 -0.751427 1.64995 0
M  V30 9820 C 911.566 2.67225 2.42122 0
M  V30 9821 O 910.67 2.25192 3.45489 0
M  V30 9822 H 910.011 0.540742 0.385349 0
M  V30 9823 H 912.541 1.949 0.622498 0
M  V30 9824 H 912.551 2.88859 2.8814 0
M  V30 9825 H 911.226 3.64155 2.00907 0
M  V30 9826 H 909.803 2.13819 3.05509 0
M  V30 9827 N 911.988 -0.768124 1.37614 0
M  V30 9828 C 912.918 -1.89537 1.36374 0
M  V30 9829 C 913.899 -1.68513 0.231803 0
M  V30 9830 O 915.084 -1.89318 0.432705 0
M  V30 9831 C 912.214 -3.26871 1.17358 0
M  V30 9832 C 911.168 -3.62466 2.27602 0
M  V30 9833 C 910.494 -4.9838 1.93705 0
M  V30 9834 C 911.794 -3.68841 3.69802 0
M  V30 9835 H 913.488 -1.90832 2.30702 0
M  V30 9836 H 911.034 -0.91672 1.11051 0
M  V30 9837 H 912.987 -4.05371 1.15119 0
M  V30 9838 H 911.711 -3.26018 0.194865 0
M  V30 9839 H 910.37 -2.86276 2.29002 0
M  V30 9840 H 910.018 -4.94071 0.943539 0
M  V30 9841 H 909.718 -5.23165 2.6753 0
M  V30 9842 H 911.242 -5.79276 1.93059 0
M  V30 9843 H 912.656 -4.37485 3.70513 0
M  V30 9844 H 911.053 -4.05126 4.42711 0
M  V30 9845 H 912.123 -2.69415 4.03167 0
M  V30 9846 N 913.466 -1.22244 -0.994698 0
M  V30 9847 C 914.706 -1.05747 -1.7492 0
M  V30 9848 C 915.07 0.4007 -1.87772 0
M  V30 9849 O 916.271 0.686469 -2.59887 0
M  V30 9850 C 914.542 -1.7471 -3.11787 0
M  V30 9851 S 916.101 -1.73604 -4.02998 0
M  V30 9852 H 912.919 -0.378731 -0.601734 0
M  V30 9853 H 915.521 -1.55155 -1.18942 0
M  V30 9854 H 914.225 -2.79972 -3.00073 0
M  V30 9855 H 913.756 -1.25525 -3.72836 0
M  V30 9856 H 915.771 -0.784445 -4.8996 0
M  V30 9857 N 914.944 1.19125 -1.03184 0
M  V30 9858 C 916.191 1.88883 -0.730029 0
M  V30 9859 C 916.519 1.79807 0.741602 0
M  V30 9860 O 915.774 1.18686 1.55603 0
M  V30 9861 C 916.073 3.39052 -1.13041 0
M  V30 9862 C 915.739 3.68332 -2.60082 0
M  V30 9863 C 914.401 3.76033 -3.00254 0
M  V30 9864 C 916.753 3.81423 -3.55199 0
M  V30 9865 C 914.081 3.94296 -4.34451 0
M  V30 9866 C 916.433 4.012 -4.89103 0
M  V30 9867 C 915.097 4.07134 -5.28959 0
M  V30 9868 H 914.367 0.691172 -0.267137 0
M  V30 9869 H 917.014 1.41053 -1.29523 0
M  V30 9870 H 915.319 3.88801 -0.48386 0
M  V30 9871 H 917.016 3.91351 -0.874368 0
M  V30 9872 H 913.606 3.62948 -2.27961 0
M  V30 9873 H 917.79 3.74814 -3.25313 0
M  V30 9874 H 913.046 3.97131 -4.64863 0
M  V30 9875 H 917.22 4.10271 -5.62717 0
M  V30 9876 H 914.847 4.21038 -6.32954 0
M  V30 9877 N 916.422 0.810101 1.35185 0
M  V30 9878 C 917.668 0.392698 1.98962 0
M  V30 9879 C 918.001 -1.03835 1.64109 0
M  V30 9880 O 917.276 -1.721 0.9062 0
M  V30 9881 C 917.559 0.580349 3.55393 0
M  V30 9882 C 917.412 2.05658 4.00031 0
M  V30 9883 C 918.731 0.00822618 4.40099 0
M  V30 9884 H 915.85 0.144157 0.722764 0
M  V30 9885 H 918.492 1.02029 1.60281 0
M  V30 9886 H 916.642 0.0461106 3.88473 0
M  V30 9887 H 918.314 2.65348 3.77344 0
M  V30 9888 H 916.557 2.55174 3.50811 0
M  V30 9889 H 917.228 2.13875 5.08883 0
M  V30 9890 H 919.704 0.464517 4.13499 0
M  V30 9891 H 918.58 0.169414 5.48638 0
M  V30 9892 H 918.841 -1.08576 4.2856 0
M  V30 9893 N 917.9 -1.47166 0.563914 0
M  V30 9894 C 919.146 -2.02756 0.0424338 0
M  V30 9895 C 919.479 -1.43662 -1.3067 0
M  V30 9896 O 918.754 -0.594676 -1.85186 0
M  V30 9897 C 919.037 -3.60074 -0.0434793 0
M  V30 9898 C 918.89 -4.29587 1.33323 0
M  V30 9899 C 920.209 -4.336 -0.753568 0
M  V30 9900 H 917.328 -0.736806 0.0168946 0
M  V30 9901 H 919.97 -1.75521 0.727496 0
M  V30 9902 H 918.12 -3.83409 -0.626906 0
M  V30 9903 H 919.792 -4.17573 1.96037 0
M  V30 9904 H 918.035 -3.8968 1.9061 0
M  V30 9905 H 918.706 -5.38218 1.22576 0
M  V30 9906 H 921.182 -4.15299 -0.258126 0
M  V30 9907 H 920.058 -5.43291 -0.782659 0
M  V30 9908 H 920.319 -4.03302 -1.81108 0
M  V30 9909 N 919.378 -0.300708 -1.54705 0
M  V30 9910 C 920.603 0.314073 -2.05008 0
M  V30 9911 C 921.028 1.46759 -1.17657 0
M  V30 9912 O 920.386 1.80398 -0.180598 0
M  V30 9913 C 920.434 0.748243 -3.52752 0
M  V30 9914 O 919.538 1.85305 -3.68424 0
M  V30 9915 H 918.879 0.0610139 -0.661191 0
M  V30 9916 H 921.409 -0.442467 -1.99758 0
M  V30 9917 H 921.419 1.03713 -3.94598 0
M  V30 9918 H 920.094 -0.095573 -4.1579 0
M  V30 9919 H 918.671 1.56473 -3.38483 0
M  V30 9920 N 920.856 1.57574 -0.0284266 0
M  V30 9921 C 922.104 1.91393 0.649079 0
M  V30 9922 C 922.425 0.905368 1.72708 0
M  V30 9923 O 921.695 -0.0532107 1.95828 0
M  V30 9924 H 920.275 0.70646 0.24274 0
M  V30 9925 H 922.937 1.94752 -0.076066 0
M  V30 9926 H 922.033 2.91988 1.10226 0
M  V30 9927 N 922.334 -0.244713 1.55689 0
M  V30 9928 C 923.559 -0.994157 1.8202 0
M  V30 9929 C 923.984 -1.78079 0.60577 0
M  V30 9930 O 923.342 -1.75748 -0.445221 0
M  V30 9931 C 923.39 -1.90599 3.06111 0
M  V30 9932 O 922.494 -2.99804 2.8318 0
M  V30 9933 H 921.835 -0.282767 0.600782 0
M  V30 9934 H 924.365 -0.26504 2.02876 0
M  V30 9935 H 924.375 -2.32023 3.35603 0
M  V30 9936 H 923.05 -1.32763 3.9414 0
M  V30 9937 H 921.627 -2.62493 2.64862 0
M  V30 9938 N 923.813 -1.49104 -0.510467 0
M  V30 9939 C 924.743 -1.67981 -1.62187 0
M  V30 9940 C 925.724 -0.528529 -1.6168 0
M  V30 9941 O 926.909 -0.763305 -1.7857 0
M  V30 9942 C 924.039 -1.73755 -3.0071 0
M  V30 9943 C 922.993 -2.88579 -3.1608 0
M  V30 9944 C 922.319 -2.79457 -4.5586 0
M  V30 9945 C 923.619 -4.29638 -2.97 0
M  V30 9946 H 925.313 -2.61029 -1.46643 0
M  V30 9947 H 922.859 -1.25615 -0.704042 0
M  V30 9948 H 924.812 -1.85548 -3.78352 0
M  V30 9949 H 923.536 -0.772996 -3.17321 0
M  V30 9950 H 922.195 -2.76372 -2.40861 0
M  V30 9951 H 921.843 -1.80929 -4.69333 0
M  V30 9952 H 921.543 -3.56518 -4.67086 0
M  V30 9953 H 923.067 -2.93245 -5.35574 0
M  V30 9954 H 924.481 -4.42575 -3.64418 0
M  V30 9955 H 922.878 -5.07847 -3.19704 0
M  V30 9956 H 923.948 -4.44741 -1.93219 0
M  V30 9957 N 925.291 0.760815 -1.38019 0
M  V30 9958 C 926.201 1.90526 -1.36884 0
M  V30 9959 C 927.217 1.71941 -0.266908 0
M  V30 9960 O 928.393 1.94988 -0.50413 0
M  V30 9961 C 925.458 3.25799 -1.18558 0
M  V30 9962 C 924.519 3.56961 -2.3849 0
M  V30 9963 C 923.752 4.8578 -2.21029 0
M  V30 9964 O 923.975 5.57629 -1.20023 0
M  V30 9965 O 922.909 5.16254 -3.0946 0
M  V30 9966 H 926.735 1.94437 -2.33298 0
M  V30 9967 H 924.32 0.905091 -1.18863 0
M  V30 9968 H 926.202 4.0669 -1.1037 0
M  V30 9969 H 924.877 3.22716 -0.252241 0
M  V30 9970 H 923.784 2.7626 -2.52252 0
M  V30 9971 H 925.117 3.64798 -3.30429 0
M  V30 9972 N 926.769 1.22769 0.988202 0
M  V30 9973 C 928.015 1.05665 1.73097 0
M  V30 9974 C 928.348 -0.406615 1.89895 0
M  V30 9975 O 927.623 -1.30132 1.44554 0
M  V30 9976 C 927.906 1.77381 3.13382 0
M  V30 9977 C 927.759 3.31332 3.04203 0
M  V30 9978 C 929.078 1.52999 4.12649 0
M  V30 9979 H 926.197 0.385258 0.628288 0
M  V30 9980 H 928.839 1.51171 1.15097 0
M  V30 9981 H 926.989 1.38696 3.62899 0
M  V30 9982 H 928.661 3.79489 2.6227 0
M  V30 9983 H 926.904 3.60767 2.40894 0
M  V30 9984 H 927.575 3.76692 4.03493 0
M  V30 9985 H 930.051 1.86611 3.71908 0
M  V30 9986 H 928.927 2.05666 5.08913 0
M  V30 9987 H 929.188 0.463615 4.39662 0
M  V30 9988 N 928.247 -1.18576 1.03814 0
M  V30 9989 C 929.496 -1.87822 0.735235 0
M  V30 9990 C 929.809 -1.81069 -0.739819 0
M  V30 9991 O 931.015 -2.45654 -1.15614 0
M  V30 9992 C 929.471 -3.36941 1.26486 0
M  V30 9993 C 929.079 -3.5223 2.76836 0
M  V30 9994 C 930.823 -4.11604 1.03836 0
M  V30 9995 C 928.73 -4.95294 3.23169 0
M  V30 9996 H 927.66 -0.703487 0.271333 0
M  V30 9997 H 930.311 -1.34 1.25365 0
M  V30 9998 H 928.693 -3.90217 0.674318 0
M  V30 9999 H 929.867 -3.09239 3.41625 0
M  V30 10000 H 928.182 -2.90969 2.97869 0
M  V30 10001 H 930.779 -5.17123 1.3597 0
M  V30 10002 H 931.122 -4.16293 -0.0244945 0
M  V30 10003 H 931.655 -3.64494 1.59338 0
M  V30 10004 H 928.394 -4.95772 4.28824 0
M  V30 10005 H 927.914 -5.3901 2.63113 0
M  V30 10006 H 929.593 -5.63996 3.17045 0
M  V30 10007 N 929.725 -0.817259 -1.34754 0
M  V30 10008 C 930.657 -0.192695 -2.28389 0
M  V30 10009 C 931.67 0.614167 -1.50771 0
M  V30 10010 O 932.859 0.444776 -1.7287 0
M  V30 10011 C 929.959 0.748929 -3.30521 0
M  V30 10012 C 929.132 -0.0138762 -4.37398 0
M  V30 10013 C 928.191 0.847825 -5.19325 0
M  V30 10014 O 927.217 0.29487 -5.68436 0
M  V30 10015 N 928.419 2.16843 -5.38479 0
M  V30 10016 H 931.184 -0.997122 -2.82626 0
M  V30 10017 H 928.745 -0.673696 -1.47217 0
M  V30 10018 H 930.737 1.32987 -3.82226 0
M  V30 10019 H 929.307 1.45412 -2.7672 0
M  V30 10020 H 928.527 -0.776093 -3.86485 0
M  V30 10021 H 929.815 -0.539191 -5.05935 0
M  V30 10022 H 929.213 2.64148 -5.00242 0
M  V30 10023 H 927.77 2.69835 -5.93323 0
M  V30 10024 N 931.203 1.46865 -0.571711 0
M  V30 10025 C 932.48 1.95596 0.0132445 0
M  V30 10026 C 932.86 1.51438 1.47071 0
M  V30 10027 O 932.208 0.759917 2.15494 0
M  V30 10028 C 932.418 3.48689 -0.147335 0
M  V30 10029 C 933.766 4.24599 -0.00946329 0
M  V30 10030 O 934.79 3.5612 -0.0756112 0
M  V30 10031 O 933.649 5.46332 0.135361 0
M  V30 10032 H 930.743 0.825102 0.0560039 0
M  V30 10033 H 933.289 1.57199 -0.639256 0
M  V30 10034 H 932.061 3.73681 -1.16096 0
M  V30 10035 H 931.684 3.93887 0.542109 0
M  V30 10036 N 932.681 0.308908 1.54543 0
M  V30 10037 C 933.958 -0.351558 1.92415 0
M  V30 10038 C 934.338 -1.71061 1.23699 0
M  V30 10039 O 933.686 -2.25394 0.3755 0
M  V30 10040 C 933.896 -0.458357 3.45977 0
M  V30 10041 C 935.244 -0.725524 4.18355 0
M  V30 10042 O 936.268 -0.541859 3.52054 0
M  V30 10043 O 935.127 -1.07884 5.35745 0
M  V30 10044 H 932.221 -0.197957 0.802958 0
M  V30 10045 H 934.767 0.357548 1.65891 0
M  V30 10046 H 933.539 0.496723 3.88134 0
M  V30 10047 H 933.162 -1.21562 3.78561 0
M  V30 10048 N 934.159 -1.57557 0.0367827 0
M  V30 10049 C 935.069 -2.14148 -0.958017 0
M  V30 10050 C 936.085 -1.09564 -1.35173 0
M  V30 10051 O 937.261 -1.4166 -1.43158 0
M  V30 10052 C 934.326 -2.6636 -2.21931 0
M  V30 10053 C 933.387 -3.85688 -1.8853 0
M  V30 10054 C 932.62 -4.35401 -3.08645 0
M  V30 10055 O 932.843 -3.8425 -4.21554 0
M  V30 10056 O 931.777 -5.27158 -2.90497 0
M  V30 10057 H 935.603 -2.99442 -0.506797 0
M  V30 10058 H 933.188 -1.48259 -0.184275 0
M  V30 10059 H 935.07 -2.99976 -2.9596 0
M  V30 10060 H 933.745 -1.84145 -2.66219 0
M  V30 10061 H 932.652 -3.56985 -1.11861 0
M  V30 10062 H 933.985 -4.69089 -1.49052 0
M  V30 10063 N 935.637 0.236453 -1.55816 0
M  V30 10064 C 936.883 0.964439 -1.784 0
M  V30 10065 C 937.216 1.84573 -0.603868 0
M  V30 10066 O 936.491 1.90395 0.397473 0
M  V30 10067 C 936.774 1.81608 -3.10951 0
M  V30 10068 C 936.627 0.962283 -4.39386 0
M  V30 10069 C 937.946 2.79665 -3.39817 0
M  V30 10070 H 935.065 0.349192 -0.649026 0
M  V30 10071 H 937.707 0.234247 -1.8855 0
M  V30 10072 H 935.857 2.43864 -3.02428 0
M  V30 10073 H 937.529 0.35762 -4.59912 0
M  V30 10074 H 935.772 0.267062 -4.32977 0
M  V30 10075 H 936.443 1.59222 -5.28538 0
M  V30 10076 H 938.919 2.27546 -3.4837 0
M  V30 10077 H 937.795 3.36367 -4.33761 0
M  V30 10078 H 938.056 3.56657 -2.61244 0
M  V30 10079 N 937.115 1.49373 0.502552 0
M  V30 10080 C 938.361 1.59016 1.25864 0
M  V30 10081 C 938.694 0.27532 1.92238 0
M  V30 10082 O 937.969 -0.720988 1.80643 0
M  V30 10083 C 938.252 2.74828 2.32683 0
M  V30 10084 C 938.105 4.16102 1.7082 0
M  V30 10085 C 939.424 2.86288 3.34256 0
M  V30 10086 H 936.543 0.578798 0.456248 0
M  V30 10087 H 939.185 1.81651 0.557032 0
M  V30 10088 H 937.335 2.5566 2.92524 0
M  V30 10089 H 939.007 4.46782 1.14818 0
M  V30 10090 H 937.25 4.21822 1.01238 0
M  V30 10091 H 937.921 4.93006 2.48292 0
M  V30 10092 H 940.397 3.03733 2.84404 0
M  V30 10093 H 939.273 3.69001 4.06362 0
M  V30 10094 H 939.534 1.95576 3.96488 0
M  V30 10095 N 938.594 -0.753485 1.38421 0
M  V30 10096 C 939.557 -1.84888 1.35459 0
M  V30 10097 C 940.557 -1.58764 0.255083 0
M  V30 10098 O 941.747 -1.66507 0.511978 0
M  V30 10099 C 938.879 -3.22361 1.10888 0
M  V30 10100 H 940.072 -1.88922 2.32913 0
M  V30 10101 H 937.625 -0.955199 1.23716 0
M  V30 10102 H 938.36 -3.23996 0.1404 0
M  V30 10103 H 938.145 -3.42717 1.90492 0
M  V30 10104 H 939.635 -4.02437 1.1151 0
M  V30 10105 N 940.072 -1.23292 -0.981677 0
M  V30 10106 C 941.321 -1.05832 -1.71705 0
M  V30 10107 C 941.634 0.40514 -1.91358 0
M  V30 10108 O 942.84 0.699645 -2.6233 0
M  V30 10109 C 941.296 -1.84532 -3.08992 0
M  V30 10110 C 940.904 -3.35199 -2.9723 0
M  V30 10111 C 942.648 -1.75557 -3.86497 0
M  V30 10112 C 940.555 -4.06296 -4.29741 0
M  V30 10113 H 939.485 -0.39241 -0.64384 0
M  V30 10114 H 942.136 -1.47247 -1.09502 0
M  V30 10115 H 940.518 -1.35923 -3.71942 0
M  V30 10116 H 941.692 -3.91286 -2.43377 0
M  V30 10117 H 940.007 -3.44973 -2.332 0
M  V30 10118 H 942.604 -2.25989 -4.84596 0
M  V30 10119 H 942.947 -0.718101 -4.1006 0
M  V30 10120 H 943.48 -2.21771 -3.30246 0
M  V30 10121 H 940.219 -5.10344 -4.11375 0
M  V30 10122 H 939.739 -3.54997 -4.83464 0
M  V30 10123 H 941.418 -4.12519 -4.98434 0
M  V30 10124 N 941.55 1.18024 -1.04442 0
M  V30 10125 C 942.48 2.23988 -0.659683 0
M  V30 10126 C 943.461 1.6669 0.338904 0
M  V30 10127 O 944.646 1.92971 0.21817 0
M  V30 10128 C 941.776 3.4729 -0.0257672 0
M  V30 10129 C 940.73 4.17362 -0.948299 0
M  V30 10130 C 940.056 5.34401 -0.17866 0
M  V30 10131 C 941.356 4.70435 -2.26909 0
M  V30 10132 H 943.05 2.56425 -1.54553 0
M  V30 10133 H 940.596 1.23256 -0.744575 0
M  V30 10134 H 942.549 4.20627 0.255131 0
M  V30 10135 H 941.273 3.14098 0.894981 0
M  V30 10136 H 939.932 3.45928 -1.21364 0
M  V30 10137 H 939.58 4.97458 0.744614 0
M  V30 10138 H 939.28 5.8222 -0.793294 0
M  V30 10139 H 940.804 6.10526 0.0951315 0
M  V30 10140 H 942.218 5.35447 -2.04864 0
M  V30 10141 H 940.615 5.28803 -2.83703 0
M  V30 10142 H 941.685 3.87653 -2.91296 0
M  V30 10143 N 943.028 0.824394 1.34319 0
M  V30 10144 C 944.276 0.41235 1.97849 0
M  V30 10145 C 944.597 -1.02841 1.65677 0
M  V30 10146 O 943.867 -1.71421 0.948245 0
M  V30 10147 H 942.447 0.149486 0.73189 0
M  V30 10148 H 945.109 1.05416 1.63931 0
M  V30 10149 H 944.205 0.532557 3.07523 0
M  V30 10150 N 944.506 -1.46559 0.579492 0
M  V30 10151 C 945.453 -2.30275 -0.155598 0
M  V30 10152 C 946.423 -1.40422 -0.887175 0
M  V30 10153 O 947.608 -1.69373 -0.878481 0
M  V30 10154 C 944.748 -3.24827 -1.16539 0
M  V30 10155 C 943.861 -4.29778 -0.43759 0
M  V30 10156 C 942.996 -5.11461 -1.43462 0
M  V30 10157 C 942.035 -6.08164 -0.693048 0
M  V30 10158 N 941.172 -6.82726 -1.63799 0
M  V30 10159 H 946.012 -2.92607 0.564356 0
M  V30 10160 H 943.549 -1.44211 0.290126 0
M  V30 10161 H 945.507 -3.78088 -1.76368 0
M  V30 10162 H 944.137 -2.64311 -1.8531 0
M  V30 10163 H 943.189 -3.794 0.27567 0
M  V30 10164 H 944.501 -4.98597 0.142298 0
M  V30 10165 H 943.655 -5.68982 -2.1058 0
M  V30 10166 H 942.394 -4.42595 -2.04844 0
M  V30 10167 H 941.399 -5.49799 -0.00807093 0
M  V30 10168 H 942.624 -6.79047 -0.0846678 0
M  V30 10169 H 940.57 -6.16572 -2.23997 0
M  V30 10170 H 940.487 -7.47795 -1.11082 0
M  V30 10171 H 941.755 -7.44807 -2.29962 0
M  V30 10172 N 945.984 -0.3171 -1.54377 0
M  V30 10173 C 947.232 0.286842 -2.00054 0
M  V30 10174 C 947.553 1.53161 -1.20692 0
M  V30 10175 O 946.823 1.93479 -0.307045 0
M  V30 10176 H 945.403 0.108979 -0.739008 0
M  V30 10177 H 948.065 -0.432152 -1.90049 0
M  V30 10178 H 947.161 0.547729 -3.07256 0
M  V30 10179 N 947.462 1.57535 -0.0451378 0
M  V30 10180 C 948.739 1.83785 0.669523 0
M  V30 10181 C 949.119 0.932331 1.89396 0
M  V30 10182 O 948.467 -0.00813229 2.28499 0
M  V30 10183 C 948.677 3.33376 1.03255 0
M  V30 10184 C 950.025 4.00243 1.41741 0
M  V30 10185 O 951.049 3.37965 1.12507 0
M  V30 10186 O 949.908 5.10038 1.96275 0
M  V30 10187 H 947.002 0.758342 0.329919 0
M  V30 10188 H 949.548 1.69538 -0.0740415 0
M  V30 10189 H 948.32 3.90965 0.161777 0
M  V30 10190 H 947.943 3.52787 1.83376 0
M  V30 10191 N 948.94 -0.228186 1.55939 0
M  V30 10192 C 950.186 -0.954964 1.78909 0
M  V30 10193 C 950.519 -1.8425 0.613648 0
M  V30 10194 O 949.794 -1.90604 -0.38737 0
M  V30 10195 C 950.077 -1.79957 3.1191 0
M  V30 10196 C 949.93 -0.938968 4.3989 0
M  V30 10197 C 951.249 -2.77859 3.41295 0
M  V30 10198 H 948.368 -0.345745 0.650868 0
M  V30 10199 H 951.01 -0.224244 1.88672 0
M  V30 10200 H 949.16 -2.42256 3.03717 0
M  V30 10201 H 950.832 -0.333225 4.60095 0
M  V30 10202 H 949.075 -0.244096 4.33113 0
M  V30 10203 H 949.746 -1.56416 5.29375 0
M  V30 10204 H 952.222 -2.25695 3.49572 0
M  V30 10205 H 951.098 -3.34062 4.35538 0
M  V30 10206 H 951.359 -3.55266 2.63132 0
M  V30 10207 N 950.418 -1.49637 -0.494624 0
M  V30 10208 C 951.665 -1.59445 -1.24834 0
M  V30 10209 C 951.993 -0.284028 -1.92415 0
M  V30 10210 O 951.248 0.728519 -1.81634 0
M  V30 10211 C 951.547 -2.70749 -2.33302 0
M  V30 10212 C 951.213 -4.12034 -1.83135 0
M  V30 10213 C 949.875 -4.50482 -1.69173 0
M  V30 10214 C 952.227 -5.00432 -1.4566 0
M  V30 10215 C 949.555 -5.75093 -1.16124 0
M  V30 10216 C 951.907 -6.25568 -0.940608 0
M  V30 10217 C 950.571 -6.62839 -0.787432 0
M  V30 10218 H 949.841 -0.583451 -0.456799 0
M  V30 10219 H 952.488 -1.8349 -0.548044 0
M  V30 10220 H 950.793 -2.407 -3.09145 0
M  V30 10221 H 952.49 -2.75546 -2.91334 0
M  V30 10222 H 949.08 -3.8169 -1.94964 0
M  V30 10223 H 953.264 -4.71379 -1.55291 0
M  V30 10224 H 948.52 -6.02665 -1.02982 0
M  V30 10225 H 952.694 -6.93439 -0.641467 0
M  V30 10226 H 950.321 -7.59279 -0.374191 0
M  V30 10227 N 951.896 0.746133 -1.38819 0
M  V30 10228 C 953.144 1.50247 -1.35167 0
M  V30 10229 C 953.465 1.94921 0.0553531 0
M  V30 10230 O 952.735 1.68187 1.00449 0
M  V30 10231 H 951.315 0.557337 -0.497377 0
M  V30 10232 H 953.977 0.886472 -1.73573 0
M  V30 10233 H 953.073 2.38986 -2.00728 0
M  V30 10234 N 953.375 1.23811 0.975125 0
M  V30 10235 C 954.652 0.9815 1.69192 0
M  V30 10236 C 955.032 -0.498373 2.05133 0
M  V30 10237 O 954.38 -1.47087 1.74864 0
M  V30 10238 C 954.59 1.89701 2.92941 0
M  V30 10239 C 955.938 2.16357 3.65342 0
M  V30 10240 O 956.962 1.87293 3.02985 0
M  V30 10241 O 955.821 2.65675 4.77576 0
M  V30 10242 H 952.915 0.370599 0.739314 0
M  V30 10243 H 955.461 1.34876 1.02988 0
M  V30 10244 H 954.233 2.89719 2.63018 0
M  V30 10245 H 953.856 1.53244 3.66881 0
M  V30 10246 N 954.853 -1.17469 1.05066 0
M  V30 10247 C 956.099 -1.87976 0.761113 0
M  V30 10248 C 956.432 -1.80756 -0.709995 0
M  V30 10249 O 955.707 -1.21469 -1.51906 0
M  V30 10250 C 955.99 -3.38055 1.2406 0
M  V30 10251 C 955.843 -3.54032 2.77455 0
M  V30 10252 C 957.162 -4.32036 0.838612 0
M  V30 10253 H 954.281 -0.682573 0.277963 0
M  V30 10254 H 956.923 -1.38147 1.30443 0
M  V30 10255 H 955.073 -3.80622 0.778388 0
M  V30 10256 H 956.745 -3.20489 3.3179 0
M  V30 10257 H 954.988 -2.96352 3.16793 0
M  V30 10258 H 955.659 -4.59377 3.06066 0
M  V30 10259 H 958.135 -3.97303 1.23651 0
M  V30 10260 H 957.011 -5.35583 1.20173 0
M  V30 10261 H 957.272 -4.41349 -0.257498 0
M  V30 10262 N 956.331 -0.831506 -1.3388 0
M  V30 10263 C 957.578 -0.423674 -1.98018 0
M  V30 10264 C 957.906 1.01533 -1.65895 0
M  V30 10265 O 957.161 1.72342 -0.927183 0
M  V30 10266 C 957.46 -0.582733 -3.52617 0
M  V30 10267 C 957.126 -1.98874 -4.04673 0
M  V30 10268 C 955.788 -2.37334 -4.186 0
M  V30 10269 C 958.14 -2.90745 -4.3257 0
M  V30 10270 C 955.468 -3.66984 -4.57755 0
M  V30 10271 C 957.82 -4.19868 -4.73174 0
M  V30 10272 C 956.484 -4.58294 -4.85307 0
M  V30 10273 H 955.754 -0.155033 -0.7246 0
M  V30 10274 H 958.401 -1.05711 -1.59679 0
M  V30 10275 H 956.706 0.134052 -3.91571 0
M  V30 10276 H 958.403 -0.247576 -4.00235 0
M  V30 10277 H 954.993 -1.68001 -3.94301 0
M  V30 10278 H 959.177 -2.62272 -4.2134 0
M  V30 10279 H 954.433 -3.9657 -4.65341 0
M  V30 10280 H 958.607 -4.91138 -4.93717 0
M  V30 10281 H 956.234 -5.58805 -5.15404 0
M  V30 10282 N 957.809 1.4625 -0.587256 0
M  V30 10283 C 959.055 2.0323 -0.0830359 0
M  V30 10284 C 959.41 1.45007 1.26455 0
M  V30 10285 O 958.703 0.607494 1.81714 0
M  V30 10286 C 958.897 3.57382 0.036328 0
M  V30 10287 C 958.726 4.30556 -1.29814 0
M  V30 10288 C 957.496 4.69285 -1.87349 0
M  V30 10289 C 959.694 4.63806 -2.22236 0
M  V30 10290 N 957.676 5.27229 -3.14488 0
M  V30 10291 C 959.047 5.22368 -3.33964 0
M  V30 10292 C 961.102 4.45738 -2.2186 0
M  V30 10293 C 959.805 5.64769 -4.45454 0
M  V30 10294 C 961.831 4.89158 -3.32383 0
M  V30 10295 C 961.193 5.47795 -4.42832 0
M  V30 10296 H 957.292 0.77856 -0.0732716 0
M  V30 10297 H 959.876 1.78343 -0.781152 0
M  V30 10298 H 958.047 3.81973 0.703621 0
M  V30 10299 H 959.779 4.01009 0.545347 0
M  V30 10300 H 956.534 4.5219 -1.40789 0
M  V30 10301 H 956.958 5.60719 -3.79372 0
M  V30 10302 H 961.6 3.99735 -1.37739 0
M  V30 10303 H 959.318 6.09748 -5.30314 0
M  V30 10304 H 962.904 4.76926 -3.33216 0
M  V30 10305 H 961.784 5.80778 -5.26941 0
M  V30 10306 N 959.287 0.325282 1.54207 0
M  V30 10307 C 960.234 -0.539889 2.24397 0
M  V30 10308 C 961.204 -1.11028 1.2354 0
M  V30 10309 O 962.389 -1.1503 1.52226 0
M  V30 10310 C 959.529 -1.69405 3.00659 0
M  V30 10311 C 958.642 -1.15273 4.16337 0
M  V30 10312 C 957.777 -2.27272 4.80126 0
M  V30 10313 C 956.816 -1.70397 5.87904 0
M  V30 10314 N 955.953 -2.76065 6.45548 0
M  V30 10315 H 960.793 0.0652318 2.97929 0
M  V30 10316 H 958.33 0.043964 1.47034 0
M  V30 10317 H 960.288 -2.37325 3.43122 0
M  V30 10318 H 958.918 -2.27043 2.29458 0
M  V30 10319 H 957.97 -0.365034 3.78645 0
M  V30 10320 H 959.282 -0.696576 4.93912 0
M  V30 10321 H 958.436 -3.03092 5.25566 0
M  V30 10322 H 957.175 -2.76224 4.01935 0
M  V30 10323 H 956.18 -0.930752 5.41864 0
M  V30 10324 H 957.405 -1.22319 6.67993 0
M  V30 10325 H 955.351 -3.24306 5.7023 0
M  V30 10326 H 955.268 -2.35018 7.18542 0
M  V30 10327 H 956.536 -3.5171 6.95644 0
M  V30 10328 N 960.765 -1.57509 0.0534917 0
M  V30 10329 C 961.675 -2.15152 -0.935249 0
M  V30 10330 C 962.691 -1.10991 -1.34003 0
M  V30 10331 O 963.867 -1.43171 -1.41648 0
M  V30 10332 C 960.932 -2.68699 -2.19093 0
M  V30 10333 C 959.993 -3.87666 -1.84428 0
M  V30 10334 C 959.226 -4.3865 -3.0401 0
M  V30 10335 O 959.449 -3.887 -4.17455 0
M  V30 10336 O 958.383 -5.30209 -2.84889 0
M  V30 10337 H 962.209 -2.99962 -0.475009 0
M  V30 10338 H 959.794 -1.48446 -0.16854 0
M  V30 10339 H 961.676 -3.03098 -2.92762 0
M  V30 10340 H 960.351 -1.86958 -2.6425 0
M  V30 10341 H 959.258 -3.58151 -1.08068 0
M  V30 10342 H 960.591 -4.70643 -1.44068 0
M  V30 10343 N 962.243 0.219913 -1.56058 0
M  V30 10344 C 963.206 1.25606 -1.91718 0
M  V30 10345 C 964.206 1.39721 -0.795912 0
M  V30 10346 O 965.396 1.37958 -1.06364 0
M  V30 10347 C 962.528 2.62961 -2.16943 0
M  V30 10348 H 963.721 0.951909 -2.84392 0
M  V30 10349 H 961.274 0.460398 -1.49365 0
M  V30 10350 H 962.009 2.98472 -1.26826 0
M  V30 10351 H 961.794 2.54093 -2.98629 0
M  V30 10352 H 963.284 3.37727 -2.45622 0
M  V30 10353 N 963.721 1.49897 0.486681 0
M  V30 10354 C 964.949 1.63837 1.26353 0
M  V30 10355 C 965.364 0.315428 1.86146 0
M  V30 10356 O 964.721 -0.700831 1.68507 0
M  V30 10357 C 964.772 2.71792 2.38351 0
M  V30 10358 O 964.493 3.98956 1.81013 0
M  V30 10359 C 965.994 2.96566 3.2949 0
M  V30 10360 H 963.214 0.551158 0.382709 0
M  V30 10361 H 965.758 1.96023 0.582694 0
M  V30 10362 H 963.913 2.42344 3.02238 0
M  V30 10363 H 964.327 4.58536 2.54647 0
M  V30 10364 H 965.801 3.75803 4.04322 0
M  V30 10365 H 966.278 2.07031 3.87343 0
M  V30 10366 H 966.884 3.27485 2.71355 0
M  V30 10367 N 965.199 -0.738761 1.39212 0
M  V30 10368 C 966.129 -1.86602 1.40364 0
M  V30 10369 C 967.11 -1.67984 0.267495 0
M  V30 10370 O 968.295 -1.88358 0.472765 0
M  V30 10371 C 965.425 -3.24308 1.24265 0
M  V30 10372 C 964.379 -3.57557 2.35239 0
M  V30 10373 C 963.705 -4.94159 2.04233 0
M  V30 10374 C 965.005 -3.60914 3.77543 0
M  V30 10375 H 966.699 -1.85896 2.34698 0
M  V30 10376 H 964.245 -0.892959 1.1297 0
M  V30 10377 H 966.198 -4.02838 1.23692 0
M  V30 10378 H 964.922 -3.25531 0.263974 0
M  V30 10379 H 963.581 -2.81354 2.35022 0
M  V30 10380 H 963.229 -4.91959 1.04813 0
M  V30 10381 H 962.929 -5.17373 2.78567 0
M  V30 10382 H 964.453 -5.7505 2.05303 0
M  V30 10383 H 965.867 -4.29528 3.79709 0
M  V30 10384 H 964.264 -3.95644 4.51205 0
M  V30 10385 H 965.334 -2.60803 4.08791 0
M  V30 10386 N 966.677 -1.24326 -0.968545 0
M  V30 10387 C 967.64 -1.03591 -2.04454 0
M  V30 10388 C 968.64 0.0064809 -1.60799 0
M  V30 10389 O 969.83 -0.234404 -1.72616 0
M  V30 10390 C 966.962 -0.56992 -3.36102 0
M  V30 10391 H 968.155 -1.99092 -2.24282 0
M  V30 10392 H 965.708 -1.06537 -1.14366 0
M  V30 10393 H 966.443 0.388325 -3.21967 0
M  V30 10394 H 966.228 -1.32227 -3.69132 0
M  V30 10395 H 967.718 -0.445854 -4.15213 0
M  V30 10396 N 968.156 1.1691 -1.05688 0
M  V30 10397 C 969.088 2.20648 -0.620237 0
M  V30 10398 C 970.101 1.59652 0.318604 0
M  V30 10399 O 971.29 1.78157 0.110553 0
M  V30 10400 C 968.39 3.38716 0.111729 0
M  V30 10401 C 967.563 4.29277 -0.839062 0
M  V30 10402 C 966.622 5.25993 -0.147453 0
M  V30 10403 O 965.648 5.63787 -0.783151 0
M  V30 10404 N 966.85 5.69725 1.11327 0
M  V30 10405 H 969.615 2.58731 -1.51256 0
M  V30 10406 H 967.176 1.31858 -0.939412 0
M  V30 10407 H 969.168 4.00455 0.584657 0
M  V30 10408 H 967.738 2.99189 0.905784 0
M  V30 10409 H 966.958 3.64894 -1.4915 0
M  V30 10410 H 968.246 4.86669 -1.48428 0
M  V30 10411 H 967.644 5.41103 1.64999 0
M  V30 10412 H 966.201 6.33584 1.53018 0
M  V30 10413 N 969.634 0.838594 1.33437 0
M  V30 10414 C 970.859 0.446701 2.02532 0
M  V30 10415 C 971.284 -0.944275 1.62681 0
M  V30 10416 O 970.642 -1.61733 0.81927 0
M  V30 10417 C 970.69 0.574794 3.55989 0
M  V30 10418 O 969.794 -0.399063 4.10465 0
M  V30 10419 H 969.135 0.181637 0.638674 0
M  V30 10420 H 971.665 1.13335 1.70342 0
M  V30 10421 H 971.675 0.456339 4.0544 0
M  V30 10422 H 970.35 1.58921 3.8434 0
M  V30 10423 H 968.927 -0.238187 3.72139 0
M  V30 10424 N 971.112 -1.45937 0.595003 0
M  V30 10425 C 972.352 -2.0421 0.0881479 0
M  V30 10426 C 972.716 -1.45498 -1.25277 0
M  V30 10427 O 973.917 -1.95047 -1.8496 0
M  V30 10428 C 972.188 -3.57382 0.0362346 0
M  V30 10429 S 973.747 -4.36869 -0.41126 0
M  V30 10430 H 970.565 -0.709672 0.0434424 0
M  V30 10431 H 973.167 -1.78815 0.790273 0
M  V30 10432 H 971.871 -3.97628 1.0159 0
M  V30 10433 H 971.402 -3.87332 -0.688278 0
M  V30 10434 H 973.417 -4.67486 -1.66347 0
M  V30 10435 N 972.59 -0.333456 -1.54032 0
M  V30 10436 C 973.553 0.515392 -2.2333 0
M  V30 10437 C 974.553 1.03566 -1.23007 0
M  V30 10438 O 975.743 0.926514 -1.47517 0
M  V30 10439 C 972.875 1.7169 -2.94508 0
M  V30 10440 H 974.068 -0.0905407 -2.99763 0
M  V30 10441 H 971.621 -0.0846651 -1.56071 0
M  V30 10442 H 972.356 2.3618 -2.22237 0
M  V30 10443 H 972.141 1.35115 -3.68085 0
M  V30 10444 H 973.631 2.31922 -3.47278 0
M  V30 10445 N 974.068 1.57479 -0.061844 0
M  V30 10446 C 975.016 2.13346 0.926629 0
M  V30 10447 C 976.01 1.06787 1.31502 0
M  V30 10448 O 977.216 1.25181 1.29343 0
M  V30 10449 H 973.591 0.682046 0.316729 0
M  V30 10450 H 975.562 2.95279 0.430424 0
M  V30 10451 C 974.311 2.70198 2.18834 0
M  V30 10452 H 973.634 3.51859 1.89829 0
M  V30 10453 H 975.074 3.12897 2.86132 0
M  V30 10454 C 973.533 1.64481 2.9402 0
M  V30 10455 O 974.063 1.0639 3.87355 0
M  V30 10456 N 972.269 1.35749 2.56944 0
M  V30 10457 H 971.816 1.83177 1.81119 0
M  V30 10458 H 971.774 0.652469 3.07555 0
M  V30 10459 N 975.546 -0.211634 1.56173 0
M  V30 10460 C 976.792 -0.935935 1.79911 0
M  V30 10461 C 977.125 -1.83589 0.633155 0
M  V30 10462 O 976.4 -1.91004 -0.367132 0
M  V30 10463 C 976.683 -1.76638 3.13801 0
M  V30 10464 C 976.536 -0.892259 4.40861 0
M  V30 10465 C 977.855 -2.74224 3.44223 0
M  V30 10466 H 974.974 -0.338822 0.654499 0
M  V30 10467 H 977.616 -0.20422 1.88899 0
M  V30 10468 H 975.766 -2.39021 3.0627 0
M  V30 10469 H 977.438 -0.284407 4.60422 0
M  V30 10470 H 975.681 -0.198145 4.33347 0
M  V30 10471 H 976.352 -1.50793 5.31004 0
M  V30 10472 H 978.828 -2.21975 3.51946 0
M  V30 10473 H 977.704 -3.29424 4.39057 0
M  V30 10474 H 977.965 -3.52455 2.66885 0
M  V30 10475 N 977.024 -1.50153 -0.478725 0
M  V30 10476 C 978.44 -1.3741 -0.811833 0
M  V30 10477 C 978.64 -0.424303 -1.96982 0
M  V30 10478 O 977.696 0.13588 -2.52134 0
M  V30 10479 C 979.009 -2.78616 -1.13108 0
M  V30 10480 C 980.557 -2.87477 -1.23798 0
M  V30 10481 C 981.032 -4.295 -1.5904 0
M  V30 10482 N 982.523 -4.32415 -1.66047 0
M  V30 10483 C 983.258 -5.39295 -1.94805 0
M  V30 10484 N 982.754 -6.56392 -2.21635 0
M  V30 10485 N 984.547 -5.26731 -1.96243 0
M  V30 10486 H 976.698 -2.10486 0.284531 0
M  V30 10487 H 978.961 -0.945786 0.0647585 0
M  V30 10488 H 978.667 -3.49921 -0.35334 0
M  V30 10489 H 978.541 -3.15382 -2.06915 0
M  V30 10490 H 980.928 -2.16396 -2.00641 0
M  V30 10491 H 981.009 -2.54264 -0.279888 0
M  V30 10492 H 980.653 -5.01115 -0.827404 0
M  V30 10493 H 980.583 -4.60194 -2.55987 0
M  V30 10494 H 983.074 -3.47975 -1.47383 0
M  V30 10495 H 983.387 -7.33658 -2.4283 0
M  V30 10496 H 981.732 -6.59579 -2.19043 0
M  V30 10497 H 984.923 -4.34249 -1.74773 0
M  V30 10498 H 985.096 -6.10115 -2.1832 0
M  V30 10499 N 978.502 0.731368 -1.39602 0
M  V30 10500 C 979.465 1.8271 -1.38383 0
M  V30 10501 C 980.465 1.58338 -0.280309 0
M  V30 10502 O 981.655 1.65671 -0.538402 0
M  V30 10503 C 978.787 3.20556 -1.16002 0
M  V30 10504 H 979.98 1.85193 -2.35889 0
M  V30 10505 H 977.533 0.935396 -1.2522 0
M  V30 10506 H 978.268 3.23732 -0.191927 0
M  V30 10507 H 978.053 3.39643 -1.9592 0
M  V30 10508 H 979.543 4.00612 -1.17899 0
M  V30 10509 N 979.98 1.24838 0.961938 0
M  V30 10510 C 980.91 1.07053 2.07514 0
M  V30 10511 C 981.891 -0.0182465 1.7009 0
M  V30 10512 O 983.076 0.149915 1.9362 0
M  V30 10513 C 980.206 0.680693 3.40564 0
M  V30 10514 C 979.16 1.71889 3.91967 0
M  V30 10515 C 978.486 1.18395 5.21428 0
M  V30 10516 C 979.786 3.1161 4.19161 0
M  V30 10517 H 981.48 2.00167 2.22651 0
M  V30 10518 H 979.026 0.963799 1.0699 0
M  V30 10519 H 980.979 0.54324 4.17884 0
M  V30 10520 H 979.703 -0.28615 3.25344 0
M  V30 10521 H 978.362 1.84465 3.16809 0
M  V30 10522 H 978.01 0.207543 5.02572 0
M  V30 10523 H 977.71 1.87778 5.56788 0
M  V30 10524 H 979.234 1.05873 6.01351 0
M  V30 10525 H 980.648 3.0223 4.87165 0
M  V30 10526 H 979.045 3.78398 4.65763 0
M  V30 10527 H 980.115 3.59218 3.25715 0
M  V30 10528 N 981.458 -1.16348 1.06306 0
M  V30 10529 C 982.686 -1.90782 0.800614 0
M  V30 10530 C 983.101 -1.77439 -0.645033 0
M  V30 10531 O 982.458 -1.11912 -1.4416 0
M  V30 10532 C 982.509 -3.41484 1.18621 0
M  V30 10533 O 982.23 -3.54428 2.57512 0
M  V30 10534 C 983.731 -4.32968 0.951525 0
M  V30 10535 H 980.951 -0.604977 0.290247 0
M  V30 10536 H 983.495 -1.47476 1.41672 0
M  V30 10537 H 981.65 -3.82493 0.614633 0
M  V30 10538 H 982.064 -4.4788 2.72954 0
M  V30 10539 H 983.538 -5.37169 1.27095 0
M  V30 10540 H 984.015 -4.39055 -0.112734 0
M  V30 10541 H 984.621 -3.97687 1.50749 0
M  V30 10542 N 982.937 -0.845659 -1.3299 0
M  V30 10543 C 984.167 -0.457686 -2.01467 0
M  V30 10544 C 984.575 0.947664 -1.63756 0
M  V30 10545 O 983.918 1.62841 -0.850213 0
M  V30 10546 C 983.98 -0.506589 -3.55913 0
M  V30 10547 C 983.644 -1.86924 -4.17023 0
M  V30 10548 C 984.641 -2.83344 -4.35904 0
M  V30 10549 C 982.326 -2.16394 -4.53298 0
M  V30 10550 C 984.32 -4.07391 -4.90216 0
M  V30 10551 C 982.007 -3.40695 -5.07316 0
M  V30 10552 C 983.005 -4.3601 -5.25722 0
M  V30 10553 O 982.693 -5.58112 -5.7859 0
M  V30 10554 H 982.425 -0.179258 -0.651799 0
M  V30 10555 H 984.979 -1.14172 -1.70745 0
M  V30 10556 H 983.209 0.234253 -3.8599 0
M  V30 10557 H 984.898 -0.135487 -4.05674 0
M  V30 10558 H 985.664 -2.61879 -4.08221 0
M  V30 10559 H 981.543 -1.42994 -4.38262 0
M  V30 10560 H 985.087 -4.81796 -5.04498 0
M  V30 10561 H 980.984 -3.62014 -5.3443 0
M  V30 10562 H 981.752 -5.59946 -5.96995 0
M  V30 10563 N 984.415 1.45619 -0.602734 0
M  V30 10564 C 985.655 2.0416 -0.0989764 0
M  V30 10565 C 986.019 1.4616 1.24504 0
M  V30 10566 O 987.22 1.96025 1.83923 0
M  V30 10567 C 985.491 3.57357 -0.0551869 0
M  V30 10568 S 987.05 4.3708 0.388086 0
M  V30 10569 H 983.868 0.709431 -0.0472054 0
M  V30 10570 H 986.47 1.78394 -0.799745 0
M  V30 10571 H 985.174 3.97083 -1.03697 0
M  V30 10572 H 984.705 3.87692 0.667727 0
M  V30 10573 H 986.72 4.68362 1.63865 0
M  V30 10574 N 985.893 0.34162 1.53853 0
M  V30 10575 C 987.17 -0.310664 1.93117 0
M  V30 10576 C 987.55 -1.68398 1.273 0
M  V30 10577 O 986.898 -2.24546 0.423225 0
M  V30 10578 C 987.108 -0.384867 3.46871 0
M  V30 10579 C 988.456 -0.636621 4.198 0
M  V30 10580 O 989.48 -0.467061 3.53125 0
M  V30 10581 O 988.339 -0.964962 5.37913 0
M  V30 10582 H 985.433 -0.180881 0.806977 0
M  V30 10583 H 987.979 0.392656 1.65095 0
M  V30 10584 H 986.751 0.57894 3.86994 0
M  V30 10585 H 986.374 -1.13505 3.81054 0
M  V30 10586 N 987.371 -1.57444 0.0701946 0
M  V30 10587 C 988.301 -2.15659 -0.895176 0
M  V30 10588 C 989.282 -1.08321 -1.31151 0
M  V30 10589 O 990.467 -1.36349 -1.38284 0
M  V30 10590 C 987.597 -2.71693 -2.16334 0
M  V30 10591 C 986.551 -3.84183 -1.88645 0
M  V30 10592 C 985.877 -4.26814 -3.22078 0
M  V30 10593 C 987.177 -5.08493 -1.19299 0
M  V30 10594 H 988.871 -2.96576 -0.410217 0
M  V30 10595 H 986.417 -1.42662 -0.195872 0
M  V30 10596 H 988.37 -3.11064 -2.84284 0
M  V30 10597 H 987.094 -1.87994 -2.67069 0
M  V30 10598 H 985.753 -3.45314 -1.23101 0
M  V30 10599 H 985.401 -3.40039 -3.70651 0
M  V30 10600 H 985.101 -5.02642 -3.04344 0
M  V30 10601 H 986.625 -4.68799 -3.91228 0
M  V30 10602 H 988.039 -5.4519 -1.77316 0
M  V30 10603 H 986.436 -5.89588 -1.11828 0
M  V30 10604 H 987.506 -4.84595 -0.171839 0
M  V30 10605 N 988.849 0.203349 -1.56283 0
M  V30 10606 C 989.799 1.25595 -1.90289 0
M  V30 10607 C 990.783 1.41403 -0.767732 0
M  V30 10608 O 991.975 1.43912 -1.03046 0
M  V30 10609 C 989.104 2.60255 -2.23881 0
M  V30 10610 C 988.19 2.48274 -3.43833 0
M  V30 10611 N 988.581 2.05963 -4.61966 0
M  V30 10612 C 986.879 2.79188 -3.47808 0
M  V30 10613 C 987.58 2.05674 -5.44126 0
M  V30 10614 N 986.556 2.46862 -4.84314 0
M  V30 10615 H 990.358 0.920016 -2.79129 0
M  V30 10616 H 987.872 0.411829 -1.57091 0
M  V30 10617 H 989.869 3.36274 -2.46425 0
M  V30 10618 H 988.529 2.94678 -1.36363 0
M  V30 10619 H 989.54 1.76803 -4.86787 0
M  V30 10620 H 986.217 3.17863 -2.70684 0
M  V30 10621 H 987.607 1.74932 -6.48728 0
M  V30 10622 N 990.327 1.50405 0.470755 0
M  V30 10623 C 991.573 1.6165 1.22462 0
M  V30 10624 C 991.906 0.316034 1.91611 0
M  V30 10625 O 991.181 -0.682509 1.82132 0
M  V30 10626 C 991.464 2.79702 2.26801 0
M  V30 10627 C 991.317 4.19631 1.61955 0
M  V30 10628 C 992.636 2.93313 3.28109 0
M  V30 10629 H 989.755 0.588345 0.443868 0
M  V30 10630 H 992.397 1.82792 0.518376 0
M  V30 10631 H 990.547 2.61807 2.87036 0
M  V30 10632 H 992.219 4.49117 1.05316 0
M  V30 10633 H 990.462 4.23874 0.922674 0
M  V30 10634 H 991.133 4.98162 2.37779 0
M  V30 10635 H 993.609 3.09697 2.77897 0
M  V30 10636 H 992.485 3.77537 3.98443 0
M  V30 10637 H 992.746 2.03942 3.9225 0
M  V30 10638 N 991.805 -0.723954 1.39988 0
M  V30 10639 C 993.054 -1.47922 1.3712 0
M  V30 10640 C 993.367 -1.95582 -0.0263665 0
M  V30 10641 O 994.573 -2.70918 -0.177652 0
M  V30 10642 C 993.029 -2.67342 2.40949 0
M  V30 10643 C 992.637 -2.26586 3.86475 0
M  V30 10644 C 994.381 -3.45116 2.47174 0
M  V30 10645 C 992.288 -3.42794 4.81919 0
M  V30 10646 H 991.218 -0.555522 0.509815 0
M  V30 10647 H 993.869 -0.788692 1.65686 0
M  V30 10648 H 992.251 -3.38524 2.0547 0
M  V30 10649 H 993.425 -1.62878 4.31054 0
M  V30 10650 H 991.74 -1.61876 3.83647 0
M  V30 10651 H 994.337 -4.31573 3.15672 0
M  V30 10652 H 994.68 -3.8835 1.49966 0
M  V30 10653 H 995.213 -2.80971 2.81602 0
M  V30 10654 H 991.952 -3.046 5.8043 0
M  V30 10655 H 991.472 -4.05445 4.42012 0
M  V30 10656 H 993.151 -4.08977 5.01345 0
M  V30 10657 N 993.283 -1.25346 -0.955304 0
M  V30 10658 C 994.23 -1.05672 -2.05188 0
M  V30 10659 C 995.2 0.0339217 -1.66065 0
M  V30 10660 O 996.385 -0.123126 -1.90402 0
M  V30 10661 C 993.525 -0.680791 -3.38318 0
M  V30 10662 C 992.638 -1.84622 -3.90562 0
M  V30 10663 C 991.773 -1.41471 -5.12015 0
M  V30 10664 C 990.812 -2.54931 -5.56486 0
M  V30 10665 N 989.949 -2.1256 -6.69151 0
M  V30 10666 H 994.789 -1.9952 -2.2135 0
M  V30 10667 H 992.326 -0.993588 -1.08472 0
M  V30 10668 H 994.284 -0.443794 -4.14833 0
M  V30 10669 H 992.914 0.2207 -3.22045 0
M  V30 10670 H 991.966 -2.19654 -3.10574 0
M  V30 10671 H 993.278 -2.6983 -4.19515 0
M  V30 10672 H 992.432 -1.13732 -5.95945 0
M  V30 10673 H 991.171 -0.533334 -4.84775 0
M  V30 10674 H 990.176 -2.83415 -4.71122 0
M  V30 10675 H 991.401 -3.43645 -5.85734 0
M  V30 10676 H 989.347 -1.26838 -6.43621 0
M  V30 10677 H 989.264 -2.91317 -6.97618 0
M  V30 10678 H 990.532 -1.87996 -7.5649 0
M  V30 10679 N 994.761 1.15782 -1.06922 0
M  V30 10680 C 996.177 1.38454 -0.793896 0
M  V30 10681 C 996.377 1.92238 0.603875 0
M  V30 10682 O 995.433 2.1253 1.36335 0
M  V30 10683 C 996.746 2.3595 -1.86408 0
M  V30 10684 C 998.294 2.49622 -1.88833 0
M  V30 10685 C 998.769 3.50406 -2.94923 0
M  V30 10686 N 1000.26 3.57938 -2.93997 0
M  V30 10687 C 1001 4.35728 -3.72731 0
M  V30 10688 N 1000.49 5.16888 -4.61301 0
M  V30 10689 N 1002.28 4.30774 -3.61096 0
M  V30 10690 H 994.435 0.792101 -1.97077 0
M  V30 10691 H 996.698 0.410779 -0.85438 0
M  V30 10692 H 996.404 2.03537 -2.86819 0
M  V30 10693 H 996.278 3.35677 -1.72049 0
M  V30 10694 H 998.665 2.81335 -0.890759 0
M  V30 10695 H 998.746 1.49909 -2.0727 0
M  V30 10696 H 998.39 3.19429 -3.94877 0
M  V30 10697 H 998.32 4.49864 -2.73734 0
M  V30 10698 H 1000.81 3.00007 -2.29791 0
M  V30 10699 H 1001.12 5.73477 -5.18019 0
M  V30 10700 H 999.469 5.16209 -4.65353 0
M  V30 10701 H 1002.66 3.66432 -2.91282 0
M  V30 10702 H 1002.83 4.91151 -4.22699 0
M  V30 10703 N 996.239 0.8527 1.3254 0
M  V30 10704 C 997.516 0.376491 1.91942 0
M  V30 10705 C 997.896 -1.13972 1.7769 0
M  V30 10706 O 997.244 -1.96047 1.17379 0
M  V30 10707 C 997.454 0.838694 3.38773 0
M  V30 10708 C 998.802 0.854736 4.15908 0
M  V30 10709 O 999.826 0.783203 3.47483 0
M  V30 10710 O 998.685 0.955207 5.38087 0
M  V30 10711 H 995.779 0.109412 0.81973 0
M  V30 10712 H 998.325 0.93947 1.41322 0
M  V30 10713 H 997.097 1.88179 3.43081 0
M  V30 10714 H 996.72 0.253055 3.96794 0
M  V30 10715 N 997.718 -1.45297 0.610449 0
M  V30 10716 C 998.681 -2.28995 -0.0968194 0
M  V30 10717 C 999.681 -1.39923 -0.792353 0
M  V30 10718 O 1000.87 -1.62014 -0.64008 0
M  V30 10719 C 998.003 -3.21013 -1.14731 0
M  V30 10720 H 999.196 -2.93012 0.639082 0
M  V30 10721 H 996.749 -1.51867 0.369624 0
M  V30 10722 H 997.484 -2.61803 -1.91388 0
M  V30 10723 H 997.269 -3.86628 -0.652753 0
M  V30 10724 H 998.759 -3.8394 -1.64256 0
M  V30 10725 N 999.196 -0.349774 -1.5367 0
M  V30 10726 C 1000.13 0.496338 -2.28164 0
M  V30 10727 C 1001.11 1.09737 -1.29968 0
M  V30 10728 O 1002.29 1.11759 -1.58819 0
M  V30 10729 C 999.422 1.64428 -3.0591 0
M  V30 10730 C 998.376 1.17127 -4.11661 0
M  V30 10731 C 997.702 2.40822 -4.77398 0
M  V30 10732 C 999.002 0.267293 -5.21616 0
M  V30 10733 H 1000.7 -0.125117 -2.99138 0
M  V30 10734 H 998.242 -0.0616152 -1.43868 0
M  V30 10735 H 1000.19 2.2427 -3.56765 0
M  V30 10736 H 998.919 2.29272 -2.32598 0
M  V30 10737 H 997.578 0.595634 -3.61729 0
M  V30 10738 H 997.226 3.04088 -4.00674 0
M  V30 10739 H 996.926 2.09852 -5.48849 0
M  V30 10740 H 998.45 3.01378 -5.3104 0
M  V30 10741 H 999.864 0.772734 -5.68068 0
M  V30 10742 H 998.261 0.0491991 -6.0008 0
M  V30 10743 H 999.331 -0.694892 -4.79895 0
M  V30 10744 N 1000.67 1.57404 -0.0785433 0
M  V30 10745 C 1001.61 2.101 0.916013 0
M  V30 10746 C 1002.62 1.03459 1.25698 0
M  V30 10747 O 1003.81 1.30954 1.21299 0
M  V30 10748 C 1000.91 2.55202 2.22992 0
M  V30 10749 C 1000.08 3.85491 2.06678 0
M  V30 10750 C 999.14 4.16614 3.21433 0
M  V30 10751 O 998.166 4.86105 2.96126 0
M  V30 10752 N 999.368 3.70697 4.46726 0
M  V30 10753 H 1002.13 2.96054 0.466059 0
M  V30 10754 H 999.694 1.61546 0.107006 0
M  V30 10755 H 1001.69 2.7308 2.9868 0
M  V30 10756 H 1000.26 1.74348 2.59464 0
M  V30 10757 H 999.476 3.76925 1.15417 0
M  V30 10758 H 1000.76 4.70759 1.93036 0
M  V30 10759 H 1000.16 3.14571 4.70172 0
M  V30 10760 H 998.719 3.93762 5.19418 0
M  V30 10761 N 1002.15 -0.195058 1.56388 0
M  V30 10762 C 1003.1 -1.24175 1.94549 0
M  V30 10763 C 1004.07 -1.45229 0.806089 0
M  V30 10764 O 1005.25 -1.58362 1.06425 0
M  V30 10765 C 1002.39 -2.58145 2.29031 0
M  V30 10766 C 1001.51 -2.44669 3.56035 0
M  V30 10767 C 1000.64 -3.71342 3.7984 0
M  V30 10768 C 999.681 -3.52699 5.0027 0
M  V30 10769 N 998.818 -4.71385 5.20328 0
M  V30 10770 H 1003.66 -0.909319 2.83788 0
M  V30 10771 H 1001.19 -0.437641 1.40439 0
M  V30 10772 H 1003.15 -3.36195 2.4704 0
M  V30 10773 H 1001.78 -2.8943 1.42933 0
M  V30 10774 H 1000.83 -1.57916 3.46073 0
M  V30 10775 H 1002.15 -2.26827 4.44242 0
M  V30 10776 H 1001.3 -4.57832 3.98088 0
M  V30 10777 H 1000.04 -3.92138 2.89964 0
M  V30 10778 H 999.045 -2.64594 4.81944 0
M  V30 10779 H 1000.27 -3.33349 5.91655 0
M  V30 10780 H 998.216 -4.92444 4.33399 0
M  V30 10781 H 998.133 -4.56368 6.02714 0
M  V30 10782 H 999.401 -5.59226 5.43035 0
M  V30 10783 N 1003.63 -1.50653 -0.462772 0
M  V30 10784 C 1004.88 -1.62297 -1.21603 0
M  V30 10785 C 1005.21 -0.326191 -1.91441 0
M  V30 10786 O 1004.48 0.67284 -1.82491 0
M  V30 10787 C 1004.77 -2.80901 -2.25315 0
M  V30 10788 C 1004.62 -4.20484 -1.59728 0
M  V30 10789 C 1005.94 -2.95049 -3.26549 0
M  V30 10790 H 1003.06 -0.590691 -0.440741 0
M  V30 10791 H 1005.7 -1.83064 -0.508675 0
M  V30 10792 H 1003.85 -2.63325 -2.85643 0
M  V30 10793 H 1005.52 -4.49669 -1.02932 0
M  V30 10794 H 1003.76 -4.24357 -0.900181 0
M  V30 10795 H 1004.44 -4.99416 -2.35133 0
M  V30 10796 H 1006.91 -3.11166 -2.76251 0
M  V30 10797 H 1005.79 -3.79645 -3.96435 0
M  V30 10798 H 1006.05 -2.06019 -3.91163 0
M  V30 10799 N 1005.11 0.71652 -1.4037 0
M  V30 10800 C 1006.04 1.84345 -1.43315 0
M  V30 10801 C 1007.02 1.67537 -0.294186 0
M  V30 10802 O 1008.2 1.87582 -0.502671 0
M  V30 10803 C 1005.33 3.2229 -1.29408 0
M  V30 10804 C 1004.29 3.53769 -2.40897 0
M  V30 10805 C 1003.61 4.90847 -2.12068 0
M  V30 10806 C 1004.91 3.54862 -3.83237 0
M  V30 10807 H 1006.61 1.82138 -2.37626 0
M  V30 10808 H 1004.15 0.874873 -1.14376 0
M  V30 10809 H 1006.11 4.00819 -1.30085 0
M  V30 10810 H 1004.83 3.2507 -0.31573 0
M  V30 10811 H 1003.49 2.77579 -2.39469 0
M  V30 10812 H 1003.14 4.90229 -1.12626 0
M  V30 10813 H 1002.84 5.12875 -2.86762 0
M  V30 10814 H 1004.36 5.71711 -2.14426 0
M  V30 10815 H 1005.78 4.23432 -3.86494 0
M  V30 10816 H 1004.17 3.88416 -4.57442 0
M  V30 10817 H 1005.24 2.54266 -4.12888 0
M  V30 10818 N 1006.59 1.25851 0.948643 0
M  V30 10819 C 1007.5 1.08516 2.07994 0
M  V30 10820 C 1008.51 0.0206696 1.73988 0
M  V30 10821 O 1009.69 0.222854 2.00163 0
M  V30 10822 C 1006.75 0.712145 3.39307 0
M  V30 10823 C 1005.81 1.85523 3.87143 0
M  V30 10824 C 1005.05 1.49992 5.1219 0
M  V30 10825 O 1005.27 0.398268 5.69008 0
M  V30 10826 O 1004.2 2.33215 5.54882 0
M  V30 10827 H 1008.03 2.03405 2.25522 0
M  V30 10828 H 1005.62 1.04844 1.06433 0
M  V30 10829 H 1007.5 0.516512 4.18223 0
M  V30 10830 H 1006.17 -0.207416 3.23035 0
M  V30 10831 H 1005.08 2.10578 3.09205 0
M  V30 10832 H 1006.41 2.75425 4.07924 0
M  V30 10833 N 1008.06 -1.15214 1.07534 0
M  V30 10834 C 1009.31 -1.86043 0.799629 0
M  V30 10835 C 1009.64 -1.82435 -0.674356 0
M  V30 10836 O 1008.89 -1.24379 -1.51091 0
M  V30 10837 C 1009.19 -3.34623 1.25547 0
M  V30 10838 C 1008.86 -3.58425 2.73573 0
M  V30 10839 C 1007.52 -3.6463 3.14004 0
M  V30 10840 C 1009.87 -3.67977 3.6911 0
M  V30 10841 C 1007.2 -3.779 4.48786 0
M  V30 10842 C 1009.55 -3.82771 5.03656 0
M  V30 10843 C 1008.22 -3.87222 5.43705 0
M  V30 10844 H 1007.49 -0.680781 0.292605 0
M  V30 10845 H 1010.13 -1.36149 1.34669 0
M  V30 10846 H 1008.44 -3.86737 0.627828 0
M  V30 10847 H 1010.14 -3.87836 1.01901 0
M  V30 10848 H 1006.73 -3.54238 2.41275 0
M  V30 10849 H 1010.91 -3.62482 3.39 0
M  V30 10850 H 1006.17 -3.79604 4.79281 0
M  V30 10851 H 1010.34 -3.89104 5.77556 0
M  V30 10852 H 1007.97 -3.97256 6.48145 0
M  V30 10853 N 1009.54 -0.859717 -1.32086 0
M  V30 10854 C 1010.77 -0.479028 -2.0097 0
M  V30 10855 C 1011.18 0.930242 -1.64752 0
M  V30 10856 O 1010.52 1.6193 -0.867437 0
M  V30 10857 C 1010.59 -0.54431 -3.55355 0
M  V30 10858 C 1010.25 -1.91337 -4.15017 0
M  V30 10859 C 1011.25 -2.87951 -4.32874 0
M  V30 10860 C 1008.93 -2.21189 -4.50977 0
M  V30 10861 C 1010.93 -4.12567 -4.85867 0
M  V30 10862 C 1008.61 -3.46057 -5.03674 0
M  V30 10863 C 1009.61 -4.41562 -5.21068 0
M  V30 10864 O 1009.3 -5.64218 -5.72637 0
M  V30 10865 H 1009.03 -0.186161 -0.649861 0
M  V30 10866 H 1011.58 -1.15976 -1.69525 0
M  V30 10867 H 1009.81 0.1933 -3.86217 0
M  V30 10868 H 1011.5 -0.178506 -4.05507 0
M  V30 10869 H 1012.27 -2.66194 -4.05421 0
M  V30 10870 H 1008.15 -1.47635 -4.36721 0
M  V30 10871 H 1011.69 -4.8712 -4.99359 0
M  V30 10872 H 1007.59 -3.67662 -5.30561 0
M  V30 10873 H 1008.36 -5.66246 -5.91023 0
M  V30 10874 N 1011.02 1.44971 -0.618145 0
M  V30 10875 C 1012.25 2.06527 -0.124165 0
M  V30 10876 C 1012.66 1.46097 1.19588 0
M  V30 10877 O 1012.02 0.57901 1.73071 0
M  V30 10878 C 1012.07 3.61498 0.0106701 0
M  V30 10879 O 1011.79 4.19675 -1.25716 0
M  V30 10880 C 1013.29 4.40061 0.534872 0
M  V30 10881 H 1010.51 0.666941 -0.0736935 0
M  V30 10882 H 1013.06 1.8605 -0.848871 0
M  V30 10883 H 1011.21 3.81282 0.685752 0
M  V30 10884 H 1011.63 5.12972 -1.09362 0
M  V30 10885 H 1013.1 5.48963 0.57827 0
M  V30 10886 H 1013.58 4.10587 1.55931 0
M  V30 10887 H 1014.18 4.25167 -0.10652 0
M  V30 10888 N 1012.5 0.357919 1.53482 0
M  V30 10889 C 1013.46 -0.479797 2.24122 0
M  V30 10890 C 1014.46 -1.01596 1.24639 0
M  V30 10891 O 1015.65 -0.902928 1.48973 0
M  V30 10892 C 1012.78 -1.66983 2.97203 0
M  V30 10893 H 1013.98 0.138219 2.99581 0
M  V30 10894 H 1011.53 0.109484 1.55916 0
M  V30 10895 H 1012.26 -2.32615 2.25966 0
M  V30 10896 H 1012.05 -1.29242 3.70188 0
M  V30 10897 H 1013.54 -2.26367 3.50924 0
M  V30 10898 N 1013.98 -1.5736 0.0868897 0
M  V30 10899 C 1015.22 -1.94054 -0.578741 0
M  V30 10900 C 1015.55 -0.968047 -1.68698 0
M  V30 10901 O 1014.81 0.0137824 -1.95695 0
M  V30 10902 C 1015.11 -3.37316 -1.18123 0
M  V30 10903 C 1014.77 -4.50467 -0.197607 0
M  V30 10904 C 1013.43 -4.81145 0.072952 0
M  V30 10905 C 1015.79 -5.19036 0.474473 0
M  V30 10906 C 1013.11 -5.77723 1.02242 0
M  V30 10907 C 1015.47 -6.16632 1.41236 0
M  V30 10908 C 1014.13 -6.45719 1.69124 0
M  V30 10909 H 1013.4 -0.710093 -0.211776 0
M  V30 10910 H 1016.05 -1.90822 0.160978 0
M  V30 10911 H 1014.35 -3.37085 -1.99701 0
M  V30 10912 H 1016.05 -3.63003 -1.7038 0
M  V30 10913 H 1012.64 -4.2655 -0.418669 0
M  V30 10914 H 1016.82 -4.95518 0.278581 0
M  V30 10915 H 1012.08 -5.98578 1.24557 0
M  V30 10916 H 1016.25 -6.68862 1.939 0
M  V30 10917 H 1013.88 -7.20365 2.42855 0
M  V30 10918 N 1015.45 0.186762 -1.56489 0
M  V30 10919 C 1016.68 0.925916 -1.85584 0
M  V30 10920 C 1017.1 1.75708 -0.671446 0
M  V30 10921 O 1016.46 1.7728 0.379687 0
M  V30 10922 C 1016.51 1.79107 -3.12975 0
M  V30 10923 O 1015.61 2.89088 -2.94112 0
M  V30 10924 H 1014.96 0.260275 -0.610863 0
M  V30 10925 H 1017.49 0.189561 -2.0372 0
M  V30 10926 H 1017.5 2.19408 -3.43983 0
M  V30 10927 H 1016.17 1.18044 -3.98796 0
M  V30 10928 H 1014.75 2.52482 -2.74422 0
M  V30 10929 N 1016.93 1.50896 0.454776 0
M  V30 10930 C 1017.88 1.67333 1.54867 0
M  V30 10931 C 1018.87 0.527576 1.52005 0
M  V30 10932 O 1020.06 0.782726 1.58753 0
M  V30 10933 C 1017.19 1.7858 2.93196 0
M  V30 10934 C 1016.27 2.98884 3.0088 0
M  V30 10935 N 1016.66 4.22326 2.78343 0
M  V30 10936 C 1014.96 2.97779 3.32029 0
M  V30 10937 C 1015.66 5.03439 2.91418 0
M  V30 10938 N 1014.64 4.37725 3.22332 0
M  V30 10939 H 1018.44 2.60453 1.36167 0
M  V30 10940 H 1015.96 1.48304 0.661797 0
M  V30 10941 H 1017.95 1.88463 3.7187 0
M  V30 10942 H 1016.61 0.866296 3.1293 0
M  V30 10943 H 1017.62 4.51557 2.53607 0
M  V30 10944 H 1014.3 2.15393 3.57648 0
M  V30 10945 H 1015.69 6.11648 2.78095 0
M  V30 10946 N 1018.41 -0.709066 1.40748 0
M  V30 10947 C 1019.64 -1.50313 1.42901 0
M  V30 10948 C 1020.06 -1.88072 0.032213 0
M  V30 10949 O 1019.42 -1.53716 -0.96131 0
M  V30 10950 C 1019.47 -2.75074 2.33166 0
M  V30 10951 O 1018.57 -3.72036 1.7794 0
M  V30 10952 H 1017.91 -0.452934 0.485538 0
M  V30 10953 H 1020.44 -0.872712 1.85054 0
M  V30 10954 H 1020.45 -3.23532 2.48578 0
M  V30 10955 H 1019.13 -2.46927 3.34664 0
M  V30 10956 H 1017.7 -3.30911 1.71908 0
M  V30 10957 N 1019.89 -1.26353 -0.941956 0
M  V30 10958 C 1021.14 -1.11851 -1.68806 0
M  V30 10959 C 1021.46 0.33829 -1.91535 0
M  V30 10960 O 1020.72 1.26495 -1.49324 0
M  V30 10961 C 1021.02 -1.83195 -3.06879 0
M  V30 10962 C 1020.68 -3.33093 -3.03908 0
M  V30 10963 C 1019.35 -3.73982 -3.02805 0
M  V30 10964 C 1021.7 -4.28803 -2.96273 0
M  V30 10965 C 1019.03 -5.08971 -2.91832 0
M  V30 10966 C 1021.38 -5.6383 -2.86842 0
M  V30 10967 C 1020.04 -6.04032 -2.84081 0
M  V30 10968 H 1019.31 -0.409293 -0.617706 0
M  V30 10969 H 1021.96 -1.56785 -1.09957 0
M  V30 10970 H 1020.26 -1.30728 -3.69347 0
M  V30 10971 H 1021.96 -1.69416 -3.63455 0
M  V30 10972 H 1018.55 -3.00566 -3.05546 0
M  V30 10973 H 1022.74 -3.98195 -2.96234 0
M  V30 10974 H 1017.99 -5.39282 -2.88072 0
M  V30 10975 H 1022.17 -6.37676 -2.79898 0
M  V30 10976 H 1019.79 -7.08586 -2.75335 0
M  V30 10977 N 1021.37 1.14642 -1.08144 0
M  V30 10978 C 1022.59 1.90025 -0.830972 0
M  V30 10979 C 1023.02 1.77904 0.610879 0
M  V30 10980 O 1022.38 1.11735 1.42776 0
M  V30 10981 C 1022.42 3.38085 -1.25422 0
M  V30 10982 O 1021.53 4.10412 -0.404486 0
M  V30 10983 H 1020.87 0.591327 -0.302041 0
M  V30 10984 H 1023.4 1.4513 -1.44216 0
M  V30 10985 H 1023.41 3.88894 -1.23391 0
M  V30 10986 H 1022.08 3.46226 -2.30435 0
M  V30 10987 H 1020.66 3.69693 -0.487987 0
M  V30 10988 N 1022.85 0.866709 1.31628 0
M  V30 10989 C 1024.26 0.558188 1.49521 0
M  V30 10990 C 1024.46 -0.90844 1.7986 0
M  V30 10991 O 1023.52 -1.6908 1.87531 0
M  V30 10992 C 1024.83 1.45559 2.63122 0
M  V30 10993 C 1026.38 1.45728 2.77006 0
M  V30 10994 C 1026.85 2.34017 3.937 0
M  V30 10995 N 1028.34 2.31879 4.00982 0
M  V30 10996 C 1029.08 2.96915 4.90539 0
M  V30 10997 N 1028.58 3.71109 5.85021 0
M  V30 10998 N 1030.37 2.86241 4.83759 0
M  V30 10999 H 1022.52 1.81574 1.10203 0
M  V30 11000 H 1024.78 0.77621 0.544244 0
M  V30 11001 H 1024.49 2.49904 2.47469 0
M  V30 11002 H 1024.36 1.15174 3.59186 0
M  V30 11003 H 1026.75 0.421419 2.92075 0
M  V30 11004 H 1026.83 1.80134 1.81619 0
M  V30 11005 H 1026.47 3.37678 3.79389 0
M  V30 11006 H 1026.4 1.96937 4.88388 0
M  V30 11007 H 1028.9 1.77948 3.33381 0
M  V30 11008 H 1029.21 4.1787 6.5008 0
M  V30 11009 H 1027.55 3.75217 5.8501 0
M  V30 11010 H 1030.74 2.27819 4.08921 0
M  V30 11011 H 1030.92 3.37206 5.5335 0
M  V30 11012 N 1024.32 -1.44642 0.625825 0
M  V30 11013 C 1025.27 -2.32408 -0.0945221 0
M  V30 11014 C 1026.27 -1.47038 -0.841198 0
M  V30 11015 O 1027.47 -1.63415 -0.754698 0
M  V30 11016 H 1023.85 -0.75038 -0.0493321 0
M  V30 11017 H 1025.82 -2.90922 0.663863 0
M  V30 11018 C 1024.57 -3.30951 -1.06615 0
M  V30 11019 H 1023.89 -3.96648 -0.501021 0
M  V30 11020 H 1025.33 -3.95054 -1.53976 0
M  V30 11021 C 1023.79 -2.59479 -2.14877 0
M  V30 11022 O 1024.32 -2.38974 -3.22885 0
M  V30 11023 N 1022.52 -2.19307 -1.90665 0
M  V30 11024 H 1022.07 -2.36184 -1.02835 0
M  V30 11025 H 1022.03 -1.71811 -2.63303 0
M  V30 11026 N 1025.8 -0.366053 -1.5329 0
M  V30 11027 C 1026.73 0.47211 -2.28677 0
M  V30 11028 C 1027.71 1.08353 -1.31125 0
M  V30 11029 O 1028.9 1.10069 -1.59995 0
M  V30 11030 C 1026.03 1.61174 -3.07637 0
M  V30 11031 C 1024.98 1.12755 -4.12881 0
M  V30 11032 C 1024.31 2.35745 -4.79925 0
M  V30 11033 C 1025.61 0.211954 -5.2187 0
M  V30 11034 H 1027.3 -0.156838 -2.98989 0
M  V30 11035 H 1024.85 -0.0768709 -1.43795 0
M  V30 11036 H 1026.8 2.20473 -3.59123 0
M  V30 11037 H 1025.52 2.26793 -2.35016 0
M  V30 11038 H 1024.18 0.557234 -3.6234 0
M  V30 11039 H 1023.83 2.99821 -4.03877 0
M  V30 11040 H 1023.53 2.04019 -5.51044 0
M  V30 11041 H 1025.06 2.95729 -5.34207 0
M  V30 11042 H 1026.47 0.71244 -5.68856 0
M  V30 11043 H 1024.87 -0.0144501 -6.00098 0
M  V30 11044 H 1025.94 -0.745753 -4.79131 0
M  V30 11045 N 1027.28 1.57312 -0.0952337 0
M  V30 11046 C 1028.53 1.93533 0.568131 0
M  V30 11047 C 1028.84 0.979121 1.6933 0
M  V30 11048 O 1030.05 1.23506 2.41782 0
M  V30 11049 C 1028.5 3.43875 1.06198 0
M  V30 11050 C 1028.11 4.47988 -0.0334397 0
M  V30 11051 C 1029.86 3.89057 1.69807 0
M  V30 11052 C 1027.76 5.89483 0.475774 0
M  V30 11053 H 1026.69 0.7224 0.215995 0
M  V30 11054 H 1029.34 1.82699 -0.171257 0
M  V30 11055 H 1027.73 3.49862 1.85506 0
M  V30 11056 H 1028.9 4.53644 -0.808934 0
M  V30 11057 H 1027.21 4.12415 -0.574725 0
M  V30 11058 H 1029.81 4.92171 2.08978 0
M  V30 11059 H 1030.15 3.27713 2.5673 0
M  V30 11060 H 1030.69 3.85772 0.970815 0
M  V30 11061 H 1027.43 6.54528 -0.356837 0
M  V30 11062 H 1026.95 5.87297 1.21827 0
M  V30 11063 H 1028.63 6.40066 0.944697 0
M  V30 11064 N 1028.76 -0.17846 1.56586 0
M  V30 11065 C 1029.69 -1.22342 1.98884 0
M  V30 11066 C 1030.67 -1.46564 0.86331 0
M  V30 11067 O 1031.85 -1.58019 1.12887 0
M  V30 11068 C 1028.98 -2.56396 2.34261 0
M  V30 11069 C 1027.94 -2.46756 3.49708 0
M  V30 11070 C 1027.26 -3.85235 3.70807 0
M  V30 11071 C 1028.56 -1.97838 4.83381 0
M  V30 11072 H 1030.26 -0.871848 2.86425 0
M  V30 11073 H 1027.8 -0.417948 1.37801 0
M  V30 11074 H 1029.76 -3.29695 2.62448 0
M  V30 11075 H 1028.48 -2.93327 1.43621 0
M  V30 11076 H 1027.14 -1.75912 3.21637 0
M  V30 11077 H 1026.79 -4.19547 2.7747 0
M  V30 11078 H 1026.49 -3.79655 4.48481 0
M  V30 11079 H 1028.01 -4.60131 4.01387 0
M  V30 11080 H 1029.43 -2.60906 5.10491 0
M  V30 11081 H 1027.82 -2.03223 5.64642 0
M  V30 11082 H 1028.89 -0.932339 4.75852 0
M  V30 11083 N 1030.24 -1.51135 -0.446768 0
M  V30 11084 C 1031.46 -1.67129 -1.21965 0
M  V30 11085 C 1031.88 -0.36467 -1.85245 0
M  V30 11086 O 1031.24 0.655908 -1.70306 0
M  V30 11087 C 1031.29 -2.78016 -2.31061 0
M  V30 11088 O 1031.01 -4.03615 -1.70371 0
M  V30 11089 C 1032.51 -3.05197 -3.21511 0
M  V30 11090 H 1029.73 -0.561111 -0.367961 0
M  V30 11091 H 1032.27 -1.97499 -0.530517 0
M  V30 11092 H 1030.43 -2.50272 -2.95707 0
M  V30 11093 H 1030.84 -4.65126 -2.424 0
M  V30 11094 H 1032.32 -3.8639 -3.94216 0
M  V30 11095 H 1032.79 -2.17228 -3.81718 0
M  V30 11096 H 1033.4 -3.34565 -2.62577 0
M  V30 11097 N 1031.71 0.701592 -1.41122 0
M  V30 11098 C 1032.94 1.48833 -1.43291 0
M  V30 11099 C 1033.35 1.89168 -0.0348668 0
M  V30 11100 O 1032.69 1.56937 0.9548 0
M  V30 11101 C 1032.76 2.78533 -2.27287 0
M  V30 11102 C 1032.42 2.60438 -3.75528 0
M  V30 11103 C 1033.42 2.26778 -4.67833 0
M  V30 11104 C 1031.1 2.76266 -4.19503 0
M  V30 11105 C 1033.1 2.09176 -6.021 0
M  V30 11106 C 1030.78 2.58281 -5.53836 0
M  V30 11107 C 1031.78 2.24786 -6.4495 0
M  V30 11108 O 1031.47 2.06952 -7.76805 0
M  V30 11109 H 1031.2 0.465401 -0.490284 0
M  V30 11110 H 1033.76 0.871843 -1.85979 0
M  V30 11111 H 1031.99 3.42566 -1.79403 0
M  V30 11112 H 1033.67 3.40312 -2.21229 0
M  V30 11113 H 1034.44 2.1417 -4.35151 0
M  V30 11114 H 1030.32 3.01322 -3.48893 0
M  V30 11115 H 1033.86 1.82955 -6.73181 0
M  V30 11116 H 1029.76 2.70478 -5.86099 0
M  V30 11117 H 1030.53 2.21762 -7.87886 0
M  V30 11118 N 1033.19 1.2685 0.935242 0
M  V30 11119 C 1034.14 1.08746 2.05614 0
M  V30 11120 C 1035.13 0.012681 1.69395 0
M  V30 11121 O 1036.34 0.169822 1.79197 0
M  V30 11122 H 1032.71 0.33485 0.673335 0
M  V30 11123 H 1034.69 2.03725 2.18033 0
M  V30 11124 C 1033.43 0.74346 3.39659 0
M  V30 11125 H 1032.76 1.56236 3.68008 0
M  V30 11126 H 1034.2 0.656607 4.18885 0
M  V30 11127 C 1032.66 -0.551751 3.32351 0
M  V30 11128 O 1033.19 -1.58836 3.68963 0
M  V30 11129 N 1031.39 -0.544583 2.85452 0
M  V30 11130 H 1030.94 0.29939 2.55854 0
M  V30 11131 H 1030.9 -1.41129 2.80945 0
M  V30 11132 N 1034.67 -1.14067 1.0875 0
M  V30 11133 C 1035.6 -2.21385 0.74236 0
M  V30 11134 C 1036.58 -1.67833 -0.276805 0
M  V30 11135 O 1037.77 -1.93647 -0.1464 0
M  V30 11136 C 1034.9 -3.46956 0.154644 0
M  V30 11137 C 1033.85 -4.13555 1.10255 0
M  V30 11138 C 1033.18 -5.3337 0.376877 0
M  V30 11139 C 1034.48 -4.6169 2.44213 0
M  V30 11140 H 1036.17 -2.50512 1.63964 0
M  V30 11141 H 1033.72 -1.20408 0.789807 0
M  V30 11142 H 1035.67 -4.21284 -0.0988419 0
M  V30 11143 H 1034.39 -3.17203 -0.777789 0
M  V30 11144 H 1033.05 -3.41186 1.34119 0
M  V30 11145 H 1032.7 -4.99879 -0.559472 0
M  V30 11146 H 1032.4 -5.78875 1.00884 0
M  V30 11147 H 1033.92 -6.10458 0.131527 0
M  V30 11148 H 1035.34 -5.27475 2.24595 0
M  V30 11149 H 1033.74 -5.17909 3.03134 0
M  V30 11150 H 1034.81 -3.76574 3.05483 0
M  V30 11151 N 1036.15 -0.873678 -1.31166 0
M  V30 11152 C 1037.56 -0.566109 -1.49223 0
M  V30 11153 C 1037.76 0.898889 -1.80339 0
M  V30 11154 O 1036.82 1.68084 -1.88425 0
M  V30 11155 C 1038.13 -1.46952 -2.62346 0
M  V30 11156 C 1039.68 -1.47195 -2.76229 0
M  V30 11157 C 1040.16 -2.36102 -3.92454 0
M  V30 11158 N 1041.65 -2.34003 -3.99746 0
M  V30 11159 C 1042.38 -2.99513 -4.88958 0
M  V30 11160 N 1041.88 -3.74206 -5.83045 0
M  V30 11161 N 1043.67 -2.88802 -4.82234 0
M  V30 11162 H 1035.82 -1.82156 -1.09239 0
M  V30 11163 H 1038.09 -0.779086 -0.54012 0
M  V30 11164 H 1037.79 -2.51213 -2.4614 0
M  V30 11165 H 1037.67 -1.17077 -3.5857 0
M  V30 11166 H 1040.05 -0.436902 -2.91848 0
M  V30 11167 H 1040.13 -1.81095 -1.80661 0
M  V30 11168 H 1039.78 -3.39685 -3.77593 0
M  V30 11169 H 1039.71 -1.99524 -4.87337 0
M  V30 11170 H 1042.2 -1.79713 -3.32433 0
M  V30 11171 H 1042.51 -4.21312 -6.47855 0
M  V30 11172 H 1040.86 -3.78314 -5.83012 0
M  V30 11173 H 1044.05 -2.29984 -4.07707 0
M  V30 11174 H 1044.22 -3.40136 -5.51554 0
M  V30 11175 N 1037.63 1.44308 -0.633487 0
M  V30 11176 C 1038.57 2.30694 0.0700257 0
M  V30 11177 C 1039.54 1.43618 0.834447 0
M  V30 11178 O 1040.73 1.72517 0.815014 0
M  V30 11179 C 1037.87 3.28929 1.04403 0
M  V30 11180 C 1036.98 4.31106 0.277779 0
M  V30 11181 C 1036.12 5.16433 1.24381 0
M  V30 11182 C 1035.16 6.10317 0.466855 0
M  V30 11183 N 1034.29 6.88335 1.38347 0
M  V30 11184 H 1039.13 2.90311 -0.672567 0
M  V30 11185 H 1036.67 1.43034 -0.343449 0
M  V30 11186 H 1038.63 3.84373 1.62214 0
M  V30 11187 H 1037.26 2.71006 1.75372 0
M  V30 11188 H 1036.31 3.78115 -0.416292 0
M  V30 11189 H 1037.62 4.97725 -0.327251 0
M  V30 11190 H 1036.78 5.76406 1.89318 0
M  V30 11191 H 1035.51 4.49893 1.88276 0
M  V30 11192 H 1034.52 5.49451 -0.195989 0
M  V30 11193 H 1035.74 6.78894 -0.167414 0
M  V30 11194 H 1033.69 6.24461 2.00959 0
M  V30 11195 H 1033.61 7.51402 0.832517 0
M  V30 11196 H 1034.88 7.52829 2.0216 0
M  V30 11197 N 1039.1 0.374177 1.53094 0
M  V30 11198 C 1040.52 0.0234783 1.59583 0
M  V30 11199 C 1040.72 -1.45984 1.38892 0
M  V30 11200 O 1039.78 -2.22251 1.19836 0
M  V30 11201 C 1041.09 0.487117 2.96728 0
M  V30 11202 C 1042.64 0.442073 3.09862 0
M  V30 11203 C 1043.11 0.881659 4.49434 0
M  V30 11204 N 1044.6 0.837062 4.55574 0
M  V30 11205 C 1045.34 1.14878 5.61774 0
M  V30 11206 N 1044.83 1.53022 6.75689 0
M  V30 11207 N 1046.63 1.07102 5.51802 0
M  V30 11208 H 1038.78 1.34003 1.64794 0
M  V30 11209 H 1041.04 0.548281 0.773364 0
M  V30 11210 H 1040.75 1.52252 3.17037 0
M  V30 11211 H 1040.62 -0.121772 3.77003 0
M  V30 11212 H 1043.01 -0.584216 2.89259 0
M  V30 11213 H 1043.09 1.08657 2.31576 0
M  V30 11214 H 1042.73 1.90611 4.70776 0
M  V30 11215 H 1042.66 0.214326 5.26164 0
M  V30 11216 H 1045.15 0.556173 3.73785 0
M  V30 11217 H 1045.47 1.75211 7.52676 0
M  V30 11218 H 1043.81 1.56895 6.77059 0
M  V30 11219 H 1047 0.772149 4.61688 0
M  V30 11220 H 1047.18 1.31728 6.3447 0
M  V30 11221 N 1040.58 -1.57259 0.103575 0
M  V30 11222 C 1041.83 -1.93832 -0.55786 0
M  V30 11223 C 1042.14 -0.988087 -1.68808 0
M  V30 11224 O 1043.35 -1.24786 -2.41124 0
M  V30 11225 C 1041.81 -3.44433 -1.04373 0
M  V30 11226 C 1041.41 -4.47963 0.0571971 0
M  V30 11227 C 1043.16 -3.89953 -1.67742 0
M  V30 11228 C 1041.07 -5.89727 -0.444505 0
M  V30 11229 H 1040 -0.723536 -0.212161 0
M  V30 11230 H 1042.65 -1.82606 0.180944 0
M  V30 11231 H 1041.03 -3.50841 -1.83648 0
M  V30 11232 H 1042.2 -4.53209 0.83298 0
M  V30 11233 H 1040.52 -4.12104 0.596588 0
M  V30 11234 H 1043.11 -4.93272 -2.06365 0
M  V30 11235 H 1043.46 -3.2907 -2.54988 0
M  V30 11236 H 1043.99 -3.86281 -0.950342 0
M  V30 11237 H 1040.73 -6.5433 0.391543 0
M  V30 11238 H 1040.25 -5.87935 -1.18711 0
M  V30 11239 H 1041.93 -6.40558 -0.910739 0
M  V30 11240 N 1042.06 0.170153 -1.56679 0
M  V30 11241 C 1043.31 0.887906 -1.8233 0
M  V30 11242 C 1043.64 1.81845 -0.681608 0
M  V30 11243 O 1042.91 1.9191 0.316362 0
M  V30 11244 C 1043.2 1.68256 -3.18374 0
M  V30 11245 C 1043.05 0.775059 -4.43072 0
M  V30 11246 C 1044.37 2.65001 -3.51372 0
M  V30 11247 H 1041.49 0.32135 -0.663252 0
M  V30 11248 H 1044.13 0.154065 -1.89374 0
M  V30 11249 H 1042.28 2.30817 -3.12499 0
M  V30 11250 H 1043.95 0.162234 -4.61015 0
M  V30 11251 H 1042.2 0.0831809 -4.3372 0
M  V30 11252 H 1042.87 1.36661 -5.34816 0
M  V30 11253 H 1045.34 2.12566 -3.57708 0
M  V30 11254 H 1044.22 3.17667 -4.47637 0
M  V30 11255 H 1044.48 3.45255 -2.76136 0
M  V30 11256 N 1043.54 1.5137 0.438746 0
M  V30 11257 C 1044.79 1.63969 1.1883 0
M  V30 11258 C 1045.11 0.355245 1.91228 0
M  V30 11259 O 1044.37 -0.660605 1.84213 0
M  V30 11260 C 1044.67 2.79221 2.23093 0
M  V30 11261 C 1044.33 4.18547 1.67717 0
M  V30 11262 C 1043 4.5645 1.52337 0
M  V30 11263 C 1045.35 5.05494 1.26986 0
M  V30 11264 C 1042.68 5.79007 0.946996 0
M  V30 11265 C 1045.03 6.28628 0.707785 0
M  V30 11266 C 1043.69 6.65305 0.540881 0
M  V30 11267 H 1042.96 0.600003 0.43483 0
M  V30 11268 H 1045.61 1.85398 0.479565 0
M  V30 11269 H 1043.91 2.52008 2.99999 0
M  V30 11270 H 1045.61 2.86168 2.80907 0
M  V30 11271 H 1042.2 3.88663 1.80663 0
M  V30 11272 H 1046.38 4.76818 1.37689 0
M  V30 11273 H 1041.64 6.06072 0.805432 0
M  V30 11274 H 1045.81 6.95342 0.38366 0
M  V30 11275 H 1043.44 7.60144 0.0921324 0
M  V30 11276 N 1045.02 -0.694098 1.41492 0
M  V30 11277 C 1046.43 -1.00487 1.23994 0
M  V30 11278 C 1046.63 -2.01078 0.130346 0
M  V30 11279 O 1045.69 -2.47403 -0.504775 0
M  V30 11280 C 1047 -1.52808 2.58979 0
M  V30 11281 C 1048.55 -1.64684 2.66173 0
M  V30 11282 C 1049.02 -2.20406 4.01479 0
M  V30 11283 N 1050.52 -2.27765 4.03333 0
M  V30 11284 C 1051.25 -2.7191 5.04829 0
M  V30 11285 N 1050.75 -3.1565 6.16714 0
M  V30 11286 N 1052.54 -2.71487 4.9219 0
M  V30 11287 H 1044.69 -0.027746 2.12382 0
M  V30 11288 H 1046.95 -0.0748741 0.945039 0
M  V30 11289 H 1046.66 -0.863519 3.40934 0
M  V30 11290 H 1046.53 -2.50998 2.81566 0
M  V30 11291 H 1048.92 -2.30251 1.84576 0
M  V30 11292 H 1049 -0.65035 2.47395 0
M  V30 11293 H 1048.65 -1.55454 4.83525 0
M  V30 11294 H 1048.58 -3.2081 4.17599 0
M  V30 11295 H 1051.07 -1.96899 3.22551 0
M  V30 11296 H 1051.38 -3.47966 6.90029 0
M  V30 11297 H 1049.72 -3.13555 6.20248 0
M  V30 11298 H 1052.92 -2.36666 4.03865 0
M  V30 11299 H 1053.09 -3.05573 5.71427 0
M  V30 11300 N 1046.49 -1.27344 -0.928501 0
M  V30 11301 C 1047.44 -1.10001 -2.029 0
M  V30 11302 C 1048.41 -0.00131084 -1.661 0
M  V30 11303 O 1049.6 -0.163485 -1.90098 0
M  V30 11304 C 1046.74 -0.7524 -3.36798 0
M  V30 11305 C 1045.85 -1.92865 -3.86558 0
M  V30 11306 C 1044.98 -1.52299 -5.08899 0
M  V30 11307 C 1044.02 -2.66677 -5.50953 0
M  V30 11308 N 1043.16 -2.26706 -6.64491 0
M  V30 11309 H 1048 -2.0417 -2.17068 0
M  V30 11310 H 1045.54 -1.01637 -1.0634 0
M  V30 11311 H 1047.5 -0.531687 -4.13798 0
M  V30 11312 H 1046.13 0.15234 -3.2244 0
M  V30 11313 H 1045.18 -2.26192 -3.05845 0
M  V30 11314 H 1046.49 -2.78668 -4.13698 0
M  V30 11315 H 1045.64 -1.26348 -5.93398 0
M  V30 11316 H 1044.38 -0.636042 -4.83535 0
M  V30 11317 H 1043.39 -2.93344 -4.65004 0
M  V30 11318 H 1044.61 -3.55992 -5.78313 0
M  V30 11319 H 1042.56 -1.40462 -6.40786 0
M  V30 11320 H 1042.48 -3.06049 -6.91281 0
M  V30 11321 H 1043.74 -2.04 -7.52333 0
M  V30 11322 N 1047.97 1.13488 -1.09353 0
M  V30 11323 C 1049.22 1.841 -0.82401 0
M  V30 11324 C 1049.53 1.84393 0.652586 0
M  V30 11325 O 1050.74 2.5089 1.03762 0
M  V30 11326 C 1049.2 3.30523 -1.42418 0
M  V30 11327 C 1048.8 3.38621 -2.93326 0
M  V30 11328 C 1050.55 4.06182 -1.23356 0
M  V30 11329 C 1048.46 4.79311 -3.46432 0
M  V30 11330 H 1047.39 0.68974 -0.304589 0
M  V30 11331 H 1050.04 1.27866 -1.31615 0
M  V30 11332 H 1048.42 3.86555 -0.859727 0
M  V30 11333 H 1049.59 2.92587 -3.5599 0
M  V30 11334 H 1047.91 2.76426 -3.11412 0
M  V30 11335 H 1050.5 5.10047 -1.60488 0
M  V30 11336 H 1050.85 4.15936 -0.174152 0
M  V30 11337 H 1051.38 3.56477 -1.76547 0
M  V30 11338 H 1048.12 4.74748 -4.5199 0
M  V30 11339 H 1047.64 5.25842 -2.8853 0
M  V30 11340 H 1049.32 5.48227 -3.43593 0
M  V30 11341 N 1049.45 0.880621 1.30701 0
M  V30 11342 C 1050.68 0.510909 2.01009 0
M  V30 11343 C 1051.1 -0.892041 1.65603 0
M  V30 11344 O 1050.46 -1.59045 0.870309 0
M  V30 11345 C 1050.51 0.687759 3.53981 0
M  V30 11346 O 1049.61 -0.268275 4.11526 0
M  V30 11347 H 1048.95 0.201864 0.632572 0
M  V30 11348 H 1051.48 1.18697 1.6665 0
M  V30 11349 H 1051.49 0.585095 4.03783 0
M  V30 11350 H 1050.17 1.71068 3.79089 0
M  V30 11351 H 1048.74 -0.119673 3.72708 0
M  V30 11352 N 1050.93 -1.4397 0.641131 0
M  V30 11353 C 1052.21 -1.95436 0.0800918 0
M  V30 11354 C 1052.59 -1.58282 -1.39678 0
M  V30 11355 O 1051.93 -0.861867 -2.11623 0
M  V30 11356 C 1052.14 -3.47589 0.313531 0
M  V30 11357 C 1053.49 -4.2407 0.212034 0
M  V30 11358 O 1054.52 -3.55353 0.245434 0
M  V30 11359 O 1053.38 -5.46356 0.125455 0
M  V30 11360 H 1050.47 -0.826834 -0.0165735 0
M  V30 11361 H 1053.02 -1.5397 0.71353 0
M  V30 11362 H 1051.79 -3.67716 1.33793 0
M  V30 11363 H 1051.41 -3.96025 -0.353563 0
M  V30 11364 N 1052.41 -0.382291 -1.52893 0
M  V30 11365 C 1053.65 0.202433 -2.01787 0
M  V30 11366 C 1053.99 1.47044 -1.26853 0
M  V30 11367 O 1053.26 1.91007 -0.366969 0
M  V30 11368 C 1053.54 0.477471 -3.5692 0
M  V30 11369 C 1053.4 -0.805339 -4.42532 0
M  V30 11370 C 1054.72 1.27106 -4.21346 0
M  V30 11371 H 1051.84 0.0720998 -0.733465 0
M  V30 11372 H 1054.48 -0.510478 -1.83014 0
M  V30 11373 H 1052.63 1.08478 -3.73048 0
M  V30 11374 H 1054.3 -1.4424 -4.3817 0
M  V30 11375 H 1052.54 -1.42216 -4.09826 0
M  V30 11376 H 1053.21 -0.567635 -5.49074 0
M  V30 11377 H 1055.69 0.757161 -4.09153 0
M  V30 11378 H 1054.57 1.43225 -5.29885 0
M  V30 11379 H 1054.83 2.28431 -3.78513 0
M  V30 11380 N 1053.89 1.57202 -0.111913 0
M  V30 11381 C 1054.83 2.14936 0.840908 0
M  V30 11382 C 1055.8 1.07242 1.2684 0
M  V30 11383 O 1056.99 1.35114 1.34718 0
M  V30 11384 C 1054.13 2.74743 2.0883 0
M  V30 11385 C 1053.24 3.96723 1.70982 0
M  V30 11386 C 1052.38 4.4464 2.90634 0
M  V30 11387 C 1051.41 5.59169 2.48992 0
M  V30 11388 N 1050.55 6.01862 3.61534 0
M  V30 11389 H 1055.39 2.96034 0.341735 0
M  V30 11390 H 1052.93 1.4626 0.156993 0
M  V30 11391 H 1054.89 3.07546 2.81907 0
M  V30 11392 H 1053.52 1.96346 2.56218 0
M  V30 11393 H 1052.57 3.70127 0.878072 0
M  V30 11394 H 1053.88 4.79795 1.36373 0
M  V30 11395 H 1053.03 4.79315 3.71944 0
M  V30 11396 H 1051.77 3.60503 3.28464 0
M  V30 11397 H 1050.78 5.24106 1.66113 0
M  V30 11398 H 1052 6.45067 2.12287 0
M  V30 11399 H 1049.95 5.20667 3.99051 0
M  V30 11400 H 1049.87 6.79772 3.30827 0
M  V30 11401 H 1051.13 6.41172 4.43305 0
M  V30 11402 N 1055.36 -0.161842 1.56767 0
M  V30 11403 C 1056.78 -0.51396 1.51098 0
M  V30 11404 C 1056.98 -1.84158 0.817815 0
M  V30 11405 O 1056.04 -2.49592 0.382133 0
M  V30 11406 C 1057.35 -0.537966 2.95849 0
M  V30 11407 C 1058.9 -0.624512 3.06706 0
M  V30 11408 C 1059.37 -0.679322 4.52934 0
M  V30 11409 N 1060.86 -0.741953 4.57219 0
M  V30 11410 C 1061.6 -0.805096 5.6772 0
M  V30 11411 N 1061.09 -0.828492 6.87828 0
M  V30 11412 N 1062.89 -0.844843 5.55715 0
M  V30 11413 H 1055.04 0.708581 2.00232 0
M  V30 11414 H 1057.3 0.25663 0.912603 0
M  V30 11415 H 1057.01 0.369052 3.49758 0
M  V30 11416 H 1056.88 -1.38113 3.51005 0
M  V30 11417 H 1059.27 -1.52195 2.52825 0
M  V30 11418 H 1059.35 0.245515 2.54619 0
M  V30 11419 H 1058.99 0.213901 5.07449 0
M  V30 11420 H 1058.92 -1.56563 5.02788 0
M  V30 11421 H 1061.41 -0.731772 3.70747 0
M  V30 11422 H 1061.73 -0.878109 7.67795 0
M  V30 11423 H 1060.07 -0.796612 6.9042 0
M  V30 11424 H 1063.26 -0.823632 4.60797 0
M  V30 11425 H 1063.44 -0.890588 6.41851 0
M  V30 11426 N 1056.84 -1.516 -0.430713 0
M  V30 11427 C 1057.75 -1.76247 -1.54836 0
M  V30 11428 C 1058.77 -0.646985 -1.61524 0
M  V30 11429 O 1059.94 -0.929987 -1.78643 0
M  V30 11430 C 1057.01 -1.88833 -2.90763 0
M  V30 11431 C 1056.07 -3.12701 -2.94137 0
M  V30 11432 C 1055.3 -3.24676 -4.23581 0
M  V30 11433 O 1055.53 -2.42429 -5.16318 0
M  V30 11434 O 1054.46 -4.17697 -4.33374 0
M  V30 11435 H 1058.29 -2.71069 -1.3695 0
M  V30 11436 H 1055.87 -1.36182 -0.614396 0
M  V30 11437 H 1057.75 -1.99057 -3.71422 0
M  V30 11438 H 1056.43 -0.971987 -3.08762 0
M  V30 11439 H 1055.33 -3.0795 -2.1241 0
M  V30 11440 H 1056.67 -4.04045 -2.81084 0
M  V30 11441 N 1058.32 0.686584 -1.41858 0
M  V30 11442 C 1059.23 1.83002 -1.46791 0
M  V30 11443 C 1060.25 1.70284 -0.357675 0
M  V30 11444 O 1061.42 1.92042 -0.606781 0
M  V30 11445 C 1058.49 3.19056 -1.35661 0
M  V30 11446 C 1057.55 3.43817 -2.57077 0
M  V30 11447 C 1056.78 4.7338 -2.46469 0
M  V30 11448 O 1057 5.50483 -1.49413 0
M  V30 11449 O 1055.94 4.99124 -3.36391 0
M  V30 11450 H 1059.76 1.81797 -2.43277 0
M  V30 11451 H 1057.35 0.840812 -1.23494 0
M  V30 11452 H 1059.23 4.00267 -1.31773 0
M  V30 11453 H 1057.91 3.20925 -0.422951 0
M  V30 11454 H 1056.81 2.625 -2.66541 0
M  V30 11455 H 1058.15 3.4677 -3.49302 0
M  V30 11456 N 1059.8 1.27835 0.921735 0
M  V30 11457 C 1060.71 1.12904 2.05645 0
M  V30 11458 C 1061.72 0.0575704 1.73905 0
M  V30 11459 O 1062.9 0.265261 1.99645 0
M  V30 11460 C 1059.96 0.783957 3.3772 0
M  V30 11461 C 1059.03 1.93694 3.8312 0
M  V30 11462 C 1058.26 1.60823 5.08893 0
M  V30 11463 O 1058.48 0.518873 5.68035 0
M  V30 11464 O 1057.42 2.44932 5.49811 0
M  V30 11465 H 1061.24 2.08143 2.21157 0
M  V30 11466 H 1058.83 1.07078 1.04185 0
M  V30 11467 H 1060.71 0.605107 4.17033 0
M  V30 11468 H 1059.38 -0.138849 3.23402 0
M  V30 11469 H 1058.29 2.17089 3.04669 0
M  V30 11470 H 1059.62 2.84016 4.0199 0
M  V30 11471 N 1061.28 -1.12907 1.09954 0
M  V30 11472 C 1062.19 -2.22082 0.756095 0
M  V30 11473 C 1063.2 -1.72277 -0.244272 0
M  V30 11474 O 1064.38 -2.01224 -0.0842637 0
M  V30 11475 C 1061.44 -3.46192 0.187642 0
M  V30 11476 C 1060.5 -4.10861 1.24465 0
M  V30 11477 C 1059.74 -5.29047 0.703227 0
M  V30 11478 O 1059.96 -5.68443 -0.472043 0
M  V30 11479 O 1058.89 -5.83904 1.46082 0
M  V30 11480 H 1062.72 -2.53842 1.66727 0
M  V30 11481 H 1060.3 -1.21145 0.874316 0
M  V30 11482 H 1062.19 -4.21212 -0.125774 0
M  V30 11483 H 1060.86 -3.16119 -0.696459 0
M  V30 11484 H 1059.77 -3.37643 1.61085 0
M  V30 11485 H 1061.1 -4.45078 2.10159 0
M  V30 11486 N 1062.75 -0.88754 -1.30232 0
M  V30 11487 C 1064.17 -0.581904 -1.48614 0
M  V30 11488 C 1064.37 0.879711 -1.81282 0
M  V30 11489 O 1063.43 1.66076 -1.90198 0
M  V30 11490 C 1064.74 -1.49726 -2.60773 0
M  V30 11491 C 1066.29 -1.50117 -2.74653 0
M  V30 11492 C 1066.76 -2.40251 -3.89927 0
M  V30 11493 N 1068.25 -2.38229 -3.97242 0
M  V30 11494 C 1068.99 -3.04682 -4.85754 0
M  V30 11495 N 1068.48 -3.80369 -5.79043 0
M  V30 11496 N 1070.28 -2.93901 -4.79144 0
M  V30 11497 H 1062.43 -1.83304 -1.073 0
M  V30 11498 H 1064.69 -0.78477 -0.531826 0
M  V30 11499 H 1064.4 -2.5381 -2.43462 0
M  V30 11500 H 1064.27 -1.20874 -3.57308 0
M  V30 11501 H 1066.66 -0.467832 -2.91368 0
M  V30 11502 H 1066.74 -1.83001 -1.7873 0
M  V30 11503 H 1066.38 -3.43671 -3.73969 0
M  V30 11504 H 1066.31 -2.04682 -4.85194 0
M  V30 11505 H 1068.8 -1.83229 -3.30508 0
M  V30 11506 H 1069.12 -4.28159 -6.4335 0
M  V30 11507 H 1067.46 -3.84477 -5.78967 0
M  V30 11508 H 1070.65 -2.34296 -4.05245 0
M  V30 11509 H 1070.83 -3.45967 -5.47915 0
M  V30 11510 N 1064.23 1.43628 -0.648757 0
M  V30 11511 C 1065.17 2.28001 0.0952198 0
M  V30 11512 C 1066.14 1.39569 0.834225 0
M  V30 11513 O 1067.33 1.69011 0.834711 0
M  V30 11514 C 1064.45 3.18886 1.14145 0
M  V30 11515 C 1063.5 4.23547 0.500996 0
M  V30 11516 S 1064.33 5.30609 -0.722118 0
M  V30 11517 C 1065.49 6.25062 0.323687 0
M  V30 11518 H 1065.72 2.90752 -0.620511 0
M  V30 11519 H 1063.26 1.48073 -0.437457 0
M  V30 11520 H 1065.21 3.71795 1.74008 0
M  V30 11521 H 1063.87 2.55322 1.82947 0
M  V30 11522 H 1063.07 4.87224 1.28954 0
M  V30 11523 H 1062.67 3.73993 -0.0234176 0
M  V30 11524 H 1064.96 6.66946 1.19118 0
M  V30 11525 H 1065.9 7.07554 -0.277939 0
M  V30 11526 H 1066.31 5.60658 0.657493 0
M  V30 11527 N 1065.71 0.390394 1.52688 0
M  V30 11528 C 1066.66 -0.444229 2.26485 0
M  V30 11529 C 1067.63 -1.05688 1.28138 0
M  V30 11530 O 1068.81 -1.0847 1.56968 0
M  V30 11531 C 1065.95 -1.56501 3.07574 0
M  V30 11532 C 1065.07 -0.975111 4.20851 0
M  V30 11533 C 1064.2 -2.06704 4.89333 0
M  V30 11534 C 1063.24 -1.45309 5.94602 0
M  V30 11535 N 1062.38 -2.48437 6.56676 0
M  V30 11536 H 1067.22 0.191535 2.97384 0
M  V30 11537 H 1064.75 0.106287 1.46716 0
M  V30 11538 H 1066.71 -2.22558 3.52879 0
M  V30 11539 H 1065.34 -2.17107 2.38881 0
M  V30 11540 H 1064.39 -0.204109 3.79852 0
M  V30 11541 H 1065.71 -0.486465 4.96422 0
M  V30 11542 H 1064.86 -2.80528 5.37949 0
M  V30 11543 H 1063.6 -2.58928 4.13289 0
M  V30 11544 H 1062.6 -0.700091 5.45324 0
M  V30 11545 H 1063.83 -0.938775 6.7258 0
M  V30 11546 H 1061.77 -2.99829 5.83471 0
M  V30 11547 H 1061.69 -2.04331 7.27863 0
M  V30 11548 H 1062.96 -3.21888 7.09935 0
M  V30 11549 N 1067.19 -1.57141 0.120249 0
M  V30 11550 C 1068.6 -1.5784 -0.236335 0
M  V30 11551 C 1068.8 -1.13304 -1.66626 0
M  V30 11552 O 1067.86 -0.821004 -2.3878 0
M  V30 11553 C 1069.17 -3.007 -0.00188211 0
M  V30 11554 C 1070.72 -3.12927 -0.0676838 0
M  V30 11555 C 1071.2 -4.57789 0.139092 0
M  V30 11556 N 1072.69 -4.63122 0.085104 0
M  V30 11557 C 1073.42 -5.72978 0.219983 0
M  V30 11558 N 1072.92 -6.91579 0.411102 0
M  V30 11559 N 1074.71 -5.61874 0.159469 0
M  V30 11560 H 1066.86 -1.84391 1.05422 0
M  V30 11561 H 1069.13 -0.852228 0.415225 0
M  V30 11562 H 1068.83 -3.37575 0.986718 0
M  V30 11563 H 1068.71 -3.70005 -0.733203 0
M  V30 11564 H 1071.09 -2.75909 -1.04681 0
M  V30 11565 H 1071.17 -2.46162 0.695538 0
M  V30 11566 H 1070.82 -4.95506 1.1152 0
M  V30 11567 H 1070.75 -5.22646 -0.644131 0
M  V30 11568 H 1073.24 -3.77854 -0.0590479 0
M  V30 11569 H 1073.55 -7.71149 0.504851 0
M  V30 11570 H 1071.9 -6.9356 0.447091 0
M  V30 11571 H 1075.09 -4.68099 0.0111131 0
M  V30 11572 H 1075.26 -6.47445 0.268028 0
M  V30 11573 N 1068.67 0.153526 -1.5685 0
M  V30 11574 C 1069.61 1.18973 -1.97773 0
M  V30 11575 C 1070.58 1.43041 -0.844311 0
M  V30 11576 O 1071.77 1.55484 -1.10586 0
M  V30 11577 C 1068.91 2.51981 -2.35795 0
M  V30 11578 C 1068.02 2.35143 -3.62397 0
M  V30 11579 C 1067.16 3.61141 -3.89552 0
M  V30 11580 C 1066.2 3.39311 -5.09445 0
M  V30 11581 N 1065.33 4.57423 -5.32643 0
M  V30 11582 H 1070.17 0.833758 -2.86099 0
M  V30 11583 H 1067.71 0.400252 -1.4155 0
M  V30 11584 H 1069.67 3.29527 -2.55867 0
M  V30 11585 H 1068.3 2.85539 -1.50557 0
M  V30 11586 H 1067.35 1.48684 -3.50139 0
M  V30 11587 H 1068.66 2.14969 -4.501 0
M  V30 11588 H 1067.82 4.47117 -4.10087 0
M  V30 11589 H 1066.55 3.84312 -3.00259 0
M  V30 11590 H 1065.56 2.51723 -4.8879 0
M  V30 11591 H 1066.78 3.17545 -6.00285 0
M  V30 11592 H 1064.73 4.8078 -4.46303 0
M  V30 11593 H 1064.65 4.40228 -6.14602 0
M  V30 11594 H 1065.92 5.44632 -5.57671 0
M  V30 11595 N 1070.14 1.51827 0.422667 0
M  V30 11596 C 1071.09 1.74791 1.53463 0
M  V30 11597 C 1072.09 0.614602 1.57858 0
M  V30 11598 O 1073.29 0.796336 1.61426 0
M  V30 11599 H 1069.67 0.552524 0.510118 0
M  V30 11600 H 1071.64 2.67974 1.31273 0
M  V30 11601 C 1070.39 1.90339 2.90975 0
M  V30 11602 H 1069.71 2.76958 2.8833 0
M  V30 11603 H 1071.15 2.10413 3.68106 0
M  V30 11604 C 1069.61 0.66695 3.30232 0
M  V30 11605 O 1070.14 -0.171542 4.01334 0
M  V30 11606 N 1068.35 0.506768 2.86147 0
M  V30 11607 H 1067.89 1.19019 2.28456 0
M  V30 11608 H 1067.85 -0.319247 3.12775 0
M  V30 11609 N 1071.62 -0.679052 1.4222 0
M  V30 11610 C 1072.53 -1.82221 1.47759 0
M  V30 11611 C 1073.55 -1.70092 0.3667 0
M  V30 11612 O 1074.72 -1.91718 0.616957 0
M  V30 11613 C 1071.79 -3.18332 1.37351 0
M  V30 11614 C 1070.85 -3.42449 2.58896 0
M  V30 11615 C 1070.08 -4.72067 2.48976 0
M  V30 11616 O 1070.31 -5.49683 1.5233 0
M  V30 11617 O 1069.24 -4.97333 3.39033 0
M  V30 11618 H 1073.07 -1.80504 2.44238 0
M  V30 11619 H 1070.65 -0.834251 1.23938 0
M  V30 11620 H 1072.53 -3.99563 1.33893 0
M  V30 11621 H 1071.21 -3.20696 0.439965 0
M  V30 11622 H 1070.12 -2.61083 2.6793 0
M  V30 11623 H 1071.45 -3.44912 3.51136 0
M  V30 11624 N 1073.1 -1.28322 -0.914942 0
M  V30 11625 C 1074.06 -1.12169 -1.99877 0
M  V30 11626 C 1075.06 -0.0617252 -1.60681 0
M  V30 11627 O 1076.25 -0.307405 -1.71466 0
M  V30 11628 C 1073.39 -0.711959 -3.33383 0
M  V30 11629 H 1074.58 -2.08425 -2.15636 0
M  V30 11630 H 1072.13 -1.11291 -1.09745 0
M  V30 11631 H 1072.87 0.251418 -3.23324 0
M  V30 11632 H 1072.65 -1.47764 -3.63192 0
M  V30 11633 H 1074.14 -0.621558 -4.12948 0
M  V30 11634 N 1074.58 1.12322 -1.10551 0
M  V30 11635 C 1075.99 1.6539 -0.8662 0
M  V30 11636 C 1076.34 1.86695 0.603284 0
M  V30 11637 O 1075.47 1.59432 1.46323 0
M  V30 11638 C 1076.06 3.00443 -1.56587 0
M  V30 11639 C 1074.62 3.50456 -1.37323 0
M  V30 11640 C 1073.77 2.25454 -1.61449 0
M  V30 11641 H 1076.72 0.960866 -1.26305 0
M  V30 11642 H 1076.74 3.66972 -1.00557 0
M  V30 11643 H 1076.25 2.84905 -2.63535 0
M  V30 11644 H 1074.35 3.71176 -0.325431 0
M  V30 11645 H 1074.46 4.29839 -2.11601 0
M  V30 11646 H 1072.83 2.32621 -1.03729 0
M  V30 11647 H 1073.61 2.12469 -2.69651 0
M  V30 11648 N 1076.06 0.894434 1.2976 0
M  V30 11649 C 1076.99 0.3847 2.30309 0
M  V30 11650 C 1077.97 -0.537486 1.61385 0
M  V30 11651 O 1079.15 -0.449332 1.8893 0
M  V30 11652 C 1076.28 -0.393311 3.45066 0
M  V30 11653 C 1075.24 0.437968 4.25753 0
M  V30 11654 C 1074.56 -0.467221 5.32655 0
M  V30 11655 C 1075.86 1.6851 4.9437 0
M  V30 11656 H 1077.56 1.22496 2.73194 0
M  V30 11657 H 1075.1 0.590471 1.31337 0
M  V30 11658 H 1077.06 -0.760614 4.14479 0
M  V30 11659 H 1075.78 -1.2673 3.0101 0
M  V30 11660 H 1074.44 0.787533 3.58041 0
M  V30 11661 H 1074.09 -1.33919 4.84845 0
M  V30 11662 H 1073.79 0.0852482 5.87538 0
M  V30 11663 H 1075.31 -0.830833 6.04921 0
M  V30 11664 H 1076.72 1.38784 5.56248 0
M  V30 11665 H 1075.12 2.17849 5.59162 0
M  V30 11666 H 1076.19 2.42412 4.19958 0
M  V30 11667 N 1077.53 -1.43282 0.656365 0
M  V30 11668 C 1078.78 -2.00996 0.168354 0
M  V30 11669 C 1079.1 -1.52408 -1.22601 0
M  V30 11670 O 1080.3 -2.02417 -1.80941 0
M  V30 11671 C 1078.76 -3.5903 0.250161 0
M  V30 11672 C 1078.37 -4.1661 1.64742 0
M  V30 11673 C 1080.11 -4.24118 -0.180084 0
M  V30 11674 C 1078.02 -5.66948 1.68299 0
M  V30 11675 H 1076.95 -0.751674 0.0591769 0
M  V30 11676 H 1079.6 -1.64216 0.818859 0
M  V30 11677 H 1077.98 -3.93226 -0.467908 0
M  V30 11678 H 1079.15 -3.93908 2.3911 0
M  V30 11679 H 1077.47 -3.63905 2.02391 0
M  V30 11680 H 1080.07 -5.34419 -0.173401 0
M  V30 11681 H 1080.41 -3.98264 -1.21208 0
M  V30 11682 H 1080.94 -3.94816 0.486343 0
M  V30 11683 H 1077.68 -5.97573 2.69419 0
M  V30 11684 H 1077.2 -5.91697 0.98261 0
M  V30 11685 H 1078.88 -6.31041 1.42813 0
M  V30 11686 N 1079.01 -0.398486 -1.52479 0
M  V30 11687 C 1079.94 0.423498 -2.29627 0
M  V30 11688 C 1080.92 1.05547 -1.33394 0
M  V30 11689 O 1082.11 1.0665 -1.62294 0
M  V30 11690 C 1079.24 1.54612 -3.10986 0
M  V30 11691 C 1078.19 1.03971 -4.15179 0
M  V30 11692 C 1077.52 2.25512 -4.84818 0
M  V30 11693 C 1078.82 0.10121 -5.22202 0
M  V30 11694 H 1080.51 -0.220222 -2.98589 0
M  V30 11695 H 1078.06 -0.107355 -1.43599 0
M  V30 11696 H 1080.01 2.12806 -3.63719 0
M  V30 11697 H 1078.74 2.21756 -2.39774 0
M  V30 11698 H 1077.4 0.480251 -3.63441 0
M  V30 11699 H 1077.04 2.91187 -4.10145 0
M  V30 11700 H 1076.74 1.92285 -5.55248 0
M  V30 11701 H 1078.27 2.84331 -5.40359 0
M  V30 11702 H 1079.68 0.591617 -5.70239 0
M  V30 11703 H 1078.08 -0.141737 -5.99933 0
M  V30 11704 H 1079.15 -0.847216 -4.77441 0
M  V30 11705 N 1080.49 1.57075 -0.12858 0
M  V30 11706 C 1081.9 1.82468 0.39526 0
M  V30 11707 C 1082.25 1.0463 1.65973 0
M  V30 11708 O 1081.38 0.285835 2.14504 0
M  V30 11709 C 1081.97 3.30976 0.723889 0
M  V30 11710 C 1080.53 3.57016 1.19232 0
M  V30 11711 C 1079.68 2.76534 0.205907 0
M  V30 11712 H 1082.63 1.54711 -0.353571 0
M  V30 11713 H 1082.65 3.46127 1.58039 0
M  V30 11714 H 1082.16 3.87602 -0.196595 0
M  V30 11715 H 1080.26 3.05758 2.12938 0
M  V30 11716 H 1080.38 4.65558 1.13103 0
M  V30 11717 H 1078.74 2.45038 0.694872 0
M  V30 11718 H 1079.52 3.35923 -0.707842 0
M  V30 11719 N 1081.97 -0.145205 1.5693 0
M  V30 11720 C 1083.38 -0.705089 1.72874 0
M  V30 11721 C 1083.73 -1.81577 0.743261 0
M  V30 11722 O 1082.86 -2.16214 -0.0897153 0
M  V30 11723 C 1083.45 -1.28578 3.13454 0
M  V30 11724 C 1082.01 -1.79221 3.30994 0
M  V30 11725 C 1081.16 -0.681392 2.68798 0
M  V30 11726 H 1084.11 0.0804798 1.58496 0
M  V30 11727 H 1084.13 -2.15558 3.13552 0
M  V30 11728 H 1083.64 -0.477186 3.85155 0
M  V30 11729 H 1081.74 -2.62642 2.64292 0
M  V30 11730 H 1081.86 -1.91969 4.38959 0
M  V30 11731 H 1080.22 -1.10847 2.29314 0
M  V30 11732 H 1081 0.115786 3.43105 0
M  V30 11733 N 1083.45 -1.52049 -0.414609 0
M  V30 11734 C 1084.72 -1.56397 -1.17471 0
M  V30 11735 C 1085.1 -0.34171 -2.08316 0
M  V30 11736 O 1084.45 0.6718 -2.18401 0
M  V30 11737 C 1084.66 -2.88983 -1.95678 0
M  V30 11738 C 1086.01 -3.41781 -2.51935 0
M  V30 11739 O 1087.03 -2.90686 -2.05865 0
M  V30 11740 O 1085.89 -4.30989 -3.36022 0
M  V30 11741 H 1082.99 -0.62974 -0.536056 0
M  V30 11742 H 1085.53 -1.64374 -0.421834 0
M  V30 11743 H 1084.31 -3.69392 -1.29094 0
M  V30 11744 H 1083.93 -2.84274 -2.77983 0
M  V30 11745 N 1084.93 0.6715 -1.42579 0
M  V30 11746 C 1085.88 1.77767 -1.42769 0
M  V30 11747 C 1086.86 1.58106 -0.298568 0
M  V30 11748 O 1088.05 1.68528 -0.541037 0
M  V30 11749 C 1085.18 3.16248 -1.33574 0
M  V30 11750 C 1084.27 3.41521 -2.51445 0
M  V30 11751 N 1084.66 3.37361 -3.76857 0
M  V30 11752 C 1082.96 3.7217 -2.45776 0
M  V30 11753 C 1083.66 3.62209 -4.5517 0
M  V30 11754 N 1082.63 3.83134 -3.85628 0
M  V30 11755 H 1086.43 1.72949 -2.37626 0
M  V30 11756 H 1083.95 0.872467 -1.36974 0
M  V30 11757 H 1085.95 3.9552 -1.31793 0
M  V30 11758 H 1084.61 3.22261 -0.397223 0
M  V30 11759 H 1085.62 3.17187 -4.09406 0
M  V30 11760 H 1082.29 3.85408 -1.6052 0
M  V30 11761 H 1083.68 3.64925 -5.64162 0
M  V30 11762 N 1086.4 1.28806 0.908124 0
M  V30 11763 C 1087.81 1.14719 1.47297 0
M  V30 11764 C 1088.17 -0.260763 1.94459 0
M  V30 11765 O 1087.29 -1.15553 1.82966 0
M  V30 11766 C 1087.89 2.07643 2.67712 0
M  V30 11767 C 1086.44 1.97605 3.20358 0
M  V30 11768 C 1085.59 1.99058 1.93058 0
M  V30 11769 H 1088.54 1.41413 0.720283 0
M  V30 11770 H 1088.56 1.64372 3.43165 0
M  V30 11771 H 1088.08 3.10108 2.33355 0
M  V30 11772 H 1086.18 0.981982 3.59427 0
M  V30 11773 H 1086.29 2.84846 3.85226 0
M  V30 11774 H 1084.65 1.43541 2.104 0
M  V30 11775 H 1085.44 3.03212 1.60989 0
M  V30 11776 N 1087.88 -1.11734 1.11145 0
M  V30 11777 C 1089.13 -1.83677 0.859684 0
M  V30 11778 C 1089.46 -1.84265 -0.613182 0
M  V30 11779 O 1088.74 -1.29351 -1.45254 0
M  V30 11780 C 1089.02 -3.31003 1.41805 0
M  V30 11781 C 1088.87 -3.38827 2.95831 0
M  V30 11782 C 1090.19 -4.26984 1.06645 0
M  V30 11783 H 1087.31 -0.666879 0.313754 0
M  V30 11784 H 1089.95 -1.31038 1.37583 0
M  V30 11785 H 1088.1 -3.75961 0.979054 0
M  V30 11786 H 1089.77 -3.02451 3.48312 0
M  V30 11787 H 1088.02 -2.79143 3.32056 0
M  V30 11788 H 1088.69 -4.42508 3.29986 0
M  V30 11789 H 1091.16 -3.9019 1.44537 0
M  V30 11790 H 1090.04 -5.2846 1.48394 0
M  V30 11791 H 1090.3 -4.42094 -0.0231866 0
M  V30 11792 N 1089.36 -0.901303 -1.29284 0
M  V30 11793 C 1090.78 -0.597634 -1.47988 0
M  V30 11794 C 1090.98 0.860434 -1.82205 0
M  V30 11795 O 1090.03 1.64049 -1.91948 0
M  V30 11796 C 1091.34 -1.52484 -2.5917 0
M  V30 11797 C 1092.89 -1.53021 -2.73045 0
M  V30 11798 C 1093.37 -2.44373 -3.87357 0
M  V30 11799 N 1094.86 -2.42429 -3.94693 0
M  V30 11800 C 1095.59 -3.09817 -4.82495 0
M  V30 11801 N 1095.09 -3.86489 -5.74976 0
M  V30 11802 N 1096.88 -2.98966 -4.76 0
M  V30 11803 H 1089.03 -1.84432 -1.0535 0
M  V30 11804 H 1091.3 -0.790367 -0.523473 0
M  V30 11805 H 1091 -2.56378 -2.40756 0
M  V30 11806 H 1090.88 -1.24657 -3.56006 0
M  V30 11807 H 1093.26 -0.498709 -2.90855 0
M  V30 11808 H 1093.34 -1.84886 -1.76779 0
M  V30 11809 H 1092.99 -3.47618 -3.70302 0
M  V30 11810 H 1092.92 -2.09817 -4.82995 0
M  V30 11811 H 1095.41 -1.86724 -3.28546 0
M  V30 11812 H 1095.72 -4.34959 -6.38773 0
M  V30 11813 H 1094.07 -3.90596 -5.74857 0
M  V30 11814 H 1097.26 -2.38581 -4.02737 0
M  V30 11815 H 1097.43 -3.51758 -5.44215 0
M  V30 11816 N 1090.84 1.42931 -0.663954 0
M  V30 11817 C 1092.25 1.56098 -0.332496 0
M  V30 11818 C 1092.45 1.64564 1.16279 0
M  V30 11819 O 1091.51 1.6066 1.94794 0
M  V30 11820 C 1092.82 2.81649 -1.05329 0
M  V30 11821 C 1094.37 2.95408 -1.03457 0
M  V30 11822 C 1094.85 4.23805 -1.73647 0
M  V30 11823 N 1096.34 4.30693 -1.70462 0
M  V30 11824 C 1097.07 5.28833 -2.21637 0
M  V30 11825 N 1096.57 6.33189 -2.81147 0
M  V30 11826 N 1098.36 5.20558 -2.12075 0
M  V30 11827 H 1090.51 1.3568 -1.63416 0
M  V30 11828 H 1092.77 0.652361 -0.687844 0
M  V30 11829 H 1092.48 2.81494 -2.10842 0
M  V30 11830 H 1092.35 3.72208 -0.611626 0
M  V30 11831 H 1094.74 2.95097 0.0121936 0
M  V30 11832 H 1094.82 2.06109 -1.51502 0
M  V30 11833 H 1094.47 4.24876 -2.78285 0
M  V30 11834 H 1094.4 5.12019 -1.2306 0
M  V30 11835 H 1096.89 3.55904 -1.27046 0
M  V30 11836 H 1097.2 7.04411 -3.17844 0
M  V30 11837 H 1095.55 6.33781 -2.85212 0
M  V30 11838 H 1098.74 4.3795 -1.6528 0
M  V30 11839 H 1098.91 5.96881 -2.52264 0
M  V30 11840 N 1092.32 0.406567 1.52266 0
M  V30 11841 C 1093.25 -0.411314 2.29849 0
M  V30 11842 C 1094.23 -1.04838 1.33952 0
M  V30 11843 O 1095.41 -1.05788 1.62857 0
M  V30 11844 C 1092.54 -1.52961 3.11802 0
M  V30 11845 C 1091.5 -1.01768 4.15725 0
M  V30 11846 C 1090.82 -2.22938 4.86007 0
M  V30 11847 C 1092.12 -0.073515 5.22248 0
M  V30 11848 H 1093.82 0.236054 2.98468 0
M  V30 11849 H 1091.36 0.114968 1.4354 0
M  V30 11850 H 1093.31 -2.10874 3.64843 0
M  V30 11851 H 1092.04 -2.20482 2.40947 0
M  V30 11852 H 1090.7 -0.46097 3.6369 0
M  V30 11853 H 1090.35 -2.89007 4.11684 0
M  V30 11854 H 1090.05 -1.89338 5.5626 0
M  V30 11855 H 1091.57 -2.81462 5.41859 0
M  V30 11856 H 1092.98 -0.561367 5.70545 0
M  V30 11857 H 1091.38 0.173551 5.99849 0
M  V30 11858 H 1092.45 0.872524 4.76985 0
M  V30 11859 N 1093.79 -1.57004 0.136909 0
M  V30 11860 C 1095.04 -1.95797 -0.516711 0
M  V30 11861 C 1095.37 -1.02123 -1.65533 0
M  V30 11862 O 1094.62 -0.0484835 -1.9564 0
M  V30 11863 C 1094.92 -3.40903 -1.07331 0
M  V30 11864 C 1094.59 -4.50867 -0.0541941 0
M  V30 11865 C 1093.25 -4.80669 0.225988 0
M  V30 11866 C 1095.6 -5.17264 0.639361 0
M  V30 11867 C 1092.93 -5.74177 1.2057 0
M  V30 11868 C 1095.28 -6.11827 1.60783 0
M  V30 11869 C 1093.95 -6.40012 1.89581 0
M  V30 11870 H 1093.22 -0.716471 -0.189078 0
M  V30 11871 H 1095.86 -1.90213 0.221605 0
M  V30 11872 H 1094.17 -3.43268 -1.88876 0
M  V30 11873 H 1095.87 -3.6824 -1.58745 0
M  V30 11874 H 1092.46 -4.27666 -0.282754 0
M  V30 11875 H 1096.64 -4.9438 0.436085 0
M  V30 11876 H 1091.9 -5.94312 1.43538 0
M  V30 11877 H 1096.07 -6.62354 2.15081 0
M  V30 11878 H 1093.7 -7.12274 2.65649 0
M  V30 11879 N 1095.27 0.136881 -1.57004 0
M  V30 11880 C 1096.2 1.19402 -1.95642 0
M  V30 11881 C 1097.22 1.38635 -0.853478 0
M  V30 11882 O 1098.41 1.38027 -1.13185 0
M  V30 11883 C 1095.51 2.55716 -2.22402 0
M  V30 11884 C 1094.68 2.57325 -3.53698 0
M  V30 11885 C 1093.74 3.75253 -3.68879 0
M  V30 11886 O 1092.76 3.5966 -4.41173 0
M  V30 11887 N 1093.97 4.93112 -3.06302 0
M  V30 11888 H 1096.73 0.865504 -2.8693 0
M  V30 11889 H 1094.29 0.326346 -1.58577 0
M  V30 11890 H 1096.28 3.33135 -2.29789 0
M  V30 11891 H 1094.85 2.80819 -1.37329 0
M  V30 11892 H 1094.07 1.65749 -3.5766 0
M  V30 11893 H 1095.36 2.55441 -4.40031 0
M  V30 11894 H 1094.76 5.08684 -2.47502 0
M  V30 11895 H 1093.32 5.68271 -3.19236 0
M  V30 11896 N 1096.75 1.52266 0.40654 0
M  V30 11897 C 1098.17 1.41127 0.745348 0
M  V30 11898 C 1098.37 0.517802 1.94733 0
M  V30 11899 O 1097.42 -0.0154286 2.52495 0
M  V30 11900 C 1098.74 2.83696 0.996859 0
M  V30 11901 C 1100.28 2.93056 1.09942 0
M  V30 11902 C 1100.76 4.36599 1.38367 0
M  V30 11903 N 1102.25 4.39845 1.45226 0
M  V30 11904 C 1102.98 5.47975 1.68852 0
M  V30 11905 N 1102.48 6.66219 1.90065 0
M  V30 11906 N 1104.27 5.35494 1.70888 0
M  V30 11907 H 1096.42 2.08888 -0.384632 0
M  V30 11908 H 1098.69 0.941619 -0.109809 0
M  V30 11909 H 1098.39 3.51208 0.185986 0
M  V30 11910 H 1098.27 3.24895 1.91632 0
M  V30 11911 H 1100.65 2.25723 1.90088 0
M  V30 11912 H 1100.74 2.5531 0.158256 0
M  V30 11913 H 1100.38 5.04492 0.587373 0
M  V30 11914 H 1100.31 4.71883 2.33739 0
M  V30 11915 H 1102.8 3.54611 1.30612 0
M  V30 11916 H 1103.11 7.44408 2.0755 0
M  V30 11917 H 1101.46 6.69279 1.87325 0
M  V30 11918 H 1104.65 4.42093 1.53856 0
M  V30 11919 H 1104.82 6.19837 1.88962 0
M  V30 11920 N 1098.23 -0.663929 1.42933 0
M  V30 11921 C 1099.48 -1.42393 1.43981 0
M  V30 11922 C 1099.8 -1.94407 0.0601802 0
M  V30 11923 O 1099.06 -1.72019 -0.933172 0
M  V30 11924 C 1099.36 -2.62976 2.4203 0
M  V30 11925 C 1099.02 -2.29441 3.88159 0
M  V30 11926 C 1097.69 -2.20007 4.27961 0
M  V30 11927 C 1100.04 -2.02413 4.8029 0
M  V30 11928 C 1097.37 -1.81686 5.57859 0
M  V30 11929 C 1099.72 -1.65592 6.10542 0
M  V30 11930 C 1098.38 -1.54676 6.49332 0
M  V30 11931 H 1097.65 -0.521051 0.526865 0
M  V30 11932 H 1100.3 -0.756042 1.75944 0
M  V30 11933 H 1098.6 -3.34847 2.03433 0
M  V30 11934 H 1100.3 -3.21174 2.40101 0
M  V30 11935 H 1096.89 -2.3769 3.56653 0
M  V30 11936 H 1101.07 -2.08628 4.5032 0
M  V30 11937 H 1096.33 -1.71812 5.86763 0
M  V30 11938 H 1100.5 -1.43707 6.81411 0
M  V30 11939 H 1098.13 -1.24752 7.49894 0
M  V30 11940 N 1099.71 -1.29285 -0.901281 0
M  V30 11941 C 1101.12 -1.07263 -1.18182 0
M  V30 11942 C 1101.32 0.177087 -2.0072 0
M  V30 11943 O 1100.38 0.875292 -2.36844 0
M  V30 11944 C 1101.69 -2.32717 -1.9043 0
M  V30 11945 C 1103.24 -2.3802 -2.03262 0
M  V30 11946 C 1103.71 -3.63273 -2.7892 0
M  V30 11947 N 1105.21 -3.63986 -2.86475 0
M  V30 11948 C 1105.94 -4.57585 -3.45549 0
M  V30 11949 N 1105.44 -5.61513 -4.05801 0
M  V30 11950 N 1107.23 -4.45157 -3.43208 0
M  V30 11951 H 1099.38 -2.09487 -0.350536 0
M  V30 11952 H 1101.64 -0.922647 -0.217778 0
M  V30 11953 H 1101.35 -3.23828 -1.37216 0
M  V30 11954 H 1101.22 -2.40102 -2.90913 0
M  V30 11955 H 1103.61 -1.47398 -2.55652 0
M  V30 11956 H 1103.69 -2.3462 -1.01916 0
M  V30 11957 H 1103.34 -4.54246 -2.27206 0
M  V30 11958 H 1103.27 -3.6393 -3.80608 0
M  V30 11959 H 1105.76 -2.8884 -2.43679 0
M  V30 11960 H 1106.07 -6.29058 -4.48894 0
M  V30 11961 H 1104.41 -5.65325 -4.04268 0
M  V30 11962 H 1107.61 -3.63158 -2.95354 0
M  V30 11963 H 1107.78 -5.18286 -3.88952 0
M  V30 11964 N 1101.18 1.11143 -1.11736 0
M  V30 11965 C 1102.12 2.1705 -0.736325 0
M  V30 11966 C 1103.13 1.61116 0.233528 0
M  V30 11967 O 1104.32 1.78493 0.0159602 0
M  V30 11968 C 1101.42 3.38832 -0.067974 0
M  V30 11969 C 1100.59 4.24226 -1.06543 0
M  V30 11970 C 1099.65 5.24472 -0.426063 0
M  V30 11971 O 1098.68 5.58843 -1.0809 0
M  V30 11972 N 1099.88 5.74825 0.809711 0
M  V30 11973 H 1102.64 2.50349 -1.64758 0
M  V30 11974 H 1100.2 1.26693 -1.00799 0
M  V30 11975 H 1102.2 4.02991 0.371563 0
M  V30 11976 H 1100.77 3.0357 0.745917 0
M  V30 11977 H 1099.99 3.56475 -1.68283 0
M  V30 11978 H 1101.27 4.78117 -1.74016 0
M  V30 11979 H 1100.67 5.49088 1.36084 0
M  V30 11980 H 1099.23 6.40804 1.19218 0
M  V30 11981 N 1102.66 0.908147 1.28804 0
M  V30 11982 C 1103.59 0.34957 2.26519 0
M  V30 11983 C 1104.61 -0.508845 1.54643 0
M  V30 11984 O 1105.8 -0.324633 1.75523 0
M  V30 11985 C 1102.9 -0.519461 3.34895 0
M  V30 11986 C 1102.07 0.315157 4.36263 0
M  V30 11987 C 1101.13 -0.488059 5.23932 0
M  V30 11988 O 1100.15 0.0974133 5.69117 0
M  V30 11989 N 1101.36 -1.79233 5.52137 0
M  V30 11990 H 1104.12 1.18945 2.75086 0
M  V30 11991 H 1101.68 0.77351 1.42227 0
M  V30 11992 H 1103.67 -1.0634 3.90479 0
M  V30 11993 H 1102.24 -1.26004 2.8608 0
M  V30 11994 H 1101.46 1.04049 3.8022 0
M  V30 11995 H 1102.75 0.886438 5.01019 0
M  V30 11996 H 1102.15 -2.2906 5.1725 0
M  V30 11997 H 1100.71 -2.28322 6.10502 0
M  V30 11998 N 1104.14 -1.42577 0.671525 0
M  V30 11999 C 1105.09 -2.30798 -0.00883676 0
M  V30 12000 C 1106.06 -1.4578 -0.796076 0
M  V30 12001 O 1107.24 -1.74617 -0.768987 0
M  V30 12002 C 1104.38 -3.31581 -0.956452 0
M  V30 12003 C 1103.5 -4.31691 -0.163381 0
M  V30 12004 C 1102.63 -5.19549 -1.10645 0
M  V30 12005 C 1101.67 -6.1134 -0.304876 0
M  V30 12006 N 1100.81 -6.91761 -1.20048 0
M  V30 12007 H 1105.65 -2.88426 0.749301 0
M  V30 12008 H 1103.18 -1.42074 0.381251 0
M  V30 12009 H 1105.14 -3.88539 -1.51966 0
M  V30 12010 H 1103.77 -2.75561 -1.68126 0
M  V30 12011 H 1102.82 -3.76879 0.516396 0
M  V30 12012 H 1104.14 -4.96683 0.459099 0
M  V30 12013 H 1103.29 -5.81223 -1.73969 0
M  V30 12014 H 1102.03 -4.54726 -1.76282 0
M  V30 12015 H 1101.03 -5.48738 0.341597 0
M  V30 12016 H 1102.26 -6.78211 0.347352 0
M  V30 12017 H 1100.2 -6.2957 -1.84331 0
M  V30 12018 H 1100.12 -7.53345 -0.633003 0
M  V30 12019 H 1101.39 -7.57924 -1.82129 0
M  V30 12020 N 1105.62 -0.414636 -1.52048 0
M  V30 12021 C 1106.53 0.414861 -2.30903 0
M  V30 12022 C 1107.54 1.04855 -1.38858 0
M  V30 12023 O 1108.72 1.04886 -1.71933 0
M  V30 12024 C 1105.79 1.51356 -3.11917 0
M  V30 12025 C 1104.85 0.902359 -4.19709 0
M  V30 12026 C 1104.08 1.9487 -4.96852 0
M  V30 12027 O 1104.3 3.16766 -4.74358 0
M  V30 12028 O 1103.24 1.55186 -5.8155 0
M  V30 12029 H 1107.06 -0.228251 -3.02841 0
M  V30 12030 H 1104.65 -0.177704 -1.48339 0
M  V30 12031 H 1106.53 2.15127 -3.62351 0
M  V30 12032 H 1105.2 2.14117 -2.42767 0
M  V30 12033 H 1104.11 0.22721 -3.73409 0
M  V30 12034 H 1105.44 0.318587 -4.91168 0
M  V30 12035 N 1107.1 1.56929 -0.145233 0
M  V30 12036 C 1108.06 2.15483 0.781002 0
M  V30 12037 C 1109.06 1.09617 1.17647 0
M  V30 12038 O 1110.25 1.35265 1.09768 0
M  V30 12039 C 1107.38 2.7165 2.05959 0
M  V30 12040 H 1108.57 2.98667 0.271685 0
M  V30 12041 H 1106.13 1.55952 0.1042 0
M  V30 12042 H 1106.86 1.92127 2.61262 0
M  V30 12043 H 1106.65 3.491 1.78526 0
M  V30 12044 H 1108.14 3.16769 2.72116 0
M  V30 12045 N 1108.58 -0.128553 1.57075 0
M  V30 12046 C 1109.99 -0.481794 1.52154 0
M  V30 12047 C 1110.19 -1.82381 0.856694 0
M  V30 12048 O 1109.25 -2.48725 0.434989 0
M  V30 12049 C 1110.56 -0.475091 2.96923 0
M  V30 12050 C 1112.11 -0.559315 3.07962 0
M  V30 12051 C 1112.58 -0.583095 4.54273 0
M  V30 12052 N 1114.07 -0.644803 4.5869 0
M  V30 12053 C 1114.81 -0.684493 5.693 0
M  V30 12054 N 1114.31 -0.682407 6.89431 0
M  V30 12055 N 1116.1 -0.726777 5.57382 0
M  V30 12056 H 1108.25 0.750894 1.98684 0
M  V30 12057 H 1110.51 0.27593 0.906955 0
M  V30 12058 H 1110.22 0.443157 3.48897 0
M  V30 12059 H 1110.09 -1.30637 3.53856 0
M  V30 12060 H 1112.48 -1.46798 2.55997 0
M  V30 12061 H 1112.56 0.299468 2.54041 0
M  V30 12062 H 1112.2 0.32149 5.06881 0
M  V30 12063 H 1112.13 -1.45863 5.05996 0
M  V30 12064 H 1114.63 -0.652967 3.72216 0
M  V30 12065 H 1114.94 -0.715051 7.69485 0
M  V30 12066 H 1113.28 -0.649984 6.91954 0
M  V30 12067 H 1116.47 -0.725704 4.6244 0
M  V30 12068 H 1116.65 -0.754242 6.43596 0
M  V30 12069 N 1110.05 -1.5248 -0.398459 0
M  V30 12070 C 1110.98 -1.79549 -1.49279 0
M  V30 12071 C 1111.96 -0.647004 -1.57315 0
M  V30 12072 O 1113.15 -0.893661 -1.72416 0
M  V30 12073 C 1110.28 -1.95582 -2.86993 0
M  V30 12074 C 1109.23 -3.1123 -2.93803 0
M  V30 12075 C 1108.56 -3.12501 -4.33874 0
M  V30 12076 C 1109.86 -4.50485 -2.64312 0
M  V30 12077 H 1111.55 -2.71187 -1.26877 0
M  V30 12078 H 1109.1 -1.30492 -0.608924 0
M  V30 12079 H 1111.05 -2.13102 -3.63546 0
M  V30 12080 H 1109.78 -1.00625 -3.10712 0
M  V30 12081 H 1108.44 -2.93477 -2.19697 0
M  V30 12082 H 1108.08 -2.15245 -4.54619 0
M  V30 12083 H 1107.78 -3.90183 -4.39353 0
M  V30 12084 H 1109.31 -3.32164 -5.12347 0
M  V30 12085 H 1110.72 -4.68387 -3.30585 0
M  V30 12086 H 1109.12 -5.30163 -2.81153 0
M  V30 12087 H 1110.19 -4.57848 -1.59696 0
M  V30 12088 N 1111.53 0.65634 -1.43283 0
M  V30 12089 C 1112.49 1.75117 -1.47874 0
M  V30 12090 C 1113.49 1.56629 -0.363846 0
M  V30 12091 O 1114.68 1.62584 -0.625464 0
M  V30 12092 C 1111.82 3.13957 -1.32831 0
M  V30 12093 H 1113.01 1.72429 -2.45374 0
M  V30 12094 H 1110.56 0.867704 -1.30002 0
M  V30 12095 H 1111.3 3.22259 -0.36326 0
M  V30 12096 H 1111.08 3.28781 -2.13649 0
M  V30 12097 H 1112.57 3.93799 -1.38969 0
M  V30 12098 N 1113.01 1.29761 0.894412 0
M  V30 12099 C 1113.97 1.15335 1.98067 0
M  V30 12100 C 1114.97 0.0872804 1.60563 0
M  V30 12101 O 1116.16 0.334645 1.70955 0
M  V30 12102 C 1113.29 0.764907 3.32208 0
M  V30 12103 H 1114.49 2.11829 2.12293 0
M  V30 12104 H 1112.04 1.13023 1.0796 0
M  V30 12105 H 1112.78 -0.199948 3.23683 0
M  V30 12106 H 1112.56 1.53523 3.60795 0
M  V30 12107 H 1114.05 0.687176 4.11907 0
M  V30 12108 N 1114.49 -1.10549 1.12324 0
M  V30 12109 C 1115.4 -2.20428 0.803032 0
M  V30 12110 C 1116.41 -1.72756 -0.207674 0
M  V30 12111 O 1117.59 -2.01357 -0.0415623 0
M  V30 12112 C 1114.65 -3.45716 0.261032 0
M  V30 12113 C 1113.72 -4.08129 1.33152 0
M  V30 12114 C 1112.95 -5.27436 0.815288 0
M  V30 12115 O 1113.17 -5.69317 -0.351361 0
M  V30 12116 O 1112.11 -5.80674 1.58434 0
M  V30 12117 H 1115.93 -2.50249 1.72073 0
M  V30 12118 H 1113.52 -1.19263 0.899815 0
M  V30 12119 H 1115.4 -4.21384 -0.0364007 0
M  V30 12120 H 1114.07 -3.17525 -0.629249 0
M  V30 12121 H 1112.98 -3.3415 1.6821 0
M  V30 12122 H 1114.31 -4.4052 2.19552 0
M  V30 12123 N 1115.97 -0.914965 -1.28321 0
M  V30 12124 C 1117.38 -0.613297 -1.47346 0
M  V30 12125 C 1117.58 0.84106 -1.83108 0
M  V30 12126 O 1116.64 1.62004 -1.93678 0
M  V30 12127 C 1117.95 -1.55224 -2.57538 0
M  V30 12128 C 1119.5 -1.55909 -2.71407 0
M  V30 12129 C 1119.97 -2.48468 -3.84744 0
M  V30 12130 N 1121.46 -2.46602 -3.92099 0
M  V30 12131 C 1122.2 -3.14917 -4.79182 0
M  V30 12132 N 1121.7 -3.92566 -5.70845 0
M  V30 12133 N 1123.49 -3.03998 -4.72802 0
M  V30 12134 H 1115.64 -1.85539 -1.03388 0
M  V30 12135 H 1117.9 -0.795875 -0.515061 0
M  V30 12136 H 1117.61 -2.58917 -2.38023 0
M  V30 12137 H 1117.48 -1.28426 -3.54664 0
M  V30 12138 H 1119.87 -0.52953 -2.9031 0
M  V30 12139 H 1119.95 -1.86751 -1.74808 0
M  V30 12140 H 1119.59 -3.51526 -3.66595 0
M  V30 12141 H 1119.52 -2.14928 -4.80743 0
M  V30 12142 H 1122.02 -1.90199 -3.26547 0
M  V30 12143 H 1122.33 -4.41709 -6.34123 0
M  V30 12144 H 1120.67 -3.96671 -5.70681 0
M  V30 12145 H 1123.86 -2.42839 -4.00184 0
M  V30 12146 H 1124.04 -3.57511 -5.40454 0
M  V30 12147 N 1117.44 1.42219 -0.679077 0
M  V30 12148 C 1118.69 2.01081 -0.202718 0
M  V30 12149 C 1119.01 1.53986 1.19639 0
M  V30 12150 O 1118.28 0.763359 1.80415 0
M  V30 12151 H 1116.86 0.743526 -0.0719547 0
M  V30 12152 H 1119.52 1.74077 -0.876544 0
M  V30 12153 H 1118.62 3.11411 -0.207314 0
M  V30 12154 N 1118.92 0.422693 1.51826 0
M  V30 12155 C 1120.17 -0.148348 2.01555 0
M  V30 12156 C 1120.49 -1.44483 1.30956 0
M  V30 12157 O 1119.76 -1.90904 0.439599 0
M  V30 12158 H 1118.34 -0.0578116 0.74476 0
M  V30 12159 H 1121 0.562046 1.8662 0
M  V30 12160 H 1120.1 -0.334766 3.10299 0
M  V30 12161 N 1120.4 -1.5685 0.153553 0
M  V30 12162 C 1121.82 -1.58306 -0.202801 0
M  V30 12163 C 1122.02 -1.16813 -1.64186 0
M  V30 12164 O 1121.07 -0.871468 -2.36985 0
M  V30 12165 C 1122.38 -3.00636 0.0619012 0
M  V30 12166 C 1123.93 -3.13 -0.00129219 0
M  V30 12167 C 1124.41 -4.57391 0.236164 0
M  V30 12168 N 1125.9 -4.62837 0.18332 0
M  V30 12169 C 1126.63 -5.72382 0.341471 0
M  V30 12170 N 1126.13 -6.90552 0.557704 0
M  V30 12171 N 1127.92 -5.61409 0.278615 0
M  V30 12172 H 1120.07 -1.82113 1.09309 0
M  V30 12173 H 1122.34 -0.843228 0.433209 0
M  V30 12174 H 1122.04 -3.35406 1.0581 0
M  V30 12175 H 1121.92 -3.71477 -0.654555 0
M  V30 12176 H 1124.3 -2.78068 -0.98805 0
M  V30 12177 H 1124.38 -2.44632 0.747596 0
M  V30 12178 H 1124.03 -4.93029 1.22005 0
M  V30 12179 H 1123.96 -5.23894 -0.533125 0
M  V30 12180 H 1126.45 -3.77894 0.0211138 0
M  V30 12181 H 1126.76 -7.69905 0.66831 0
M  V30 12182 H 1125.11 -6.92456 0.594105 0
M  V30 12183 H 1128.3 -4.6797 0.110401 0
M  V30 12184 H 1128.47 -6.46731 0.4053 0
M  V30 12185 N 1121.88 0.120221 -1.57141 0
M  V30 12186 C 1123.15 0.858458 -1.75755 0
M  V30 12187 C 1123.53 1.98124 -0.728693 0
M  V30 12188 O 1122.88 2.27155 0.247573 0
M  V30 12189 C 1123.09 1.37627 -3.20718 0
M  V30 12190 C 1124.44 1.82909 -3.83183 0
M  V30 12191 O 1125.46 1.47309 -3.24312 0
M  V30 12192 O 1124.32 2.4865 -4.86657 0
M  V30 12193 H 1121.42 0.407583 -0.719587 0
M  V30 12194 H 1123.96 0.104057 -1.69381 0
M  V30 12195 H 1122.74 0.570651 -3.87117 0
M  V30 12196 H 1122.36 2.19341 -3.31625 0
M  V30 12197 N 1123.36 1.52689 0.390367 0
M  V30 12198 C 1124.29 1.80338 1.48325 0
M  V30 12199 C 1125.27 0.655338 1.56969 0
M  V30 12200 O 1126.45 0.902792 1.7194 0
M  V30 12201 C 1123.58 1.97101 2.85952 0
M  V30 12202 C 1122.54 3.12783 2.92148 0
M  V30 12203 C 1121.86 3.14798 4.32211 0
M  V30 12204 C 1123.16 4.5188 2.61919 0
M  V30 12205 H 1124.86 2.71857 1.25437 0
M  V30 12206 H 1122.4 1.30813 0.601995 0
M  V30 12207 H 1124.36 2.15027 3.62411 0
M  V30 12208 H 1123.08 1.02271 3.10174 0
M  V30 12209 H 1121.74 2.94638 2.18137 0
M  V30 12210 H 1121.39 2.17653 4.53471 0
M  V30 12211 H 1121.09 3.92507 4.37278 0
M  V30 12212 H 1122.61 3.34877 5.10578 0
M  V30 12213 H 1124.02 4.70134 3.28096 0
M  V30 12214 H 1122.42 5.31647 2.78337 0
M  V30 12215 H 1123.49 4.58689 1.57266 0
M  V30 12216 N 1124.83 -0.648732 1.43629 0
M  V30 12217 C 1126.11 -1.4062 1.35961 0
M  V30 12218 C 1126.49 -2.11098 0.00961023 0
M  V30 12219 O 1125.84 -2.05107 -1.00714 0
M  V30 12220 C 1126.05 -2.38719 2.54586 0
M  V30 12221 C 1127.4 -3.02584 2.97873 0
M  V30 12222 O 1128.42 -2.49046 2.54665 0
M  V30 12223 O 1127.28 -3.99662 3.72736 0
M  V30 12224 H 1124.37 -0.628483 0.53753 0
M  V30 12225 H 1126.92 -0.675263 1.55687 0
M  V30 12226 H 1125.69 -1.85619 3.44472 0
M  V30 12227 H 1125.32 -3.19257 2.36983 0
M  V30 12228 N 1126.31 -1.30234 -0.887518 0
M  V30 12229 C 1127.59 -1.09572 -1.62029 0
M  V30 12230 C 1127.97 0.355877 -2.08079 0
M  V30 12231 O 1127.32 1.34692 -1.84582 0
M  V30 12232 C 1127.53 -2.0943 -2.79177 0
M  V30 12233 C 1128.88 -2.4101 -3.4957 0
M  V30 12234 O 1129.9 -2.0772 -2.89363 0
M  V30 12235 O 1128.76 -2.97943 -4.5814 0
M  V30 12236 H 1125.85 -0.420648 -0.712028 0
M  V30 12237 H 1128.4 -1.41651 -0.934517 0
M  V30 12238 H 1127.17 -3.07149 -2.42436 0
M  V30 12239 H 1126.79 -1.78154 -3.55453 0
M  V30 12240 N 1127.79 1.09952 -1.12909 0
M  V30 12241 C 1128.72 2.18477 -0.824014 0
M  V30 12242 C 1129.7 1.68744 0.214324 0
M  V30 12243 O 1130.89 1.94057 0.0744281 0
M  V30 12244 C 1128.02 3.46143 -0.283308 0
M  V30 12245 C 1126.97 4.09178 -1.25528 0
M  V30 12246 C 1126.3 5.31604 -0.574574 0
M  V30 12247 C 1127.6 4.52308 -2.6118 0
M  V30 12248 H 1129.29 2.44254 -1.73148 0
M  V30 12249 H 1126.84 1.17394 -0.833952 0
M  V30 12250 H 1128.79 4.21361 -0.057583 0
M  V30 12251 H 1127.51 3.19872 0.659525 0
M  V30 12252 H 1126.17 3.35973 -1.4669 0
M  V30 12253 H 1125.82 5.01611 0.37356 0
M  V30 12254 H 1125.52 5.74732 -1.22299 0
M  V30 12255 H 1127.04 6.0955 -0.358004 0
M  V30 12256 H 1128.46 5.18776 -2.44017 0
M  V30 12257 H 1126.86 5.06302 -3.22147 0
M  V30 12258 H 1127.93 3.64977 -3.19249 0
M  V30 12259 N 1129.27 0.921757 1.27833 0
M  V30 12260 C 1130.55 0.477706 1.89677 0
M  V30 12261 C 1130.93 -1.04392 1.83481 0
M  V30 12262 O 1130.27 -1.89549 1.27606 0
M  V30 12263 C 1130.48 1.01709 3.33851 0
M  V30 12264 C 1131.83 1.074 4.10792 0
M  V30 12265 O 1132.86 0.966295 3.42843 0
M  V30 12266 O 1131.71 1.23909 5.32268 0
M  V30 12267 H 1128.81 0.15271 0.812778 0
M  V30 12268 H 1131.35 1.01306 1.36144 0
M  V30 12269 H 1130.13 2.061 3.32623 0
M  V30 12270 H 1129.75 0.463031 3.94895 0
M  V30 12271 N 1130.75 -1.41857 0.686609 0
M  V30 12272 C 1131.99 -2.01666 0.214118 0
M  V30 12273 C 1132.33 -1.5422 -1.18025 0
M  V30 12274 O 1131.6 -0.749482 -1.7948 0
M  V30 12275 C 1131.88 -3.59147 0.261841 0
M  V30 12276 C 1131.74 -4.16742 1.69251 0
M  V30 12277 C 1133.06 -4.38427 -0.383378 0
M  V30 12278 H 1130.17 -0.732724 0.0792785 0
M  V30 12279 H 1132.82 -1.68724 0.873633 0
M  V30 12280 H 1130.97 -3.87342 -0.29971 0
M  V30 12281 H 1132.64 -3.99456 2.30722 0
M  V30 12282 H 1130.88 -3.72124 2.2295 0
M  V30 12283 H 1131.55 -5.25894 1.6775 0
M  V30 12284 H 1134.03 -4.15992 0.0947701 0
M  V30 12285 H 1132.9 -5.4797 -0.319401 0
M  V30 12286 H 1133.17 -4.172 -1.46276 0
M  V30 12287 N 1132.22 -0.430739 -1.51599 0
M  V30 12288 C 1133.13 0.390347 -2.3133 0
M  V30 12289 C 1134.15 1.03376 -1.39962 0
M  V30 12290 O 1135.33 1.03057 -1.73035 0
M  V30 12291 C 1132.39 1.48039 -3.13505 0
M  V30 12292 C 1131.45 0.857792 -4.20643 0
M  V30 12293 C 1130.69 1.89589 -4.9889 0
M  V30 12294 O 1130.91 3.11717 -4.77691 0
M  V30 12295 O 1129.84 1.49009 -5.83164 0
M  V30 12296 H 1133.67 -0.260358 -3.02582 0
M  V30 12297 H 1131.25 -0.193428 -1.48143 0
M  V30 12298 H 1133.14 2.11272 -3.64612 0
M  V30 12299 H 1131.81 2.1153 -2.45024 0
M  V30 12300 H 1130.72 0.187592 -3.73629 0
M  V30 12301 H 1132.05 0.266474 -4.91478 0
M  V30 12302 N 1133.7 1.56767 -0.161869 0
M  V30 12303 C 1134.65 2.17502 0.772102 0
M  V30 12304 C 1135.62 1.11223 1.23364 0
M  V30 12305 O 1136.8 1.39332 1.30351 0
M  V30 12306 C 1133.94 2.81248 1.99984 0
M  V30 12307 C 1133.06 4.01962 1.58274 0
M  V30 12308 C 1132.19 4.53662 2.76341 0
M  V30 12309 C 1131.23 5.66807 2.31076 0
M  V30 12310 N 1130.37 6.13059 3.42203 0
M  V30 12311 H 1135.21 2.96971 0.247382 0
M  V30 12312 H 1132.75 1.46685 0.110382 0
M  V30 12313 H 1134.7 3.16359 2.7198 0
M  V30 12314 H 1133.33 2.04398 2.49842 0
M  V30 12315 H 1132.39 3.72733 0.759874 0
M  V30 12316 H 1133.7 4.83891 1.2104 0
M  V30 12317 H 1132.85 4.90905 3.56507 0
M  V30 12318 H 1131.59 3.7077 3.16829 0
M  V30 12319 H 1130.6 5.29125 1.49354 0
M  V30 12320 H 1131.82 6.51494 1.91657 0
M  V30 12321 H 1129.77 5.33099 3.82285 0
M  V30 12322 H 1129.68 6.89953 3.09033 0
M  V30 12323 H 1130.95 6.54951 4.22682 0
M  V30 12324 N 1135.18 -0.111886 1.57202 0
M  V30 12325 C 1136.43 -0.816794 1.84859 0
M  V30 12326 C 1136.75 -1.80079 0.748113 0
M  V30 12327 O 1136.02 -1.94578 -0.227235 0
M  V30 12328 H 1134.6 -0.304633 0.682061 0
M  V30 12329 H 1137.26 -0.097513 1.94656 0
M  V30 12330 H 1136.36 -1.35768 2.81022 0
M  V30 12331 N 1136.66 -1.52894 -0.382264 0
M  V30 12332 C 1137.61 -1.78799 -1.48774 0
M  V30 12333 C 1138.6 -0.65624 -1.56173 0
M  V30 12334 O 1139.81 -0.838856 -1.59258 0
M  V30 12335 H 1136.18 -0.565855 -0.49529 0
M  V30 12336 H 1138.15 -2.7136 -1.24122 0
M  V30 12337 C 1136.9 -1.97987 -2.85826 0
M  V30 12338 H 1136.22 -2.84505 -2.80886 0
M  V30 12339 H 1137.66 -2.20099 -3.62398 0
M  V30 12340 C 1136.12 -0.75427 -3.28348 0
M  V30 12341 O 1136.65 0.0650749 -4.01647 0
M  V30 12342 N 1134.86 -0.582457 -2.84703 0
M  V30 12343 H 1134.41 -1.25034 -2.2522 0
M  V30 12344 H 1134.36 0.236208 -3.13511 0
M  V30 12345 N 1138.14 0.641106 -1.43971 0
M  V30 12346 C 1139.38 1.40291 -1.46445 0
M  V30 12347 C 1139.72 1.93978 -0.0929004 0
M  V30 12348 O 1138.99 1.73043 0.888043 0
M  V30 12349 C 1139.27 2.57551 -2.51673 0
M  V30 12350 C 1139.13 2.09279 -3.98149 0
M  V30 12351 C 1140.45 3.59752 -2.53508 0
M  V30 12352 H 1137.57 0.508771 -0.533218 0
M  V30 12353 H 1140.21 0.725767 -1.75592 0
M  V30 12354 H 1138.36 3.15319 -2.2695 0
M  V30 12355 H 1140.03 1.56418 -4.33971 0
M  V30 12356 H 1138.27 1.40545 -4.10402 0
M  V30 12357 H 1138.94 2.93655 -4.67409 0
M  V30 12358 H 1141.42 3.11766 -2.75574 0
M  V30 12359 H 1140.3 4.39332 -3.29057 0
M  V30 12360 H 1140.56 4.13156 -1.57335 0
M  V30 12361 N 1139.62 1.30703 0.880598 0
M  V30 12362 C 1140.55 1.20033 2.00286 0
M  V30 12363 C 1141.53 0.0899614 1.69862 0
M  V30 12364 O 1142.71 0.272747 1.92275 0
M  V30 12365 C 1139.84 0.895902 3.35546 0
M  V30 12366 C 1138.8 1.96468 3.80242 0
M  V30 12367 C 1138.12 1.51316 5.12843 0
M  V30 12368 C 1139.42 3.37637 3.98496 0
M  V30 12369 H 1141.12 2.13922 2.0947 0
M  V30 12370 H 1138.66 1.02989 1.00644 0
M  V30 12371 H 1140.61 0.807899 4.13583 0
M  V30 12372 H 1139.34 -0.0786636 3.26505 0
M  V30 12373 H 1138 2.0424 3.04437 0
M  V30 12374 H 1137.65 0.52674 5.00234 0
M  V30 12375 H 1137.35 2.22807 5.43719 0
M  V30 12376 H 1138.87 1.43903 5.93401 0
M  V30 12377 H 1140.28 3.326 4.66959 0
M  V30 12378 H 1138.68 4.07253 4.40755 0
M  V30 12379 H 1139.75 3.79205 3.02211 0
M  V30 12380 N 1141.09 -1.09351 1.1349 0
M  V30 12381 C 1142.32 -1.85304 0.920324 0
M  V30 12382 C 1142.74 -1.81182 -0.530883 0
M  V30 12383 O 1142.09 -1.20853 -1.36751 0
M  V30 12384 C 1142.14 -3.33249 1.40098 0
M  V30 12385 O 1141.87 -3.37333 2.79531 0
M  V30 12386 C 1143.37 -4.2604 1.22495 0
M  V30 12387 H 1140.59 -0.585294 0.328134 0
M  V30 12388 H 1143.13 -1.38168 1.50765 0
M  V30 12389 H 1141.29 -3.7781 0.85664 0
M  V30 12390 H 1141.7 -4.29614 3.00885 0
M  V30 12391 H 1143.17 -5.27999 1.61 0
M  V30 12392 H 1143.65 -4.38883 0.166717 0
M  V30 12393 H 1144.26 -3.87295 1.75735 0
M  V30 12394 N 1142.57 -0.928524 -1.27343 0
M  V30 12395 C 1143.48 -0.433901 -2.30553 0
M  V30 12396 C 1144.5 0.485832 -1.6708 0
M  V30 12397 O 1145.67 0.36844 -1.98001 0
M  V30 12398 C 1142.74 0.304617 -3.45359 0
M  V30 12399 C 1141.8 -0.650131 -4.24349 0
M  V30 12400 C 1141.03 0.0532372 -5.33673 0
M  V30 12401 O 1141.26 1.27246 -5.56026 0
M  V30 12402 O 1140.19 -0.619009 -5.98709 0
M  V30 12403 H 1144.02 -1.2909 -2.74899 0
M  V30 12404 H 1141.6 -0.693903 -1.32308 0
M  V30 12405 H 1143.48 0.721137 -4.15184 0
M  V30 12406 H 1142.16 1.13721 -3.03066 0
M  V30 12407 H 1141.06 -1.11635 -3.57055 0
M  V30 12408 H 1142.4 -1.44996 -4.70358 0
M  V30 12409 N 1144.05 1.41491 -0.694123 0
M  V30 12410 C 1145 2.28 -0.00474478 0
M  V30 12411 C 1145.98 1.42125 0.754281 0
M  V30 12412 O 1147.18 1.65408 0.630012 0
M  V30 12413 C 1144.3 3.30408 0.931953 0
M  V30 12414 C 1143.39 4.23762 0.169251 0
M  V30 12415 N 1143.78 4.9884 -0.836181 0
M  V30 12416 C 1142.08 4.44158 0.40494 0
M  V30 12417 C 1142.78 5.67157 -1.2926 0
M  V30 12418 N 1141.76 5.40066 -0.6188 0
M  V30 12419 H 1145.56 2.8348 -0.775652 0
M  V30 12420 H 1143.07 1.53686 -0.524834 0
M  V30 12421 H 1145.07 3.91206 1.44097 0
M  V30 12422 H 1143.73 2.76489 1.70247 0
M  V30 12423 H 1144.74 5.03413 -1.21637 0
M  V30 12424 H 1141.42 4.0125 1.15346 0
M  V30 12425 H 1142.81 6.3735 -2.12684 0
M  V30 12426 N 1145.53 0.438773 1.51369 0
M  V30 12427 C 1146.49 -0.36032 2.2635 0
M  V30 12428 C 1147.49 -0.948465 1.29849 0
M  V30 12429 O 1148.68 -0.822692 1.53549 0
M  V30 12430 C 1145.81 -1.50994 3.05636 0
M  V30 12431 H 1147.01 0.296826 2.98427 0
M  V30 12432 H 1144.56 0.191978 1.55117 0
M  V30 12433 H 1145.29 -2.2031 2.37979 0
M  V30 12434 H 1145.08 -1.09437 3.76518 0
M  V30 12435 H 1146.57 -2.07447 3.6243 0
M  V30 12436 N 1147.01 -1.56678 0.170181 0
M  V30 12437 C 1148.23 -2.0166 -0.484543 0
M  V30 12438 C 1148.66 -1.04962 -1.56091 0
M  V30 12439 O 1148.01 -0.0289887 -1.81277 0
M  V30 12440 C 1148.06 -3.45252 -1.04084 0
M  V30 12441 O 1147.17 -3.51623 -2.15488 0
M  V30 12442 H 1146.51 -0.653765 -0.116135 0
M  V30 12443 H 1149.04 -2.02761 0.273737 0
M  V30 12444 H 1149.05 -3.84534 -1.36373 0
M  V30 12445 H 1147.72 -4.15131 -0.252738 0
M  V30 12446 H 1146.3 -3.242 -1.84252 0
M  V30 12447 N 1148.48 0.103547 -1.57259 0
M  V30 12448 C 1149.45 1.11039 -2.00507 0
M  V30 12449 C 1150.45 1.33432 -0.897361 0
M  V30 12450 O 1151.64 1.29688 -1.16304 0
M  V30 12451 C 1148.77 2.46144 -2.35851 0
M  V30 12452 H 1149.96 0.738332 -2.90669 0
M  V30 12453 H 1147.51 0.348334 -1.52369 0
M  V30 12454 H 1148.25 2.88242 -1.48617 0
M  V30 12455 H 1148.03 2.31241 -3.16654 0
M  V30 12456 H 1149.52 3.18577 -2.69997 0
M  V30 12457 N 1149.96 1.53094 0.37415 0
M  V30 12458 C 1150.91 1.79585 1.47824 0
M  V30 12459 C 1151.9 0.664513 1.55822 0
M  V30 12460 O 1153.11 0.84729 1.58811 0
M  V30 12461 H 1149.48 0.568474 0.492282 0
M  V30 12462 H 1151.46 2.72014 1.22681 0
M  V30 12463 C 1150.2 1.995 2.84772 0
M  V30 12464 H 1149.53 2.85991 2.79373 0
M  V30 12465 H 1150.97 2.22018 3.61226 0
M  V30 12466 C 1149.43 0.771673 3.27943 0
M  V30 12467 O 1149.96 -0.0437737 4.01676 0
M  V30 12468 N 1148.16 0.597547 2.8439 0
M  V30 12469 H 1147.71 1.26227 2.24554 0
M  V30 12470 H 1147.67 -0.219578 3.13632 0
M  V30 12471 N 1151.44 -0.633461 1.44309 0
M  V30 12472 C 1152.39 -1.73919 1.47432 0
M  V30 12473 C 1153.37 -1.57258 0.340381 0
M  V30 12474 O 1154.57 -1.67035 0.585529 0
M  V30 12475 C 1151.69 -3.12595 1.41912 0
M  V30 12476 C 1150.78 -3.34734 2.60411 0
M  V30 12477 N 1151.17 -3.2725 3.85669 0
M  V30 12478 C 1149.47 -3.65522 2.55557 0
M  V30 12479 C 1150.17 -3.50013 4.64613 0
M  V30 12480 N 1149.15 -3.72775 3.95651 0
M  V30 12481 H 1152.95 -1.66588 2.42128 0
M  V30 12482 H 1150.46 -0.835844 1.39239 0
M  V30 12483 H 1152.46 -3.91887 1.42233 0
M  V30 12484 H 1151.12 -3.21095 0.482525 0
M  V30 12485 H 1152.13 -3.06221 4.17671 0
M  V30 12486 H 1148.81 -3.81017 1.70682 0
M  V30 12487 H 1150.2 -3.49839 5.73639 0
M  V30 12488 N 1152.92 -1.31168 -0.873655 0
M  V30 12489 C 1154.14 -1.23728 -1.66452 0
M  V30 12490 C 1154.57 0.194869 -1.87088 0
M  V30 12491 O 1153.93 1.1397 -1.40998 0
M  V30 12492 C 1153.97 -1.98285 -3.0119 0
M  V30 12493 O 1153.08 -1.31767 -3.90783 0
M  V30 12494 H 1152.42 -0.427362 -0.508191 0
M  V30 12495 H 1154.95 -1.73176 -1.08955 0
M  V30 12496 H 1154.96 -2.0774 -3.51153 0
M  V30 12497 H 1153.63 -3.02437 -2.8549 0
M  V30 12498 H 1152.21 -1.3074 -3.4923 0
M  V30 12499 N 1154.4 1.08748 -1.14068 0
M  V30 12500 C 1155.33 2.17591 -0.84714 0
M  V30 12501 C 1156.31 1.68962 0.196415 0
M  V30 12502 O 1157.49 1.94125 0.0538415 0
M  V30 12503 C 1154.62 3.45823 -0.320005 0
M  V30 12504 C 1153.58 4.07824 -1.2986 0
M  V30 12505 C 1152.9 5.30965 -0.630925 0
M  V30 12506 C 1154.2 4.49512 -2.65963 0
M  V30 12507 H 1155.9 2.42404 -1.75729 0
M  V30 12508 H 1153.44 1.16502 -0.846356 0
M  V30 12509 H 1155.4 4.21276 -0.102271 0
M  V30 12510 H 1154.12 3.20553 0.625561 0
M  V30 12511 H 1152.78 3.34398 -1.50245 0
M  V30 12512 H 1152.43 5.01979 0.320337 0
M  V30 12513 H 1152.13 5.73402 -1.28388 0
M  V30 12514 H 1153.65 6.09136 -0.422635 0
M  V30 12515 H 1155.06 5.16159 -2.49506 0
M  V30 12516 H 1153.46 5.02857 -3.27498 0
M  V30 12517 H 1154.53 3.6157 -3.23102 0
M  V30 12518 N 1155.87 0.935264 1.26849 0
M  V30 12519 C 1157.12 0.580548 1.94313 0
M  V30 12520 C 1157.45 -0.877205 1.73259 0
M  V30 12521 O 1156.73 -1.62679 1.06611 0
M  V30 12522 C 1157.01 0.916445 3.48243 0
M  V30 12523 C 1156.86 2.42851 3.78607 0
M  V30 12524 C 1158.18 0.427665 4.38017 0
M  V30 12525 H 1155.3 0.21239 0.705733 0
M  V30 12526 H 1157.94 1.16841 1.49827 0
M  V30 12527 H 1156.09 0.416169 3.86265 0
M  V30 12528 H 1157.77 3.00106 3.50335 0
M  V30 12529 H 1156.01 2.8745 3.24892 0
M  V30 12530 H 1156.68 2.61405 4.8618 0
M  V30 12531 H 1159.16 0.856525 4.07189 0
M  V30 12532 H 1158.03 0.691571 5.44526 0
M  V30 12533 H 1158.29 -0.672344 4.36958 0
M  V30 12534 N 1157.35 -1.41121 0.701616 0
M  V30 12535 C 1158.3 -2.30765 0.040121 0
M  V30 12536 C 1159.27 -1.47436 -0.764975 0
M  V30 12537 O 1160.45 -1.76209 -0.731775 0
M  V30 12538 C 1157.59 -3.33535 -0.885903 0
M  V30 12539 C 1156.71 -4.3194 -0.0717765 0
M  V30 12540 C 1155.84 -5.21779 -0.995996 0
M  V30 12541 C 1154.88 -6.11849 -0.175133 0
M  V30 12542 N 1154.02 -6.94151 -1.05348 0
M  V30 12543 H 1158.86 -2.86772 0.810312 0
M  V30 12544 H 1156.4 -1.41233 0.411301 0
M  V30 12545 H 1158.35 -3.91675 -1.4369 0
M  V30 12546 H 1156.98 -2.79065 -1.62243 0
M  V30 12547 H 1156.04 -3.75698 0.596221 0
M  V30 12548 H 1157.35 -4.95597 0.56435 0
M  V30 12549 H 1156.5 -5.84782 -1.61601 0
M  V30 12550 H 1155.24 -4.58363 -1.66597 0
M  V30 12551 H 1154.25 -5.4789 0.457916 0
M  V30 12552 H 1155.47 -6.77322 0.491133 0
M  V30 12553 H 1153.42 -6.33338 -1.70936 0
M  V30 12554 H 1153.33 -7.54518 -0.473065 0
M  V30 12555 H 1154.6 -7.61617 -1.66012 0
M  V30 12556 N 1158.83 -0.446794 -1.51134 0
M  V30 12557 C 1159.79 0.348311 -2.26538 0
M  V30 12558 C 1160.79 0.941566 -1.3035 0
M  V30 12559 O 1161.98 0.814537 -1.53984 0
M  V30 12560 C 1159.12 1.49371 -3.06433 0
M  V30 12561 H 1160.31 -0.312648 -2.98266 0
M  V30 12562 H 1157.86 -0.200201 -1.55013 0
M  V30 12563 H 1158.6 2.19045 -2.39144 0
M  V30 12564 H 1158.38 1.07439 -3.77093 0
M  V30 12565 H 1159.87 2.05522 -3.63525 0
M  V30 12566 N 1160.31 1.56586 -0.178487 0
M  V30 12567 C 1161.53 2.01915 0.473841 0
M  V30 12568 C 1161.96 1.05789 1.55533 0
M  V30 12569 O 1161.32 0.0386018 1.81259 0
M  V30 12570 C 1161.36 3.45799 1.02251 0
M  V30 12571 O 1160.47 3.52761 2.1362 0
M  V30 12572 H 1159.81 0.654372 0.112666 0
M  V30 12573 H 1162.34 2.02613 -0.284486 0
M  V30 12574 H 1162.35 3.85252 1.34332 0
M  V30 12575 H 1161.02 4.1526 0.230719 0
M  V30 12576 H 1159.6 3.25172 1.8253 0
M  V30 12577 N 1161.79 -0.095206 1.57312 0
M  V30 12578 C 1163.03 -0.799903 1.86358 0
M  V30 12579 C 1163.37 -1.78386 0.767593 0
M  V30 12580 O 1162.64 -1.93201 -0.224439 0
M  V30 12581 C 1162.92 -1.52875 3.26039 0
M  V30 12582 C 1162.78 -0.562781 4.46265 0
M  V30 12583 C 1164.1 -2.47935 3.63616 0
M  V30 12584 H 1161.21 -0.289339 0.677829 0
M  V30 12585 H 1163.86 -0.0635369 1.89894 0
M  V30 12586 H 1162.01 -2.15645 3.23156 0
M  V30 12587 H 1163.68 0.0579068 4.61264 0
M  V30 12588 H 1161.92 0.123847 4.33623 0
M  V30 12589 H 1162.59 -1.10989 5.40727 0
M  V30 12590 H 1165.07 -1.95257 3.67442 0
M  V30 12591 H 1163.94 -2.95948 4.62283 0
M  V30 12592 H 1164.21 -3.31687 2.92294 0
M  V30 12593 N 1163.26 -1.53291 -0.366026 0
M  V30 12594 C 1164.51 -1.69702 -1.11036 0
M  V30 12595 C 1164.84 -0.44728 -1.88979 0
M  V30 12596 O 1164.12 0.55542 -1.86401 0
M  V30 12597 C 1164.4 -2.94661 -2.06995 0
M  V30 12598 C 1164.25 -4.29791 -1.32663 0
M  V30 12599 C 1165.57 -3.15219 -3.07123 0
M  V30 12600 H 1162.69 -0.617525 -0.402284 0
M  V30 12601 H 1165.33 -1.85929 -0.391223 0
M  V30 12602 H 1163.48 -2.80958 -2.68318 0
M  V30 12603 H 1165.16 -4.55305 -0.741266 0
M  V30 12604 H 1163.4 -4.29223 -0.628484 0
M  V30 12605 H 1164.07 -5.13359 -2.02896 0
M  V30 12606 H 1166.55 -3.28105 -2.55903 0
M  V30 12607 H 1165.42 -4.04088 -3.71489 0
M  V30 12608 H 1165.68 -2.30479 -3.77269 0
M  V30 12609 N 1164.74 0.6258 -1.44643 0
M  V30 12610 C 1165.97 1.41233 -1.51198 0
M  V30 12611 C 1166.39 1.88291 -0.138572 0
M  V30 12612 O 1165.74 1.61151 0.856537 0
M  V30 12613 C 1165.79 2.62908 -2.48117 0
M  V30 12614 O 1165.51 2.1781 -3.80119 0
M  V30 12615 C 1167.02 3.55976 -2.6419 0
M  V30 12616 H 1164.24 0.432954 -0.512632 0
M  V30 12617 H 1166.78 0.76486 -1.89658 0
M  V30 12618 H 1164.93 3.23735 -2.12778 0
M  V30 12619 H 1165.35 2.96732 -4.32493 0
M  V30 12620 H 1166.82 4.37943 -3.3602 0
M  V30 12621 H 1167.3 4.05133 -1.696 0
M  V30 12622 H 1167.91 3.01014 -3.00451 0
M  V30 12623 N 1166.22 1.31629 0.866686 0
M  V30 12624 C 1167.47 1.21683 1.62238 0
M  V30 12625 C 1167.8 -0.223767 1.92907 0
M  V30 12626 O 1167.07 -1.15761 1.563 0
M  V30 12627 C 1167.36 2.06443 2.95048 0
M  V30 12628 C 1167.21 3.58818 2.71237 0
M  V30 12629 C 1168.53 1.91634 3.96187 0
M  V30 12630 H 1165.65 0.443389 0.588707 0
M  V30 12631 H 1168.29 1.61453 1.00164 0
M  V30 12632 H 1166.44 1.72654 3.48027 0
M  V30 12633 H 1168.11 4.0276 2.24905 0
M  V30 12634 H 1166.36 3.82085 2.05411 0
M  V30 12635 H 1167.03 4.13436 3.65752 0
M  V30 12636 H 1169.5 2.21209 3.52428 0
M  V30 12637 H 1168.38 2.53236 4.86993 0
M  V30 12638 H 1168.64 0.880564 4.33242 0
M  V30 12639 N 1167.7 -1.08142 1.14644 0
M  V30 12640 C 1169.12 -1.32656 0.887388 0
M  V30 12641 C 1169.32 -1.95942 -0.470012 0
M  V30 12642 O 1168.37 -2.21417 -1.21371 0
M  V30 12643 C 1169.68 -2.22549 2.02219 0
M  V30 12644 C 1171.23 -2.36021 2.0558 0
M  V30 12645 C 1171.71 -3.29257 3.18361 0
M  V30 12646 N 1173.2 -3.36835 3.17957 0
M  V30 12647 C 1173.93 -4.09017 4.01862 0
M  V30 12648 N 1173.43 -4.83882 4.95812 0
M  V30 12649 N 1175.22 -4.04875 3.89913 0
M  V30 12650 H 1167.37 -0.654457 2.02066 0
M  V30 12651 H 1169.64 -0.350947 0.880648 0
M  V30 12652 H 1169.34 -1.83296 3.00159 0
M  V30 12653 H 1169.22 -3.23027 1.94765 0
M  V30 12654 H 1171.6 -2.74531 1.08245 0
M  V30 12655 H 1171.68 -1.35275 2.17105 0
M  V30 12656 H 1171.33 -2.91468 4.15944 0
M  V30 12657 H 1171.26 -4.29938 3.04074 0
M  V30 12658 H 1173.75 -2.83465 2.49912 0
M  V30 12659 H 1174.06 -5.3643 5.56294 0
M  V30 12660 H 1172.41 -4.82926 4.99808 0
M  V30 12661 H 1175.6 -3.45496 3.15833 0
M  V30 12662 H 1175.77 -4.60866 4.55529 0
M  V30 12663 N 1169.18 -0.941978 -1.26351 0
M  V30 12664 C 1170.09 -0.45833 -2.30079 0
M  V30 12665 C 1171.1 0.468084 -1.67586 0
M  V30 12666 O 1172.28 0.347418 -1.98381 0
M  V30 12667 C 1169.34 0.26797 -3.45663 0
M  V30 12668 C 1168.41 -0.695102 -4.23635 0
M  V30 12669 C 1167.64 -0.003369 -5.337 0
M  V30 12670 O 1167.86 1.21342 -5.57344 0
M  V30 12671 O 1166.8 -0.682476 -5.98018 0
M  V30 12672 H 1170.62 -1.31998 -2.73514 0
M  V30 12673 H 1168.21 -0.707897 -1.31564 0
M  V30 12674 H 1170.09 0.677061 -4.15925 0
M  V30 12675 H 1168.76 1.105 -3.04256 0
M  V30 12676 H 1167.67 -1.15415 -3.55851 0
M  V30 12677 H 1169 -1.49977 -4.68794 0
M  V30 12678 N 1170.66 1.40747 -0.709091 0
M  V30 12679 C 1171.88 2.05841 -0.253816 0
M  V30 12680 C 1172.31 1.53056 1.09341 0
M  V30 12681 O 1171.66 0.663181 1.68735 0
M  V30 12682 C 1171.71 3.59822 -0.236699 0
M  V30 12683 O 1170.82 4.04876 0.784168 0
M  V30 12684 H 1170.16 0.65295 -0.120631 0
M  V30 12685 H 1172.69 1.80266 -0.967749 0
M  V30 12686 H 1172.7 4.07936 -0.0721616 0
M  V30 12687 H 1171.37 3.97608 -1.21988 0
M  V30 12688 H 1169.95 3.68237 0.587884 0
M  V30 12689 N 1172.13 0.454803 1.50895 0
M  V30 12690 C 1173.54 -0.00421212 1.867 0
M  V30 12691 C 1173.9 -1.4037 1.3708 0
M  V30 12692 O 1173.02 -2.03755 0.728884 0
M  V30 12693 C 1173.62 -0.0144196 3.38797 0
M  V30 12694 C 1172.17 -0.417905 3.74073 0
M  V30 12695 C 1171.32 0.37801 2.74711 0
M  V30 12696 H 1174.27 0.669849 1.4387 0
M  V30 12697 H 1174.29 -0.820172 3.71555 0
M  V30 12698 H 1173.81 1.00427 3.74881 0
M  V30 12699 H 1171.91 -1.44155 3.43584 0
M  V30 12700 H 1172.02 -0.130568 4.78922 0
M  V30 12701 H 1170.38 -0.166089 2.54158 0
M  V30 12702 H 1171.17 1.3959 3.13639 0
M  V30 12703 N 1173.61 -1.56489 0.186789 0
M  V30 12704 C 1174.57 -2.17478 -0.723596 0
M  V30 12705 C 1175.57 -1.12698 -1.14699 0
M  V30 12706 O 1176.76 -1.38128 -1.06143 0
M  V30 12707 C 1173.9 -2.77015 -1.98685 0
M  V30 12708 H 1175.09 -2.99282 -0.192403 0
M  V30 12709 H 1172.64 -1.56174 -0.0628153 0
M  V30 12710 H 1173.38 -1.98987 -2.56076 0
M  V30 12711 H 1173.16 -3.53711 -1.69207 0
M  V30 12712 H 1174.65 -3.23872 -2.63622 0
M  V30 12713 N 1175.09 0.086862 -1.5736 0
M  V30 12714 C 1176.32 0.802167 -1.90717 0
M  V30 12715 C 1176.73 1.71875 -0.781304 0
M  V30 12716 O 1176.09 1.80831 0.246255 0
M  V30 12717 C 1176.14 1.60858 -3.23739 0
M  V30 12718 O 1175.86 0.728851 -4.31995 0
M  V30 12719 C 1177.36 2.42621 -3.71012 0
M  V30 12720 H 1174.58 0.228914 -0.630745 0
M  V30 12721 H 1177.13 0.061634 -2.04407 0
M  V30 12722 H 1175.28 2.30153 -3.11622 0
M  V30 12723 H 1175.7 1.2882 -5.08435 0
M  V30 12724 H 1177.17 2.94683 -4.66761 0
M  V30 12725 H 1177.65 3.21462 -2.99264 0
M  V30 12726 H 1178.25 1.78509 -3.86024 0
M  V30 12727 N 1176.57 1.53483 0.357892 0
M  V30 12728 C 1177.98 1.61641 0.934289 0
M  V30 12729 C 1178.33 0.488655 1.90017 0
M  V30 12730 O 1177.45 -0.38378 2.1297 0
M  V30 12731 C 1178.05 2.92987 1.7013 0
M  V30 12732 C 1176.61 3.03456 2.22692 0
M  V30 12733 C 1175.76 2.56992 1.04165 0
M  V30 12734 H 1178.71 1.58112 0.136452 0
M  V30 12735 H 1178.73 2.81221 2.5631 0
M  V30 12736 H 1178.24 3.75047 0.998056 0
M  V30 12737 H 1176.34 2.25999 2.96235 0
M  V30 12738 H 1176.45 4.08673 2.50046 0
M  V30 12739 H 1174.82 2.12052 1.41088 0
M  V30 12740 H 1175.6 3.41477 0.353272 0
M  V30 12741 N 1178.05 -0.61812 1.44973 0
M  V30 12742 C 1179.29 -1.37944 1.48658 0
M  V30 12743 C 1179.62 -1.93805 0.123749 0
M  V30 12744 O 1178.9 -1.74434 -0.860401 0
M  V30 12745 C 1179.18 -2.53515 2.55739 0
M  V30 12746 C 1179.04 -2.02918 4.01428 0
M  V30 12747 C 1180.35 -3.55674 2.59199 0
M  V30 12748 H 1177.47 -0.500223 0.541244 0
M  V30 12749 H 1180.12 -0.69774 1.76725 0
M  V30 12750 H 1178.27 -3.11669 2.31937 0
M  V30 12751 H 1179.94 -1.49494 4.36405 0
M  V30 12752 H 1178.18 -1.33999 4.12586 0
M  V30 12753 H 1178.85 -2.86181 4.72021 0
M  V30 12754 H 1181.33 -3.07343 2.80499 0
M  V30 12755 H 1180.2 -4.34042 3.36004 0
M  V30 12756 H 1180.46 -4.10601 1.63888 0
M  V30 12757 N 1179.52 -1.32087 -0.859693 0
M  V30 12758 C 1180.75 -1.25486 -1.6513 0
M  V30 12759 C 1181.17 0.175015 -1.87284 0
M  V30 12760 O 1180.53 1.12468 -1.42199 0
M  V30 12761 C 1180.58 -2.01469 -2.9907 0
M  V30 12762 O 1179.68 -1.35904 -3.89363 0
M  V30 12763 H 1179.02 -0.432728 -0.503629 0
M  V30 12764 H 1181.55 -1.74322 -1.07112 0
M  V30 12765 H 1181.56 -2.11452 -3.4893 0
M  V30 12766 H 1180.24 -3.05448 -2.82266 0
M  V30 12767 H 1178.82 -1.34437 -3.47823 0
M  V30 12768 N 1181 1.07532 -1.15215 0
M  V30 12769 C 1182.25 1.80093 -0.925891 0
M  V30 12770 C 1182.58 1.86648 0.547079 0
M  V30 12771 O 1181.83 1.34492 1.42164 0
M  V30 12772 C 1182.13 3.2518 -1.483 0
M  V30 12773 C 1181.8 3.38728 -2.97614 0
M  V30 12774 C 1180.46 3.42133 -3.38376 0
M  V30 12775 C 1182.81 3.41676 -3.93583 0
M  V30 12776 C 1180.14 3.46086 -4.73752 0
M  V30 12777 C 1182.49 3.47166 -5.28828 0
M  V30 12778 C 1181.15 3.48847 -5.69089 0
M  V30 12779 H 1180.42 0.659007 -0.338808 0
M  V30 12780 H 1183.07 1.26548 -1.43728 0
M  V30 12781 H 1181.38 3.81493 -0.892751 0
M  V30 12782 H 1183.07 3.79895 -1.28376 0
M  V30 12783 H 1179.66 3.36775 -2.65105 0
M  V30 12784 H 1183.85 3.38268 -3.63165 0
M  V30 12785 H 1179.1 3.45686 -5.04293 0
M  V30 12786 H 1183.28 3.48393 -6.02989 0
M  V30 12787 H 1180.9 3.51663 -6.73971 0
M  V30 12788 N 1182.48 0.948665 1.2585 0
M  V30 12789 C 1183.41 0.421458 2.25292 0
M  V30 12790 C 1184.43 -0.459389 1.56184 0
M  V30 12791 O 1185.61 -0.268627 1.76467 0
M  V30 12792 C 1182.71 -0.412653 3.36378 0
M  V30 12793 C 1181.89 0.453792 4.3504 0
M  V30 12794 C 1180.95 -0.321127 5.25219 0
M  V30 12795 O 1179.97 0.278424 5.68519 0
M  V30 12796 N 1181.17 -1.61576 5.5756 0
M  V30 12797 H 1183.94 1.27636 2.71162 0
M  V30 12798 H 1181.5 0.818367 1.39694 0
M  V30 12799 H 1183.49 -0.938637 3.93664 0
M  V30 12800 H 1182.06 -1.16839 2.89944 0
M  V30 12801 H 1181.28 1.16093 3.76718 0
M  V30 12802 H 1182.57 1.04538 4.97945 0
M  V30 12803 H 1181.97 -2.12488 5.24276 0
M  V30 12804 H 1180.53 -2.08783 6.17457 0
M  V30 12805 N 1183.96 -1.40369 0.716545 0
M  V30 12806 C 1184.92 -2.29083 0.0733105 0
M  V30 12807 C 1185.92 -1.45415 -0.686378 0
M  V30 12808 O 1187.11 -1.66316 -0.518139 0
M  V30 12809 C 1184.24 -3.28639 -0.906032 0
M  V30 12810 H 1185.44 -2.87464 0.85467 0
M  V30 12811 H 1182.99 -1.48706 0.481256 0
M  V30 12812 H 1183.72 -2.75279 -1.71441 0
M  V30 12813 H 1183.51 -3.90405 -0.364163 0
M  V30 12814 H 1185 -3.95066 -1.35324 0
M  V30 12815 N 1185.44 -0.462799 -1.50652 0
M  V30 12816 C 1186.4 0.324264 -2.26895 0
M  V30 12817 C 1187.4 0.927687 -1.31342 0
M  V30 12818 O 1188.59 0.798159 -1.54839 0
M  V30 12819 C 1185.72 1.46113 -3.08 0
M  V30 12820 H 1186.91 -0.344266 -2.97917 0
M  V30 12821 H 1184.47 -0.216631 -1.54791 0
M  V30 12822 H 1185.2 2.16496 -2.41454 0
M  V30 12823 H 1184.99 1.03433 -3.78212 0
M  V30 12824 H 1186.48 2.01655 -3.65684 0
M  V30 12825 N 1186.91 1.56388 -0.195085 0
M  V30 12826 C 1188.14 2.02406 0.452399 0
M  V30 12827 C 1188.56 1.07432 1.54402 0
M  V30 12828 O 1187.92 0.0578246 1.81208 0
M  V30 12829 C 1187.97 3.46864 0.985778 0
M  V30 12830 O 1187.07 3.55007 2.09867 0
M  V30 12831 H 1186.42 0.65553 0.105719 0
M  V30 12832 H 1188.95 2.02299 -0.30596 0
M  V30 12833 H 1188.96 3.86655 1.30238 0
M  V30 12834 H 1187.63 4.15481 0.186662 0
M  V30 12835 H 1186.21 3.2709 1.79071 0
M  V30 12836 N 1188.39 -0.0785156 1.57404 0
M  V30 12837 C 1189.62 -0.792042 1.9114 0
M  V30 12838 C 1190.04 -1.71458 0.790408 0
M  V30 12839 O 1189.39 -1.80959 -0.236662 0
M  V30 12840 C 1189.44 -1.59138 3.24588 0
M  V30 12841 O 1189.16 -0.705931 4.32375 0
M  V30 12842 C 1190.67 -2.4065 3.72293 0
M  V30 12843 H 1187.89 -0.225566 0.63195 0
M  V30 12844 H 1190.43 -0.0507929 2.04437 0
M  V30 12845 H 1188.58 -2.28498 3.12838 0
M  V30 12846 H 1189 -1.26121 5.09111 0
M  V30 12847 H 1190.47 -2.92204 4.68317 0
M  V30 12848 H 1190.95 -3.1987 3.00965 0
M  V30 12849 H 1191.56 -1.7646 3.86965 0
M  V30 12850 N 1189.87 -1.5367 -0.349747 0
M  V30 12851 C 1191.1 -1.74858 -1.11532 0
M  V30 12852 C 1191.52 -0.483591 -1.81777 0
M  V30 12853 O 1190.88 0.563399 -1.72324 0
M  V30 12854 C 1190.93 -2.92479 -2.10923 0
M  V30 12855 O 1190.03 -2.62194 -3.18321 0
M  V30 12856 H 1189.37 -0.580219 -0.322865 0
M  V30 12857 H 1191.9 -2.00611 -0.402033 0
M  V30 12858 H 1191.91 -3.19093 -2.54252 0
M  V30 12859 H 1190.59 -3.84228 -1.59191 0
M  V30 12860 H 1189.16 -2.46448 -2.79853 0
M  V30 12861 N 1191.35 0.610423 -1.45298 0
M  V30 12862 C 1192.6 1.3668 -1.48872 0
M  V30 12863 C 1192.92 1.94562 -0.130686 0
M  V30 12864 O 1192.19 1.76996 0.839607 0
M  V30 12865 H 1190.77 0.507393 -0.548235 0
M  V30 12866 H 1193.43 0.716997 -1.81232 0
M  V30 12867 H 1192.53 2.18766 -2.22593 0
M  V30 12868 N 1192.83 1.32541 0.852676 0
M  V30 12869 C 1194.07 1.23397 1.60938 0
M  V30 12870 C 1194.41 -0.203294 1.93133 0
M  V30 12871 O 1193.68 -1.14097 1.57519 0
M  V30 12872 C 1193.96 2.0956 2.92842 0
M  V30 12873 C 1193.82 3.61675 2.67416 0
M  V30 12874 C 1195.14 1.95825 3.94133 0
M  V30 12875 H 1192.25 0.449608 0.583971 0
M  V30 12876 H 1194.9 1.62507 0.98446 0
M  V30 12877 H 1193.05 1.76336 3.46176 0
M  V30 12878 H 1194.72 4.05122 2.20621 0
M  V30 12879 H 1192.96 3.84242 2.01347 0
M  V30 12880 H 1193.63 4.17292 3.61347 0
M  V30 12881 H 1196.11 2.24935 3.50062 0
M  V30 12882 H 1194.98 2.58387 4.8428 0
M  V30 12883 H 1195.25 0.926466 4.32284 0
M  V30 12884 N 1194.3 -1.0692 1.15784 0
M  V30 12885 C 1195.72 -1.61069 0.944123 0
M  V30 12886 C 1196.07 -1.8936 -0.513522 0
M  V30 12887 O 1195.19 -1.66232 -1.38549 0
M  V30 12888 C 1195.79 -2.9263 1.70743 0
M  V30 12889 C 1194.35 -3.43505 1.53887 0
M  V30 12890 C 1193.49 -2.17495 1.72021 0
M  V30 12891 H 1196.44 -0.89951 1.30746 0
M  V30 12892 H 1196.46 -3.61757 1.17951 0
M  V30 12893 H 1195.98 -2.72007 2.76828 0
M  V30 12894 H 1194.08 -3.69201 0.502153 0
M  V30 12895 H 1194.19 -4.19254 2.31868 0
M  V30 12896 H 1192.55 -2.27407 1.1471 0
M  V30 12897 H 1193.34 -1.99362 2.79481 0
M  V30 12898 N 1195.78 -0.955326 -1.25345 0
M  V30 12899 C 1197.06 -0.527828 -1.88344 0
M  V30 12900 C 1197.44 0.994911 -1.86185 0
M  V30 12901 O 1196.79 1.86099 -1.32587 0
M  V30 12902 C 1197 -1.10525 -3.31037 0
M  V30 12903 C 1198.35 -1.18253 -4.07801 0
M  V30 12904 O 1199.37 -1.05685 -3.4016 0
M  V30 12905 O 1198.23 -1.37978 -5.28795 0
M  V30 12906 H 1195.32 -0.174206 -0.808444 0
M  V30 12907 H 1197.87 -1.0488 -1.3341 0
M  V30 12908 H 1196.64 -2.14847 -3.27042 0
M  V30 12909 H 1196.26 -0.567568 -3.93528 0
M  V30 12910 N 1197.26 1.39987 -0.723979 0
M  V30 12911 C 1198.21 2.27938 -0.0531058 0
M  V30 12912 C 1199.2 1.43693 0.723965 0
M  V30 12913 O 1200.39 1.66707 0.594785 0
M  V30 12914 C 1197.52 3.32311 0.861659 0
M  V30 12915 C 1196.6 4.24026 0.079327 0
M  V30 12916 N 1196.99 4.96954 -0.941805 0
M  V30 12917 C 1195.29 4.44917 0.310637 0
M  V30 12918 C 1195.99 5.64287 -1.41261 0
M  V30 12919 N 1194.97 5.38632 -0.733217 0
M  V30 12920 H 1198.77 2.81771 -0.835608 0
M  V30 12921 H 1196.28 1.52538 -0.557315 0
M  V30 12922 H 1198.28 3.94174 1.35766 0
M  V30 12923 H 1196.94 2.80038 1.64344 0
M  V30 12924 H 1197.95 5.0072 -1.32288 0
M  V30 12925 H 1194.63 4.03606 1.06809 0
M  V30 12926 H 1196.02 6.32695 -2.26155 0
M  V30 12927 N 1198.74 0.470782 1.50404 0
M  V30 12928 C 1199.7 -0.312227 2.27063 0
M  V30 12929 C 1200.7 -0.920709 1.31832 0
M  V30 12930 O 1201.89 -0.789937 1.5526 0
M  V30 12931 C 1199.02 -1.44477 3.0877 0
M  V30 12932 H 1200.22 0.36006 2.97731 0
M  V30 12933 H 1197.77 0.224837 1.54674 0
M  V30 12934 H 1198.51 -2.15212 2.42599 0
M  V30 12935 H 1198.29 -1.01426 3.78755 0
M  V30 12936 H 1199.78 -1.99713 3.66749 0
M  V30 12937 N 1200.22 -1.56282 0.203376 0
M  V30 12938 C 1201.16 -2.19473 -0.714164 0
M  V30 12939 C 1202.13 -1.14454 -1.20372 0
M  V30 12940 O 1203.32 -1.42739 -1.26611 0
M  V30 12941 C 1200.46 -2.86451 -1.92457 0
M  V30 12942 C 1199.57 -4.06017 -1.47561 0
M  V30 12943 C 1198.71 -4.60829 -2.64216 0
M  V30 12944 C 1197.75 -5.72734 -2.15967 0
M  V30 12945 N 1196.88 -6.21916 -3.25829 0
M  V30 12946 H 1201.72 -2.97523 -0.168558 0
M  V30 12947 H 1199.26 -1.46926 -0.0714525 0
M  V30 12948 H 1201.22 -3.23459 -2.63496 0
M  V30 12949 H 1199.85 -2.10951 -2.44335 0
M  V30 12950 H 1198.9 -3.74617 -0.660784 0
M  V30 12951 H 1200.21 -4.8693 -1.08168 0
M  V30 12952 H 1199.37 -5.00185 -3.43366 0
M  V30 12953 H 1198.11 -3.7904 -3.06887 0
M  V30 12954 H 1197.11 -5.32899 -1.35273 0
M  V30 12955 H 1198.34 -6.56346 -1.74316 0
M  V30 12956 H 1196.28 -5.43047 -3.68016 0
M  V30 12957 H 1196.2 -6.97904 -2.90631 0
M  V30 12958 H 1197.47 -6.65927 -4.05168 0
M  V30 12959 N 1201.7 0.070167 -1.57444 0
M  V30 12960 C 1202.63 1.08351 -2.06839 0
M  V30 12961 C 1203.61 1.40269 -0.962224 0
M  V30 12962 O 1204.79 1.49867 -1.23505 0
M  V30 12963 C 1201.92 2.39649 -2.51368 0
M  V30 12964 C 1200.88 2.22079 -3.65875 0
M  V30 12965 C 1200.2 3.58776 -3.96464 0
M  V30 12966 C 1201.5 1.64069 -4.95862 0
M  V30 12967 H 1203.2 0.672465 -2.9175 0
M  V30 12968 H 1200.74 0.322027 -1.40353 0
M  V30 12969 H 1202.69 3.10833 -2.84537 0
M  V30 12970 H 1201.42 2.82736 -1.63487 0
M  V30 12971 H 1200.08 1.53337 -3.32992 0
M  V30 12972 H 1199.73 3.99436 -3.05712 0
M  V30 12973 H 1199.43 3.47859 -4.7357 0
M  V30 12974 H 1200.95 4.31387 -4.32131 0
M  V30 12975 H 1202.36 2.2512 -5.27251 0
M  V30 12976 H 1200.76 1.63843 -5.773 0
M  V30 12977 H 1201.83 0.60232 -4.81145 0
M  V30 12978 N 1203.17 1.53854 0.341593 0
M  V30 12979 C 1204.11 1.78295 1.44027 0
M  V30 12980 C 1205.12 0.664303 1.4863 0
M  V30 12981 O 1206.31 0.941073 1.51678 0
M  V30 12982 C 1203.41 1.86947 2.82673 0
M  V30 12983 C 1202.58 3.16898 3.01487 0
M  V30 12984 C 1201.64 3.16483 4.20386 0
M  V30 12985 O 1200.67 3.90197 4.14409 0
M  V30 12986 N 1201.87 2.3899 5.29022 0
M  V30 12987 H 1204.63 2.73102 1.23431 0
M  V30 12988 H 1202.19 1.52928 0.531483 0
M  V30 12989 H 1204.19 1.84118 3.60392 0
M  V30 12990 H 1202.76 0.993169 2.96403 0
M  V30 12991 H 1201.98 3.32835 2.11221 0
M  V30 12992 H 1203.26 4.02733 3.1094 0
M  V30 12993 H 1202.66 1.78657 5.36748 0
M  V30 12994 H 1201.22 2.41957 6.05227 0
M  V30 12995 N 1204.65 -0.602709 1.4562 0
M  V30 12996 C 1205.61 -1.69508 1.54271 0
M  V30 12997 C 1206.61 -1.55171 0.421727 0
M  V30 12998 O 1207.8 -1.60151 0.685375 0
M  V30 12999 C 1204.94 -3.0881 1.44392 0
M  V30 13000 H 1206.13 -1.63203 2.51605 0
M  V30 13001 H 1203.68 -0.818857 1.33133 0
M  V30 13002 H 1204.42 -3.20689 0.482614 0
M  V30 13003 H 1204.2 -3.20625 2.25704 0
M  V30 13004 H 1205.69 -3.8837 1.53488 0
M  V30 13005 N 1206.13 -1.32992 -0.845635 0
M  V30 13006 C 1207.54 -1.21616 -1.41656 0
M  V30 13007 C 1207.89 0.167687 -1.95482 0
M  V30 13008 O 1207.02 1.06692 -1.8827 0
M  V30 13009 C 1207.61 -2.2018 -2.575 0
M  V30 13010 C 1206.17 -2.12664 -3.10565 0
M  V30 13011 C 1205.32 -2.08042 -1.83341 0
M  V30 13012 H 1208.27 -1.44688 -0.651993 0
M  V30 13013 H 1208.29 -1.80558 -3.34931 0
M  V30 13014 H 1207.8 -3.20888 -2.18294 0
M  V30 13015 H 1205.9 -1.15235 -3.54333 0
M  V30 13016 H 1206.02 -3.02902 -3.71197 0
M  V30 13017 H 1204.38 -1.53416 -2.03312 0
M  V30 13018 H 1205.16 -3.10547 -1.46339 0
M  V30 13019 N 1207.61 1.06304 -1.1635 0
M  V30 13020 C 1208.86 1.78747 -0.943074 0
M  V30 13021 C 1209.18 1.87646 0.530483 0
M  V30 13022 O 1208.45 1.38506 1.38538 0
M  V30 13023 H 1207.03 0.662072 -0.345932 0
M  V30 13024 H 1209.69 1.28413 -1.46615 0
M  V30 13025 H 1208.78 2.80828 -1.3617 0
M  V30 13026 N 1209.09 0.96196 1.24836 0
M  V30 13027 C 1210.31 0.637709 1.97353 0
M  V30 13028 C 1210.74 -0.784919 1.7094 0
M  V30 13029 O 1210.09 -1.53188 0.969694 0
M  V30 13030 C 1210.14 0.911485 3.4889 0
M  V30 13031 O 1209.25 -0.00601668 4.124 0
M  V30 13032 H 1208.59 0.241685 0.618453 0
M  V30 13033 H 1211.12 1.29055 1.58764 0
M  V30 13034 H 1211.13 0.840702 3.99245 0
M  V30 13035 H 1209.8 1.9483 3.67442 0
M  V30 13036 H 1208.38 0.117597 3.72715 0
M  V30 13037 N 1210.56 -1.39601 0.731392 0
M  V30 13038 C 1211.47 -2.34425 0.090527 0
M  V30 13039 C 1212.49 -1.58131 -0.725992 0
M  V30 13040 O 1213.67 -1.90441 -0.655294 0
M  V30 13041 C 1210.73 -3.37138 -0.808624 0
M  V30 13042 C 1209.79 -4.29295 0.0197365 0
M  V30 13043 C 1209.02 -5.27102 -0.836593 0
M  V30 13044 O 1209.25 -5.31302 -2.07543 0
M  V30 13045 O 1208.18 -6.01307 -0.267172 0
M  V30 13046 H 1212.01 -2.9088 0.873084 0
M  V30 13047 H 1209.59 -1.41066 0.492024 0
M  V30 13048 H 1211.47 -4.00087 -1.32319 0
M  V30 13049 H 1210.15 -2.83074 -1.57006 0
M  V30 13050 H 1209.06 -3.69581 0.579744 0
M  V30 13051 H 1210.39 -4.86555 0.743308 0
M  V30 13052 N 1212.04 -0.478751 -1.50152 0
M  V30 13053 C 1213.28 0.0722328 -2.04272 0
M  V30 13054 C 1213.65 1.36299 -1.35227 0
M  V30 13055 O 1214.85 1.99683 -1.79945 0
M  V30 13056 C 1213.12 0.24408 -3.56566 0
M  V30 13057 S 1214.68 0.752517 -4.32299 0
M  V30 13058 H 1211.5 0.0123326 -0.710893 0
M  V30 13059 H 1214.1 -0.647641 -1.84461 0
M  V30 13060 H 1212.8 -0.701012 -4.04369 0
M  V30 13061 H 1212.33 0.989845 -3.80744 0
M  V30 13062 H 1214.35 2.02488 -4.53005 0
M  V30 13063 N 1213.52 1.56172 -0.211661 0
M  V30 13064 C 1214.45 2.22843 0.697375 0
M  V30 13065 C 1215.43 1.19689 1.20866 0
M  V30 13066 O 1216.62 1.48245 1.25447 0
M  V30 13067 C 1213.75 2.90067 1.90993 0
M  V30 13068 C 1212.7 3.99608 1.5329 0
M  V30 13069 C 1212.03 4.54078 2.82343 0
M  V30 13070 C 1213.33 5.17169 0.730333 0
M  V30 13071 H 1215.02 2.99065 0.141533 0
M  V30 13072 H 1212.57 1.43846 0.0666337 0
M  V30 13073 H 1214.52 3.35396 2.55123 0
M  V30 13074 H 1213.24 2.11276 2.49058 0
M  V30 13075 H 1211.9 3.54995 0.915115 0
M  V30 13076 H 1211.55 3.72029 3.38531 0
M  V30 13077 H 1211.25 5.28001 2.57853 0
M  V30 13078 H 1212.77 5.02119 3.47432 0
M  V30 13079 H 1214.19 5.5894 1.2751 0
M  V30 13080 H 1212.59 5.97262 0.582916 0
M  V30 13081 H 1213.66 4.84174 -0.265157 0
M  V30 13082 N 1215 -0.0618163 1.57479 0
M  V30 13083 C 1216.25 -0.757569 1.87364 0
M  V30 13084 C 1216.57 -1.77607 0.805025 0
M  V30 13085 O 1215.84 -1.95202 -0.165216 0
M  V30 13086 H 1214.42 -0.28278 0.691408 0
M  V30 13087 H 1217.08 -0.0355354 1.94868 0
M  V30 13088 H 1216.18 -1.26758 2.85199 0
M  V30 13089 N 1216.48 -1.54033 -0.333429 0
M  V30 13090 C 1217.89 -1.63107 -0.908455 0
M  V30 13091 C 1218.24 -0.518823 -1.89216 0
M  V30 13092 O 1217.36 0.34985 -2.13553 0
M  V30 13093 C 1217.96 -2.95657 -1.65447 0
M  V30 13094 C 1216.52 -3.0696 -2.17836 0
M  V30 13095 C 1215.66 -2.58617 -1.00063 0
M  V30 13096 H 1218.62 -1.58309 -0.11128 0
M  V30 13097 H 1218.64 -2.85263 -2.51804 0
M  V30 13098 H 1218.15 -3.76588 -0.938263 0
M  V30 13099 H 1216.25 -2.30683 -2.92602 0
M  V30 13100 H 1216.36 -4.12599 -2.43513 0
M  V30 13101 H 1214.73 -2.1427 -1.37697 0
M  V30 13102 H 1215.51 -3.41996 -0.298901 0
M  V30 13103 N 1217.95 0.594978 -1.45938 0
M  V30 13104 C 1218.9 1.70489 -1.5557 0
M  V30 13105 C 1219.87 1.61193 -0.400751 0
M  V30 13106 O 1221.06 1.80587 -0.615882 0
M  V30 13107 C 1218.2 3.08817 -1.54033 0
M  V30 13108 C 1217.31 3.28827 -2.80173 0
M  V30 13109 C 1216.44 4.57333 -2.70222 0
M  V30 13110 C 1215.48 4.70644 -3.91357 0
M  V30 13111 N 1214.62 5.90463 -3.79865 0
M  V30 13112 H 1219.46 1.61593 -2.50383 0
M  V30 13113 H 1217 0.787747 -1.24229 0
M  V30 13114 H 1218.96 3.88865 -1.51129 0
M  V30 13115 H 1217.59 3.1664 -0.627617 0
M  V30 13116 H 1216.64 2.42467 -2.9311 0
M  V30 13117 H 1217.95 3.34534 -3.69985 0
M  V30 13118 H 1217.1 5.45593 -2.65354 0
M  V30 13119 H 1215.84 4.54045 -1.7803 0
M  V30 13120 H 1214.85 3.80805 -3.9657 0
M  V30 13121 H 1216.07 4.75721 -4.8463 0
M  V30 13122 H 1214.02 5.88196 -2.90451 0
M  V30 13123 H 1213.94 5.97385 -4.63322 0
M  V30 13124 H 1215.2 6.81187 -3.78952 0
M  V30 13125 N 1219.43 1.33438 0.838571 0
M  V30 13126 C 1220.68 1.24665 1.59069 0
M  V30 13127 C 1221 -0.187433 1.94097 0
M  V30 13128 O 1220.27 -1.11625 1.60987 0
M  V30 13129 H 1218.85 0.45843 0.589789 0
M  V30 13130 H 1221.51 1.67161 1.00216 0
M  V30 13131 H 1220.61 1.84057 2.52051 0
M  V30 13132 N 1220.91 -1.05686 1.16912 0
M  V30 13133 C 1222.16 -1.78244 0.95254 0
M  V30 13134 C 1222.48 -1.87924 -0.520525 0
M  V30 13135 O 1221.75 -1.39239 -1.37802 0
M  V30 13136 H 1220.33 -0.660228 0.349439 0
M  V30 13137 H 1222.99 -1.27634 1.47294 0
M  V30 13138 H 1222.09 -2.80102 1.37657 0
M  V30 13139 N 1222.39 -0.968567 -1.24324 0
M  V30 13140 C 1223.64 -0.629682 -1.9204 0
M  V30 13141 C 1223.96 0.837906 -1.7608 0
M  V30 13142 O 1223.23 1.5982 -1.13289 0
M  V30 13143 H 1221.81 -0.229901 -0.710742 0
M  V30 13144 H 1224.47 -1.22982 -1.512 0
M  V30 13145 H 1223.57 -0.871034 -2.99699 0
M  V30 13146 N 1223.87 1.39211 -0.738786 0
M  V30 13147 C 1225.11 2.0004 -0.28782 0
M  V30 13148 C 1225.44 1.58921 1.13 0
M  V30 13149 O 1224.71 0.839193 1.77015 0
M  V30 13150 H 1223.29 0.739805 -0.103425 0
M  V30 13151 H 1225.95 1.70202 -0.949587 0
M  V30 13152 H 1225.04 3.10251 -0.339208 0
M  V30 13153 N 1225.34 0.486708 1.49896 0
M  V30 13154 C 1226.62 -0.125183 1.95199 0
M  V30 13155 C 1227 -1.55498 1.42771 0
M  V30 13156 O 1226.35 -2.1949 0.635322 0
M  V30 13157 C 1226.56 -0.0524982 3.48961 0
M  V30 13158 C 1227.91 -0.233595 4.23957 0
M  V30 13159 O 1228.93 -0.128357 3.55969 0
M  V30 13160 O 1227.79 -0.447862 5.44662 0
M  V30 13161 H 1224.88 -0.103141 0.820543 0
M  V30 13162 H 1227.43 0.548226 1.60601 0
M  V30 13163 H 1226.2 0.945163 3.79714 0
M  V30 13164 H 1225.83 -0.766683 3.90138 0
M  V30 13165 N 1226.82 -1.56058 0.219941 0
M  V30 13166 C 1228.06 -2.00162 -0.414063 0
M  V30 13167 C 1228.43 -1.10432 -1.57063 0
M  V30 13168 O 1229.63 -1.43877 -2.27053 0
M  V30 13169 C 1227.9 -3.47411 -0.839084 0
M  V30 13170 S 1229.46 -4.13536 -1.46742 0
M  V30 13171 H 1226.28 -0.698738 -0.131475 0
M  V30 13172 H 1228.88 -1.92714 0.32885 0
M  V30 13173 H 1227.58 -4.10398 0.0123666 0
M  V30 13174 H 1227.11 -3.58728 -1.61485 0
M  V30 13175 H 1229.13 -4.12592 -2.75648 0
M  V30 13176 N 1228.3 0.053464 -1.57509 0
M  V30 13177 C 1229.26 1.04604 -2.03938 0
M  V30 13178 C 1230.26 1.30509 -0.939357 0
M  V30 13179 O 1231.45 1.25922 -1.20371 0
M  V30 13180 C 1228.59 2.38516 -2.43563 0
M  V30 13181 H 1229.78 0.645484 -2.92871 0
M  V30 13182 H 1227.33 0.299683 -1.534 0
M  V30 13183 H 1228.07 2.83368 -1.57712 0
M  V30 13184 H 1227.85 2.2105 -3.23851 0
M  V30 13185 H 1229.34 3.09826 -2.79996 0
M  V30 13186 N 1229.78 1.54207 0.325255 0
M  V30 13187 C 1230.73 1.83474 1.40021 0
M  V30 13188 C 1231.7 0.681719 1.51466 0
M  V30 13189 O 1232.88 0.92798 1.66713 0
M  V30 13190 C 1230.02 2.06624 2.76407 0
M  V30 13191 C 1229.13 3.3431 2.73607 0
M  V30 13192 C 1228.27 3.4743 4.01828 0
M  V30 13193 C 1227.31 4.68997 3.93329 0
M  V30 13194 N 1226.45 4.79052 5.13277 0
M  V30 13195 H 1231.29 2.75182 1.14363 0
M  V30 13196 H 1228.82 1.36284 0.553639 0
M  V30 13197 H 1230.78 2.18037 3.5569 0
M  V30 13198 H 1229.41 1.18209 3.00377 0
M  V30 13199 H 1228.46 3.31643 1.86324 0
M  V30 13200 H 1229.77 4.237 2.6321 0
M  V30 13201 H 1228.93 3.58376 4.89542 0
M  V30 13202 H 1227.67 2.56128 4.1503 0
M  V30 13203 H 1226.67 4.58109 3.04 0
M  V30 13204 H 1227.9 5.61681 3.81695 0
M  V30 13205 H 1225.84 3.90666 5.26988 0
M  V30 13206 H 1225.76 5.62406 5.05208 0
M  V30 13207 H 1227.03 4.94328 6.02711 0
M  V30 13208 N 1231.26 -0.58723 1.46251 0
M  V30 13209 C 1232.67 -0.910129 1.31106 0
M  V30 13210 C 1232.87 -1.99557 0.279141 0
M  V30 13211 O 1231.93 -2.50466 -0.319867 0
M  V30 13212 C 1233.24 -1.33177 2.69601 0
M  V30 13213 C 1234.79 -1.44486 2.77656 0
M  V30 13214 C 1235.27 -1.90018 4.16722 0
M  V30 13215 N 1236.76 -1.97219 4.19117 0
M  V30 13216 C 1237.49 -2.33714 5.23608 0
M  V30 13217 N 1236.99 -2.69034 6.3843 0
M  V30 13218 N 1238.78 -2.3423 5.10972 0
M  V30 13219 H 1230.93 0.12987 2.12003 0
M  V30 13220 H 1233.19 -0.00456718 0.947989 0
M  V30 13221 H 1232.9 -0.608243 3.464 0
M  V30 13222 H 1232.77 -2.29421 2.99409 0
M  V30 13223 H 1235.16 -2.15926 2.01147 0
M  V30 13224 H 1235.24 -0.465047 2.51537 0
M  V30 13225 H 1234.89 -1.19159 4.93724 0
M  V30 13226 H 1234.82 -2.88949 4.40245 0
M  V30 13227 H 1237.31 -1.72431 3.36268 0
M  V30 13228 H 1237.62 -2.95822 7.13939 0
M  V30 13229 H 1235.97 -2.66683 6.41798 0
M  V30 13230 H 1239.16 -2.06056 4.20308 0
M  V30 13231 H 1239.33 -2.62345 5.92519 0
M  V30 13232 N 1232.74 -1.33881 -0.831482 0
M  V30 13233 C 1233.68 -1.24748 -1.94182 0
M  V30 13234 C 1234.65 -0.124516 -1.65633 0
M  V30 13235 O 1235.84 -0.304045 -1.88362 0
M  V30 13236 C 1232.98 -1.00016 -3.30289 0
M  V30 13237 C 1232.09 -2.21007 -3.71187 0
M  V30 13238 C 1231.23 -1.89629 -4.962 0
M  V30 13239 C 1230.26 -3.06811 -5.29654 0
M  V30 13240 N 1229.4 -2.75372 -6.45844 0
M  V30 13241 H 1234.24 -2.19709 -2.01325 0
M  V30 13242 H 1231.78 -1.09245 -0.985081 0
M  V30 13243 H 1233.74 -0.837167 -4.08714 0
M  V30 13244 H 1232.37 -0.0872582 -3.22682 0
M  V30 13245 H 1231.42 -2.48256 -2.88224 0
M  V30 13246 H 1232.73 -3.08587 -3.91887 0
M  V30 13247 H 1231.88 -1.70016 -5.82391 0
M  V30 13248 H 1230.62 -0.992964 -4.77485 0
M  V30 13249 H 1229.63 -3.27029 -4.41964 0
M  V30 13250 H 1230.85 -3.97909 -5.50314 0
M  V30 13251 H 1228.8 -1.87607 -6.28601 0
M  V30 13252 H 1228.72 -3.56483 -6.66675 0
M  V30 13253 H 1229.98 -2.59244 -7.35128 0
M  V30 13254 N 1234.21 1.05064 -1.1747 0
M  V30 13255 C 1235.44 1.82299 -0.98903 0
M  V30 13256 C 1235.86 1.82441 0.457907 0
M  V30 13257 O 1235.22 1.23433 1.32793 0
M  V30 13258 C 1235.27 3.26239 -1.53624 0
M  V30 13259 O 1234.37 4.05507 -0.750857 0
M  V30 13260 H 1233.71 0.563601 -0.35107 0
M  V30 13261 H 1236.24 1.32386 -1.55997 0
M  V30 13262 H 1236.25 3.77038 -1.55906 0
M  V30 13263 H 1234.93 3.25451 -2.58949 0
M  V30 13264 H 1233.51 3.64227 -0.799548 0
M  V30 13265 N 1235.69 0.975146 1.23809 0
M  V30 13266 C 1236.94 0.651686 1.92677 0
M  V30 13267 C 1237.29 -0.805298 1.74736 0
M  V30 13268 O 1236.59 -1.5727 1.09438 0
M  V30 13269 C 1236.78 0.971016 3.43956 0
M  V30 13270 C 1236.61 2.45749 3.76613 0
M  V30 13271 C 1235.38 3.11859 3.97583 0
M  V30 13272 C 1237.58 3.43793 3.82506 0
M  V30 13273 N 1235.56 4.50166 4.17401 0
M  V30 13274 C 1236.93 4.67487 4.07254 0
M  V30 13275 C 1238.98 3.38347 3.65274 0
M  V30 13276 C 1237.69 5.86404 4.16561 0
M  V30 13277 C 1239.71 4.56623 3.75831 0
M  V30 13278 C 1239.08 5.7911 4.01012 0
M  V30 13279 H 1235.17 0.289441 0.726463 0
M  V30 13280 H 1237.76 1.25153 1.49147 0
M  V30 13281 H 1235.93 0.399915 3.86336 0
M  V30 13282 H 1237.66 0.605367 4.00147 0
M  V30 13283 H 1234.42 2.62369 3.94283 0
M  V30 13284 H 1234.84 5.21854 4.31274 0
M  V30 13285 H 1239.48 2.44679 3.44807 0
M  V30 13286 H 1237.2 6.80493 4.35838 0
M  V30 13287 H 1240.79 4.53979 3.6386 0
M  V30 13288 H 1239.67 6.69103 4.08988 0
M  V30 13289 N 1237.17 -1.38817 0.746158 0
M  V30 13290 C 1238.13 -2.28876 0.121886 0
M  V30 13291 C 1239.13 -1.46838 -0.655379 0
M  V30 13292 O 1240.32 -1.67377 -0.482744 0
M  V30 13293 C 1237.45 -3.30487 -0.836118 0
M  V30 13294 H 1238.65 -2.85586 0.915453 0
M  V30 13295 H 1236.2 -1.47652 0.512691 0
M  V30 13296 H 1236.94 -2.78853 -1.65563 0
M  V30 13297 H 1236.72 -3.9109 -0.281271 0
M  V30 13298 H 1238.21 -3.97848 -1.26914 0
M  V30 13299 N 1238.65 -0.49465 -1.49636 0
M  V30 13300 C 1240.06 -0.150217 -1.58892 0
M  V30 13301 C 1240.26 1.34485 -1.50053 0
M  V30 13302 O 1239.32 2.12026 -1.37118 0
M  V30 13303 C 1240.63 -0.721372 -2.91919 0
M  V30 13304 C 1242.18 -0.686908 -3.0537 0
M  V30 13305 C 1242.66 -1.23601 -4.41006 0
M  V30 13306 N 1244.15 -1.19644 -4.47481 0
M  V30 13307 C 1244.88 -1.59157 -5.50869 0
M  V30 13308 N 1244.38 -2.06232 -6.61393 0
M  V30 13309 N 1246.17 -1.50612 -5.41546 0
M  V30 13310 H 1238.32 -1.46675 -1.53624 0
M  V30 13311 H 1240.58 -0.608003 -0.727349 0
M  V30 13312 H 1240.29 -1.76964 -3.03935 0
M  V30 13313 H 1240.16 -0.178199 -3.76779 0
M  V30 13314 H 1242.55 0.352508 -2.92987 0
M  V30 13315 H 1242.63 -1.26716 -2.22209 0
M  V30 13316 H 1242.28 -2.27418 -4.5414 0
M  V30 13317 H 1242.21 -0.631765 -5.22797 0
M  V30 13318 H 1244.7 -0.851443 -3.68183 0
M  V30 13319 H 1245.01 -2.34469 -7.36372 0
M  V30 13320 H 1243.36 -2.10202 -6.6245 0
M  V30 13321 H 1246.55 -1.13659 -4.54092 0
M  V30 13322 H 1246.72 -1.8173 -6.21995 0
M  V30 13323 N 1240.13 1.55939 -0.228214 0
M  V30 13324 C 1241.37 1.98476 0.401677 0
M  V30 13325 C 1241.7 1.116 1.59297 0
M  V30 13326 O 1240.96 0.162465 1.95024 0
M  V30 13327 C 1241.25 3.46581 0.872732 0
M  V30 13328 C 1240.92 4.50416 -0.208767 0
M  V30 13329 C 1239.58 4.78534 -0.505847 0
M  V30 13330 C 1241.93 5.12656 -0.939852 0
M  V30 13331 C 1239.26 5.66171 -1.53841 0
M  V30 13332 C 1241.61 6.01412 -1.9618 0
M  V30 13333 C 1240.28 6.2787 -2.26573 0
M  V30 13334 H 1239.55 0.726276 0.146984 0
M  V30 13335 H 1242.2 1.88598 -0.332128 0
M  V30 13336 H 1240.5 3.53696 1.68541 0
M  V30 13337 H 1242.2 3.76869 1.37006 0
M  V30 13338 H 1238.79 4.28587 0.0329308 0
M  V30 13339 H 1242.97 4.90997 -0.723581 0
M  V30 13340 H 1238.23 5.84933 -1.77944 0
M  V30 13341 H 1242.4 6.48688 -2.53332 0
M  V30 13342 H 1240.03 6.95574 -3.06725 0
M  V30 13343 N 1241.6 -0.0451101 1.57535 0
M  V30 13344 C 1242.55 -1.05066 2.05499 0
M  V30 13345 C 1243.52 -1.36884 0.940843 0
M  V30 13346 O 1244.71 -1.47497 1.21034 0
M  V30 13347 C 1241.85 -2.35139 2.52594 0
M  V30 13348 C 1240.96 -2.0962 3.77735 0
M  V30 13349 C 1240.09 -3.33447 4.13505 0
M  V30 13350 C 1239.13 -3.03411 5.31609 0
M  V30 13351 N 1238.27 -4.19644 5.62888 0
M  V30 13352 H 1243.11 -0.63469 2.91163 0
M  V30 13353 H 1240.65 -0.30179 1.43971 0
M  V30 13354 H 1242.61 -3.11118 2.7796 0
M  V30 13355 H 1241.24 -2.74489 1.69869 0
M  V30 13356 H 1240.29 -1.24211 3.59549 0
M  V30 13357 H 1241.6 -1.83452 4.63839 0
M  V30 13358 H 1240.75 -4.17805 4.39914 0
M  V30 13359 H 1239.49 -3.62715 3.2602 0
M  V30 13360 H 1238.5 -2.17453 5.04969 0
M  V30 13361 H 1239.72 -2.75438 6.20734 0
M  V30 13362 H 1237.67 -4.48893 4.78363 0
M  V30 13363 H 1237.59 -3.96843 6.43468 0
M  V30 13364 H 1238.85 -5.04921 5.93865 0
M  V30 13365 N 1243.08 -1.54377 -0.317073 0
M  V30 13366 C 1244.36 -1.63551 -1.07287 0
M  V30 13367 C 1244.74 -0.473499 -2.05721 0
M  V30 13368 O 1244.09 0.531545 -2.22232 0
M  V30 13369 C 1244.3 -3.00842 -1.76904 0
M  V30 13370 C 1245.65 -3.57111 -2.29689 0
M  V30 13371 O 1246.67 -3.0319 -1.86961 0
M  V30 13372 O 1245.53 -4.51486 -3.07932 0
M  V30 13373 H 1242.62 -0.662557 -0.494922 0
M  V30 13374 H 1245.17 -1.66723 -0.316444 0
M  V30 13375 H 1243.94 -3.76854 -1.05341 0
M  V30 13376 H 1243.56 -3.01377 -2.59341 0
M  V30 13377 N 1244.56 0.579466 -1.4656 0
M  V30 13378 C 1245.52 1.67033 -1.56948 0
M  V30 13379 C 1246.52 1.54481 -0.446361 0
M  V30 13380 O 1247.71 1.5904 -0.710767 0
M  V30 13381 C 1244.85 3.06474 -1.49286 0
M  V30 13382 H 1246.04 1.59179 -2.54169 0
M  V30 13383 H 1243.59 0.797573 -1.34419 0
M  V30 13384 H 1244.33 3.1988 -0.533572 0
M  V30 13385 H 1244.11 3.16993 -2.30776 0
M  V30 13386 H 1245.6 3.85879 -1.59648 0
M  V30 13387 N 1246.04 1.3432 0.824371 0
M  V30 13388 C 1247.28 1.27942 1.59405 0
M  V30 13389 C 1247.64 -0.148961 1.91421 0
M  V30 13390 O 1248.84 -0.336891 2.6668 0
M  V30 13391 C 1247.11 2.14393 2.85955 0
M  V30 13392 S 1248.67 2.25354 3.76512 0
M  V30 13393 H 1245.49 0.454953 0.546387 0
M  V30 13394 H 1248.09 1.69517 0.973873 0
M  V30 13395 H 1246.8 3.17182 2.60429 0
M  V30 13396 H 1246.33 1.7371 3.52971 0
M  V30 13397 H 1248.34 1.42526 4.7529 0
M  V30 13398 N 1247.52 -1.0444 1.18026 0
M  V30 13399 C 1248.76 -1.77224 0.971391 0
M  V30 13400 C 1249.09 -1.88466 -0.500564 0
M  V30 13401 O 1248.36 -1.40692 -1.36317 0
M  V30 13402 H 1246.94 -0.656485 0.356422 0
M  V30 13403 H 1249.6 -1.26064 1.4864 0
M  V30 13404 H 1248.69 -2.78626 1.4062 0
M  V30 13405 N 1248.99 -0.981699 -1.2329 0
M  V30 13406 C 1249.94 -0.52269 -2.24803 0
M  V30 13407 C 1250.91 0.439116 -1.6019 0
M  V30 13408 O 1252.1 0.346372 -1.8763 0
M  V30 13409 C 1249.24 0.167477 -3.44693 0
M  V30 13410 C 1248.35 -0.834744 -4.23858 0
M  V30 13411 C 1247.48 -0.119249 -5.31066 0
M  V30 13412 C 1246.52 -1.1106 -6.0194 0
M  V30 13413 N 1245.66 -0.424167 -7.00818 0
M  V30 13414 H 1250.5 -1.39312 -2.63431 0
M  V30 13415 H 1248.04 -0.698061 -1.29482 0
M  V30 13416 H 1250 0.584442 -4.13086 0
M  V30 13417 H 1248.63 1.00177 -3.06862 0
M  V30 13418 H 1247.68 -1.37009 -3.5487 0
M  V30 13419 H 1248.99 -1.59012 -4.72776 0
M  V30 13420 H 1248.14 0.355015 -6.0566 0
M  V30 13421 H 1246.88 0.668714 -4.83094 0
M  V30 13422 H 1245.89 -1.5956 -5.26138 0
M  V30 13423 H 1247.11 -1.89924 -6.52001 0
M  V30 13424 H 1245.06 0.344564 -6.55094 0
M  V30 13425 H 1244.98 -1.11817 -7.47685 0
M  V30 13426 H 1246.24 0.0276655 -7.79495 0
M  V30 13427 N 1250.47 1.3842 -0.753509 0
M  V30 13428 C 1251.7 2.04929 -0.319174 0
M  V30 13429 C 1252.12 1.56457 1.04416 0
M  V30 13430 O 1251.48 0.716527 1.6654 0
M  V30 13431 C 1251.53 3.58887 -0.351054 0
M  V30 13432 O 1250.63 4.07166 0.654963 0
M  V30 13433 H 1249.97 0.648782 -0.141343 0
M  V30 13434 H 1252.5 1.77096 -1.02461 0
M  V30 13435 H 1252.51 4.075 -0.201907 0
M  V30 13436 H 1251.19 3.93525 -1.34576 0
M  V30 13437 H 1249.77 3.69921 0.470435 0
M  V30 13438 N 1251.95 0.502579 1.49372 0
M  V30 13439 C 1252.86 -0.279532 2.32929 0
M  V30 13440 C 1253.88 -0.965806 1.44735 0
M  V30 13441 O 1255.05 -0.946839 1.77755 0
M  V30 13442 C 1252.12 -1.32913 3.20211 0
M  V30 13443 C 1251.18 -0.656121 4.24256 0
M  V30 13444 C 1250.41 -1.65571 5.07368 0
M  V30 13445 O 1250.63 -2.88571 4.92019 0
M  V30 13446 O 1249.57 -1.21016 5.89609 0
M  V30 13447 H 1253.39 0.404427 3.00995 0
M  V30 13448 H 1250.98 0.263888 1.47051 0
M  V30 13449 H 1252.86 -1.93635 3.74277 0
M  V30 13450 H 1251.54 -1.99598 2.54837 0
M  V30 13451 H 1250.44 -0.00911489 3.74099 0
M  V30 13452 H 1251.78 -0.0316802 4.9219 0
M  V30 13453 N 1253.43 -1.55816 0.23648 0
M  V30 13454 C 1254.71 -1.90565 -0.440933 0
M  V30 13455 C 1255.09 -1.15585 -1.76645 0
M  V30 13456 O 1254.43 -0.269949 -2.269 0
M  V30 13457 C 1254.64 -3.43462 -0.61925 0
M  V30 13458 C 1255.99 -4.14516 -0.91989 0
M  V30 13459 O 1257.02 -3.49144 -0.705496 0
M  V30 13460 O 1255.87 -5.3013 -1.32759 0
M  V30 13461 H 1252.97 -0.79285 -0.235199 0
M  V30 13462 H 1255.51 -1.67378 0.279774 0
M  V30 13463 H 1254.29 -3.90029 0.315124 0
M  V30 13464 H 1253.91 -3.72478 -1.39089 0
M  V30 13465 N 1254.91 0.036755 -1.57557 0
M  V30 13466 C 1256.15 0.72475 -1.9005 0
M  V30 13467 C 1256.51 1.73374 -0.834226 0
M  V30 13468 O 1255.8 1.90948 0.157943 0
M  V30 13469 C 1255.99 1.44206 -3.27016 0
M  V30 13470 C 1255.82 0.504059 -4.46866 0
M  V30 13471 C 1254.59 0.127948 -5.05138 0
M  V30 13472 C 1256.79 -0.214278 -5.13853 0
M  V30 13473 N 1254.77 -0.812111 -6.08505 0
M  V30 13474 C 1256.14 -1.01027 -6.11714 0
M  V30 13475 C 1258.2 -0.28204 -4.97101 0
M  V30 13476 C 1256.9 -1.86778 -6.94627 0
M  V30 13477 C 1258.93 -1.12664 -5.80569 0
M  V30 13478 C 1258.29 -1.91058 -6.77994 0
M  V30 13479 H 1254.39 0.239542 -0.744408 0
M  V30 13480 H 1256.97 -0.0149454 -1.94694 0
M  V30 13481 H 1255.14 2.15226 -3.23314 0
M  V30 13482 H 1256.88 2.08183 -3.47047 0
M  V30 13483 H 1253.63 0.488471 -4.71074 0
M  V30 13484 H 1254.06 -1.27642 -6.64858 0
M  V30 13485 H 1258.7 0.309735 -4.21664 0
M  V30 13486 H 1256.42 -2.47038 -7.69414 0
M  V30 13487 H 1260 -1.18251 -5.69656 0
M  V30 13488 H 1258.88 -2.55358 -7.41459 0
M  V30 13489 N 1256.39 1.54543 0.308881 0
M  V30 13490 C 1257.33 1.85693 1.40074 0
M  V30 13491 C 1258.33 0.730004 1.52864 0
M  V30 13492 O 1259.53 0.913884 1.55075 0
M  V30 13493 H 1255.91 0.588842 0.467728 0
M  V30 13494 H 1257.88 2.76973 1.11034 0
M  V30 13495 C 1256.63 2.11399 2.76054 0
M  V30 13496 H 1255.95 2.97583 2.66992 0
M  V30 13497 H 1257.39 2.37139 3.51484 0
M  V30 13498 C 1255.85 0.91007 3.24375 0
M  V30 13499 O 1256.38 0.12663 4.015 0
M  V30 13500 N 1254.59 0.717629 2.816 0
M  V30 13501 H 1254.13 1.35637 2.18998 0
M  V30 13502 H 1254.09 -0.0863585 3.14281 0
M  V30 13503 N 1257.86 -0.571685 1.46866 0
M  V30 13504 C 1258.81 -1.67992 1.58263 0
M  V30 13505 C 1259.78 -1.60535 0.426345 0
M  V30 13506 O 1260.97 -1.79584 0.644534 0
M  V30 13507 C 1258.11 -3.06327 1.58927 0
M  V30 13508 C 1257.22 -3.24328 2.85369 0
M  V30 13509 C 1256.35 -4.52976 2.77464 0
M  V30 13510 C 1255.39 -4.64359 3.98795 0
M  V30 13511 N 1254.53 -5.84345 3.89211 0
M  V30 13512 H 1259.37 -1.57589 2.52922 0
M  V30 13513 H 1256.91 -0.767883 1.25467 0
M  V30 13514 H 1258.86 -3.86411 1.57296 0
M  V30 13515 H 1257.49 -3.15601 0.677912 0
M  V30 13516 H 1256.55 -2.37774 2.96931 0
M  V30 13517 H 1257.86 -3.28605 3.7526 0
M  V30 13518 H 1257.01 -5.41303 2.74001 0
M  V30 13519 H 1255.75 -4.51155 1.85231 0
M  V30 13520 H 1254.76 -3.74448 4.02578 0
M  V30 13521 H 1255.98 -4.6795 4.92137 0
M  V30 13522 H 1253.93 -5.835 2.99772 0
M  V30 13523 H 1253.84 -5.89938 4.72768 0
M  V30 13524 H 1255.11 -6.75072 3.89741 0
M  V30 13525 N 1259.34 -1.34755 -0.817236 0
M  V30 13526 C 1260.59 -1.2762 -1.5761 0
M  V30 13527 C 1260.92 0.152017 -1.93604 0
M  V30 13528 O 1260.2 1.09881 -1.60488 0
M  V30 13529 C 1260.48 -2.17251 -2.87183 0
M  V30 13530 C 1260.33 -3.68638 -2.57733 0
M  V30 13531 C 1261.65 -2.06206 -3.88802 0
M  V30 13532 H 1258.77 -0.464933 -0.571845 0
M  V30 13533 H 1261.41 -1.6506 -0.941028 0
M  V30 13534 H 1259.56 -1.85452 -3.41379 0
M  V30 13535 H 1261.23 -4.10829 -2.09802 0
M  V30 13536 H 1259.48 -3.89445 -1.91089 0
M  V30 13537 H 1260.15 -4.26726 -3.50156 0
M  V30 13538 H 1262.62 -2.34137 -3.43975 0
M  V30 13539 H 1261.5 -2.71136 -4.77259 0
M  V30 13540 H 1261.76 -1.04075 -4.29675 0
M  V30 13541 N 1260.82 1.03812 -1.18578 0
M  V30 13542 C 1262.04 1.8124 -1.00831 0
M  V30 13543 C 1262.47 1.82917 0.43853 0
M  V30 13544 O 1261.83 1.24835 1.31476 0
M  V30 13545 C 1261.88 3.24592 -1.57075 0
M  V30 13546 O 1260.98 4.04688 -0.793824 0
M  V30 13547 H 1260.32 0.559846 -0.357028 0
M  V30 13548 H 1262.85 1.30724 -1.57393 0
M  V30 13549 H 1262.86 3.75363 -1.59896 0
M  V30 13550 H 1261.54 3.22686 -2.62387 0
M  V30 13551 H 1260.11 3.63359 -0.838134 0
M  V30 13552 N 1262.3 0.988223 1.22768 0
M  V30 13553 C 1263.24 0.534605 2.24523 0
M  V30 13554 C 1264.21 -0.430615 1.60421 0
M  V30 13555 O 1265.4 -0.336417 1.87811 0
M  V30 13556 C 1262.54 -0.149195 3.44777 0
M  V30 13557 C 1261.65 0.85721 4.2341 0
M  V30 13558 C 1260.79 0.147411 5.30995 0
M  V30 13559 C 1259.83 1.1425 6.01343 0
M  V30 13560 N 1258.96 0.461327 7.00583 0
M  V30 13561 H 1263.8 1.40708 2.62689 0
M  V30 13562 H 1261.34 0.704918 1.2911 0
M  V30 13563 H 1263.3 -0.562527 4.1339 0
M  V30 13564 H 1261.93 -0.985485 3.07389 0
M  V30 13565 H 1260.98 1.38889 3.54138 0
M  V30 13566 H 1262.29 1.61517 4.71926 0
M  V30 13567 H 1261.45 -0.32289 6.0584 0
M  V30 13568 H 1260.19 -0.643085 4.83442 0
M  V30 13569 H 1259.19 1.62348 5.25284 0
M  V30 13570 H 1260.42 1.93379 6.50985 0
M  V30 13571 H 1258.36 -0.309818 6.55268 0
M  V30 13572 H 1258.28 1.15781 7.47082 0
M  V30 13573 H 1259.55 0.0136734 7.79499 0
M  V30 13574 N 1263.78 -1.38018 0.760839 0
M  V30 13575 C 1264.74 -2.28734 0.146154 0
M  V30 13576 C 1265.74 -1.47525 -0.639768 0
M  V30 13577 O 1266.93 -1.6788 -0.464964 0
M  V30 13578 C 1264.06 -3.31356 -0.801019 0
M  V30 13579 H 1265.25 -2.84599 0.945692 0
M  V30 13580 H 1262.81 -1.471 0.528323 0
M  V30 13581 H 1263.54 -2.80594 -1.62597 0
M  V30 13582 H 1263.33 -3.91366 -0.239775 0
M  V30 13583 H 1264.82 -3.99171 -1.22687 0
M  V30 13584 N 1265.25 -0.510493 -1.49103 0
M  V30 13585 C 1266.16 0.267176 -2.33074 0
M  V30 13586 C 1267.18 0.958117 -1.45245 0
M  V30 13587 O 1268.36 0.937399 -1.78255 0
M  V30 13588 C 1265.42 1.31212 -3.20911 0
M  V30 13589 C 1264.48 0.633613 -4.24598 0
M  V30 13590 C 1263.71 1.62878 -5.08239 0
M  V30 13591 O 1263.94 2.85958 -4.93543 0
M  V30 13592 O 1262.87 1.17887 -5.90242 0
M  V30 13593 H 1266.7 -0.420384 -3.00776 0
M  V30 13594 H 1264.28 -0.271683 -1.46909 0
M  V30 13595 H 1266.16 1.91647 -3.75299 0
M  V30 13596 H 1264.84 1.98244 -2.55892 0
M  V30 13597 H 1263.75 -0.0107246 -3.74098 0
M  V30 13598 H 1265.08 0.0055777 -4.922 0
M  V30 13599 N 1266.73 1.55688 -0.24474 0
M  V30 13600 C 1267.96 2.03743 0.387776 0
M  V30 13601 C 1268.38 1.1229 1.50906 0
M  V30 13602 O 1267.74 0.115445 1.80932 0
M  V30 13603 C 1267.79 3.49825 0.874927 0
M  V30 13604 O 1266.89 3.61504 1.98466 0
M  V30 13605 H 1266.23 0.658561 0.0848107 0
M  V30 13606 H 1268.76 2.01224 -0.370165 0
M  V30 13607 H 1268.77 3.90603 1.17871 0
M  V30 13608 H 1267.45 4.15864 0.0543852 0
M  V30 13609 H 1266.02 3.32622 1.68574 0
M  V30 13610 N 1268.21 -0.0283989 1.57574 0
M  V30 13611 C 1269.14 -1.06191 2.01987 0
M  V30 13612 C 1270.12 -1.35131 0.90434 0
M  V30 13613 O 1271.3 -1.47777 1.17023 0
M  V30 13614 C 1268.43 -2.39646 2.39348 0
M  V30 13615 C 1267.48 -2.26558 3.6135 0
M  V30 13616 S 1268.31 -1.61839 5.10459 0
M  V30 13617 C 1269.47 -2.96783 5.51063 0
M  V30 13618 H 1269.7 -0.683625 2.89333 0
M  V30 13619 H 1267.23 -0.238394 1.52548 0
M  V30 13620 H 1269.19 -3.16394 2.61544 0
M  V30 13621 H 1267.85 -2.74622 1.52452 0
M  V30 13622 H 1267.04 -3.25079 3.85149 0
M  V30 13623 H 1266.65 -1.57954 3.39008 0
M  V30 13624 H 1268.94 -3.93111 5.51788 0
M  V30 13625 H 1269.88 -2.77716 6.51367 0
M  V30 13626 H 1270.29 -2.99386 4.78569 0
M  V30 13627 N 1269.69 -1.54705 -0.300681 0
M  V30 13628 C 1270.6 -1.88736 -1.39341 0
M  V30 13629 C 1271.61 -0.78155 -1.5546 0
M  V30 13630 O 1272.79 -1.07804 -1.70118 0
M  V30 13631 C 1269.85 -2.12795 -2.73713 0
M  V30 13632 C 1268.92 -3.36504 -2.66577 0
M  V30 13633 C 1268.15 -3.59407 -3.94541 0
M  V30 13634 O 1268.37 -2.85315 -4.93914 0
M  V30 13635 O 1267.31 -4.52923 -3.96415 0
M  V30 13636 H 1271.13 -2.817 -1.13484 0
M  V30 13637 H 1268.72 -1.40899 -0.496771 0
M  V30 13638 H 1270.6 -2.29819 -3.53215 0
M  V30 13639 H 1269.27 -1.23017 -2.99414 0
M  V30 13640 H 1268.18 -3.24844 -1.85546 0
M  V30 13641 H 1269.51 -4.26414 -2.45829 0
M  V30 13642 N 1271.17 0.563888 -1.47167 0
M  V30 13643 C 1272.39 1.34693 -1.57052 0
M  V30 13644 C 1272.81 1.87534 -0.218308 0
M  V30 13645 O 1272.17 1.64639 0.787416 0
M  V30 13646 C 1272.22 2.52148 -2.59044 0
M  V30 13647 O 1271.94 2.01492 -3.89015 0
M  V30 13648 C 1273.44 3.4445 -2.7905 0
M  V30 13649 H 1270.66 0.410822 -0.530534 0
M  V30 13650 H 1273.2 0.683731 -1.92731 0
M  V30 13651 H 1271.36 3.14419 -2.26317 0
M  V30 13652 H 1271.77 2.78122 -4.44689 0
M  V30 13653 H 1273.25 4.23297 -3.54293 0
M  V30 13654 H 1273.72 3.97575 -1.86631 0
M  V30 13655 H 1274.33 2.88 -3.12948 0
M  V30 13656 N 1272.64 1.35187 0.810078 0
M  V30 13657 C 1273.57 1.30481 1.93641 0
M  V30 13658 C 1274.56 0.179875 1.69146 0
M  V30 13659 O 1275.74 0.374284 1.90559 0
M  V30 13660 C 1272.87 1.07251 3.30325 0
M  V30 13661 C 1271.82 2.16348 3.69293 0
M  V30 13662 C 1271.15 1.78288 5.04101 0
M  V30 13663 C 1272.45 3.58285 3.80038 0
M  V30 13664 H 1274.14 2.24725 1.97836 0
M  V30 13665 H 1271.69 1.08179 0.950436 0
M  V30 13666 H 1273.64 1.02599 4.08719 0
M  V30 13667 H 1272.37 0.0945203 3.26463 0
M  V30 13668 H 1271.03 2.2009 2.93182 0
M  V30 13669 H 1270.67 0.791163 4.96739 0
M  V30 13670 H 1270.37 2.51315 5.31144 0
M  V30 13671 H 1271.9 1.75155 5.84938 0
M  V30 13672 H 1273.31 3.56884 4.48672 0
M  V30 13673 H 1271.71 4.30044 4.18548 0
M  V30 13674 H 1272.78 3.94691 2.81685 0
M  V30 13675 N 1274.12 -1.03182 1.19127 0
M  V30 13676 C 1275.53 -1.57984 0.994888 0
M  V30 13677 C 1275.88 -1.90898 -0.453019 0
M  V30 13678 O 1275.01 -1.70556 -1.33191 0
M  V30 13679 C 1275.6 -2.8705 1.79966 0
M  V30 13680 C 1274.16 -3.38435 1.64737 0
M  V30 13681 C 1273.31 -2.11912 1.78854 0
M  V30 13682 H 1276.26 -0.857458 1.33542 0
M  V30 13683 H 1276.28 -3.57821 1.294 0
M  V30 13684 H 1275.79 -2.63062 2.85341 0
M  V30 13685 H 1273.9 -3.67416 0.619358 0
M  V30 13686 H 1274.01 -4.11665 2.45089 0
M  V30 13687 H 1272.37 -2.23642 1.21886 0
M  V30 13688 H 1273.16 -1.90369 2.85682 0
M  V30 13689 N 1275.6 -0.99472 -1.22242 0
M  V30 13690 C 1276.51 -0.555502 -2.27928 0
M  V30 13691 C 1277.53 0.396584 -1.6942 0
M  V30 13692 O 1278.7 0.262965 -1.99676 0
M  V30 13693 C 1275.77 0.121121 -3.46488 0
M  V30 13694 C 1274.83 -0.874155 -4.20306 0
M  V30 13695 C 1274.06 -0.229726 -5.33205 0
M  V30 13696 O 1274.28 0.975935 -5.61989 0
M  V30 13697 O 1273.22 -0.935501 -5.94586 0
M  V30 13698 H 1277.04 -1.4348 -2.6767 0
M  V30 13699 H 1274.63 -0.763061 -1.28444 0
M  V30 13700 H 1276.51 0.500043 -4.18423 0
M  V30 13701 H 1275.19 0.974959 -3.08668 0
M  V30 13702 H 1274.09 -1.30404 -3.50636 0
M  V30 13703 H 1275.43 -1.69725 -4.62011 0
M  V30 13704 N 1277.08 1.37613 -0.768148 0
M  V30 13705 C 1278.49 1.53202 -0.44737 0
M  V30 13706 C 1278.69 1.72736 1.03752 0
M  V30 13707 O 1277.75 1.74667 1.8234 0
M  V30 13708 C 1279.06 2.7306 -1.25931 0
M  V30 13709 C 1280.61 2.8692 -1.25084 0
M  V30 13710 C 1281.09 4.09757 -2.04605 0
M  V30 13711 N 1282.58 4.16862 -2.0194 0
M  V30 13712 C 1283.31 5.10936 -2.60254 0
M  V30 13713 N 1282.81 6.1059 -3.27341 0
M  V30 13714 N 1284.6 5.03393 -2.50104 0
M  V30 13715 H 1276.75 1.23184 -1.7303 0
M  V30 13716 H 1279.02 0.599541 -0.73434 0
M  V30 13717 H 1278.72 2.65078 -2.31141 0
M  V30 13718 H 1278.6 3.66646 -0.886036 0
M  V30 13719 H 1280.98 2.94375 -0.206736 0
M  V30 13720 H 1281.06 1.94303 -1.66373 0
M  V30 13721 H 1280.71 4.03063 -3.09035 0
M  V30 13722 H 1280.64 5.01481 -1.60701 0
M  V30 13723 H 1283.13 3.455 -1.53096 0
M  V30 13724 H 1283.44 6.78893 -3.6922 0
M  V30 13725 H 1281.79 6.10879 -3.31439 0
M  V30 13726 H 1284.98 4.24483 -1.9731 0
M  V30 13727 H 1285.15 5.76524 -2.95844 0
M  V30 13728 N 1278.56 0.518393 1.4883 0
M  V30 13729 C 1279.78 -0.0162 2.06894 0
M  V30 13730 C 1280.2 -1.29222 1.37649 0
M  V30 13731 O 1279.56 -1.766 0.460288 0
M  V30 13732 C 1279.61 -0.255836 3.60594 0
M  V30 13733 O 1279.33 0.969612 4.27235 0
M  V30 13734 C 1280.83 -0.832117 4.3542 0
M  V30 13735 H 1278.05 0.0282877 0.670403 0
M  V30 13736 H 1280.59 0.720726 1.91379 0
M  V30 13737 H 1278.75 -0.942782 3.75753 0
M  V30 13738 H 1279.16 0.743172 5.19208 0
M  V30 13739 H 1280.64 -0.949279 5.43776 0
M  V30 13740 H 1281.11 -1.83421 3.99066 0
M  V30 13741 H 1281.72 -0.1821 4.2491 0
M  V30 13742 N 1280.03 -1.55556 0.252993 0
M  V30 13743 C 1280.98 -2.21634 -0.643979 0
M  V30 13744 C 1281.95 -1.18226 -1.1667 0
M  V30 13745 O 1283.14 -1.46694 -1.22006 0
M  V30 13746 C 1280.28 -2.92429 -1.83246 0
M  V30 13747 C 1279.39 -4.10506 -1.34569 0
M  V30 13748 C 1278.52 -4.69001 -2.49421 0
M  V30 13749 C 1277.56 -5.79315 -1.97636 0
M  V30 13750 N 1276.7 -6.31967 -3.05878 0
M  V30 13751 H 1281.54 -2.97909 -0.0738178 0
M  V30 13752 H 1279.08 -1.47079 -0.0246728 0
M  V30 13753 H 1281.04 -3.31678 -2.53072 0
M  V30 13754 H 1279.67 -2.18617 -2.375 0
M  V30 13755 H 1278.72 -3.76529 -0.541268 0
M  V30 13756 H 1280.03 -4.90125 -0.92622 0
M  V30 13757 H 1279.18 -5.10855 -3.27279 0
M  V30 13758 H 1277.92 -3.88612 -2.94673 0
M  V30 13759 H 1276.93 -5.36933 -1.18251 0
M  V30 13760 H 1278.15 -6.6156 -1.53347 0
M  V30 13761 H 1276.1 -5.5448 -3.50553 0
M  V30 13762 H 1276.02 -7.06797 -2.68281 0
M  V30 13763 H 1277.28 -6.7848 -3.83777 0
M  V30 13764 N 1281.51 0.0200419 -1.57587 0
M  V30 13765 C 1282.48 1.00255 -2.06111 0
M  V30 13766 C 1283.48 1.28488 -0.966829 0
M  V30 13767 O 1284.67 1.2334 -1.23015 0
M  V30 13768 C 1281.8 2.33296 -2.48567 0
M  V30 13769 H 1282.99 0.583216 -2.94174 0
M  V30 13770 H 1280.54 0.267077 -1.54001 0
M  V30 13771 H 1281.28 2.79959 -1.63687 0
M  V30 13772 H 1281.06 2.14131 -3.28467 0
M  V30 13773 H 1282.55 3.03817 -2.86505 0
M  V30 13774 N 1282.99 1.54862 0.292472 0
M  V30 13775 C 1284.22 1.78877 1.04966 0
M  V30 13776 C 1284.64 0.550724 1.79857 0
M  V30 13777 O 1284 -0.499054 1.74296 0
M  V30 13778 C 1284.05 3.00106 1.99922 0
M  V30 13779 O 1283.15 2.73827 3.0837 0
M  V30 13780 H 1282.49 0.591802 0.301108 0
M  V30 13781 H 1285.02 2.01965 0.3273 0
M  V30 13782 H 1285.03 3.28309 2.42233 0
M  V30 13783 H 1283.71 3.89872 1.44821 0
M  V30 13784 H 1282.28 2.56665 2.70513 0
M  V30 13785 N 1284.47 -0.556076 1.47464 0
M  V30 13786 C 1285.72 -1.31061 1.53842 0
M  V30 13787 C 1286.04 -1.93943 0.202806 0
M  V30 13788 O 1285.31 -1.7999 -0.773338 0
M  V30 13789 H 1283.89 -0.486696 0.566689 0
M  V30 13790 H 1286.55 -0.64924 1.83769 0
M  V30 13791 H 1285.65 -2.10354 2.30559 0
M  V30 13792 N 1285.95 -1.35615 -0.802897 0
M  V30 13793 C 1286.86 -1.3096 -1.94645 0
M  V30 13794 C 1287.87 -0.213909 -1.7268 0
M  V30 13795 O 1289.05 -0.443932 -1.96446 0
M  V30 13796 C 1286.11 -1.08483 -3.2929 0
M  V30 13797 C 1285.18 -2.27401 -3.64126 0
M  V30 13798 C 1284.41 -2.05987 -4.92347 0
M  V30 13799 O 1284.63 -1.02819 -5.61057 0
M  V30 13800 O 1283.57 -2.93439 -5.25526 0
M  V30 13801 H 1287.39 -2.27209 -2.01519 0
M  V30 13802 H 1284.98 -1.16024 -0.941214 0
M  V30 13803 H 1286.86 -0.978118 -4.09891 0
M  V30 13804 H 1285.53 -0.152885 -3.23339 0
M  V30 13805 H 1284.44 -2.43638 -2.83886 0
M  V30 13806 H 1285.77 -3.19055 -3.74786 0
M  V30 13807 N 1287.43 1.02549 -1.19673 0
M  V30 13808 C 1288.39 2.09064 -0.939407 0
M  V30 13809 C 1289.39 1.60593 0.0814837 0
M  V30 13810 O 1290.58 1.73521 -0.153626 0
M  V30 13811 C 1287.71 3.38395 -0.412513 0
M  V30 13812 H 1288.9 2.33325 -1.88413 0
M  V30 13813 H 1286.46 1.19211 -1.01086 0
M  V30 13814 H 1287.19 3.19805 0.538094 0
M  V30 13815 H 1286.98 3.74898 -1.14863 0
M  V30 13816 H 1288.47 4.16841 -0.251678 0
M  V30 13817 N 1288.9 1.00119 1.21713 0
M  V30 13818 C 1290.13 0.700431 1.94683 0
M  V30 13819 C 1290.55 -0.736333 1.73849 0
M  V30 13820 O 1289.9 -1.49778 1.04272 0
M  V30 13821 C 1289.95 1.00722 3.47185 0
M  V30 13822 O 1289.68 2.38754 3.67326 0
M  V30 13823 C 1291.18 0.725335 4.37326 0
M  V30 13824 H 1288.4 0.25843 0.619238 0
M  V30 13825 H 1290.94 1.3382 1.54636 0
M  V30 13826 H 1289.1 0.415117 3.85169 0
M  V30 13827 H 1289.51 2.49321 4.61454 0
M  V30 13828 H 1290.98 0.990202 5.43046 0
M  V30 13829 H 1291.46 -0.340649 4.37877 0
M  V30 13830 H 1292.07 1.29888 4.04981 0
M  V30 13831 N 1290.38 -1.37203 0.775435 0
M  V30 13832 C 1291.31 -2.32819 0.17826 0
M  V30 13833 C 1292.29 -1.55963 -0.678944 0
M  V30 13834 O 1293.48 -1.84183 -0.615648 0
M  V30 13835 C 1290.61 -3.40198 -0.698768 0
M  V30 13836 C 1289.56 -4.27961 0.057423 0
M  V30 13837 C 1288.89 -5.26385 -0.93929 0
M  V30 13838 C 1290.19 -5.07402 1.23856 0
M  V30 13839 H 1291.88 -2.8301 0.977028 0
M  V30 13840 H 1289.43 -1.3607 0.471274 0
M  V30 13841 H 1291.38 -4.06067 -1.12637 0
M  V30 13842 H 1290.1 -2.88541 -1.53009 0
M  V30 13843 H 1288.76 -3.63628 0.465848 0
M  V30 13844 H 1288.41 -4.71007 -1.76527 0
M  V30 13845 H 1288.11 -5.85966 -0.437844 0
M  V30 13846 H 1289.64 -5.9513 -1.36576 0
M  V30 13847 H 1291.05 -5.6639 0.887423 0
M  V30 13848 H 1289.45 -5.76327 1.67234 0
M  V30 13849 H 1290.52 -4.3986 2.04085 0
M  V30 13850 N 1291.86 -0.526279 -1.48553 0
M  V30 13851 C 1292.81 0.238513 -2.29564 0
M  V30 13852 C 1293.78 0.937222 -1.37133 0
M  V30 13853 O 1294.96 0.93897 -1.66096 0
M  V30 13854 C 1292.1 1.28173 -3.20415 0
M  V30 13855 C 1291.21 0.592244 -4.27921 0
M  V30 13856 C 1290.35 1.61808 -5.05956 0
M  V30 13857 C 1289.39 0.911846 -6.0527 0
M  V30 13858 N 1288.53 1.88305 -6.76377 0
M  V30 13859 H 1293.37 -0.458502 -2.94452 0
M  V30 13860 H 1290.9 -0.237948 -1.45163 0
M  V30 13861 H 1292.86 1.89883 -3.71484 0
M  V30 13862 H 1291.49 1.94718 -2.57458 0
M  V30 13863 H 1290.54 -0.138714 -3.80147 0
M  V30 13864 H 1291.85 0.0375427 -4.98786 0
M  V30 13865 H 1291.01 2.30956 -5.61021 0
M  V30 13866 H 1289.75 2.20667 -4.34922 0
M  V30 13867 H 1288.75 0.206273 -5.49413 0
M  V30 13868 H 1289.98 0.329415 -6.78301 0
M  V30 13869 H 1287.92 2.46079 -6.08096 0
M  V30 13870 H 1287.84 1.37969 -7.43304 0
M  V30 13871 H 1289.11 2.56663 -7.36033 0
M  V30 13872 N 1293.34 1.5542 -0.261239 0
M  V30 13873 C 1294.28 2.21972 0.632216 0
M  V30 13874 C 1295.25 1.18843 1.16041 0
M  V30 13875 O 1296.44 1.47339 1.21226 0
M  V30 13876 C 1293.58 2.93397 1.81693 0
M  V30 13877 C 1292.69 4.11214 1.3239 0
M  V30 13878 C 1291.83 4.70318 2.46931 0
M  V30 13879 C 1290.87 5.80355 1.94561 0
M  V30 13880 N 1290 6.33581 3.02523 0
M  V30 13881 H 1294.84 2.97944 0.058018 0
M  V30 13882 H 1292.38 1.4709 0.0168725 0
M  V30 13883 H 1294.34 3.33015 2.5131 0
M  V30 13884 H 1292.97 2.19874 2.36337 0
M  V30 13885 H 1292.02 3.76811 0.521292 0
M  V30 13886 H 1293.33 4.90609 0.900214 0
M  V30 13887 H 1292.49 5.12584 3.24565 0
M  V30 13888 H 1291.23 3.90169 2.92608 0
M  V30 13889 H 1290.23 5.37552 1.15402 0
M  V30 13890 H 1291.46 6.62364 1.49836 0
M  V30 13891 H 1289.4 5.56332 3.47608 0
M  V30 13892 H 1289.32 7.08209 2.64529 0
M  V30 13893 H 1290.59 6.80506 3.80174 0
M  V30 13894 N 1294.82 -0.0116844 1.57596 0
M  V30 13895 C 1296.04 -0.71026 1.94327 0
M  V30 13896 C 1296.46 -1.67952 0.862418 0
M  V30 13897 O 1295.82 -1.818 -0.159698 0
M  V30 13898 C 1295.87 -1.45228 3.31045 0
M  V30 13899 O 1295.59 -0.52191 4.3498 0
M  V30 13900 C 1297.09 -2.24644 3.82165 0
M  V30 13901 H 1294.31 -0.198559 0.640949 0
M  V30 13902 H 1296.85 0.0359615 2.04468 0
M  V30 13903 H 1295.01 -2.15023 3.22248 0
M  V30 13904 H 1295.42 -1.04415 5.14002 0
M  V30 13905 H 1296.9 -2.72078 4.80289 0
M  V30 13906 H 1297.37 -3.06817 3.14261 0
M  V30 13907 H 1297.98 -1.59888 3.94101 0
M  V30 13908 N 1296.29 -1.55015 -0.284256 0
M  V30 13909 C 1297.57 -1.6579 -1.03794 0
M  V30 13910 C 1297.95 -0.517029 -2.04671 0
M  V30 13911 O 1297.3 0.484287 -2.23309 0
M  V30 13912 C 1297.51 -3.04527 -1.70483 0
M  V30 13913 C 1298.86 -3.61903 -2.22062 0
M  V30 13914 O 1299.88 -3.07087 -1.80488 0
M  V30 13915 O 1298.74 -4.57917 -2.98286 0
M  V30 13916 H 1295.83 -0.672906 -0.480757 0
M  V30 13917 H 1298.38 -1.67357 -0.281009 0
M  V30 13918 H 1297.15 -3.79004 -0.973238 0
M  V30 13919 H 1296.77 -3.0681 -2.5289 0
M  V30 13920 N 1297.77 0.548248 -1.47757 0
M  V30 13921 C 1299 1.335 -1.58722 0
M  V30 13922 C 1299.42 1.86549 -0.241034 0
M  V30 13923 O 1298.78 1.63447 0.784517 0
M  V30 13924 C 1298.83 2.47457 -2.62293 0
M  V30 13925 O 1297.93 3.49956 -2.18185 0
M  V30 13926 H 1297.27 0.396166 -0.532868 0
M  V30 13927 H 1299.8 0.66164 -1.93607 0
M  V30 13928 H 1299.81 2.93901 -2.82995 0
M  V30 13929 H 1298.49 2.08203 -3.60034 0
M  V30 13930 H 1297.06 3.09755 -2.0762 0
M  V30 13931 N 1299.25 1.36039 0.795694 0
M  V30 13932 C 1300.49 1.31295 1.56656 0
M  V30 13933 C 1300.85 -0.108324 1.91694 0
M  V30 13934 O 1302.05 -0.280248 2.67335 0
M  V30 13935 C 1300.33 2.20411 2.81343 0
M  V30 13936 S 1301.88 2.33289 3.71647 0
M  V30 13937 H 1298.7 0.46644 0.536614 0
M  V30 13938 H 1301.3 1.71544 0.937697 0
M  V30 13939 H 1300.01 3.22635 2.53643 0
M  V30 13940 H 1299.54 1.81158 3.49207 0
M  V30 13941 H 1301.55 1.52575 4.7216 0
M  V30 13942 N 1300.73 -1.01913 1.20215 0
M  V30 13943 C 1302.01 -1.7262 0.919867 0
M  V30 13944 C 1302.39 -2.03203 -0.572001 0
M  V30 13945 O 1301.73 -1.69448 -1.53296 0
M  V30 13946 C 1301.94 -2.9959 1.79016 0
M  V30 13947 C 1303.29 -3.72905 2.03045 0
M  V30 13948 O 1304.32 -3.0954 1.76249 0
M  V30 13949 O 1303.17 -4.86844 2.48285 0
M  V30 13950 H 1300.27 -0.752194 0.343705 0
M  V30 13951 H 1302.81 -1.07783 1.31076 0
M  V30 13952 H 1301.59 -2.73292 2.80048 0
M  V30 13953 H 1301.21 -3.72168 1.39918 0
M  V30 13954 N 1302.21 -1.00763 -1.2118 0
M  V30 13955 C 1303.43 -0.710515 -1.9485 0
M  V30 13956 C 1303.86 0.720934 -1.73736 0
M  V30 13957 O 1303.21 1.49484 -1.02588 0
M  V30 13958 C 1303.26 -1.04035 -3.45267 0
M  V30 13959 O 1302.37 -0.147047 -4.12138 0
M  V30 13960 H 1301.71 -0.264472 -0.609057 0
M  V30 13961 H 1304.24 -1.34858 -1.53865 0
M  V30 13962 H 1304.25 -0.9883 -3.95849 0
M  V30 13963 H 1302.92 -2.08334 -3.59958 0
M  V30 13964 H 1301.5 -0.255847 -3.72021 0
M  V30 13965 N 1303.68 1.3679 -0.7827 0
M  V30 13966 C 1304.93 1.99023 -0.351316 0
M  V30 13967 C 1305.25 1.62436 1.07887 0
M  V30 13968 O 1304.52 0.895084 1.74256 0
M  V30 13969 H 1303.1 0.736141 -0.126909 0
M  V30 13970 H 1305.77 1.67095 -1.00325 0
M  V30 13971 H 1304.86 3.09015 -0.43774 0
M  V30 13972 N 1305.16 0.53415 1.48272 0
M  V30 13973 C 1306.41 -0.000450626 2.017 0
M  V30 13974 C 1306.72 -1.34926 1.41613 0
M  V30 13975 O 1307.93 -1.97246 1.86564 0
M  V30 13976 C 1306.39 -0.0511883 3.59864 0
M  V30 13977 C 1305.99 1.29298 4.28936 0
M  V30 13978 C 1307.74 -0.534397 4.21123 0
M  V30 13979 C 1305.65 1.2026 5.79044 0
M  V30 13980 H 1304.58 -0.00393844 0.75399 0
M  V30 13981 H 1307.23 0.678554 1.70493 0
M  V30 13982 H 1305.61 -0.795358 3.8793 0
M  V30 13983 H 1306.78 2.05305 4.12537 0
M  V30 13984 H 1305.1 1.71226 3.79566 0
M  V30 13985 H 1307.69 -0.620048 5.31093 0
M  V30 13986 H 1308.04 -1.54114 3.86723 0
M  V30 13987 H 1308.57 0.154215 3.97501 0
M  V30 13988 H 1305.31 2.18463 6.18025 0
M  V30 13989 H 1304.83 0.483971 5.97844 0
M  V30 13990 H 1306.51 0.895005 6.4078 0
M  V30 13991 N 1306.64 -1.55279 0.269478 0
M  V30 13992 C 1307.87 -2.03876 -0.352418 0
M  V30 13993 C 1308.28 -1.14804 -1.49885 0
M  V30 13994 O 1307.64 -0.166989 -1.81734 0
M  V30 13995 C 1307.69 -3.51634 -0.838799 0
M  V30 13996 O 1307.41 -4.37316 0.261972 0
M  V30 13997 C 1308.91 -4.16094 -1.52909 0
M  V30 13998 H 1306.13 -0.66608 -0.0811043 0
M  V30 13999 H 1308.68 -2.00551 0.399929 0
M  V30 14000 H 1306.83 -3.55421 -1.54125 0
M  V30 14001 H 1307.25 -5.24383 -0.111013 0
M  V30 14002 H 1308.72 -5.21102 -1.82089 0
M  V30 14003 H 1309.2 -3.63928 -2.45872 0
M  V30 14004 H 1309.8 -4.16293 -0.87063 0
M  V30 14005 N 1308.12 0.00332656 -1.576 0
M  V30 14006 C 1309.07 0.99581 -2.08212 0
M  V30 14007 C 1310.04 1.34342 -0.976804 0
M  V30 14008 O 1311.22 1.44236 -1.24902 0
M  V30 14009 C 1308.36 2.2836 -2.58739 0
M  V30 14010 C 1307.47 1.99531 -3.8316 0
M  V30 14011 C 1306.61 3.22367 -4.222 0
M  V30 14012 C 1305.65 2.89209 -5.39467 0
M  V30 14013 N 1304.78 4.04572 -5.73817 0
M  V30 14014 H 1309.62 0.55727 -2.92743 0
M  V30 14015 H 1307.16 0.263513 -1.4472 0
M  V30 14016 H 1309.12 3.03639 -2.86111 0
M  V30 14017 H 1307.75 2.69889 -1.77087 0
M  V30 14018 H 1306.8 1.14634 -3.62716 0
M  V30 14019 H 1308.11 1.71089 -4.6854 0
M  V30 14020 H 1307.27 4.05994 -4.50837 0
M  V30 14021 H 1306.01 3.53944 -3.35522 0
M  V30 14022 H 1305.01 2.03989 -5.10557 0
M  V30 14023 H 1306.24 2.58883 -6.27819 0
M  V30 14024 H 1304.18 4.36052 -4.90096 0
M  V30 14025 H 1304.1 3.79643 -6.53764 0
M  V30 14026 H 1305.37 4.88998 -6.07043 0
M  V30 14027 N 1309.6 1.55164 0.276031 0
M  V30 14028 C 1310.82 1.7998 1.03063 0
M  V30 14029 C 1311.25 0.569769 1.79263 0
M  V30 14030 O 1310.6 -0.48054 1.74816 0
M  V30 14031 C 1310.65 3.02209 1.96728 0
M  V30 14032 O 1309.76 2.77083 3.05449 0
M  V30 14033 H 1309.1 0.594963 0.294814 0
M  V30 14034 H 1311.63 2.02301 0.305861 0
M  V30 14035 H 1311.64 3.3086 2.38738 0
M  V30 14036 H 1310.31 3.91386 1.40677 0
M  V30 14037 H 1308.89 2.5952 2.67776 0
M  V30 14038 N 1311.07 -0.540404 1.48045 0
M  V30 14039 C 1312.35 -1.30148 1.46017 0
M  V30 14040 C 1312.73 -2.10445 0.166171 0
M  V30 14041 O 1312.08 -2.12013 -0.852223 0
M  V30 14042 C 1312.29 -2.19177 2.71593 0
M  V30 14043 C 1313.64 -2.79655 3.19497 0
M  V30 14044 O 1314.66 -2.2947 2.72437 0
M  V30 14045 O 1313.52 -3.70912 4.01356 0
M  V30 14046 H 1310.61 -0.586879 0.582668 0
M  V30 14047 H 1313.16 -0.557918 1.60267 0
M  V30 14048 H 1311.93 -1.59556 3.57292 0
M  V30 14049 H 1311.56 -3.00798 2.60012 0
M  V30 14050 N 1312.55 -1.36459 -0.788468 0
M  V30 14051 C 1313.48 -1.33545 -1.91541 0
M  V30 14052 C 1314.46 -0.206762 -1.68839 0
M  V30 14053 O 1315.65 -0.404553 -1.89939 0
M  V30 14054 C 1312.78 -1.12492 -3.28577 0
M  V30 14055 C 1311.73 -2.22196 -3.65805 0
M  V30 14056 C 1311.06 -1.86285 -5.01201 0
M  V30 14057 C 1312.36 -3.64286 -3.7429 0
M  V30 14058 H 1314.05 -2.27844 -1.94236 0
M  V30 14059 H 1311.6 -1.09677 -0.933105 0
M  V30 14060 H 1313.55 -1.09089 -4.07035 0
M  V30 14061 H 1312.28 -0.146446 -3.26272 0
M  V30 14062 H 1310.93 -2.24727 -2.89644 0
M  V30 14063 H 1310.58 -0.87009 -4.95417 0
M  V30 14064 H 1310.28 -2.59734 -5.27079 0
M  V30 14065 H 1311.81 -1.84439 -5.82078 0
M  V30 14066 H 1313.22 -3.63977 -4.42937 0
M  V30 14067 H 1311.62 -4.36648 -4.11653 0
M  V30 14068 H 1312.69 -3.99123 -2.75371 0
M  V30 14069 N 1314.03 1.01274 -1.20754 0
M  V30 14070 C 1315.45 1.27256 -0.963221 0
M  V30 14071 C 1315.65 1.98349 0.354972 0
M  V30 14072 O 1314.7 2.28116 1.08255 0
M  V30 14073 C 1316.02 2.1038 -2.14851 0
M  V30 14074 C 1317.56 2.23633 -2.18991 0
M  V30 14075 C 1318.04 3.10136 -3.37016 0
M  V30 14076 N 1319.53 3.17724 -3.37054 0
M  V30 14077 C 1320.26 3.84891 -4.25025 0
M  V30 14078 N 1319.76 4.54152 -5.23181 0
M  V30 14079 N 1321.55 3.81454 -4.12855 0
M  V30 14080 H 1313.7 0.535534 -2.05538 0
M  V30 14081 H 1315.97 0.299006 -0.899611 0
M  V30 14082 H 1315.67 1.65484 -3.10335 0
M  V30 14083 H 1315.55 3.11122 -2.13267 0
M  V30 14084 H 1317.93 2.67753 -1.24067 0
M  V30 14085 H 1318.02 1.22387 -2.24622 0
M  V30 14086 H 1317.66 2.66721 -4.32229 0
M  V30 14087 H 1317.59 4.11478 -3.28623 0
M  V30 14088 H 1320.08 2.68412 -2.66014 0
M  V30 14089 H 1320.39 5.03084 -5.86623 0
M  V30 14090 H 1318.74 4.52964 -5.27113 0
M  V30 14091 H 1321.93 3.26494 -3.35439 0
M  V30 14092 H 1322.1 4.33523 -4.81624 0
M  V30 14093 N 1315.51 1.01404 1.20644 0
M  V30 14094 C 1316.44 0.602465 2.25594 0
M  V30 14095 C 1317.42 -0.381216 1.65773 0
M  V30 14096 O 1318.61 -0.267209 1.92353 0
M  V30 14097 C 1315.74 -0.0626245 3.47244 0
M  V30 14098 C 1314.69 0.841776 4.1964 0
M  V30 14099 C 1314.02 0.0426002 5.34683 0
M  V30 14100 C 1315.32 2.14864 4.76058 0
M  V30 14101 H 1317.01 1.47977 2.60275 0
M  V30 14102 H 1314.56 0.712966 1.25111 0
M  V30 14103 H 1316.51 -0.362095 4.19841 0
M  V30 14104 H 1315.23 -0.974627 3.11719 0
M  V30 14105 H 1313.89 1.12521 3.48905 0
M  V30 14106 H 1313.54 -0.870973 4.95402 0
M  V30 14107 H 1313.24 0.644866 5.84051 0
M  V30 14108 H 1314.76 -0.250476 6.10086 0
M  V30 14109 H 1316.18 1.9117 5.40488 0
M  V30 14110 H 1314.57 2.70153 5.35852 0
M  V30 14111 H 1315.64 2.81336 3.9494 0
M  V30 14112 N 1316.99 -1.36373 0.789944 0
M  V30 14113 C 1318.26 -1.9349 0.286543 0
M  V30 14114 C 1318.64 -1.7218 -1.22136 0
M  V30 14115 O 1317.99 -1.08106 -2.01309 0
M  V30 14116 C 1318.2 -3.42316 0.679749 0
M  V30 14117 C 1319.55 -4.19442 0.659791 0
M  V30 14118 O 1320.57 -3.50758 0.620256 0
M  V30 14119 O 1319.43 -5.41957 0.703159 0
M  V30 14120 H 1316.53 -0.823942 0.0710537 0
M  V30 14121 H 1319.07 -1.45551 0.872523 0
M  V30 14122 H 1317.85 -3.51485 1.7197 0
M  V30 14123 H 1317.47 -3.97542 0.0676823 0
M  V30 14124 N 1318.47 -0.542005 -1.47987 0
M  V30 14125 C 1319.41 0.227398 -2.31486 0
M  V30 14126 C 1320.41 0.923984 -1.41982 0
M  V30 14127 O 1321.61 0.847 -1.58827 0
M  V30 14128 H 1317.99 0.0922034 -0.746326 0
M  V30 14129 H 1319.96 -0.49625 -2.94245 0
M  V30 14130 C 1318.71 1.25384 -3.24306 0
M  V30 14131 H 1318.03 0.727243 -3.9313 0
M  V30 14132 H 1319.47 1.76337 -3.85592 0
M  V30 14133 C 1317.93 2.29378 -2.46754 0
M  V30 14134 O 1318.46 3.36034 -2.201 0
M  V30 14135 N 1316.67 2.02905 -2.08033 0
M  V30 14136 H 1316.21 1.16186 -2.2991 0
M  V30 14137 H 1316.17 2.72705 -1.56458 0
M  V30 14138 N 1319.94 1.55134 -0.277709 0
M  V30 14139 C 1321.19 1.99949 0.338831 0
M  V30 14140 C 1321.52 1.16587 1.5531 0
M  V30 14141 O 1320.8 0.236572 1.93056 0
M  V30 14142 C 1321.08 3.5286 0.718457 0
M  V30 14143 C 1320.93 4.46975 -0.503332 0
M  V30 14144 C 1322.25 4.11754 1.55392 0
M  V30 14145 H 1319.37 0.726885 0.121682 0
M  V30 14146 H 1322.01 1.86055 -0.385171 0
M  V30 14147 H 1320.16 3.64831 1.33531 0
M  V30 14148 H 1321.84 4.46944 -1.14188 0
M  V30 14149 H 1320.08 4.18528 -1.14092 0
M  V30 14150 H 1320.75 5.51659 -0.193912 0
M  V30 14151 H 1323.23 4.03075 1.03293 0
M  V30 14152 H 1322.1 5.1895 1.78835 0
M  V30 14153 H 1322.36 3.62147 2.53578 0
M  V30 14154 N 1321.42 0.00503138 1.57599 0
M  V30 14155 C 1322.67 -0.67742 1.90409 0
M  V30 14156 C 1322.99 -1.74033 0.87963 0
M  V30 14157 O 1322.26 -1.95727 -0.0822757 0
M  V30 14158 H 1320.84 -0.2532 0.702779 0
M  V30 14159 H 1323.5 0.0471466 1.94843 0
M  V30 14160 H 1322.6 -1.14548 2.90319 0
M  V30 14161 N 1322.9 -1.55308 -0.267798 0
M  V30 14162 C 1323.81 -1.91649 -1.35307 0
M  V30 14163 C 1324.83 -0.814349 -1.53767 0
M  V30 14164 O 1326 -1.11388 -1.67793 0
M  V30 14165 C 1323.07 -2.18553 -2.69138 0
M  V30 14166 C 1322.13 -3.42083 -2.5938 0
M  V30 14167 C 1321.36 -3.67695 -3.86828 0
M  V30 14168 O 1321.58 -2.95728 -4.87751 0
M  V30 14169 O 1320.52 -4.61229 -3.86718 0
M  V30 14170 H 1324.34 -2.84044 -1.07483 0
M  V30 14171 H 1321.93 -1.41921 -0.466772 0
M  V30 14172 H 1323.81 -2.3726 -3.48261 0
M  V30 14173 H 1322.49 -1.2934 -2.96737 0
M  V30 14174 H 1321.39 -3.28706 -1.78614 0
M  V30 14175 H 1322.73 -4.31532 -2.36729 0
M  V30 14176 N 1324.38 0.532545 -1.4833 0
M  V30 14177 C 1325.34 1.61955 -1.62183 0
M  V30 14178 C 1326.34 1.52982 -0.495281 0
M  V30 14179 O 1327.53 1.56698 -0.761005 0
M  V30 14180 C 1324.66 3.0157 -1.58961 0
M  V30 14181 H 1325.86 1.51013 -2.59105 0
M  V30 14182 H 1323.41 0.754405 -1.36888 0
M  V30 14183 H 1324.14 3.18021 -0.635069 0
M  V30 14184 H 1323.93 3.09491 -2.40744 0
M  V30 14185 H 1325.42 3.80604 -1.71843 0
M  V30 14186 N 1325.86 1.36875 0.78122 0
M  V30 14187 C 1327.27 1.17467 1.08044 0
M  V30 14188 C 1327.47 0.00434799 2.015 0
M  V30 14189 O 1326.53 -0.658499 2.43762 0
M  V30 14190 C 1327.84 2.48917 1.68704 0
M  V30 14191 C 1329.39 2.55354 1.81007 0
M  V30 14192 C 1329.86 3.8691 2.45081 0
M  V30 14193 N 1331.35 3.88301 2.52541 0
M  V30 14194 C 1332.09 4.86837 3.02947 0
M  V30 14195 N 1331.59 5.95768 3.53598 0
M  V30 14196 N 1333.38 4.74249 3.01735 0
M  V30 14197 H 1325.53 2.11793 0.160503 0
M  V30 14198 H 1327.79 0.938507 0.133825 0
M  V30 14199 H 1327.5 3.34867 1.07503 0
M  V30 14200 H 1327.37 2.65319 2.68115 0
M  V30 14201 H 1329.76 1.69816 2.41343 0
M  V30 14202 H 1329.84 2.42843 0.803783 0
M  V30 14203 H 1329.48 4.72858 1.85386 0
M  V30 14204 H 1329.41 3.9672 3.46296 0
M  V30 14205 H 1331.91 3.09607 2.16684 0
M  V30 14206 H 1332.22 6.66918 3.90435 0
M  V30 14207 H 1330.56 5.99426 3.51728 0
M  V30 14208 H 1333.75 3.88275 2.61458 0
M  V30 14209 H 1333.93 5.512 3.40709 0
M  V30 14210 N 1327.33 -1.00632 1.21289 0
M  V30 14211 C 1328.56 -1.78503 1.05601 0
M  V30 14212 C 1328.98 -1.84015 -0.389879 0
M  V30 14213 O 1328.34 -1.28277 -1.2812 0
M  V30 14214 C 1328.39 -3.20313 1.65626 0
M  V30 14215 O 1327.49 -4.02441 0.900841 0
M  V30 14216 H 1326.83 -0.550183 0.371746 0
M  V30 14217 H 1329.36 -1.26505 1.60803 0
M  V30 14218 H 1329.37 -3.70992 1.69792 0
M  V30 14219 H 1328.05 -3.15616 2.7085 0
M  V30 14220 H 1326.63 -3.61009 0.934178 0
M  V30 14221 N 1328.81 -1.02043 -1.20104 0
M  V30 14222 C 1330.22 -0.742954 -1.71281 0
M  V30 14223 C 1330.57 0.738173 -1.81784 0
M  V30 14224 O 1329.7 1.57588 -1.48307 0
M  V30 14225 C 1330.29 -1.342 -3.11088 0
M  V30 14226 C 1328.85 -1.11331 -3.59559 0
M  V30 14227 C 1328 -1.44532 -2.36655 0
M  V30 14228 H 1330.95 -1.18942 -1.05064 0
M  V30 14229 H 1330.97 -0.734558 -3.73342 0
M  V30 14230 H 1330.48 -2.41998 -3.03411 0
M  V30 14231 H 1328.58 -0.05317 -3.72562 0
M  V30 14232 H 1328.7 -1.79606 -4.4416 0
M  V30 14233 H 1327.06 -0.864431 -2.39582 0
M  V30 14234 H 1327.84 -2.53394 -2.31616 0
M  V30 14235 N 1330.29 1.35952 -0.797165 0
M  V30 14236 C 1331.22 2.28649 -0.15877 0
M  V30 14237 C 1332.24 1.49842 0.636481 0
M  V30 14238 O 1333.42 1.72191 0.47039 0
M  V30 14239 C 1330.52 3.29373 0.797913 0
M  V30 14240 C 1329.7 4.3737 0.0510574 0
M  V30 14241 C 1328.76 5.18009 0.924826 0
M  V30 14242 O 1327.78 5.67935 0.379223 0
M  V30 14243 N 1328.98 5.352 2.24813 0
M  V30 14244 H 1331.75 2.84075 -0.955056 0
M  V30 14245 H 1329.31 1.48201 -0.651767 0
M  V30 14246 H 1331.3 3.80209 1.38646 0
M  V30 14247 H 1329.87 2.74531 1.49504 0
M  V30 14248 H 1329.09 3.87594 -0.718633 0
M  V30 14249 H 1330.38 5.0668 -0.464025 0
M  V30 14250 H 1329.78 4.96266 2.71545 0
M  V30 14251 H 1328.34 5.89252 2.78614 0
M  V30 14252 N 1331.77 0.549846 1.47697 0
M  V30 14253 C 1333.05 -0.0422793 1.95554 0
M  V30 14254 C 1333.43 -1.49303 1.49238 0
M  V30 14255 O 1332.77 -2.16598 0.727844 0
M  V30 14256 C 1332.98 0.0955552 3.48869 0
M  V30 14257 C 1334.33 -0.0535698 4.24566 0
M  V30 14258 O 1335.36 0.0227365 3.56193 0
M  V30 14259 O 1334.21 -0.21645 5.46071 0
M  V30 14260 H 1331.31 -0.0682465 0.824179 0
M  V30 14261 H 1333.85 0.615849 1.58131 0
M  V30 14262 H 1332.63 1.10536 3.75363 0
M  V30 14263 H 1332.25 -0.600522 3.93039 0
M  V30 14264 N 1333.25 -1.54984 0.285932 0
M  V30 14265 C 1334.66 -1.59455 -0.0679061 0
M  V30 14266 C 1334.86 -1.30308 -1.53695 0
M  V30 14267 O 1333.92 -1.06918 -2.28746 0
M  V30 14268 C 1335.23 -2.9903 0.316469 0
M  V30 14269 C 1336.78 -3.11885 0.263982 0
M  V30 14270 C 1337.25 -4.53744 0.622956 0
M  V30 14271 N 1338.75 -4.59618 0.574917 0
M  V30 14272 C 1339.48 -5.67429 0.825339 0
M  V30 14273 N 1338.98 -6.83341 1.14094 0
M  V30 14274 N 1340.77 -5.57028 0.75341 0
M  V30 14275 H 1332.92 -1.72194 1.2435 0
M  V30 14276 H 1335.18 -0.80348 0.503114 0
M  V30 14277 H 1334.89 -3.25232 1.33855 0
M  V30 14278 H 1334.76 -3.75688 -0.337371 0
M  V30 14279 H 1337.15 -2.85441 -0.748832 0
M  V30 14280 H 1337.23 -2.37416 0.952233 0
M  V30 14281 H 1336.88 -4.80915 1.63351 0
M  V30 14282 H 1336.81 -5.26528 -0.0872039 0
M  V30 14283 H 1339.3 -3.76356 0.341305 0
M  V30 14284 H 1339.61 -7.61471 1.3184 0
M  V30 14285 H 1337.95 -6.8493 1.17883 0
M  V30 14286 H 1341.15 -4.6535 0.506611 0
M  V30 14287 H 1341.32 -6.4097 0.95195 0
M  V30 14288 N 1334.72 -0.0133892 -1.57594 0
M  V30 14289 C 1335.95 0.682855 -1.95836 0
M  V30 14290 C 1336.37 1.65763 -0.889049 0
M  V30 14291 O 1335.73 1.80665 0.151585 0
M  V30 14292 C 1335.78 1.37931 -3.33178 0
M  V30 14293 O 1334.88 2.49416 -3.28429 0
M  V30 14294 H 1334.23 0.180629 -0.638959 0
M  V30 14295 H 1336.76 -0.0705644 -2.04478 0
M  V30 14296 H 1336.77 1.73969 -3.69051 0
M  V30 14297 H 1335.44 0.664675 -4.10554 0
M  V30 14298 H 1334.02 2.15606 -3.04251 0
M  V30 14299 N 1336.2 1.55448 0.259558 0
M  V30 14300 C 1337.61 1.67256 0.8296 0
M  V30 14301 C 1337.96 0.60851 1.86525 0
M  V30 14302 O 1337.09 -0.247563 2.14979 0
M  V30 14303 C 1337.68 3.03213 1.51152 0
M  V30 14304 C 1336.24 3.17004 2.02943 0
M  V30 14305 C 1335.39 2.63096 0.876103 0
M  V30 14306 H 1338.34 1.5866 0.0356218 0
M  V30 14307 H 1338.36 2.96952 2.37906 0
M  V30 14308 H 1337.87 3.80635 0.75752 0
M  V30 14309 H 1335.98 2.44381 2.81263 0
M  V30 14310 H 1336.09 4.23748 2.2355 0
M  V30 14311 H 1334.45 2.20596 1.27317 0
M  V30 14312 H 1335.24 3.43033 0.13539 0
M  V30 14313 N 1337.68 -0.524672 1.4861 0
M  V30 14314 C 1338.93 -1.27671 1.5615 0
M  V30 14315 C 1339.24 -1.94088 0.242709 0
M  V30 14316 O 1340.45 -2.70789 0.196407 0
M  V30 14317 C 1338.9 -2.31686 2.75408 0
M  V30 14318 C 1338.51 -1.71315 4.13951 0
M  V30 14319 C 1340.26 -3.07867 2.92264 0
M  V30 14320 C 1338.16 -2.73302 5.24462 0
M  V30 14321 H 1337.09 -0.480177 0.581332 0
M  V30 14322 H 1339.74 -0.553473 1.74954 0
M  V30 14323 H 1338.13 -3.07069 2.50049 0
M  V30 14324 H 1339.3 -1.02085 4.4935 0
M  V30 14325 H 1337.62 -1.07608 4.02255 0
M  V30 14326 H 1340.21 -3.84088 3.71995 0
M  V30 14327 H 1340.56 -3.64052 2.01921 0
M  V30 14328 H 1341.09 -2.39599 3.17549 0
M  V30 14329 H 1337.83 -2.21929 6.16788 0
M  V30 14330 H 1337.35 -3.40843 4.93544 0
M  V30 14331 H 1339.03 -3.36186 5.528 0
M  V30 14332 N 1339.16 -1.37287 -0.77395 0
M  V30 14333 C 1340.09 -1.35569 -1.90114 0
M  V30 14334 C 1341.07 -0.224658 -1.6861 0
M  V30 14335 O 1342.25 -0.424676 -1.895 0
M  V30 14336 C 1339.38 -1.15971 -3.27365 0
M  V30 14337 C 1338.34 -2.26063 -3.63427 0
M  V30 14338 C 1337.66 -1.9159 -4.99197 0
M  V30 14339 C 1338.96 -3.68236 -3.70405 0
M  V30 14340 H 1340.66 -2.29891 -1.91808 0
M  V30 14341 H 1338.2 -1.10661 -0.92142 0
M  V30 14342 H 1340.16 -1.134 -4.05855 0
M  V30 14343 H 1338.88 -0.181043 -3.26098 0
M  V30 14344 H 1337.54 -2.27786 -2.87244 0
M  V30 14345 H 1337.19 -0.922586 -4.94467 0
M  V30 14346 H 1336.89 -2.65309 -5.24294 0
M  V30 14347 H 1338.41 -1.90602 -5.80089 0
M  V30 14348 H 1339.83 -3.68655 -4.39052 0
M  V30 14349 H 1338.22 -4.4099 -4.06999 0
M  V30 14350 H 1339.29 -4.02021 -2.71122 0
M  V30 14351 N 1340.64 0.999871 -1.21821 0
M  V30 14352 C 1341.6 2.07024 -0.983541 0
M  V30 14353 C 1342.6 1.6073 0.0474011 0
M  V30 14354 O 1343.79 1.73156 -0.190398 0
M  V30 14355 C 1340.92 3.37444 -0.484199 0
M  V30 14356 H 1342.11 2.29276 -1.9332 0
M  V30 14357 H 1339.67 1.1704 -1.03592 0
M  V30 14358 H 1340.4 3.20874 0.470138 0
M  V30 14359 H 1340.19 3.72378 -1.2279 0
M  V30 14360 H 1341.68 4.16213 -0.34004 0
M  V30 14361 N 1342.11 1.02678 1.19562 0
M  V30 14362 C 1343.02 0.615738 2.26375 0
M  V30 14363 C 1344.04 -0.351525 1.70412 0
M  V30 14364 O 1345.22 -0.209932 2.00303 0
M  V30 14365 C 1342.28 -0.0292135 3.46688 0
M  V30 14366 C 1341.34 0.985284 4.1784 0
M  V30 14367 C 1340.58 0.371016 5.32409 0
M  V30 14368 O 1340.8 -0.826591 5.64379 0
M  V30 14369 O 1339.73 1.09282 5.91896 0
M  V30 14370 H 1343.56 1.50526 2.63772 0
M  V30 14371 H 1341.14 0.796847 1.26375 0
M  V30 14372 H 1343.03 -0.38893 4.19601 0
M  V30 14373 H 1341.7 -0.892778 3.11145 0
M  V30 14374 H 1340.61 1.39655 3.47055 0
M  V30 14375 H 1341.94 1.81915 4.57349 0
M  V30 14376 N 1343.59 -1.35528 0.804364 0
M  V30 14377 C 1344.84 -1.99126 0.384261 0
M  V30 14378 C 1345.17 -1.63668 -1.0453 0
M  V30 14379 O 1344.45 -0.898896 -1.72482 0
M  V30 14380 C 1344.73 -3.55636 0.565278 0
M  V30 14381 C 1344.58 -4.00899 2.03961 0
M  V30 14382 C 1345.9 -4.40099 -0.0104301 0
M  V30 14383 H 1343.02 -0.723369 0.141092 0
M  V30 14384 H 1345.66 -1.60712 1.01348 0
M  V30 14385 H 1343.81 -3.88489 0.0296425 0
M  V30 14386 H 1345.48 -3.78465 2.63746 0
M  V30 14387 H 1343.73 -3.5189 2.53685 0
M  V30 14388 H 1344.4 -5.09785 2.11716 0
M  V30 14389 H 1346.87 -4.13692 0.446985 0
M  V30 14390 H 1345.75 -5.48705 0.146155 0
M  V30 14391 H 1346.01 -4.28096 -1.10392 0
M  V30 14392 N 1345.07 -0.557671 -1.47404 0
M  V30 14393 C 1346.02 0.189765 -2.30019 0
M  V30 14394 C 1346.99 0.907923 -1.3909 0
M  V30 14395 O 1348.17 0.903528 -1.68051 0
M  V30 14396 C 1345.31 1.21348 -3.23061 0
M  V30 14397 C 1344.43 0.501343 -4.29081 0
M  V30 14398 C 1343.56 1.51039 -5.09275 0
M  V30 14399 C 1342.6 0.783254 -6.07068 0
M  V30 14400 N 1341.74 1.73916 -6.80219 0
M  V30 14401 H 1346.58 -0.520856 -2.93413 0
M  V30 14402 H 1344.11 -0.268686 -1.44625 0
M  V30 14403 H 1346.07 1.81961 -3.75428 0
M  V30 14404 H 1344.7 1.89213 -2.61531 0
M  V30 14405 H 1343.75 -0.219317 -3.79767 0
M  V30 14406 H 1345.07 -0.0682656 -4.98753 0
M  V30 14407 H 1344.22 2.19004 -5.65793 0
M  V30 14408 H 1342.96 2.11392 -4.39505 0
M  V30 14409 H 1341.96 0.0896883 -5.49727 0
M  V30 14410 H 1343.19 0.185464 -6.78847 0
M  V30 14411 H 1341.14 2.33125 -6.13179 0
M  V30 14412 H 1341.05 1.22171 -7.46063 0
M  V30 14413 H 1342.32 2.40993 -7.41311 0
M  V30 14414 N 1346.55 1.54831 -0.294147 0
M  V30 14415 C 1347.5 2.19966 0.599919 0
M  V30 14416 C 1348.48 1.1704 1.1041 0
M  V30 14417 O 1349.68 1.42785 1.04601 0
M  V30 14418 C 1346.8 2.93875 1.77461 0
M  V30 14419 C 1345.89 4.0411 1.28671 0
M  V30 14420 N 1346.28 5.03158 0.516316 0
M  V30 14421 C 1344.58 4.17527 1.56804 0
M  V30 14422 C 1345.28 5.8113 0.257361 0
M  V30 14423 N 1344.26 5.37145 0.835221 0
M  V30 14424 H 1348.06 2.939 0.00369516 0
M  V30 14425 H 1345.57 1.621 -0.0985855 0
M  V30 14426 H 1347.57 3.39001 2.4266 0
M  V30 14427 H 1346.23 2.21456 2.3746 0
M  V30 14428 H 1347.24 5.17647 0.161855 0
M  V30 14429 H 1343.92 3.56309 2.17601 0
M  V30 14430 H 1345.31 6.7093 -0.360924 0
M  V30 14431 N 1348.03 0.0217466 1.57585 0
M  V30 14432 C 1349.25 -0.67246 1.96196 0
M  V30 14433 C 1349.68 -1.6529 0.897827 0
M  V30 14434 O 1349.04 -1.80743 -0.142002 0
M  V30 14435 C 1349.08 -1.36162 3.33905 0
M  V30 14436 O 1348.19 -2.47671 3.29747 0
M  V30 14437 H 1347.53 -0.177238 0.639908 0
M  V30 14438 H 1350.06 0.0814073 2.04438 0
M  V30 14439 H 1350.07 -1.7201 3.69968 0
M  V30 14440 H 1348.74 -0.642893 4.10901 0
M  V30 14441 H 1347.32 -2.13989 3.0539 0
M  V30 14442 N 1349.51 -1.55583 -0.251311 0
M  V30 14443 C 1350.75 -1.77209 -0.979966 0
M  V30 14444 C 1351.08 -0.585279 -1.85485 0
M  V30 14445 O 1350.34 0.431559 -1.90882 0
M  V30 14446 C 1350.63 -3.04291 -1.87461 0
M  V30 14447 C 1350.3 -4.35844 -1.15545 0
M  V30 14448 C 1348.96 -4.71594 -0.956679 0
M  V30 14449 C 1351.31 -5.17189 -0.645381 0
M  V30 14450 C 1348.64 -5.86227 -0.235465 0
M  V30 14451 C 1350.99 -6.32569 0.0623441 0
M  V30 14452 C 1349.66 -6.66943 0.272634 0
M  V30 14453 H 1348.93 -0.648452 -0.358595 0
M  V30 14454 H 1351.58 -1.89856 -0.250423 0
M  V30 14455 H 1349.88 -2.86637 -2.67108 0
M  V30 14456 H 1351.58 -3.18221 -2.44001 0
M  V30 14457 H 1348.17 -4.07757 -1.32031 0
M  V30 14458 H 1352.35 -4.90028 -0.786505 0
M  V30 14459 H 1347.61 -6.11369 -0.0620232 0
M  V30 14460 H 1351.78 -6.94844 0.465234 0
M  V30 14461 H 1349.41 -7.55617 0.833442 0
M  V30 14462 N 1350.98 0.516783 -1.48886 0
M  V30 14463 C 1352.21 1.2944 -1.61024 0
M  V30 14464 C 1352.62 1.87195 -0.274705 0
M  V30 14465 O 1351.96 1.67787 0.747868 0
M  V30 14466 C 1352.03 2.4743 -2.60804 0
M  V30 14467 C 1351.69 2.10663 -4.05549 0
M  V30 14468 C 1352.69 1.65559 -4.92835 0
M  V30 14469 C 1350.37 2.20782 -4.51177 0
M  V30 14470 C 1352.37 1.31057 -6.23781 0
M  V30 14471 C 1350.05 1.85891 -5.82141 0
M  V30 14472 C 1351.05 1.41101 -6.68266 0
M  V30 14473 O 1350.74 1.06674 -7.96791 0
M  V30 14474 H 1350.47 0.399402 -0.545394 0
M  V30 14475 H 1353.03 0.628719 -1.95541 0
M  V30 14476 H 1351.26 3.17023 -2.21435 0
M  V30 14477 H 1352.94 3.09478 -2.62637 0
M  V30 14478 H 1353.71 1.57201 -4.58817 0
M  V30 14479 H 1349.59 2.54598 -3.84319 0
M  V30 14480 H 1353.13 0.960245 -6.9096 0
M  V30 14481 H 1349.03 1.93894 -6.15691 0
M  V30 14482 H 1349.8 1.19958 -8.09662 0
M  V30 14483 N 1352.46 1.37696 0.766659 0
M  V30 14484 C 1353.87 1.29668 1.34324 0
M  V30 14485 C 1354.22 -0.0534297 1.96127 0
M  V30 14486 O 1353.35 -0.95534 1.94171 0
M  V30 14487 C 1353.94 2.34818 2.44225 0
M  V30 14488 C 1352.5 2.3041 2.97638 0
M  V30 14489 C 1351.65 2.18378 1.70899 0
M  V30 14490 H 1354.6 1.48244 0.566526 0
M  V30 14491 H 1354.62 1.99778 3.23835 0
M  V30 14492 H 1354.13 3.3307 1.99214 0
M  V30 14493 H 1352.23 1.35698 3.47011 0
M  V30 14494 H 1352.35 3.24028 3.52906 0
M  V30 14495 H 1350.71 1.65008 1.94021 0
M  V30 14496 H 1351.49 3.18551 1.27985 0
M  V30 14497 N 1353.94 -0.993397 1.22349 0
M  V30 14498 C 1355.19 -1.72707 1.04189 0
M  V30 14499 C 1355.5 -1.90963 -0.423381 0
M  V30 14500 O 1356.71 -2.61651 -0.724645 0
M  V30 14501 C 1355.16 -3.10739 1.81575 0
M  V30 14502 C 1354.77 -3.00415 3.32347 0
M  V30 14503 C 1356.52 -3.88155 1.71861 0
M  V30 14504 C 1354.42 -4.33598 4.02177 0
M  V30 14505 H 1353.35 -0.647556 0.386248 0
M  V30 14506 H 1356 -1.10902 1.46195 0
M  V30 14507 H 1354.39 -3.73222 1.32367 0
M  V30 14508 H 1355.56 -2.47099 3.88946 0
M  V30 14509 H 1353.87 -2.36482 3.42732 0
M  V30 14510 H 1356.47 -4.8673 2.21354 0
M  V30 14511 H 1356.81 -4.10726 0.678939 0
M  V30 14512 H 1357.35 -3.32347 2.18609 0
M  V30 14513 H 1354.09 -4.16226 5.06395 0
M  V30 14514 H 1353.61 -4.86829 3.50367 0
M  V30 14515 H 1355.29 -5.02348 4.07744 0
M  V30 14516 N 1355.42 -1.03311 -1.19015 0
M  V30 14517 C 1356.83 -0.761079 -1.70483 0
M  V30 14518 C 1357.18 0.718851 -1.82557 0
M  V30 14519 O 1356.3 1.56006 -1.4997 0
M  V30 14520 C 1356.9 -1.37492 -3.09647 0
M  V30 14521 C 1355.46 -1.15138 -3.58358 0
M  V30 14522 C 1354.61 -1.47034 -2.35109 0
M  V30 14523 H 1357.56 -1.2005 -1.03797 0
M  V30 14524 H 1357.58 -0.774115 -3.72542 0
M  V30 14525 H 1357.09 -2.45203 -3.00828 0
M  V30 14526 H 1355.19 -0.0926822 -3.72485 0
M  V30 14527 H 1355.3 -1.84307 -4.4223 0
M  V30 14528 H 1353.67 -0.889794 -2.38652 0
M  V30 14529 H 1354.45 -2.55837 -2.28916 0
M  V30 14530 N 1356.9 1.35099 -0.81154 0
M  V30 14531 C 1357.81 2.33499 -0.22705 0
M  V30 14532 C 1358.82 1.62095 0.632562 0
M  V30 14533 O 1360 1.93938 0.543147 0
M  V30 14534 C 1357.06 3.41279 0.610687 0
M  V30 14535 C 1356.12 4.2845 -0.269994 0
M  V30 14536 C 1355.36 5.31083 0.527854 0
M  V30 14537 O 1355.58 5.42499 1.76213 0
M  V30 14538 O 1354.51 6.01842 -0.083862 0
M  V30 14539 H 1358.34 2.85294 -1.04119 0
M  V30 14540 H 1355.92 1.37957 -0.573432 0
M  V30 14541 H 1357.81 4.07121 1.08768 0
M  V30 14542 H 1356.48 2.91746 1.40235 0
M  V30 14543 H 1355.39 3.65572 -0.794234 0
M  V30 14544 H 1356.72 4.81394 -1.02572 0
M  V30 14545 N 1358.37 0.56548 1.47106 0
M  V30 14546 C 1359.31 -0.215154 2.28188 0
M  V30 14547 C 1360.32 -0.871671 1.37498 0
M  V30 14548 O 1361.51 -0.744131 1.6225 0
M  V30 14549 C 1358.61 -1.32289 3.12014 0
M  V30 14550 C 1357.78 -0.761594 4.30719 0
M  V30 14551 C 1356.84 -1.75486 4.96076 0
M  V30 14552 O 1355.87 -1.29771 5.5421 0
M  V30 14553 N 1357.07 -3.0885 4.9152 0
M  V30 14554 H 1359.83 0.480405 2.95825 0
M  V30 14555 H 1357.39 0.402099 1.56827 0
M  V30 14556 H 1359.39 -1.98628 3.52603 0
M  V30 14557 H 1357.96 -1.92156 2.46566 0
M  V30 14558 H 1357.18 0.078794 3.94121 0
M  V30 14559 H 1358.46 -0.366072 5.07481 0
M  V30 14560 H 1357.86 -3.4863 4.45504 0
M  V30 14561 H 1356.42 -3.70725 5.36103 0
M  V30 14562 N 1359.85 -1.54672 0.302354 0
M  V30 14563 C 1361.08 -2.04578 -0.309093 0
M  V30 14564 C 1361.5 -1.17957 -1.47416 0
M  V30 14565 O 1360.85 -0.2055 -1.81339 0
M  V30 14566 C 1360.9 -3.53334 -0.764023 0
M  V30 14567 O 1360.62 -4.36662 0.354674 0
M  V30 14568 C 1362.13 -4.19243 -1.44048 0
M  V30 14569 H 1359.35 -0.667651 -0.0669575 0
M  V30 14570 H 1361.89 -1.99658 0.442379 0
M  V30 14571 H 1360.04 -3.5861 -1.46552 0
M  V30 14572 H 1360.46 -5.245 0.000241188 0
M  V30 14573 H 1361.93 -5.24847 -1.70995 0
M  V30 14574 H 1362.41 -3.69061 -2.38098 0
M  V30 14575 H 1363.02 -4.18046 -0.782132 0
M  V30 14576 N 1361.33 -0.0301034 -1.57571 0
M  V30 14577 C 1362.26 0.94977 -2.13311 0
M  V30 14578 C 1363.24 1.33865 -1.04948 0
M  V30 14579 O 1364.43 1.4171 -1.32786 0
M  V30 14580 C 1361.56 2.23178 -2.66099 0
M  V30 14581 C 1360.51 1.98362 -3.79258 0
M  V30 14582 C 1359.84 3.32836 -4.18479 0
M  V30 14583 C 1361.14 1.32201 -5.05292 0
M  V30 14584 H 1362.83 0.485562 -2.95436 0
M  V30 14585 H 1360.38 0.232116 -1.42117 0
M  V30 14586 H 1362.33 2.92108 -3.03728 0
M  V30 14587 H 1361.05 2.71766 -1.81137 0
M  V30 14588 H 1359.71 1.31849 -3.42069 0
M  V30 14589 H 1359.36 3.79185 -3.30496 0
M  V30 14590 H 1359.06 3.17037 -4.94733 0
M  V30 14591 H 1360.58 4.03032 -4.58691 0
M  V30 14592 H 1362 1.91133 -5.40501 0
M  V30 14593 H 1360.4 1.26797 -5.86551 0
M  V30 14594 H 1361.47 0.29511 -4.84001 0
M  V30 14595 N 1362.81 1.55714 0.243056 0
M  V30 14596 C 1363.74 1.87093 1.32396 0
M  V30 14597 C 1364.75 0.757482 1.44104 0
M  V30 14598 O 1365.94 1.03563 1.45386 0
M  V30 14599 C 1363.04 2.04546 2.70212 0
M  V30 14600 C 1362.22 3.3543 2.80723 0
M  V30 14601 C 1361.27 3.42578 3.99408 0
M  V30 14602 O 1360.3 4.15762 3.88755 0
M  V30 14603 N 1361.5 2.7215 5.12752 0
M  V30 14604 H 1364.27 2.80399 1.05813 0
M  V30 14605 H 1361.83 1.55998 0.433151 0
M  V30 14606 H 1363.82 2.06665 3.47954 0
M  V30 14607 H 1362.39 1.17966 2.89487 0
M  V30 14608 H 1361.61 3.45594 1.89626 0
M  V30 14609 H 1362.9 4.21692 2.84698 0
M  V30 14610 H 1362.3 2.1243 5.24299 0
M  V30 14611 H 1360.85 2.79957 5.88615 0
M  V30 14612 N 1364.29 -0.50888 1.49158 0
M  V30 14613 C 1365.25 -1.59354 1.64739 0
M  V30 14614 C 1366.25 -1.52175 0.519557 0
M  V30 14615 O 1367.44 -1.55468 0.785838 0
M  V30 14616 C 1364.57 -2.99002 1.63739 0
M  V30 14617 H 1365.76 -1.46871 2.61474 0
M  V30 14618 H 1363.32 -0.732532 1.38071 0
M  V30 14619 H 1364.05 -3.1697 0.685583 0
M  V30 14620 H 1363.84 -3.05622 2.45637 0
M  V30 14621 H 1365.33 -3.77822 1.77877 0
M  V30 14622 N 1365.76 -1.381 -0.759346 0
M  V30 14623 C 1366.99 -1.37213 -1.54855 0
M  V30 14624 C 1367.41 0.0395175 -1.88759 0
M  V30 14625 O 1366.76 1.00462 -1.5236 0
M  V30 14626 C 1366.82 -2.22232 -2.85123 0
M  V30 14627 O 1366.54 -3.57897 -2.52668 0
M  V30 14628 C 1368.04 -2.29461 -3.79292 0
M  V30 14629 H 1365.26 -0.469542 -0.479345 0
M  V30 14630 H 1367.8 -1.81604 -0.940216 0
M  V30 14631 H 1365.96 -1.81317 -3.42349 0
M  V30 14632 H 1366.37 -4.02599 -3.36176 0
M  V30 14633 H 1367.84 -2.93246 -4.67665 0
M  V30 14634 H 1368.32 -1.3066 -4.19315 0
M  V30 14635 H 1368.93 -2.70741 -3.27993 0
M  V30 14636 N 1367.24 0.986894 -1.22875 0
M  V30 14637 C 1368.49 1.72985 -1.05849 0
M  V30 14638 C 1368.82 1.89939 0.404594 0
M  V30 14639 O 1368.1 1.44693 1.29978 0
M  V30 14640 C 1368.38 3.13193 -1.77714 0
M  V30 14641 C 1368.23 3.0385 -3.31655 0
M  V30 14642 C 1369.55 4.12486 -1.53438 0
M  V30 14643 H 1366.67 0.627877 -0.385926 0
M  V30 14644 H 1369.31 1.14936 -1.51294 0
M  V30 14645 H 1367.46 3.62751 -1.39083 0
M  V30 14646 H 1369.13 2.61866 -3.79768 0
M  V30 14647 H 1367.38 2.4051 -3.61023 0
M  V30 14648 H 1368.05 4.03092 -3.77122 0
M  V30 14649 H 1370.52 3.71709 -1.87007 0
M  V30 14650 H 1369.4 5.08694 -2.06207 0
M  V30 14651 H 1369.66 4.39613 -0.468294 0
M  V30 14652 N 1368.72 1.0394 1.18466 0
M  V30 14653 C 1369.65 0.650182 2.24265 0
M  V30 14654 C 1370.63 -0.345968 1.66545 0
M  V30 14655 O 1371.82 -0.226348 1.92876 0
M  V30 14656 C 1368.95 0.0110451 3.47298 0
M  V30 14657 C 1367.9 0.930599 4.17761 0
M  V30 14658 C 1367.23 0.156005 5.34472 0
M  V30 14659 C 1368.53 2.24913 4.71393 0
M  V30 14660 H 1370.22 1.53465 2.57078 0
M  V30 14661 H 1367.77 0.739343 1.23571 0
M  V30 14662 H 1369.72 -0.272959 4.20515 0
M  V30 14663 H 1368.44 -0.908288 3.13716 0
M  V30 14664 H 1367.1 1.19897 3.4644 0
M  V30 14665 H 1366.75 -0.765695 4.97138 0
M  V30 14666 H 1366.45 0.768606 5.82551 0
M  V30 14667 H 1367.97 -0.121011 6.1048 0
M  V30 14668 H 1369.39 2.02592 5.36311 0
M  V30 14669 H 1367.79 2.81459 5.30001 0
M  V30 14670 H 1368.86 2.8965 3.88884 0
M  V30 14671 N 1370.2 -1.34667 0.818693 0
M  V30 14672 C 1371.11 -2.33375 0.239429 0
M  V30 14673 C 1372.12 -1.62428 -0.623957 0
M  V30 14674 O 1373.3 -1.94223 -0.532854 0
M  V30 14675 C 1370.37 -3.41598 -0.59258 0
M  V30 14676 C 1369.43 -4.28301 0.292712 0
M  V30 14677 C 1368.66 -5.31356 -0.499682 0
M  V30 14678 O 1368.88 -5.43426 -1.73334 0
M  V30 14679 O 1367.82 -6.01789 0.115778 0
M  V30 14680 H 1371.64 -2.84738 1.05631 0
M  V30 14681 H 1369.23 -1.37651 0.58074 0
M  V30 14682 H 1371.11 -4.07692 -1.06607 0
M  V30 14683 H 1369.78 -2.92486 -1.38685 0
M  V30 14684 H 1368.69 -3.65145 0.81361 0
M  V30 14685 H 1370.02 -4.80843 1.05123 0
M  V30 14686 N 1371.68 -0.573274 -1.46804 0
M  V30 14687 C 1372.92 -0.0553432 -2.02724 0
M  V30 14688 C 1373.26 1.29753 -1.44492 0
M  V30 14689 O 1372.53 1.84804 -0.606455 0
M  V30 14690 C 1372.81 0.0205511 -3.60094 0
M  V30 14691 C 1372.67 -1.36055 -4.2873 0
M  V30 14692 C 1373.99 0.725944 -4.34071 0
M  V30 14693 H 1371.1 -0.0215858 -0.736684 0
M  V30 14694 H 1373.75 -0.738657 -1.75054 0
M  V30 14695 H 1371.9 0.602481 -3.838 0
M  V30 14696 H 1373.57 -1.98692 -4.16316 0
M  V30 14697 H 1371.81 -1.93087 -3.88458 0
M  V30 14698 H 1372.48 -1.26001 -5.37427 0
M  V30 14699 H 1374.96 0.231677 -4.15455 0
M  V30 14700 H 1373.83 0.74805 -5.43779 0
M  V30 14701 H 1374.1 1.78536 -4.04447 0
M  V30 14702 N 1373.15 1.5451 -0.310553 0
M  V30 14703 C 1374.57 1.59543 0.0425296 0
M  V30 14704 C 1374.77 1.32737 1.51602 0
M  V30 14705 O 1373.83 1.10543 2.27016 0
M  V30 14706 C 1375.14 2.98489 -0.364002 0
M  V30 14707 C 1376.69 3.11425 -0.313566 0
M  V30 14708 C 1377.16 4.52695 -0.695064 0
M  V30 14709 N 1378.65 4.58645 -0.647966 0
M  V30 14710 C 1379.39 5.66044 -0.915508 0
M  V30 14711 N 1378.88 6.81439 -1.24951 0
M  V30 14712 N 1380.68 5.55759 -0.841933 0
M  V30 14713 H 1372.83 1.70194 -1.27074 0
M  V30 14714 H 1375.09 0.795374 -0.515833 0
M  V30 14715 H 1374.8 3.23061 -1.39012 0
M  V30 14716 H 1374.67 3.76177 0.27756 0
M  V30 14717 H 1377.06 2.86596 0.703326 0
M  V30 14718 H 1377.14 2.35871 -0.989883 0
M  V30 14719 H 1376.78 4.78255 -1.70981 0
M  V30 14720 H 1376.71 5.266 0.00342684 0
M  V30 14721 H 1379.2 3.75765 -0.401137 0
M  V30 14722 H 1379.52 7.59277 -1.43938 0
M  V30 14723 H 1377.86 6.82968 -1.28764 0
M  V30 14724 H 1381.05 4.64486 -0.58058 0
M  V30 14725 H 1381.23 6.39374 -1.0538 0
M  V30 14726 N 1374.63 0.0384594 1.57553 0
M  V30 14727 C 1375.58 -0.949625 2.07283 0
M  V30 14728 C 1376.57 -1.27973 0.975284 0
M  V30 14729 O 1377.76 -1.26428 1.23875 0
M  V30 14730 C 1374.89 -2.22887 2.61106 0
M  V30 14731 C 1373.97 -1.92672 3.77807 0
M  V30 14732 N 1374.37 -1.32764 4.88065 0
M  V30 14733 C 1372.66 -2.22612 3.86471 0
M  V30 14734 C 1373.36 -1.19892 5.69211 0
M  V30 14735 N 1372.34 -1.69757 5.16414 0
M  V30 14736 H 1376.14 -0.481562 2.89928 0
M  V30 14737 H 1373.66 -0.166321 1.61546 0
M  V30 14738 H 1375.65 -2.94556 2.9503 0
M  V30 14739 H 1374.31 -2.70311 1.79895 0
M  V30 14740 H 1375.32 -1.00146 5.08125 0
M  V30 14741 H 1372 -2.72645 3.16182 0
M  V30 14742 H 1373.39 -0.734892 6.67869 0
M  V30 14743 N 1376.11 -1.55841 -0.234795 0
M  V30 14744 C 1377.02 -1.94476 -1.31211 0
M  V30 14745 C 1378.04 -0.846782 -1.52005 0
M  V30 14746 O 1379.21 -1.14922 -1.65393 0
M  V30 14747 C 1376.28 -2.24213 -2.64442 0
M  V30 14748 C 1375.34 -3.47508 -2.52065 0
M  V30 14749 C 1374.57 -3.75817 -3.78942 0
M  V30 14750 O 1374.8 -3.06007 -4.81369 0
M  V30 14751 O 1373.73 -4.69328 -3.76848 0
M  V30 14752 H 1377.56 -2.8626 -1.01434 0
M  V30 14753 H 1375.14 -1.42879 -0.436563 0
M  V30 14754 H 1377.02 -2.44594 -3.4315 0
M  V30 14755 H 1375.7 -1.35605 -2.93927 0
M  V30 14756 H 1374.6 -3.32421 -1.71602 0
M  V30 14757 H 1375.94 -4.36457 -2.27523 0
M  V30 14758 N 1377.59 0.500963 -1.49426 0
M  V30 14759 C 1378.52 1.61114 -1.69011 0
M  V30 14760 C 1379.5 1.61341 -0.538813 0
M  V30 14761 O 1380.69 1.78081 -0.77466 0
M  V30 14762 C 1377.82 2.99598 -1.75666 0
M  V30 14763 C 1376.77 3.14236 -2.90585 0
M  V30 14764 C 1376.1 4.54071 -2.82354 0
M  V30 14765 C 1377.4 2.94258 -4.3152 0
M  V30 14766 H 1379.09 1.44978 -2.61957 0
M  V30 14767 H 1376.64 0.69603 -1.26061 0
M  V30 14768 H 1378.59 3.77163 -1.87953 0
M  V30 14769 H 1377.31 3.16822 -0.793186 0
M  V30 14770 H 1375.97 2.39096 -2.779 0
M  V30 14771 H 1375.62 4.68172 -1.83914 0
M  V30 14772 H 1375.32 4.64806 -3.59485 0
M  V30 14773 H 1376.84 5.33696 -2.96649 0
M  V30 14774 H 1378.26 3.61592 -4.44886 0
M  V30 14775 H 1376.65 3.16464 -5.09873 0
M  V30 14776 H 1377.72 1.90383 -4.45962 0
M  V30 14777 N 1379.07 1.38501 0.752011 0
M  V30 14778 C 1380.01 1.35857 1.86578 0
M  V30 14779 C 1380.98 0.220873 1.64625 0
M  V30 14780 O 1382.17 0.413348 1.86269 0
M  V30 14781 C 1379.31 1.19102 3.23896 0
M  V30 14782 C 1378.42 2.42272 3.5767 0
M  V30 14783 C 1377.56 2.18236 4.843 0
M  V30 14784 C 1376.6 3.37169 5.10865 0
M  V30 14785 N 1375.73 3.12558 6.28691 0
M  V30 14786 H 1380.57 2.31073 1.88173 0
M  V30 14787 H 1378.11 1.14803 0.919712 0
M  V30 14788 H 1380.07 1.07404 4.03138 0
M  V30 14789 H 1378.7 0.275243 3.21624 0
M  V30 14790 H 1377.75 2.64638 2.7326 0
M  V30 14791 H 1379.06 3.3091 3.73229 0
M  V30 14792 H 1378.22 2.03682 5.71488 0
M  V30 14793 H 1376.96 1.26966 4.70883 0
M  V30 14794 H 1375.96 3.52241 4.22145 0
M  V30 14795 H 1377.19 4.29317 5.26178 0
M  V30 14796 H 1375.13 2.23937 6.16594 0
M  V30 14797 H 1375.05 3.94746 6.44757 0
M  V30 14798 H 1376.32 3.01663 7.18763 0
M  V30 14799 N 1380.55 -0.980364 1.23396 0
M  V30 14800 C 1381.46 -2.10688 1.03188 0
M  V30 14801 C 1382.47 -1.73984 -0.0236159 0
M  V30 14802 O 1383.65 -2.00666 0.171841 0
M  V30 14803 C 1380.71 -3.4101 0.625563 0
M  V30 14804 C 1379.77 -3.91739 1.75611 0
M  V30 14805 C 1379.01 -5.15841 1.36908 0
M  V30 14806 O 1379.23 -5.69837 0.253329 0
M  V30 14807 O 1378.16 -5.60638 2.19018 0
M  V30 14808 H 1381.99 -2.30626 1.97599 0
M  V30 14809 H 1379.57 -1.09067 1.02102 0
M  V30 14810 H 1381.46 -4.19402 0.409909 0
M  V30 14811 H 1380.13 -3.22402 -0.28956 0
M  V30 14812 H 1379.04 -3.14464 2.0264 0
M  V30 14813 H 1380.37 -4.14801 2.64955 0
M  V30 14814 N 1382.02 -1.04567 -1.17913 0
M  V30 14815 C 1383.3 -0.666082 -1.8391 0
M  V30 14816 C 1383.68 0.854062 -1.93052 0
M  V30 14817 O 1383.03 1.75752 -1.46026 0
M  V30 14818 C 1383.24 -1.34776 -3.21926 0
M  V30 14819 C 1384.59 -1.48177 -3.97905 0
M  V30 14820 O 1385.61 -1.30627 -3.31384 0
M  V30 14821 O 1384.47 -1.76822 -5.17104 0
M  V30 14822 H 1381.56 -0.233694 -0.793294 0
M  V30 14823 H 1384.11 -1.14487 -1.25263 0
M  V30 14824 H 1382.88 -2.38514 -3.10204 0
M  V30 14825 H 1382.5 -0.857914 -3.88234 0
M  V30 14826 N 1383.5 1.34231 -0.825823 0
M  V30 14827 C 1384.75 1.97454 -0.411661 0
M  V30 14828 C 1385.06 1.66193 1.03147 0
M  V30 14829 O 1386.27 2.22929 1.54968 0
M  V30 14830 C 1384.73 3.53318 -0.685145 0
M  V30 14831 C 1384.33 3.9347 -2.14208 0
M  V30 14832 C 1386.08 4.23158 -0.337291 0
M  V30 14833 C 1383.98 5.42258 -2.3603 0
M  V30 14834 H 1382.91 0.738889 -0.150196 0
M  V30 14835 H 1385.57 1.53033 -1.01258 0
M  V30 14836 H 1383.95 3.95998 -0.0140178 0
M  V30 14837 H 1385.12 3.61888 -2.85261 0
M  V30 14838 H 1383.44 3.36575 -2.45165 0
M  V30 14839 H 1386.03 5.32558 -0.47813 0
M  V30 14840 H 1386.38 4.10053 0.718499 0
M  V30 14841 H 1386.91 3.85965 -0.963113 0
M  V30 14842 H 1383.65 5.60352 -3.40126 0
M  V30 14843 H 1383.17 5.75345 -1.69524 0
M  V30 14844 H 1384.85 6.08976 -2.18533 0
M  V30 14845 N 1384.98 0.581051 1.46498 0
M  V30 14846 C 1385.93 -0.153147 2.30291 0
M  V30 14847 C 1386.9 -0.885681 1.40517 0
M  V30 14848 O 1388.08 -0.876678 1.69467 0
M  V30 14849 C 1385.22 -1.16193 3.24951 0
M  V30 14850 C 1384.33 -0.433016 4.29824 0
M  V30 14851 C 1383.47 -1.42918 5.11613 0
M  V30 14852 C 1382.51 -0.686576 6.08237 0
M  V30 14853 N 1381.65 -1.63072 6.829 0
M  V30 14854 H 1386.49 0.56747 2.92547 0
M  V30 14855 H 1384.02 0.29166 1.4418 0
M  V30 14856 H 1385.98 -1.75965 3.78275 0
M  V30 14857 H 1384.61 -1.85028 2.64508 0
M  V30 14858 H 1383.66 0.279707 3.7937 0
M  V30 14859 H 1384.97 0.147604 4.98582 0
M  V30 14860 H 1384.13 -2.09975 5.69206 0
M  V30 14861 H 1382.87 -2.04373 4.42813 0
M  V30 14862 H 1381.87 -0.00222013 5.498 0
M  V30 14863 H 1383.1 -0.0774416 6.79056 0
M  V30 14864 H 1381.04 -2.2334 6.1681 0
M  V30 14865 H 1380.96 -1.10286 7.47912 0
M  V30 14866 H 1382.23 -2.29169 7.45052 0
M  V30 14867 N 1386.46 -1.54343 0.318742 0
M  V30 14868 C 1387.42 -2.22828 -0.536679 0
M  V30 14869 C 1388.42 -1.22013 -1.04735 0
M  V30 14870 O 1389.61 -1.46626 -0.940549 0
M  V30 14871 C 1386.74 -2.92857 -1.74493 0
M  V30 14872 H 1387.94 -2.99836 0.0619325 0
M  V30 14873 H 1385.49 -1.56144 0.0697687 0
M  V30 14874 H 1386.22 -2.19973 -2.3829 0
M  V30 14875 H 1386.01 -3.66779 -1.38621 0
M  V30 14876 H 1387.5 -3.45049 -2.35225 0
M  V30 14877 N 1387.94 -0.0468143 -1.5753 0
M  V30 14878 C 1388.87 0.927092 -2.14306 0
M  V30 14879 C 1389.85 1.32745 -1.06362 0
M  V30 14880 O 1391.03 1.40293 -1.34281 0
M  V30 14881 C 1388.16 2.20343 -2.68452 0
M  V30 14882 C 1387.12 1.94328 -3.81341 0
M  V30 14883 C 1386.44 3.28379 -4.21985 0
M  V30 14884 C 1387.74 1.26835 -5.06666 0
M  V30 14885 H 1389.44 0.454199 -2.95935 0
M  V30 14886 H 1386.98 0.217029 -1.42355 0
M  V30 14887 H 1388.93 2.8887 -3.0681 0
M  V30 14888 H 1387.66 2.6983 -1.84009 0
M  V30 14889 H 1386.32 1.28214 -3.43448 0
M  V30 14890 H 1385.97 3.75658 -3.34499 0
M  V30 14891 H 1385.67 3.11772 -4.98068 0
M  V30 14892 H 1387.19 3.98145 -4.6294 0
M  V30 14893 H 1388.6 1.85389 -5.42498 0
M  V30 14894 H 1387 1.20569 -5.87863 0
M  V30 14895 H 1388.07 0.243759 -4.84287 0
M  V30 14896 N 1389.41 1.55964 0.226527 0
M  V30 14897 C 1390.36 1.92857 1.30034 0
M  V30 14898 C 1391.36 0.810008 1.48779 0
M  V30 14899 O 1392.56 0.994801 1.50012 0
M  V30 14900 H 1388.94 0.612807 0.435857 0
M  V30 14901 H 1390.91 2.82469 0.96196 0
M  V30 14902 C 1389.66 2.25735 2.6446 0
M  V30 14903 H 1388.98 3.11317 2.50842 0
M  V30 14904 H 1390.42 2.55437 3.3842 0
M  V30 14905 C 1388.88 1.08074 3.19095 0
M  V30 14906 O 1389.41 0.339279 4.00265 0
M  V30 14907 N 1387.62 0.86589 2.774 0
M  V30 14908 H 1387.16 1.47055 2.11501 0
M  V30 14909 H 1387.12 0.0803566 3.14297 0
M  V30 14910 N 1390.89 -0.493031 1.4969 0
M  V30 14911 C 1391.86 -1.57598 1.6642 0
M  V30 14912 C 1392.86 -1.51615 0.535668 0
M  V30 14913 O 1394.05 -1.54626 0.802283 0
M  V30 14914 C 1391.18 -2.97249 1.66901 0
M  V30 14915 H 1392.37 -1.4409 2.63017 0
M  V30 14916 H 1389.92 -0.717846 1.3884 0
M  V30 14917 H 1390.66 -3.16225 0.719164 0
M  V30 14918 H 1390.44 -3.02999 2.48865 0
M  V30 14919 H 1391.93 -3.75914 1.81874 0
M  V30 14920 N 1392.37 -1.38898 -0.744656 0
M  V30 14921 C 1393.32 -1.36845 -1.85855 0
M  V30 14922 C 1394.29 -0.2296 -1.64505 0
M  V30 14923 O 1395.47 -0.423221 -1.86047 0
M  V30 14924 C 1392.61 -1.20818 -3.2326 0
M  V30 14925 C 1391.73 -2.44166 -3.5638 0
M  V30 14926 C 1390.86 -2.20801 -4.83136 0
M  V30 14927 C 1389.9 -3.39874 -5.0907 0
M  V30 14928 N 1389.04 -3.15888 -6.27024 0
M  V30 14929 H 1393.88 -2.32068 -1.86945 0
M  V30 14930 H 1391.41 -1.15289 -0.913611 0
M  V30 14931 H 1393.37 -1.0954 -4.02563 0
M  V30 14932 H 1392 -0.292295 -3.21474 0
M  V30 14933 H 1391.05 -2.66083 -2.71852 0
M  V30 14934 H 1392.37 -3.32885 -3.71469 0
M  V30 14935 H 1391.52 -2.0671 -5.704 0
M  V30 14936 H 1390.26 -1.29462 -4.70203 0
M  V30 14937 H 1389.26 -3.54474 -4.20271 0
M  V30 14938 H 1390.49 -4.32102 -5.23894 0
M  V30 14939 H 1388.43 -2.27204 -6.15398 0
M  V30 14940 H 1388.35 -3.9816 -6.42655 0
M  V30 14941 H 1389.62 -3.0547 -7.17153 0
M  V30 14942 N 1393.85 0.973806 -1.23914 0
M  V30 14943 C 1394.78 2.06588 -0.969372 0
M  V30 14944 C 1395.76 1.62324 0.0946926 0
M  V30 14945 O 1396.94 1.88455 -0.0409587 0
M  V30 14946 C 1394.07 3.35539 -0.461665 0
M  V30 14947 C 1393.12 3.98748 -1.51334 0
M  V30 14948 S 1393.95 4.37156 -3.09281 0
M  V30 14949 C 1395.11 5.69252 -2.60197 0
M  V30 14950 H 1395.34 2.29153 -1.8941 0
M  V30 14951 H 1392.87 1.11089 -1.07231 0
M  V30 14952 H 1394.83 4.10125 -0.175355 0
M  V30 14953 H 1393.49 3.10971 0.442253 0
M  V30 14954 H 1392.68 4.91661 -1.10839 0
M  V30 14955 H 1392.29 3.30566 -1.74934 0
M  V30 14956 H 1394.58 6.46489 -2.02628 0
M  V30 14957 H 1395.52 6.14598 -3.51675 0
M  V30 14958 H 1395.93 5.27568 -2.00828 0
M  V30 14959 N 1395.33 1.05191 1.17357 0
M  V30 14960 C 1396.55 0.782373 1.91537 0
M  V30 14961 C 1396.97 -0.661935 1.76816 0
M  V30 14962 O 1396.33 -1.45221 1.10531 0
M  V30 14963 C 1396.38 1.15357 3.426 0
M  V30 14964 O 1396.1 2.54119 3.56869 0
M  V30 14965 C 1397.6 0.910167 4.33856 0
M  V30 14966 H 1394.82 0.284461 0.607719 0
M  V30 14967 H 1397.36 1.40259 1.48821 0
M  V30 14968 H 1395.52 0.578107 3.83062 0
M  V30 14969 H 1395.93 2.68668 4.50464 0
M  V30 14970 H 1397.41 1.21964 5.38358 0
M  V30 14971 H 1397.88 -0.154624 4.38928 0
M  V30 14972 H 1398.49 1.46947 3.99107 0
M  V30 14973 N 1396.8 -1.33791 0.83293 0
M  V30 14974 C 1397.75 -2.31249 0.250357 0
M  V30 14975 C 1398.75 -1.57865 -0.614403 0
M  V30 14976 O 1399.95 -1.72782 -0.504627 0
M  V30 14977 H 1396.33 -0.749421 0.0622268 0
M  V30 14978 H 1398.3 -2.77899 1.08697 0
M  V30 14979 C 1397.05 -3.43082 -0.564783 0
M  V30 14980 H 1396.37 -3.99696 0.0913189 0
M  V30 14981 H 1397.81 -4.13486 -0.938351 0
M  V30 14982 C 1396.27 -2.88414 -1.74124 0
M  V30 14983 O 1396.8 -2.84113 -2.83976 0
M  V30 14984 N 1395.01 -2.45101 -1.56121 0
M  V30 14985 H 1394.55 -2.48799 -0.667607 0
M  V30 14986 H 1394.51 -2.08875 -2.34986 0
M  V30 14987 N 1398.28 -0.588812 -1.46187 0
M  V30 14988 C 1399.53 -0.0744093 -2.01563 0
M  V30 14989 C 1399.84 1.29578 -1.46523 0
M  V30 14990 O 1401.05 1.90186 -1.93756 0
M  V30 14991 C 1399.51 -0.082408 -3.59806 0
M  V30 14992 C 1399.11 -1.45129 -4.23842 0
M  V30 14993 C 1400.86 0.377732 -4.22816 0
M  V30 14994 C 1398.77 -1.41668 -5.74181 0
M  V30 14995 H 1397.7 -0.0240481 -0.753616 0
M  V30 14996 H 1400.35 -0.741364 -1.67857 0
M  V30 14997 H 1398.73 0.650832 -3.90615 0
M  V30 14998 H 1399.9 -2.20474 -4.04633 0
M  V30 14999 H 1398.22 -1.85196 -3.7295 0
M  V30 15000 H 1400.81 0.42251 -5.33028 0
M  V30 15001 H 1401.16 1.39655 -3.92176 0
M  V30 15002 H 1401.69 -0.301638 -3.96655 0
M  V30 15003 H 1398.43 -2.4125 -6.09491 0
M  V30 15004 H 1397.95 -0.705524 -5.95636 0
M  V30 15005 H 1399.63 -1.13221 -6.37016 0
M  V30 15006 N 1399.76 1.54172 -0.326923 0
M  V30 15007 C 1400.67 2.28149 0.546351 0
M  V30 15008 C 1401.69 1.32628 1.12631 0
M  V30 15009 O 1402.86 1.65647 1.14556 0
M  V30 15010 C 1399.93 3.02742 1.68962 0
M  V30 15011 C 1398.99 4.13856 1.14112 0
M  V30 15012 C 1398.22 4.84882 2.2299 0
M  V30 15013 O 1398.44 4.55448 3.43399 0
M  V30 15014 O 1397.38 5.71714 1.8822 0
M  V30 15015 H 1401.2 3.03651 -0.0545288 0
M  V30 15016 H 1398.79 1.49113 -0.0925027 0
M  V30 15017 H 1400.67 3.49443 2.35515 0
M  V30 15018 H 1399.35 2.30113 2.27662 0
M  V30 15019 H 1398.25 3.71497 0.440579 0
M  V30 15020 H 1399.59 4.88539 0.599211 0
M  V30 15021 N 1401.24 0.0551678 1.57503 0
M  V30 15022 C 1402.19 -0.917847 2.11764 0
M  V30 15023 C 1403.16 -1.30624 1.02599 0
M  V30 15024 O 1404.34 -1.39501 1.30169 0
M  V30 15025 C 1401.48 -2.18599 2.67036 0
M  V30 15026 C 1400.59 -1.85173 3.90301 0
M  V30 15027 C 1399.73 -3.06475 4.33874 0
M  V30 15028 C 1398.77 -2.68988 5.49829 0
M  V30 15029 N 1397.9 -3.82997 5.88437 0
M  V30 15030 H 1402.74 -0.448236 2.9461 0
M  V30 15031 H 1400.28 -0.209619 1.45599 0
M  V30 15032 H 1402.24 -2.92811 2.97183 0
M  V30 15033 H 1400.87 -2.6313 1.86982 0
M  V30 15034 H 1399.92 -1.01094 3.66721 0
M  V30 15035 H 1401.23 -1.53582 4.74567 0
M  V30 15036 H 1400.39 -3.88982 4.65594 0
M  V30 15037 H 1399.13 -3.41247 3.48427 0
M  V30 15038 H 1398.13 -1.84899 5.17776 0
M  V30 15039 H 1399.36 -2.35404 6.36994 0
M  V30 15040 H 1397.3 -4.17562 5.05942 0
M  V30 15041 H 1397.22 -3.55118 6.67403 0
M  V30 15042 H 1398.49 -4.66131 6.24773 0
M  V30 15043 N 1402.72 -1.56081 -0.218252 0
M  V30 15044 C 1403.65 -1.89176 -1.29403 0
M  V30 15045 C 1404.66 -0.780312 -1.42881 0
M  V30 15046 O 1405.85 -1.05863 -1.4372 0
M  V30 15047 C 1402.95 -2.08818 -2.66923 0
M  V30 15048 C 1402.12 -3.39854 -2.75351 0
M  V30 15049 C 1401.18 -3.48889 -3.93908 0
M  V30 15050 O 1400.21 -4.21894 -3.82091 0
M  V30 15051 N 1401.41 -2.80273 -5.08357 0
M  V30 15052 H 1404.18 -2.82047 -1.01338 0
M  V30 15053 H 1401.74 -1.56667 -0.408278 0
M  V30 15054 H 1403.73 -2.12175 -3.44622 0
M  V30 15055 H 1402.3 -1.22557 -2.87574 0
M  V30 15056 H 1401.52 -3.48568 -1.84104 0
M  V30 15057 H 1402.81 -4.26168 -2.77954 0
M  V30 15058 H 1402.2 -2.20744 -5.20854 0
M  V30 15059 H 1400.76 -2.89286 -5.84086 0
M  V30 15060 N 1404.2 0.485086 -1.49949 0
M  V30 15061 C 1405.13 1.59312 -1.7071 0
M  V30 15062 C 1406.11 1.6076 -0.555896 0
M  V30 15063 O 1407.29 1.77249 -0.793504 0
M  V30 15064 C 1404.42 2.97718 -1.78834 0
M  V30 15065 C 1403.38 3.11136 -2.93902 0
M  V30 15066 C 1402.7 4.51051 -2.87154 0
M  V30 15067 C 1404 2.89665 -4.34617 0
M  V30 15068 H 1405.7 1.42192 -2.6348 0
M  V30 15069 H 1403.24 0.68262 -1.26792 0
M  V30 15070 H 1405.19 3.75148 -1.91943 0
M  V30 15071 H 1403.92 3.15963 -0.826744 0
M  V30 15072 H 1402.58 2.36135 -2.80421 0
M  V30 15073 H 1402.23 4.66195 -1.88869 0
M  V30 15074 H 1401.93 4.60967 -3.64394 0
M  V30 15075 H 1403.45 5.3052 -3.02293 0
M  V30 15076 H 1404.86 3.56853 -4.48697 0
M  V30 15077 H 1403.26 3.11039 -5.13201 0
M  V30 15078 H 1404.33 1.85642 -4.47956 0
M  V30 15079 N 1405.67 1.39291 0.737279 0
M  V30 15080 C 1406.9 1.39844 1.53162 0
M  V30 15081 C 1407.32 -0.00568546 1.88099 0
M  V30 15082 O 1406.68 -0.992085 1.51748 0
M  V30 15083 C 1406.73 2.27577 2.79716 0
M  V30 15084 O 1405.83 1.70408 3.75546 0
M  V30 15085 H 1405.17 0.476314 0.462624 0
M  V30 15086 H 1407.7 1.83258 0.909819 0
M  V30 15087 H 1407.71 2.42009 3.28475 0
M  V30 15088 H 1406.39 3.29621 2.53619 0
M  V30 15089 H 1404.97 1.65206 3.34307 0
M  V30 15090 N 1407.15 -0.967221 1.24429 0
M  V30 15091 C 1408.06 -2.09582 1.05417 0
M  V30 15092 C 1409.08 -1.73999 -0.00516127 0
M  V30 15093 O 1410.25 -2.00472 0.193115 0
M  V30 15094 C 1407.32 -3.40327 0.661697 0
M  V30 15095 C 1406.38 -3.89854 1.79756 0
M  V30 15096 C 1405.61 -5.1436 1.42372 0
M  V30 15097 O 1405.84 -5.69536 0.313754 0
M  V30 15098 O 1404.77 -5.58283 2.24952 0
M  V30 15099 H 1408.6 -2.28517 2.00034 0
M  V30 15100 H 1406.18 -1.07978 1.03253 0
M  V30 15101 H 1408.06 -4.18943 0.454369 0
M  V30 15102 H 1406.74 -3.22691 -0.255348 0
M  V30 15103 H 1405.64 -3.12297 2.05964 0
M  V30 15104 H 1406.98 -4.11967 2.69339 0
M  V30 15105 N 1408.63 -1.05812 -1.16797 0
M  V30 15106 C 1409.88 -0.767008 -1.86547 0
M  V30 15107 C 1410.19 0.708979 -1.82299 0
M  V30 15108 O 1411.4 1.11428 -2.4758 0
M  V30 15109 C 1409.85 -1.32186 -3.34746 0
M  V30 15110 C 1409.46 -2.82774 -3.4748 0
M  V30 15111 C 1411.21 -1.10808 -4.09783 0
M  V30 15112 C 1409.11 -3.31529 -4.89737 0
M  V30 15113 H 1408.04 -0.283235 -0.698781 0
M  V30 15114 H 1410.69 -1.27621 -1.31853 0
M  V30 15115 H 1409.08 -0.740453 -3.89016 0
M  V30 15116 H 1410.25 -3.46825 -3.03396 0
M  V30 15117 H 1408.56 -3.02765 -2.85871 0
M  V30 15118 H 1411.16 -1.44728 -5.14741 0
M  V30 15119 H 1411.5 -0.046167 -4.16274 0
M  V30 15120 H 1412.04 -1.65502 -3.61737 0
M  V30 15121 H 1408.78 -4.37177 -4.88422 0
M  V30 15122 H 1408.3 -2.72224 -5.34466 0
M  V30 15123 H 1409.98 -3.26572 -5.58534 0
M  V30 15124 N 1410.11 1.33347 -0.840014 0
M  V30 15125 C 1411.04 2.31703 -0.289138 0
M  V30 15126 C 1412.02 1.59024 0.603759 0
M  V30 15127 O 1413.2 1.86911 0.527071 0
M  V30 15128 C 1410.33 3.43144 0.53566 0
M  V30 15129 C 1409.29 4.272 -0.261544 0
M  V30 15130 C 1408.61 5.30267 0.687075 0
M  V30 15131 C 1409.91 5.00915 -1.47924 0
M  V30 15132 H 1411.61 2.78026 -1.11094 0
M  V30 15133 H 1409.15 1.33666 -0.535658 0
M  V30 15134 H 1411.11 4.10979 0.931351 0
M  V30 15135 H 1409.83 2.95512 1.39069 0
M  V30 15136 H 1408.49 3.60991 -0.638809 0
M  V30 15137 H 1408.14 4.78893 1.53853 0
M  V30 15138 H 1407.84 5.87388 0.157773 0
M  V30 15139 H 1409.36 6.00968 1.08026 0
M  V30 15140 H 1410.78 5.61511 -1.15664 0
M  V30 15141 H 1409.17 5.67692 -1.94541 0
M  V30 15142 H 1410.24 4.29622 -2.24839 0
M  V30 15143 N 1411.59 0.596556 1.45873 0
M  V30 15144 C 1413 0.259317 1.57479 0
M  V30 15145 C 1413.2 -1.23829 1.58961 0
M  V30 15146 O 1412.26 -2.02076 1.51399 0
M  V30 15147 C 1413.57 0.920755 2.86256 0
M  V30 15148 C 1415.12 0.895638 2.99912 0
M  V30 15149 C 1415.59 1.53688 4.31444 0
M  V30 15150 N 1417.08 1.50186 4.38176 0
M  V30 15151 C 1417.82 1.96727 5.38596 0
M  V30 15152 N 1417.32 2.51304 6.45615 0
M  V30 15153 N 1419.11 1.87561 5.29884 0
M  V30 15154 H 1411.26 1.56909 1.43155 0
M  V30 15155 H 1413.52 0.656664 0.683737 0
M  V30 15156 H 1413.23 1.97481 2.91023 0
M  V30 15157 H 1413.1 0.437331 3.74656 0
M  V30 15158 H 1415.49 -0.149838 2.94719 0
M  V30 15159 H 1415.57 1.41722 2.12952 0
M  V30 15160 H 1415.21 2.58163 4.37395 0
M  V30 15161 H 1415.14 0.990408 5.17203 0
M  V30 15162 H 1417.64 1.10305 3.61443 0
M  V30 15163 H 1417.95 2.84639 7.18471 0
M  V30 15164 H 1416.29 2.55337 6.46396 0
M  V30 15165 H 1419.48 1.4467 4.45183 0
M  V30 15166 H 1419.66 2.24146 6.07999 0
M  V30 15167 N 1413.06 -1.53996 0.335095 0
M  V30 15168 C 1414.31 -1.99952 -0.264954 0
M  V30 15169 C 1414.63 -1.22696 -1.52332 0
M  V30 15170 O 1415.83 -1.59086 -2.20009 0
M  V30 15171 C 1414.29 -3.56085 -0.522667 0
M  V30 15172 C 1413.9 -4.42188 0.719314 0
M  V30 15173 C 1415.64 -4.10478 -1.08204 0
M  V30 15174 C 1413.55 -5.89814 0.432867 0
M  V30 15175 H 1412.48 -0.746962 -0.102782 0
M  V30 15176 H 1415.13 -1.77919 0.449111 0
M  V30 15177 H 1413.51 -3.7415 -1.29722 0
M  V30 15178 H 1414.68 -4.35898 1.49432 0
M  V30 15179 H 1413 -3.98743 1.19972 0
M  V30 15180 H 1415.6 -5.18375 -1.31116 0
M  V30 15181 H 1415.94 -3.63173 -2.03497 0
M  V30 15182 H 1416.47 -3.96091 -0.368395 0
M  V30 15183 H 1413.21 -6.41336 1.35529 0
M  V30 15184 H 1412.73 -5.99028 -0.304214 0
M  V30 15185 H 1414.41 -6.46983 0.0469657 0
M  V30 15186 N 1414.54 -0.0635198 -1.57472 0
M  V30 15187 C 1415.47 0.90431 -2.15278 0
M  V30 15188 C 1416.45 1.31609 -1.07764 0
M  V30 15189 O 1417.64 1.38861 -1.35762 0
M  V30 15190 C 1414.77 2.17483 -2.70774 0
M  V30 15191 C 1413.72 1.90272 -3.8338 0
M  V30 15192 C 1413.05 3.23885 -4.25444 0
M  V30 15193 C 1414.35 1.21454 -5.07983 0
M  V30 15194 H 1416.04 0.422786 -2.964 0
M  V30 15195 H 1413.59 0.201918 -1.42577 0
M  V30 15196 H 1415.54 2.856 -3.09856 0
M  V30 15197 H 1414.26 2.67863 -1.86861 0
M  V30 15198 H 1412.92 1.24564 -3.44789 0
M  V30 15199 H 1412.57 3.72089 -3.38465 0
M  V30 15200 H 1412.27 3.06472 -5.01347 0
M  V30 15201 H 1413.8 3.93212 -4.67137 0
M  V30 15202 H 1415.21 1.79625 -5.44433 0
M  V30 15203 H 1413.61 1.14327 -5.89109 0
M  V30 15204 H 1414.68 0.19238 -4.84518 0
M  V30 15205 N 1416.02 1.56195 0.209972 0
M  V30 15206 C 1417.25 1.8384 0.949228 0
M  V30 15207 C 1417.66 0.644141 1.77472 0
M  V30 15208 O 1417.02 -0.387276 1.78344 0
M  V30 15209 C 1417.07 3.10131 1.85745 0
M  V30 15210 O 1416.79 4.2495 1.06531 0
M  V30 15211 C 1418.29 3.50847 2.70963 0
M  V30 15212 H 1415.51 0.610856 0.277662 0
M  V30 15213 H 1418.06 2.03295 0.221708 0
M  V30 15214 H 1416.21 2.92618 2.53877 0
M  V30 15215 H 1416.63 4.96769 1.68287 0
M  V30 15216 H 1418.1 4.4222 3.30372 0
M  V30 15217 H 1418.58 2.73139 3.43936 0
M  V30 15218 H 1419.18 3.7084 2.08226 0
M  V30 15219 N 1417.5 -0.477127 1.50204 0
M  V30 15220 C 1418.72 -1.25775 1.6491 0
M  V30 15221 C 1419.15 -1.85187 0.329765 0
M  V30 15222 O 1418.51 -1.67004 -0.705641 0
M  V30 15223 C 1418.55 -2.3466 2.73801 0
M  V30 15224 O 1417.66 -3.39147 2.34634 0
M  V30 15225 H 1417 -0.370291 0.551163 0
M  V30 15226 H 1419.53 -0.568514 1.96543 0
M  V30 15227 H 1419.54 -2.80065 2.96695 0
M  V30 15228 H 1418.21 -1.90788 3.69557 0
M  V30 15229 H 1416.79 -2.99496 2.22163 0
M  V30 15230 N 1418.98 -1.3968 -0.729882 0
M  V30 15231 C 1420.39 -1.21396 -1.0361 0
M  V30 15232 C 1420.59 -0.0791302 -2.01345 0
M  V30 15233 O 1419.65 0.567575 -2.46038 0
M  V30 15234 C 1420.96 -2.55006 -1.59349 0
M  V30 15235 C 1422.51 -2.61896 -1.71405 0
M  V30 15236 C 1422.98 -3.9574 -2.30552 0
M  V30 15237 N 1424.48 -3.97406 -2.37955 0
M  V30 15238 C 1425.21 -4.97745 -2.8467 0
M  V30 15239 N 1424.71 -6.08482 -3.31243 0
M  V30 15240 N 1426.5 -4.85121 -2.83925 0
M  V30 15241 H 1418.65 -2.12242 -0.081787 0
M  V30 15242 H 1420.91 -0.942827 -0.0989005 0
M  V30 15243 H 1420.62 -3.38626 -0.950005 0
M  V30 15244 H 1420.49 -2.75087 -2.58083 0
M  V30 15245 H 1422.88 -1.78656 -2.34874 0
M  V30 15246 H 1422.96 -2.45659 -0.7131 0
M  V30 15247 H 1422.61 -4.79412 -1.67709 0
M  V30 15248 H 1422.54 -4.09299 -3.31334 0
M  V30 15249 H 1425.03 -3.17435 -2.05044 0
M  V30 15250 H 1425.34 -6.8095 -3.65414 0
M  V30 15251 H 1423.68 -6.12068 -3.29239 0
M  V30 15252 H 1426.88 -3.97711 -2.46867 0
M  V30 15253 H 1427.05 -5.63465 -3.20017 0
M  V30 15254 N 1420.45 0.960609 -1.2494 0
M  V30 15255 C 1421.87 1.23057 -1.01633 0
M  V30 15256 C 1422.07 1.99676 0.270527 0
M  V30 15257 O 1421.13 2.32503 0.984823 0
M  V30 15258 C 1422.44 2.01078 -2.2358 0
M  V30 15259 C 1423.99 2.14144 -2.28279 0
M  V30 15260 C 1424.46 2.95563 -3.49867 0
M  V30 15261 N 1425.95 3.03143 -3.50227 0
M  V30 15262 C 1426.69 3.66518 -4.40967 0
M  V30 15263 N 1426.18 4.31553 -5.41972 0
M  V30 15264 N 1427.98 3.636 -4.28663 0
M  V30 15265 H 1420.13 0.447876 -2.07624 0
M  V30 15266 H 1422.39 0.260581 -0.911483 0
M  V30 15267 H 1422.1 1.52172 -3.17075 0
M  V30 15268 H 1421.97 3.01797 -2.2627 0
M  V30 15269 H 1424.36 2.6225 -1.35311 0
M  V30 15270 H 1424.44 1.1275 -2.29611 0
M  V30 15271 H 1424.08 2.48149 -4.43153 0
M  V30 15272 H 1424.01 3.9717 -3.45779 0
M  V30 15273 H 1426.5 2.56888 -2.77159 0
M  V30 15274 H 1426.82 4.7775 -6.07433 0
M  V30 15275 H 1425.16 4.302 -5.45851 0
M  V30 15276 H 1428.35 3.11973 -3.48985 0
M  V30 15277 H 1428.53 4.12706 -4.99578 0
M  V30 15278 N 1421.93 1.0643 1.16234 0
M  V30 15279 C 1423.16 0.802671 1.91238 0
M  V30 15280 C 1423.58 -0.637222 1.76978 0
M  V30 15281 O 1422.94 -1.44419 1.09603 0
M  V30 15282 C 1422.99 1.20389 3.3991 0
M  V30 15283 O 1422.09 0.343516 4.10967 0
M  V30 15284 H 1421.43 0.29323 0.595745 0
M  V30 15285 H 1423.96 1.42046 1.47255 0
M  V30 15286 H 1423.97 1.17604 3.90683 0
M  V30 15287 H 1422.65 2.2527 3.49608 0
M  V30 15288 H 1421.23 0.433051 3.70377 0
M  V30 15289 N 1423.41 -1.329 0.847073 0
M  V30 15290 C 1424.64 -2.02244 0.459588 0
M  V30 15291 C 1425.06 -1.63279 -0.933897 0
M  V30 15292 O 1424.42 -0.829551 -1.61208 0
M  V30 15293 C 1424.47 -3.55616 0.59745 0
M  V30 15294 O 1423.57 -4.1071 -0.372919 0
M  V30 15295 H 1422.91 -0.637504 0.1857 0
M  V30 15296 H 1425.44 -1.69617 1.14417 0
M  V30 15297 H 1425.45 -4.05141 0.482145 0
M  V30 15298 H 1424.13 -3.8332 1.61365 0
M  V30 15299 H 1422.7 -3.72283 -0.214487 0
M  V30 15300 N 1424.89 -0.604284 -1.45555 0
M  V30 15301 C 1425.82 0.154579 -2.28678 0
M  V30 15302 C 1426.83 0.83491 -1.39761 0
M  V30 15303 O 1428.02 0.700852 -1.64166 0
M  V30 15304 C 1425.12 1.2397 -3.15412 0
M  V30 15305 C 1424.3 0.647128 -4.32586 0
M  V30 15306 C 1423.35 1.62272 -5.00554 0
M  V30 15307 O 1422.38 1.15031 -5.57455 0
M  V30 15308 N 1423.58 2.9571 -4.99536 0
M  V30 15309 H 1426.35 -0.558668 -2.94447 0
M  V30 15310 H 1423.91 -0.443538 -1.55706 0
M  V30 15311 H 1425.9 1.89209 -3.57746 0
M  V30 15312 H 1424.47 1.85552 -2.51574 0
M  V30 15313 H 1423.69 -0.183261 -3.93774 0
M  V30 15314 H 1424.98 0.231394 -5.08274 0
M  V30 15315 H 1424.38 3.36695 -4.54591 0
M  V30 15316 H 1422.93 3.56381 -5.45744 0
M  V30 15317 N 1426.37 1.53816 -0.343257 0
M  V30 15318 C 1427.59 2.05796 0.257418 0
M  V30 15319 C 1428.02 1.2166 1.43459 0
M  V30 15320 O 1427.37 0.230278 1.79832 0
M  V30 15321 C 1427.42 3.54681 0.65068 0
M  V30 15322 O 1426.53 3.73394 1.75074 0
M  V30 15323 H 1425.87 0.662622 0.042757 0
M  V30 15324 H 1428.4 1.98462 -0.497386 0
M  V30 15325 H 1428.41 3.97308 0.927914 0
M  V30 15326 H 1427.08 4.15368 -0.210199 0
M  V30 15327 H 1425.66 3.42669 1.4708 0
M  V30 15328 N 1427.84 0.0718701 1.57436 0
M  V30 15329 C 1429.26 -0.460784 1.80924 0
M  V30 15330 C 1429.61 -1.69637 0.985781 0
M  V30 15331 O 1428.73 -2.15395 0.208319 0
M  V30 15332 C 1429.33 -0.842738 3.28151 0
M  V30 15333 C 1427.89 -1.32026 3.52486 0
M  V30 15334 C 1427.03 -0.305466 2.75612 0
M  V30 15335 H 1429.98 0.297566 1.55885 0
M  V30 15336 H 1430 -1.70414 3.40205 0
M  V30 15337 H 1429.52 0.056733 3.88059 0
M  V30 15338 H 1427.62 -2.23822 2.97883 0
M  V30 15339 H 1427.73 -1.29813 4.61178 0
M  V30 15340 H 1426.09 -0.782758 2.42374 0
M  V30 15341 H 1426.88 0.586279 3.38257 0
M  V30 15342 N 1429.32 -1.56304 -0.201686 0
M  V30 15343 C 1430.25 -1.90538 -1.27389 0
M  V30 15344 C 1431.27 -0.795422 -1.42045 0
M  V30 15345 O 1432.46 -1.07381 -1.42589 0
M  V30 15346 C 1429.56 -2.11638 -2.64694 0
M  V30 15347 C 1428.73 -3.42755 -2.71731 0
M  V30 15348 C 1427.79 -3.53047 -3.90185 0
M  V30 15349 O 1426.81 -4.25923 -3.77595 0
M  V30 15350 N 1428.02 -2.85649 -5.05356 0
M  V30 15351 H 1430.78 -2.83106 -0.983411 0
M  V30 15352 H 1428.34 -1.57092 -0.391638 0
M  V30 15353 H 1430.33 -2.15818 -3.42352 0
M  V30 15354 H 1428.9 -1.256 -2.86258 0
M  V30 15355 H 1428.12 -3.50501 -1.80397 0
M  V30 15356 H 1429.41 -4.29092 -2.73418 0
M  V30 15357 H 1428.81 -2.26256 -5.18483 0
M  V30 15358 H 1427.37 -2.95465 -5.80985 0
M  V30 15359 N 1430.8 0.469154 -1.50455 0
M  V30 15360 C 1431.71 1.59271 -1.7225 0
M  V30 15361 C 1432.73 1.63119 -0.605668 0
M  V30 15362 O 1433.9 1.80952 -0.884222 0
M  V30 15363 C 1430.97 2.95475 -1.81372 0
M  V30 15364 C 1430.03 3.02 -3.05114 0
M  V30 15365 C 1429.26 4.31707 -3.13791 0
M  V30 15366 O 1429.48 5.2232 -2.29211 0
M  V30 15367 O 1428.42 4.43864 -4.06532 0
M  V30 15368 H 1432.24 1.43804 -2.67496 0
M  V30 15369 H 1429.83 0.648855 -1.34574 0
M  V30 15370 H 1431.71 3.76367 -1.89541 0
M  V30 15371 H 1430.39 3.11136 -0.893094 0
M  V30 15372 H 1429.29 2.20178 -3.02444 0
M  V30 15373 H 1430.63 2.91275 -3.96761 0
M  V30 15374 N 1432.28 1.40065 0.722464 0
M  V30 15375 C 1433.21 1.42532 1.84951 0
M  V30 15376 C 1434.19 0.287082 1.6766 0
M  V30 15377 O 1435.37 0.494715 1.87793 0
M  V30 15378 C 1432.5 1.28041 3.22836 0
M  V30 15379 C 1431.46 2.39396 3.54787 0
M  V30 15380 C 1430.78 2.09986 4.91742 0
M  V30 15381 C 1432.08 3.81729 3.56483 0
M  V30 15382 H 1433.78 2.36851 1.83144 0
M  V30 15383 H 1431.32 1.14005 0.879714 0
M  V30 15384 H 1433.28 1.28385 4.01367 0
M  V30 15385 H 1432 0.301947 3.25201 0
M  V30 15386 H 1430.66 2.3829 2.78592 0
M  V30 15387 H 1430.31 1.10547 4.90702 0
M  V30 15388 H 1430.01 2.84586 5.14086 0
M  V30 15389 H 1431.53 2.12 5.72615 0
M  V30 15390 H 1432.95 3.84696 4.25067 0
M  V30 15391 H 1431.34 4.55791 3.90351 0
M  V30 15392 H 1432.41 4.11807 2.56014 0
M  V30 15393 N 1433.76 -0.95397 1.25448 0
M  V30 15394 C 1435 -1.69866 1.10235 0
M  V30 15395 C 1435.33 -1.91204 -0.356552 0
M  V30 15396 O 1434.59 -1.4811 -1.27914 0
M  V30 15397 C 1434.89 -3.08613 1.80258 0
M  V30 15398 C 1434.55 -3.07072 3.30178 0
M  V30 15399 C 1433.21 -3.0636 3.71076 0
M  V30 15400 C 1435.57 -3.00351 4.25956 0
M  V30 15401 C 1432.89 -2.96675 5.06163 0
M  V30 15402 C 1435.25 -2.92209 5.61067 0
M  V30 15403 C 1433.91 -2.89832 6.01293 0
M  V30 15404 H 1433.18 -0.621583 0.40338 0
M  V30 15405 H 1435.83 -1.11448 1.55729 0
M  V30 15406 H 1434.13 -3.70578 1.27197 0
M  V30 15407 H 1435.83 -3.65055 1.6594 0
M  V30 15408 H 1432.42 -3.084 2.97637 0
M  V30 15409 H 1436.6 -3.0002 3.9535 0
M  V30 15410 H 1431.86 -2.93204 5.36508 0
M  V30 15411 H 1436.03 -2.8597 6.34976 0
M  V30 15412 H 1433.66 -2.82084 7.05927 0
M  V30 15413 N 1435.24 -1.07045 -1.15668 0
M  V30 15414 C 1436.15 -0.699332 -2.23934 0
M  V30 15415 C 1437.16 0.288036 -1.71599 0
M  V30 15416 O 1438.34 0.135447 -2.00944 0
M  V30 15417 C 1435.4 -0.0994775 -3.46557 0
M  V30 15418 C 1434.46 -1.13968 -4.13896 0
M  V30 15419 C 1433.7 -0.56836 -5.30665 0
M  V30 15420 O 1433.92 0.616556 -5.67058 0
M  V30 15421 O 1432.85 -1.31174 -5.87432 0
M  V30 15422 H 1436.68 -1.60212 -2.58003 0
M  V30 15423 H 1434.26 -0.843202 -1.23331 0
M  V30 15424 H 1436.15 0.23293 -4.20756 0
M  V30 15425 H 1434.82 0.776684 -3.14244 0
M  V30 15426 H 1433.73 -1.5244 -3.41633 0
M  V30 15427 H 1435.06 -1.98764 -4.50282 0
M  V30 15428 N 1436.71 1.32449 -0.85411 0
M  V30 15429 C 1437.96 1.96537 -0.453451 0
M  V30 15430 C 1438.28 1.68344 0.995982 0
M  V30 15431 O 1439.48 2.26166 1.50204 0
M  V30 15432 C 1437.94 3.51785 -0.759934 0
M  V30 15433 C 1437.55 3.88838 -2.22506 0
M  V30 15434 C 1439.29 4.22347 -0.426973 0
M  V30 15435 C 1437.2 5.37129 -2.47479 0
M  V30 15436 H 1436.13 0.735537 -0.165835 0
M  V30 15437 H 1438.78 1.50851 -1.04481 0
M  V30 15438 H 1437.16 3.95879 -0.0980116 0
M  V30 15439 H 1438.33 3.55756 -2.92873 0
M  V30 15440 H 1436.65 3.31299 -2.52249 0
M  V30 15441 H 1439.25 5.31424 -0.590986 0
M  V30 15442 H 1439.59 4.11485 0.631359 0
M  V30 15443 H 1440.12 3.83835 -1.04477 0
M  V30 15444 H 1436.86 5.53012 -3.51935 0
M  V30 15445 H 1436.38 5.71619 -1.8169 0
M  V30 15446 H 1438.06 6.04204 -2.31401 0
M  V30 15447 N 1438.19 0.611994 1.45232 0
M  V30 15448 C 1439.42 0.113618 2.07089 0
M  V30 15449 C 1439.84 -1.1947 1.45288 0
M  V30 15450 O 1439.2 -1.72845 0.547207 0
M  V30 15451 C 1439.25 -0.00789978 3.60599 0
M  V30 15452 O 1438.35 -1.05697 3.98625 0
M  V30 15453 H 1437.69 0.076066 0.659629 0
M  V30 15454 H 1440.22 0.843253 1.86415 0
M  V30 15455 H 1440.23 -0.204692 4.07486 0
M  V30 15456 H 1438.91 0.947386 4.04966 0
M  V30 15457 H 1437.48 -0.836291 3.63401 0
M  V30 15458 N 1439.67 -1.53632 0.351409 0
M  V30 15459 C 1441.09 -1.596 -0.000214515 0
M  V30 15460 C 1441.29 -1.36709 -1.4803 0
M  V30 15461 O 1440.34 -1.16524 -2.24006 0
M  V30 15462 C 1441.65 -2.97419 0.443013 0
M  V30 15463 C 1443.2 -3.10485 0.396025 0
M  V30 15464 C 1443.68 -4.50693 0.814843 0
M  V30 15465 N 1445.17 -4.56766 0.76934 0
M  V30 15466 C 1445.9 -5.63418 1.06526 0
M  V30 15467 N 1445.4 -6.77887 1.42974 0
M  V30 15468 N 1447.19 -5.53331 0.988986 0
M  V30 15469 H 1439.34 -1.66765 1.31542 0
M  V30 15470 H 1441.61 -0.781418 0.53674 0
M  V30 15471 H 1441.31 -3.19262 1.47529 0
M  V30 15472 H 1441.19 -3.76781 -0.177725 0
M  V30 15473 H 1443.57 -2.8836 -0.627092 0
M  V30 15474 H 1443.65 -2.33163 1.05207 0
M  V30 15475 H 1443.3 -4.73554 1.83601 0
M  V30 15476 H 1443.23 -5.26424 0.136193 0
M  V30 15477 H 1445.72 -3.74569 0.500623 0
M  V30 15478 H 1446.03 -7.55194 1.64018 0
M  V30 15479 H 1444.38 -6.79314 1.46827 0
M  V30 15480 H 1447.57 -4.62783 0.703526 0
M  V30 15481 H 1447.74 -6.36355 1.22295 0
M  V30 15482 N 1441.15 -0.0802183 -1.57396 0
M  V30 15483 C 1442.56 0.451183 -1.81166 0
M  V30 15484 C 1442.91 1.69112 -0.994764 0
M  V30 15485 O 1442.03 2.15281 -0.219739 0
M  V30 15486 C 1442.63 0.825324 -3.28594 0
M  V30 15487 C 1441.19 1.30154 -3.53181 0
M  V30 15488 C 1440.34 0.290846 -2.75771 0
M  V30 15489 H 1443.29 -0.305829 -1.55725 0
M  V30 15490 H 1443.31 1.68608 -3.41104 0
M  V30 15491 H 1442.82 -0.0773119 -3.88023 0
M  V30 15492 H 1440.92 2.22239 -2.99066 0
M  V30 15493 H 1441.03 1.27365 -4.6186 0
M  V30 15494 H 1439.4 0.769894 -2.42785 0
M  V30 15495 H 1440.18 -0.604209 -3.37941 0
M  V30 15496 N 1442.63 1.56409 0.193394 0
M  V30 15497 C 1443.56 1.91211 1.26377 0
M  V30 15498 C 1444.57 0.802944 1.41622 0
M  V30 15499 O 1445.76 1.08136 1.42017 0
M  V30 15500 C 1442.86 2.13039 2.63567 0
M  V30 15501 C 1442.03 3.44192 2.69909 0
M  V30 15502 C 1441.09 3.55111 3.88307 0
M  V30 15503 O 1440.12 4.2792 3.75331 0
M  V30 15504 N 1441.32 2.88325 5.03834 0
M  V30 15505 H 1444.08 2.83624 0.968383 0
M  V30 15506 H 1441.65 1.57297 0.383302 0
M  V30 15507 H 1443.64 2.1763 3.41202 0
M  V30 15508 H 1442.21 1.27116 2.85588 0
M  V30 15509 H 1441.43 3.51452 1.78535 0
M  V30 15510 H 1442.72 4.30536 2.71139 0
M  V30 15511 H 1442.11 2.29003 5.17276 0
M  V30 15512 H 1440.67 2.98542 5.7941 0
M  V30 15513 N 1444.1 -0.461169 1.50702 0
M  V30 15514 C 1445.33 -1.24019 1.66235 0
M  V30 15515 C 1445.75 -1.84827 0.349388 0
M  V30 15516 O 1445.11 -1.67743 -0.687888 0
M  V30 15517 C 1445.16 -2.31743 2.76274 0
M  V30 15518 O 1444.26 -3.3664 2.38217 0
M  V30 15519 H 1443.6 -0.364424 0.55506 0
M  V30 15520 H 1446.13 -0.547636 1.97135 0
M  V30 15521 H 1446.14 -2.76902 2.99649 0
M  V30 15522 H 1444.82 -1.86858 3.7156 0
M  V30 15523 H 1443.4 -2.97123 2.25327 0
M  V30 15524 N 1445.58 -1.40446 -0.715026 0
M  V30 15525 C 1446.99 -1.34564 -1.29419 0
M  V30 15526 C 1447.34 -0.0193984 -1.9619 0
M  V30 15527 O 1446.47 0.882616 -1.97582 0
M  V30 15528 C 1447.06 -2.43721 -2.35342 0
M  V30 15529 C 1445.62 -2.41297 -2.88881 0
M  V30 15530 C 1444.77 -2.2457 -1.62676 0
M  V30 15531 H 1447.72 -1.50244 -0.511116 0
M  V30 15532 H 1447.74 -2.1166 -3.16197 0
M  V30 15533 H 1447.25 -3.40234 -1.86715 0
M  V30 15534 H 1445.35 -1.48483 -3.41736 0
M  V30 15535 H 1445.47 -3.36903 -3.40637 0
M  V30 15536 H 1443.83 -1.72096 -1.87763 0
M  V30 15537 H 1444.61 -3.23082 -1.16074 0
M  V30 15538 N 1447.06 0.947303 -1.25952 0
M  V30 15539 C 1447.97 2.07878 -1.08738 0
M  V30 15540 C 1448.99 1.73985 -0.0225212 0
M  V30 15541 O 1450.16 2.00139 -0.224984 0
M  V30 15542 C 1447.23 3.39231 -0.715756 0
M  V30 15543 C 1446.29 3.86945 -1.85935 0
M  V30 15544 C 1445.52 5.1203 -1.50537 0
M  V30 15545 O 1445.74 5.68965 -0.404323 0
M  V30 15546 O 1444.68 5.54634 -2.33805 0
M  V30 15547 H 1448.5 2.25305 -2.03645 0
M  V30 15548 H 1446.09 1.06321 -1.04958 0
M  V30 15549 H 1447.97 4.18167 -0.520962 0
M  V30 15550 H 1446.65 3.23057 0.203978 0
M  V30 15551 H 1445.55 3.08981 -2.10906 0
M  V30 15552 H 1446.89 4.0763 -2.75859 0
M  V30 15553 N 1448.54 1.07657 1.15099 0
M  V30 15554 C 1449.76 0.82291 1.90376 0
M  V30 15555 C 1450.19 -0.618415 1.77644 0
M  V30 15556 O 1449.55 -1.43248 1.11129 0
M  V30 15557 C 1449.59 1.23988 3.38614 0
M  V30 15558 O 1448.7 0.387085 4.10579 0
M  V30 15559 H 1448.04 0.299532 0.592602 0
M  V30 15560 H 1450.57 1.436 1.4574 0
M  V30 15561 H 1450.58 1.21741 3.89414 0
M  V30 15562 H 1449.25 2.28966 3.472 0
M  V30 15563 H 1447.83 0.472311 3.69897 0
M  V30 15564 N 1450.02 -1.31994 0.861122 0
M  V30 15565 C 1450.93 -2.32495 0.313555 0
M  V30 15566 C 1451.94 -1.64331 -0.571966 0
M  V30 15567 O 1453.12 -1.9582 -0.470794 0
M  V30 15568 C 1450.18 -3.43311 -0.483603 0
M  V30 15569 C 1449.24 -4.27153 0.428825 0
M  V30 15570 C 1448.48 -5.32676 -0.330383 0
M  V30 15571 O 1448.7 -5.48665 -1.55957 0
M  V30 15572 O 1447.63 -6.01116 0.307174 0
M  V30 15573 H 1451.46 -2.81234 1.14636 0
M  V30 15574 H 1449.05 -1.35734 0.624239 0
M  V30 15575 H 1450.93 -4.10877 -0.935831 0
M  V30 15576 H 1449.6 -2.9675 -1.2931 0
M  V30 15577 H 1448.51 -3.62372 0.929366 0
M  V30 15578 H 1449.84 -4.77255 1.20368 0
M  V30 15579 N 1451.49 -0.619688 -1.44906 0
M  V30 15580 C 1452.91 -0.284338 -1.57047 0
M  V30 15581 C 1453.11 1.21284 -1.60911 0
M  V30 15582 O 1452.17 1.99642 -1.54594 0
M  V30 15583 C 1453.48 -0.966179 -2.84755 0
M  V30 15584 C 1455.03 -0.943239 -2.98449 0
M  V30 15585 C 1455.5 -1.60532 -4.28945 0
M  V30 15586 N 1456.99 -1.57138 -4.35732 0
M  V30 15587 C 1457.73 -2.05271 -5.35399 0
M  V30 15588 N 1457.22 -2.61543 -6.41535 0
M  V30 15589 N 1459.02 -1.95967 -5.26833 0
M  V30 15590 H 1451.17 -1.59167 -1.40641 0
M  V30 15591 H 1453.43 -0.667458 -0.673204 0
M  V30 15592 H 1453.14 -2.02086 -2.87844 0
M  V30 15593 H 1453.01 -0.49688 -3.73913 0
M  V30 15594 H 1455.4 0.102932 -2.9492 0
M  V30 15595 H 1455.48 -1.45092 -2.1067 0
M  V30 15596 H 1455.12 -2.65088 -4.33233 0
M  V30 15597 H 1455.05 -1.07256 -5.15561 0
M  V30 15598 H 1457.54 -1.16042 -3.59643 0
M  V30 15599 H 1457.86 -2.96033 -7.13852 0
M  V30 15600 H 1456.2 -2.65588 -6.42252 0
M  V30 15601 H 1459.39 -1.51734 -4.42825 0
M  V30 15602 H 1459.57 -2.33791 -6.04356 0
M  V30 15603 N 1452.97 1.53444 -0.359552 0
M  V30 15604 C 1454.25 1.93467 0.288106 0
M  V30 15605 C 1454.63 1.29256 1.66901 0
M  V30 15606 O 1453.98 0.449402 2.24037 0
M  V30 15607 C 1454.19 3.47297 0.344359 0
M  V30 15608 C 1455.54 4.20515 0.587585 0
M  V30 15609 O 1456.56 3.53646 0.425818 0
M  V30 15610 O 1455.42 5.39003 0.902119 0
M  V30 15611 H 1452.51 0.809033 0.171451 0
M  V30 15612 H 1455.06 1.64625 -0.411896 0
M  V30 15613 H 1453.83 3.86292 -0.624064 0
M  V30 15614 H 1453.45 3.82353 1.0905 0
M  V30 15615 N 1454.45 0.0885642 1.57351 0
M  V30 15616 C 1455.7 -0.57633 1.93291 0
M  V30 15617 C 1456.01 -1.69743 0.971934 0
M  V30 15618 O 1457.22 -2.42304 1.22479 0
M  V30 15619 C 1455.67 -1.07655 3.43422 0
M  V30 15620 C 1455.28 0.0144488 4.47998 0
M  V30 15621 C 1457.03 -1.71455 3.88334 0
M  V30 15622 C 1454.93 -0.500758 5.89276 0
M  V30 15623 H 1453.86 -0.219055 0.721478 0
M  V30 15624 H 1456.51 0.163511 1.8277 0
M  V30 15625 H 1454.9 -1.86988 3.49072 0
M  V30 15626 H 1456.07 0.789696 4.53983 0
M  V30 15627 H 1454.39 0.557237 4.12655 0
M  V30 15628 H 1456.98 -2.11063 4.91281 0
M  V30 15629 H 1457.33 -2.58116 3.26621 0
M  V30 15630 H 1457.86 -0.987159 3.85357 0
M  V30 15631 H 1454.6 0.329088 6.54673 0
M  V30 15632 H 1454.12 -1.24315 5.86776 0
M  V30 15633 H 1455.8 -0.971821 6.3966 0
M  V30 15634 N 1455.93 -1.56509 -0.185096 0
M  V30 15635 C 1457.18 -1.81206 -0.903924 0
M  V30 15636 C 1457.5 -0.663423 -1.82836 0
M  V30 15637 O 1456.76 0.350211 -1.92541 0
M  V30 15638 C 1457.06 -3.11968 -1.74387 0
M  V30 15639 C 1456.72 -4.40353 -0.969552 0
M  V30 15640 C 1455.39 -4.75227 -0.755799 0
M  V30 15641 C 1457.74 -5.19461 -0.425443 0
M  V30 15642 C 1455.07 -5.86698 0.0133856 0
M  V30 15643 C 1457.42 -6.31736 0.330582 0
M  V30 15644 C 1456.08 -6.65187 0.555262 0
M  V30 15645 H 1455.35 -0.663078 -0.330769 0
M  V30 15646 H 1458 -1.90747 -0.169673 0
M  V30 15647 H 1456.3 -2.97708 -2.5471 0
M  V30 15648 H 1458 -3.28284 -2.30284 0
M  V30 15649 H 1454.59 -4.1299 -1.14618 0
M  V30 15650 H 1458.77 -4.92923 -0.577959 0
M  V30 15651 H 1454.03 -6.11081 0.197335 0
M  V30 15652 H 1458.2 -6.92246 0.759523 0
M  V30 15653 H 1455.83 -7.51403 1.15318 0
M  V30 15654 N 1457.41 0.45317 -1.50944 0
M  V30 15655 C 1458.65 1.20151 -1.62506 0
M  V30 15656 C 1458.98 1.92085 -0.335927 0
M  V30 15657 O 1458.25 1.84889 0.64751 0
M  V30 15658 H 1456.83 0.446502 -0.59887 0
M  V30 15659 H 1459.49 0.521103 -1.87804 0
M  V30 15660 H 1458.58 1.93972 -2.44502 0
M  V30 15661 N 1458.88 1.40823 0.707568 0
M  V30 15662 C 1459.85 1.41464 1.80334 0
M  V30 15663 C 1460.85 0.307143 1.57839 0
M  V30 15664 O 1462.04 0.566444 1.64733 0
M  V30 15665 C 1459.17 1.21426 3.18541 0
M  V30 15666 H 1460.36 2.38998 1.81162 0
M  V30 15667 H 1457.92 1.2679 0.914007 0
M  V30 15668 H 1458.65 0.246847 3.23359 0
M  V30 15669 H 1458.44 2.01657 3.36269 0
M  V30 15670 H 1459.93 1.24681 3.98553 0
M  V30 15671 N 1460.36 -0.94061 1.26453 0
M  V30 15672 C 1461.59 -1.72654 1.14914 0
M  V30 15673 C 1462.01 -1.85823 -0.291789 0
M  V30 15674 O 1461.37 -1.34888 -1.2114 0
M  V30 15675 C 1461.42 -3.11083 1.82372 0
M  V30 15676 O 1460.52 -3.971 1.1129 0
M  V30 15677 H 1459.86 -0.529704 0.400387 0
M  V30 15678 H 1462.39 -1.17803 1.67283 0
M  V30 15679 H 1462.4 -3.6147 1.89219 0
M  V30 15680 H 1461.08 -3.00815 2.87199 0
M  V30 15681 H 1459.66 -3.5555 1.12423 0
M  V30 15682 O 1461.88 -1.20587 -1.07429 0
M  V30 15683 H 1462.57 -0.960848 -1.68189 0
M  V30 END ATOM
M  V30 BEGIN BOND
M  V30 END BOND
M  V30 END CTAB
M  END
$$$$
