drugbank_target|O85465 Endoglucanase 5A (DB01633; DB01642; DB02017; DB02061; DB02379; DB03584; DB03862; DB04086; DB04545)
 OpenBabel12092119503D

  0  0  0     0  0            999 V3000
M  V30 BEGIN CTAB
M  V30 COUNTS 6079 6176 0 0 0
M  V30 BEGIN ATOM
M  V30 1 H -0.908 1.98254 -0.117106 0
M  V30 2 N 0 1.576 0 0
M  V30 3 C 0.933 2.03868 1.02534 0
M  V30 4 C 1.911 0.928543 1.3348 0
M  V30 5 O 3.095 1.19667 1.45644 0
M  V30 6 C 0.222 2.43627 2.35294 0
M  V30 7 C -0.732 3.65373 2.2001 0
M  V30 8 S 0.101 5.13292 1.52614 0
M  V30 9 C 1.257 5.56322 2.86805 0
M  V30 10 H 1.49 2.90518 0.631377 0
M  V30 11 H -0.977 1.52953 0.210867 0
M  V30 12 H 0.981 2.67203 3.11629 0
M  V30 13 H -0.358 1.57376 2.7183 0
M  V30 14 H -1.165 3.90944 3.18086 0
M  V30 15 H -1.563 3.418 1.51819 0
M  V30 16 H 0.729 5.58782 3.83104 0
M  V30 17 H 1.672 6.56266 2.65933 0
M  V30 18 H 2.08 4.83886 2.90714 0
M  V30 19 N 1.4781 -0.272755 1.55222 0
M  V30 20 C 2.4251 -1.33716 1.88119 0
M  V30 21 C 3.3951 -1.49066 0.73271 0
M  V30 22 O 4.5801 -1.63469 0.984002 0
M  V30 23 C 1.7201 -2.69238 2.15882 0
M  V30 24 C 0.8331 -2.62108 3.43399 0
M  V30 25 C -0.0319 -3.89811 3.60861 0
M  V30 26 C -0.9929 -3.77193 4.8207 0
M  V30 27 N -1.8559 -4.9673 4.96189 0
M  V30 28 H 2.9841 -1.04962 2.78903 0
M  V30 29 H 0.5211 -0.507088 1.38083 0
M  V30 30 H 2.4791 -3.48089 2.29978 0
M  V30 31 H 1.1091 -2.96194 1.28331 0
M  V30 32 H 0.1611 -1.74967 3.37773 0
M  V30 33 H 1.4731 -2.48685 4.32386 0
M  V30 34 H 0.6271 -4.77103 3.74777 0
M  V30 35 H -0.6339 -4.06102 2.7006 0
M  V30 36 H -1.6289 -2.88284 4.68159 0
M  V30 37 H -0.4039 -3.62421 5.74307 0
M  V30 38 H -2.4579 -5.13431 4.08319 0
M  V30 39 H -2.5409 -4.85839 5.79221 0
M  V30 40 H -1.2729 -5.85594 5.1449 0
M  V30 41 N 2.9562 -1.48159 -0.537278 0
M  V30 42 C 3.9032 -1.62138 -1.64256 0
M  V30 43 C 4.8732 -0.463668 -1.59497 0
M  V30 44 O 6.0582 -0.686241 -1.78032 0
M  V30 45 C 3.1982 -1.66028 -3.02537 0
M  V30 46 C 2.3112 -2.92855 -3.17585 0
M  V30 47 C 1.4462 -2.87952 -4.46382 0
M  V30 48 C 0.4852 -4.09516 -4.54932 0
M  V30 49 N -0.3778 -4.02733 -5.75109 0
M  V30 50 H 4.4622 -2.56529 -1.51647 0
M  V30 51 H 1.9992 -1.27224 -0.738414 0
M  V30 52 H 3.9572 -1.66265 -3.82638 0
M  V30 53 H 2.5872 -0.751331 -3.13934 0
M  V30 54 H 1.6392 -3.02395 -2.30784 0
M  V30 55 H 2.9512 -3.82822 -3.19764 0
M  V30 56 H 2.1052 -2.8655 -5.34765 0
M  V30 57 H 0.8442 -1.95702 -4.46712 0
M  V30 58 H -0.1508 -4.11201 -3.64957 0
M  V30 59 H 1.0742 -5.02917 -4.56346 0
M  V30 60 H -0.9798 -3.13299 -5.76351 0
M  V30 61 H -1.0628 -4.86397 -5.78752 0
M  V30 62 H 0.2052 -4.05379 -6.65799 0
M  V30 63 N 4.4343 0.785586 -1.36625 0
M  V30 64 C 5.6833 1.53883 -1.30396 0
M  V30 65 C 5.9963 1.95271 0.113452 0
M  V30 66 O 7.2023 2.69858 0.298142 0
M  V30 67 C 5.6583 2.77808 -2.28802 0
M  V30 68 C 5.2663 2.43574 -3.75999 0
M  V30 69 C 7.0103 3.55783 -2.31558 0
M  V30 70 C 4.9173 3.63919 -4.66173 0
M  V30 71 H 3.8473 0.577678 -0.484566 0
M  V30 72 H 6.4983 0.861705 -1.62009 0
M  V30 73 H 4.8803 3.47339 -1.90188 0
M  V30 74 H 6.0543 1.81916 -4.23371 0
M  V30 75 H 4.3693 1.78803 -3.76056 0
M  V30 76 H 6.9663 4.45205 -2.96137 0
M  V30 77 H 7.3093 3.94644 -1.3252 0
M  V30 78 H 7.8423 2.93235 -2.68809 0
M  V30 79 H 4.5813 3.3015 -5.66287 0
M  V30 80 H 4.1013 4.2473 -4.23515 0
M  V30 81 H 5.7803 4.30901 -4.82632 0
M  V30 82 N 5.9124 1.20967 1.01018 0
M  V30 83 C 7.1404 1.04956 1.78303 0
M  V30 84 C 7.5554 -0.400915 1.84494 0
M  V30 85 O 6.9124 -1.27826 1.30257 0
M  V30 86 C 6.9634 1.63403 3.22462 0
M  V30 87 O 6.6844 3.02775 3.16637 0
M  V30 88 C 8.1854 1.52432 4.16268 0
M  V30 89 H 5.4054 0.368858 0.560522 0
M  V30 90 H 7.9494 1.60193 1.27116 0
M  V30 91 H 6.1044 1.1227 3.70775 0
M  V30 92 H 6.5184 3.30626 4.07169 0
M  V30 93 H 7.9924 1.98078 5.15237 0
M  V30 94 H 8.4694 0.477875 4.36592 0
M  V30 95 H 9.0754 2.02787 3.73841 0
M  V30 96 N 7.3905 -1.2043 1.01659 0
M  V30 97 C 8.6185 -1.93777 0.725132 0
M  V30 98 C 9.0335 -1.74772 -0.714166 0
M  V30 99 O 8.3905 -1.06169 -1.4844 0
M  V30 100 C 8.4415 -3.45876 1.05129 0
M  V30 101 O 8.1625 -3.6426 2.43406 0
M  V30 102 C 9.6635 -4.36368 0.780891 0
M  V30 103 H 6.8835 -0.615901 0.266284 0
M  V30 104 H 9.4275 -1.52922 1.35776 0
M  V30 105 H 7.5825 -3.8461 0.464065 0
M  V30 106 H 7.9965 -4.58246 2.55169 0
M  V30 107 H 9.4705 -5.41743 1.05918 0
M  V30 108 H 9.9475 -4.38275 -0.284937 0
M  V30 109 H 10.5535 -4.03296 1.35027 0
M  V30 110 N 8.8686 -0.792821 -1.36206 0
M  V30 111 C 10.1176 -0.363353 -1.984 0
M  V30 112 C 10.4306 1.07172 -1.63626 0
M  V30 113 O 11.6366 1.60362 -2.19081 0
M  V30 114 C 10.0926 -0.59872 -3.54885 0
M  V30 115 C 9.7006 -2.04543 -3.9858 0
M  V30 116 C 11.4446 -0.233926 -4.23855 0
M  V30 117 C 9.3516 -2.22727 -5.47856 0
M  V30 118 H 8.2816 -0.13212 -0.742334 0
M  V30 119 H 10.9326 -0.974935 -1.55458 0
M  V30 120 H 9.3146 0.0826222 -3.95914 0
M  V30 121 H 10.4886 -2.76345 -3.68741 0
M  V30 122 H 8.8036 -2.36879 -3.42458 0
M  V30 123 H 11.4006 -0.348027 -5.33566 0
M  V30 124 H 11.7436 0.818351 -4.08177 0
M  V30 125 H 12.2766 -0.868639 -3.882 0
M  V30 126 H 9.0156 -3.2635 -5.68486 0
M  V30 127 H 8.5356 -1.55434 -5.7931 0
M  V30 128 H 10.2146 -2.03607 -6.14128 0
M  V30 129 N 10.3467 1.47872 -0.545128 0
M  V30 130 C 11.5937 2.02493 -0.0165858 0
M  V30 131 C 11.9217 1.42073 1.32836 0
M  V30 132 O 11.1767 0.561459 1.87473 0
M  V30 133 C 11.4757 3.57131 0.13867 0
M  V30 134 C 11.1417 4.36411 -1.13384 0
M  V30 135 C 9.8037 4.57792 -1.48256 0
M  V30 136 C 12.1557 4.82223 -1.97764 0
M  V30 137 C 9.4837 5.22233 -2.67376 0
M  V30 138 C 11.8357 5.47977 -3.16076 0
M  V30 139 C 10.4997 5.67593 -3.51275 0
M  V30 140 H 9.7697 0.740975 -0.00606918 0
M  V30 141 H 12.4167 1.77683 -0.714207 0
M  V30 142 H 10.7217 3.80865 0.919172 0
M  V30 143 H 12.4187 3.97031 0.562782 0
M  V30 144 H 9.0087 4.2004 -0.852297 0
M  V30 145 H 13.1927 4.65493 -1.72132 0
M  V30 146 H 8.4487 5.35616 -2.94831 0
M  V30 147 H 12.6227 5.8244 -3.81755 0
M  V30 148 H 10.2497 6.17298 -4.43675 0
M  V30 149 N 11.8248 0.280983 1.55075 0
M  V30 150 C 13.0708 -0.33461 2.00021 0
M  V30 151 C 13.4038 -1.55063 1.16915 0
M  V30 152 O 12.6788 -1.93006 0.240646 0
M  V30 153 C 12.9618 -0.711007 3.53011 0
M  V30 154 C 12.8148 0.512766 4.46868 0
M  V30 155 C 14.1338 -1.54522 4.12081 0
M  V30 156 H 11.2528 -0.120147 0.727141 0
M  V30 157 H 13.8948 0.389097 1.85973 0
M  V30 158 H 12.0448 -1.32761 3.65112 0
M  V30 159 H 13.7168 1.15131 4.46702 0
M  V30 160 H 11.9598 1.14975 4.18286 0
M  V30 161 H 12.6308 0.205556 5.51617 0
M  V30 162 H 15.1068 -1.02442 4.03293 0
M  V30 163 H 13.9828 -1.77739 5.19327 0
M  V30 164 H 14.2438 -2.52813 3.62682 0
M  V30 165 N 13.3029 -1.57598 0.00835791 0
M  V30 166 C 14.5489 -1.91211 -0.675732 0
M  V30 167 C 14.8819 -0.883139 -1.72958 0
M  V30 168 O 14.1569 0.097016 -1.94258 0
M  V30 169 C 14.4399 -3.35379 -1.31123 0
M  V30 170 C 14.2929 -4.48999 -0.268356 0
M  V30 171 C 15.6119 -3.7912 -2.23508 0
M  V30 172 H 12.7309 -0.695374 -0.244179 0
M  V30 173 H 15.3729 -1.89901 0.0613655 0
M  V30 174 H 13.5229 -3.36626 -1.93946 0
M  V30 175 H 15.1949 -4.59887 0.360844 0
M  V30 176 H 13.4379 -4.31873 0.408482 0
M  V30 177 H 14.1089 -5.46851 -0.752218 0
M  V30 178 H 16.5849 -3.79477 -1.70693 0
M  V30 179 H 15.4609 -4.80729 -2.64936 0
M  V30 180 H 15.7219 -3.13455 -3.11766 0
M  V30 181 N 14.781 0.264519 -1.55364 0
M  V30 182 C 15.711 1.33121 -1.91836 0
M  V30 183 C 16.692 1.51101 -0.781192 0
M  V30 184 O 17.877 1.64003 -1.04003 0
M  V30 185 C 15.007 2.68921 -2.19769 0
M  V30 186 C 13.961 2.65661 -3.35571 0
M  V30 187 C 13.287 4.05093 -3.49004 0
M  V30 188 C 14.587 2.24187 -4.71739 0
M  V30 189 H 16.281 1.02844 -2.81182 0
M  V30 190 H 13.827 0.493286 -1.35287 0
M  V30 191 H 15.78 3.43663 -2.43872 0
M  V30 192 H 14.504 3.00799 -1.27231 0
M  V30 193 H 13.163 1.93377 -3.1145 0
M  V30 194 H 12.811 4.34206 -2.53917 0
M  V30 195 H 12.511 4.03804 -4.26868 0
M  V30 196 H 14.035 4.81561 -3.75408 0
M  V30 197 H 15.449 2.88654 -4.9533 0
M  V30 198 H 13.846 2.34044 -5.52579 0
M  V30 199 H 14.916 1.19327 -4.69988 0
M  V30 200 N 16.2591 1.48442 0.529413 0
M  V30 201 C 17.1891 1.65902 1.64313 0
M  V30 202 C 18.1701 0.507897 1.6234 0
M  V30 203 O 19.3551 0.740503 1.79528 0
M  V30 204 C 16.4851 1.69911 3.02898 0
M  V30 205 C 15.4391 2.8453 3.19729 0
M  V30 206 C 14.7651 2.73629 4.59381 0
M  V30 207 C 16.0651 4.25821 3.02447 0
M  V30 208 H 17.7591 2.5914 1.49955 0
M  V30 209 H 15.3051 1.24709 0.719982 0
M  V30 210 H 17.2581 1.80715 3.80684 0
M  V30 211 H 15.9821 0.732524 3.18279 0
M  V30 212 H 14.6411 2.73283 2.44361 0
M  V30 213 H 14.2891 1.74938 4.71599 0
M  V30 214 H 13.9891 3.50541 4.71588 0
M  V30 215 H 15.5131 2.86401 5.39265 0
M  V30 216 H 16.9271 4.37898 3.70024 0
M  V30 217 H 15.3241 5.03735 3.26146 0
M  V30 218 H 16.3941 4.42244 1.98867 0
M  V30 219 N 17.7372 -0.778329 1.37039 0
M  V30 220 C 18.6702 -1.8984 1.26633 0
M  V30 221 C 19.6482 -1.61923 0.148197 0
M  V30 222 O 20.8322 -1.85742 0.321265 0
M  V30 223 C 17.9592 -3.24916 0.956403 0
M  V30 224 C 17.0052 -3.71752 2.09051 0
M  V30 225 S 17.8382 -3.86201 3.70957 0
M  V30 226 C 18.9942 -5.24135 3.42101 0
M  V30 227 H 19.2272 -1.98377 2.21436 0
M  V30 228 H 16.7602 -0.938738 1.22585 0
M  V30 229 H 18.7182 -4.02936 0.784409 0
M  V30 230 H 17.3792 -3.14089 0.0259713 0
M  V30 231 H 16.5722 -4.69661 1.8285 0
M  V30 232 H 16.1742 -3.00815 2.2223 0
M  V30 233 H 18.4662 -6.09086 2.96682 0
M  V30 234 H 19.4092 -5.55346 4.39314 0
M  V30 235 H 19.8172 -4.91761 2.77185 0
M  V30 236 N 19.2153 -1.21501 -1.00376 0
M  V30 237 C 20.4433 -1.059 -1.77744 0
M  V30 238 C 20.8583 0.391125 -1.84704 0
M  V30 239 O 20.2153 1.27133 -1.30933 0
M  V30 240 C 20.2663 -1.65111 -3.21591 0
M  V30 241 O 19.9873 -3.0445 -3.15027 0
M  V30 242 C 21.4883 -1.54637 -4.15454 0
M  V30 243 H 18.7083 -0.371825 -0.558558 0
M  V30 244 H 21.2523 -1.60865 -1.26264 0
M  V30 245 H 19.4073 -1.14235 -3.70175 0
M  V30 246 H 19.8213 -3.3278 -4.0541 0
M  V30 247 H 21.2953 -2.00808 -5.14179 0
M  V30 248 H 21.7723 -0.501022 -4.36333 0
M  V30 249 H 22.3783 -2.04767 -3.72761 0
M  V30 250 N 20.6934 1.19889 -1.02296 0
M  V30 251 C 21.9394 1.89701 -0.717033 0
M  V30 252 C 22.2724 1.7905 0.751989 0
M  V30 253 O 21.5474 1.17891 1.547 0
M  V30 254 C 21.8304 3.40858 -1.16136 0
M  V30 255 C 21.6834 3.60411 -2.69117 0
M  V30 256 C 23.0024 4.33876 -0.737549 0
M  V30 257 H 20.1214 0.688874 -0.261957 0
M  V30 258 H 22.7634 1.41154 -1.27183 0
M  V30 259 H 20.9134 3.82335 -0.689342 0
M  V30 260 H 22.5854 3.28145 -3.2422 0
M  V30 261 H 20.8284 3.03665 -3.0979 0
M  V30 262 H 21.4994 4.66396 -2.95261 0
M  V30 263 H 23.9754 4.00081 -1.14344 0
M  V30 264 H 22.8514 5.38242 -1.0764 0
M  V30 265 H 23.1124 4.40628 0.360436 0
M  V30 266 N 22.1715 0.800033 1.35784 0
M  V30 267 C 23.1345 0.211565 2.28221 0
M  V30 268 C 24.1345 -0.59728 1.49296 0
M  V30 269 O 25.3245 -0.416721 1.69142 0
M  V30 270 C 22.4565 -0.705846 3.33513 0
M  V30 271 H 23.6495 1.02677 2.81776 0
M  V30 272 H 21.2025 0.570211 1.45528 0
M  V30 273 H 21.9375 -1.54498 2.85133 0
M  V30 274 H 21.7225 -0.127655 3.91892 0
M  V30 275 H 23.2125 -1.11211 4.02519 0
M  V30 276 N 23.6496 -1.47581 0.552962 0
M  V30 277 C 24.5796 -2.32762 -0.185451 0
M  V30 278 C 25.5606 -1.43527 -0.912905 0
M  V30 279 O 26.7456 -1.72388 -0.894201 0
M  V30 280 C 23.8756 -3.25219 -1.21859 0
M  V30 281 C 22.8296 -4.23661 -0.607864 0
M  V30 282 C 22.1556 -5.05413 -1.74533 0
M  V30 283 C 23.4556 -5.20481 0.435582 0
M  V30 284 H 25.1496 -2.94749 0.525684 0
M  V30 285 H 22.6956 -1.41738 0.254251 0
M  V30 286 H 24.6486 -3.8365 -1.7433 0
M  V30 287 H 23.3726 -2.61279 -1.95961 0
M  V30 288 H 22.0316 -3.66451 -0.104489 0
M  V30 289 H 21.6796 -4.3788 -2.47529 0
M  V30 290 H 21.3796 -5.72059 -1.34249 0
M  V30 291 H 22.9036 -5.66701 -2.27338 0
M  V30 292 H 24.3176 -5.733 -0.00290157 0
M  V30 293 H 22.7146 -5.95305 0.757067 0
M  V30 294 H 23.7846 -4.66217 1.33303 0
M  V30 295 N 25.1277 -0.289203 -1.54924 0
M  V30 296 C 26.3747 0.323519 -1.99899 0
M  V30 297 C 26.7027 1.54797 -1.17762 0
M  V30 298 O 25.9577 1.94237 -0.238835 0
M  V30 299 C 26.2567 0.736119 -3.49737 0
M  V30 300 C 25.9227 -0.385276 -4.49251 0
M  V30 301 C 24.5847 -0.693156 -4.76181 0
M  V30 302 C 26.9367 -1.14021 -5.08575 0
M  V30 303 C 24.2647 -1.7593 -5.59701 0
M  V30 304 C 26.6167 -2.19619 -5.93254 0
M  V30 305 C 25.2807 -2.51026 -6.185 0
M  V30 306 H 24.5507 0.118384 -0.731482 0
M  V30 307 H 27.1977 -0.405847 -1.8715 0
M  V30 308 H 25.5027 1.54539 -3.60035 0
M  V30 309 H 27.1997 1.22118 -3.81953 0
M  V30 310 H 23.7897 -0.135202 -4.28387 0
M  V30 311 H 27.9737 -0.915611 -4.87781 0
M  V30 312 H 23.2297 -2.0075 -5.77503 0
M  V30 313 H 27.4037 -2.78581 -6.38252 0
M  V30 314 H 25.0307 -3.33772 -6.83008 0
M  V30 315 N 26.6058 1.57591 -0.0167156 0
M  V30 316 C 27.8308 1.9598 0.67872 0
M  V30 317 C 28.2558 0.892546 1.65575 0
M  V30 318 O 27.6138 -0.147772 1.80697 0
M  V30 319 C 27.6618 3.33468 1.37227 0
M  V30 320 O 26.7658 3.28954 2.48722 0
M  V30 321 H 26.1068 0.639339 0.17928 0
M  V30 322 H 28.6368 2.04463 -0.0748802 0
M  V30 323 H 28.6468 3.69417 1.7319 0
M  V30 324 H 27.3218 4.10694 0.656007 0
M  V30 325 H 25.8988 3.04705 2.14963 0
M  V30 326 N 28.0839 -0.256276 1.55502 0
M  V30 327 C 29.3329 -0.983486 1.76098 0
M  V30 328 C 29.6459 -1.86837 0.578896 0
M  V30 329 O 30.8519 -2.63163 0.667648 0
M  V30 330 C 29.3079 -1.79868 3.1173 0
M  V30 331 C 28.9159 -0.961648 4.37557 0
M  V30 332 C 30.6599 -2.51919 3.41668 0
M  V30 333 C 28.5669 -1.77219 5.64223 0
M  V30 334 H 27.4969 -0.370936 0.656447 0
M  V30 335 H 30.1479 -0.238492 1.81944 0
M  V30 336 H 28.5299 -2.58527 2.99966 0
M  V30 337 H 29.7039 -0.218048 4.60284 0
M  V30 338 H 28.0189 -0.354913 4.14885 0
M  V30 339 H 30.6159 -3.12998 4.33516 0
M  V30 340 H 30.9589 -3.23059 2.62562 0
M  V30 341 H 31.4919 -1.80278 3.54605 0
M  V30 342 H 28.2309 -1.10471 6.46124 0
M  V30 343 H 27.7509 -2.49132 5.45613 0
M  V30 344 H 29.4299 -2.34169 6.03137 0
M  V30 345 N 29.562 -1.4872 -0.521534 0
M  V30 346 C 30.81 -1.56857 -1.27437 0
M  V30 347 C 31.131 -0.247982 -1.93417 0
M  V30 348 O 30.401 0.731151 -1.81744 0
M  V30 349 H 28.981 -0.577885 -0.473347 0
M  V30 350 H 31.643 -1.85233 -0.606205 0
M  V30 351 H 30.739 -2.35402 -2.0492 0
M  V30 352 N 31.0401 0.771051 -1.3745 0
M  V30 353 C 31.9881 1.90574 -1.33358 0
M  V30 354 C 32.9821 1.67936 -0.22224 0
M  V30 355 O 34.1881 1.75717 -0.390304 0
M  V30 356 H 30.5631 0.626714 -0.415612 0
M  V30 357 H 32.5341 1.91142 -2.29144 0
M  V30 358 C 31.2831 3.27845 -1.15813 0
M  V30 359 H 30.6061 3.45842 -2.00583 0
M  V30 360 H 32.0461 4.07538 -1.17 0
M  V30 361 C 30.5051 3.36625 0.136165 0
M  V30 362 O 31.0351 3.85785 1.11949 0
M  V30 363 N 29.2411 2.89997 0.187099 0
M  V30 364 H 28.7881 2.50182 -0.613753 0
M  V30 365 H 28.7461 2.96252 1.05272 0
M  V30 366 N 32.5182 1.22032 0.997298 0
M  V30 367 C 33.7462 1.06841 1.7718 0
M  V30 368 C 34.1612 -0.381325 1.84909 0
M  V30 369 O 33.5182 -1.26437 1.31605 0
M  V30 370 C 33.5692 1.66814 3.20711 0
M  V30 371 O 33.2902 3.06116 3.13408 0
M  V30 372 C 34.7912 1.56838 4.14628 0
M  V30 373 H 32.0112 0.374782 0.556578 0
M  V30 374 H 34.5552 1.61532 1.2541 0
M  V30 375 H 32.7102 1.16196 3.69564 0
M  V30 376 H 33.1242 3.34926 4.0364 0
M  V30 377 H 34.5982 2.03532 5.13107 0
M  V30 378 H 35.0752 0.524155 4.36061 0
M  V30 379 H 35.6812 2.06741 3.7167 0
M  V30 380 N 33.9963 -1.19345 1.0293 0
M  V30 381 C 35.2243 -1.92997 0.745644 0
M  V30 382 C 35.6393 -1.75519 -0.695589 0
M  V30 383 O 34.9963 -1.07737 -1.47306 0
M  V30 384 C 35.0473 -3.44741 1.08792 0
M  V30 385 O 34.7683 -3.61658 2.47256 0
M  V30 386 C 36.2693 -4.35515 0.827129 0
M  V30 387 H 33.4893 -0.613042 0.272801 0
M  V30 388 H 36.0333 -1.51473 1.3739 0
M  V30 389 H 34.1883 -3.84097 0.504832 0
M  V30 390 H 34.6023 -4.55514 2.60015 0
M  V30 391 H 36.0763 -5.40589 1.11658 0
M  V30 392 H 36.5533 -4.38552 -0.238436 0
M  V30 393 H 37.1593 -4.01841 1.39297 0
M  V30 394 N 35.4744 -0.807222 -1.35358 0
M  V30 395 C 36.4374 -0.223665 -2.28106 0
M  V30 396 C 37.4374 0.589354 -1.4961 0
M  V30 397 O 38.6274 0.407745 -1.69361 0
M  V30 398 C 35.7594 0.688149 -3.33882 0
M  V30 399 H 36.9524 -1.04169 -2.81227 0
M  V30 400 H 34.5054 -0.577921 -1.45223 0
M  V30 401 H 35.2404 1.52984 -2.85948 0
M  V30 402 H 35.0254 0.10687 -3.91954 0
M  V30 403 H 36.5154 1.09075 -4.03104 0
M  V30 404 N 36.9525 1.47285 -0.560781 0
M  V30 405 C 37.9155 2.28535 0.174488 0
M  V30 406 C 38.9155 1.37153 0.839388 0
M  V30 407 O 40.1055 1.59748 0.694702 0
M  V30 408 C 37.2375 3.16934 1.25561 0
M  V30 409 H 38.4305 2.95012 -0.539262 0
M  V30 410 H 35.9835 1.53034 -0.317865 0
M  V30 411 H 36.7185 2.55157 2.00164 0
M  V30 412 H 36.5035 3.8419 0.783604 0
M  V30 413 H 37.9935 3.78143 1.77193 0
M  V30 414 N 38.4306 0.297415 1.54768 0
M  V30 415 C 39.7076 -0.365847 1.92148 0
M  V30 416 C 40.0876 -1.71975 1.22424 0
M  V30 417 O 39.4356 -2.25666 0.358739 0
M  V30 418 C 39.6456 -0.484056 3.45627 0
M  V30 419 C 40.9936 -0.756594 4.17805 0
M  V30 420 O 42.0176 -0.568007 3.51642 0
M  V30 421 O 40.8766 -1.11863 5.34929 0
M  V30 422 H 37.9706 -0.203919 0.801465 0
M  V30 423 H 40.5166 0.34521 1.66152 0
M  V30 424 H 39.2886 0.467865 3.88493 0
M  V30 425 H 38.9116 -1.24372 3.77647 0
M  V30 426 N 39.9087 -1.5758 0.0250728 0
M  V30 427 C 40.8567 -2.11125 -0.97617 0
M  V30 428 C 41.8507 -1.03689 -1.33959 0
M  V30 429 O 43.0567 -1.22128 -1.3223 0
M  V30 430 H 39.4317 -0.674468 -0.332561 0
M  V30 431 H 41.4027 -2.94194 -0.499223 0
M  V30 432 C 40.1517 -2.65017 -2.2508 0
M  V30 433 H 39.4747 -3.47333 -1.9799 0
M  V30 434 H 40.9147 -3.06133 -2.93357 0
M  V30 435 C 39.3737 -1.57574 -2.97779 0
M  V30 436 O 39.9037 -0.973203 -3.89733 0
M  V30 437 N 38.1097 -1.29716 -2.60043 0
M  V30 438 H 37.6567 -1.789 -1.85345 0
M  V30 439 H 37.6147 -0.58051 -3.08994 0
M  V30 440 N 41.3868 0.248026 -1.55636 0
M  V30 441 C 42.6638 0.998988 -1.68165 0
M  V30 442 C 43.0438 2.03409 -0.564621 0
M  V30 443 O 42.3918 2.24378 0.432076 0
M  V30 444 C 42.6018 1.63334 -3.0842 0
M  V30 445 C 43.9498 2.13562 -3.66983 0
M  V30 446 O 44.9738 1.73277 -3.11213 0
M  V30 447 O 43.8328 2.87526 -4.64749 0
M  V30 448 H 40.9268 0.464933 -0.683935 0
M  V30 449 H 43.4728 0.241902 -1.67967 0
M  V30 450 H 42.2448 0.884583 -3.8117 0
M  V30 451 H 41.8678 2.45666 -3.12624 0
M  V30 452 N 42.8649 1.48995 0.513639 0
M  V30 453 C 44.0899 1.61792 1.29762 0
M  V30 454 C 44.5149 0.284475 1.85936 0
M  V30 455 O 43.8729 -0.746185 1.65232 0
M  V30 456 C 43.9209 2.67993 2.41272 0
M  V30 457 O 43.0249 2.26287 3.44772 0
M  V30 458 H 42.3659 0.541963 0.38363 0
M  V30 459 H 44.8959 1.95097 0.616307 0
M  V30 460 H 44.9059 2.89772 2.87221 0
M  V30 461 H 43.5809 3.64791 1.9975 0
M  V30 462 H 42.1579 2.14788 3.04829 0
M  V30 463 N 44.343 -0.763751 1.37857 0
M  V30 464 C 45.589 -1.52483 1.33704 0
M  V30 465 C 45.922 -1.94051 -0.0759612 0
M  V30 466 O 45.197 -1.64675 -1.03501 0
M  V30 467 C 45.48 -2.78441 2.28348 0
M  V30 468 C 45.333 -2.43075 3.78463 0
M  V30 469 C 46.652 -3.80415 2.21298 0
M  V30 470 H 43.771 -0.553169 0.487005 0
M  V30 471 H 46.413 -0.875562 1.68624 0
M  V30 472 H 44.563 -3.33842 1.987 0
M  V30 473 H 46.235 -1.93527 4.18742 0
M  V30 474 H 44.478 -1.75666 3.96641 0
M  V30 475 H 45.149 -3.33149 4.40132 0
M  V30 476 H 47.625 -3.34527 2.47449 0
M  V30 477 H 46.501 -4.66257 2.89647 0
M  V30 478 H 46.762 -4.25262 1.20849 0
M  V30 479 N 45.8211 -1.22559 -0.990812 0
M  V30 480 C 47.0671 -1.05297 -1.73322 0
M  V30 481 C 47.4001 0.410655 -1.89808 0
M  V30 482 O 46.6751 1.30439 -1.44277 0
M  V30 483 C 46.9581 -1.76713 -3.13759 0
M  V30 484 C 46.8111 -3.30684 -3.04907 0
M  V30 485 C 48.1301 -1.52121 -4.12974 0
M  V30 486 H 45.2491 -0.38392 -0.629106 0
M  V30 487 H 47.8911 -1.50926 -1.15418 0
M  V30 488 H 46.0411 -1.37924 -3.63193 0
M  V30 489 H 47.7131 -3.7893 -2.63077 0
M  V30 490 H 45.9561 -3.60253 -2.41661 0
M  V30 491 H 46.6271 -3.75833 -4.04294 0
M  V30 492 H 49.1031 -1.85819 -3.72304 0
M  V30 493 H 47.9791 -2.04582 -5.0935 0
M  V30 494 H 48.2401 -0.454257 -4.3976 0
M  V30 495 N 47.2992 1.18797 -1.03562 0
M  V30 496 C 48.2092 2.25913 -0.632505 0
M  V30 497 C 49.2252 1.70668 0.338882 0
M  V30 498 O 50.4012 2.00453 0.195076 0
M  V30 499 C 47.4662 3.467 0.00350942 0
M  V30 500 C 46.5272 4.17098 -1.01624 0
M  V30 501 C 45.7602 5.32119 -0.410478 0
M  V30 502 O 45.9832 5.64976 0.784725 0
M  V30 503 O 44.9172 5.9107 -1.13667 0
M  V30 504 H 48.7432 2.62648 -1.52478 0
M  V30 505 H 46.3282 1.25781 -0.806195 0
M  V30 506 H 48.2102 4.19878 0.35781 0
M  V30 507 H 46.8852 3.11798 0.869686 0
M  V30 508 H 45.7922 3.4601 -1.42224 0
M  V30 509 H 47.1252 4.55987 -1.85301 0
M  V30 510 N 48.7773 0.814389 1.34928 0
M  V30 511 C 49.6873 0.231978 2.3345 0
M  V30 512 C 50.7033 -0.629139 1.62228 0
M  V30 513 O 51.8793 -0.539052 1.94052 0
M  V30 514 C 48.9443 -0.603482 3.41407 0
M  V30 515 C 48.0053 0.279037 4.28392 0
M  V30 516 C 47.2383 -0.516643 5.31193 0
M  V30 517 O 47.4613 -1.75068 5.4287 0
M  V30 518 O 46.3953 0.0965652 6.01823 0
M  V30 519 H 50.2213 1.04721 2.85074 0
M  V30 520 H 47.8063 0.576343 1.37836 0
M  V30 521 H 49.6883 -1.07908 4.0735 0
M  V30 522 H 48.3633 -1.39618 2.92042 0
M  V30 523 H 47.2703 0.801948 3.65403 0
M  V30 524 H 48.6033 1.03588 4.81176 0
M  V30 525 N 50.2554 -1.46986 0.568584 0
M  V30 526 C 51.2054 -2.27179 -0.193339 0
M  V30 527 C 52.1894 -1.35035 -0.874895 0
M  V30 528 O 53.3814 -1.5931 -0.771322 0
M  V30 529 C 50.5104 -3.21063 -1.21546 0
M  V30 530 C 49.5964 -4.2069 -0.536738 0
M  V30 531 N 49.9874 -5.04218 0.399673 0
M  V30 532 C 48.2854 -4.38961 -0.789254 0
M  V30 533 C 48.9864 -5.76242 0.795017 0
M  V30 534 N 47.9624 -5.434 0.1473 0
M  V30 535 H 51.7644 -2.89146 0.526458 0
M  V30 536 H 49.2784 -1.57664 0.389342 0
M  V30 537 H 51.2754 -3.77209 -1.77536 0
M  V30 538 H 49.9354 -2.60654 -1.93623 0
M  V30 539 H 50.9464 -5.12077 0.774454 0
M  V30 540 H 47.6234 -3.89713 -1.49767 0
M  V30 541 H 49.0134 -6.53417 1.56513 0
M  V30 542 N 51.7335 -0.305618 -1.54608 0
M  V30 543 C 52.9815 0.301701 -1.99835 0
M  V30 544 C 53.3025 1.54054 -1.19551 0
M  V30 545 O 52.5725 1.93702 -0.292658 0
M  V30 546 H 51.1525 0.114468 -0.738178 0
M  V30 547 H 53.8145 -0.418016 -1.90364 0
M  V30 548 H 52.9105 0.570548 -3.06841 0
M  V30 549 N 53.2116 1.57565 -0.0334293 0
M  V30 550 C 54.1436 2.0739 0.975811 0
M  V30 551 C 55.1566 0.998166 1.2861 0
M  V30 552 O 56.3456 1.27426 1.25 0
M  V30 553 C 53.4456 2.4871 2.30209 0
M  V30 554 C 52.6186 3.79413 2.17634 0
M  V30 555 C 51.6776 4.07237 3.33233 0
M  V30 556 O 50.7036 4.77425 3.09927 0
M  V30 557 N 51.9056 3.5775 4.5716 0
M  V30 558 H 54.6706 2.94598 0.55066 0
M  V30 559 H 52.2316 1.61173 0.15323 0
M  V30 560 H 54.2236 2.64413 3.06378 0
M  V30 561 H 52.7936 1.66845 2.64351 0
M  V30 562 H 52.0136 3.73465 1.26165 0
M  V30 563 H 53.3016 4.65038 2.0644 0
M  V30 564 H 52.6996 3.00976 4.78989 0
M  V30 565 H 51.2566 3.78724 5.30482 0
M  V30 566 N 54.6897 -0.239769 1.55765 0
M  V30 567 C 55.6197 -1.30052 1.9393 0
M  V30 568 C 56.6007 -1.49839 0.805132 0
M  V30 569 O 57.7857 -1.62328 1.06599 0
M  V30 570 C 54.9157 -2.65391 2.2402 0
M  V30 571 C 53.8697 -2.60289 3.39755 0
M  V30 572 C 53.1957 -3.99489 3.55405 0
M  V30 573 C 54.4957 -2.16654 4.75246 0
M  V30 574 H 56.1897 -0.983573 2.82783 0
M  V30 575 H 53.7357 -0.471701 1.36055 0
M  V30 576 H 55.6887 -3.3974 2.49308 0
M  V30 577 H 54.4127 -2.98736 1.32 0
M  V30 578 H 53.0717 -1.88398 3.14487 0
M  V30 579 H 52.7197 -4.30112 2.60793 0
M  V30 580 H 52.4197 -3.96962 4.33238 0
M  V30 581 H 53.9437 -4.75528 3.83022 0
M  V30 582 H 55.3577 -2.80737 4.99859 0
M  V30 583 H 53.7547 -2.25223 5.56232 0
M  V30 584 H 54.8247 -1.11835 4.71827 0
M  V30 585 N 56.1678 -1.49265 -0.50573 0
M  V30 586 C 57.3928 -1.62478 -1.28902 0
M  V30 587 C 57.8178 -0.294332 -1.85783 0
M  V30 588 O 57.1758 0.737412 -1.65626 0
M  V30 589 C 57.2238 -2.69268 -2.39848 0
M  V30 590 O 56.3278 -2.28113 -3.43567 0
M  V30 591 H 55.6688 -0.54399 -0.380751 0
M  V30 592 H 58.1988 -1.95421 -0.605952 0
M  V30 593 H 58.2088 -2.91291 -2.85681 0
M  V30 594 H 56.8838 -3.65846 -1.97812 0
M  V30 595 H 55.4608 -2.16401 -3.03685 0
M  V30 596 N 57.6459 0.756429 -1.3826 0
M  V30 597 C 58.8949 1.51082 -1.3363 0
M  V30 598 C 59.2079 1.95467 0.0720068 0
M  V30 599 O 60.4139 2.7043 0.240834 0
M  V30 600 C 58.8699 2.72893 -2.34644 0
M  V30 601 C 58.4779 2.35544 -3.81081 0
M  V30 602 C 60.2219 3.50791 -2.39052 0
M  V30 603 C 58.1289 3.53948 -4.73787 0
M  V30 604 H 57.0589 0.56727 -0.49671 0
M  V30 605 H 59.7099 0.827147 -1.638 0
M  V30 606 H 58.0919 3.43227 -1.97513 0
M  V30 607 H 59.2659 1.72894 -4.27135 0
M  V30 608 H 57.5809 1.70786 -3.79764 0
M  V30 609 H 60.1779 4.38823 -3.05513 0
M  V30 610 H 60.5209 3.91745 -1.40861 0
M  V30 611 H 61.0539 2.87467 -2.74968 0
M  V30 612 H 57.7929 3.18064 -5.73163 0
M  V30 613 H 57.3129 4.15651 -4.32428 0
M  V30 614 H 58.9919 4.20566 -4.91663 0
M  V30 615 N 59.124 1.23083 0.984299 0
M  V30 616 C 60.349 1.088 1.76571 0
M  V30 617 C 60.774 -0.356657 1.84688 0
M  V30 618 O 60.132 -1.25788 1.30565 0
M  V30 619 C 60.18 1.71371 3.17277 0
M  V30 620 O 59.284 0.973213 4.00752 0
M  V30 621 H 58.625 0.381599 0.543395 0
M  V30 622 H 61.155 1.63057 1.23587 0
M  V30 623 H 61.165 1.76449 3.67872 0
M  V30 624 H 59.84 2.76493 3.10684 0
M  V30 625 H 58.417 0.999078 3.59267 0
M  V30 626 N 60.6021 -1.18246 1.0419 0
M  V30 627 C 61.5501 -2.23968 0.627792 0
M  V30 628 C 62.5441 -1.65828 -0.346019 0
M  V30 629 O 63.7501 -1.78733 -0.213175 0
M  V30 630 H 60.1251 -0.728939 0.184802 0
M  V30 631 H 62.0961 -2.56202 1.52981 0
M  V30 632 C 60.8451 -3.47699 0.00796591 0
M  V30 633 H 60.1681 -3.92734 0.748347 0
M  V30 634 H 61.6081 -4.23294 -0.24455 0
M  V30 635 C 60.0671 -3.13153 -1.24246 0
M  V30 636 O 60.5971 -3.27003 -2.33307 0
M  V30 637 N 58.8031 -2.67467 -1.13622 0
M  V30 638 H 58.3501 -2.56396 -0.248734 0
M  V30 639 H 58.3081 -2.44724 -1.97377 0
M  V30 640 N 62.0802 -0.821533 -1.34494 0
M  V30 641 C 63.3282 -0.408139 -1.97936 0
M  V30 642 C 63.6492 1.03193 -1.65457 0
M  V30 643 O 62.9192 1.71622 -0.944595 0
M  V30 644 H 61.4992 -0.147928 -0.732206 0
M  V30 645 H 64.1612 -1.05067 -1.64155 0
M  V30 646 H 63.2572 -0.52601 -3.07635 0
M  V30 647 N 63.5583 1.46682 -0.576371 0
M  V30 648 C 64.4683 2.34032 0.163141 0
M  V30 649 C 65.4843 1.49367 0.892501 0
M  V30 650 O 66.6603 1.82252 0.857106 0
M  V30 651 C 63.7253 3.26435 1.16795 0
M  V30 652 C 62.7863 4.26998 0.443944 0
M  V30 653 C 62.0193 5.14986 1.40088 0
M  V30 654 O 62.2423 5.05785 2.637 0
M  V30 655 O 61.1763 5.94906 0.914917 0
M  V30 656 H 65.0023 2.98607 -0.55388 0
M  V30 657 H 62.5873 1.45554 -0.336821 0
M  V30 658 H 64.4693 3.83459 1.74748 0
M  V30 659 H 63.1443 2.64465 1.86655 0
M  V30 660 H 62.0513 3.7368 -0.177271 0
M  V30 661 H 63.3843 4.91736 -0.213566 0
M  V30 662 N 65.0364 0.313813 1.54444 0
M  V30 663 C 65.9664 -0.549454 2.26943 0
M  V30 664 C 66.9474 -1.12741 1.27372 0
M  V30 665 O 68.1324 -1.15436 1.56167 0
M  V30 666 C 65.2624 -1.71523 3.01989 0
M  V30 667 C 64.2164 -1.26703 4.08816 0
M  V30 668 C 63.5424 -2.51898 4.71647 0
M  V30 669 C 64.8424 -0.388962 5.2085 0
M  V30 670 H 66.5364 0.0552661 2.99349 0
M  V30 671 H 64.0824 0.0280207 1.43973 0
M  V30 672 H 66.0354 -2.32535 3.51433 0
M  V30 673 H 64.7594 -2.34639 2.27183 0
M  V30 674 H 63.4184 -0.679896 3.6024 0
M  V30 675 H 63.0664 -3.13356 3.93468 0
M  V30 676 H 62.7664 -2.22605 5.43802 0
M  V30 677 H 64.2904 -3.1369 5.23861 0
M  V30 678 H 65.7044 -0.905107 5.6611 0
M  V30 679 H 64.1014 -0.18924 5.99802 0
M  V30 680 H 65.1714 0.582699 4.81386 0
M  V30 681 N 66.5145 -1.57545 0.0417849 0
M  V30 682 C 67.7605 -1.92601 -0.635021 0
M  V30 683 C 68.0935 -0.919627 -1.71045 0
M  V30 684 O 67.3685 0.0557892 -1.9442 0
M  V30 685 C 67.6515 -3.38085 -1.23979 0
M  V30 686 C 67.5045 -4.49467 -0.173057 0
M  V30 687 C 68.8235 -3.83776 -2.15416 0
M  V30 688 H 65.9425 -0.700397 -0.229374 0
M  V30 689 H 68.5845 -1.89728 0.101633 0
M  V30 690 H 66.7345 -3.40664 -1.86762 0
M  V30 691 H 68.4065 -4.59018 0.458312 0
M  V30 692 H 66.6495 -4.30909 0.499996 0
M  V30 693 H 67.3205 -5.48323 -0.636054 0
M  V30 694 H 69.7965 -3.83013 -1.62605 0
M  V30 695 H 68.6725 -4.8624 -2.54679 0
M  V30 696 H 68.9335 -3.19998 -3.05047 0
M  V30 697 N 67.9926 0.231505 -1.5589 0
M  V30 698 C 68.9406 1.30649 -1.92441 0
M  V30 699 C 69.9346 1.49037 -0.805254 0
M  V30 700 O 71.1406 1.50329 -0.990007 0
M  V30 701 H 67.5156 0.437812 -0.611412 0
M  V30 702 H 69.4866 0.970973 -2.82161 0
M  V30 703 C 68.2356 2.65179 -2.24889 0
M  V30 704 H 67.5586 2.51835 -3.10514 0
M  V30 705 H 68.9986 3.39234 -2.54355 0
M  V30 706 C 67.4576 3.19439 -1.07054 0
M  V30 707 O 67.9876 4.00371 -0.326499 0
M  V30 708 N 66.1936 2.77675 -0.85703 0
M  V30 709 H 65.7406 2.11969 -1.46379 0
M  V30 710 H 65.6986 3.14321 -0.0703223 0
M  V30 711 N 69.4707 1.49531 0.497807 0
M  V30 712 C 70.3807 1.69176 1.62532 0
M  V30 713 C 71.3967 0.5744 1.64246 0
M  V30 714 O 72.5727 0.849497 1.82608 0
M  V30 715 C 69.6377 1.75695 2.98885 0
M  V30 716 C 68.6987 2.9929 3.07773 0
M  V30 717 C 67.9317 3.05488 4.37622 0
M  V30 718 O 68.1547 2.19192 5.26603 0
M  V30 719 O 67.0887 3.9798 4.51548 0
M  V30 720 H 70.9147 2.647 1.48887 0
M  V30 721 H 68.4997 1.3331 0.674441 0
M  V30 722 H 70.3817 1.82317 3.79919 0
M  V30 723 H 69.0567 0.8335 3.12785 0
M  V30 724 H 67.9637 2.98183 2.25915 0
M  V30 725 H 69.2967 3.91125 2.98801 0
M  V30 726 N 70.9488 -0.749086 1.3866 0
M  V30 727 C 72.3648 -1.05276 1.19955 0
M  V30 728 C 72.5648 -2.01435 0.05134 0
M  V30 729 O 71.6208 -2.45232 -0.60147 0
M  V30 730 C 72.9338 -1.62853 2.52783 0
M  V30 731 C 74.4818 -1.75002 2.59506 0
M  V30 732 C 74.9568 -2.35991 3.92521 0
M  V30 733 N 76.4478 -2.43416 3.94085 0
M  V30 734 C 77.1828 -2.91511 4.9377 0
M  V30 735 N 76.6788 -3.39608 6.03853 0
M  V30 736 N 78.4718 -2.90592 4.81157 0
M  V30 737 H 70.6228 -0.111066 2.12109 0
M  V30 738 H 72.8858 -0.111901 0.941373 0
M  V30 739 H 72.5918 -0.99664 3.37283 0
M  V30 740 H 72.4658 -2.61854 2.715 0
M  V30 741 H 74.8528 -2.37317 1.75398 0
M  V30 742 H 74.9338 -0.74693 2.44652 0
M  V30 743 H 74.5778 -1.74308 4.77053 0
M  V30 744 H 74.5078 -3.3695 4.04688 0
M  V30 745 H 76.9988 -2.09405 3.14576 0
M  V30 746 H 77.3118 -3.74775 6.75843 0
M  V30 747 H 75.6568 -3.37653 6.07466 0
M  V30 748 H 78.8478 -2.52332 3.94267 0
M  V30 749 H 79.0208 -3.27762 5.58996 0
M  V30 750 N 72.4269 -1.23603 -0.977757 0
M  V30 751 C 73.6749 -1.06759 -1.71601 0
M  V30 752 C 73.9959 0.395929 -1.90938 0
M  V30 753 O 73.2659 1.28356 -1.47992 0
M  V30 754 H 71.8459 -0.392062 -0.635843 0
M  V30 755 H 74.5079 -1.55362 -1.1768 0
M  V30 756 H 73.6039 -1.55763 -2.70452 0
M  V30 757 N 73.905 1.17692 -1.04816 0
M  V30 758 C 74.815 2.25229 -0.65643 0
M  V30 759 C 75.831 1.71018 0.320761 0
M  V30 760 O 77.007 2.00649 0.173805 0
M  V30 761 C 74.072 3.46684 -0.0332629 0
M  V30 762 C 73.133 4.15997 -1.06042 0
M  V30 763 C 72.366 5.31654 -0.466893 0
M  V30 764 O 72.589 5.65777 0.724758 0
M  V30 765 O 71.523 5.89831 -1.1993 0
M  V30 766 H 75.349 2.61016 -1.55255 0
M  V30 767 H 72.934 1.24919 -0.81949 0
M  V30 768 H 74.816 4.20234 0.313256 0
M  V30 769 H 73.491 3.12703 0.836566 0
M  V30 770 H 72.398 3.44482 -1.45886 0
M  V30 771 H 73.731 4.53996 -1.90127 0
M  V30 772 N 75.3831 0.828654 1.34056 0
M  V30 773 C 76.3151 0.212052 2.28217 0
M  V30 774 C 77.3281 -0.601362 1.51286 0
M  V30 775 O 78.5171 -0.430104 1.73241 0
M  V30 776 C 75.6171 -0.72088 3.31144 0
M  V30 777 C 74.7901 0.0509587 4.3737 0
M  V30 778 C 73.8491 -0.803766 5.20025 0
M  V30 779 O 72.8751 -0.246667 5.68665 0
M  V30 780 N 74.0771 -2.1227 5.40298 0
M  V30 781 H 76.8421 1.02105 2.81771 0
M  V30 782 H 74.4031 0.686153 1.46641 0
M  V30 783 H 76.3951 -1.29742 3.8334 0
M  V30 784 H 74.9651 -1.43061 2.77943 0
M  V30 785 H 74.1851 0.808831 3.85813 0
M  V30 786 H 75.4731 0.582065 5.0546 0
M  V30 787 H 74.8711 -2.59898 5.02464 0
M  V30 788 H 73.4281 -2.64796 5.95589 0
M  V30 789 N 76.8612 -1.46375 0.584142 0
M  V30 790 C 78.1072 -2.02678 0.0703716 0
M  V30 791 C 78.4402 -1.4545 -1.28678 0
M  V30 792 O 77.7152 -0.62014 -1.84349 0
M  V30 793 C 77.9982 -3.60099 0.00614674 0
M  V30 794 C 77.8512 -4.27709 1.3923 0
M  V30 795 C 79.1702 -4.34598 -0.693742 0
M  V30 796 H 76.2892 -0.736504 0.027047 0
M  V30 797 H 78.9312 -1.74501 0.751615 0
M  V30 798 H 77.0812 -3.84236 -0.574009 0
M  V30 799 H 78.7532 -4.14832 2.01773 0
M  V30 800 H 76.9962 -3.87016 1.95962 0
M  V30 801 H 77.6672 -5.36478 1.29982 0
M  V30 802 H 80.1432 -4.15615 -0.200869 0
M  V30 803 H 79.0192 -5.44318 -0.707714 0
M  V30 804 H 79.2802 -4.05759 -1.75533 0
M  V30 805 N 78.3393 -0.321999 -1.54275 0
M  V30 806 C 79.2713 0.578671 -2.21775 0
M  V30 807 C 80.2843 1.08109 -1.21722 0
M  V30 808 O 81.4733 0.994938 -1.482 0
M  V30 809 C 78.5733 1.80661 -2.86731 0
M  V30 810 C 77.7463 1.44314 -4.12907 0
M  V30 811 C 76.8053 2.52845 -4.61472 0
M  V30 812 O 75.8313 2.17054 -5.2619 0
M  V30 813 N 77.0333 3.83748 -4.35566 0
M  V30 814 H 79.7983 0.000709447 -2.997 0
M  V30 815 H 77.3593 -0.145132 -1.61248 0
M  V30 816 H 79.3513 2.52655 -3.16145 0
M  V30 817 H 77.9213 2.29245 -2.12521 0
M  V30 818 H 77.1413 0.554906 -3.90275 0
M  V30 819 H 78.4293 1.17598 -4.95023 0
M  V30 820 H 77.8273 4.15625 -3.83761 0
M  V30 821 H 76.3843 4.51977 -4.69638 0
M  V30 822 N 79.8174 1.5752 -0.0501392 0
M  V30 823 C 80.7474 2.14502 0.922566 0
M  V30 824 C 81.7284 1.06642 1.3252 0
M  V30 825 O 82.9134 1.34577 1.4001 0
M  V30 826 C 80.0434 2.68916 2.19776 0
M  V30 827 C 78.9974 3.8175 1.93523 0
M  V30 828 C 78.3234 4.22677 3.27487 0
M  V30 829 C 79.6234 5.06932 1.25765 0
M  V30 830 H 81.3174 2.9603 0.447952 0
M  V30 831 H 78.8634 1.42401 0.214024 0
M  V30 832 H 80.8164 3.07419 2.88222 0
M  V30 833 H 79.5404 1.84578 2.69441 0
M  V30 834 H 78.1994 3.43718 1.27489 0
M  V30 835 H 77.8474 3.35291 3.74952 0
M  V30 836 H 77.5474 4.98725 3.1072 0
M  V30 837 H 79.0714 4.63779 3.97166 0
M  V30 838 H 80.4854 5.42888 1.84244 0
M  V30 839 H 78.8824 5.88116 1.19328 0
M  V30 840 H 79.9524 4.84337 0.233536 0
M  V30 841 N 81.2955 -0.223234 1.56011 0
M  V30 842 C 82.2425 -1.27664 1.92277 0
M  V30 843 C 83.2125 -1.46659 0.779763 0
M  V30 844 O 84.3975 -1.60256 1.03551 0
M  V30 845 C 81.5375 -2.62234 2.24338 0
M  V30 846 C 80.6505 -2.51051 3.51564 0
M  V30 847 C 79.7855 -3.78133 3.7308 0
M  V30 848 C 78.8245 -3.61665 4.93827 0
M  V30 849 N 77.9615 -4.80693 5.11741 0
M  V30 850 H 82.8015 -0.960358 2.82101 0
M  V30 851 H 80.3385 -0.462901 1.39627 0
M  V30 852 H 82.2965 -3.40596 2.40936 0
M  V30 853 H 80.9265 -2.91961 1.3769 0
M  V30 854 H 79.9785 -1.64132 3.43169 0
M  V30 855 H 81.2905 -2.34803 4.40079 0
M  V30 856 H 80.4445 -4.64938 3.89766 0
M  V30 857 H 79.1835 -3.97304 2.82844 0
M  V30 858 H 78.1885 -2.73244 4.77093 0
M  V30 859 H 79.4135 -3.43966 5.85546 0
M  V30 860 H 77.3595 -5.00181 4.24446 0
M  V30 861 H 77.2765 -4.67165 5.94384 0
M  V30 862 H 78.5445 -5.6893 5.3286 0
M  V30 863 N 82.7736 -1.49793 -0.48987 0
M  V30 864 C 84.0216 -1.59525 -1.24081 0
M  V30 865 C 84.3426 -0.288953 -1.92847 0
M  V30 866 O 83.6126 0.692436 -1.83254 0
M  V30 867 H 82.1926 -0.587796 -0.460983 0
M  V30 868 H 84.8546 -1.86477 -0.566778 0
M  V30 869 H 83.9506 -2.39696 -1.99881 0
M  V30 870 N 84.2517 0.741722 -1.39055 0
M  V30 871 C 85.1847 1.86416 -1.31622 0
M  V30 872 C 86.1627 1.61473 -0.191076 0
M  V30 873 O 87.3467 1.84825 -0.370399 0
M  V30 874 C 84.4737 3.22266 -1.04221 0
M  V30 875 C 83.5197 3.66079 -2.18834 0
M  V30 876 S 84.3527 3.7623 -3.81066 0
M  V30 877 C 85.5087 5.14881 -3.55877 0
M  V30 878 H 85.7417 1.92437 -2.26617 0
M  V30 879 H 83.2747 0.905907 -1.25031 0
M  V30 880 H 85.2327 4.00714 -0.890964 0
M  V30 881 H 83.8937 3.1391 -0.109237 0
M  V30 882 H 83.0867 4.64648 -1.95238 0
M  V30 883 H 82.6887 2.94817 -2.30128 0
M  V30 884 H 84.9807 6.01006 -3.12726 0
M  V30 885 H 85.9237 5.43503 -4.53884 0
M  V30 886 H 86.3317 4.84239 -2.90126 0
M  V30 887 N 85.7298 1.2412 0.971189 0
M  V30 888 C 86.9548 1.10667 1.75407 0
M  V30 889 C 87.3798 -0.337048 1.85056 0
M  V30 890 O 86.7378 -1.24396 1.31892 0
M  V30 891 C 86.7858 1.74726 3.15441 0
M  V30 892 O 85.8898 1.01566 3.99697 0
M  V30 893 H 85.2308 0.387341 0.539317 0
M  V30 894 H 87.7608 1.64358 1.2185 0
M  V30 895 H 87.7708 1.80341 3.6598 0
M  V30 896 H 86.4458 2.79773 3.07734 0
M  V30 897 H 85.0228 1.03713 3.58187 0
M  V30 898 N 87.2079 -1.17134 1.05439 0
M  V30 899 C 88.4329 -1.91913 0.786396 0
M  V30 900 C 88.8579 -1.7643 -0.652234 0
M  V30 901 O 88.2159 -1.08372 -1.45345 0
M  V30 902 C 88.2639 -3.40921 1.17497 0
M  V30 903 O 87.3679 -4.11244 0.308589 0
M  V30 904 H 86.7089 -0.598215 0.288158 0
M  V30 905 H 89.2389 -1.48457 1.4079 0
M  V30 906 H 89.2489 -3.91668 1.14281 0
M  V30 907 H 87.9239 -3.5151 2.22292 0
M  V30 908 H 86.5009 -3.70731 0.40157 0
M  V30 909 N 88.686 -0.835752 -1.33615 0
M  V30 910 C 89.636 -0.238856 -2.26745 0
M  V30 911 C 90.62 0.604343 -1.49119 0
M  V30 912 O 91.812 0.456822 -1.71003 0
M  V30 913 C 88.941 0.587725 -3.38232 0
M  V30 914 C 88.027 -0.266811 -4.2326 0
M  V30 915 N 88.418 -1.34403 -4.87616 0
M  V30 916 C 86.716 -0.0533131 -4.45968 0
M  V30 917 C 87.417 -1.86819 -5.50884 0
M  V30 918 N 86.393 -1.17013 -5.30857 0
M  V30 919 H 90.195 -1.06266 -2.74016 0
M  V30 920 H 87.709 -0.679881 -1.47483 0
M  V30 921 H 89.706 1.03161 -4.03935 0
M  V30 922 H 88.366 1.40954 -2.9251 0
M  V30 923 H 89.377 -1.7269 -4.88261 0
M  V30 924 H 86.054 0.735312 -4.10974 0
M  V30 925 H 87.444 -2.7701 -6.1214 0
M  V30 926 N 90.1641 1.46063 -0.591896 0
M  V30 927 C 91.4121 2.01938 -0.0808391 0
M  V30 928 C 91.7331 1.46475 1.28725 0
M  V30 929 O 91.0031 0.652944 1.84698 0
M  V30 930 H 89.5831 0.746516 -0.0268938 0
M  V30 931 H 92.2451 1.79055 -0.769752 0
M  V30 932 H 91.3411 3.12094 -0.0187578 0
M  V30 933 N 91.6422 0.330177 1.54103 0
M  V30 934 C 92.5722 -0.525353 2.27513 0
M  V30 935 C 93.5532 -1.11383 1.2856 0
M  V30 936 O 94.7382 -1.13773 1.57383 0
M  V30 937 C 91.8682 -1.6831 3.03791 0
M  V30 938 C 90.8222 -1.2236 4.10137 0
M  V30 939 C 90.1482 -2.46882 4.74293 0
M  V30 940 C 91.4482 -0.333697 5.21233 0
M  V30 941 H 93.1422 0.087013 2.99274 0
M  V30 942 H 90.6882 0.0432893 1.43935 0
M  V30 943 H 92.6412 -2.28795 3.5388 0
M  V30 944 H 91.3652 -2.32216 2.29659 0
M  V30 945 H 90.0242 -0.64165 3.60941 0
M  V30 946 H 89.6722 -3.09165 3.96769 0
M  V30 947 H 89.3722 -2.16825 5.46133 0
M  V30 948 H 90.8962 -3.08117 5.27159 0
M  V30 949 H 92.3102 -0.845013 5.67038 0
M  V30 950 H 90.7072 -0.125612 5.99969 0
M  V30 951 H 91.7772 0.633724 4.80741 0
M  V30 952 N 93.1203 -1.57491 0.0584922 0
M  V30 953 C 94.0523 -2.08916 -0.942694 0
M  V30 954 C 95.0653 -1.0185 -1.27006 0
M  V30 955 O 96.2543 -1.29398 -1.22957 0
M  V30 956 C 93.3543 -2.52341 -2.26224 0
M  V30 957 C 92.5273 -3.82827 -2.1157 0
M  V30 958 C 91.5863 -4.12487 -3.26712 0
M  V30 959 O 90.6123 -4.82295 -3.02292 0
M  V30 960 N 91.8143 -3.64978 -4.5141 0
M  V30 961 H 94.5793 -2.95437 -0.503722 0
M  V30 962 H 92.1403 -1.61397 -0.12757 0
M  V30 963 H 94.1323 -2.69254 -3.02133 0
M  V30 964 H 92.7023 -1.7103 -2.61663 0
M  V30 965 H 91.9223 -3.75425 -1.20208 0
M  V30 966 H 93.2103 -4.68263 -1.99015 0
M  V30 967 H 92.6083 -3.08558 -4.7414 0
M  V30 968 H 91.1653 -3.87115 -5.2439 0
M  V30 969 N 94.5984 0.214957 -1.56127 0
M  V30 970 C 95.8444 0.935325 -1.80619 0
M  V30 971 C 96.1994 1.81706 -0.632507 0
M  V30 972 O 95.4924 1.87931 0.373182 0
M  V30 973 C 95.6864 1.80314 -3.0858 0
M  V30 974 C 95.5154 1.00691 -4.38282 0
M  V30 975 C 94.2854 0.699211 -5.00439 0
M  V30 976 C 96.4834 0.369057 -5.12974 0
M  V30 977 N 94.4654 -0.117734 -6.13787 0
M  V30 978 C 95.8364 -0.310981 -6.1922 0
M  V30 979 C 97.8914 0.282759 -4.97096 0
M  V30 980 C 96.5944 -1.06907 -7.11311 0
M  V30 981 C 98.6204 -0.461881 -5.89594 0
M  V30 982 C 97.9824 -1.13044 -6.9527 0
M  V30 983 H 94.0814 0.322307 -0.71249 0
M  V30 984 H 96.6654 0.205649 -1.93611 0
M  V30 985 H 94.8364 2.50458 -2.96859 0
M  V30 986 H 96.5684 2.46148 -3.21237 0
M  V30 987 H 93.3234 1.01884 -4.62511 0
M  V30 988 H 93.7474 -0.515235 -6.75037 0
M  V30 989 H 98.3894 0.785292 -4.15443 0
M  V30 990 H 96.1074 -1.5831 -7.92442 0
M  V30 991 H 99.6934 -0.529746 -5.79383 0
M  V30 992 H 98.5734 -1.69742 -7.65609 0
M  V30 993 N 96.0765 1.50051 0.48192 0
M  V30 994 C 97.3065 1.63999 1.2565 0
M  V30 995 C 97.7145 0.318288 1.86504 0
M  V30 996 O 97.0575 -0.708534 1.69486 0
M  V30 997 C 97.1195 2.66504 2.4128 0
M  V30 998 C 96.7835 4.10352 2.01148 0
M  V30 999 C 97.7805 4.96562 1.54021 0
M  V30 1000 C 95.4655 4.56203 2.10199 0
M  V30 1001 C 97.4595 6.26668 1.16473 0
M  V30 1002 C 95.1465 5.86318 1.72264 0
M  V30 1003 C 96.1445 6.71375 1.25477 0
M  V30 1004 O 95.8325 7.99062 0.880626 0
M  V30 1005 H 95.5645 0.55456 0.386574 0
M  V30 1006 H 98.1185 1.96954 0.582944 0
M  V30 1007 H 96.3485 2.28769 3.11772 0
M  V30 1008 H 98.0375 2.69783 3.03268 0
M  V30 1009 H 98.8035 4.62358 1.46458 0
M  V30 1010 H 94.6825 3.90152 2.45566 0
M  V30 1011 H 98.2265 6.93011 0.798841 0
M  V30 1012 H 94.1235 6.20046 1.79482 0
M  V30 1013 H 94.8915 8.12239 1.01043 0
M  V30 1014 N 97.5546 -0.734337 1.39446 0
M  V30 1015 C 98.8026 -1.49096 1.36436 0
M  V30 1016 C 99.1236 -1.94961 -0.0388255 0
M  V30 1017 O 98.3936 -1.69033 -0.990191 0
M  V30 1018 H 96.9736 -0.5531 0.502085 0
M  V30 1019 H 99.6356 -0.871725 1.74319 0
M  V30 1020 H 98.7316 -2.37276 2.02747 0
M  V30 1021 N 99.0327 -1.24633 -0.964593 0
M  V30 1022 C 99.9647 -0.999302 -2.06268 0
M  V30 1023 C 100.978 0.0323226 -1.62768 0
M  V30 1024 O 102.167 -0.205079 -1.77318 0
M  V30 1025 C 99.2667 -0.486816 -3.35385 0
M  V30 1026 C 98.4397 -1.5823 -4.07777 0
M  V30 1027 C 97.4987 -1.07191 -5.15166 0
M  V30 1028 O 96.5247 -1.76426 -5.41168 0
M  V30 1029 N 97.7267 0.0920373 -5.80427 0
M  V30 1030 H 100.492 -1.94477 -2.28033 0
M  V30 1031 H 98.0527 -1.15704 -1.13244 0
M  V30 1032 H 100.045 -0.130066 -4.04491 0
M  V30 1033 H 98.6147 0.364459 -3.10468 0
M  V30 1034 H 97.8347 -2.11109 -3.32906 0
M  V30 1035 H 99.1227 -2.31854 -4.52903 0
M  V30 1036 H 98.5207 0.670784 -5.61709 0
M  V30 1037 H 97.0777 0.389905 -6.50633 0
M  V30 1038 N 100.511 1.16574 -1.06058 0
M  V30 1039 C 101.758 1.87047 -0.775873 0
M  V30 1040 C 102.086 1.81562 0.697534 0
M  V30 1041 O 101.341 1.22445 1.52662 0
M  V30 1042 C 101.64 3.36195 -1.21275 0
M  V30 1043 C 101.306 3.6188 -2.68986 0
M  V30 1044 C 99.9678 3.68599 -3.09335 0
M  V30 1045 C 102.32 3.72648 -3.64394 0
M  V30 1046 C 99.6478 3.83584 -4.43937 0
M  V30 1047 C 102 3.89154 -4.98741 0
M  V30 1048 C 100.664 3.94114 -5.3873 0
M  V30 1049 H 99.9338 0.684452 -0.283912 0
M  V30 1050 H 102.581 1.37853 -1.32925 0
M  V30 1051 H 100.886 3.87505 -0.578528 0
M  V30 1052 H 102.583 3.89103 -0.969542 0
M  V30 1053 H 99.1728 3.57281 -2.36744 0
M  V30 1054 H 103.357 3.66769 -3.34356 0
M  V30 1055 H 98.6128 3.85677 -4.74409 0
M  V30 1056 H 102.787 3.96427 -5.72554 0
M  V30 1057 H 100.414 4.05478 -6.43033 0
M  V30 1058 N 101.989 0.842826 1.3317 0
M  V30 1059 C 103.235 0.441099 1.97945 0
M  V30 1060 C 103.568 -0.998024 1.66593 0
M  V30 1061 O 102.843 -1.69839 0.947898 0
M  V30 1062 C 103.126 0.666841 3.53872 0
M  V30 1063 C 102.979 2.15352 3.94897 0
M  V30 1064 C 104.298 0.115544 4.39948 0
M  V30 1065 H 101.417 0.161739 0.719034 0
M  V30 1066 H 104.059 1.05907 1.57746 0
M  V30 1067 H 102.209 0.140828 3.88245 0
M  V30 1068 H 103.881 2.7447 3.70761 0
M  V30 1069 H 102.124 2.63653 3.44484 0
M  V30 1070 H 102.795 2.26221 5.03516 0
M  V30 1071 H 105.271 0.565213 4.12243 0
M  V30 1072 H 104.147 0.303152 5.48062 0
M  V30 1073 H 104.408 -0.980935 4.3108 0
M  V30 1074 N 103.467 -1.45747 0.599634 0
M  V30 1075 C 104.415 -2.322 -0.136426 0
M  V30 1076 C 105.409 -1.45497 -0.867583 0
M  V30 1077 O 106.615 -1.62027 -0.78405 0
M  V30 1078 H 102.99 -0.749368 -0.0628588 0
M  V30 1079 H 104.961 -2.92072 0.611281 0
M  V30 1080 C 103.71 -3.28974 -1.12567 0
M  V30 1081 H 103.033 -3.9568 -0.572484 0
M  V30 1082 H 104.473 -3.92212 -1.61077 0
M  V30 1083 C 102.932 -2.55561 -2.19523 0
M  V30 1084 O 103.462 -2.33111 -3.27143 0
M  V30 1085 N 101.668 -2.15832 -1.94589 0
M  V30 1086 H 101.215 -2.3429 -1.07078 0
M  V30 1087 H 101.173 -1.67034 -2.66359 0
M  V30 1088 N 104.945 -0.338344 -1.53925 0
M  V30 1089 C 106.175 0.260919 -2.04946 0
M  V30 1090 C 106.583 1.45174 -1.2133 0
M  V30 1091 O 105.926 1.82122 -0.240262 0
M  V30 1092 C 105.988 0.744596 -3.51704 0
M  V30 1093 C 105.652 -0.325883 -4.55837 0
M  V30 1094 C 106.649 -1.16687 -5.06636 0
M  V30 1095 C 104.334 -0.478317 -5.00017 0
M  V30 1096 C 106.328 -2.14588 -6.00192 0
M  V30 1097 C 104.015 -1.46073 -5.93385 0
M  V30 1098 C 105.013 -2.29297 -6.4336 0
M  V30 1099 O 104.701 -3.25867 -7.34892 0
M  V30 1100 H 104.433 0.0551207 -0.673749 0
M  V30 1101 H 106.987 -0.486984 -1.99544 0
M  V30 1102 H 105.217 1.54366 -3.54553 0
M  V30 1103 H 106.906 1.26383 -3.85723 0
M  V30 1104 H 107.672 -1.06016 -4.73271 0
M  V30 1105 H 103.551 0.159613 -4.60724 0
M  V30 1106 H 107.095 -2.79585 -6.39123 0
M  V30 1107 H 102.992 -1.56802 -6.26166 0
M  V30 1108 H 103.76 -3.21278 -7.5281 0
M  V30 1109 N 106.423 1.57458 -0.0668435 0
M  V30 1110 C 107.333 2.15937 0.916975 0
M  V30 1111 C 108.349 1.12123 1.33058 0
M  V30 1112 O 109.525 1.44366 1.40429 0
M  V30 1113 C 106.59 2.70547 2.16807 0
M  V30 1114 C 105.651 3.89215 1.81135 0
M  V30 1115 C 104.884 4.41211 3.0028 0
M  V30 1116 O 105.107 3.92225 4.14144 0
M  V30 1117 O 104.041 5.32605 2.80384 0
M  V30 1118 H 107.867 3.00354 0.449561 0
M  V30 1119 H 105.452 1.48584 0.155949 0
M  V30 1120 H 107.334 3.0557 2.90181 0
M  V30 1121 H 106.009 1.89192 2.62656 0
M  V30 1122 H 104.916 3.59054 1.05028 0
M  V30 1123 H 106.249 4.71848 1.40073 0
M  V30 1124 N 107.901 -0.206675 1.56239 0
M  V30 1125 C 109.126 -0.949474 1.8439 0
M  V30 1126 C 109.551 -1.76549 0.649016 0
M  V30 1127 O 108.909 -1.76782 -0.402231 0
M  V30 1128 C 108.957 -1.83078 3.10668 0
M  V30 1129 O 108.061 -2.9281 2.90407 0
M  V30 1130 H 107.402 -0.268033 0.607499 0
M  V30 1131 H 109.932 -0.215488 2.03462 0
M  V30 1132 H 109.942 -2.2377 3.41161 0
M  V30 1133 H 108.617 -1.23112 3.97261 0
M  V30 1134 H 107.194 -2.55956 2.71184 0
M  V30 1135 N 109.379 -1.50304 -0.473955 0
M  V30 1136 C 110.312 -1.63595 -1.59097 0
M  V30 1137 C 111.29 -0.484142 -1.55225 0
M  V30 1138 O 112.474 -0.703271 -1.7489 0
M  V30 1139 C 109.601 -1.61589 -2.97669 0
M  V30 1140 C 108.647 -2.82295 -3.19705 0
M  V30 1141 S 109.48 -4.43635 -2.99913 0
M  V30 1142 C 110.636 -4.44317 -4.40832 0
M  V30 1143 H 110.869 -2.58082 -1.47583 0
M  V30 1144 H 108.402 -1.39531 -0.661087 0
M  V30 1145 H 110.36 -1.61116 -3.7756 0
M  V30 1146 H 109.021 -0.683421 -3.06575 0
M  V30 1147 H 108.214 -2.77188 -4.20931 0
M  V30 1148 H 107.816 -2.8032 -2.47582 0
M  V30 1149 H 110.108 -4.17703 -5.33414 0
M  V30 1150 H 111.051 -5.45911 -4.50984 0
M  V30 1151 H 111.459 -3.74059 -4.22777 0
M  V30 1152 N 110.857 0.726932 -1.39834 0
M  V30 1153 C 111.804 1.841 -1.39197 0
M  V30 1154 C 112.774 1.642 -0.250502 0
M  V30 1155 O 113.959 1.85494 -0.446846 0
M  V30 1156 C 111.099 3.21697 -1.24919 0
M  V30 1157 C 110.212 3.53247 -2.48678 0
M  V30 1158 C 109.347 4.80289 -2.26928 0
M  V30 1159 C 108.386 5.04707 -3.4632 0
M  V30 1160 N 107.523 6.22956 -3.23836 0
M  V30 1161 H 112.363 1.83979 -2.34427 0
M  V30 1162 H 109.9 0.898876 -1.16442 0
M  V30 1163 H 111.858 4.01137 -1.1465 0
M  V30 1164 H 110.488 3.21076 -0.333153 0
M  V30 1165 H 109.54 2.68447 -2.69519 0
M  V30 1166 H 110.852 3.67205 -3.37582 0
M  V30 1167 H 110.006 5.67725 -2.13947 0
M  V30 1168 H 108.745 4.68519 -1.35431 0
M  V30 1169 H 107.75 4.1573 -3.5979 0
M  V30 1170 H 108.975 5.18357 -4.38729 0
M  V30 1171 H 106.921 6.12459 -2.35011 0
M  V30 1172 H 106.838 6.37539 -4.063 0
M  V30 1173 H 108.106 7.1321 -3.14566 0
M  V30 1174 N 112.336 1.25143 0.95797 0
M  V30 1175 C 113.582 1.10863 1.70531 0
M  V30 1176 C 113.937 -0.347391 1.89238 0
M  V30 1177 O 113.23 -1.25262 1.44983 0
M  V30 1178 C 113.424 1.79272 3.09187 0
M  V30 1179 C 113.253 3.31376 3.04006 0
M  V30 1180 C 112.023 4.0062 3.07948 0
M  V30 1181 C 114.221 4.27825 2.8543 0
M  V30 1182 N 112.203 5.39526 2.9289 0
M  V30 1183 C 113.574 5.53794 2.78769 0
M  V30 1184 C 115.629 4.1828 2.70085 0
M  V30 1185 C 114.332 6.7131 2.58331 0
M  V30 1186 C 116.358 5.35485 2.51017 0
M  V30 1187 C 115.72 6.60393 2.45073 0
M  V30 1188 H 111.819 0.460362 0.632132 0
M  V30 1189 H 114.403 1.58196 1.13499 0
M  V30 1190 H 112.574 1.34439 3.64391 0
M  V30 1191 H 114.306 1.57764 3.72683 0
M  V30 1192 H 111.061 3.51855 3.17009 0
M  V30 1193 H 111.485 6.12416 2.88574 0
M  V30 1194 H 116.127 3.22461 2.73457 0
M  V30 1195 H 113.845 7.67243 2.53701 0
M  V30 1196 H 117.431 5.29959 2.40073 0
M  V30 1197 H 116.311 7.49557 2.30509 0
M  V30 1198 N 113.814 -1.1601 1.06675 0
M  V30 1199 C 114.744 -2.22688 0.702307 0
M  V30 1200 C 115.725 -1.67306 -0.307032 0
M  V30 1201 O 116.91 -1.93352 -0.181305 0
M  V30 1202 C 114.04 -3.47178 0.092038 0
M  V30 1203 C 112.994 -4.15477 1.02777 0
M  V30 1204 C 112.32 -5.33963 0.28061 0
M  V30 1205 C 113.62 -4.66019 2.35846 0
M  V30 1206 H 115.314 -2.53429 1.59419 0
M  V30 1207 H 112.86 -1.21813 0.767961 0
M  V30 1208 H 114.813 -4.21037 -0.174814 0
M  V30 1209 H 113.537 -3.15749 -0.834877 0
M  V30 1210 H 112.196 -3.43549 1.27944 0
M  V30 1211 H 111.844 -4.98788 -0.649545 0
M  V30 1212 H 111.544 -5.806 0.904258 0
M  V30 1213 H 113.068 -6.10596 0.021396 0
M  V30 1214 H 114.482 -5.3144 2.15045 0
M  V30 1215 H 112.879 -5.23293 2.93743 0
M  V30 1216 H 113.949 -3.82023 2.98641 0
M  V30 1217 N 115.292 -0.849877 -1.32721 0
M  V30 1218 C 116.708 -0.539102 -1.50219 0
M  V30 1219 C 116.908 0.931271 -1.78689 0
M  V30 1220 O 115.964 1.71455 -1.85363 0
M  V30 1221 C 117.277 -1.42196 -2.64954 0
M  V30 1222 C 118.825 -1.42189 -2.78839 0
M  V30 1223 C 119.3 -2.28985 -3.96648 0
M  V30 1224 N 120.791 -2.26754 -4.03902 0
M  V30 1225 C 121.526 -2.90644 -4.94281 0
M  V30 1226 N 121.022 -3.63629 -5.897 0
M  V30 1227 N 122.815 -2.80057 -4.87365 0
M  V30 1228 H 114.966 -1.80156 -1.12506 0
M  V30 1229 H 117.229 -0.769217 -0.554085 0
M  V30 1230 H 116.935 -2.46733 -2.50631 0
M  V30 1231 H 116.809 -1.10591 -3.60624 0
M  V30 1232 H 119.196 -0.38419 -2.92588 0
M  V30 1233 H 119.277 -1.77807 -1.83898 0
M  V30 1234 H 118.921 -3.32819 -3.83658 0
M  V30 1235 H 118.851 -1.90702 -4.90857 0
M  V30 1236 H 121.342 -1.73688 -3.3562 0
M  V30 1237 H 121.655 -4.09558 -6.55349 0
M  V30 1238 H 120 -3.67737 -5.89741 0
M  V30 1239 H 123.191 -2.22593 -4.11789 0
M  V30 1240 H 123.364 -3.30132 -5.57599 0
M  V30 1241 N 116.77 1.45427 -0.607355 0
M  V30 1242 C 118.047 1.9557 -0.0344566 0
M  V30 1243 C 118.427 1.54979 1.43334 0
M  V30 1244 O 117.775 0.812241 2.13576 0
M  V30 1245 C 117.985 3.48226 -0.232321 0
M  V30 1246 C 119.333 4.2445 -0.113001 0
M  V30 1247 O 120.357 3.55829 -0.162431 0
M  V30 1248 O 119.216 5.465 0.00209442 0
M  V30 1249 H 116.31 0.826222 0.0358667 0
M  V30 1250 H 118.856 1.55594 -0.6774 0
M  V30 1251 H 117.628 3.70739 -1.25174 0
M  V30 1252 H 117.251 3.95092 0.445896 0
M  V30 1253 N 118.248 0.346503 1.53744 0
M  V30 1254 C 119.525 -0.304532 1.93215 0
M  V30 1255 C 119.905 -1.67993 1.27834 0
M  V30 1256 O 119.253 -2.24411 0.430352 0
M  V30 1257 C 119.463 -0.373852 3.46992 0
M  V30 1258 C 120.811 -0.62329 4.2 0
M  V30 1259 O 121.835 -0.455847 3.53271 0
M  V30 1260 O 120.694 -0.947879 5.38217 0
M  V30 1261 H 117.788 -0.178318 0.807547 0
M  V30 1262 H 120.334 0.397895 1.64969 0
M  V30 1263 H 119.106 0.591224 3.86808 0
M  V30 1264 H 118.729 -1.12294 3.81413 0
M  V30 1265 N 119.726 -1.57421 0.075193 0
M  V30 1266 C 120.972 -1.94716 -0.587998 0
M  V30 1267 C 121.327 -0.955205 -1.67014 0
M  V30 1268 O 120.62 0.0219842 -1.91587 0
M  V30 1269 C 120.814 -3.36428 -1.20626 0
M  V30 1270 C 120.643 -4.49317 -0.185541 0
M  V30 1271 C 119.413 -5.04772 0.23099 0
M  V30 1272 C 121.611 -5.11036 0.57854 0
M  V30 1273 N 119.593 -6.01204 1.24206 0
M  V30 1274 C 120.964 -6.02998 1.44199 0
M  V30 1275 C 123.019 -4.93844 0.634237 0
M  V30 1276 C 121.722 -6.79614 2.3562 0
M  V30 1277 C 123.748 -5.71106 1.53597 0
M  V30 1278 C 123.11 -6.6272 2.38709 0
M  V30 1279 H 119.209 -0.759536 -0.186089 0
M  V30 1280 H 121.793 -1.94097 0.153128 0
M  V30 1281 H 119.964 -3.37778 -1.9173 0
M  V30 1282 H 121.696 -3.60951 -1.8302 0
M  V30 1283 H 118.451 -4.73353 -0.152807 0
M  V30 1284 H 118.875 -6.54119 1.74521 0
M  V30 1285 H 123.517 -4.22799 -0.00960004 0
M  V30 1286 H 121.235 -7.49934 3.01038 0
M  V30 1287 H 124.821 -5.59824 1.58394 0
M  V30 1288 H 123.701 -7.2146 3.07352 0
M  V30 1289 N 121.204 0.198386 -1.56346 0
M  V30 1290 C 122.452 0.91747 -1.80075 0
M  V30 1291 C 122.773 1.83929 -0.647692 0
M  V30 1292 O 122.043 1.93029 0.334166 0
M  V30 1293 H 120.623 0.341774 -0.664228 0
M  V30 1294 H 123.285 0.204684 -1.93822 0
M  V30 1295 H 122.381 1.51055 -2.7311 0
M  V30 1296 N 122.682 1.50554 0.465978 0
M  V30 1297 C 123.931 1.61038 1.21448 0
M  V30 1298 C 124.244 0.31865 1.92987 0
M  V30 1299 O 125.45 0.302469 2.6981 0
M  V30 1300 C 123.906 2.84283 2.20706 0
M  V30 1301 C 123.514 4.20352 1.54946 0
M  V30 1302 C 125.258 3.04115 2.96166 0
M  V30 1303 C 123.165 5.34778 2.5252 0
M  V30 1304 H 122.095 0.599718 0.457005 0
M  V30 1305 H 124.746 1.7699 0.484424 0
M  V30 1306 H 123.128 2.61901 2.97025 0
M  V30 1307 H 124.302 4.53008 0.843811 0
M  V30 1308 H 122.617 4.06167 0.917475 0
M  V30 1309 H 125.214 3.86774 3.69202 0
M  V30 1310 H 125.557 2.16045 3.55852 0
M  V30 1311 H 126.09 3.26702 2.26959 0
M  V30 1312 H 122.829 6.25018 1.97566 0
M  V30 1313 H 122.349 5.06534 3.21222 0
M  V30 1314 H 124.028 5.65561 3.14245 0
M  V30 1315 N 124.16 -0.719506 1.40217 0
M  V30 1316 C 125.108 -1.85493 1.40339 0
M  V30 1317 C 126.102 -1.66995 0.284415 0
M  V30 1318 O 127.308 -1.74148 0.455252 0
M  V30 1319 H 123.683 -0.610857 0.438586 0
M  V30 1320 H 125.654 -1.82506 2.36081 0
M  V30 1321 C 124.403 -3.23321 1.27901 0
M  V30 1322 H 123.726 -3.38159 2.1328 0
M  V30 1323 H 125.166 -4.02914 1.32045 0
M  V30 1324 C 123.625 -3.36898 -0.0111355 0
M  V30 1325 O 124.155 -3.89674 -0.975538 0
M  V30 1326 N 122.361 -2.90492 -0.0793393 0
M  V30 1327 H 121.908 -2.47731 0.706183 0
M  V30 1328 H 121.866 -2.99955 -0.942038 0
M  V30 1329 N 125.638 -1.25649 -0.95132 0
M  V30 1330 C 126.884 -1.10757 -1.69884 0
M  V30 1331 C 127.217 0.350061 -1.91019 0
M  V30 1332 O 126.492 1.25783 -1.48354 0
M  V30 1333 C 126.775 -1.86606 -3.07978 0
M  V30 1334 C 126.628 -3.40217 -2.94232 0
M  V30 1335 C 127.947 -1.65182 -4.07925 0
M  V30 1336 H 125.066 -0.40374 -0.616574 0
M  V30 1337 H 127.708 -1.54521 -1.10558 0
M  V30 1338 H 125.858 -1.49409 -3.58621 0
M  V30 1339 H 127.53 -3.87108 -2.50889 0
M  V30 1340 H 125.773 -3.67759 -2.30078 0
M  V30 1341 H 126.444 -3.88505 -3.92133 0
M  V30 1342 H 128.92 -1.9757 -3.66204 0
M  V30 1343 H 127.796 -2.20683 -5.02583 0
M  V30 1344 H 128.057 -0.593933 -4.38092 0
M  V30 1345 N 127.117 1.15442 -1.07289 0
M  V30 1346 C 128.364 1.86213 -0.795668 0
M  V30 1347 C 128.692 1.82291 0.678238 0
M  V30 1348 O 127.947 1.24057 1.51355 0
M  V30 1349 C 128.246 3.3489 -1.24834 0
M  V30 1350 C 127.912 3.59007 -2.72809 0
M  V30 1351 C 126.574 3.65298 -3.13227 0
M  V30 1352 C 128.926 3.68762 -3.68326 0
M  V30 1353 C 126.254 3.78854 -4.4798 0
M  V30 1354 C 128.606 3.83842 -5.0284 0
M  V30 1355 C 127.27 3.88378 -5.4288 0
M  V30 1356 H 126.54 0.681403 -0.291155 0
M  V30 1357 H 129.187 1.36435 -1.34379 0
M  V30 1358 H 127.492 3.8687 -0.619595 0
M  V30 1359 H 129.189 3.88052 -1.01076 0
M  V30 1360 H 125.779 3.5475 -2.40521 0
M  V30 1361 H 129.963 3.63202 -3.38227 0
M  V30 1362 H 125.219 3.80623 -4.78472 0
M  V30 1363 H 129.393 3.90332 -5.76727 0
M  V30 1364 H 127.02 3.98635 -6.47298 0
M  V30 1365 N 128.595 0.856903 1.32268 0
M  V30 1366 C 130.011 0.547061 1.49931 0
M  V30 1367 C 130.211 -0.921781 1.7918 0
M  V30 1368 O 129.267 -1.70469 1.8627 0
M  V30 1369 C 130.58 1.43599 2.64196 0
M  V30 1370 C 132.128 1.43665 2.78081 0
M  V30 1371 C 132.603 2.31085 3.95428 0
M  V30 1372 N 134.094 2.28893 4.02694 0
M  V30 1373 C 134.829 2.93262 4.92732 0
M  V30 1374 N 134.325 3.66751 5.87763 0
M  V30 1375 N 136.118 2.82638 4.85873 0
M  V30 1376 H 128.269 1.8075 1.11549 0
M  V30 1377 H 130.532 0.772144 0.549997 0
M  V30 1378 H 130.238 2.48058 2.49319 0
M  V30 1379 H 130.112 1.12502 3.60032 0
M  V30 1380 H 132.499 0.399701 2.92381 0
M  V30 1381 H 132.58 1.7878 1.82952 0
M  V30 1382 H 132.224 3.34849 3.81888 0
M  V30 1383 H 132.154 1.93302 4.89839 0
M  V30 1384 H 134.645 1.75466 3.34694 0
M  V30 1385 H 134.958 4.13027 6.53168 0
M  V30 1386 H 133.303 3.70859 5.87783 0
M  V30 1387 H 136.494 2.24774 4.10602 0
M  V30 1388 H 136.667 3.33084 5.55841 0
M  V30 1389 N 130.073 -1.45103 0.615059 0
M  V30 1390 C 131.036 -2.29025 -0.0895485 0
M  V30 1391 C 132.036 -1.40174 -0.787906 0
M  V30 1392 O 133.226 -1.62217 -0.634933 0
M  V30 1393 C 130.358 -3.21376 -1.13711 0
M  V30 1394 H 131.551 -2.92807 0.648382 0
M  V30 1395 H 129.104 -1.51749 0.374444 0
M  V30 1396 H 129.839 -2.6241 -1.90556 0
M  V30 1397 H 129.624 -3.86834 -0.640475 0
M  V30 1398 H 131.114 -3.84459 -1.63036 0
M  V30 1399 N 131.551 -0.354651 -1.53558 0
M  V30 1400 C 132.514 0.484566 -2.24019 0
M  V30 1401 C 133.514 1.01861 -1.24422 0
M  V30 1402 O 134.704 0.906097 -1.4878 0
M  V30 1403 C 131.836 1.67615 -2.96847 0
M  V30 1404 H 133.029 -0.131843 -2.9961 0
M  V30 1405 H 130.582 -0.106165 -1.55939 0
M  V30 1406 H 131.317 2.33095 -2.25471 0
M  V30 1407 H 131.102 1.30029 -3.69912 0
M  V30 1408 H 132.592 2.27114 -3.50441 0
M  V30 1409 N 133.029 1.57378 -0.0835403 0
M  V30 1410 C 133.962 2.09016 0.915833 0
M  V30 1411 C 134.94 0.997993 1.2837 0
M  V30 1412 O 136.124 1.27219 1.39096 0
M  V30 1413 C 133.251 2.55757 2.22049 0
M  V30 1414 C 132.297 3.76522 2.00333 0
M  V30 1415 S 133.13 5.20661 1.25191 0
M  V30 1416 C 134.286 5.70743 2.56912 0
M  V30 1417 H 134.519 2.93457 0.476492 0
M  V30 1418 H 132.052 1.53856 0.129493 0
M  V30 1419 H 134.01 2.83346 2.97027 0
M  V30 1420 H 132.671 1.71564 2.63106 0
M  V30 1421 H 131.864 4.07256 2.96916 0
M  V30 1422 H 131.466 3.49367 1.33488 0
M  V30 1423 H 133.758 5.78304 3.52946 0
M  V30 1424 H 134.701 6.6944 2.30772 0
M  V30 1425 H 135.109 4.98616 2.64655 0
M  V30 1426 N 134.507 -0.190092 1.56449 0
M  V30 1427 C 135.737 -0.92443 1.84764 0
M  V30 1428 C 136.145 -1.77146 0.664529 0
M  V30 1429 O 135.488 -1.79812 -0.375957 0
M  V30 1430 C 135.55 -1.86651 3.07248 0
M  V30 1431 C 135.214 -1.20094 4.40938 0
M  V30 1432 C 136.211 -0.575445 5.16706 0
M  V30 1433 C 133.896 -1.2033 4.87674 0
M  V30 1434 C 135.89 0.0388111 6.37388 0
M  V30 1435 C 133.577 -0.585214 6.08291 0
M  V30 1436 C 134.575 0.0347578 6.82991 0
M  V30 1437 O 134.263 0.643147 8.01323 0
M  V30 1438 H 133.995 -0.274974 0.617548 0
M  V30 1439 H 136.549 -0.200788 2.04416 0
M  V30 1440 H 134.779 -2.62998 2.83494 0
M  V30 1441 H 136.468 -2.46907 3.22167 0
M  V30 1442 H 137.234 -0.565728 4.81689 0
M  V30 1443 H 133.113 -1.67526 4.29484 0
M  V30 1444 H 136.657 0.523329 6.95634 0
M  V30 1445 H 132.554 -0.592451 6.42775 0
M  V30 1446 H 133.322 0.540545 8.16713 0
M  V30 1447 N 135.985 -1.50799 -0.457987 0
M  V30 1448 C 137.213 -1.66218 -1.23203 0
M  V30 1449 C 137.628 -0.350894 -1.85511 0
M  V30 1450 O 136.985 0.668546 -1.69814 0
M  V30 1451 C 137.036 -2.76291 -2.33121 0
M  V30 1452 O 136.757 -4.02338 -1.73366 0
M  V30 1453 C 138.258 -3.028 -3.2377 0
M  V30 1454 H 135.478 -0.558361 -0.372121 0
M  V30 1455 H 138.022 -1.97099 -0.545179 0
M  V30 1456 H 136.177 -2.48068 -2.97558 0
M  V30 1457 H 136.591 -4.63312 -2.4585 0
M  V30 1458 H 138.065 -3.8345 -3.97077 0
M  V30 1459 H 138.542 -2.14385 -3.83322 0
M  V30 1460 H 139.148 -3.32604 -2.65056 0
M  V30 1461 N 137.463 0.71206 -1.40597 0
M  V30 1462 C 138.688 1.50617 -1.42581 0
M  V30 1463 C 139.113 1.88079 -0.0282102 0
M  V30 1464 O 138.471 1.53511 0.964579 0
M  V30 1465 C 138.519 2.7557 -2.3258 0
M  V30 1466 O 137.623 3.72414 -1.77148 0
M  V30 1467 H 136.964 0.453966 -0.484573 0
M  V30 1468 H 139.494 0.876649 -1.84868 0
M  V30 1469 H 139.504 3.2406 -2.47889 0
M  V30 1470 H 138.179 2.47639 -3.34138 0
M  V30 1471 H 136.756 3.31276 -1.71204 0
M  V30 1472 N 138.941 1.26152 0.944643 0
M  V30 1473 C 140.166 1.14363 1.7302 0
M  V30 1474 C 140.591 -0.29772 1.85729 0
M  V30 1475 O 139.949 -1.2157 1.34501 0
M  V30 1476 C 139.997 1.81378 3.11664 0
M  V30 1477 O 139.101 1.10022 3.97453 0
M  V30 1478 H 138.442 0.398694 0.53098 0
M  V30 1479 H 140.972 1.66906 1.18337 0
M  V30 1480 H 140.982 1.88064 3.62072 0
M  V30 1481 H 139.657 2.86237 3.0173 0
M  V30 1482 H 138.234 1.11287 3.55907 0
M  V30 1483 N 140.419 -1.14872 1.07899 0
M  V30 1484 C 141.667 -1.85422 0.803941 0
M  V30 1485 C 141.988 -1.83051 -0.67211 0
M  V30 1486 O 141.258 -1.27532 -1.48703 0
M  V30 1487 H 139.838 -0.686537 0.294408 0
M  V30 1488 H 142.5 -1.39226 1.3639 0
M  V30 1489 H 141.596 -2.90399 1.14346 0
M  V30 1490 N 141.898 -0.863906 -1.31812 0
M  V30 1491 C 143.146 -0.470904 -1.96537 0
M  V30 1492 C 143.467 0.978771 -1.68657 0
M  V30 1493 O 142.737 1.6853 -0.998717 0
M  V30 1494 H 141.317 -0.171148 -0.72713 0
M  V30 1495 H 143.979 -1.10236 -1.60729 0
M  V30 1496 H 143.075 -0.623616 -3.05806 0
M  V30 1497 N 143.376 1.44774 -0.622745 0
M  V30 1498 C 144.606 2.06187 -0.130532 0
M  V30 1499 C 145.014 1.46547 1.19669 0
M  V30 1500 O 144.357 0.579636 1.74316 0
M  V30 1501 C 144.419 3.59437 0.0674983 0
M  V30 1502 C 144.083 4.41496 -1.18026 0
M  V30 1503 C 145.08 4.75512 -2.102 0
M  V30 1504 C 142.765 4.82007 -1.41333 0
M  V30 1505 C 144.759 5.48912 -3.23998 0
M  V30 1506 C 142.446 5.55157 -2.55429 0
M  V30 1507 C 143.444 5.88528 -3.46589 0
M  V30 1508 O 143.132 6.60191 -4.58697 0
M  V30 1509 H 142.864 0.672045 -0.0730162 0
M  V30 1510 H 145.418 1.86768 -0.854802 0
M  V30 1511 H 143.648 3.77314 0.846825 0
M  V30 1512 H 145.337 4.02642 0.513209 0
M  V30 1513 H 146.103 4.4476 -1.93425 0
M  V30 1514 H 141.982 4.55457 -0.712709 0
M  V30 1515 H 145.526 5.74877 -3.95174 0
M  V30 1516 H 141.423 5.85324 -2.72151 0
M  V30 1517 H 142.191 6.78654 -4.57571 0
M  V30 1518 N 144.854 0.36279 1.53368 0
M  V30 1519 C 146.103 -0.22888 2.00397 0
M  V30 1520 C 146.416 -1.50096 1.25421 0
M  V30 1521 O 147.622 -2.17106 1.63025 0
M  V30 1522 C 146.078 -0.458417 3.56969 0
M  V30 1523 C 145.686 0.798877 4.4082 0
M  V30 1524 C 147.43 -1.00789 4.12361 0
M  V30 1525 C 145.337 0.539078 5.88938 0
M  V30 1526 H 144.267 -0.089305 0.748693 0
M  V30 1527 H 146.918 0.481099 1.77081 0
M  V30 1528 H 145.3 -1.22959 3.76427 0
M  V30 1529 H 146.474 1.57262 4.33134 0
M  V30 1530 H 144.789 1.27137 3.96516 0
M  V30 1531 H 147.386 -1.21754 5.20653 0
M  V30 1532 H 147.729 -1.9692 3.66781 0
M  V30 1533 H 148.262 -0.296961 3.9669 0
M  V30 1534 H 145.001 1.47064 6.3879 0
M  V30 1535 H 144.521 -0.196222 5.99479 0
M  V30 1536 H 146.2 0.163542 6.46793 0
M  V30 1537 N 146.332 -1.57332 0.0918853 0
M  V30 1538 C 147.609 -1.85691 -0.614668 0
M  V30 1539 C 147.989 -0.988146 -1.86545 0
M  V30 1540 O 147.337 -0.0597055 -2.28422 0
M  V30 1541 C 147.547 -3.36294 -0.933126 0
M  V30 1542 C 148.895 -4.04275 -1.29796 0
M  V30 1543 O 149.919 -3.41157 -1.02424 0
M  V30 1544 O 148.778 -5.1564 -1.81047 0
M  V30 1545 H 145.872 -0.767802 -0.307261 0
M  V30 1546 H 148.418 -1.69244 0.12434 0
M  V30 1547 H 147.19 -3.91273 -0.0456404 0
M  V30 1548 H 146.813 -3.58076 -1.72822 0
M  V30 1549 N 147.81 0.181792 -1.56548 0
M  V30 1550 C 149.087 0.926765 -1.72251 0
M  V30 1551 C 149.467 2.00831 -0.650386 0
M  V30 1552 O 148.815 2.26008 0.336521 0
M  V30 1553 C 149.025 1.50106 -3.1507 0
M  V30 1554 C 150.373 1.97805 -3.75711 0
M  V30 1555 O 151.397 1.59922 -3.18282 0
M  V30 1556 O 150.256 2.67555 -4.76525 0
M  V30 1557 H 147.35 0.435506 -0.703039 0
M  V30 1558 H 149.896 0.170443 -1.68842 0
M  V30 1559 H 148.668 0.72212 -3.84579 0
M  V30 1560 H 148.291 2.32186 -3.22763 0
M  V30 1561 N 149.288 1.51039 0.449983 0
M  V30 1562 C 150.699 1.557 1.03026 0
M  V30 1563 C 151.05 0.372939 1.92623 0
M  V30 1564 O 150.175 -0.511771 2.10261 0
M  V30 1565 C 150.77 2.82171 1.87523 0
M  V30 1566 C 149.329 2.89444 2.40622 0
M  V30 1567 C 148.476 2.50228 1.19504 0
M  V30 1568 H 151.427 1.56999 0.231745 0
M  V30 1569 H 151.448 2.65219 2.72835 0
M  V30 1570 H 150.96 3.68331 1.22286 0
M  V30 1571 H 149.061 2.07685 3.0935 0
M  V30 1572 H 149.174 3.92816 2.74285 0
M  V30 1573 H 147.538 2.03139 1.53644 0
M  V30 1574 H 148.321 3.38719 0.558972 0
M  V30 1575 N 150.766 -0.704594 1.40972 0
M  V30 1576 C 151.991 -1.49858 1.43378 0
M  V30 1577 C 152.416 -1.88061 0.038184 0
M  V30 1578 O 151.774 -1.5402 -0.956425 0
M  V30 1579 C 151.822 -2.74333 2.34038 0
M  V30 1580 O 150.926 -3.7147 1.7912 0
M  V30 1581 H 150.267 -0.45139 0.486974 0
M  V30 1582 H 152.797 -0.866832 1.8533 0
M  V30 1583 H 152.807 -3.22741 2.49604 0
M  V30 1584 H 151.482 -2.45863 3.35446 0
M  V30 1585 H 150.059 -3.30363 1.72958 0
M  V30 1586 N 152.244 -1.26651 -0.937939 0
M  V30 1587 C 153.49 -1.12553 -1.687 0
M  V30 1588 C 153.823 0.329782 -1.91379 0
M  V30 1589 O 153.098 1.24202 -1.4968 0
M  V30 1590 C 153.381 -1.89862 -3.05981 0
M  V30 1591 C 153.234 -3.43318 -2.90607 0
M  V30 1592 C 154.553 -1.69499 -4.0615 0
M  V30 1593 H 151.672 -0.410257 -0.612257 0
M  V30 1594 H 154.314 -1.55685 -1.08913 0
M  V30 1595 H 152.464 -1.53204 -3.57017 0
M  V30 1596 H 154.136 -3.89747 -2.46769 0
M  V30 1597 H 152.379 -3.70179 -2.26164 0
M  V30 1598 H 153.05 -3.92642 -3.8799 0
M  V30 1599 H 155.526 -2.01442 -3.64088 0
M  V30 1600 H 154.402 -2.26002 -5.00214 0
M  V30 1601 H 154.663 -0.640365 -4.37438 0
M  V30 1602 N 153.722 1.14298 -1.08507 0
M  V30 1603 C 154.669 2.19414 -0.715965 0
M  V30 1604 C 155.639 1.63399 0.298326 0
M  V30 1605 O 156.824 1.89929 0.182101 0
M  V30 1606 C 153.964 3.44845 -0.132534 0
M  V30 1607 C 153.077 4.15007 -1.19973 0
M  V30 1608 C 152.212 5.28024 -0.580048 0
M  V30 1609 C 151.251 5.9002 -1.62921 0
M  V30 1610 N 150.388 6.94485 -1.03125 0
M  V30 1611 H 155.228 2.50336 -1.61666 0
M  V30 1612 H 152.765 1.2293 -0.807882 0
M  V30 1613 H 154.723 4.16601 0.223454 0
M  V30 1614 H 153.353 3.14403 0.731467 0
M  V30 1615 H 152.405 3.41629 -1.67313 0
M  V30 1616 H 153.717 4.57178 -1.99473 0
M  V30 1617 H 152.871 6.06455 -0.172364 0
M  V30 1618 H 151.61 4.87076 0.246603 0
M  V30 1619 H 150.615 5.10291 -2.04654 0
M  V30 1620 H 151.84 6.33042 -2.45835 0
M  V30 1621 H 149.786 6.55612 -0.225711 0
M  V30 1622 H 149.703 7.35148 -1.76334 0
M  V30 1623 H 150.971 7.7679 -0.649458 0
M  V30 1624 N 155.201 0.870884 1.31352 0
M  V30 1625 C 156.111 0.330783 2.32256 0
M  V30 1626 C 157.127 -0.559767 1.6475 0
M  V30 1627 O 158.303 -0.456263 1.96164 0
M  V30 1628 C 155.368 -0.458137 3.4366 0
M  V30 1629 C 154.429 0.460482 4.26823 0
M  V30 1630 C 153.662 -0.290881 5.32907 0
M  V30 1631 O 153.885 -1.51885 5.49806 0
M  V30 1632 O 152.819 0.351732 6.00871 0
M  V30 1633 H 156.645 1.16718 2.80376 0
M  V30 1634 H 154.23 0.634285 1.35267 0
M  V30 1635 H 156.112 -0.905343 4.1156 0
M  V30 1636 H 154.787 -1.27106 2.97701 0
M  V30 1637 H 153.694 0.956207 3.61673 0
M  V30 1638 H 155.027 1.23903 4.7635 0
M  V30 1639 N 156.679 -1.44442 0.630414 0
M  V30 1640 C 157.626 -2.30678 -0.0749355 0
M  V30 1641 C 158.596 -1.4344 -0.837502 0
M  V30 1642 O 159.781 -1.72343 -0.818684 0
M  V30 1643 C 156.921 -3.28706 -1.05103 0
M  V30 1644 C 156.034 -4.31046 -0.286954 0
M  V30 1645 C 155.169 -5.16167 -1.2548 0
M  V30 1646 C 154.208 -6.10216 -0.479843 0
M  V30 1647 N 153.345 -6.88039 -1.39811 0
M  V30 1648 H 158.185 -2.90454 0.666386 0
M  V30 1649 H 155.722 -1.43107 0.340404 0
M  V30 1650 H 157.68 -3.84027 -1.63031 0
M  V30 1651 H 156.31 -2.70632 -1.75949 0
M  V30 1652 H 155.362 -3.78203 0.408243 0
M  V30 1653 H 156.674 -4.97794 0.316657 0
M  V30 1654 H 155.828 -5.76002 -1.90544 0
M  V30 1655 H 154.567 -4.49491 -1.89233 0
M  V30 1656 H 153.572 -5.49491 0.184295 0
M  V30 1657 H 154.797 -6.78928 0.152965 0
M  V30 1658 H 152.743 -6.24032 -2.02287 0
M  V30 1659 H 152.66 -7.51223 -0.848508 0
M  V30 1660 H 153.928 -7.52397 -2.03762 0
M  V30 1661 N 158.157 -0.370918 -1.53173 0
M  V30 1662 C 159.403 0.217423 -2.01631 0
M  V30 1663 C 159.736 1.47983 -1.25756 0
M  V30 1664 O 159.011 1.91274 -0.352764 0
M  V30 1665 C 159.294 0.503982 -3.56556 0
M  V30 1666 C 159.147 -0.77243 -4.43118 0
M  V30 1667 C 160.466 1.30234 -4.20389 0
M  V30 1668 H 157.585 0.0775486 -0.732909 0
M  V30 1669 H 160.227 -0.496863 -1.83388 0
M  V30 1670 H 158.377 1.11248 -3.72231 0
M  V30 1671 H 160.049 -1.4098 -4.39229 0
M  V30 1672 H 158.292 -1.39167 -4.10871 0
M  V30 1673 H 158.963 -0.526815 -5.4948 0
M  V30 1674 H 161.439 0.787546 -4.08579 0
M  V30 1675 H 160.315 1.47158 -5.28806 0
M  V30 1676 H 160.576 2.31237 -3.76805 0
M  V30 1677 N 159.635 1.57281 -0.100228 0
M  V30 1678 C 160.582 2.14305 0.856858 0
M  V30 1679 C 161.552 1.06296 1.27634 0
M  V30 1680 O 162.737 1.34109 1.35718 0
M  V30 1681 C 159.877 2.73184 2.10866 0
M  V30 1682 C 158.99 3.95442 1.73925 0
M  V30 1683 C 158.125 4.42468 2.93931 0
M  V30 1684 C 157.164 5.57303 2.5314 0
M  V30 1685 N 156.301 5.99158 3.65997 0
M  V30 1686 H 161.141 2.95772 0.363726 0
M  V30 1687 H 158.678 1.46139 0.167858 0
M  V30 1688 H 160.636 3.05442 2.84185 0
M  V30 1689 H 159.266 1.94437 2.57671 0
M  V30 1690 H 158.318 3.69464 0.905554 0
M  V30 1691 H 159.63 4.78769 1.39935 0
M  V30 1692 H 158.784 4.76537 3.75496 0
M  V30 1693 H 157.523 3.58052 3.31134 0
M  V30 1694 H 156.528 5.22857 1.70003 0
M  V30 1695 H 157.753 6.43471 2.17075 0
M  V30 1696 H 155.699 5.17687 4.02909 0
M  V30 1697 H 155.616 6.77295 3.35869 0
M  V30 1698 H 156.884 6.3786 4.48057 0
M  V30 1699 N 161.113 -0.173488 1.56642 0
M  V30 1700 C 162.023 -1.23482 1.99473 0
M  V30 1701 C 163.039 -1.48567 0.905752 0
M  V30 1702 O 164.215 -1.60758 1.21321 0
M  V30 1703 C 161.28 -2.55444 2.34413 0
M  V30 1704 C 160.341 -2.38241 3.57127 0
M  V30 1705 C 159.574 -3.63909 3.90392 0
M  V30 1706 O 159.797 -4.68996 3.24653 0
M  V30 1707 O 158.731 -3.58149 4.83749 0
M  V30 1708 H 162.557 -0.901279 2.90018 0
M  V30 1709 H 160.142 -0.380185 1.44482 0
M  V30 1710 H 162.024 -3.33292 2.57865 0
M  V30 1711 H 160.699 -2.88382 1.4703 0
M  V30 1712 H 159.606 -1.58431 3.38896 0
M  V30 1713 H 160.939 -2.10228 4.45045 0
M  V30 1714 N 162.591 -1.51276 -0.441967 0
M  V30 1715 C 163.554 -1.7167 -1.51862 0
M  V30 1716 C 164.554 -0.586793 -1.49711 0
M  V30 1717 O 165.744 -0.854276 -1.51815 0
M  V30 1718 C 162.876 -1.76889 -2.91416 0
M  V30 1719 H 164.069 -2.67754 -1.35084 0
M  V30 1720 H 161.622 -1.41196 -0.670333 0
M  V30 1721 H 162.357 -0.826026 -3.13604 0
M  V30 1722 H 162.142 -2.59001 -2.94382 0
M  V30 1723 H 163.632 -1.94522 -3.69528 0
M  V30 1724 N 164.069 0.697108 -1.41344 0
M  V30 1725 C 165.315 1.4593 -1.40827 0
M  V30 1726 C 165.648 1.94193 -0.0167098 0
M  V30 1727 O 164.923 1.69425 0.955263 0
M  V30 1728 C 165.206 2.67229 -2.41373 0
M  V30 1729 C 165.059 2.24741 -3.8963 0
M  V30 1730 C 166.378 3.69423 -2.39196 0
M  V30 1731 H 163.497 0.529303 -0.512842 0
M  V30 1732 H 166.139 0.794112 -1.72609 0
M  V30 1733 H 164.289 3.23982 -2.14401 0
M  V30 1734 H 165.961 1.73327 -4.27499 0
M  V30 1735 H 164.204 1.56542 -4.0457 0
M  V30 1736 H 164.875 3.1177 -4.55525 0
M  V30 1737 H 167.351 3.2234 -2.63128 0
M  V30 1738 H 166.227 4.51907 -3.11563 0
M  V30 1739 H 166.488 4.19012 -1.41001 0
M  V30 1740 N 165.547 1.27147 0.931209 0
M  V30 1741 C 166.457 1.11372 2.06478 0
M  V30 1742 C 167.473 0.044645 1.73943 0
M  V30 1743 O 168.649 0.250417 1.99837 0
M  V30 1744 C 165.714 0.758838 3.38294 0
M  V30 1745 C 164.775 1.90841 3.84549 0
M  V30 1746 C 164.008 1.57036 5.10074 0
M  V30 1747 O 164.231 0.476645 5.68405 0
M  V30 1748 O 163.165 2.40839 5.51616 0
M  V30 1749 H 166.991 2.06493 2.22698 0
M  V30 1750 H 164.576 1.06301 1.04978 0
M  V30 1751 H 166.458 0.574098 4.17471 0
M  V30 1752 H 165.133 -0.162879 3.2329 0
M  V30 1753 H 164.04 2.14819 3.06274 0
M  V30 1754 H 165.373 2.81021 4.04089 0
M  V30 1755 N 167.025 -1.13721 1.09112 0
M  V30 1756 C 167.988 -2.17222 0.731241 0
M  V30 1757 C 168.988 -1.59035 -0.237566 0
M  V30 1758 O 170.178 -1.74192 -0.0161704 0
M  V30 1759 C 167.31 -3.40804 0.0808443 0
M  V30 1760 H 168.503 -2.50573 1.64783 0
M  V30 1761 H 166.056 -1.28493 0.889897 0
M  V30 1762 H 166.791 -3.1304 -0.847127 0
M  V30 1763 H 166.576 -3.84306 0.777896 0
M  V30 1764 H 168.066 -4.1731 -0.155657 0
M  V30 1765 N 168.503 -0.877838 -1.30888 0
M  V30 1766 C 169.466 -0.344265 -2.266 0
M  V30 1767 C 170.466 0.50922 -1.52524 0
M  V30 1768 O 171.656 0.317398 -1.71284 0
M  V30 1769 C 168.788 0.510198 -3.37061 0
M  V30 1770 H 169.981 -1.1893 -2.7531 0
M  V30 1771 H 167.534 -0.654088 -1.41956 0
M  V30 1772 H 168.269 1.37612 -2.93655 0
M  V30 1773 H 168.054 -0.101047 -3.9197 0
M  V30 1774 H 169.544 0.875537 -4.08319 0
M  V30 1775 N 169.982 1.44106 -0.638065 0
M  V30 1776 C 171.231 2.01194 -0.142744 0
M  V30 1777 C 171.544 1.50835 1.24532 0
M  V30 1778 O 172.75 2.00096 1.83504 0
M  V30 1779 C 171.206 3.59319 -0.20442 0
M  V30 1780 C 170.814 4.18674 -1.59423 0
M  V30 1781 C 172.558 4.23854 0.234079 0
M  V30 1782 C 170.465 5.69045 -1.61065 0
M  V30 1783 H 169.395 0.752367 -0.0495998 0
M  V30 1784 H 172.046 1.65246 -0.797881 0
M  V30 1785 H 170.428 3.92598 0.517946 0
M  V30 1786 H 171.602 3.96921 -2.34074 0
M  V30 1787 H 169.917 3.66453 -1.97741 0
M  V30 1788 H 172.514 5.34155 0.241443 0
M  V30 1789 H 172.857 3.96688 1.2627 0
M  V30 1790 H 173.39 3.95403 -0.436025 0
M  V30 1791 H 170.129 6.00956 -2.61787 0
M  V30 1792 H 169.649 5.929 -0.90718 0
M  V30 1793 H 171.328 6.32809 -1.34766 0
M  V30 1794 N 171.46 0.379036 1.52974 0
M  V30 1795 C 172.737 -0.263479 1.93817 0
M  V30 1796 C 173.117 -1.65244 1.31368 0
M  V30 1797 O 172.465 -2.23448 0.477856 0
M  V30 1798 C 172.675 -0.300166 3.47707 0
M  V30 1799 C 174.023 -0.534061 4.21228 0
M  V30 1800 O 175.047 -0.38081 3.54159 0
M  V30 1801 O 173.906 -0.833501 5.40106 0
M  V30 1802 H 171 -0.161149 0.811147 0
M  V30 1803 H 173.546 0.432798 1.64088 0
M  V30 1804 H 172.318 0.673138 3.85467 0
M  V30 1805 H 171.941 -1.04179 3.83709 0
M  V30 1806 N 172.938 -1.57226 0.108567 0
M  V30 1807 C 173.868 -2.17778 -0.84232 0
M  V30 1808 C 174.849 -1.11487 -1.2847 0
M  V30 1809 O 176.034 -1.39681 -1.34918 0
M  V30 1810 C 173.164 -2.76888 -2.09644 0
M  V30 1811 C 172.118 -3.88669 -1.79221 0
M  V30 1812 C 171.444 -4.34541 -3.11574 0
M  V30 1813 C 172.744 -5.11251 -1.06864 0
M  V30 1814 H 174.438 -2.97489 -0.337774 0
M  V30 1815 H 171.984 -1.43097 -0.161025 0
M  V30 1816 H 173.937 -3.17904 -2.76614 0
M  V30 1817 H 172.661 -1.94451 -2.62405 0
M  V30 1818 H 171.32 -3.48213 -1.14644 0
M  V30 1819 H 170.968 -3.48977 -3.62249 0
M  V30 1820 H 170.668 -5.09914 -2.91996 0
M  V30 1821 H 172.192 -4.782 -3.7968 0
M  V30 1822 H 173.606 -5.49352 -1.63968 0
M  V30 1823 H 172.003 -5.9214 -0.974178 0
M  V30 1824 H 173.073 -4.8487 -0.0536168 0
M  V30 1825 N 174.416 0.165178 -1.56732 0
M  V30 1826 C 175.693 0.908443 -1.73224 0
M  V30 1827 C 176.073 2.0013 -0.67165 0
M  V30 1828 O 175.421 2.26353 0.31253 0
M  V30 1829 C 175.631 1.46756 -3.16644 0
M  V30 1830 C 176.979 1.93809 -3.77787 0
M  V30 1831 O 178.003 1.56537 -3.1996 0
M  V30 1832 O 176.862 2.62486 -4.79336 0
M  V30 1833 H 173.956 0.428025 -0.707618 0
M  V30 1834 H 176.502 0.152526 -1.69013 0
M  V30 1835 H 175.274 0.68129 -3.85323 0
M  V30 1836 H 174.897 2.28749 -3.25207 0
M  V30 1837 N 175.894 1.51508 0.433938 0
M  V30 1838 C 177.143 1.63578 1.18005 0
M  V30 1839 C 177.456 0.359514 1.92268 0
M  V30 1840 O 178.662 0.359632 2.69108 0
M  V30 1841 C 177.118 2.88901 2.14626 0
M  V30 1842 C 176.726 4.23544 1.45995 0
M  V30 1843 C 178.47 3.10328 2.89649 0
M  V30 1844 C 176.377 5.40014 2.4112 0
M  V30 1845 H 175.307 0.609277 0.444182 0
M  V30 1846 H 177.958 1.77978 0.446773 0
M  V30 1847 H 176.34 2.68142 2.91403 0
M  V30 1848 H 177.514 4.54696 0.747532 0
M  V30 1849 H 175.829 4.08021 0.831115 0
M  V30 1850 H 178.426 3.94518 3.60915 0
M  V30 1851 H 178.769 2.23544 3.51189 0
M  V30 1852 H 179.302 3.31443 2.19978 0
M  V30 1853 H 176.041 6.29068 1.84264 0
M  V30 1854 H 175.561 5.13233 3.10406 0
M  V30 1855 H 177.24 5.72099 3.02177 0
M  V30 1856 N 177.372 -0.689602 1.41712 0
M  V30 1857 C 178.602 -1.47613 1.44548 0
M  V30 1858 C 179.01 -1.89132 0.0509034 0
M  V30 1859 O 178.353 -1.57741 -0.94146 0
M  V30 1860 C 178.415 -2.76596 2.2964 0
M  V30 1861 C 178.079 -2.57245 3.77722 0
M  V30 1862 C 179.076 -2.22804 4.69739 0
M  V30 1863 C 176.761 -2.727 4.2183 0
M  V30 1864 C 178.755 -2.04064 6.03851 0
M  V30 1865 C 176.442 -2.53576 5.56006 0
M  V30 1866 C 177.44 -2.1931 6.46832 0
M  V30 1867 O 177.128 -2.00359 7.78532 0
M  V30 1868 H 176.86 -0.461227 0.494212 0
M  V30 1869 H 179.414 -0.856045 1.86711 0
M  V30 1870 H 177.644 -3.41033 1.82301 0
M  V30 1871 H 179.333 -3.38424 2.24107 0
M  V30 1872 H 180.099 -2.10473 4.36951 0
M  V30 1873 H 175.978 -2.98353 3.51435 0
M  V30 1874 H 179.522 -1.77241 6.74708 0
M  V30 1875 H 175.419 -2.65499 5.88371 0
M  V30 1876 H 176.187 -2.15075 7.89737 0
M  V30 1877 N 178.85 -1.27639 -0.924453 0
M  V30 1878 C 180.096 -1.14336 -1.67497 0
M  V30 1879 C 180.429 0.309465 -1.91718 0
M  V30 1880 O 179.704 1.22608 -1.50989 0
M  V30 1881 C 179.987 -1.93096 -3.0395 0
M  V30 1882 C 179.84 -3.46381 -2.8695 0
M  V30 1883 C 181.159 -1.73798 -4.0433 0
M  V30 1884 H 178.278 -0.416728 -0.607871 0
M  V30 1885 H 180.92 -1.56832 -1.07256 0
M  V30 1886 H 179.07 -1.56982 -3.55372 0
M  V30 1887 H 180.742 -3.92343 -2.42621 0
M  V30 1888 H 178.985 -3.72557 -2.22225 0
M  V30 1889 H 179.656 -3.96735 -3.83804 0
M  V30 1890 H 182.132 -2.05293 -3.61931 0
M  V30 1891 H 181.008 -2.31294 -4.97789 0
M  V30 1892 H 181.269 -0.686725 -4.36734 0
M  V30 1893 N 180.328 1.1314 -1.09713 0
M  V30 1894 C 181.577 1.83838 -0.829851 0
M  V30 1895 C 181.89 1.84599 0.646728 0
M  V30 1896 O 183.096 2.51218 1.02965 0
M  V30 1897 C 181.552 3.30069 -1.43466 0
M  V30 1898 C 181.16 3.37688 -2.94399 0
M  V30 1899 C 182.904 4.05788 -1.24645 0
M  V30 1900 C 180.811 4.78209 -3.47952 0
M  V30 1901 H 179.741 0.68877 -0.306777 0
M  V30 1902 H 182.392 1.27448 -1.3202 0
M  V30 1903 H 180.774 3.8628 -0.871996 0
M  V30 1904 H 181.948 2.91456 -3.56918 0
M  V30 1905 H 180.263 2.75436 -3.12289 0
M  V30 1906 H 182.86 5.09535 -1.62107 0
M  V30 1907 H 183.203 4.15878 -0.187357 0
M  V30 1908 H 183.736 3.55915 -1.77678 0
M  V30 1909 H 180.475 4.73311 -4.53495 0
M  V30 1910 H 179.995 5.24924 -2.90198 0
M  V30 1911 H 181.674 5.47133 -3.45332 0
M  V30 1912 N 181.806 0.884767 1.30421 0
M  V30 1913 C 183.055 0.499164 1.95426 0
M  V30 1914 C 183.368 -0.95645 1.70621 0
M  V30 1915 O 184.574 -1.44889 2.29607 0
M  V30 1916 C 183.03 0.84177 3.49917 0
M  V30 1917 C 182.638 2.31514 3.83543 0
M  V30 1918 C 184.382 0.525355 4.21237 0
M  V30 1919 C 182.289 2.59939 5.31212 0
M  V30 1920 H 181.219 0.182944 0.73147 0
M  V30 1921 H 183.87 1.07971 1.48373 0
M  V30 1922 H 182.252 0.190311 3.95542 0
M  V30 1923 H 183.426 3.0109 3.48829 0
M  V30 1924 H 181.741 2.59907 3.25326 0
M  V30 1925 H 184.338 0.714762 5.29901 0
M  V30 1926 H 184.681 -0.535222 4.12845 0
M  V30 1927 H 185.214 1.134 3.81294 0
M  V30 1928 H 181.953 3.64736 5.44654 0
M  V30 1929 H 181.473 1.94972 5.67227 0
M  V30 1930 H 183.152 2.45429 5.98643 0
M  V30 1931 N 183.284 -1.43765 0.645699 0
M  V30 1932 C 184.561 -1.9541 0.0862963 0
M  V30 1933 C 184.941 -1.58725 -1.39175 0
M  V30 1934 O 184.289 -0.868581 -2.11348 0
M  V30 1935 C 184.499 -3.47488 0.324565 0
M  V30 1936 C 185.847 -4.24001 0.225497 0
M  V30 1937 O 186.871 -3.55274 0.256715 0
M  V30 1938 O 185.73 -5.46313 0.142801 0
M  V30 1939 H 182.824 -0.826882 -0.0139483 0
M  V30 1940 H 185.37 -1.53743 0.718415 0
M  V30 1941 H 184.142 -3.67289 1.3496 0
M  V30 1942 H 183.765 -3.96135 -0.340987 0
M  V30 1943 N 184.763 -0.387143 -1.52771 0
M  V30 1944 C 186.009 0.188506 -2.02525 0
M  V30 1945 C 186.364 1.44649 -1.26864 0
M  V30 1946 O 185.657 1.88189 -0.359945 0
M  V30 1947 C 185.851 0.512209 -3.53711 0
M  V30 1948 C 185.68 -0.712855 -4.44014 0
M  V30 1949 C 184.45 -1.23147 -4.90064 0
M  V30 1950 C 186.648 -1.58453 -4.89282 0
M  V30 1951 N 184.63 -2.41431 -5.64433 0
M  V30 1952 C 186.001 -2.61381 -5.6221 0
M  V30 1953 C 188.056 -1.60488 -4.71326 0
M  V30 1954 C 186.759 -3.66227 -6.19088 0
M  V30 1955 C 188.785 -2.6424 -5.29085 0
M  V30 1956 C 188.147 -3.6589 -6.01917 0
M  V30 1957 H 184.246 0.0311236 -0.78138 0
M  V30 1958 H 186.83 -0.536548 -1.87161 0
M  V30 1959 H 185.001 1.20632 -3.69192 0
M  V30 1960 H 186.733 1.07482 -3.90166 0
M  V30 1961 H 183.488 -0.792795 -4.66917 0
M  V30 1962 H 183.912 -3.01274 -6.0627 0
M  V30 1963 H 188.554 -0.83247 -4.14524 0
M  V30 1964 H 186.272 -4.44337 -6.74974 0
M  V30 1965 H 189.858 -2.66695 -5.17074 0
M  V30 1966 H 188.738 -4.44855 -6.45813 0
M  V30 1967 N 186.241 1.57166 -0.116904 0
M  V30 1968 C 187.191 2.11756 0.845178 0
M  V30 1969 C 188.175 1.03783 1.22955 0
M  V30 1970 O 189.367 1.3002 1.20099 0
M  V30 1971 C 186.496 2.71886 2.09602 0
M  V30 1972 C 185.582 3.86937 1.7361 0
M  V30 1973 N 185.973 4.94073 1.08284 0
M  V30 1974 C 184.271 3.97082 2.03082 0
M  V30 1975 C 184.972 5.74477 0.913855 0
M  V30 1976 N 183.948 5.2423 1.43818 0
M  V30 1977 H 187.75 2.91967 0.336523 0
M  V30 1978 H 185.264 1.62174 0.0856332 0
M  V30 1979 H 187.261 3.09338 2.79492 0
M  V30 1980 H 185.921 1.93138 2.61013 0
M  V30 1981 H 186.932 5.12483 0.747067 0
M  V30 1982 H 183.609 3.29372 2.56554 0
M  V30 1983 H 184.999 6.70701 0.40125 0
M  V30 1984 N 187.719 -0.156864 1.56817 0
M  V30 1985 C 188.968 -0.869504 1.81996 0
M  V30 1986 C 189.281 -1.82777 0.696545 0
M  V30 1987 O 190.487 -2.58384 0.833658 0
M  V30 1988 C 188.943 -1.59679 3.22538 0
M  V30 1989 C 188.551 -0.681431 4.42787 0
M  V30 1990 C 190.295 -2.2968 3.56997 0
M  V30 1991 C 188.202 -1.40978 5.74351 0
M  V30 1992 H 187.132 -0.328438 0.678708 0
M  V30 1993 H 189.783 -0.1223 1.83092 0
M  V30 1994 H 188.165 -2.38927 3.158 0
M  V30 1995 H 189.339 0.0751166 4.60739 0
M  V30 1996 H 187.654 -0.0903431 4.16302 0
M  V30 1997 H 190.251 -2.84794 4.52544 0
M  V30 1998 H 190.594 -3.05707 2.82576 0
M  V30 1999 H 191.127 -1.57361 3.65352 0
M  V30 2000 H 187.866 -0.691561 6.51842 0
M  V30 2001 H 187.386 -2.13929 5.60352 0
M  V30 2002 H 189.065 -1.95337 6.16808 0
M  V30 2003 N 189.197 -1.51736 -0.425897 0
M  V30 2004 C 190.127 -1.76827 -1.52494 0
M  V30 2005 C 191.108 -0.618524 -1.58456 0
M  V30 2006 O 192.293 -0.862416 -1.74 0
M  V30 2007 C 189.423 -1.90374 -2.90474 0
M  V30 2008 C 188.377 -3.0588 -2.99369 0
M  V30 2009 C 187.703 -3.04625 -4.3944 0
M  V30 2010 C 189.003 -4.45644 -2.72394 0
M  V30 2011 H 190.697 -2.68855 -1.31748 0
M  V30 2012 H 188.243 -1.29372 -0.632362 0
M  V30 2013 H 190.196 -2.0651 -3.6733 0
M  V30 2014 H 188.92 -0.95004 -3.12477 0
M  V30 2015 H 187.579 -2.89467 -2.24954 0
M  V30 2016 H 187.227 -2.0701 -4.58428 0
M  V30 2017 H 186.927 -3.82195 -4.46319 0
M  V30 2018 H 188.451 -3.22869 -5.18255 0
M  V30 2019 H 189.865 -4.62348 -3.38979 0
M  V30 2020 H 188.262 -5.25006 -2.9067 0
M  V30 2021 H 189.332 -4.54893 -1.67929 0
M  V30 2022 N 190.675 0.682077 -1.42076 0
M  V30 2023 C 191.9 1.47558 -1.45744 0
M  V30 2024 C 192.325 1.87977 -0.0680981 0
M  V30 2025 O 191.683 1.55522 0.9318 0
M  V30 2026 C 191.731 2.70575 -2.38373 0
M  V30 2027 O 190.835 3.68573 -1.85007 0
M  V30 2028 H 190.176 0.443585 -0.494093 0
M  V30 2029 H 192.706 0.837238 -1.86686 0
M  V30 2030 H 192.716 3.18729 -2.54707 0
M  V30 2031 H 191.391 2.40495 -3.39315 0
M  V30 2032 H 189.968 3.2757 -1.78192 0
M  V30 2033 N 192.153 1.28127 0.917671 0
M  V30 2034 C 193.43 1.05761 1.64542 0
M  V30 2035 C 193.81 -0.404344 2.07191 0
M  V30 2036 O 193.158 -1.38963 1.81388 0
M  V30 2037 C 193.368 2.02857 2.83989 0
M  V30 2038 C 194.716 2.32786 3.551 0
M  V30 2039 O 195.74 2.0091 2.94132 0
M  V30 2040 O 194.599 2.87169 4.64969 0
M  V30 2041 H 191.693 0.403916 0.721652 0
M  V30 2042 H 194.239 1.39431 0.967322 0
M  V30 2043 H 193.011 3.01407 2.49538 0
M  V30 2044 H 192.634 1.69809 3.59514 0
M  V30 2045 N 193.631 -1.12557 1.10312 0
M  V30 2046 C 194.579 -2.20325 0.745629 0
M  V30 2047 C 195.573 -1.67429 -0.25763 0
M  V30 2048 O 196.779 -1.79612 -0.118132 0
M  V30 2049 H 193.154 -0.718118 0.223182 0
M  V30 2050 H 195.125 -2.47733 1.66346 0
M  V30 2051 C 193.874 -3.47168 0.192262 0
M  V30 2052 H 193.197 -3.88215 0.955475 0
M  V30 2053 H 194.637 -4.23995 -0.0198274 0
M  V30 2054 C 193.096 -3.19298 -1.07472 0
M  V30 2055 O 193.626 -3.3891 -2.15645 0
M  V30 2056 N 191.832 -2.73113 -0.992847 0
M  V30 2057 H 191.379 -2.57354 -0.112474 0
M  V30 2058 H 191.337 -2.54842 -1.84127 0
M  V30 2059 N 195.109 -0.891671 -1.2995 0
M  V30 2060 C 196.386 -0.433307 -1.9074 0
M  V30 2061 C 196.766 1.08646 -1.80995 0
M  V30 2062 O 196.114 1.92476 -1.23147 0
M  V30 2063 C 196.324 -0.938895 -3.36134 0
M  V30 2064 C 197.672 -0.977829 -4.13187 0
M  V30 2065 O 198.696 -0.886015 -3.45005 0
M  V30 2066 O 197.555 -1.11453 -5.35015 0
M  V30 2067 H 194.649 -0.133699 -0.816121 0
M  V30 2068 H 197.195 -0.981011 -1.38471 0
M  V30 2069 H 195.967 -1.98281 -3.37343 0
M  V30 2070 H 195.59 -0.37074 -3.95868 0
M  V30 2071 N 196.587 1.43421 -0.653314 0
M  V30 2072 C 197.998 1.85065 -0.246537 0
M  V30 2073 C 198.349 1.54688 1.2069 0
M  V30 2074 O 197.474 0.995896 1.92122 0
M  V30 2075 C 198.069 3.35922 -0.440666 0
M  V30 2076 C 196.628 3.76297 -0.0882064 0
M  V30 2077 C 195.775 2.67147 -0.743484 0
M  V30 2078 H 198.726 1.33572 -0.856979 0
M  V30 2079 H 198.747 3.79204 0.313798 0
M  V30 2080 H 198.259 3.58 -1.49858 0
M  V30 2081 H 196.36 3.5983 0.96711 0
M  V30 2082 H 196.473 4.76338 -0.513738 0
M  V30 2083 H 194.837 2.54086 -0.176712 0
M  V30 2084 H 195.62 2.92053 -1.80443 0
M  V30 2085 N 198.065 0.39524 1.52563 0
M  V30 2086 C 199.013 -0.451859 2.28169 0
M  V30 2087 C 200.007 -1.05792 1.32304 0
M  V30 2088 O 201.213 -0.997718 1.49818 0
M  V30 2089 H 197.588 -0.164481 0.733792 0
M  V30 2090 H 199.559 0.207199 2.9768 0
M  V30 2091 C 198.308 -1.56385 3.10546 0
M  V30 2092 H 197.631 -1.10682 3.84174 0
M  V30 2093 H 199.071 -2.13067 3.66577 0
M  V30 2094 C 197.53 -2.52328 2.23231 0
M  V30 2095 O 198.06 -3.5588 1.86312 0
M  V30 2096 N 196.266 -2.22209 1.87274 0
M  V30 2097 H 195.813 -1.38033 2.17496 0
M  V30 2098 H 195.771 -2.86652 1.29143 0
M  V30 2099 N 199.544 -1.57102 0.125237 0
M  V30 2100 C 200.793 -1.94582 -0.531095 0
M  V30 2101 C 201.106 -1.01126 -1.6743 0
M  V30 2102 O 202.312 -1.28097 -2.39381 0
M  V30 2103 C 200.768 -3.45839 -0.996164 0
M  V30 2104 C 200.376 -4.47842 0.118926 0
M  V30 2105 C 202.12 -3.92227 -1.62352 0
M  V30 2106 C 200.027 -5.90284 -0.363192 0
M  V30 2107 H 198.957 -0.726391 -0.20217 0
M  V30 2108 H 201.608 -1.82339 0.206092 0
M  V30 2109 H 199.99 -3.53338 -1.78796 0
M  V30 2110 H 201.164 -4.52018 0.895358 0
M  V30 2111 H 199.479 -4.11243 0.653324 0
M  V30 2112 H 202.076 -4.96069 -1.99548 0
M  V30 2113 H 202.419 -3.32552 -2.50429 0
M  V30 2114 H 202.952 -3.87554 -0.897019 0
M  V30 2115 H 199.691 -6.53728 0.481679 0
M  V30 2116 H 199.211 -5.89515 -1.10597 0
M  V30 2117 H 200.89 -6.41752 -0.822377 0
M  V30 2118 N 201.022 0.148545 -1.56898 0
M  V30 2119 C 202.252 0.875118 -1.8715 0
M  V30 2120 C 202.66 1.75322 -0.711262 0
M  V30 2121 O 202.003 1.80745 0.328151 0
M  V30 2122 C 202.065 1.7844 -3.12089 0
M  V30 2123 C 201.729 1.08361 -4.43967 0
M  V30 2124 C 202.726 0.438247 -5.1805 0
M  V30 2125 C 200.411 1.07358 -4.90693 0
M  V30 2126 C 202.405 -0.20779 -6.37061 0
M  V30 2127 C 200.092 0.42373 -6.09629 0
M  V30 2128 C 201.09 -0.215829 -6.82659 0
M  V30 2129 O 200.778 -0.855378 -7.99336 0
M  V30 2130 H 200.51 0.258504 -0.624621 0
M  V30 2131 H 203.064 0.14652 -2.04877 0
M  V30 2132 H 201.294 2.55389 -2.90367 0
M  V30 2133 H 202.983 2.38279 -3.286 0
M  V30 2134 H 203.749 0.437817 -4.8302 0
M  V30 2135 H 199.628 1.5608 -4.33774 0
M  V30 2136 H 203.172 -0.70758 -6.94002 0
M  V30 2137 H 199.069 0.421822 -6.4412 0
M  V30 2138 H 199.837 -0.756892 -8.14993 0
M  V30 2139 N 202.5 1.5196 0.417844 0
M  V30 2140 C 203.447 1.74678 1.50852 0
M  V30 2141 C 204.417 0.588947 1.55308 0
M  V30 2142 O 205.602 0.825544 1.72016 0
M  V30 2143 C 202.742 1.89544 2.88387 0
M  V30 2144 C 201.855 3.17166 2.93309 0
M  V30 2145 C 200.99 3.22513 4.22088 0
M  V30 2146 C 200.029 4.44372 4.20951 0
M  V30 2147 N 199.166 4.47161 5.41287 0
M  V30 2148 H 204.006 2.67768 1.30783 0
M  V30 2149 H 201.543 1.32689 0.63498 0
M  V30 2150 H 203.501 1.96146 3.68216 0
M  V30 2151 H 202.131 0.998424 3.06971 0
M  V30 2152 H 201.183 3.19778 2.06024 0
M  V30 2153 H 202.495 4.07021 2.88332 0
M  V30 2154 H 201.649 3.28139 5.10303 0
M  V30 2155 H 200.388 2.30581 4.29748 0
M  V30 2156 H 199.393 4.38902 3.31127 0
M  V30 2157 H 200.618 5.3759 4.14938 0
M  V30 2158 H 198.564 3.58108 5.49632 0
M  V30 2159 H 198.481 5.3085 5.3827 0
M  V30 2160 H 199.749 4.57005 6.3148 0
M  V30 2161 N 203.978 -0.674533 1.42435 0
M  V30 2162 C 204.888 -1.81751 1.48337 0
M  V30 2163 C 205.904 -1.69975 0.372099 0
M  V30 2164 O 207.08 -1.91521 0.62304 0
M  V30 2165 C 204.145 -3.17895 1.38361 0
M  V30 2166 C 203.206 -3.41625 2.59982 0
M  V30 2167 C 202.439 -4.71274 2.50473 0
M  V30 2168 O 202.662 -5.49197 1.54075 0
M  V30 2169 O 201.596 -4.96254 3.4061 0
M  V30 2170 H 205.422 -1.79728 2.44809 0
M  V30 2171 H 203.007 -0.830312 1.24202 0
M  V30 2172 H 204.889 -3.99136 1.35161 0
M  V30 2173 H 203.564 -3.20555 0.450144 0
M  V30 2174 H 202.471 -2.60231 2.68757 0
M  V30 2175 H 203.804 -3.43796 3.52229 0
M  V30 2176 N 205.456 -1.28612 -0.910864 0
M  V30 2177 C 206.366 -1.14643 -2.0468 0
M  V30 2178 C 207.382 -0.0723121 -1.7385 0
M  V30 2179 O 208.558 -0.282178 -1.99413 0
M  V30 2180 C 205.623 -0.812561 -3.37044 0
M  V30 2181 C 204.684 -1.96935 -3.81465 0
M  V30 2182 C 203.917 -1.65131 -5.07511 0
M  V30 2183 O 204.14 -0.567013 -5.67575 0
M  V30 2184 O 203.074 -2.49585 -5.47714 0
M  V30 2185 H 206.9 -2.1001 -2.19384 0
M  V30 2186 H 204.485 -1.07958 -1.03274 0
M  V30 2187 H 206.367 -0.640441 -4.16505 0
M  V30 2188 H 205.042 0.111426 -3.23508 0
M  V30 2189 H 203.949 -2.19664 -3.02818 0
M  V30 2190 H 205.282 -2.87414 -3.99567 0
M  V30 2191 N 206.934 1.1197 -1.10907 0
M  V30 2192 C 207.897 2.16031 -0.765707 0
M  V30 2193 C 208.897 1.59393 0.212235 0
M  V30 2194 O 210.087 1.74196 -0.0115441 0
M  V30 2195 C 207.219 3.40632 -0.135053 0
M  V30 2196 H 208.412 2.47919 -1.68748 0
M  V30 2197 H 205.965 1.27061 -0.910226 0
M  V30 2198 H 206.7 3.14348 0.797218 0
M  V30 2199 H 206.485 3.8302 -0.838937 0
M  V30 2200 H 207.975 4.17505 0.0892469 0
M  V30 2201 N 208.412 0.89855 1.29475 0
M  V30 2202 C 209.359 0.373819 2.27753 0
M  V30 2203 C 210.329 -0.543444 1.56958 0
M  V30 2204 O 211.514 -0.468934 1.84948 0
M  V30 2205 C 208.654 -0.393648 3.42848 0
M  V30 2206 C 207.767 0.554379 4.28428 0
M  V30 2207 C 206.902 -0.230026 5.30702 0
M  V30 2208 C 205.941 0.712599 6.07938 0
M  V30 2209 N 205.078 -0.0373283 7.0209 0
M  V30 2210 H 209.918 1.21699 2.72017 0
M  V30 2211 H 207.455 0.611456 1.33789 0
M  V30 2212 H 209.413 -0.85466 4.08352 0
M  V30 2213 H 208.043 -1.20128 2.99615 0
M  V30 2214 H 207.095 1.13391 3.63107 0
M  V30 2215 H 208.407 1.27597 4.82204 0
M  V30 2216 H 207.561 -0.752288 6.02018 0
M  V30 2217 H 206.3 -0.984758 4.77654 0
M  V30 2218 H 205.305 1.24637 5.35486 0
M  V30 2219 H 206.53 1.46664 6.63074 0
M  V30 2220 H 204.476 -0.774348 6.51414 0
M  V30 2221 H 204.393 0.624374 7.53417 0
M  V30 2222 H 205.661 -0.539891 7.77628 0
M  V30 2223 N 209.89 -1.43072 0.660911 0
M  V30 2224 C 211.167 -1.95307 0.107017 0
M  V30 2225 C 211.547 -1.60192 -1.37484 0
M  V30 2226 O 210.895 -0.890949 -2.10415 0
M  V30 2227 C 211.105 -3.47124 0.361402 0
M  V30 2228 C 212.453 -4.23738 0.270455 0
M  V30 2229 O 213.477 -3.54981 0.294382 0
M  V30 2230 O 212.336 -5.46131 0.200737 0
M  V30 2231 H 209.43 -0.826984 -0.00517729 0
M  V30 2232 H 211.976 -1.52972 0.734681 0
M  V30 2233 H 210.748 -3.65837 1.38848 0
M  V30 2234 H 210.371 -3.96475 -0.298953 0
M  V30 2235 N 211.368 -0.403325 -1.52352 0
M  V30 2236 C 212.615 0.174347 -2.01748 0
M  V30 2237 C 212.943 1.45636 -1.2892 0
M  V30 2238 O 212.198 1.9193 -0.382258 0
M  V30 2239 C 212.497 0.474665 -3.54234 0
M  V30 2240 C 212.163 -0.717458 -4.45155 0
M  V30 2241 C 210.825 -1.04447 -4.69728 0
M  V30 2242 C 213.177 -1.51432 -4.98716 0
M  V30 2243 C 210.505 -2.16963 -5.45109 0
M  V30 2244 C 212.857 -2.6302 -5.75329 0
M  V30 2245 C 211.521 -2.96213 -5.98175 0
M  V30 2246 H 210.791 0.0637981 -0.738248 0
M  V30 2247 H 213.438 -0.543553 -1.83624 0
M  V30 2248 H 211.743 1.27406 -3.70506 0
M  V30 2249 H 213.44 0.934496 -3.89959 0
M  V30 2250 H 210.03 -0.452596 -4.26204 0
M  V30 2251 H 214.214 -1.27491 -4.79645 0
M  V30 2252 H 209.47 -2.43034 -5.61021 0
M  V30 2253 H 213.644 -3.25158 -6.15829 0
M  V30 2254 H 211.271 -3.83516 -6.56368 0
M  V30 2255 N 212.846 1.57033 -0.133567 0
M  V30 2256 C 214.093 1.95686 0.520877 0
M  V30 2257 C 214.421 1.0177 1.6575 0
M  V30 2258 O 213.676 0.0443195 1.9565 0
M  V30 2259 C 213.975 3.40674 1.08057 0
M  V30 2260 C 213.641 4.50855 0.0637899 0
M  V30 2261 C 212.303 4.80716 -0.215757 0
M  V30 2262 C 214.655 5.17398 -0.62835 0
M  V30 2263 C 211.983 5.74433 -1.19348 0
M  V30 2264 C 214.335 6.12167 -1.5948 0
M  V30 2265 C 212.999 6.40414 -1.88218 0
M  V30 2266 H 212.269 0.716067 0.190602 0
M  V30 2267 H 214.916 1.9026 -0.217556 0
M  V30 2268 H 213.221 3.42865 1.89606 0
M  V30 2269 H 214.918 3.67902 1.59529 0
M  V30 2270 H 211.508 4.27605 0.291855 0
M  V30 2271 H 215.692 4.94472 -0.425562 0
M  V30 2272 H 210.948 5.94616 -1.42272 0
M  V30 2273 H 215.122 6.6281 -2.13671 0
M  V30 2274 H 212.749 7.12838 -2.64133 0
M  V30 2275 N 214.325 -0.140222 1.56975 0
M  V30 2276 C 215.602 -0.880769 1.74648 0
M  V30 2277 C 215.982 -1.99036 0.703404 0
M  V30 2278 O 215.33 -2.26821 -0.27648 0
M  V30 2279 C 215.54 -1.417 3.18939 0
M  V30 2280 C 216.888 -1.87774 3.80823 0
M  V30 2281 O 217.912 -1.51427 3.2241 0
M  V30 2282 O 216.771 -2.54827 4.83452 0
M  V30 2283 H 213.865 -0.416713 0.714338 0
M  V30 2284 H 216.411 -0.125618 1.69234 0
M  V30 2285 H 215.183 -0.619902 3.86359 0
M  V30 2286 H 214.806 -2.23546 3.28805 0
M  V30 2287 N 215.803 -1.52179 -0.40978 0
M  V30 2288 C 216.713 -1.78364 -1.52392 0
M  V30 2289 C 217.729 -0.669183 -1.60617 0
M  V30 2290 O 218.905 -0.954518 -1.77344 0
M  V30 2291 C 215.97 -1.92822 -2.88133 0
M  V30 2292 C 215.031 -3.16725 -2.898 0
M  V30 2293 C 214.264 -3.30483 -4.19067 0
M  V30 2294 O 214.487 -2.49522 -5.12928 0
M  V30 2295 O 213.421 -4.2363 -4.27576 0
M  V30 2296 H 217.247 -2.72931 -1.33201 0
M  V30 2297 H 214.832 -1.37016 -0.59557 0
M  V30 2298 H 216.714 -2.04157 -3.68643 0
M  V30 2299 H 215.389 -1.01444 -3.07393 0
M  V30 2300 H 214.296 -3.10848 -2.08146 0
M  V30 2301 H 215.629 -4.07881 -2.75489 0
M  V30 2302 N 217.281 0.66697 -1.42791 0
M  V30 2303 C 218.214 1.79177 -1.41318 0
M  V30 2304 C 219.192 1.60234 -0.276401 0
M  V30 2305 O 220.376 1.82602 -0.46785 0
M  V30 2306 C 217.503 3.16289 -1.21157 0
M  V30 2307 C 216.549 3.53964 -2.37932 0
M  V30 2308 S 217.382 3.55501 -4.00474 0
M  V30 2309 C 218.538 4.95292 -3.8267 0
M  V30 2310 H 218.771 1.80153 -2.365 0
M  V30 2311 H 216.304 0.838357 -1.29657 0
M  V30 2312 H 218.262 3.95428 -1.10212 0
M  V30 2313 H 216.923 3.1289 -0.275481 0
M  V30 2314 H 216.116 4.53646 -2.19594 0
M  V30 2315 H 215.718 2.82204 -2.45432 0
M  V30 2316 H 218.01 5.83584 -3.44145 0
M  V30 2317 H 218.953 5.18679 -4.82055 0
M  V30 2318 H 219.361 4.68179 -3.15386 0
M  V30 2319 N 218.759 1.29093 0.90403 0
M  V30 2320 C 219.984 1.19809 1.69294 0
M  V30 2321 C 220.409 -0.238481 1.86582 0
M  V30 2322 O 219.767 -1.1723 1.383 0
M  V30 2323 C 219.815 1.91202 3.05736 0
M  V30 2324 O 218.919 1.22611 3.93752 0
M  V30 2325 H 218.26 0.415385 0.518027 0
M  V30 2326 H 220.79 1.70586 1.12967 0
M  V30 2327 H 220.8 1.99487 3.55906 0
M  V30 2328 H 219.475 2.95692 2.92471 0
M  V30 2329 H 218.052 1.22554 3.52186 0
M  V30 2330 N 220.237 -1.11381 1.11499 0
M  V30 2331 C 221.147 -2.21019 0.786628 0
M  V30 2332 C 222.163 -1.72597 -0.220507 0
M  V30 2333 O 223.339 -2.01321 -0.0565251 0
M  V30 2334 C 220.404 -3.459 0.235333 0
M  V30 2335 C 219.465 -4.09107 1.30115 0
M  V30 2336 C 218.698 -5.28027 0.776068 0
M  V30 2337 O 218.921 -5.6904 -0.393661 0
M  V30 2338 O 217.855 -5.81835 1.54114 0
M  V30 2339 H 221.681 -2.51521 1.70209 0
M  V30 2340 H 219.266 -1.19928 0.890928 0
M  V30 2341 H 221.148 -4.21346 -0.067715 0
M  V30 2342 H 219.823 -3.17049 -0.652828 0
M  V30 2343 H 218.73 -3.35391 1.65722 0
M  V30 2344 H 220.063 -4.42139 2.16273 0
M  V30 2345 N 221.715 -0.905404 -1.28997 0
M  V30 2346 C 222.645 -0.404212 -2.29975 0
M  V30 2347 C 223.626 0.523784 -1.61835 0
M  V30 2348 O 224.811 0.433298 -1.89304 0
M  V30 2349 C 221.941 0.364042 -3.45387 0
M  V30 2350 C 220.895 -0.474048 -4.25367 0
M  V30 2351 C 220.221 0.422045 -5.33032 0
M  V30 2352 C 221.521 -1.72696 -4.92923 0
M  V30 2353 H 223.215 -1.24807 -2.72146 0
M  V30 2354 H 220.761 -0.601585 -1.30832 0
M  V30 2355 H 222.714 0.725447 -4.15109 0
M  V30 2356 H 221.438 1.24174 -3.02074 0
M  V30 2357 H 220.097 -0.81786 -3.57361 0
M  V30 2358 H 219.745 1.29804 -4.85963 0
M  V30 2359 H 219.445 -0.135057 -5.87445 0
M  V30 2360 H 220.969 0.779517 -6.05604 0
M  V30 2361 H 222.383 -1.43495 -5.55051 0
M  V30 2362 H 220.78 -2.22582 -5.57295 0
M  V30 2363 H 221.85 -2.45964 -4.17887 0
M  V30 2364 N 223.193 1.4272 -0.668489 0
M  V30 2365 C 224.423 2.05668 -0.196063 0
M  V30 2366 C 224.831 1.5028 1.14946 0
M  V30 2367 O 224.174 0.6348 1.72383 0
M  V30 2368 C 224.236 3.59469 -0.0468879 0
M  V30 2369 C 223.9 4.37518 -1.32012 0
M  V30 2370 C 224.897 4.68584 -2.25222 0
M  V30 2371 C 222.582 4.77266 -1.56596 0
M  V30 2372 C 224.576 5.38326 -3.41297 0
M  V30 2373 C 222.263 5.4675 -2.72962 0
M  V30 2374 C 223.261 5.77204 -3.65137 0
M  V30 2375 O 222.949 6.45264 -4.79468 0
M  V30 2376 H 222.681 0.669382 -0.0943599 0
M  V30 2377 H 225.235 1.83954 -0.913788 0
M  V30 2378 H 223.465 3.79817 0.726357 0
M  V30 2379 H 225.154 4.04071 0.384852 0
M  V30 2380 H 225.92 4.38382 -2.07477 0
M  V30 2381 H 221.799 4.52959 -0.857249 0
M  V30 2382 H 225.343 5.62014 -4.13263 0
M  V30 2383 H 221.24 5.76369 -2.90635 0
M  V30 2384 H 222.008 6.63753 -4.78931 0
M  V30 2385 N 224.671 0.411399 1.52136 0
M  V30 2386 C 225.919 -0.163322 2.01439 0
M  V30 2387 C 226.24 -1.45453 1.29879 0
M  V30 2388 O 225.51 -1.91225 0.4254 0
M  V30 2389 H 224.09 -0.0633447 0.744309 0
M  V30 2390 H 226.752 0.548161 1.87033 0
M  V30 2391 H 225.848 -0.357817 3.10042 0
M  V30 2392 N 226.149 -1.5696 0.141893 0
M  V30 2393 C 227.426 -1.87553 -0.555281 0
M  V30 2394 C 227.806 -1.04699 -1.83306 0
M  V30 2395 O 227.154 -0.132346 -2.28116 0
M  V30 2396 C 227.364 -3.39093 -0.825664 0
M  V30 2397 C 228.712 -4.08199 -1.16869 0
M  V30 2398 O 229.736 -3.44242 -0.915185 0
M  V30 2399 O 228.595 -5.21139 -1.6455 0
M  V30 2400 H 225.689 -0.777188 -0.282679 0
M  V30 2401 H 228.235 -1.68763 0.17812 0
M  V30 2402 H 227.007 -3.91221 0.0788633 0
M  V30 2403 H 226.63 -3.63393 -1.61343 0
M  V30 2404 N 227.627 0.131896 -1.57047 0
M  V30 2405 C 228.857 0.855219 -1.88068 0
M  V30 2406 C 229.265 1.74557 -0.729817 0
M  V30 2407 O 228.608 1.81083 0.308962 0
M  V30 2408 C 228.67 1.75119 -3.13964 0
M  V30 2409 C 228.334 1.03646 -4.45091 0
M  V30 2410 C 229.331 0.383276 -5.18485 0
M  V30 2411 C 227.016 1.02148 -4.91804 0
M  V30 2412 C 229.01 -0.275347 -6.36805 0
M  V30 2413 C 226.697 0.359047 -6.10044 0
M  V30 2414 C 227.695 -0.288222 -6.82392 0
M  V30 2415 O 227.383 -0.94011 -7.98384 0
M  V30 2416 H 227.115 0.251864 -0.627328 0
M  V30 2417 H 229.669 0.124782 -2.05021 0
M  V30 2418 H 227.899 2.52295 -2.9306 0
M  V30 2419 H 229.588 2.3478 -3.31109 0
M  V30 2420 H 230.354 0.386562 -4.83457 0
M  V30 2421 H 226.233 1.5147 -4.35405 0
M  V30 2422 H 229.777 -0.781148 -6.93213 0
M  V30 2423 H 225.674 0.35348 -6.44531 0
M  V30 2424 H 226.442 -0.84329 -8.14144 0
M  V30 2425 N 229.106 1.52395 0.401703 0
M  V30 2426 C 230.517 1.58899 0.980202 0
M  V30 2427 C 230.868 0.434032 1.91339 0
M  V30 2428 O 229.993 -0.444619 2.11783 0
M  V30 2429 C 230.588 2.87994 1.78451 0
M  V30 2430 C 229.147 2.96953 2.31292 0
M  V30 2431 C 228.294 2.53903 1.11483 0
M  V30 2432 H 231.245 1.57657 0.18168 0
M  V30 2433 H 231.266 2.73765 2.64259 0
M  V30 2434 H 230.778 3.72035 1.10506 0
M  V30 2435 H 228.879 2.17422 3.02586 0
M  V30 2436 H 228.992 4.01344 2.61649 0
M  V30 2437 H 227.356 2.07925 1.47104 0
M  V30 2438 H 228.139 3.40326 0.450928 0
M  V30 2439 N 230.584 -0.659388 1.43143 0
M  V30 2440 C 231.532 -1.79374 1.4808 0
M  V30 2441 C 232.526 -1.65639 0.354988 0
M  V30 2442 O 233.732 -1.7206 0.528704 0
M  V30 2443 H 230.107 -0.591705 0.4641 0
M  V30 2444 H 232.078 -1.72329 2.43609 0
M  V30 2445 C 230.827 -3.17606 1.41499 0
M  V30 2446 H 230.15 -3.28809 2.27431 0
M  V30 2447 H 231.59 -3.96951 1.49015 0
M  V30 2448 C 230.049 -3.36642 0.131765 0
M  V30 2449 O 230.579 -3.93461 -0.809386 0
M  V30 2450 N 228.785 -2.90567 0.0439396 0
M  V30 2451 H 228.332 -2.44513 0.810619 0
M  V30 2452 H 228.29 -3.03681 -0.813969 0
M  V30 2453 N 232.062 -1.29571 -0.897171 0
M  V30 2454 C 233.308 -1.17863 -1.65034 0
M  V30 2455 C 233.641 0.268729 -1.92332 0
M  V30 2456 O 232.916 1.19378 -1.53555 0
M  V30 2457 C 233.199 -1.995 -2.99786 0
M  V30 2458 C 233.052 -3.5239 -2.79538 0
M  V30 2459 C 234.371 -1.82335 -4.00552 0
M  V30 2460 H 231.49 -0.429528 -0.598895 0
M  V30 2461 H 234.132 -1.59072 -1.03905 0
M  V30 2462 H 232.282 -1.64485 -3.51962 0
M  V30 2463 H 233.954 -3.97401 -2.34244 0
M  V30 2464 H 232.197 -3.77187 -2.14273 0
M  V30 2465 H 232.868 -4.04787 -3.75302 0
M  V30 2466 H 235.344 -2.12924 -3.57495 0
M  V30 2467 H 234.22 -2.41801 -4.92771 0
M  V30 2468 H 234.481 -0.779209 -4.35179 0
M  V30 2469 N 233.54 1.10788 -1.12088 0
M  V30 2470 C 234.789 1.82036 -0.868659 0
M  V30 2471 C 235.102 1.85929 0.607426 0
M  V30 2472 O 236.308 2.53346 0.97613 0
M  V30 2473 C 234.764 3.26951 -1.50435 0
M  V30 2474 C 234.372 3.31367 -3.01496 0
M  V30 2475 C 236.116 4.03053 -1.33225 0
M  V30 2476 C 234.023 4.7072 -3.58017 0
M  V30 2477 H 232.953 0.682108 -0.321318 0
M  V30 2478 H 235.604 1.24618 -1.34694 0
M  V30 2479 H 233.986 3.84343 -0.953735 0
M  V30 2480 H 235.16 2.83819 -3.6302 0
M  V30 2481 H 233.475 2.6875 -3.18061 0
M  V30 2482 H 236.072 5.05981 -1.72878 0
M  V30 2483 H 236.415 4.15387 -0.275529 0
M  V30 2484 H 236.948 3.52066 -1.85188 0
M  V30 2485 H 233.687 4.63585 -4.63432 0
M  V30 2486 H 233.207 5.1865 -3.01268 0
M  V30 2487 H 234.886 5.39685 -3.56859 0
M  V30 2488 N 235.018 0.912232 1.28515 0
M  V30 2489 C 236.248 0.559604 1.98877 0
M  V30 2490 C 236.656 -0.863113 1.68366 0
M  V30 2491 O 235.999 -1.58304 0.931969 0
M  V30 2492 C 236.061 0.68703 3.52874 0
M  V30 2493 C 235.725 2.07901 4.06972 0
M  V30 2494 C 236.722 3.05157 4.20922 0
M  V30 2495 C 234.407 2.39178 4.417 0
M  V30 2496 C 236.401 4.31806 4.68852 0
M  V30 2497 C 234.088 3.66068 4.89324 0
M  V30 2498 C 235.086 4.62195 5.02856 0
M  V30 2499 O 234.774 5.86829 5.49442 0
M  V30 2500 H 234.506 0.212191 0.641834 0
M  V30 2501 H 237.06 1.22712 1.64715 0
M  V30 2502 H 235.29 -0.0375486 3.86682 0
M  V30 2503 H 236.979 0.341727 4.04459 0
M  V30 2504 H 237.745 2.82311 3.94367 0
M  V30 2505 H 233.624 1.65109 4.30418 0
M  V30 2506 H 237.168 5.06842 4.79329 0
M  V30 2507 H 233.065 3.88739 5.15318 0
M  V30 2508 H 233.833 5.89597 5.6773 0
M  V30 2509 N 236.496 -1.42363 0.676048 0
M  V30 2510 C 237.406 -2.346 -0.00153389 0
M  V30 2511 C 238.422 -1.5516 -0.787485 0
M  V30 2512 O 239.598 -1.87723 -0.729521 0
M  V30 2513 C 236.663 -3.33705 -0.940298 0
M  V30 2514 C 235.724 -4.29042 -0.148739 0
M  V30 2515 C 234.957 -5.23413 -1.04279 0
M  V30 2516 O 235.18 -5.22749 -2.28232 0
M  V30 2517 O 234.114 -5.99795 -0.502925 0
M  V30 2518 H 237.94 -2.94082 0.758268 0
M  V30 2519 H 235.525 -1.42888 0.436289 0
M  V30 2520 H 237.407 -3.94586 -1.47917 0
M  V30 2521 H 236.082 -2.76695 -1.67993 0
M  V30 2522 H 234.989 -3.71571 0.43427 0
M  V30 2523 H 236.322 -4.89097 0.551805 0
M  V30 2524 N 237.974 -0.419461 -1.51915 0
M  V30 2525 C 239.223 0.154346 -2.01109 0
M  V30 2526 C 239.536 1.45338 -1.30905 0
M  V30 2527 O 240.742 2.10906 -1.7097 0
M  V30 2528 C 239.198 0.325615 -3.58424 0
M  V30 2529 C 238.806 -0.961934 -4.37551 0
M  V30 2530 C 240.55 0.854155 -4.15818 0
M  V30 2531 C 238.457 -0.757287 -5.86531 0
M  V30 2532 H 237.387 0.0614563 -0.751491 0
M  V30 2533 H 240.038 -0.54649 -1.75173 0
M  V30 2534 H 238.42 1.08903 -3.80731 0
M  V30 2535 H 239.594 -1.7323 -4.26999 0
M  V30 2536 H 237.909 -1.41766 -3.91524 0
M  V30 2537 H 240.506 1.02346 -5.24814 0
M  V30 2538 H 240.849 1.83172 -3.73837 0
M  V30 2539 H 241.382 0.149528 -3.97519 0
M  V30 2540 H 238.121 -1.70671 -6.32892 0
M  V30 2541 H 237.641 -0.0264061 -5.99794 0
M  V30 2542 H 239.32 -0.403482 -6.45741 0
M  V30 2543 N 239.452 1.56882 -0.150215 0
M  V30 2544 C 240.415 2.1573 0.774157 0
M  V30 2545 C 241.415 1.0999 1.17298 0
M  V30 2546 O 242.605 1.35613 1.09338 0
M  V30 2547 C 239.737 2.72302 2.05096 0
M  V30 2548 H 240.93 2.98752 0.262201 0
M  V30 2549 H 238.483 1.55985 0.099248 0
M  V30 2550 H 239.218 1.92956 2.6065 0
M  V30 2551 H 239.003 3.49665 1.77416 0
M  V30 2552 H 240.493 3.17632 2.71109 0
M  V30 2553 N 240.93 -0.123565 1.57115 0
M  V30 2554 C 241.878 -1.17082 2.00984 0
M  V30 2555 C 242.872 -1.43136 0.906009 0
M  V30 2556 O 244.078 -1.43152 1.09121 0
M  V30 2557 H 240.453 -0.394653 0.64012 0
M  V30 2558 H 242.424 -0.774292 2.88179 0
M  V30 2559 C 241.173 -2.49057 2.42623 0
M  V30 2560 H 240.496 -2.29846 3.27125 0
M  V30 2561 H 241.936 -3.20906 2.7712 0
M  V30 2562 C 240.395 -3.11305 1.28805 0
M  V30 2563 O 240.925 -3.97171 0.60153 0
M  V30 2564 N 239.131 -2.71111 1.04628 0
M  V30 2565 H 238.678 -2.01382 1.60634 0
M  V30 2566 H 238.636 -3.1309 0.286685 0
M  V30 2567 N 242.408 -1.52605 -0.393616 0
M  V30 2568 C 243.318 -1.79971 -1.50492 0
M  V30 2569 C 244.334 -0.686181 -1.59899 0
M  V30 2570 O 245.51 -0.973274 -1.76322 0
M  V30 2571 C 242.575 -1.95867 -2.86072 0
M  V30 2572 C 241.636 -3.19781 -2.86424 0
M  V30 2573 C 240.869 -3.34909 -4.15538 0
M  V30 2574 O 241.092 -2.54948 -5.10253 0
M  V30 2575 O 240.026 -4.28141 -4.23059 0
M  V30 2576 H 243.852 -2.74328 -1.30299 0
M  V30 2577 H 241.437 -1.3764 -0.581005 0
M  V30 2578 H 243.319 -2.08056 -3.66457 0
M  V30 2579 H 241.994 -1.04699 -3.063 0
M  V30 2580 H 240.901 -3.13038 -2.04837 0
M  V30 2581 H 242.234 -4.1078 -2.71147 0
M  V30 2582 N 243.887 0.651787 -1.4349 0
M  V30 2583 C 245.298 1.233 -1.40193 0
M  V30 2584 C 245.649 1.9591 -0.106727 0
M  V30 2585 O 244.774 2.01316 0.793773 0
M  V30 2586 C 245.369 2.24257 -2.53957 0
M  V30 2587 C 243.928 2.77852 -2.5392 0
M  V30 2588 C 243.075 1.52517 -2.3159 0
M  V30 2589 H 246.026 0.443717 -1.52371 0
M  V30 2590 H 246.047 3.0646 -2.25528 0
M  V30 2591 H 245.559 1.71382 -3.4821 0
M  V30 2592 H 243.66 3.34786 -1.63551 0
M  V30 2593 H 243.773 3.25299 -3.51735 0
M  V30 2594 H 242.137 1.79915 -1.80285 0
M  V30 2595 H 242.92 1.01574 -3.27929 0
M  V30 2596 N 245.365 1.30045 0.890287 0
M  V30 2597 C 246.313 1.15873 2.01683 0
M  V30 2598 C 247.307 0.0719403 1.69247 0
M  V30 2599 O 248.513 0.232414 1.78493 0
M  V30 2600 H 244.888 0.358203 0.661207 0
M  V30 2601 H 246.859 2.11229 2.10772 0
M  V30 2602 C 245.608 0.861842 3.36849 0
M  V30 2603 H 244.931 1.69016 3.62317 0
M  V30 2604 H 246.371 0.802762 4.16331 0
M  V30 2605 C 244.83 -0.435132 3.34078 0
M  V30 2606 O 245.36 -1.4583 3.74295 0
M  V30 2607 N 243.566 -0.444377 2.87182 0
M  V30 2608 H 243.113 0.388723 2.5465 0
M  V30 2609 H 243.071 -1.31213 2.85711 0
M  V30 2610 N 246.843 -1.10192 1.12674 0
M  V30 2611 C 248.091 -1.81845 0.881861 0
M  V30 2612 C 248.412 -1.85737 -0.593867 0
M  V30 2613 O 247.682 -1.33724 -1.4316 0
M  V30 2614 H 246.262 -0.673432 0.323261 0
M  V30 2615 H 248.924 -1.33316 1.42172 0
M  V30 2616 H 248.02 -2.85288 1.2656 0
M  V30 2617 N 248.321 -0.919034 -1.28029 0
M  V30 2618 C 249.546 -0.570357 -1.99403 0
M  V30 2619 C 249.971 0.842486 -1.68178 0
M  V30 2620 O 249.329 1.56391 -0.917141 0
M  V30 2621 C 249.377 -0.792541 -3.51783 0
M  V30 2622 O 248.481 0.145988 -4.12142 0
M  V30 2623 H 247.822 -0.220555 -0.6263 0
M  V30 2624 H 250.352 -1.23592 -1.63053 0
M  V30 2625 H 250.362 -0.704708 -4.01868 0
M  V30 2626 H 249.037 -1.82247 -3.73844 0
M  V30 2627 H 247.614 0.00897528 -3.72899 0
M  V30 2628 N 249.799 1.42003 -0.683588 0
M  V30 2629 C 251.076 1.95112 -0.138075 0
M  V30 2630 C 251.456 1.62359 1.34918 0
M  V30 2631 O 250.804 0.924311 2.08971 0
M  V30 2632 C 251.014 3.46505 -0.416581 0
M  V30 2633 C 252.362 4.23254 -0.337834 0
M  V30 2634 O 253.386 3.54468 -0.35082 0
M  V30 2635 O 252.245 5.45743 -0.287596 0
M  V30 2636 H 249.339 0.826961 -0.00797996 0
M  V30 2637 H 251.885 1.51784 -0.758924 0
M  V30 2638 H 250.657 3.63582 -1.4465 0
M  V30 2639 H 250.28 3.969 0.235839 0
M  V30 2640 N 251.277 0.427512 1.51691 0
M  V30 2641 C 252.523 -0.142439 2.02299 0
M  V30 2642 C 252.856 -1.43214 1.31162 0
M  V30 2643 O 252.131 -1.89833 0.423511 0
M  V30 2644 C 252.414 -0.371301 3.58181 0
M  V30 2645 C 252.267 0.936358 4.39946 0
M  V30 2646 C 253.586 -1.14542 4.24933 0
M  V30 2647 H 250.705 -0.0502937 0.735282 0
M  V30 2648 H 253.347 0.564584 1.81418 0
M  V30 2649 H 251.497 -0.973559 3.76104 0
M  V30 2650 H 253.169 1.57184 4.33694 0
M  V30 2651 H 251.412 1.5432 4.05423 0
M  V30 2652 H 252.083 0.730388 5.47147 0
M  V30 2653 H 254.559 -0.635362 4.11221 0
M  V30 2654 H 253.435 -1.27431 5.33903 0
M  V30 2655 H 253.696 -2.17093 3.85127 0
M  V30 2656 N 252.755 -1.56801 0.158532 0
M  V30 2657 C 253.983 -2.00859 -0.496303 0
M  V30 2658 C 254.398 -1.03871 -1.57659 0
M  V30 2659 O 253.755 -0.0375165 -1.82461 0
M  V30 2660 C 253.806 -3.4479 -1.08638 0
M  V30 2661 O 253.527 -4.38072 -0.0492322 0
M  V30 2662 C 255.028 -4.04185 -1.8207 0
M  V30 2663 H 252.248 -0.65864 -0.128199 0
M  V30 2664 H 254.792 -2.02885 0.256506 0
M  V30 2665 H 252.947 -3.43579 -1.78975 0
M  V30 2666 H 253.361 -5.2227 -0.483102 0
M  V30 2667 H 254.835 -5.06857 -2.18633 0
M  V30 2668 H 255.312 -3.45549 -2.71095 0
M  V30 2669 H 255.918 -4.0906 -1.16405 0
M  V30 2670 N 254.233 0.115231 -1.57178 0
M  V30 2671 C 255.479 0.818565 -1.86202 0
M  V30 2672 C 255.834 1.77316 -0.746785 0
M  V30 2673 O 255.127 1.89923 0.25291 0
M  V30 2674 C 255.321 1.60324 -3.19423 0
M  V30 2675 C 255.15 0.726138 -4.43799 0
M  V30 2676 C 253.92 0.379535 -5.03873 0
M  V30 2677 C 256.118 0.0420774 -5.14283 0
M  V30 2678 N 254.1 -0.507841 -6.11796 0
M  V30 2679 C 255.471 -0.704152 -6.15988 0
M  V30 2680 C 257.526 -0.0339486 -4.97888 0
M  V30 2681 C 256.229 -1.51927 -7.03072 0
M  V30 2682 C 258.255 -0.835906 -5.85463 0
M  V30 2683 C 257.617 -1.57031 -6.86673 0
M  V30 2684 H 253.716 0.276343 -0.731545 0
M  V30 2685 H 256.3 0.0821032 -1.94527 0
M  V30 2686 H 254.471 2.31072 -3.12186 0
M  V30 2687 H 256.203 2.2522 -3.36241 0
M  V30 2688 H 252.958 0.722634 -4.68054 0
M  V30 2689 H 253.382 -0.94349 -6.70393 0
M  V30 2690 H 258.024 0.519496 -4.19596 0
M  V30 2691 H 255.742 -2.08386 -7.80769 0
M  V30 2692 H 259.328 -0.89714 -5.74841 0
M  V30 2693 H 258.208 -2.18088 -7.53264 0
M  V30 2694 N 255.711 1.52812 0.385517 0
M  V30 2695 C 256.959 1.67694 1.12797 0
M  V30 2696 C 257.28 0.421115 1.90399 0
M  V30 2697 O 256.55 -0.564551 1.87589 0
M  V30 2698 H 255.13 0.618155 0.419396 0
M  V30 2699 H 257.792 1.89938 0.436972 0
M  V30 2700 H 256.888 2.52896 1.82894 0
M  V30 2701 N 257.189 -0.644168 1.43834 0
M  V30 2702 C 258.137 -1.77793 1.49974 0
M  V30 2703 C 259.131 -1.65253 0.372536 0
M  V30 2704 O 260.337 -1.7149 0.546924 0
M  V30 2705 H 256.712 -0.58675 0.47035 0
M  V30 2706 H 258.683 -1.69736 2.45423 0
M  V30 2707 C 257.432 -3.16087 1.4486 0
M  V30 2708 H 256.755 -3.26378 2.30905 0
M  V30 2709 H 258.195 -3.95349 1.53217 0
M  V30 2710 C 256.654 -3.36484 0.167463 0
M  V30 2711 O 257.184 -3.94298 -0.767609 0
M  V30 2712 N 255.39 -2.90504 0.0747556 0
M  V30 2713 H 254.937 -2.4364 0.836507 0
M  V30 2714 H 254.895 -3.04527 -0.781714 0
M  V30 2715 N 258.668 -1.30515 -0.883378 0
M  V30 2716 C 259.6 -1.12846 -1.99496 0
M  V30 2717 C 260.613 -0.0712571 -1.62644 0
M  V30 2718 O 261.802 -0.317432 -1.75655 0
M  V30 2719 C 258.902 -0.699123 -3.3161 0
M  V30 2720 C 258.075 -1.83842 -3.96889 0
M  V30 2721 C 257.134 -1.39737 -5.07307 0
M  V30 2722 O 256.16 -2.10485 -5.28852 0
M  V30 2723 N 257.362 -0.277279 -5.79837 0
M  V30 2724 H 260.127 -2.08585 -2.15203 0
M  V30 2725 H 257.688 -1.22672 -1.05656 0
M  V30 2726 H 259.68 -0.387044 -4.02845 0
M  V30 2727 H 258.25 0.166276 -3.12157 0
M  V30 2728 H 257.47 -2.31853 -3.18807 0
M  V30 2729 H 258.758 -2.60187 -4.37241 0
M  V30 2730 H 258.156 0.3122 -5.64838 0
M  V30 2731 H 256.713 -0.0246623 -6.51795 0
M  V30 2732 N 260.146 1.09593 -1.13257 0
M  V30 2733 C 261.395 1.81105 -0.887917 0
M  V30 2734 C 261.708 1.86563 0.587672 0
M  V30 2735 O 262.914 2.54367 0.949204 0
M  V30 2736 C 261.37 3.25338 -1.53895 0
M  V30 2737 C 260.978 3.28151 -3.04994 0
M  V30 2738 C 262.722 4.01617 -1.37492 0
M  V30 2739 C 260.629 4.66897 -3.6299 0
M  V30 2740 H 259.559 0.678661 -0.328534 0
M  V30 2741 H 262.21 1.23183 -1.36008 0
M  V30 2742 H 260.592 3.8331 -0.994446 0
M  V30 2743 H 261.766 2.79953 -3.66009 0
M  V30 2744 H 260.081 2.65361 -3.20893 0
M  V30 2745 H 262.678 5.04119 -1.78235 0
M  V30 2746 H 263.021 4.15072 -0.31957 0
M  V30 2747 H 263.554 3.50082 -1.88912 0
M  V30 2748 H 260.293 4.58643 -4.68323 0
M  V30 2749 H 259.813 5.15426 -3.06752 0
M  V30 2750 H 261.492 5.3587 -3.62563 0
M  V30 2751 N 261.624 0.925811 1.2754 0
M  V30 2752 C 262.571 0.422045 2.26908 0
M  V30 2753 C 263.541 -0.510029 1.58076 0
M  V30 2754 O 264.726 -0.429599 1.85901 0
M  V30 2755 C 261.866 -0.320837 3.43605 0
M  V30 2756 C 260.979 0.64513 4.27156 0
M  V30 2757 C 260.114 -0.117405 5.3107 0
M  V30 2758 C 259.153 0.841391 6.0629 0
M  V30 2759 N 258.29 0.111604 7.02011 0
M  V30 2760 H 263.13 1.27441 2.69375 0
M  V30 2761 H 260.667 0.639697 1.32462 0
M  V30 2762 H 262.625 -0.76785 4.10073 0
M  V30 2763 H 261.255 -1.13745 3.02096 0
M  V30 2764 H 260.307 1.21067 3.6062 0
M  V30 2765 H 261.619 1.37797 4.79389 0
M  V30 2766 H 260.773 -0.624422 6.03478 0
M  V30 2767 H 259.512 -0.883219 4.79636 0
M  V30 2768 H 258.517 1.35967 5.32722 0
M  V30 2769 H 259.742 1.60696 6.59813 0
M  V30 2770 H 257.688 -0.635999 6.5291 0
M  V30 2771 H 257.605 0.784044 7.51923 0
M  V30 2772 H 258.873 -0.374823 7.78598 0
M  V30 2773 N 263.102 -1.41638 0.69111 0
M  V30 2774 C 264.513 -1.84346 0.295517 0
M  V30 2775 C 264.864 -1.57833 -1.16547 0
M  V30 2776 O 263.989 -1.04648 -1.89414 0
M  V30 2777 C 264.584 -3.34636 0.529575 0
M  V30 2778 C 263.143 -3.7593 0.187944 0
M  V30 2779 C 262.29 -2.65082 0.814052 0
M  V30 2780 H 265.241 -1.31253 0.892092 0
M  V30 2781 H 265.262 -3.79903 -0.213148 0
M  V30 2782 H 264.774 -3.53901 1.59297 0
M  V30 2783 H 262.875 -3.62268 -0.871367 0
M  V30 2784 H 262.988 -4.74808 0.63985 0
M  V30 2785 H 261.352 -2.53528 0.244017 0
M  V30 2786 H 262.135 -2.87167 1.88123 0
M  V30 2787 N 264.58 -0.43555 -1.51462 0
M  V30 2788 C 265.81 0.130053 -2.0619 0
M  V30 2789 C 266.218 1.37164 -1.30317 0
M  V30 2790 O 265.561 1.80225 -0.355598 0
M  V30 2791 C 265.623 0.519418 -3.55728 0
M  V30 2792 C 265.287 -0.615119 -4.52841 0
M  V30 2793 C 266.284 -1.48671 -4.9819 0
M  V30 2794 C 263.969 -0.795341 -4.95963 0
M  V30 2795 C 265.963 -2.52324 -5.8533 0
M  V30 2796 C 263.65 -1.83514 -5.82894 0
M  V30 2797 C 264.648 -2.69748 -6.27475 0
M  V30 2798 O 264.336 -3.71944 -7.1268 0
M  V30 2799 H 264.068 0.0121612 -0.675891 0
M  V30 2800 H 266.622 -0.6129 -1.96043 0
M  V30 2801 H 264.852 1.31505 -3.63653 0
M  V30 2802 H 266.541 1.01597 -3.92979 0
M  V30 2803 H 267.307 -1.359 -4.65571 0
M  V30 2804 H 263.186 -0.133713 -4.60806 0
M  V30 2805 H 266.73 -3.19665 -6.20048 0
M  V30 2806 H 262.627 -1.96306 -6.14926 0
M  V30 2807 H 263.395 -3.68503 -7.30854 0
M  V30 2808 N 266.058 1.56714 -0.166846 0
M  V30 2809 C 267.021 2.16539 0.751232 0
M  V30 2810 C 268.021 1.11228 1.16125 0
M  V30 2811 O 269.211 1.36765 1.07894 0
M  V30 2812 C 266.343 2.74462 2.02196 0
M  V30 2813 H 267.536 2.99013 0.230499 0
M  V30 2814 H 265.089 1.56081 0.0826982 0
M  V30 2815 H 265.824 1.95709 2.58589 0
M  V30 2816 H 265.609 3.51527 1.73698 0
M  V30 2817 H 267.099 3.20489 2.67725 0
M  V30 2818 N 267.536 -0.106894 1.57237 0
M  V30 2819 C 268.446 -1.14911 2.0453 0
M  V30 2820 C 269.462 -1.44592 0.96795 0
M  V30 2821 O 270.638 -1.55468 1.2803 0
M  V30 2822 C 267.703 -2.45272 2.45036 0
M  V30 2823 C 266.764 -2.22879 3.66911 0
M  V30 2824 C 265.997 -3.47024 4.05475 0
M  V30 2825 O 266.22 -4.54804 3.44252 0
M  V30 2826 O 265.154 -3.3731 4.98504 0
M  V30 2827 H 268.98 -0.777461 2.9358 0
M  V30 2828 H 266.565 -0.318563 1.45964 0
M  V30 2829 H 268.447 -3.22055 2.71769 0
M  V30 2830 H 267.122 -2.81886 1.59129 0
M  V30 2831 H 266.029 -1.43915 3.45311 0
M  V30 2832 H 267.362 -1.91163 4.53561 0
M  V30 2833 N 269.014 -1.53014 -0.377408 0
M  V30 2834 C 269.924 -1.81557 -1.48574 0
M  V30 2835 C 270.94 -0.703102 -1.59162 0
M  V30 2836 O 272.116 -0.99192 -1.75279 0
M  V30 2837 C 269.181 -1.9889 -2.83978 0
M  V30 2838 C 268.242 -3.22801 -2.83016 0
M  V30 2839 C 267.475 -3.39298 -4.11962 0
M  V30 2840 O 267.698 -2.60345 -5.0752 0
M  V30 2841 O 266.632 -4.32604 -4.18494 0
M  V30 2842 H 270.458 -2.75695 -1.27382 0
M  V30 2843 H 268.043 -1.38248 -0.566373 0
M  V30 2844 H 269.925 -2.11931 -3.6423 0
M  V30 2845 H 268.6 -1.07942 -3.05172 0
M  V30 2846 H 267.507 -3.15193 -2.01505 0
M  V30 2847 H 268.84 -4.13632 -2.66775 0
M  V30 2848 N 270.492 0.636531 -1.44174 0
M  V30 2849 C 271.738 1.39826 -1.4689 0
M  V30 2850 C 272.071 1.93947 -0.0990585 0
M  V30 2851 O 271.346 1.73325 0.882544 0
M  V30 2852 C 271.629 2.56751 -2.5249 0
M  V30 2853 C 271.482 2.08014 -3.98811 0
M  V30 2854 C 272.801 3.58946 -2.54649 0
M  V30 2855 H 269.92 0.507075 -0.53483 0
M  V30 2856 H 272.562 0.720188 -1.75822 0
M  V30 2857 H 270.712 3.14597 -2.2795 0
M  V30 2858 H 272.384 1.5504 -4.34466 0
M  V30 2859 H 270.627 1.39242 -4.10846 0
M  V30 2860 H 271.298 2.92169 -4.68339 0
M  V30 2861 H 273.774 3.1089 -2.76563 0
M  V30 2862 H 272.65 4.38286 -3.3045 0
M  V30 2863 H 272.911 4.12655 -1.58646 0
M  V30 2864 N 271.97 1.30982 0.876444 0
M  V30 2865 C 273.219 1.19658 1.62373 0
M  V30 2866 C 273.532 -0.245636 1.94052 0
M  V30 2867 O 274.738 -0.48049 2.67214 0
M  V30 2868 C 273.194 2.09433 2.92687 0
M  V30 2869 C 272.802 3.58613 2.68516 0
M  V30 2870 C 274.546 2.06893 3.70669 0
M  V30 2871 C 272.453 4.40416 3.94699 0
M  V30 2872 H 271.383 0.444268 0.609214 0
M  V30 2873 H 274.034 1.55791 0.969605 0
M  V30 2874 H 272.416 1.66191 3.59439 0
M  V30 2875 H 273.59 4.10058 2.10212 0
M  V30 2876 H 271.905 3.63063 2.03898 0
M  V30 2877 H 274.502 2.65258 4.64265 0
M  V30 2878 H 274.845 1.05448 4.02724 0
M  V30 2879 H 275.378 2.48301 3.10792 0
M  V30 2880 H 272.117 5.42591 3.67798 0
M  V30 2881 H 271.637 3.93731 4.52477 0
M  V30 2882 H 273.316 4.52294 4.62644 0
M  V30 2883 N 273.449 -1.08991 1.13837 0
M  V30 2884 C 274.86 -1.62746 0.914917 0
M  V30 2885 C 275.211 -1.88403 -0.547594 0
M  V30 2886 O 274.336 -1.63706 -1.41525 0
M  V30 2887 C 274.931 -2.95662 1.65437 0
M  V30 2888 C 273.49 -3.46225 1.47666 0
M  V30 2889 C 272.637 -2.20562 1.6807 0
M  V30 2890 H 275.588 -0.922946 1.29102 0
M  V30 2891 H 275.609 -3.63825 1.11407 0
M  V30 2892 H 275.121 -2.76956 2.71877 0
M  V30 2893 H 273.222 -3.70046 0.435478 0
M  V30 2894 H 273.335 -4.23368 2.24268 0
M  V30 2895 H 271.699 -2.29439 1.10589 0
M  V30 2896 H 272.482 -2.0437 2.7584 0
M  V30 2897 N 274.927 -0.932562 -1.27047 0
M  V30 2898 C 276.176 -0.571351 -1.93439 0
M  V30 2899 C 276.489 0.892467 -1.74053 0
M  V30 2900 O 277.695 1.36267 -2.34826 0
M  V30 2901 C 276.151 -0.97106 -3.46552 0
M  V30 2902 C 275.759 -2.4559 -3.74686 0
M  V30 2903 C 277.503 -0.681333 -4.18997 0
M  V30 2904 C 275.41 -2.79475 -5.21198 0
M  V30 2905 H 274.34 -0.209966 -0.724176 0
M  V30 2906 H 276.991 -1.13403 -1.44263 0
M  V30 2907 H 275.373 -0.336983 -3.94564 0
M  V30 2908 H 276.547 -3.13829 -3.37414 0
M  V30 2909 H 274.862 -2.71802 -3.15456 0
M  V30 2910 H 277.459 -0.910939 -5.26883 0
M  V30 2911 H 277.802 0.381628 -4.14547 0
M  V30 2912 H 278.335 -1.27473 -3.76823 0
M  V30 2913 H 275.074 -3.847 -5.30741 0
M  V30 2914 H 274.594 -2.1589 -5.596 0
M  V30 2915 H 276.273 -2.67478 -5.89122 0
M  V30 2916 N 276.405 1.4127 -0.698611 0
M  V30 2917 C 277.654 2.00408 -0.227949 0
M  V30 2918 C 277.967 1.55981 1.18023 0
M  V30 2919 O 279.173 2.07699 1.74852 0
M  V30 2920 C 277.629 3.58129 -0.356636 0
M  V30 2921 C 277.237 4.11536 -1.77037 0
M  V30 2922 C 278.981 4.24466 0.0540969 0
M  V30 2923 C 276.888 5.61701 -1.85055 0
M  V30 2924 H 275.818 0.749586 -0.0814657 0
M  V30 2925 H 278.469 1.61713 -0.867249 0
M  V30 2926 H 276.851 3.94442 0.350965 0
M  V30 2927 H 278.025 3.86636 -2.50698 0
M  V30 2928 H 276.34 3.57736 -2.13105 0
M  V30 2929 H 278.937 5.34698 0.0146723 0
M  V30 2930 H 279.28 4.01687 1.09332 0
M  V30 2931 H 279.813 3.93198 -0.603337 0
M  V30 2932 H 276.552 5.89312 -2.8704 0
M  V30 2933 H 276.072 5.88519 -1.15783 0
M  V30 2934 H 277.751 6.26524 -1.61484 0
M  V30 2935 N 277.883 0.443576 1.51229 0
M  V30 2936 C 279.299 0.0962001 1.5931 0
M  V30 2937 C 279.499 -1.39501 1.45402 0
M  V30 2938 O 278.555 -2.16557 1.29843 0
M  V30 2939 C 279.868 0.621875 2.94199 0
M  V30 2940 C 281.416 0.582865 3.07525 0
M  V30 2941 C 281.891 1.08562 4.44948 0
M  V30 2942 N 283.382 1.04387 4.51284 0
M  V30 2943 C 284.117 1.40368 5.55954 0
M  V30 2944 N 283.613 1.83664 6.68011 0
M  V30 2945 N 285.406 1.32145 5.46346 0
M  V30 2946 H 277.557 1.41376 1.58514 0
M  V30 2947 H 279.82 0.582965 0.747567 0
M  V30 2948 H 279.526 1.66546 3.09767 0
M  V30 2949 H 279.4 0.0502125 3.77167 0
M  V30 2950 H 281.787 -0.451749 2.91622 0
M  V30 2951 H 281.868 1.191 2.26382 0
M  V30 2952 H 281.512 2.11873 4.61598 0
M  V30 2953 H 281.442 0.453956 5.2464 0
M  V30 2954 H 283.933 0.725986 3.70861 0
M  V30 2955 H 284.246 2.0934 7.43906 0
M  V30 2956 H 282.591 1.87596 6.69203 0
M  V30 2957 H 285.782 0.981808 4.57688 0
M  V30 2958 H 285.955 1.60514 6.27805 0
M  V30 2959 N 279.361 -1.56624 0.175154 0
M  V30 2960 C 280.309 -2.19468 -0.770495 0
M  V30 2961 C 281.303 -1.15985 -1.23466 0
M  V30 2962 O 282.509 -1.34176 -1.19987 0
M  V30 2963 H 278.884 -0.703095 -0.266761 0
M  V30 2964 H 280.855 -2.97613 -0.216542 0
M  V30 2965 C 279.604 -2.85264 -1.98796 0
M  V30 2966 H 278.927 -3.64623 -1.63983 0
M  V30 2967 H 280.367 -3.327 -2.62843 0
M  V30 2968 C 278.826 -1.85239 -2.81404 0
M  V30 2969 O 279.356 -1.34024 -3.78682 0
M  V30 2970 N 277.562 -1.53911 -2.46495 0
M  V30 2971 H 277.109 -1.95751 -1.67449 0
M  V30 2972 H 277.067 -0.872382 -3.02054 0
M  V30 2973 N 280.839 0.0985539 -1.57292 0
M  V30 2974 C 281.787 1.1387 -2.02821 0
M  V30 2975 C 282.781 1.41676 -0.928666 0
M  V30 2976 O 283.987 1.41398 -1.11385 0
M  V30 2977 H 280.362 0.384419 -0.646317 0
M  V30 2978 H 282.333 0.728347 -2.89375 0
M  V30 2979 C 281.082 2.45166 -2.46554 0
M  V30 2980 H 280.405 2.24613 -3.3074 0
M  V30 2981 H 281.845 3.16456 -2.8219 0
M  V30 2982 C 280.304 3.09216 -1.33742 0
M  V30 2983 O 280.834 3.96163 -0.66464 0
M  V30 2984 N 279.04 2.69413 -1.08928 0
M  V30 2985 H 278.587 1.98801 -1.63817 0
M  V30 2986 H 278.545 3.12594 -0.336458 0
M  V30 2987 N 282.317 1.53212 0.369288 0
M  V30 2988 C 283.594 1.59815 1.12776 0
M  V30 2989 C 283.974 0.403402 2.0721 0
M  V30 2990 O 283.322 -0.606667 2.20299 0
M  V30 2991 C 283.532 2.94664 1.87013 0
M  V30 2992 C 284.88 3.49109 2.41677 0
M  V30 2993 O 285.904 2.96669 1.97144 0
M  V30 2994 O 284.763 4.40775 3.23079 0
M  V30 2995 H 281.857 0.645376 0.517125 0
M  V30 2996 H 284.403 1.65553 0.37285 0
M  V30 2997 H 283.175 3.73061 1.18071 0
M  V30 2998 H 282.798 2.92401 2.69421 0
M  V30 2999 N 283.795 -0.628877 1.44509 0
M  V30 3000 C 285.206 -1.21054 1.42137 0
M  V30 3001 C 285.557 -1.95715 0.137881 0
M  V30 3002 O 284.682 -2.02554 -0.761645 0
M  V30 3003 C 285.277 -2.20189 2.57493 0
M  V30 3004 C 283.836 -2.73777 2.58308 0
M  V30 3005 C 282.983 -1.48813 2.33987 0
M  V30 3006 H 285.934 -0.41942 1.53057 0
M  V30 3007 H 285.955 -3.02833 2.30375 0
M  V30 3008 H 285.467 -1.6582 3.50892 0
M  V30 3009 H 283.568 -3.32142 1.68856 0
M  V30 3010 H 283.681 -3.19662 3.56865 0
M  V30 3011 H 282.045 -1.77024 1.83124 0
M  V30 3012 H 282.828 -0.963442 3.29504 0
M  V30 3013 N 285.273 -1.31445 -0.869486 0
M  V30 3014 C 286.221 -1.19067 -1.99814 0
M  V30 3015 C 287.215 -0.0988569 -1.69111 0
M  V30 3016 O 288.421 -0.260781 -1.78101 0
M  V30 3017 H 284.796 -0.368677 -0.655425 0
M  V30 3018 H 286.767 -2.14555 -2.07385 0
M  V30 3019 C 285.516 -0.915323 -3.35436 0
M  V30 3020 H 284.839 -1.74759 -3.59582 0
M  V30 3021 H 286.279 -0.868895 -4.15001 0
M  V30 3022 C 284.738 0.381928 -3.34728 0
M  V30 3023 O 285.268 1.39857 -3.76567 0
M  V30 3024 N 283.474 0.398633 -2.87853 0
M  V30 3025 H 283.021 -0.429186 -2.54 0
M  V30 3026 H 282.979 1.26651 -2.87762 0
M  V30 3027 N 286.751 1.08385 -1.14413 0
M  V30 3028 C 287.699 2.17406 -0.826888 0
M  V30 3029 C 288.693 1.6827 0.195312 0
M  V30 3030 O 289.899 1.79927 0.0513892 0
M  V30 3031 H 286.274 0.70934 -0.249681 0
M  V30 3032 H 288.245 2.41388 -1.75426 0
M  V30 3033 C 286.994 3.46215 -0.320979 0
M  V30 3034 H 286.317 3.84401 -1.0989 0
M  V30 3035 H 287.757 4.23777 -0.137549 0
M  V30 3036 C 286.216 3.23067 0.955472 0
M  V30 3037 O 286.746 3.4668 2.02918 0
M  V30 3038 N 284.952 2.7661 0.890798 0
M  V30 3039 H 284.499 2.57594 0.0168815 0
M  V30 3040 H 284.457 2.61501 1.74542 0
M  V30 3041 N 288.23 0.939286 1.26551 0
M  V30 3042 C 289.479 0.581601 1.93133 0
M  V30 3043 C 289.792 -0.883224 1.74524 0
M  V30 3044 O 290.998 -1.3502 2.35546 0
M  V30 3045 C 289.454 0.989425 3.46032 0
M  V30 3046 C 289.062 2.47573 3.73379 0
M  V30 3047 C 290.806 0.703544 4.18629 0
M  V30 3048 C 288.713 2.82235 5.19709 0
M  V30 3049 H 287.643 0.213803 0.723052 0
M  V30 3050 H 290.294 1.14167 1.4366 0
M  V30 3051 H 288.676 0.357902 3.94379 0
M  V30 3052 H 289.85 3.15614 3.35744 0
M  V30 3053 H 288.165 2.73471 3.1401 0
M  V30 3054 H 290.762 0.938869 5.26393 0
M  V30 3055 H 291.105 -0.359639 4.14744 0
M  V30 3056 H 291.638 1.2947 3.76141 0
M  V30 3057 H 288.377 3.87509 5.28694 0
M  V30 3058 H 287.897 2.18854 5.58447 0
M  V30 3059 H 289.576 2.70599 5.87695 0
M  V30 3060 N 289.708 -1.40897 0.706093 0
M  V30 3061 C 290.957 -2.00284 0.238574 0
M  V30 3062 C 291.27 -1.56604 -1.17194 0
M  V30 3063 O 292.476 -2.08624 -1.73748 0
M  V30 3064 C 290.932 -3.57934 0.375623 0
M  V30 3065 C 290.54 -4.10591 1.79217 0
M  V30 3066 C 292.284 -4.24488 -0.0315857 0
M  V30 3067 C 290.191 -5.60712 1.88032 0
M  V30 3068 H 289.121 -0.749144 0.0854398 0
M  V30 3069 H 291.772 -1.61251 0.875813 0
M  V30 3070 H 290.154 -3.94622 -0.330042 0
M  V30 3071 H 291.328 -3.85301 2.52745 0
M  V30 3072 H 289.643 -3.56601 2.15 0
M  V30 3073 H 292.24 -5.34698 0.0136842 0
M  V30 3074 H 292.583 -4.02261 -1.072 0
M  V30 3075 H 293.116 -3.92873 0.624181 0
M  V30 3076 H 289.855 -5.87781 2.90161 0
M  V30 3077 H 289.375 -5.87896 1.18903 0
M  V30 3078 H 291.054 -6.25658 1.64805 0
M  V30 3079 N 291.186 -0.45159 -1.50991 0
M  V30 3080 C 292.435 0.111653 -2.01391 0
M  V30 3081 C 292.748 1.42529 -1.33959 0
M  V30 3082 O 293.954 2.07232 -1.75405 0
M  V30 3083 C 292.41 0.249514 -3.59034 0
M  V30 3084 C 292.018 -1.05453 -4.35412 0
M  V30 3085 C 293.762 0.765762 -4.17536 0
M  V30 3086 C 291.669 -0.881529 -5.84793 0
M  V30 3087 H 290.599 0.0455022 -0.752626 0
M  V30 3088 H 293.25 -0.583524 -1.73975 0
M  V30 3089 H 291.632 1.00803 -3.82955 0
M  V30 3090 H 292.806 -1.82248 -4.23229 0
M  V30 3091 H 291.121 -1.50039 -3.88429 0
M  V30 3092 H 293.718 0.911913 -5.26866 0
M  V30 3093 H 294.061 1.75201 -3.77638 0
M  V30 3094 H 294.594 0.0651744 -3.97747 0
M  V30 3095 H 291.333 -1.84057 -6.29129 0
M  V30 3096 H 290.853 -0.153625 -5.99603 0
M  V30 3097 H 292.532 -0.540363 -6.4474 0
M  V30 3098 N 292.664 1.56529 -0.183458 0
M  V30 3099 C 293.91 1.97537 0.459036 0
M  V30 3100 C 294.243 1.06989 1.62071 0
M  V30 3101 O 293.518 0.11948 1.94133 0
M  V30 3102 C 293.801 3.47874 0.930368 0
M  V30 3103 C 293.654 4.492 -0.232317 0
M  V30 3104 C 294.973 4.01612 1.79989 0
M  V30 3105 H 292.092 0.718204 0.165383 0
M  V30 3106 H 294.734 1.88042 -0.272038 0
M  V30 3107 H 292.884 3.56095 1.55333 0
M  V30 3108 H 294.556 4.53027 -0.86972 0
M  V30 3109 H 292.799 4.24657 -0.885928 0
M  V30 3110 H 293.47 5.51823 0.139796 0
M  V30 3111 H 295.946 3.96097 1.27461 0
M  V30 3112 H 294.822 5.07195 2.09867 0
M  V30 3113 H 295.083 3.46163 2.74998 0
M  V30 3114 N 294.142 -0.090211 1.57342 0
M  V30 3115 C 295.39 -0.791241 1.85967 0
M  V30 3116 C 295.711 -1.7903 0.772859 0
M  V30 3117 O 294.981 -1.94872 -0.200398 0
M  V30 3118 H 293.561 -0.295205 0.686195 0
M  V30 3119 H 296.223 -0.0706782 1.94772 0
M  V30 3120 H 295.319 -1.31882 2.82867 0
M  V30 3121 N 295.62 -1.53406 -0.361157 0
M  V30 3122 C 296.848 -1.73717 -1.12383 0
M  V30 3123 C 297.263 -0.468161 -1.82904 0
M  V30 3124 O 296.62 0.559198 -1.73722 0
M  V30 3125 C 296.671 -2.90558 -2.15078 0
M  V30 3126 O 296.392 -4.12549 -1.47428 0
M  V30 3127 C 297.893 -3.22777 -3.03858 0
M  V30 3128 H 295.113 -0.580896 -0.335858 0
M  V30 3129 H 297.657 -2.00167 -0.418728 0
M  V30 3130 H 295.812 -2.66489 -2.8118 0
M  V30 3131 H 296.226 -4.78009 -2.15887 0
M  V30 3132 H 297.7 -4.07927 -3.71887 0
M  V30 3133 H 298.177 -2.38329 -3.68912 0
M  V30 3134 H 298.783 -3.48787 -2.43367 0
M  V30 3135 N 297.098 0.621204 -1.44841 0
M  V30 3136 C 298.346 1.37783 -1.47852 0
M  V30 3137 C 298.667 1.94653 -0.116224 0
M  V30 3138 O 297.937 1.76367 0.852737 0
M  V30 3139 H 296.517 0.511453 -0.544449 0
M  V30 3140 H 299.179 0.730446 -1.80694 0
M  V30 3141 H 298.275 2.20414 -2.20961 0
M  V30 3142 N 298.576 1.31904 0.862503 0
M  V30 3143 C 299.804 1.24998 1.64873 0
M  V30 3144 C 300.219 -0.183425 1.87907 0
M  V30 3145 O 299.576 -1.11794 1.44251 0
M  V30 3146 C 299.627 1.99829 3.01248 0
M  V30 3147 O 299.348 3.37575 2.79239 0
M  V30 3148 C 300.849 1.99852 3.95694 0
M  V30 3149 H 298.069 0.431599 0.513773 0
M  V30 3150 H 300.613 1.73901 1.07604 0
M  V30 3151 H 298.768 1.54668 3.55185 0
M  V30 3152 H 299.182 3.75776 3.65914 0
M  V30 3153 H 300.656 2.56709 4.88676 0
M  V30 3154 H 301.133 0.982852 4.28062 0
M  V30 3155 H 301.739 2.44926 3.47694 0
M  V30 3156 N 300.054 -1.07777 1.14986 0
M  V30 3157 C 301.3 -1.80719 0.93339 0
M  V30 3158 C 301.655 -1.8484 -0.534019 0
M  V30 3159 O 300.948 -1.31795 -1.3907 0
M  V30 3160 C 301.142 -3.25495 1.47608 0
M  V30 3161 C 300.971 -3.3548 2.99472 0
M  V30 3162 C 299.741 -3.46293 3.6798 0
M  V30 3163 C 301.939 -3.26596 3.97291 0
M  V30 3164 N 299.921 -3.45136 5.07695 0
M  V30 3165 C 301.292 -3.32506 5.23297 0
M  V30 3166 C 303.347 -3.10376 3.89321 0
M  V30 3167 C 302.05 -3.23866 6.42264 0
M  V30 3168 C 304.076 -3.03069 5.07842 0
M  V30 3169 C 303.438 -3.09587 6.32721 0
M  V30 3170 H 299.537 -0.674814 0.395158 0
M  V30 3171 H 302.121 -1.28681 1.46114 0
M  V30 3172 H 300.292 -3.75963 0.975022 0
M  V30 3173 H 302.024 -3.86535 1.19887 0
M  V30 3174 H 298.779 -3.50456 3.18555 0
M  V30 3175 H 299.203 -3.48097 5.80653 0
M  V30 3176 H 303.845 -3.04194 2.93642 0
M  V30 3177 H 301.563 -3.28807 7.38181 0
M  V30 3178 H 305.149 -2.91629 5.03432 0
M  V30 3179 H 304.029 -3.0397 7.22891 0
M  V30 3180 N 301.532 -0.945985 -1.26051 0
M  V30 3181 C 302.757 -0.612525 -1.98149 0
M  V30 3182 C 303.182 0.806623 -1.69927 0
M  V30 3183 O 302.54 1.54411 -0.950108 0
M  V30 3184 C 302.588 -0.866981 -3.50023 0
M  V30 3185 O 301.692 0.0585333 -4.12358 0
M  V30 3186 H 301.033 -0.23379 -0.621481 0
M  V30 3187 H 303.563 -1.27023 -1.60395 0
M  V30 3188 H 303.573 -0.789792 -4.00283 0
M  V30 3189 H 302.248 -1.90135 -3.69894 0
M  V30 3190 H 300.825 -0.0701241 -3.72834 0
M  V30 3191 N 303.011 1.40521 -0.713556 0
M  V30 3192 C 303.943 2.29191 -0.0203126 0
M  V30 3193 C 304.956 1.45723 0.725864 0
M  V30 3194 O 306.145 1.69033 0.573581 0
M  V30 3195 C 303.245 3.2395 0.995486 0
M  V30 3196 C 302.418 4.36262 0.315256 0
M  V30 3197 C 301.477 5.11474 1.23616 0
M  V30 3198 O 300.503 5.64606 0.721719 0
M  V30 3199 N 301.705 5.20638 2.56743 0
M  V30 3200 H 304.47 2.89327 -0.781652 0
M  V30 3201 H 302.031 1.51869 -0.561022 0
M  V30 3202 H 304.023 3.71137 1.61368 0
M  V30 3203 H 302.593 2.64995 1.6582 0
M  V30 3204 H 301.813 3.91228 -0.483106 0
M  V30 3205 H 303.101 5.08558 -0.157004 0
M  V30 3206 H 302.499 4.7895 3.01037 0
M  V30 3207 H 301.056 5.71339 3.13712 0
M  V30 3208 N 304.489 0.459591 1.5075 0
M  V30 3209 C 305.766 -0.160371 1.94941 0
M  V30 3210 C 306.146 -1.58048 1.39943 0
M  V30 3211 O 305.494 -2.206 0.595629 0
M  V30 3212 C 305.704 -0.115432 3.48809 0
M  V30 3213 C 307.052 -0.310026 4.23467 0
M  V30 3214 O 308.076 -0.192543 3.55679 0
M  V30 3215 O 306.935 -0.546031 5.43765 0
M  V30 3216 H 304.029 -0.117925 0.818549 0
M  V30 3217 H 306.575 0.519169 1.61563 0
M  V30 3218 H 305.347 0.87652 3.81357 0
M  V30 3219 H 304.97 -0.836928 3.88692 0
M  V30 3220 N 305.967 -1.56429 0.191757 0
M  V30 3221 C 307.213 -1.97777 -0.448554 0
M  V30 3222 C 307.546 -1.07847 -1.61501 0
M  V30 3223 O 306.821 -0.129774 -1.94067 0
M  V30 3224 C 307.104 -3.48362 -0.911906 0
M  V30 3225 C 306.957 -4.4907 0.256136 0
M  V30 3226 C 308.276 -4.02561 -1.77857 0
M  V30 3227 H 305.395 -0.719071 -0.161572 0
M  V30 3228 H 308.037 -1.87896 0.282007 0
M  V30 3229 H 306.187 -3.56914 -1.53442 0
M  V30 3230 H 307.859 -4.5256 0.893733 0
M  V30 3231 H 306.102 -4.24181 0.908436 0
M  V30 3232 H 306.773 -5.51889 -0.11053 0
M  V30 3233 H 309.249 -3.96767 -1.25359 0
M  V30 3234 H 308.125 -5.08301 -2.07174 0
M  V30 3235 H 308.386 -3.47616 -2.73158 0
M  V30 3236 N 307.445 0.0818655 -1.57387 0
M  V30 3237 C 308.395 1.10501 -1.99433 0
M  V30 3238 C 309.379 1.35041 -0.874798 0
M  V30 3239 O 310.571 1.35511 -1.13868 0
M  V30 3240 C 307.7 2.42159 -2.43339 0
M  V30 3241 C 306.786 2.20937 -3.62005 0
M  V30 3242 N 307.177 1.69616 -4.76512 0
M  V30 3243 C 305.475 2.51451 -3.68359 0
M  V30 3244 C 306.176 1.62973 -5.58404 0
M  V30 3245 N 305.152 2.08664 -5.01956 0
M  V30 3246 H 308.954 0.701373 -2.85408 0
M  V30 3247 H 306.468 0.289096 -1.59806 0
M  V30 3248 H 308.465 3.16208 -2.71695 0
M  V30 3249 H 307.125 2.83249 -1.58746 0
M  V30 3250 H 308.136 1.38624 -4.99003 0
M  V30 3251 H 304.813 2.95975 -2.94457 0
M  V30 3252 H 306.203 1.24233 -6.60315 0
M  V30 3253 N 308.923 1.53595 0.353017 0
M  V30 3254 C 309.873 1.77299 1.43349 0
M  V30 3255 C 310.857 0.627884 1.48143 0
M  V30 3256 O 312.049 0.88697 1.53173 0
M  V30 3257 C 309.178 1.97757 2.80619 0
M  V30 3258 C 308.264 3.18305 2.80254 0
M  V30 3259 N 308.655 4.39967 2.49526 0
M  V30 3260 C 306.953 3.19283 3.11407 0
M  V30 3261 C 307.654 5.21772 2.57156 0
M  V30 3262 N 306.63 4.58269 2.92388 0
M  V30 3263 H 310.432 2.68963 1.18474 0
M  V30 3264 H 307.946 1.52391 0.561306 0
M  V30 3265 H 309.943 2.1287 3.58458 0
M  V30 3266 H 308.603 1.07329 3.06448 0
M  V30 3267 H 309.614 4.67482 2.22893 0
M  V30 3268 H 306.291 2.3879 3.4247 0
M  V30 3269 H 307.681 6.2885 2.36638 0
M  V30 3270 N 310.401 -0.613514 1.45168 0
M  V30 3271 C 311.364 -1.7065 1.53007 0
M  V30 3272 C 312.364 -1.5548 0.410184 0
M  V30 3273 O 313.554 -1.60656 0.673455 0
M  V30 3274 C 310.686 -3.09875 1.42093 0
M  V30 3275 H 311.879 -1.65068 2.50385 0
M  V30 3276 H 309.432 -0.828728 1.32521 0
M  V30 3277 H 310.167 -3.21039 0.458769 0
M  V30 3278 H 309.952 -3.22293 2.23315 0
M  V30 3279 H 311.442 -3.895 1.50598 0
M  V30 3280 N 311.879 -1.3236 -0.855495 0
M  V30 3281 C 312.842 -1.21164 -1.94556 0
M  V30 3282 C 313.842 -0.134908 -1.60233 0
M  V30 3283 O 315.032 -0.385249 -1.69887 0
M  V30 3284 C 312.164 -0.863192 -3.29791 0
M  V30 3285 H 313.357 -2.18038 -2.05911 0
M  V30 3286 H 310.91 -1.16179 -1.04557 0
M  V30 3287 H 311.645 0.103769 -3.24134 0
M  V30 3288 H 311.43 -1.64166 -3.56078 0
M  V30 3289 H 312.92 -0.809156 -4.09686 0
M  V30 3290 N 313.357 1.07166 -1.15556 0
M  V30 3291 C 314.634 1.76546 -0.842069 0
M  V30 3292 C 315.014 2.00453 0.661939 0
M  V30 3293 O 314.362 1.62452 1.60691 0
M  V30 3294 C 314.572 3.07266 -1.65495 0
M  V30 3295 C 315.92 3.81578 -1.86234 0
M  V30 3296 O 316.944 3.17083 -1.62287 0
M  V30 3297 O 315.803 4.97419 -2.26355 0
M  V30 3298 H 312.897 0.766756 -0.309862 0
M  V30 3299 H 315.443 1.13514 -1.26145 0
M  V30 3300 H 314.215 2.85494 -2.67598 0
M  V30 3301 H 313.838 3.7803 -1.23203 0
M  V30 3302 N 314.835 0.952656 1.25548 0
M  V30 3303 C 315.783 0.462354 2.27958 0
M  V30 3304 C 316.777 -0.46634 1.62855 0
M  V30 3305 O 317.983 -0.343287 1.76696 0
M  V30 3306 H 314.358 0.13101 0.7405 0
M  V30 3307 H 316.329 1.33839 2.66702 0
M  V30 3308 C 315.078 -0.24628 3.46827 0
M  V30 3309 H 314.401 0.459192 3.97154 0
M  V30 3310 H 315.841 -0.553393 4.20373 0
M  V30 3311 C 314.3 -1.4681 3.0323 0
M  V30 3312 O 314.83 -2.56591 3.09069 0
M  V30 3313 N 313.036 -1.32874 2.58443 0
M  V30 3314 H 312.583 -0.435536 2.53891 0
M  V30 3315 H 312.541 -2.14742 2.29637 0
M  V30 3316 N 316.313 -1.40141 0.720998 0
M  V30 3317 C 317.245 -2.29177 0.0324669 0
M  V30 3318 C 318.258 -1.46105 -0.718126 0
M  V30 3319 O 319.447 -1.69335 -0.564608 0
M  V30 3320 C 316.547 -3.24473 -0.978292 0
M  V30 3321 C 315.72 -4.36423 -0.292115 0
M  V30 3322 C 314.779 -5.12122 -1.20901 0
M  V30 3323 O 313.805 -5.64981 -0.691766 0
M  V30 3324 N 315.007 -5.21992 -2.53978 0
M  V30 3325 H 317.772 -2.88909 0.796984 0
M  V30 3326 H 315.333 -1.51569 0.569068 0
M  V30 3327 H 317.325 -3.71987 -1.59398 0
M  V30 3328 H 315.895 -2.65871 -1.64413 0
M  V30 3329 H 315.115 -3.90967 0.503847 0
M  V30 3330 H 316.403 -5.08467 0.183971 0
M  V30 3331 H 315.801 -4.8054 -2.98493 0
M  V30 3332 H 314.358 -5.72995 -3.10677 0
M  V30 3333 N 317.792 -0.46758 -1.50504 0
M  V30 3334 C 318.722 0.318381 -2.31319 0
M  V30 3335 C 319.703 0.993564 -1.38066 0
M  V30 3336 O 320.888 0.991411 -1.66987 0
M  V30 3337 C 318.018 1.40275 -3.17711 0
M  V30 3338 C 316.972 0.849373 -4.19487 0
M  V30 3339 C 316.298 2.03177 -4.94594 0
M  V30 3340 C 317.598 -0.136942 -5.2212 0
M  V30 3341 H 319.292 -0.356106 -2.97275 0
M  V30 3342 H 316.838 -0.172703 -1.42961 0
M  V30 3343 H 318.791 1.96004 -3.73042 0
M  V30 3344 H 317.515 2.10596 -2.49634 0
M  V30 3345 H 316.174 0.314076 -3.65252 0
M  V30 3346 H 315.822 2.72187 -4.22993 0
M  V30 3347 H 315.522 1.66774 -5.63436 0
M  V30 3348 H 317.046 2.59403 -5.52759 0
M  V30 3349 H 318.46 0.331056 -5.72343 0
M  V30 3350 H 316.857 -0.41507 -5.98663 0
M  V30 3351 H 317.927 -1.06398 -4.73083 0
M  V30 3352 N 319.27 1.56325 -0.20005 0
M  V30 3353 C 320.233 2.18084 0.705132 0
M  V30 3354 C 321.233 1.13666 1.1374 0
M  V30 3355 O 322.423 1.39023 1.04968 0
M  V30 3356 C 319.555 2.78689 1.96329 0
M  V30 3357 H 320.748 2.99435 0.167023 0
M  V30 3358 H 318.301 1.56221 0.0495725 0
M  V30 3359 H 319.036 2.0115 2.5438 0
M  V30 3360 H 318.821 3.55133 1.66202 0
M  V30 3361 H 320.311 3.26096 2.60866 0
M  V30 3362 N 320.748 -0.0735177 1.57428 0
M  V30 3363 C 322.025 -0.805903 1.78226 0
M  V30 3364 C 322.405 -1.95874 0.787189 0
M  V30 3365 O 321.753 -2.2779 -0.180029 0
M  V30 3366 C 321.963 -1.28045 3.24662 0
M  V30 3367 C 323.311 -1.71453 3.88444 0
M  V30 3368 O 324.335 -1.37616 3.28543 0
M  V30 3369 O 323.194 -2.34093 4.93825 0
M  V30 3370 H 320.288 -0.386041 0.73137 0
M  V30 3371 H 322.834 -0.0537269 1.69615 0
M  V30 3372 H 321.606 -0.455476 3.8864 0
M  V30 3373 H 321.229 -2.094 3.37991 0
M  V30 3374 N 322.226 -1.5378 -0.344866 0
M  V30 3375 C 323.637 -1.62428 -0.920552 0
M  V30 3376 C 323.988 -0.504747 -1.89596 0
M  V30 3377 O 323.113 0.365711 -2.13287 0
M  V30 3378 C 323.708 -2.94419 -1.67639 0
M  V30 3379 C 322.267 -3.05333 -2.20111 0
M  V30 3380 C 321.414 -2.57866 -1.01982 0
M  V30 3381 H 324.365 -1.58222 -0.123042 0
M  V30 3382 H 324.386 -2.83384 -2.53917 0
M  V30 3383 H 323.898 -3.7588 -0.966224 0
M  V30 3384 H 321.999 -2.28502 -2.94308 0
M  V30 3385 H 322.112 -4.10778 -2.46573 0
M  V30 3386 H 320.476 -2.13241 -1.39285 0
M  V30 3387 H 321.259 -3.41765 -0.324308 0
M  V30 3388 N 323.704 0.605807 -1.45491 0
M  V30 3389 C 324.652 1.73754 -1.54636 0
M  V30 3390 C 325.646 1.64207 -0.416219 0
M  V30 3391 O 326.852 1.69979 -0.592199 0
M  V30 3392 H 323.227 0.574073 -0.485741 0
M  V30 3393 H 325.198 1.63169 -2.49837 0
M  V30 3394 C 323.947 3.12135 -1.53189 0
M  V30 3395 H 323.27 3.20141 -2.39478 0
M  V30 3396 H 324.71 3.91147 -1.63645 0
M  V30 3397 C 323.169 3.35921 -0.256616 0
M  V30 3398 O 323.699 3.96194 0.662798 0
M  V30 3399 N 321.905 2.90204 -0.151751 0
M  V30 3400 H 321.452 2.41336 -0.90081 0
M  V30 3401 H 321.41 3.06492 0.700699 0
M  V30 3402 N 325.182 1.32811 0.848464 0
M  V30 3403 C 326.428 1.23907 1.60546 0
M  V30 3404 C 326.761 -0.197161 1.93197 0
M  V30 3405 O 326.036 -1.13596 1.5788 0
M  V30 3406 C 326.319 2.10489 2.92175 0
M  V30 3407 C 326.172 3.62522 2.66266 0
M  V30 3408 C 327.491 1.97075 3.93509 0
M  V30 3409 H 324.61 0.451459 0.58254 0
M  V30 3410 H 327.252 1.62818 0.979296 0
M  V30 3411 H 325.402 1.77434 3.45614 0
M  V30 3412 H 327.074 4.05821 2.19334 0
M  V30 3413 H 325.317 3.84879 2.00126 0
M  V30 3414 H 325.988 4.18437 3.6002 0
M  V30 3415 H 328.464 2.26045 3.49346 0
M  V30 3416 H 327.34 2.59923 4.83457 0
M  V30 3417 H 327.601 0.940186 4.31987 0
M  V30 3418 N 326.66 -1.06551 1.16123 0
M  V30 3419 C 327.593 -2.13382 0.80892 0
M  V30 3420 C 328.571 -1.61128 -0.21827 0
M  V30 3421 O 329.755 -1.88219 -0.102952 0
M  V30 3422 C 326.882 -3.38083 0.204303 0
M  V30 3423 C 325.928 -4.09133 1.20469 0
M  V30 3424 S 326.761 -4.5948 2.75024 0
M  V30 3425 C 327.917 -5.87446 2.16005 0
M  V30 3426 H 328.15 -2.42937 1.71373 0
M  V30 3427 H 325.683 -1.18947 0.984428 0
M  V30 3428 H 327.641 -4.10268 -0.138081 0
M  V30 3429 H 326.302 -3.0669 -0.678234 0
M  V30 3430 H 325.495 -4.98685 0.730019 0
M  V30 3431 H 325.097 -3.4295 1.49202 0
M  V30 3432 H 327.389 -6.60065 1.5271 0
M  V30 3433 H 328.332 -6.39639 3.03756 0
M  V30 3434 H 328.74 -5.41354 1.59989 0
M  V30 3435 N 328.138 -0.959301 -1.25041 0
M  V30 3436 C 329.368 -0.63303 -1.96663 0
M  V30 3437 C 329.776 0.800031 -1.71453 0
M  V30 3438 O 329.119 1.54736 -0.99008 0
M  V30 3439 C 329.181 -0.817523 -3.50081 0
M  V30 3440 C 328.845 -2.22863 -3.98975 0
M  V30 3441 C 329.842 -3.20569 -4.09306 0
M  V30 3442 C 327.527 -2.55407 -4.32519 0
M  V30 3443 C 329.521 -4.4891 -4.52503 0
M  V30 3444 C 327.208 -3.83976 -4.754 0
M  V30 3445 C 328.206 -4.8054 -4.85356 0
M  V30 3446 O 327.894 -6.06817 -5.27284 0
M  V30 3447 H 327.626 -0.235866 -0.633516 0
M  V30 3448 H 330.18 -1.2874 -1.60047 0
M  V30 3449 H 328.41 -0.105992 -3.86555 0
M  V30 3450 H 330.099 -0.491604 -4.02912 0
M  V30 3451 H 330.865 -2.96753 -3.83618 0
M  V30 3452 H 326.744 -1.8097 -4.23994 0
M  V30 3453 H 330.288 -5.24283 -4.60188 0
M  V30 3454 H 326.185 -4.07596 -5.00535 0
M  V30 3455 H 326.953 -6.10262 -5.45457 0
M  V30 3456 N 329.616 1.39756 -0.72842 0
M  V30 3457 C 330.579 2.29012 -0.0927297 0
M  V30 3458 C 331.579 1.45992 0.674025 0
M  V30 3459 O 332.769 1.66749 0.50402 0
M  V30 3460 C 329.901 3.29396 0.878137 0
M  V30 3461 H 331.094 2.86729 -0.879011 0
M  V30 3462 H 328.647 1.48293 -0.493847 0
M  V30 3463 H 329.382 2.76722 1.69101 0
M  V30 3464 H 329.167 3.907 0.331051 0
M  V30 3465 H 330.657 3.96199 1.3197 0
M  V30 3466 N 331.094 0.475555 1.50254 0
M  V30 3467 C 332.341 -0.0778919 2.0235 0
M  V30 3468 C 332.669 -1.39319 1.35722 0
M  V30 3469 O 331.924 -1.89888 0.473395 0
M  V30 3470 C 332.223 -0.305114 3.56095 0
M  V30 3471 C 331.889 0.92903 4.41225 0
M  V30 3472 C 330.551 1.26739 4.6421 0
M  V30 3473 C 332.903 1.75054 4.90923 0
M  V30 3474 C 330.231 2.42724 5.34137 0
M  V30 3475 C 332.583 2.9017 5.62125 0
M  V30 3476 C 331.247 3.24416 5.83362 0
M  V30 3477 H 330.517 -0.0285027 0.740452 0
M  V30 3478 H 333.164 0.630543 1.80821 0
M  V30 3479 H 331.469 -1.09584 3.76163 0
M  V30 3480 H 333.166 -0.747377 3.93974 0
M  V30 3481 H 329.756 0.655428 4.23559 0
M  V30 3482 H 333.94 1.50231 4.73016 0
M  V30 3483 H 329.196 2.69525 5.48786 0
M  V30 3484 H 333.37 3.54169 5.99614 0
M  V30 3485 H 330.997 4.14396 6.37323 0
M  V30 3486 N 332.573 -1.56217 0.208337 0
M  V30 3487 C 333.523 -2.16324 -0.720281 0
M  V30 3488 C 334.507 -1.10775 -1.16695 0
M  V30 3489 O 335.699 -1.36801 -1.12314 0
M  V30 3490 C 332.828 -2.83644 -1.93393 0
M  V30 3491 C 331.914 -3.96401 -1.50755 0
M  V30 3492 N 332.305 -4.99546 -0.792937 0
M  V30 3493 C 330.603 -4.08246 -1.79585 0
M  V30 3494 C 331.304 -5.78828 -0.577364 0
M  V30 3495 N 330.28 -5.31723 -1.1301 0
M  V30 3496 H 334.082 -2.93432 -0.165725 0
M  V30 3497 H 331.596 -1.62397 0.00906463 0
M  V30 3498 H 333.593 -3.25107 -2.60981 0
M  V30 3499 H 332.253 -2.08027 -2.49308 0
M  V30 3500 H 333.264 -5.15967 -0.447004 0
M  V30 3501 H 329.941 -3.4377 -2.36915 0
M  V30 3502 H 331.331 -6.71899 -0.00952956 0
M  V30 3503 N 334.051 0.0651679 -1.57465 0
M  V30 3504 C 335.298 0.763063 -1.87573 0
M  V30 3505 C 335.626 1.77242 -0.800961 0
M  V30 3506 O 334.881 1.94651 0.202316 0
M  V30 3507 C 335.18 1.50081 -3.24362 0
M  V30 3508 C 334.846 0.630816 -4.46466 0
M  V30 3509 C 333.508 0.391082 -4.79608 0
M  V30 3510 C 335.86 0.0279465 -5.21193 0
M  V30 3511 C 333.188 -0.460894 -5.84887 0
M  V30 3512 C 335.54 -0.811522 -6.27373 0
M  V30 3513 C 334.204 -1.06106 -6.59013 0
M  V30 3514 H 333.474 0.279224 -0.686378 0
M  V30 3515 H 336.121 0.0236726 -1.91485 0
M  V30 3516 H 334.426 2.31258 -3.16271 0
M  V30 3517 H 336.123 2.04571 -3.44894 0
M  V30 3518 H 332.713 0.8278 -4.2053 0
M  V30 3519 H 336.897 0.200262 -4.95896 0
M  V30 3520 H 332.153 -0.662907 -6.07796 0
M  V30 3521 H 336.327 -1.28537 -6.84435 0
M  V30 3522 H 333.954 -1.723 -7.40417 0
M  V30 3523 N 335.529 1.53961 0.336706 0
M  V30 3524 C 336.759 1.75229 1.09446 0
M  V30 3525 C 337.167 0.494602 1.82621 0
M  V30 3526 O 336.51 -0.543764 1.75468 0
M  V30 3527 C 336.572 2.88288 2.1478 0
M  V30 3528 C 336.236 4.27656 1.6112 0
M  V30 3529 C 337.233 5.08981 1.0599 0
M  V30 3530 C 334.918 4.74161 1.6576 0
M  V30 3531 C 336.912 6.34916 0.562129 0
M  V30 3532 C 334.599 6.00067 1.15595 0
M  V30 3533 C 335.597 6.80278 0.609147 0
M  V30 3534 O 335.285 8.03818 0.114999 0
M  V30 3535 H 335.017 0.588881 0.331956 0
M  V30 3536 H 337.571 2.01614 0.392566 0
M  V30 3537 H 335.801 2.57443 2.88548 0
M  V30 3538 H 337.49 2.97461 2.76174 0
M  V30 3539 H 338.256 4.74213 1.01722 0
M  V30 3540 H 334.135 4.11781 2.07261 0
M  V30 3541 H 337.679 6.9747 0.134668 0
M  V30 3542 H 333.576 6.3433 1.19566 0
M  V30 3543 H 334.344 8.18172 0.231651 0
M  V30 3544 N 337.007 -0.598083 1.45811 0
M  V30 3545 C 337.97 -1.69018 1.54808 0
M  V30 3546 C 338.97 -1.55037 0.426652 0
M  V30 3547 O 340.16 -1.59932 0.690456 0
M  V30 3548 C 337.292 -3.0835 1.45371 0
M  V30 3549 H 338.485 -1.62403 2.52121 0
M  V30 3550 H 336.038 -0.814626 1.33392 0
M  V30 3551 H 336.773 -3.20534 0.492793 0
M  V30 3552 H 336.558 -3.19907 2.26721 0
M  V30 3553 H 338.048 -3.8788 1.54721 0
M  V30 3554 N 338.485 -1.33259 -0.841409 0
M  V30 3555 C 339.733 -1.24326 -1.59334 0
M  V30 3556 C 340.054 0.191564 -1.94057 0
M  V30 3557 O 339.324 1.11967 -1.60749 0
M  V30 3558 H 337.904 -0.457174 -0.590763 0
M  V30 3559 H 340.566 -1.66947 -1.00571 0
M  V30 3560 H 339.662 -1.8352 -2.52442 0
M  V30 3561 N 339.963 1.05934 -1.16686 0
M  V30 3562 C 341.191 1.8249 -0.974929 0
M  V30 3563 C 341.606 1.82679 0.476861 0
M  V30 3564 O 340.963 1.2486 1.33103 0
M  V30 3565 C 341.014 3.28943 -1.49929 0
M  V30 3566 O 340.735 3.28886 -2.89423 0
M  V30 3567 C 342.236 4.22215 -1.35089 0
M  V30 3568 H 339.456 0.575295 -0.345365 0
M  V30 3569 H 342 1.33631 -1.548 0
M  V30 3570 H 340.155 3.751 -0.968423 0
M  V30 3571 H 340.569 4.20493 -3.13506 0
M  V30 3572 H 342.043 5.22987 -1.76603 0
M  V30 3573 H 342.52 4.38195 -0.296935 0
M  V30 3574 H 343.126 3.81907 -1.87155 0
M  V30 3575 N 341.441 0.965919 1.2453 0
M  V30 3576 C 342.391 0.465731 2.23193 0
M  V30 3577 C 343.375 -0.451277 1.54442 0
M  V30 3578 O 344.567 -0.282489 1.74731 0
M  V30 3579 C 341.696 -0.244511 3.42428 0
M  V30 3580 C 340.782 0.691222 4.18429 0
M  V30 3581 N 341.173 1.82771 4.71623 0
M  V30 3582 C 339.471 0.501649 4.4317 0
M  V30 3583 C 340.172 2.41285 5.29298 0
M  V30 3584 N 339.148 1.69819 5.16394 0
M  V30 3585 H 342.95 1.33291 2.61937 0
M  V30 3586 H 340.464 0.824789 1.39896 0
M  V30 3587 H 342.461 -0.620056 4.12263 0
M  V30 3588 H 341.121 -1.10815 3.05205 0
M  V30 3589 H 342.132 2.20929 4.68413 0
M  V30 3590 H 338.809 -0.318177 4.16286 0
M  V30 3591 H 340.199 3.37181 5.8117 0
M  V30 3592 N 342.919 -1.39368 0.735821 0
M  V30 3593 C 344.167 -2.00101 0.283562 0
M  V30 3594 C 344.488 -1.5868 -1.13338 0
M  V30 3595 O 343.758 -0.835423 -1.77193 0
M  V30 3596 H 342.338 -0.740024 0.101851 0
M  V30 3597 H 345 -1.70404 0.945962 0
M  V30 3598 H 344.096 -3.10323 0.332604 0
M  V30 3599 N 344.397 -0.483516 -1.5 0
M  V30 3600 C 345.329 0.340634 -2.26655 0
M  V30 3601 C 346.342 0.946152 -1.32483 0
M  V30 3602 O 347.531 0.832453 -1.579 0
M  V30 3603 C 344.631 1.4929 -3.04246 0
M  V30 3604 C 343.804 0.997903 -4.25865 0
M  V30 3605 C 342.863 2.02569 -4.85646 0
M  V30 3606 O 341.889 1.60128 -5.46212 0
M  V30 3607 N 343.091 3.3548 -4.73744 0
M  V30 3608 H 345.856 -0.316577 -2.98023 0
M  V30 3609 H 343.417 -0.315024 -1.58806 0
M  V30 3610 H 345.409 2.17766 -3.41116 0
M  V30 3611 H 343.979 2.05458 -2.35597 0
M  V30 3612 H 343.199 0.138617 -3.93956 0
M  V30 3613 H 344.487 0.645305 -5.04691 0
M  V30 3614 H 343.885 3.72661 -4.25605 0
M  V30 3615 H 342.442 3.99718 -5.14848 0
M  V30 3616 N 345.875 1.56104 -0.216619 0
M  V30 3617 C 346.823 2.21434 0.712036 0
M  V30 3618 C 347.817 1.19218 1.20348 0
M  V30 3619 O 349.023 1.3731 1.16387 0
M  V30 3620 H 345.398 0.70992 0.248026 0
M  V30 3621 H 347.369 2.98083 0.137558 0
M  V30 3622 C 346.118 2.90434 1.91163 0
M  V30 3623 H 345.441 3.68842 1.54258 0
M  V30 3624 H 346.881 3.39552 2.5393 0
M  V30 3625 C 345.34 1.92635 2.76394 0
M  V30 3626 O 345.87 1.44017 3.74996 0
M  V30 3627 N 344.076 1.60392 2.42328 0
M  V30 3628 H 343.623 2.00122 1.622 0
M  V30 3629 H 343.581 0.952159 2.99635 0
M  V30 3630 N 347.353 -0.0568162 1.57498 0
M  V30 3631 C 348.283 -1.06593 2.0775 0
M  V30 3632 C 349.264 -1.39448 0.974082 0
M  V30 3633 O 350.449 -1.48815 1.24771 0
M  V30 3634 C 347.579 -2.37509 2.5339 0
M  V30 3635 C 346.533 -2.1897 3.67745 0
M  V30 3636 C 345.859 -3.55402 3.99492 0
M  V30 3637 C 347.159 -1.59859 4.97235 0
M  V30 3638 H 348.853 -0.647706 2.9231 0
M  V30 3639 H 346.399 -0.310116 1.40621 0
M  V30 3640 H 348.352 -3.08409 2.87162 0
M  V30 3641 H 347.076 -2.8134 1.65878 0
M  V30 3642 H 345.735 -1.50508 3.3428 0
M  V30 3643 H 345.383 -3.9683 3.09088 0
M  V30 3644 H 345.083 -3.43831 4.76502 0
M  V30 3645 H 346.607 -4.27708 4.35773 0
M  V30 3646 H 348.021 -2.20642 5.29141 0
M  V30 3647 H 346.418 -1.58942 5.78669 0
M  V30 3648 H 347.488 -0.561506 4.81638 0
M  V30 3649 N 348.832 -1.54138 -0.328536 0
M  V30 3650 C 350.248 -1.44736 -0.672574 0
M  V30 3651 C 350.448 -0.616217 -1.91846 0
M  V30 3652 O 349.504 -0.113067 -2.52247 0
M  V30 3653 C 350.817 -2.884 -0.851217 0
M  V30 3654 C 352.365 -2.98271 -0.948877 0
M  V30 3655 C 352.84 -4.43074 -1.15973 0
M  V30 3656 N 354.331 -4.46665 -1.22658 0
M  V30 3657 C 355.066 -5.55857 -1.40751 0
M  V30 3658 N 354.562 -6.75026 -1.5592 0
M  V30 3659 N 356.355 -5.43495 -1.4342 0
M  V30 3660 H 348.506 -2.06661 0.490421 0
M  V30 3661 H 350.769 -0.934812 0.157579 0
M  V30 3662 H 350.475 -3.51699 -0.00704236 0
M  V30 3663 H 350.349 -3.34225 -1.74853 0
M  V30 3664 H 352.736 -2.35102 -1.78356 0
M  V30 3665 H 352.817 -2.55785 -0.0281435 0
M  V30 3666 H 352.461 -5.06827 -0.329915 0
M  V30 3667 H 352.391 -4.83165 -2.09426 0
M  V30 3668 H 354.882 -3.60797 -1.124 0
M  V30 3669 H 355.195 -7.54004 -1.69404 0
M  V30 3670 H 353.54 -6.77944 -1.53027 0
M  V30 3671 H 356.731 -4.49349 -1.31162 0
M  V30 3672 H 356.904 -6.28649 -1.57178 0
M  V30 3673 N 350.31 0.590341 -1.46126 0
M  V30 3674 C 351.587 1.35029 -1.41515 0
M  V30 3675 C 351.967 2.10888 -0.0946472 0
M  V30 3676 O 351.315 2.08998 0.923693 0
M  V30 3677 C 351.525 2.28269 -2.63997 0
M  V30 3678 C 352.873 2.90338 -3.09821 0
M  V30 3679 O 353.897 2.38585 -2.64492 0
M  V30 3680 O 352.756 3.84321 -3.88535 0
M  V30 3681 H 349.85 0.606317 -0.562413 0
M  V30 3682 H 352.396 0.611994 -1.58281 0
M  V30 3683 H 351.168 1.71591 -3.51671 0
M  V30 3684 H 350.791 3.0945 -2.49652 0
M  V30 3685 N 351.788 1.33704 0.83433 0
M  V30 3686 C 352.72 1.20172 1.9517 0
M  V30 3687 C 353.733 0.131572 1.62267 0
M  V30 3688 O 354.922 0.382406 1.74356 0
M  V30 3689 C 352.022 0.821716 3.28787 0
M  V30 3690 C 351.195 1.98446 3.89792 0
M  V30 3691 C 350.254 1.58469 5.01771 0
M  V30 3692 O 349.28 2.29968 5.20676 0
M  V30 3693 N 350.482 0.492291 5.78409 0
M  V30 3694 H 353.247 2.16429 2.07313 0
M  V30 3695 H 350.808 1.26509 1.0103 0
M  V30 3696 H 352.8 0.536291 4.01131 0
M  V30 3697 H 351.37 -0.0503058 3.1256 0
M  V30 3698 H 350.59 2.43526 3.09982 0
M  V30 3699 H 351.878 2.76236 4.27283 0
M  V30 3700 H 351.276 -0.102349 5.65607 0
M  V30 3701 H 349.833 0.266555 6.51255 0
M  V30 3702 N 353.266 -1.05314 1.17247 0
M  V30 3703 C 354.512 -1.78557 0.961513 0
M  V30 3704 C 354.845 -1.87419 -0.508697 0
M  V30 3705 O 354.12 -1.37307 -1.37757 0
M  V30 3706 C 354.403 -3.22514 1.60176 0
M  V30 3707 C 354.256 -3.21673 3.14399 0
M  V30 3708 C 355.575 -4.20318 1.30463 0
M  V30 3709 H 352.694 -0.6482 0.350723 0
M  V30 3710 H 355.336 -1.23102 1.44727 0
M  V30 3711 H 353.486 -3.69867 1.18871 0
M  V30 3712 H 355.158 -2.82405 3.64753 0
M  V30 3713 H 353.401 -2.60048 3.47214 0
M  V30 3714 H 354.072 -4.23271 3.54324 0
M  V30 3715 H 356.548 -3.81454 1.66229 0
M  V30 3716 H 355.424 -5.19289 1.77848 0
M  V30 3717 H 355.685 -4.41526 0.22521 0
M  V30 3718 N 354.744 -0.972509 -1.24016 0
M  V30 3719 C 356.021 -0.553733 -1.87598 0
M  V30 3720 C 356.401 0.969158 -1.87538 0
M  V30 3721 O 355.749 1.84255 -1.35139 0
M  V30 3722 C 355.959 -1.15076 -3.29482 0
M  V30 3723 C 357.307 -1.23862 -4.06132 0
M  V30 3724 O 358.331 -1.10363 -3.38672 0
M  V30 3725 O 357.19 -1.45252 -5.26844 0
M  V30 3726 H 354.284 -0.185331 -0.805966 0
M  V30 3727 H 356.83 -1.06709 -1.31952 0
M  V30 3728 H 355.602 -2.19333 -3.2405 0
M  V30 3729 H 355.225 -0.621746 -3.92709 0
M  V30 3730 N 356.222 1.38976 -0.743202 0
M  V30 3731 C 357.452 2.04339 -0.304807 0
M  V30 3732 C 357.86 1.56162 1.06819 0
M  V30 3733 O 357.203 0.725284 1.68776 0
M  V30 3734 C 357.265 3.58716 -0.237369 0
M  V30 3735 C 356.929 4.29905 -1.55018 0
M  V30 3736 C 357.926 4.55987 -2.49744 0
M  V30 3737 C 355.611 4.68294 -1.81675 0
M  V30 3738 C 357.605 5.19478 -3.69353 0
M  V30 3739 C 355.292 5.31512 -3.0156 0
M  V30 3740 C 356.29 5.57037 -3.9522 0
M  V30 3741 O 355.978 6.18941 -5.12998 0
M  V30 3742 H 355.71 0.663439 -0.12971 0
M  V30 3743 H 358.264 1.78852 -1.01001 0
M  V30 3744 H 356.494 3.83133 0.524003 0
M  V30 3745 H 358.183 4.05543 0.170121 0
M  V30 3746 H 358.949 4.26767 -2.30423 0
M  V30 3747 H 354.828 4.47779 -1.09615 0
M  V30 3748 H 358.372 5.39318 -4.42473 0
M  V30 3749 H 354.269 5.60153 -3.20778 0
M  V30 3750 H 355.037 6.37433 -5.13441 0
M  V30 3751 N 357.7 0.491464 1.49741 0
M  V30 3752 C 358.663 -0.280906 2.27472 0
M  V30 3753 C 359.663 -0.902454 1.33088 0
M  V30 3754 O 360.853 -0.768465 1.56334 0
M  V30 3755 C 357.985 -1.40209 3.10732 0
M  V30 3756 H 359.178 0.401056 2.97206 0
M  V30 3757 H 356.731 0.246131 1.5435 0
M  V30 3758 H 357.466 -2.11849 2.45541 0
M  V30 3759 H 357.251 -0.961969 3.80117 0
M  V30 3760 H 358.741 -1.9464 3.69466 0
M  V30 3761 N 359.178 -1.55987 0.224894 0
M  V30 3762 C 360.108 -2.23426 -0.678457 0
M  V30 3763 C 361.089 -1.20709 -1.19847 0
M  V30 3764 O 362.274 -1.49304 -1.24186 0
M  V30 3765 C 359.404 -2.91676 -1.88527 0
M  V30 3766 C 358.358 -4.00893 -1.49896 0
M  V30 3767 C 357.684 -4.56455 -2.78483 0
M  V30 3768 C 358.984 -5.17769 -0.686461 0
M  V30 3769 H 360.678 -2.99175 -0.116173 0
M  V30 3770 H 358.224 -1.43897 -0.054436 0
M  V30 3771 H 360.177 -3.37547 -2.5227 0
M  V30 3772 H 358.901 -2.1338 -2.47258 0
M  V30 3773 H 357.56 -3.55758 -0.884985 0
M  V30 3774 H 357.208 -3.74886 -3.35365 0
M  V30 3775 H 356.908 -5.30169 -2.53368 0
M  V30 3776 H 358.432 -5.05047 -3.43162 0
M  V30 3777 H 359.846 -5.60001 -1.22767 0
M  V30 3778 H 358.243 -5.97735 -0.532259 0
M  V30 3779 H 359.313 -4.83932 0.306196 0
M  V30 3780 N 360.656 0.0484629 -1.57525 0
M  V30 3781 C 361.933 0.777447 -1.79486 0
M  V30 3782 C 362.313 1.94597 -0.818251 0
M  V30 3783 O 361.661 2.28047 0.143767 0
M  V30 3784 C 361.871 1.22864 -3.26658 0
M  V30 3785 C 363.219 1.65251 -3.91123 0
M  V30 3786 O 364.243 1.32372 -3.3069 0
M  V30 3787 O 363.102 2.26207 -4.97486 0
M  V30 3788 H 360.196 0.374357 -0.737419 0
M  V30 3789 H 362.742 0.0267359 -1.69679 0
M  V30 3790 H 361.514 0.393589 -3.89316 0
M  V30 3791 H 361.137 2.03996 -3.41279 0
M  V30 3792 N 362.134 1.5431 0.320358 0
M  V30 3793 C 363.066 1.80262 1.41556 0
M  V30 3794 C 364.079 0.684723 1.477 0
M  V30 3795 O 365.268 0.961886 1.50366 0
M  V30 3796 C 362.368 1.90825 2.8007 0
M  V30 3797 C 361.541 3.21023 2.97091 0
M  V30 3798 C 360.6 3.22247 4.15985 0
M  V30 3799 O 359.626 3.95871 4.08992 0
M  V30 3800 N 360.828 2.46258 5.25678 0
M  V30 3801 H 363.593 2.74778 1.19655 0
M  V30 3802 H 361.154 1.53646 0.510358 0
M  V30 3803 H 363.146 1.89067 3.57821 0
M  V30 3804 H 361.716 1.03392 2.95006 0
M  V30 3805 H 360.936 3.35715 2.06614 0
M  V30 3806 H 362.224 4.0698 3.05361 0
M  V30 3807 H 361.622 1.86037 5.34235 0
M  V30 3808 H 360.179 2.50275 6.01835 0
M  V30 3809 N 363.613 -0.582584 1.46437 0
M  V30 3810 C 364.861 -1.33814 1.51453 0
M  V30 3811 C 365.182 -1.94277 0.167792 0
M  V30 3812 O 364.452 -1.78566 -0.805677 0
M  V30 3813 H 363.032 -0.496838 0.557818 0
M  V30 3814 H 365.694 -0.682281 1.82568 0
M  V30 3815 H 364.79 -2.14479 2.26728 0
M  V30 3816 N 365.091 -1.34144 -0.827227 0
M  V30 3817 C 366.054 -1.25264 -1.91942 0
M  V30 3818 C 367.054 -0.168866 -1.59911 0
M  V30 3819 O 368.244 -0.421198 -1.69031 0
M  V30 3820 C 365.376 -0.932952 -3.27885 0
M  V30 3821 H 366.569 -2.22357 -2.0124 0
M  V30 3822 H 364.122 -1.1837 -1.0207 0
M  V30 3823 H 364.857 0.0349917 -3.24281 0
M  V30 3824 H 364.642 -1.71682 -3.52516 0
M  V30 3825 H 366.132 -0.895874 -4.07877 0
M  V30 3826 N 366.569 1.04691 -1.17803 0
M  V30 3827 C 367.532 2.10724 -0.901545 0
M  V30 3828 C 368.532 1.6042 0.110437 0
M  V30 3829 O 369.722 1.7377 -0.122303 0
M  V30 3830 C 366.854 3.39084 -0.351409 0
M  V30 3831 H 368.047 2.36686 -1.84174 0
M  V30 3832 H 365.6 1.21015 -0.98919 0
M  V30 3833 H 366.335 3.18782 0.59569 0
M  V30 3834 H 366.12 3.76909 -1.08083 0
M  V30 3835 H 367.61 4.17227 -0.176451 0
M  V30 3836 N 368.047 0.979072 1.23499 0
M  V30 3837 C 369.296 0.642751 1.91185 0
M  V30 3838 C 369.609 -0.827253 1.77245 0
M  V30 3839 O 370.815 -1.27458 2.39722 0
M  V30 3840 C 369.271 1.09901 3.42709 0
M  V30 3841 C 368.879 2.59327 3.65313 0
M  V30 3842 C 370.623 0.836371 4.16179 0
M  V30 3843 C 368.53 2.98627 5.10467 0
M  V30 3844 H 367.46 0.236698 0.715884 0
M  V30 3845 H 370.111 1.1868 1.39955 0
M  V30 3846 H 368.493 0.48319 3.93041 0
M  V30 3847 H 369.667 3.26136 3.25533 0
M  V30 3848 H 367.982 2.83323 3.05151 0
M  V30 3849 H 370.579 1.10586 5.23139 0
M  V30 3850 H 370.922 -0.227509 4.15678 0
M  V30 3851 H 371.455 1.41371 3.71832 0
M  V30 3852 H 368.194 4.04133 5.16098 0
M  V30 3853 H 367.714 2.3651 5.51201 0
M  V30 3854 H 369.393 2.89159 5.78788 0
M  V30 3855 N 369.525 -1.3858 0.750561 0
M  V30 3856 C 370.772 -2.00184 0.305373 0
M  V30 3857 C 371.1 -1.59575 -1.11203 0
M  V30 3858 O 370.355 -0.823236 -1.77542 0
M  V30 3859 C 370.654 -3.55455 0.372373 0
M  V30 3860 C 370.32 -4.15765 1.745 0
M  V30 3861 C 368.982 -4.31951 2.12065 0
M  V30 3862 C 371.334 -4.49067 2.64553 0
M  V30 3863 C 368.662 -4.78734 3.39162 0
M  V30 3864 C 371.014 -4.97265 3.91038 0
M  V30 3865 C 369.678 -5.11658 4.28676 0
M  V30 3866 H 368.948 -0.732526 0.111744 0
M  V30 3867 H 371.595 -1.65673 0.960451 0
M  V30 3868 H 369.9 -3.90084 -0.366272 0
M  V30 3869 H 371.597 -4.00999 0.00953918 0
M  V30 3870 H 368.187 -4.03579 1.44297 0
M  V30 3871 H 372.371 -4.36166 2.36796 0
M  V30 3872 H 367.627 -4.88062 3.68246 0
M  V30 3873 H 371.801 -5.22003 4.60962 0
M  V30 3874 H 369.428 -5.47668 5.27222 0
M  V30 3875 N 371.003 -0.499398 -1.49478 0
M  V30 3876 C 372.249 0.0457576 -2.02748 0
M  V30 3877 C 372.582 1.36793 -1.37846 0
M  V30 3878 O 371.857 1.87596 -0.513601 0
M  V30 3879 C 372.14 0.199986 -3.59544 0
M  V30 3880 C 371.993 -1.1452 -4.34977 0
M  V30 3881 C 373.312 0.94137 -4.29914 0
M  V30 3882 H 370.431 0.0151552 -0.736844 0
M  V30 3883 H 373.073 -0.650498 -1.78518 0
M  V30 3884 H 371.223 0.793007 -3.8032 0
M  V30 3885 H 372.895 -1.77697 -4.25701 0
M  V30 3886 H 371.138 -1.73488 -3.97598 0
M  V30 3887 H 371.809 -0.990607 -5.43039 0
M  V30 3888 H 374.285 0.43844 -4.13784 0
M  V30 3889 H 373.161 1.01812 -5.39375 0
M  V30 3890 H 373.422 1.98471 -3.95046 0
M  V30 3891 N 372.481 1.55866 -0.233164 0
M  V30 3892 C 373.706 2.03449 0.402906 0
M  V30 3893 C 374.131 1.11166 1.51736 0
M  V30 3894 O 373.489 0.101996 1.81013 0
M  V30 3895 C 373.537 3.49165 0.9009 0
M  V30 3896 O 372.641 3.60019 2.01147 0
M  V30 3897 H 371.982 0.657913 0.0897025 0
M  V30 3898 H 374.512 2.01493 -0.355201 0
M  V30 3899 H 374.522 3.89716 1.2077 0
M  V30 3900 H 373.197 4.15813 0.0852889 0
M  V30 3901 H 371.774 3.3136 1.71042 0
M  V30 3902 N 373.959 -0.0401083 1.57549 0
M  V30 3903 C 374.869 -1.06133 2.0922 0
M  V30 3904 C 375.885 -1.40356 1.0284 0
M  V30 3905 O 377.061 -1.49897 1.34509 0
M  V30 3906 C 374.126 -2.34658 2.55218 0
M  V30 3907 C 373.187 -2.07117 3.76033 0
M  V30 3908 C 372.42 -3.29514 4.19829 0
M  V30 3909 O 372.643 -4.39794 3.63232 0
M  V30 3910 O 371.577 -3.15863 5.12362 0
M  V30 3911 H 375.403 -0.652244 2.96613 0
M  V30 3912 H 372.988 -0.256368 1.47184 0
M  V30 3913 H 374.87 -3.10239 2.85184 0
M  V30 3914 H 373.545 -2.74883 1.70941 0
M  V30 3915 H 372.452 -1.29139 3.51104 0
M  V30 3916 H 373.785 -1.71754 4.61261 0
M  V30 3917 N 375.437 -1.54477 -0.31217 0
M  V30 3918 C 376.683 -1.74417 -1.04644 0
M  V30 3919 C 377.038 -0.517641 -1.85306 0
M  V30 3920 O 376.331 0.489973 -1.85229 0
M  V30 3921 C 376.525 -2.967 -1.99258 0
M  V30 3922 C 376.354 -4.31128 -1.27901 0
M  V30 3923 C 375.124 -4.95087 -1.01079 0
M  V30 3924 C 377.322 -5.09662 -0.689119 0
M  V30 3925 N 375.304 -6.13322 -0.266323 0
M  V30 3926 C 376.675 -6.19952 -0.0768523 0
M  V30 3927 C 378.73 -4.94355 -0.593061 0
M  V30 3928 C 377.433 -7.16604 0.622165 0
M  V30 3929 C 379.459 -5.91328 0.0922792 0
M  V30 3930 C 378.821 -7.00978 0.693443 0
M  V30 3931 H 374.92 -0.69094 -0.366231 0
M  V30 3932 H 377.504 -1.91946 -0.326319 0
M  V30 3933 H 375.675 -2.80616 -2.68532 0
M  V30 3934 H 377.407 -3.05216 -2.65755 0
M  V30 3935 H 374.162 -4.55235 -1.30607 0
M  V30 3936 H 374.586 -6.76937 0.0920973 0
M  V30 3937 H 379.228 -4.09719 -1.04355 0
M  V30 3938 H 376.946 -8.0079 1.08445 0
M  V30 3939 H 380.532 -5.81562 0.166396 0
M  V30 3940 H 379.412 -7.74725 1.21533 0
M  V30 3941 N 376.915 0.57481 -1.46744 0
M  V30 3942 C 378.163 1.33009 -1.52161 0
M  V30 3943 C 378.484 1.94185 -0.178092 0
M  V30 3944 O 377.754 1.7899 0.796196 0
M  V30 3945 H 376.334 0.493873 -0.560445 0
M  V30 3946 H 378.996 0.672589 -1.82927 0
M  V30 3947 H 378.092 2.13273 -2.27862 0
M  V30 3948 N 378.394 1.34581 0.820102 0
M  V30 3949 C 379.622 1.3018 1.60813 0
M  V30 3950 C 380.037 -0.123551 1.88395 0
M  V30 3951 O 379.394 -1.07148 1.47735 0
M  V30 3952 C 379.445 2.09312 2.94739 0
M  V30 3953 O 379.166 3.46288 2.68358 0
M  V30 3954 C 380.667 2.1234 3.89136 0
M  V30 3955 H 377.887 0.447726 0.499782 0
M  V30 3956 H 380.431 1.77237 1.02017 0
M  V30 3957 H 378.586 1.65889 3.50085 0
M  V30 3958 H 379 3.87227 3.53774 0
M  V30 3959 H 380.474 2.72126 4.80262 0
M  V30 3960 H 380.951 1.11854 4.24718 0
M  V30 3961 H 381.557 2.55864 3.39726 0
M  V30 3962 N 379.872 -1.04064 1.18357 0
M  V30 3963 C 381.097 -1.81454 1.00445 0
M  V30 3964 C 381.522 -1.82823 -0.442423 0
M  V30 3965 O 380.88 -1.24555 -1.31741 0
M  V30 3966 C 380.928 -3.24925 1.56384 0
M  V30 3967 O 380.032 -4.04856 0.785209 0
M  V30 3968 H 379.373 -0.560604 0.355835 0
M  V30 3969 H 381.903 -1.31059 1.57114 0
M  V30 3970 H 381.913 -3.75702 1.59097 0
M  V30 3971 H 380.588 -3.23244 2.61699 0
M  V30 3972 H 379.165 -3.63537 0.830399 0
M  V30 3973 N 381.35 -0.985608 -1.22978 0
M  V30 3974 C 382.313 -0.535071 -2.22867 0
M  V30 3975 C 383.313 0.378123 -1.56291 0
M  V30 3976 O 384.503 0.171092 -1.73358 0
M  V30 3977 C 381.635 0.222702 -3.40172 0
M  V30 3978 H 382.828 -1.41835 -2.6424 0
M  V30 3979 H 380.381 -0.772042 -1.35901 0
M  V30 3980 H 381.116 1.12229 -3.04262 0
M  V30 3981 H 380.901 -0.43288 -3.89703 0
M  V30 3982 H 382.391 0.526335 -4.1427 0
M  V30 3983 N 382.828 1.3818 -0.7579 0
M  V30 3984 C 383.791 2.28764 -0.141286 0
M  V30 3985 C 384.791 1.47388 0.642907 0
M  V30 3986 O 385.981 1.67781 0.468536 0
M  V30 3987 C 383.113 3.31184 0.808069 0
M  V30 3988 H 384.306 2.848 -0.939633 0
M  V30 3989 H 381.859 1.47212 -0.525191 0
M  V30 3990 H 382.594 2.80247 1.63193 0
M  V30 3991 H 382.379 3.91314 0.248104 0
M  V30 3992 H 383.869 3.98909 1.23536 0
M  V30 3993 N 384.306 0.507319 1.49211 0
M  V30 3994 C 385.534 -0.0315749 2.06876 0
M  V30 3995 C 385.949 -1.30241 1.36685 0
M  V30 3996 O 385.306 -1.76937 0.447152 0
M  V30 3997 C 385.357 -0.282627 3.60393 0
M  V30 3998 O 385.078 0.937835 4.27944 0
M  V30 3999 C 386.579 -0.864453 4.3479 0
M  V30 4000 H 383.799 0.0233048 0.670595 0
M  V30 4001 H 386.343 0.706484 1.91909 0
M  V30 4002 H 384.498 -0.97068 3.75042 0
M  V30 4003 H 384.912 0.704567 5.19746 0
M  V30 4004 H 386.386 -0.989664 5.43056 0
M  V30 4005 H 386.863 -1.86382 3.97692 0
M  V30 4006 H 387.469 -0.213672 4.24763 0
M  V30 4007 N 385.784 -1.5574 0.241426 0
M  V30 4008 C 387.032 -1.98417 -0.384075 0
M  V30 4009 C 387.353 -1.13078 -1.58866 0
M  V30 4010 O 386.623 -0.212312 -1.94746 0
M  V30 4011 H 385.203 -0.732813 -0.144894 0
M  V30 4012 H 387.865 -1.9193 0.338943 0
M  V30 4013 H 386.961 -3.04219 -0.696939 0
M  V30 4014 N 387.262 0.0317525 -1.57568 0
M  V30 4015 C 388.539 0.758366 -1.803 0
M  V30 4016 C 388.919 1.93718 -0.838845 0
M  V30 4017 O 388.267 2.28187 0.119571 0
M  V30 4018 C 388.477 1.19392 -3.27943 0
M  V30 4019 C 389.825 1.61094 -3.92854 0
M  V30 4020 O 390.849 1.28857 -3.32076 0
M  V30 4021 O 389.708 2.20918 -4.99858 0
M  V30 4022 H 386.802 0.366514 -0.741348 0
M  V30 4023 H 389.348 0.00873765 -1.69698 0
M  V30 4024 H 388.12 0.352275 -3.89711 0
M  V30 4025 H 387.743 2.00365 -3.43424 0
M  V30 4026 N 388.74 1.54641 0.303973 0
M  V30 4027 C 389.988 1.73437 1.0375 0
M  V30 4028 C 390.309 0.521449 1.87899 0
M  V30 4029 O 389.579 -0.46432 1.90318 0
M  V30 4030 H 388.159 0.639518 0.386039 0
M  V30 4031 H 390.821 1.91988 0.335675 0
M  V30 4032 H 389.917 2.62235 1.69231 0
M  V30 4033 N 390.218 -0.567019 1.47046 0
M  V30 4034 C 391.466 -1.322 1.52864 0
M  V30 4035 C 391.787 -1.94088 0.188388 0
M  V30 4036 O 391.057 -1.7941 -0.786693 0
M  V30 4037 H 389.637 -0.490894 0.563056 0
M  V30 4038 H 392.299 -0.662879 1.83281 0
M  V30 4039 H 391.395 -2.12062 2.2899 0
M  V30 4040 N 391.696 -1.35014 -0.812953 0
M  V30 4041 C 392.942 -1.2812 -1.57204 0
M  V30 4042 C 393.275 0.145869 -1.93651 0
M  V30 4043 O 392.55 1.0937 -1.60836 0
M  V30 4044 C 392.833 -2.18162 -2.86492 0
M  V30 4045 C 392.686 -3.69454 -2.56561 0
M  V30 4046 C 394.005 -2.07439 -3.88145 0
M  V30 4047 H 391.124 -0.466746 -0.570366 0
M  V30 4048 H 393.766 -1.65357 -0.935783 0
M  V30 4049 H 391.916 -1.86535 -3.40789 0
M  V30 4050 H 393.588 -4.11493 -2.08497 0
M  V30 4051 H 391.831 -3.9005 -1.89851 0
M  V30 4052 H 392.502 -4.27835 -3.48799 0
M  V30 4053 H 394.978 -2.35228 -3.4323 0
M  V30 4054 H 393.854 -2.7265 -4.76396 0
M  V30 4055 H 394.115 -1.05439 -4.29343 0
M  V30 4056 N 393.175 1.03435 -1.18907 0
M  V30 4057 C 394.422 1.76743 -0.988334 0
M  V30 4058 C 394.75 1.88447 0.481441 0
M  V30 4059 O 394.005 1.39383 1.37371 0
M  V30 4060 C 394.304 3.19792 -1.59586 0
M  V30 4061 C 393.97 3.28108 -3.09283 0
M  V30 4062 C 392.632 3.30084 -3.5014 0
M  V30 4063 C 394.984 3.27696 -4.05296 0
M  V30 4064 C 392.312 3.29299 -4.85571 0
M  V30 4065 C 394.664 3.28451 -5.4065 0
M  V30 4066 C 393.328 3.28723 -5.80946 0
M  V30 4067 H 392.598 0.64675 -0.361657 0
M  V30 4068 H 395.245 1.21442 -1.48068 0
M  V30 4069 H 393.55 3.78136 -1.02568 0
M  V30 4070 H 395.247 3.75171 -1.41589 0
M  V30 4071 H 391.837 3.27294 -2.76725 0
M  V30 4072 H 396.021 3.25354 -3.74778 0
M  V30 4073 H 391.277 3.2783 -5.16079 0
M  V30 4074 H 395.451 3.27082 -6.14809 0
M  V30 4075 H 393.078 3.27868 -6.85862 0
M  V30 4076 N 394.653 0.992116 1.22453 0
M  V30 4077 C 395.583 0.561677 2.26644 0
M  V30 4078 C 396.564 -0.411055 1.65059 0
M  V30 4079 O 397.749 -0.301861 1.9184 0
M  V30 4080 C 394.879 -0.125247 3.47074 0
M  V30 4081 C 393.833 0.765948 4.21091 0
M  V30 4082 C 393.159 -0.0538484 5.34673 0
M  V30 4083 C 394.459 2.06242 4.79856 0
M  V30 4084 H 396.153 1.43259 2.62902 0
M  V30 4085 H 393.699 0.690283 1.26377 0
M  V30 4086 H 395.652 -0.437764 4.1912 0
M  V30 4087 H 394.376 -1.03069 3.0991 0
M  V30 4088 H 393.035 1.0621 3.50878 0
M  V30 4089 H 392.683 -0.960188 4.9375 0
M  V30 4090 H 392.383 0.539415 5.85119 0
M  V30 4091 H 393.907 -0.360477 6.09535 0
M  V30 4092 H 395.321 1.8139 5.43848 0
M  V30 4093 H 393.718 2.60444 5.40638 0
M  V30 4094 H 394.788 2.74167 3.99951 0
M  V30 4095 N 396.131 -1.37776 0.765217 0
M  V30 4096 C 397.408 -1.93975 0.251596 0
M  V30 4097 C 397.788 -1.69949 -1.25222 0
M  V30 4098 O 397.136 -1.04457 -2.03226 0
M  V30 4099 C 397.346 -3.43487 0.617895 0
M  V30 4100 C 398.694 -4.20564 0.584029 0
M  V30 4101 O 399.718 -3.5182 0.556888 0
M  V30 4102 O 398.577 -5.43138 0.605291 0
M  V30 4103 H 395.671 -0.82509 0.0561806 0
M  V30 4104 H 398.217 -1.47101 0.846128 0
M  V30 4105 H 396.989 -3.5453 1.65602 0
M  V30 4106 H 396.612 -3.976 -0.00403411 0
M  V30 4107 N 397.609 -0.515225 -1.4894 0
M  V30 4108 C 398.519 0.259774 -2.33157 0
M  V30 4109 C 399.535 0.953501 -1.45548 0
M  V30 4110 O 400.711 0.931735 -1.78552 0
M  V30 4111 C 397.776 1.30193 -3.21326 0
M  V30 4112 C 396.837 0.620129 -4.24797 0
M  V30 4113 C 396.07 1.61263 -5.08753 0
M  V30 4114 O 396.293 2.84389 -4.94448 0
M  V30 4115 O 395.227 1.16013 -5.90614 0
M  V30 4116 H 399.053 -0.429932 -3.00641 0
M  V30 4117 H 396.638 -0.276346 -1.46822 0
M  V30 4118 H 398.52 1.90455 -3.75905 0
M  V30 4119 H 397.195 1.97431 -2.56521 0
M  V30 4120 H 396.102 -0.0226019 -3.74093 0
M  V30 4121 H 397.435 -0.0100493 -4.92199 0
M  V30 4122 N 399.087 1.5561 -0.249682 0
M  V30 4123 C 400.05 2.20217 0.635394 0
M  V30 4124 C 401.05 1.17227 1.10066 0
M  V30 4125 O 402.24 1.42292 1.00492 0
M  V30 4126 C 399.372 2.84794 1.87363 0
M  V30 4127 H 400.565 2.99814 0.0716752 0
M  V30 4128 H 398.118 1.563 -0.000153234 0
M  V30 4129 H 398.853 2.09142 2.47851 0
M  V30 4130 H 398.638 3.60241 1.5482 0
M  V30 4131 H 400.128 3.3423 2.5036 0
M  V30 4132 N 400.565 -0.0233959 1.57583 0
M  V30 4133 C 401.497 -1.04994 2.03737 0
M  V30 4134 C 402.51 -1.32125 0.951152 0
M  V30 4135 O 403.699 -1.29512 1.22837 0
M  V30 4136 C 400.799 -2.39026 2.40249 0
M  V30 4137 C 399.972 -2.31171 3.7132 0
M  V30 4138 C 399.031 -3.47698 3.94959 0
M  V30 4139 O 398.057 -3.26937 4.65941 0
M  V30 4140 N 399.259 -4.6976 3.41037 0
M  V30 4141 H 402.024 -0.656507 2.92421 0
M  V30 4142 H 399.585 -0.211235 1.60516 0
M  V30 4143 H 401.577 -3.15712 2.53196 0
M  V30 4144 H 400.147 -2.70194 1.57207 0
M  V30 4145 H 399.367 -1.39547 3.68674 0
M  V30 4146 H 400.655 -2.23071 4.57293 0
M  V30 4147 H 400.053 -4.89528 2.83512 0
M  V30 4148 H 398.61 -5.43791 3.59353 0
M  V30 4149 N 402.043 -1.548 -0.295768 0
M  V30 4150 C 403.289 -1.74588 -1.03184 0
M  V30 4151 C 403.622 -0.532962 -1.86744 0
M  V30 4152 O 402.897 0.469872 -1.88739 0
M  V30 4153 C 403.18 -3.03791 -1.93347 0
M  V30 4154 C 403.033 -4.35392 -1.12933 0
M  V30 4155 C 404.352 -3.28892 -2.92435 0
M  V30 4156 H 401.471 -0.635221 -0.373715 0
M  V30 4157 H 404.113 -1.87519 -0.30606 0
M  V30 4158 H 402.263 -2.92898 -2.55232 0
M  V30 4159 H 403.935 -4.58211 -0.532943 0
M  V30 4160 H 402.178 -4.31642 -0.432168 0
M  V30 4161 H 402.849 -5.22074 -1.79284 0
M  V30 4162 H 405.325 -3.39429 -2.4068 0
M  V30 4163 H 404.201 -4.20603 -3.52682 0
M  V30 4164 H 404.462 -2.47437 -3.6637 0
M  V30 4165 N 403.521 0.559213 -1.47345 0
M  V30 4166 C 404.767 1.31614 -1.55079 0
M  V30 4167 C 405.122 1.91257 -0.209422 0
M  V30 4168 O 404.415 1.74796 0.784656 0
M  V30 4169 C 404.609 2.44853 -2.6035 0
M  V30 4170 C 404.438 1.96305 -4.04591 0
M  V30 4171 C 403.208 1.8024 -4.72061 0
M  V30 4172 C 405.406 1.50872 -4.91673 0
M  V30 4173 N 403.388 1.26011 -6.00828 0
M  V30 4174 C 404.759 1.08395 -6.10451 0
M  V30 4175 C 406.814 1.38905 -4.78132 0
M  V30 4176 C 405.517 0.551399 -7.17183 0
M  V30 4177 C 407.543 0.870518 -5.84958 0
M  V30 4178 C 406.905 0.455661 -7.02925 0
M  V30 4179 H 403.004 0.473712 -0.62219 0
M  V30 4180 H 405.588 0.634103 -1.84085 0
M  V30 4181 H 403.759 3.10589 -2.33215 0
M  V30 4182 H 405.491 3.11849 -2.57938 0
M  V30 4183 H 402.246 2.02895 -4.27937 0
M  V30 4184 H 402.67 1.00991 -6.69425 0
M  V30 4185 H 407.312 1.69591 -3.87297 0
M  V30 4186 H 405.03 0.232159 -8.07766 0
M  V30 4187 H 408.616 0.781507 -5.76527 0
M  V30 4188 H 407.496 0.0606414 -7.84177 0
M  V30 4189 N 404.999 1.35443 0.805782 0
M  V30 4190 C 406.248 1.28097 1.55801 0
M  V30 4191 C 406.561 -0.142428 1.95081 0
M  V30 4192 O 407.767 -0.33817 2.69386 0
M  V30 4193 C 406.223 2.24653 2.81174 0
M  V30 4194 C 405.831 3.72342 2.49129 0
M  V30 4195 C 407.575 2.2625 3.59181 0
M  V30 4196 C 405.482 4.60719 3.70799 0
M  V30 4197 H 404.412 0.475937 0.584808 0
M  V30 4198 H 407.063 1.60712 0.885661 0
M  V30 4199 H 405.445 1.85011 3.50124 0
M  V30 4200 H 406.619 4.20624 1.88181 0
M  V30 4201 H 404.934 3.73361 1.84366 0
M  V30 4202 H 407.531 2.89495 4.49552 0
M  V30 4203 H 407.874 1.26647 3.96568 0
M  V30 4204 H 408.407 2.64426 2.97193 0
M  V30 4205 H 405.146 5.61324 3.3852 0
M  V30 4206 H 404.666 4.17163 4.3097 0
M  V30 4207 H 406.345 4.76182 4.38018 0
M  V30 4208 N 406.477 -1.02803 1.19454 0
M  V30 4209 C 407.754 -1.73299 0.907013 0
M  V30 4210 C 408.134 -2.02772 -0.587086 0
M  V30 4211 O 407.482 -1.68304 -1.54551 0
M  V30 4212 C 407.692 -3.00912 1.76785 0
M  V30 4213 C 409.04 -3.74403 2.00268 0
M  V30 4214 O 410.064 -3.10841 1.73943 0
M  V30 4215 O 408.923 -4.88675 2.4466 0
M  V30 4216 H 406.017 -0.754727 0.338106 0
M  V30 4217 H 408.563 -1.08754 1.30271 0
M  V30 4218 H 407.335 -2.75366 2.7801 0
M  V30 4219 H 406.958 -3.73197 1.37149 0
M  V30 4220 N 407.956 -0.998596 -1.21925 0
M  V30 4221 C 409.203 -0.677663 -1.90824 0
M  V30 4222 C 409.531 0.790905 -1.77693 0
M  V30 4223 O 408.786 1.58817 -1.14349 0
M  V30 4224 C 409.085 -1.03648 -3.42041 0
M  V30 4225 C 408.751 -2.49825 -3.75364 0
M  V30 4226 C 407.413 -2.8977 -3.8417 0
M  V30 4227 C 409.765 -3.44545 -3.91073 0
M  V30 4228 C 407.093 -4.23412 -4.06127 0
M  V30 4229 C 409.445 -4.77853 -4.14535 0
M  V30 4230 C 408.109 -5.17531 -4.21566 0
M  V30 4231 H 407.379 -0.247975 -0.698276 0
M  V30 4232 H 410.026 -1.25584 -1.44571 0
M  V30 4233 H 408.331 -0.376457 -3.89987 0
M  V30 4234 H 410.028 -0.766113 -3.93614 0
M  V30 4235 H 406.618 -2.17866 -3.69097 0
M  V30 4236 H 410.802 -3.14853 -3.83642 0
M  V30 4237 H 406.058 -4.53734 -4.09799 0
M  V30 4238 H 410.232 -5.51189 -4.25633 0
M  V30 4239 H 407.859 -6.21102 -4.38333 0
M  V30 4240 N 409.434 1.37368 -0.772513 0
M  V30 4241 C 410.367 2.27956 -0.105593 0
M  V30 4242 C 411.345 1.46362 0.708295 0
M  V30 4243 O 412.529 1.75695 0.682895 0
M  V30 4244 C 409.656 3.27687 0.856686 0
M  V30 4245 C 408.702 4.26312 0.1267 0
M  V30 4246 S 409.535 5.22206 -1.1858 0
M  V30 4247 C 410.691 6.25488 -0.227081 0
M  V30 4248 H 410.924 2.84171 -0.87372 0
M  V30 4249 H 408.457 1.43654 -0.565939 0
M  V30 4250 H 410.415 3.85653 1.40648 0
M  V30 4251 H 409.076 2.70417 1.59793 0
M  V30 4252 H 408.269 4.96674 0.856212 0
M  V30 4253 H 407.871 3.72339 -0.352117 0
M  V30 4254 H 410.163 6.74836 0.600231 0
M  V30 4255 H 411.106 7.02371 -0.898899 0
M  V30 4256 H 411.514 5.64267 0.162053 0
M  V30 4257 N 410.912 0.523116 1.48665 0
M  V30 4258 C 412.189 -0.0775449 1.95446 0
M  V30 4259 C 412.569 -1.5197 1.4652 0
M  V30 4260 O 411.917 -2.17876 0.688657 0
M  V30 4261 C 412.127 0.0326135 3.48985 0
M  V30 4262 C 413.475 -0.130141 4.24401 0
M  V30 4263 O 414.499 -0.0415142 3.56176 0
M  V30 4264 O 413.358 -0.31491 5.45592 0
M  V30 4265 H 410.452 -0.0831012 0.822814 0
M  V30 4266 H 412.998 0.587227 1.59216 0
M  V30 4267 H 411.77 1.03748 3.77296 0
M  V30 4268 H 411.393 -0.671317 3.91892 0
M  V30 4269 N 412.39 -1.55475 0.257931 0
M  V30 4270 C 413.3 -2.2549 -0.647425 0
M  V30 4271 C 414.316 -1.2748 -1.18427 0
M  V30 4272 O 415.492 -1.6038 -1.2182 0
M  V30 4273 C 412.557 -2.94916 -1.82278 0
M  V30 4274 C 411.618 -4.08363 -1.32432 0
M  V30 4275 C 410.851 -4.74469 -2.44366 0
M  V30 4276 O 411.074 -4.39701 -3.63344 0
M  V30 4277 O 410.008 -5.62763 -2.13497 0
M  V30 4278 H 413.834 -3.03593 -0.0807707 0
M  V30 4279 H 411.419 -1.49377 0.0259962 0
M  V30 4280 H 413.301 -3.38606 -2.50846 0
M  V30 4281 H 411.976 -2.19744 -2.37685 0
M  V30 4282 H 410.883 -3.69166 -0.605605 0
M  V30 4283 H 412.216 -4.85385 -0.816211 0
M  V30 4284 N 413.868 0.0150385 -1.57593 0
M  V30 4285 C 415.284 0.370907 -1.5523 0
M  V30 4286 C 415.484 1.75735 -0.985882 0
M  V30 4287 O 414.54 2.44944 -0.613077 0
M  V30 4288 C 415.853 0.259908 -2.99575 0
M  V30 4289 C 417.401 0.335959 -3.11192 0
M  V30 4290 C 417.876 0.254253 -4.57294 0
M  V30 4291 N 419.367 0.312618 -4.62144 0
M  V30 4292 C 420.102 0.272505 -5.72752 0
M  V30 4293 N 419.598 0.183864 -6.92556 0
M  V30 4294 N 421.391 0.323267 -5.6117 0
M  V30 4295 H 413.542 -0.892104 -1.92757 0
M  V30 4296 H 415.805 -0.340563 -0.884715 0
M  V30 4297 H 415.511 -0.693403 -3.44797 0
M  V30 4298 H 415.385 1.048 -3.62349 0
M  V30 4299 H 417.772 1.27971 -2.65909 0
M  V30 4300 H 417.853 -0.481739 -2.51223 0
M  V30 4301 H 417.497 -0.685887 -5.03247 0
M  V30 4302 H 417.427 1.09024 -5.15191 0
M  V30 4303 H 419.918 0.38307 -3.75953 0
M  V30 4304 H 420.231 0.15874 -7.72637 0
M  V30 4305 H 418.576 0.149708 -6.94839 0
M  V30 4306 H 421.767 0.390607 -4.66467 0
M  V30 4307 H 421.94 0.288539 -6.47357 0
M  V30 4308 N 415.346 1.54954 0.287554 0
M  V30 4309 C 416.294 1.87606 1.37502 0
M  V30 4310 C 417.288 0.751001 1.51843 0
M  V30 4311 O 418.494 0.935169 1.53801 0
M  V30 4312 H 414.869 0.595231 0.459569 0
M  V30 4313 H 416.84 2.78477 1.07206 0
M  V30 4314 C 415.589 2.15183 2.73115 0
M  V30 4315 H 414.912 3.01234 2.62866 0
M  V30 4316 H 416.352 2.4196 3.48183 0
M  V30 4317 C 414.811 0.954686 3.2309 0
M  V30 4318 O 415.341 0.181949 4.01288 0
M  V30 4319 N 413.547 0.756368 2.80584 0
M  V30 4320 H 413.094 1.38643 2.17108 0
M  V30 4321 H 413.052 -0.0430391 3.14371 0
M  V30 4322 N 416.824 -0.551391 1.4764 0
M  V30 4323 C 417.754 -1.66757 1.63445 0
M  V30 4324 C 418.735 -1.63077 0.483742 0
M  V30 4325 O 419.92 -1.80607 0.71377 0
M  V30 4326 C 417.05 -3.05387 1.65396 0
M  V30 4327 C 416.004 -3.23918 2.79752 0
M  V30 4328 C 415.33 -4.63393 2.66779 0
M  V30 4329 C 416.63 -3.08735 4.21284 0
M  V30 4330 H 418.324 -1.53786 2.56886 0
M  V30 4331 H 415.87 -0.738415 1.23626 0
M  V30 4332 H 417.823 -3.83325 1.75043 0
M  V30 4333 H 416.547 -3.19332 0.685195 0
M  V30 4334 H 415.206 -2.48391 2.69625 0
M  V30 4335 H 414.854 -4.74144 1.67918 0
M  V30 4336 H 414.554 -4.7674 3.43501 0
M  V30 4337 H 416.078 -5.43458 2.78364 0
M  V30 4338 H 417.492 -3.76484 4.32357 0
M  V30 4339 H 415.889 -3.33588 4.98838 0
M  V30 4340 H 416.959 -2.0541 4.39243 0
M  V30 4341 N 418.302 -1.35869 -0.798587 0
M  V30 4342 C 419.527 -1.32883 -1.59238 0
M  V30 4343 C 419.952 0.0894587 -1.87887 0
M  V30 4344 O 419.31 1.05869 -1.47178 0
M  V30 4345 C 419.358 -2.14892 -2.89575 0
M  V30 4346 O 418.462 -1.53512 -3.82763 0
M  V30 4347 H 417.803 -0.455236 -0.48338 0
M  V30 4348 H 420.333 -1.79024 -0.990539 0
M  V30 4349 H 420.343 -2.27139 -3.38928 0
M  V30 4350 H 419.018 -3.17998 -2.68049 0
M  V30 4351 H 417.595 -1.50153 -3.41334 0
M  V30 4352 N 419.78 1.02168 -1.19998 0
M  V30 4353 C 421.026 1.7606 -1.01855 0
M  V30 4354 C 421.381 1.87178 0.445222 0
M  V30 4355 O 420.674 1.3828 1.32624 0
M  V30 4356 C 420.868 3.18081 -1.62969 0
M  V30 4357 C 420.697 3.20809 -3.15137 0
M  V30 4358 C 419.467 3.28342 -3.84083 0
M  V30 4359 C 421.665 3.07268 -4.1242 0
M  V30 4360 N 419.647 3.2052 -5.23584 0
M  V30 4361 C 421.018 3.0716 -5.38566 0
M  V30 4362 C 423.073 2.91448 -4.03686 0
M  V30 4363 C 421.776 2.92853 -6.56985 0
M  V30 4364 C 423.802 2.78494 -5.21723 0
M  V30 4365 C 423.164 2.79046 -6.46771 0
M  V30 4366 H 419.263 0.655192 -0.426905 0
M  V30 4367 H 421.847 1.21564 -1.52087 0
M  V30 4368 H 420.018 3.70882 -1.15329 0
M  V30 4369 H 421.75 3.80375 -1.38192 0
M  V30 4370 H 418.505 3.34859 -3.34913 0
M  V30 4371 H 418.929 3.19997 -5.96599 0
M  V30 4372 H 423.571 2.89838 -3.07821 0
M  V30 4373 H 421.289 2.93213 -7.53028 0
M  V30 4374 H 424.875 2.67278 -5.16773 0
M  V30 4375 H 423.755 2.69134 -7.36571 0
M  V30 4376 N 421.258 1.00505 1.21394 0
M  V30 4377 C 422.221 0.570459 2.21987 0
M  V30 4378 C 423.221 -0.353211 1.56873 0
M  V30 4379 O 424.411 -0.14349 1.73608 0
M  V30 4380 C 421.543 -0.168555 3.40483 0
M  V30 4381 H 422.736 1.46021 2.6195 0
M  V30 4382 H 420.289 0.793565 1.34656 0
M  V30 4383 H 421.024 -1.07374 3.06009 0
M  V30 4384 H 420.809 0.494823 3.88965 0
M  V30 4385 H 422.299 -0.460362 4.15055 0
M  V30 4386 N 422.737 -1.36956 0.779787 0
M  V30 4387 C 423.685 -2.32053 0.15942 0
M  V30 4388 C 424.679 -1.55333 -0.675878 0
M  V30 4389 O 425.885 -1.70668 -0.57204 0
M  V30 4390 H 422.26 -0.751286 0.0327707 0
M  V30 4391 H 424.231 -2.8195 0.977078 0
M  V30 4392 C 422.98 -3.40602 -0.698977 0
M  V30 4393 H 422.303 -3.99746 -0.0655966 0
M  V30 4394 H 423.743 -4.09486 -1.09989 0
M  V30 4395 C 422.202 -2.81359 -1.85307 0
M  V30 4396 O 422.732 -2.72751 -2.94906 0
M  V30 4397 N 420.938 -2.38786 -1.65619 0
M  V30 4398 H 420.485 -2.45987 -0.764725 0
M  V30 4399 H 420.443 -1.99493 -2.43002 0
M  V30 4400 N 424.215 -0.530993 -1.48385 0
M  V30 4401 C 425.461 -0.00538653 -2.03399 0
M  V30 4402 C 425.816 1.31899 -1.40073 0
M  V30 4403 O 425.109 1.83901 -0.537676 0
M  V30 4404 C 425.303 0.172742 -3.56982 0
M  V30 4405 C 425.132 -1.13282 -4.35198 0
M  V30 4406 C 423.902 -1.69296 -4.76096 0
M  V30 4407 C 426.1 -2.04367 -4.71952 0
M  V30 4408 N 424.082 -2.9413 -5.38851 0
M  V30 4409 C 425.453 -3.13777 -5.34737 0
M  V30 4410 C 427.508 -2.04681 -4.53883 0
M  V30 4411 C 426.211 -4.23567 -5.81363 0
M  V30 4412 C 428.237 -3.13466 -5.01491 0
M  V30 4413 C 427.599 -4.21595 -5.64302 0
M  V30 4414 H 423.698 -0.0434945 -0.780789 0
M  V30 4415 H 426.282 -0.712495 -1.81195 0
M  V30 4416 H 424.453 0.848937 -3.79009 0
M  V30 4417 H 426.185 0.698046 -3.98634 0
M  V30 4418 H 422.94 -1.23422 -4.57235 0
M  V30 4419 H 423.364 -3.57689 -5.74794 0
M  V30 4420 H 428.006 -1.22378 -4.04702 0
M  V30 4421 H 425.724 -5.06648 -6.2955 0
M  V30 4422 H 429.31 -3.14765 -4.893 0
M  V30 4423 H 428.19 -5.04384 -6.00472 0
M  V30 4424 N 425.693 1.55336 -0.266172 0
M  V30 4425 C 426.918 2.04258 0.359661 0
M  V30 4426 C 427.343 1.14359 1.49344 0
M  V30 4427 O 426.701 0.140369 1.80756 0
M  V30 4428 C 426.749 3.50997 0.826635 0
M  V30 4429 O 425.853 3.64204 1.93466 0
M  V30 4430 H 425.194 0.659668 0.075727 0
M  V30 4431 H 427.724 2.00694 -0.39786 0
M  V30 4432 H 427.734 3.9219 1.12477 0
M  V30 4433 H 426.409 4.159 -0.00293032 0
M  V30 4434 H 424.986 3.34913 1.63974 0
M  V30 4435 N 427.171 -0.0066808 1.57599 0
M  V30 4436 C 428.101 -0.999296 2.11036 0
M  V30 4437 C 429.082 -1.36278 1.01795 0
M  V30 4438 O 430.267 -1.4477 1.29442 0
M  V30 4439 C 427.397 -2.29328 2.60818 0
M  V30 4440 C 426.351 -2.07159 3.74525 0
M  V30 4441 C 425.677 -3.42512 4.10596 0
M  V30 4442 C 426.977 -1.43959 5.02069 0
M  V30 4443 H 428.671 -0.554382 2.94223 0
M  V30 4444 H 426.217 -0.265221 1.41536 0
M  V30 4445 H 428.17 -2.99117 2.96828 0
M  V30 4446 H 426.894 -2.7592 1.74745 0
M  V30 4447 H 425.553 -1.39797 3.38899 0
M  V30 4448 H 425.201 -3.86795 3.21556 0
M  V30 4449 H 424.901 -3.28498 4.87199 0
M  V30 4450 H 426.425 -4.13628 4.4916 0
M  V30 4451 H 427.839 -2.03696 5.35893 0
M  V30 4452 H 426.236 -1.40452 5.83432 0
M  V30 4453 H 427.306 -0.407992 4.83181 0
M  V30 4454 N 428.649 -1.55105 -0.279332 0
M  V30 4455 C 429.877 -1.7943 -1.03017 0
M  V30 4456 C 430.292 -0.564456 -1.80165 0
M  V30 4457 O 429.649 0.466326 -1.76442 0
M  V30 4458 C 429.7 -3.0155 -1.99374 0
M  V30 4459 O 429.421 -4.19784 -1.25352 0
M  V30 4460 C 430.922 -3.3843 -2.86321 0
M  V30 4461 H 428.142 -0.597882 -0.304594 0
M  V30 4462 H 430.686 -2.02105 -0.312035 0
M  V30 4463 H 428.841 -2.81019 -2.66659 0
M  V30 4464 H 429.255 -4.88781 -1.90246 0
M  V30 4465 H 430.729 -4.27066 -3.49741 0
M  V30 4466 H 431.206 -2.57549 -3.5576 0
M  V30 4467 H 431.812 -3.61197 -2.24536 0
M  V30 4468 N 430.127 0.543554 -1.4793 0
M  V30 4469 C 431.077 1.64527 -1.57844 0
M  V30 4470 C 432.061 1.54869 -0.436408 0
M  V30 4471 O 433.253 1.63119 -0.687101 0
M  V30 4472 C 430.382 3.03281 -1.6086 0
M  V30 4473 C 429.468 3.18093 -2.80495 0
M  V30 4474 N 429.859 3.02923 -4.05057 0
M  V30 4475 C 428.157 3.49121 -2.77543 0
M  V30 4476 C 428.858 3.20791 -4.85251 0
M  V30 4477 N 427.834 3.47749 -4.17818 0
M  V30 4478 H 431.636 1.51388 -2.5191 0
M  V30 4479 H 429.15 0.748671 -1.44113 0
M  V30 4480 H 431.147 3.82403 -1.66054 0
M  V30 4481 H 429.807 3.17521 -0.678996 0
M  V30 4482 H 430.818 2.79966 -4.35705 0
M  V30 4483 H 427.495 3.69804 -1.93781 0
M  V30 4484 H 428.885 3.13915 -5.9406 0
M  V30 4485 N 431.605 1.3629 0.791371 0
M  V30 4486 C 432.552 1.30458 1.90393 0
M  V30 4487 C 433.522 0.173632 1.6519 0
M  V30 4488 O 434.707 0.35983 1.87376 0
M  V30 4489 C 431.847 1.09777 3.27174 0
M  V30 4490 C 430.96 2.31929 3.64462 0
M  V30 4491 C 430.095 2.04276 4.90352 0
M  V30 4492 C 429.134 3.224 5.20312 0
M  V30 4493 N 428.271 2.94424 6.37385 0
M  V30 4494 H 433.111 2.25589 1.94714 0
M  V30 4495 H 430.648 1.12122 0.952216 0
M  V30 4496 H 432.606 0.958133 4.06049 0
M  V30 4497 H 431.236 0.183014 3.22281 0
M  V30 4498 H 430.288 2.56703 2.80727 0
M  V30 4499 H 431.6 3.20085 3.82553 0
M  V30 4500 H 430.754 1.87231 5.77087 0
M  V30 4501 H 429.493 1.13428 4.74326 0
M  V30 4502 H 428.498 3.40005 4.32061 0
M  V30 4503 H 429.723 4.14071 5.38258 0
M  V30 4504 H 427.669 2.06185 6.22755 0
M  V30 4505 H 427.586 3.76118 6.55798 0
M  V30 4506 H 428.854 2.80953 7.27108 0
M  V30 4507 N 433.083 -1.0153 1.20538 0
M  V30 4508 C 434.36 -1.72327 0.925343 0
M  V30 4509 C 434.74 -2.03383 -0.565547 0
M  V30 4510 O 434.088 -1.69934 -1.52757 0
M  V30 4511 C 434.298 -2.9902 1.79967 0
M  V30 4512 C 435.646 -3.72258 2.04228 0
M  V30 4513 O 436.67 -3.08979 1.77231 0
M  V30 4514 O 435.529 -4.86053 2.4983 0
M  V30 4515 H 432.623 -0.751099 0.346092 0
M  V30 4516 H 435.169 -1.07366 1.31417 0
M  V30 4517 H 433.941 -2.72402 2.80915 0
M  V30 4518 H 433.564 -3.71721 1.41099 0
M  V30 4519 N 434.561 -1.01147 -1.20859 0
M  V30 4520 C 435.471 -0.58686 -2.27141 0
M  V30 4521 C 436.487 0.373198 -1.69951 0
M  V30 4522 O 437.663 0.235423 -2.00019 0
M  V30 4523 C 434.728 0.0733602 -3.46622 0
M  V30 4524 C 433.789 -0.931995 -4.19061 0
M  V30 4525 C 433.022 -0.303186 -5.32838 0
M  V30 4526 O 433.245 0.898395 -5.63281 0
M  V30 4527 O 432.179 -1.01735 -5.9324 0
M  V30 4528 H 436.005 -1.47155 -2.65667 0
M  V30 4529 H 433.59 -0.780689 -1.2738 0
M  V30 4530 H 435.472 0.442333 -4.19072 0
M  V30 4531 H 434.147 0.932329 -3.09983 0
M  V30 4532 H 433.054 -1.35224 -3.48805 0
M  V30 4533 H 434.387 -1.76076 -4.59628 0
M  V30 4534 N 436.039 1.36541 -0.78704 0
M  V30 4535 C 437.264 2.0409 -0.369053 0
M  V30 4536 C 437.689 1.58957 1.00569 0
M  V30 4537 O 437.047 0.756926 1.64743 0
M  V30 4538 C 437.095 3.57924 -0.438466 0
M  V30 4539 O 436.199 4.08642 0.555479 0
M  V30 4540 H 435.54 0.645142 -0.157122 0
M  V30 4541 H 438.07 1.74545 -1.06749 0
M  V30 4542 H 438.08 4.06887 -0.301218 0
M  V30 4543 H 436.755 3.90127 -1.44132 0
M  V30 4544 H 435.332 3.70958 0.380088 0
M  V30 4545 N 437.518 0.538854 1.48102 0
M  V30 4546 C 438.743 0.0102694 2.07397 0
M  V30 4547 C 439.168 -1.26562 1.39153 0
M  V30 4548 O 438.526 -1.75357 0.460387 0
M  V30 4549 C 438.574 -0.187602 3.60112 0
M  V30 4550 O 437.678 -1.25432 3.92862 0
M  V30 4551 H 437.019 0.0430975 0.6626 0
M  V30 4552 H 439.549 0.749301 1.90385 0
M  V30 4553 H 439.559 -0.407517 4.0596 0
M  V30 4554 H 438.234 0.744386 4.09184 0
M  V30 4555 H 436.811 -1.01636 3.58782 0
M  V30 4556 N 438.996 -1.55193 0.274407 0
M  V30 4557 C 439.959 -2.212 -0.600279 0
M  V30 4558 C 440.959 -1.18963 -1.08187 0
M  V30 4559 O 442.149 -1.43873 -0.982158 0
M  V30 4560 C 439.281 -2.87739 -1.82809 0
M  V30 4561 H 440.474 -2.9989 -0.0239682 0
M  V30 4562 H 438.027 -1.5628 0.0250192 0
M  V30 4563 H 438.762 -2.13058 -2.44493 0
M  V30 4564 H 438.547 -3.62658 -1.49069 0
M  V30 4565 H 440.037 -3.38171 -2.45011 0
M  V30 4566 N 440.474 -0.00167713 -1.576 0
M  V30 4567 C 441.437 0.974046 -2.07473 0
M  V30 4568 C 442.437 1.27143 -0.984444 0
M  V30 4569 O 443.627 1.21633 -1.24703 0
M  V30 4570 C 440.759 2.29849 -2.51759 0
M  V30 4571 H 441.952 0.54262 -2.9495 0
M  V30 4572 H 439.505 0.245829 -1.54355 0
M  V30 4573 H 440.24 2.77677 -1.67529 0
M  V30 4574 H 440.025 2.09584 -3.31386 0
M  V30 4575 H 441.515 2.9984 -2.90664 0
M  V30 4576 N 441.952 1.55251 0.271103 0
M  V30 4577 C 442.882 1.9127 1.33933 0
M  V30 4578 C 443.863 0.77478 1.5143 0
M  V30 4579 O 445.048 1.03307 1.64442 0
M  V30 4580 C 442.178 2.18627 2.69851 0
M  V30 4581 C 441.132 3.34442 2.67081 0
M  V30 4582 C 440.458 3.47284 4.06569 0
M  V30 4583 C 441.758 4.70784 2.26185 0
M  V30 4584 H 443.452 2.80744 1.04035 0
M  V30 4585 H 440.998 1.35077 0.499017 0
M  V30 4586 H 442.951 2.42413 3.44694 0
M  V30 4587 H 441.675 1.25955 3.01335 0
M  V30 4588 H 440.334 3.10627 1.94695 0
M  V30 4589 H 439.982 2.52074 4.35279 0
M  V30 4590 H 439.682 4.25152 4.0561 0
M  V30 4591 H 441.206 3.73363 4.83148 0
M  V30 4592 H 442.62 4.94102 2.90751 0
M  V30 4593 H 441.017 5.51582 2.36384 0
M  V30 4594 H 442.087 4.69478 1.21319 0
M  V30 4595 N 443.43 -0.535701 1.48216 0
M  V30 4596 C 444.363 -1.65726 1.56876 0
M  V30 4597 C 445.341 -1.57094 0.419542 0
M  V30 4598 O 446.525 -1.77648 0.630352 0
M  V30 4599 C 443.652 -3.04096 1.49142 0
M  V30 4600 C 442.698 -3.31105 2.68834 0
M  V30 4601 S 443.531 -3.18001 4.30854 0
M  V30 4602 C 444.687 -4.58828 4.25709 0
M  V30 4603 H 444.92 -1.58129 2.51759 0
M  V30 4604 H 442.453 -0.718218 1.36678 0
M  V30 4605 H 444.411 -3.839 1.45366 0
M  V30 4606 H 443.072 -3.09139 0.556067 0
M  V30 4607 H 442.265 -4.32033 2.59545 0
M  V30 4608 H 441.867 -2.58961 2.69843 0
M  V30 4609 H 444.159 -5.5023 3.95289 0
M  V30 4610 H 445.102 -4.73172 5.26796 0
M  V30 4611 H 445.51 -4.37883 3.56257 0
M  V30 4612 N 444.908 -1.36708 -0.784132 0
M  V30 4613 C 446.319 -1.27947 -1.35965 0
M  V30 4614 C 446.67 0.0784013 -1.96043 0
M  V30 4615 O 445.795 0.979989 -1.92938 0
M  V30 4616 C 446.39 -2.31689 -2.47195 0
M  V30 4617 C 444.949 -2.26601 -3.00548 0
M  V30 4618 C 444.096 -2.16184 -1.73666 0
M  V30 4619 H 447.047 -1.4751 -0.585358 0
M  V30 4620 H 447.068 -1.95638 -3.26352 0
M  V30 4621 H 446.58 -3.30506 -2.03439 0
M  V30 4622 H 444.681 -1.31268 -3.48711 0
M  V30 4623 H 444.794 -3.19508 -3.57004 0
M  V30 4624 H 443.158 -1.62524 -1.96107 0
M  V30 4625 H 443.941 -3.16896 -1.32031 0
M  V30 4626 N 446.386 1.0089 -1.21074 0
M  V30 4627 C 447.634 1.74262 -1.02358 0
M  V30 4628 C 447.955 1.89869 0.444393 0
M  V30 4629 O 447.225 1.44677 1.32081 0
M  V30 4630 H 445.805 0.645615 -0.375754 0
M  V30 4631 H 448.467 1.21596 -1.52317 0
M  V30 4632 H 447.563 2.74328 -1.4883 0
M  V30 4633 N 447.864 1.01787 1.20321 0
M  V30 4634 C 448.827 0.593972 2.2137 0
M  V30 4635 C 449.827 -0.336553 1.57239 0
M  V30 4636 O 451.017 -0.125069 1.7375 0
M  V30 4637 C 448.149 -0.132433 3.40643 0
M  V30 4638 H 449.342 1.48791 2.60387 0
M  V30 4639 H 446.895 0.807803 1.33807 0
M  V30 4640 H 447.63 -1.04123 3.0713 0
M  V30 4641 H 447.415 0.53605 3.88418 0
M  V30 4642 H 448.905 -0.416314 4.1552 0
M  V30 4643 N 449.342 -1.36122 0.79427 0
M  V30 4644 C 450.29 -2.31871 0.184023 0
M  V30 4645 C 451.284 -1.56041 -0.659365 0
M  V30 4646 O 452.49 -1.71266 -0.553906 0
M  V30 4647 H 448.865 -0.750896 0.0407373 0
M  V30 4648 H 450.836 -2.80898 1.00693 0
M  V30 4649 C 449.585 -3.41324 -0.662813 0
M  V30 4650 H 448.908 -3.99793 -0.0231944 0
M  V30 4651 H 450.348 -4.10629 -1.05639 0
M  V30 4652 C 448.807 -2.83308 -1.82313 0
M  V30 4653 O 449.337 -2.75863 -2.91997 0
M  V30 4654 N 447.543 -2.40529 -1.63077 0
M  V30 4655 H 447.09 -2.46785 -0.738591 0
M  V30 4656 H 447.048 -2.02059 -2.40872 0
M  V30 4657 N 450.82 -0.546701 -1.47814 0
M  V30 4658 C 452.231 -0.110564 -1.86372 0
M  V30 4659 C 452.582 1.31678 -1.45449 0
M  V30 4660 O 451.707 1.98889 -0.852758 0
M  V30 4661 C 452.302 -0.193873 -3.38245 0
M  V30 4662 C 450.861 0.187164 -3.75934 0
M  V30 4663 C 450.008 -0.546166 -2.71868 0
M  V30 4664 H 452.959 -0.757022 -1.39481 0
M  V30 4665 H 452.98 0.590218 -3.75895 0
M  V30 4666 H 452.492 -1.23282 -3.67999 0
M  V30 4667 H 450.593 1.22762 -3.51796 0
M  V30 4668 H 450.706 -0.164083 -4.78819 0
M  V30 4669 H 449.07 0.00953904 -2.54698 0
M  V30 4670 H 449.853 -1.58606 -3.04465 0
M  V30 4671 N 452.299 1.55045 -0.282633 0
M  V30 4672 C 453.527 2.04168 0.33512 0
M  V30 4673 C 453.942 1.16071 1.48906 0
M  V30 4674 O 453.299 0.182391 1.81586 0
M  V30 4675 C 453.35 3.52332 0.808957 0
M  V30 4676 O 453.071 4.37078 -0.299038 0
M  V30 4677 C 454.572 4.17375 1.49375 0
M  V30 4678 H 451.792 0.666744 0.0754543 0
M  V30 4679 H 454.336 2.00205 -0.416918 0
M  V30 4680 H 452.491 3.56715 1.51106 0
M  V30 4681 H 452.905 5.24458 0.0665514 0
M  V30 4682 H 454.379 5.22627 1.77664 0
M  V30 4683 H 454.856 3.65999 2.42778 0
M  V30 4684 H 455.462 4.17016 0.835305 0
M  V30 4685 N 453.777 0.010035 1.57597 0
M  V30 4686 C 455.025 -0.671371 1.90623 0
M  V30 4687 C 455.346 -1.73753 0.885151 0
M  V30 4688 O 454.616 -1.95752 -0.0760611 0
M  V30 4689 H 453.196 -0.250968 0.703579 0
M  V30 4690 H 455.858 0.0533325 1.94827 0
M  V30 4691 H 454.954 -1.13626 2.90681 0
M  V30 4692 N 455.255 -1.55392 -0.262866 0
M  V30 4693 C 456.503 -1.76127 -0.991147 0
M  V30 4694 C 456.824 -0.571083 -1.8645 0
M  V30 4695 O 456.094 0.413698 -1.91482 0
M  V30 4696 H 454.674 -0.649528 -0.368948 0
M  V30 4697 H 457.336 -1.9281 -0.284655 0
M  V30 4698 H 456.432 -2.6663 -1.62219 0
M  V30 4699 N 456.733 0.527833 -1.48498 0
M  V30 4700 C 457.979 1.28295 -1.57836 0
M  V30 4701 C 458.334 1.9077 -0.249943 0
M  V30 4702 O 457.627 1.76421 0.747402 0
M  V30 4703 C 457.821 2.39275 -2.65485 0
M  V30 4704 C 457.65 1.87679 -4.08664 0
M  V30 4705 C 456.42 1.70187 -4.75778 0
M  V30 4706 C 458.618 1.40409 -4.94762 0
M  V30 4707 N 456.6 1.13238 -6.03366 0
M  V30 4708 C 457.971 0.954216 -6.12613 0
M  V30 4709 C 460.026 1.28732 -4.8097 0
M  V30 4710 C 458.729 0.39915 -7.18192 0
M  V30 4711 C 460.755 0.746244 -5.86673 0
M  V30 4712 C 460.117 0.306457 -7.03733 0
M  V30 4713 H 456.216 0.460408 -0.632099 0
M  V30 4714 H 458.8 0.594913 -1.85388 0
M  V30 4715 H 456.971 3.05572 -2.3975 0
M  V30 4716 H 458.703 3.06308 -2.64495 0
M  V30 4717 H 455.458 1.93772 -4.32145 0
M  V30 4718 H 455.882 0.867687 -6.71417 0
M  V30 4719 H 460.524 1.61338 -3.90807 0
M  V30 4720 H 458.242 0.0607678 -8.08077 0
M  V30 4721 H 461.828 0.659041 -5.78055 0
M  V30 4722 H 460.708 -0.105708 -7.84129 0
M  V30 4723 N 458.211 1.37122 0.776871 0
M  V30 4724 C 459.439 1.3523 1.5659 0
M  V30 4725 C 459.854 -0.0635518 1.88693 0
M  V30 4726 O 459.211 -1.02394 1.51069 0
M  V30 4727 C 459.262 2.18583 2.8793 0
M  V30 4728 O 458.983 3.5465 2.57206 0
M  V30 4729 C 460.484 2.24612 3.82183 0
M  V30 4730 H 457.704 0.4634 0.485285 0
M  V30 4731 H 460.248 1.80392 0.963266 0
M  V30 4732 H 458.403 1.76943 3.4463 0
M  V30 4733 H 458.817 3.98286 3.41275 0
M  V30 4734 H 460.291 2.87267 4.71361 0
M  V30 4735 H 460.768 1.25309 4.20944 0
M  V30 4736 H 461.374 2.66543 3.31414 0
M  V30 4737 N 459.689 -1.00246 1.21608 0
M  V30 4738 C 460.599 -2.12515 0.993709 0
M  V30 4739 C 461.615 -1.73913 -0.0549939 0
M  V30 4740 O 462.791 -2.00943 0.135619 0
M  V30 4741 C 459.856 -3.42083 0.563953 0
M  V30 4742 C 458.917 -3.94843 1.68516 0
M  V30 4743 C 458.15 -5.18226 1.27582 0
M  V30 4744 O 458.373 -5.70201 0.150506 0
M  V30 4745 O 457.307 -5.64497 2.0887 0
M  V30 4746 H 461.133 -2.34152 1.93407 0
M  V30 4747 H 458.718 -1.10891 1.00118 0
M  V30 4748 H 460.6 -4.20073 0.334194 0
M  V30 4749 H 459.275 -3.21828 -0.347665 0
M  V30 4750 H 458.182 -3.18068 1.96935 0
M  V30 4751 H 459.515 -4.19512 2.5743 0
M  V30 4752 N 461.167 -1.02423 -1.1978 0
M  V30 4753 C 462.13 -0.605703 -2.21052 0
M  V30 4754 C 463.13 0.328209 -1.57415 0
M  V30 4755 O 464.32 0.115853 -1.73814 0
M  V30 4756 C 461.452 0.114366 -3.40708 0
M  V30 4757 H 462.645 -1.5017 -2.59594 0
M  V30 4758 H 460.198 -0.814888 -1.33376 0
M  V30 4759 H 460.933 1.02492 -3.07678 0
M  V30 4760 H 460.718 -0.556641 -3.88129 0
M  V30 4761 H 462.208 0.394272 -4.15735 0
M  V30 4762 N 462.645 1.35699 -0.801477 0
M  V30 4763 C 463.555 2.33661 -0.209691 0
M  V30 4764 C 464.571 1.6162 0.644591 0
M  V30 4765 O 465.747 1.93529 0.557545 0
M  V30 4766 C 462.812 3.40816 0.636033 0
M  V30 4767 C 461.873 4.28639 -0.238147 0
M  V30 4768 C 461.106 5.30676 0.567307 0
M  V30 4769 O 461.329 5.41174 1.8024 0
M  V30 4770 O 460.263 6.01887 -0.0391336 0
M  V30 4771 H 464.089 2.8606 -1.01996 0
M  V30 4772 H 461.674 1.38379 -0.563164 0
M  V30 4773 H 463.556 4.06301 1.11791 0
M  V30 4774 H 462.231 2.90696 1.42399 0
M  V30 4775 H 461.138 3.66152 -0.767044 0
M  V30 4776 H 462.471 4.82143 -0.989915 0
M  V30 4777 N 464.123 0.554532 1.47522 0
M  V30 4778 C 465.053 -0.182974 2.32782 0
M  V30 4779 C 466.034 -0.911377 1.43624 0
M  V30 4780 O 467.219 -0.892366 1.72483 0
M  V30 4781 C 464.349 -1.21513 3.25349 0
M  V30 4782 C 463.303 -0.603355 4.23726 0
M  V30 4783 C 462.629 -1.73995 5.05598 0
M  V30 4784 C 463.929 0.441121 5.20434 0
M  V30 4785 H 465.623 0.52882 2.94693 0
M  V30 4786 H 463.169 0.255759 1.41711 0
M  V30 4787 H 465.122 -1.73922 3.83835 0
M  V30 4788 H 463.846 -1.95683 2.61487 0
M  V30 4789 H 462.505 -0.10059 3.66462 0
M  V30 4790 H 462.153 -2.47063 4.38143 0
M  V30 4791 H 461.853 -1.3364 5.72201 0
M  V30 4792 H 463.377 -2.26735 5.66942 0
M  V30 4793 H 464.791 0.00319931 5.733 0
M  V30 4794 H 463.188 0.763402 5.95224 0
M  V30 4795 H 464.258 1.33799 4.66075 0
M  V30 4796 N 465.601 -1.54893 0.290851 0
M  V30 4797 C 466.826 -2.04804 -0.32712 0
M  V30 4798 C 467.251 -1.16721 -1.47506 0
M  V30 4799 O 466.609 -0.169107 -1.8051 0
M  V30 4800 C 466.657 -3.52268 -0.770689 0
M  V30 4801 O 465.761 -3.67236 -1.87647 0
M  V30 4802 H 465.102 -0.660789 -0.0652227 0
M  V30 4803 H 467.632 -2.00036 0.429739 0
M  V30 4804 H 467.642 -3.9393 -1.06223 0
M  V30 4805 H 466.317 -4.15843 0.069096 0
M  V30 4806 H 464.894 -3.37479 -1.58626 0
M  V30 4807 N 467.08 -0.0183926 -1.57589 0
M  V30 4808 C 468.491 0.521927 -1.79256 0
M  V30 4809 C 468.842 1.72885 -0.927636 0
M  V30 4810 O 467.967 2.15978 -0.135091 0
M  V30 4811 C 468.562 0.953632 -3.25102 0
M  V30 4812 C 467.121 1.43913 -3.47801 0
M  V30 4813 C 466.268 0.398837 -2.74417 0
M  V30 4814 H 469.219 -0.244485 -1.56805 0
M  V30 4815 H 469.24 1.81863 -3.34224 0
M  V30 4816 H 468.752 0.0750123 -3.88028 0
M  V30 4817 H 466.853 2.33804 -2.90115 0
M  V30 4818 H 466.966 1.45391 -4.56507 0
M  V30 4819 H 465.33 0.864572 -2.39577 0
M  V30 4820 H 466.113 -0.471132 -3.40052 0
M  V30 4821 N 468.558 1.5553 0.254621 0
M  V30 4822 C 469.783 1.81383 1.00573 0
M  V30 4823 C 470.208 0.594419 1.78461 0
M  V30 4824 O 469.566 -0.456403 1.75461 0
M  V30 4825 C 469.614 3.04892 1.92545 0
M  V30 4826 O 468.718 2.81266 3.01601 0
M  V30 4827 H 468.059 0.598969 0.286587 0
M  V30 4828 H 470.589 2.02703 0.277952 0
M  V30 4829 H 470.599 3.34119 2.34155 0
M  V30 4830 H 469.274 3.93287 1.3527 0
M  V30 4831 H 467.851 2.63185 2.64174 0
M  V30 4832 N 470.036 -0.519951 1.48776 0
M  V30 4833 C 471.284 -1.2727 1.56993 0
M  V30 4834 C 471.605 -1.9339 0.25004 0
M  V30 4835 O 470.875 -1.81822 -0.729216 0
M  V30 4836 H 469.455 -0.472732 0.578389 0
M  V30 4837 H 472.117 -0.604234 1.85297 0
M  V30 4838 H 471.213 -2.04669 2.3562 0
M  V30 4839 N 471.514 -1.37532 -0.769588 0
M  V30 4840 C 472.742 -1.36059 -1.55871 0
M  V30 4841 C 473.157 0.053544 -1.88724 0
M  V30 4842 O 472.514 1.01591 -1.5161 0
M  V30 4843 C 472.565 -2.20107 -2.86767 0
M  V30 4844 O 472.286 -3.56009 -2.55321 0
M  V30 4845 C 473.787 -2.26636 -3.80987 0
M  V30 4846 H 471.007 -0.465967 -0.482821 0
M  V30 4847 H 473.551 -1.80901 -0.953686 0
M  V30 4848 H 471.706 -1.78768 -3.43687 0
M  V30 4849 H 472.12 -4.0009 -3.39158 0
M  V30 4850 H 473.594 -2.89763 -4.69831 0
M  V30 4851 H 474.071 -1.2754 -4.20274 0
M  V30 4852 H 474.677 -2.68296 -3.29996 0
M  V30 4853 N 472.992 0.995999 -1.22138 0
M  V30 4854 C 474.239 1.7351 -1.04406 0
M  V30 4855 C 474.567 1.89884 0.421244 0
M  V30 4856 O 473.822 1.43683 1.32867 0
M  V30 4857 C 474.121 3.14553 -1.6968 0
M  V30 4858 C 473.787 3.18102 -3.19565 0
M  V30 4859 C 472.449 3.18778 -3.60464 0
M  V30 4860 C 474.801 3.14636 -4.15516 0
M  V30 4861 C 472.129 3.13684 -4.95801 0
M  V30 4862 C 474.481 3.11084 -5.50826 0
M  V30 4863 C 473.145 3.10074 -5.91109 0
M  V30 4864 H 472.415 0.634916 -0.38205 0
M  V30 4865 H 475.062 1.1667 -1.51857 0
M  V30 4866 H 473.367 3.74682 -1.14546 0
M  V30 4867 H 475.064 3.70477 -1.53454 0
M  V30 4868 H 471.654 3.18324 -2.86998 0
M  V30 4869 H 475.838 3.13266 -3.84939 0
M  V30 4870 H 471.094 3.11245 -5.26247 0
M  V30 4871 H 475.268 3.07357 -6.24904 0
M  V30 4872 H 472.895 3.05882 -6.95946 0
M  V30 4873 N 474.47 1.03057 1.19235 0
M  V30 4874 C 475.716 0.729098 1.89241 0
M  V30 4875 C 476.049 -0.740573 1.79525 0
M  V30 4876 O 475.324 -1.53946 1.18874 0
M  V30 4877 C 475.607 1.18304 3.40112 0
M  V30 4878 C 475.46 2.71406 3.5869 0
M  V30 4879 C 476.779 0.765161 4.33397 0
M  V30 4880 H 473.898 0.266338 0.687192 0
M  V30 4881 H 476.54 1.28079 1.40341 0
M  V30 4882 H 474.69 0.713672 3.81889 0
M  V30 4883 H 476.362 3.26303 3.26074 0
M  V30 4884 H 474.605 3.11717 3.01687 0
M  V30 4885 H 475.276 2.98225 4.64506 0
M  V30 4886 H 477.752 1.16889 3.99345 0
M  V30 4887 H 476.628 1.11065 5.37546 0
M  V30 4888 H 476.889 -0.332372 4.40849 0
M  V30 4889 N 475.948 -1.35272 0.808662 0
M  V30 4890 C 477.364 -1.51806 0.492653 0
M  V30 4891 C 477.564 -1.7574 -0.985778 0
M  V30 4892 O 476.62 -1.80003 -1.77074 0
M  V30 4893 C 477.933 -2.69202 1.33981 0
M  V30 4894 C 479.481 -2.8308 1.33547 0
M  V30 4895 C 479.956 -4.03502 2.16679 0
M  V30 4896 N 481.447 -4.10684 2.14227 0
M  V30 4897 C 482.182 -5.02984 2.75308 0
M  V30 4898 N 481.678 -6.00603 3.45323 0
M  V30 4899 N 483.471 -4.95746 2.64938 0
M  V30 4900 H 475.622 -1.17993 1.76611 0
M  V30 4901 H 477.885 -0.577476 0.751814 0
M  V30 4902 H 477.591 -2.581 2.38909 0
M  V30 4903 H 477.465 -3.63854 0.994491 0
M  V30 4904 H 479.852 -2.93631 0.294036 0
M  V30 4905 H 479.933 -1.89278 1.72068 0
M  V30 4906 H 479.577 -3.93711 3.20864 0
M  V30 4907 H 479.507 -4.96489 1.75517 0
M  V30 4908 H 481.998 -3.40802 1.63285 0
M  V30 4909 H 482.311 -6.67633 3.89212 0
M  V30 4910 H 480.656 -6.0077 3.49428 0
M  V30 4911 H 483.847 -4.18439 2.09825 0
M  V30 4912 H 484.02 -5.67487 3.12829 0
M  V30 4913 N 477.426 -0.562348 -1.47226 0
M  V30 4914 C 478.336 0.185466 -2.33866 0
M  V30 4915 C 479.352 0.906713 -1.48508 0
M  V30 4916 O 480.528 0.874458 -1.81425 0
M  V30 4917 C 477.593 1.19904 -3.25306 0
M  V30 4918 C 476.654 0.484669 -4.26555 0
M  V30 4919 C 475.887 1.44996 -5.13626 0
M  V30 4920 O 476.11 2.68515 -5.03245 0
M  V30 4921 O 475.044 0.971642 -5.94006 0
M  V30 4922 H 478.87 -0.525361 -2.99121 0
M  V30 4923 H 476.455 -0.322916 -1.45868 0
M  V30 4924 H 478.337 1.78399 -3.81774 0
M  V30 4925 H 477.012 1.8917 -2.62672 0
M  V30 4926 H 475.919 -0.141605 -3.73832 0
M  V30 4927 H 477.252 -0.166634 -4.91918 0
M  V30 4928 N 478.904 1.54736 -0.299062 0
M  V30 4929 C 479.851 2.23448 0.577899 0
M  V30 4930 C 480.821 1.21637 1.13109 0
M  V30 4931 O 482.006 1.50252 1.17597 0
M  V30 4932 C 479.146 2.9774 1.74484 0
M  V30 4933 C 478.259 4.1432 1.22323 0
M  V30 4934 C 477.394 4.76199 2.35388 0
M  V30 4935 C 476.433 5.84927 1.80351 0
M  V30 4936 N 475.57 6.4077 2.86982 0
M  V30 4937 H 480.41 2.97996 -0.0146545 0
M  V30 4938 H 477.947 1.47088 -0.0190013 0
M  V30 4939 H 479.905 3.39045 2.43114 0
M  V30 4940 H 478.535 2.25572 2.30905 0
M  V30 4941 H 477.587 3.7797 0.429249 0
M  V30 4942 H 478.899 4.92659 0.780309 0
M  V30 4943 H 478.053 5.20346 3.11969 0
M  V30 4944 H 476.792 3.97188 2.83006 0
M  V30 4945 H 475.797 5.40207 1.02259 0
M  V30 4946 H 477.022 6.65821 1.3364 0
M  V30 4947 H 474.968 5.64643 3.33938 0
M  V30 4948 H 474.885 7.1445 2.4718 0
M  V30 4949 H 476.153 6.89574 3.63466 0
M  V30 4950 N 480.382 0.0267497 1.57577 0
M  V30 4951 C 481.631 -0.651736 1.9088 0
M  V30 4952 C 481.944 -1.73427 0.904576 0
M  V30 4953 O 483.15 -2.46923 1.12877 0
M  V30 4954 C 481.606 -1.21048 3.38933 0
M  V30 4955 C 481.214 -0.161362 4.47709 0
M  V30 4956 C 482.958 -1.86562 3.81307 0
M  V30 4957 C 480.865 -0.731611 5.86857 0
M  V30 4958 H 479.795 -0.247198 0.712326 0
M  V30 4959 H 482.446 0.0916641 1.83271 0
M  V30 4960 H 480.828 -2.00542 3.41466 0
M  V30 4961 H 482.002 0.61094 4.56732 0
M  V30 4962 H 480.317 0.394877 4.14523 0
M  V30 4963 H 482.914 -2.30178 4.8262 0
M  V30 4964 H 483.257 -2.70735 3.16241 0
M  V30 4965 H 483.79 -1.13762 3.81186 0
M  V30 4966 H 480.529 0.0719329 6.55461 0
M  V30 4967 H 480.049 -1.47245 5.81445 0
M  V30 4968 H 481.728 -1.22208 6.35354 0
M  V30 4969 N 481.861 -1.55662 -0.24637 0
M  V30 4970 C 483.277 -1.48098 -0.594907 0
M  V30 4971 C 483.477 -0.717044 -1.8831 0
M  V30 4972 O 482.533 -0.246618 -2.51293 0
M  V30 4973 C 483.846 -2.92507 -0.697146 0
M  V30 4974 C 485.394 -3.02881 -0.789436 0
M  V30 4975 C 485.869 -4.48598 -0.923232 0
M  V30 4976 N 487.36 -4.52538 -0.988088 0
M  V30 4977 C 488.095 -5.62536 -1.11089 0
M  V30 4978 N 487.591 -6.82342 -1.19919 0
M  V30 4979 N 489.384 -5.50334 -1.14408 0
M  V30 4980 H 481.535 -2.0377 0.599278 0
M  V30 4981 H 483.798 -0.925145 0.20691 0
M  V30 4982 H 483.504 -3.51242 0.179396 0
M  V30 4983 H 483.378 -3.43024 -1.5689 0
M  V30 4984 H 485.765 -2.44226 -1.65643 0
M  V30 4985 H 485.846 -2.55574 0.107482 0
M  V30 4986 H 485.49 -5.07864 -0.0607927 0
M  V30 4987 H 485.42 -4.93587 -1.8352 0
M  V30 4988 H 487.911 -3.66248 -0.931167 0
M  V30 4989 H 488.224 -7.61924 -1.29197 0
M  V30 4990 H 486.569 -6.85102 -1.16876 0
M  V30 4991 H 489.76 -4.5567 -1.07158 0
M  V30 4992 H 489.933 -6.36096 -1.23634 0
M  V30 4993 N 483.339 0.512053 -1.4905 0
M  V30 4994 C 484.249 1.64139 -1.67617 0
M  V30 4995 C 485.265 1.64786 -0.558701 0
M  V30 4996 O 486.441 1.8341 -0.832034 0
M  V30 4997 C 483.506 3.00548 -1.72835 0
M  V30 4998 C 482.567 3.10615 -2.96339 0
M  V30 4999 C 481.8 4.40517 -3.01298 0
M  V30 5000 O 482.023 5.28671 -2.14157 0
M  V30 5001 O 480.957 4.55325 -3.93653 0
M  V30 5002 H 484.783 1.51407 -2.63267 0
M  V30 5003 H 482.368 0.687131 -1.32661 0
M  V30 5004 H 484.25 3.81641 -1.78683 0
M  V30 5005 H 482.925 3.13566 -0.803616 0
M  V30 5006 H 481.832 2.2875 -2.96014 0
M  V30 5007 H 483.165 3.0252 -3.88256 0
M  V30 5008 N 484.817 1.37938 0.762283 0
M  V30 5009 C 486.042 1.37059 1.55659 0
M  V30 5010 C 486.467 -0.0396123 1.88058 0
M  V30 5011 O 485.825 -1.01929 1.49934 0
M  V30 5012 C 485.873 2.22494 2.83776 0
M  V30 5013 O 484.977 1.63607 3.78559 0
M  V30 5014 H 484.318 0.467892 0.47114 0
M  V30 5015 H 486.848 1.81587 0.942725 0
M  V30 5016 H 486.858 2.36045 3.32786 0
M  V30 5017 H 485.533 3.24993 2.59524 0
M  V30 5018 H 484.11 1.5915 3.37233 0
M  V30 5019 N 486.295 -0.989507 1.22664 0
M  V30 5020 C 487.258 -2.06183 1.00106 0
M  V30 5021 C 488.258 -1.60765 -0.0337726 0
M  V30 5022 O 489.448 -1.72989 0.205072 0
M  V30 5023 C 486.58 -3.37021 0.51279 0
M  V30 5024 H 487.773 -2.27629 1.95256 0
M  V30 5025 H 485.326 -1.16158 1.0458 0
M  V30 5026 H 486.061 -3.21261 -0.442917 0
M  V30 5027 H 485.846 -3.71323 1.25942 0
M  V30 5028 H 487.336 -4.1591 0.375315 0
M  V30 5029 N 487.773 -1.03688 -1.18687 0
M  V30 5030 C 488.998 -0.757819 -1.93059 0
M  V30 5031 C 489.423 0.678353 -1.75442 0
M  V30 5032 O 488.781 1.46938 -1.06203 0
M  V30 5033 C 488.829 -1.12423 -3.42627 0
M  V30 5034 O 487.933 -0.247505 -4.11657 0
M  V30 5035 H 487.274 -0.279245 -0.602427 0
M  V30 5036 H 489.804 -1.3857 -1.5053 0
M  V30 5037 H 489.814 -1.08454 -3.93322 0
M  V30 5038 H 488.489 -2.17049 -3.54771 0
M  V30 5039 H 487.066 -0.34649 -3.71287 0
M  V30 5040 N 489.251 1.34841 -0.815825 0
M  V30 5041 C 490.5 1.97755 -0.396976 0
M  V30 5042 C 490.813 1.65422 1.04379 0
M  V30 5043 O 492.019 2.21771 1.5662 0
M  V30 5044 C 490.475 3.53818 -0.658869 0
M  V30 5045 C 490.083 3.95051 -2.11278 0
M  V30 5046 C 491.827 4.23397 -0.305834 0
M  V30 5047 C 489.734 5.43997 -2.31994 0
M  V30 5048 H 488.664 0.739985 -0.1447 0
M  V30 5049 H 491.315 1.53781 -1.00118 0
M  V30 5050 H 489.697 3.95997 0.0154112 0
M  V30 5051 H 490.871 3.63998 -2.82564 0
M  V30 5052 H 489.186 3.38388 -2.42657 0
M  V30 5053 H 491.783 5.32899 -0.43854 0
M  V30 5054 H 492.126 4.09508 0.748952 0
M  V30 5055 H 492.659 3.8667 -0.934403 0
M  V30 5056 H 489.398 5.62865 -3.35952 0
M  V30 5057 H 488.918 5.76589 -1.65244 0
M  V30 5058 H 490.597 6.10584 -2.14001 0
M  V30 5059 N 490.729 0.570148 1.46925 0
M  V30 5060 C 492.14 0.1402 1.86173 0
M  V30 5061 C 492.491 -1.29347 1.47526 0
M  V30 5062 O 491.616 -1.97508 0.884292 0
M  V30 5063 C 492.211 0.247661 3.37894 0
M  V30 5064 C 490.77 -0.127332 3.76185 0
M  V30 5065 C 489.917 0.589349 2.70965 0
M  V30 5066 H 492.868 0.779117 1.38259 0
M  V30 5067 H 492.889 -0.530341 3.76786 0
M  V30 5068 H 492.401 1.29121 3.65991 0
M  V30 5069 H 490.502 -1.17149 3.53704 0
M  V30 5070 H 490.615 0.240238 4.78497 0
M  V30 5071 H 488.979 0.0309824 2.54681 0
M  V30 5072 H 489.762 1.6343 3.01903 0
M  V30 5073 N 492.207 -1.54576 0.307264 0
M  V30 5074 C 493.618 -1.8579 -0.184121 0
M  V30 5075 C 493.969 -1.22914 -1.52927 0
M  V30 5076 O 493.094 -0.529126 -2.09831 0
M  V30 5077 C 493.689 -3.37081 -0.340862 0
M  V30 5078 C 492.248 -3.68304 -0.776465 0
M  V30 5079 C 491.395 -2.77076 0.111503 0
M  V30 5080 H 494.346 -1.49656 0.528078 0
M  V30 5081 H 494.367 -3.61922 -1.17443 0
M  V30 5082 H 493.879 -3.82815 0.638309 0
M  V30 5083 H 491.98 -3.28092 -1.76596 0
M  V30 5084 H 492.093 -4.75434 -0.591512 0
M  V30 5085 H 490.457 -2.51374 -0.410256 0
M  V30 5086 H 491.24 -3.25632 1.08714 0
M  V30 5087 N 493.685 -0.035106 -1.57561 0
M  V30 5088 C 494.91 0.655802 -1.96759 0
M  V30 5089 C 495.335 1.64523 -0.911809 0
M  V30 5090 O 494.693 1.80857 0.126673 0
M  V30 5091 C 494.741 1.33326 -3.35047 0
M  V30 5092 O 493.845 2.44866 -3.31835 0
M  V30 5093 H 493.186 0.171807 -0.641388 0
M  V30 5094 H 495.716 -0.0987369 -2.04362 0
M  V30 5095 H 495.726 1.68867 -3.71413 0
M  V30 5096 H 494.401 0.608033 -4.11431 0
M  V30 5097 H 492.978 2.11392 -3.07193 0
M  V30 5098 N 495.163 1.55791 0.238111 0
M  V30 5099 C 496.44 1.68798 0.98826 0
M  V30 5100 C 496.82 0.577562 2.03045 0
M  V30 5101 O 496.168 -0.41778 2.24648 0
M  V30 5102 C 496.378 3.09454 1.61367 0
M  V30 5103 C 497.726 3.68335 2.11221 0
M  V30 5104 O 498.75 3.1231 1.71292 0
M  V30 5105 O 497.609 4.6657 2.84561 0
M  V30 5106 H 494.703 0.686881 0.460568 0
M  V30 5107 H 497.249 1.68118 0.231202 0
M  V30 5108 H 496.021 3.81726 0.860295 0
M  V30 5109 H 495.644 3.14182 2.4367 0
M  V30 5110 N 496.642 -0.504142 1.49319 0
M  V30 5111 C 498.053 -1.08572 1.51885 0
M  V30 5112 C 498.404 -1.93842 0.303255 0
M  V30 5113 O 497.529 -2.0828 -0.58724 0
M  V30 5114 C 498.124 -1.97574 2.75227 0
M  V30 5115 C 496.683 -2.509 2.80581 0
M  V30 5116 C 495.83 -1.28447 2.45757 0
M  V30 5117 H 498.781 -0.288194 1.56061 0
M  V30 5118 H 498.802 -2.82219 2.55211 0
M  V30 5119 H 498.314 -1.35486 3.63683 0
M  V30 5120 H 496.415 -3.16636 1.96398 0
M  V30 5121 H 496.528 -2.88268 3.82673 0
M  V30 5122 H 494.892 -1.60868 1.97468 0
M  V30 5123 H 495.675 -0.68072 3.36483 0
M  V30 5124 N 498.12 -1.38341 -0.754957 0
M  V30 5125 C 499.348 -1.37704 -1.54419 0
M  V30 5126 C 499.763 0.0335243 -1.8877 0
M  V30 5127 O 499.12 0.999773 -1.52679 0
M  V30 5128 C 499.171 -2.23136 -2.84416 0
M  V30 5129 O 498.892 -3.58697 -2.51531 0
M  V30 5130 C 500.393 -2.30664 -3.78562 0
M  V30 5131 H 497.613 -0.471061 -0.477852 0
M  V30 5132 H 500.157 -1.81902 -0.934446 0
M  V30 5133 H 498.312 -1.82403 -3.41772 0
M  V30 5134 H 498.726 -4.03665 -3.34896 0
M  V30 5135 H 500.2 -2.9473 -4.66732 0
M  V30 5136 H 500.677 -1.3199 -4.18898 0
M  V30 5137 H 501.283 -2.71781 -3.27131 0
M  V30 5138 N 499.598 0.982988 -1.23187 0
M  V30 5139 C 501.009 1.53847 -1.05773 0
M  V30 5140 C 501.36 1.92568 0.375744 0
M  V30 5141 O 500.485 1.75783 1.26211 0
M  V30 5142 C 501.08 2.79567 -1.91384 0
M  V30 5143 C 499.639 3.31524 -1.78238 0
M  V30 5144 C 498.786 2.04534 -1.87246 0
M  V30 5145 H 501.737 0.802962 -1.36888 0
M  V30 5146 H 501.758 3.52317 -1.43711 0
M  V30 5147 H 501.27 2.51353 -2.95708 0
M  V30 5148 H 499.371 3.64623 -0.766875 0
M  V30 5149 H 499.484 4.01457 -2.61475 0
M  V30 5150 H 497.848 2.1855 -1.30797 0
M  V30 5151 H 498.631 1.78706 -2.9312 0
M  V30 5152 N 501.076 1.04316 1.18135 0
M  V30 5153 C 502.487 0.775505 1.69832 0
M  V30 5154 C 502.838 -0.703348 1.8316 0
M  V30 5155 O 501.963 -1.54729 1.51287 0
M  V30 5156 C 502.558 1.40112 3.0847 0
M  V30 5157 C 501.117 1.18172 3.57368 0
M  V30 5158 C 500.264 1.49022 2.33854 0
M  V30 5159 H 503.215 1.20925 1.02775 0
M  V30 5160 H 503.236 0.805672 3.71873 0
M  V30 5161 H 502.748 2.47744 2.98738 0
M  V30 5162 H 500.849 0.124258 3.72393 0
M  V30 5163 H 500.962 1.8805 4.40652 0
M  V30 5164 H 499.326 0.909995 2.37889 0
M  V30 5165 H 500.109 2.57768 2.26738 0
M  V30 5166 N 502.554 -1.34406 0.822964 0
M  V30 5167 C 503.779 -2.0304 0.423034 0
M  V30 5168 C 504.204 -1.61568 -0.963196 0
M  V30 5169 O 503.562 -0.800339 -1.62678 0
M  V30 5170 C 503.61 -3.56636 0.53321 0
M  V30 5171 O 502.714 -4.09971 -0.446939 0
M  V30 5172 H 502.055 -0.64075 0.174171 0
M  V30 5173 H 504.585 -1.71653 1.11339 0
M  V30 5174 H 504.595 -4.05945 0.408991 0
M  V30 5175 H 503.27 -3.86168 1.54425 0
M  V30 5176 H 501.847 -3.71835 -0.281601 0
M  V30 5177 N 504.032 -0.577932 -1.46621 0
M  V30 5178 C 505.309 0.00495287 -1.95599 0
M  V30 5179 C 505.689 1.46428 -1.5206 0
M  V30 5180 O 505.037 2.1517 -0.769046 0
M  V30 5181 C 505.247 -0.162114 -3.48623 0
M  V30 5182 C 506.595 -0.0274623 -4.24591 0
M  V30 5183 O 507.619 -0.0907067 -3.56084 0
M  V30 5184 O 506.478 0.1122 -5.46385 0
M  V30 5185 H 503.572 0.0525057 -0.825332 0
M  V30 5186 H 506.118 -0.645914 -1.56927 0
M  V30 5187 H 504.89 -1.17679 -3.73185 0
M  V30 5188 H 504.513 0.525407 -3.94113 0
M  V30 5189 N 505.51 1.54411 -0.315457 0
M  V30 5190 C 506.921 1.85885 0.174265 0
M  V30 5191 C 507.272 1.23723 1.52273 0
M  V30 5192 O 506.397 0.540246 2.09548 0
M  V30 5193 C 506.992 3.37257 0.322981 0
M  V30 5194 C 505.551 3.68711 0.756922 0
M  V30 5195 C 504.698 2.77013 -0.126195 0
M  V30 5196 H 507.649 1.49374 -0.536007 0
M  V30 5197 H 507.67 3.62539 1.15522 0
M  V30 5198 H 507.182 3.82471 -0.658602 0
M  V30 5199 H 505.283 3.29024 1.74854 0
M  V30 5200 H 505.396 4.75741 0.566291 0
M  V30 5201 H 503.76 2.51588 0.39692 0
M  V30 5202 H 504.543 3.25051 -1.1044 0
M  V30 5203 N 506.988 0.0434614 1.5754 0
M  V30 5204 C 508.236 -0.630786 1.92004 0
M  V30 5205 C 508.557 -1.71836 0.921807 0
M  V30 5206 O 507.827 -1.9587 -0.034522 0
M  V30 5207 H 506.407 -0.235988 0.708745 0
M  V30 5208 H 509.069 0.0946462 1.9467 0
M  V30 5209 H 508.165 -1.07434 2.93026 0
M  V30 5210 N 508.466 -1.55915 -0.229846 0
M  V30 5211 C 509.376 -1.94891 -1.30593 0
M  V30 5212 C 510.392 -0.851604 -1.51736 0
M  V30 5213 O 511.568 -1.15447 -1.65027 0
M  V30 5214 C 508.633 -2.25052 -2.63728 0
M  V30 5215 C 507.694 -3.48306 -2.5096 0
M  V30 5216 C 506.927 -3.77019 -3.77747 0
M  V30 5217 O 507.15 -3.07534 -4.80395 0
M  V30 5218 O 506.084 -4.70523 -3.75356 0
M  V30 5219 H 509.91 -2.86581 -1.00525 0
M  V30 5220 H 507.495 -1.43017 -0.432025 0
M  V30 5221 H 509.377 -2.45682 -3.42372 0
M  V30 5222 H 508.052 -1.36538 -2.93495 0
M  V30 5223 H 506.959 -3.32964 -1.70546 0
M  V30 5224 H 508.292 -4.37177 -2.26136 0
M  V30 5225 N 509.944 0.496216 -1.49584 0
M  V30 5226 C 511.355 1.07765 -1.52459 0
M  V30 5227 C 511.706 1.93679 -0.31353 0
M  V30 5228 O 510.831 2.08588 0.576186 0
M  V30 5229 C 511.426 1.96111 -2.76271 0
M  V30 5230 C 509.985 2.49409 -2.81908 0
M  V30 5231 C 509.132 1.27142 -2.46435 0
M  V30 5232 H 512.083 0.279914 -1.56212 0
M  V30 5233 H 512.104 2.80862 -2.56704 0
M  V30 5234 H 511.616 1.33555 -3.64396 0
M  V30 5235 H 509.717 3.1559 -1.98074 0
M  V30 5236 H 509.83 2.86234 -3.84196 0
M  V30 5237 H 508.194 1.59818 -1.98319 0
M  V30 5238 H 508.977 0.662866 -3.3684 0
M  V30 5239 N 511.423 1.38739 0.74761 0
M  V30 5240 C 512.7 1.25791 1.49786 0
M  V30 5241 C 513.08 -0.138075 2.10648 0
M  V30 5242 O 512.428 -1.14815 1.9756 0
M  V30 5243 C 512.638 2.37265 2.55942 0
M  V30 5244 C 513.986 2.75978 3.22679 0
M  V30 5245 O 515.01 2.36621 2.6625 0
M  V30 5246 O 513.869 3.43867 4.24756 0
M  V30 5247 H 510.963 0.492251 0.664543 0
M  V30 5248 H 513.509 1.50582 0.782511 0
M  V30 5249 H 512.281 3.30644 2.0926 0
M  V30 5250 H 511.904 2.14071 3.35051 0
M  V30 5251 N 512.901 -0.976442 1.23707 0
M  V30 5252 C 514.312 -1.53284 1.06587 0
M  V30 5253 C 514.663 -1.92765 -0.365526 0
M  V30 5254 O 513.788 -1.7645 -1.25277 0
M  V30 5255 C 514.383 -2.78548 1.92864 0
M  V30 5256 C 512.942 -3.30574 1.79994 0
M  V30 5257 C 512.089 -2.03538 1.88328 0
M  V30 5258 H 515.04 -0.795692 1.37311 0
M  V30 5259 H 515.061 -3.5155 1.45577 0
M  V30 5260 H 514.573 -2.49782 2.97037 0
M  V30 5261 H 512.674 -3.64211 0.786202 0
M  V30 5262 H 512.787 -4.00065 2.636 0
M  V30 5263 H 511.151 -2.17853 1.31954 0
M  V30 5264 H 511.934 -1.77149 2.94063 0
M  V30 5265 N 514.379 -1.04941 -1.1758 0
M  V30 5266 C 515.607 -0.778294 -1.91703 0
M  V30 5267 C 516.022 0.665697 -1.76675 0
M  V30 5268 O 515.379 1.45456 -1.10222 0
M  V30 5269 C 515.43 -1.14628 -3.42845 0
M  V30 5270 O 515.151 -2.53359 -3.57409 0
M  V30 5271 C 516.652 -0.900931 -4.34049 0
M  V30 5272 H 513.872 -0.283167 -0.608323 0
M  V30 5273 H 516.416 -1.39942 -1.49119 0
M  V30 5274 H 514.571 -0.569953 -3.83184 0
M  V30 5275 H 514.985 -2.67709 -4.51035 0
M  V30 5276 H 516.459 -1.20817 -5.38616 0
M  V30 5277 H 516.936 0.163966 -4.38894 0
M  V30 5278 H 517.542 -1.46097 -3.99419 0
M  V30 5279 N 515.857 1.33968 -0.830081 0
M  V30 5280 C 517.268 1.80439 -0.479455 0
M  V30 5281 C 517.619 1.68756 1.00079 0
M  V30 5282 O 516.744 1.23171 1.77927 0
M  V30 5283 C 517.339 3.27611 -0.863505 0
M  V30 5284 C 515.898 3.72133 -0.565145 0
M  V30 5285 C 515.045 2.55549 -1.07657 0
M  V30 5286 H 517.996 1.21614 -1.0196 0
M  V30 5287 H 518.017 3.8012 -0.170083 0
M  V30 5288 H 517.529 3.36082 -1.94089 0
M  V30 5289 H 515.63 3.69196 0.502536 0
M  V30 5290 H 515.743 4.65963 -1.11422 0
M  V30 5291 H 514.107 2.49788 -0.497807 0
M  V30 5292 H 514.89 2.66786 -2.16055 0
M  V30 5293 N 517.335 0.585699 1.46312 0
M  V30 5294 C 518.746 0.159938 1.86014 0
M  V30 5295 C 519.097 -1.27775 1.48889 0
M  V30 5296 O 518.222 -1.96559 0.90519 0
M  V30 5297 C 518.817 0.283485 3.37612 0
M  V30 5298 C 517.376 -0.0874256 3.76298 0
M  V30 5299 C 516.523 0.618055 2.70325 0
M  V30 5300 H 519.474 0.793737 1.37425 0
M  V30 5301 H 519.495 -0.490348 3.77327 0
M  V30 5302 H 519.007 1.32995 3.64601 0
M  V30 5303 H 517.108 -1.13391 3.54927 0
M  V30 5304 H 517.221 0.290975 4.78216 0
M  V30 5305 H 515.585 0.057993 2.54634 0
M  V30 5306 H 516.368 1.66623 3.00153 0
M  V30 5307 N 518.813 -1.54241 0.323641 0
M  V30 5308 C 520.038 -2.05452 -0.283605 0
M  V30 5309 C 520.463 -1.19823 -1.44997 0
M  V30 5310 O 519.821 -0.207358 -1.8011 0
M  V30 5311 C 519.869 -3.53823 -0.695795 0
M  V30 5312 O 518.973 -3.71134 -1.79815 0
M  V30 5313 H 518.314 -0.662024 -0.0511917 0
M  V30 5314 H 520.844 -1.99079 0.472073 0
M  V30 5315 H 520.854 -3.96094 -0.978434 0
M  V30 5316 H 519.529 -4.15602 0.157287 0
M  V30 5317 H 518.106 -3.40768 -1.51431 0
M  V30 5318 N 520.291 -0.0518155 -1.57515 0
M  V30 5319 C 521.568 0.661727 -1.84067 0
M  V30 5320 C 521.948 1.88999 -0.940351 0
M  V30 5321 O 521.296 2.285 -0.00155404 0
M  V30 5322 C 521.506 1.01841 -3.3381 0
M  V30 5323 C 522.854 1.40043 -4.00841 0
M  V30 5324 O 523.878 1.11073 -3.38439 0
M  V30 5325 O 522.737 1.94111 -5.10865 0
M  V30 5326 H 519.831 0.326702 -0.759733 0
M  V30 5327 H 522.377 -0.0812277 -1.69505 0
M  V30 5328 H 521.149 0.145202 -3.91031 0
M  V30 5329 H 520.772 1.81879 -3.53562 0
M  V30 5330 N 521.769 1.56035 0.221574 0
M  V30 5331 C 523.18 1.69229 0.788567 0
M  V30 5332 C 523.531 0.653814 1.84986 0
M  V30 5333 O 522.656 -0.195065 2.15519 0
M  V30 5334 C 523.251 3.06809 1.43713 0
M  V30 5335 C 521.81 3.21858 1.95152 0
M  V30 5336 C 520.957 2.65155 0.811685 0
M  V30 5337 H 523.908 1.587 -0.00307894 0
M  V30 5338 H 523.929 3.02666 2.30594 0
M  V30 5339 H 523.441 3.82369 0.664475 0
M  V30 5340 H 521.542 2.51167 2.7522 0
M  V30 5341 H 521.655 4.29073 2.1315 0
M  V30 5342 H 520.019 2.23635 1.21899 0
M  V30 5343 H 520.802 3.43261 0.0516987 0
M  V30 5344 N 523.247 -0.488276 1.49845 0
M  V30 5345 C 524.495 -1.23911 1.59657 0
M  V30 5346 C 524.816 -1.92816 0.291005 0
M  V30 5347 O 524.086 -1.83328 -0.690485 0
M  V30 5348 H 522.666 -0.460357 0.588286 0
M  V30 5349 H 525.328 -0.564794 1.86537 0
M  V30 5350 H 524.424 -1.99625 2.39909 0
M  V30 5351 N 524.725 -1.39134 -0.740242 0
M  V30 5352 C 525.635 -1.39697 -1.88473 0
M  V30 5353 C 526.651 -0.292403 -1.71526 0
M  V30 5354 O 527.827 -0.533021 -1.94219 0
M  V30 5355 C 524.892 -1.23382 -3.24003 0
M  V30 5356 C 523.953 -2.43763 -3.53381 0
M  V30 5357 C 523.186 -2.28216 -4.82445 0
M  V30 5358 O 523.409 -1.28288 -5.55786 0
M  V30 5359 O 522.343 -3.1709 -5.11603 0
M  V30 5360 H 526.169 -2.36159 -1.90952 0
M  V30 5361 H 523.754 -1.20194 -0.887346 0
M  V30 5362 H 525.636 -1.16395 -4.05006 0
M  V30 5363 H 524.311 -0.300121 -3.22306 0
M  V30 5364 H 523.218 -2.56325 -2.72485 0
M  V30 5365 H 524.551 -3.35808 -3.59852 0
M  V30 5366 N 526.204 0.969867 -1.24223 0
M  V30 5367 C 527.434 1.74502 -1.106 0
M  V30 5368 C 527.842 1.86038 0.344483 0
M  V30 5369 O 527.185 1.3465 1.24961 0
M  V30 5370 C 527.247 3.18391 -1.66935 0
M  V30 5371 C 526.911 3.30334 -3.15798 0
M  V30 5372 C 527.908 3.15832 -4.12973 0
M  V30 5373 C 525.593 3.54644 -3.55715 0
M  V30 5374 C 527.587 3.25461 -5.48045 0
M  V30 5375 C 525.274 3.63912 -4.90929 0
M  V30 5376 C 526.272 3.49332 -5.86904 0
M  V30 5377 O 525.96 3.58251 -7.1966 0
M  V30 5378 H 525.692 0.554119 -0.387206 0
M  V30 5379 H 528.246 1.22646 -1.64764 0
M  V30 5380 H 526.476 3.71543 -1.07203 0
M  V30 5381 H 528.165 3.77707 -1.48634 0
M  V30 5382 H 528.931 2.96937 -3.83476 0
M  V30 5383 H 524.81 3.65059 -2.81519 0
M  V30 5384 H 528.354 3.13998 -6.22937 0
M  V30 5385 H 524.251 3.82319 -5.20098 0
M  V30 5386 H 525.019 3.7498 -7.27552 0
M  V30 5387 N 527.682 1.05563 1.17022 0
M  V30 5388 C 529.093 0.793475 1.69 0
M  V30 5389 C 529.444 -0.683882 1.83895 0
M  V30 5390 O 528.569 -1.53116 1.5292 0
M  V30 5391 C 529.164 1.43376 3.06967 0
M  V30 5392 C 527.723 1.21956 3.56095 0
M  V30 5393 C 526.87 1.51494 2.3226 0
M  V30 5394 H 529.821 1.22008 1.01487 0
M  V30 5395 H 529.842 0.845068 3.70997 0
M  V30 5396 H 529.354 2.50899 2.96093 0
M  V30 5397 H 527.455 0.163749 3.7224 0
M  V30 5398 H 527.568 1.92713 4.38633 0
M  V30 5399 H 525.932 0.935175 2.3691 0
M  V30 5400 H 526.715 2.60159 2.23992 0
M  V30 5401 N 529.16 -1.33526 0.837174 0
M  V30 5402 C 530.123 -2.27551 0.274421 0
M  V30 5403 C 531.123 -1.50886 -0.555881 0
M  V30 5404 O 532.313 -1.70227 -0.369918 0
M  V30 5405 C 529.445 -3.35332 -0.613605 0
M  V30 5406 H 530.638 -2.78837 1.10408 0
M  V30 5407 H 528.191 -1.439 0.610126 0
M  V30 5408 H 528.926 -2.89285 -1.46577 0
M  V30 5409 H 528.711 -3.92095 -0.0195341 0
M  V30 5410 H 530.201 -4.05433 -1.00068 0
M  V30 5411 N 530.638 -0.59345 -1.46 0
M  V30 5412 C 531.884 -0.0916503 -2.03193 0
M  V30 5413 C 532.239 1.25839 -1.45541 0
M  V30 5414 O 531.532 1.81455 -0.615191 0
M  V30 5415 C 531.726 0.021178 -3.57394 0
M  V30 5416 C 531.555 -1.31638 -4.30002 0
M  V30 5417 C 530.325 -1.89336 -4.68487 0
M  V30 5418 C 532.523 -2.242 -4.62859 0
M  V30 5419 N 530.505 -3.1672 -5.25891 0
M  V30 5420 C 531.876 -3.36175 -5.20948 0
M  V30 5421 C 533.931 -2.23748 -4.44794 0
M  V30 5422 C 532.634 -4.47844 -5.62875 0
M  V30 5423 C 534.66 -3.34454 -4.87744 0
M  V30 5424 C 534.022 -4.4515 -5.45913 0
M  V30 5425 H 530.121 -0.0765713 -0.778242 0
M  V30 5426 H 532.705 -0.788705 -1.7801 0
M  V30 5427 H 530.876 0.687423 -3.82268 0
M  V30 5428 H 532.608 0.528343 -4.01236 0
M  V30 5429 H 529.363 -1.42704 -4.51589 0
M  V30 5430 H 529.787 -3.81746 -5.59106 0
M  V30 5431 H 534.429 -1.39433 -3.99147 0
M  V30 5432 H 532.147 -5.32894 -6.07495 0
M  V30 5433 H 535.733 -3.35234 -4.75509 0
M  V30 5434 H 534.613 -5.29398 -5.78539 0
M  V30 5435 N 532.116 1.54067 -0.331816 0
M  V30 5436 C 533.393 1.92915 0.322955 0
M  V30 5437 C 533.773 1.26225 1.69205 0
M  V30 5438 O 533.121 0.408919 2.24811 0
M  V30 5439 C 533.331 3.46619 0.406946 0
M  V30 5440 C 534.679 4.19386 0.663339 0
M  V30 5441 O 535.703 3.5282 0.489536 0
M  V30 5442 O 534.562 5.37288 0.999193 0
M  V30 5443 H 531.656 0.805808 0.186016 0
M  V30 5444 H 534.202 1.65342 -0.382135 0
M  V30 5445 H 532.974 3.87354 -0.554287 0
M  V30 5446 H 532.597 3.80324 1.15929 0
M  V30 5447 N 533.594 0.0601682 1.57485 0
M  V30 5448 C 535.005 -0.474217 1.80577 0
M  V30 5449 C 535.356 -1.70365 0.973147 0
M  V30 5450 O 534.481 -2.15544 0.192306 0
M  V30 5451 C 535.076 -0.867102 3.27516 0
M  V30 5452 C 533.635 -1.34642 3.51495 0
M  V30 5453 C 532.782 -0.32594 2.75378 0
M  V30 5454 H 535.733 0.285973 1.56102 0
M  V30 5455 H 535.754 -1.72938 3.38929 0
M  V30 5456 H 535.266 0.0278927 3.8809 0
M  V30 5457 H 533.367 -2.2603 2.96212 0
M  V30 5458 H 533.48 -1.33237 4.60201 0
M  V30 5459 H 531.844 -0.800749 2.41785 0
M  V30 5460 H 532.627 0.561125 3.38683 0
M  V30 5461 N 535.072 -1.5615 -0.213296 0
M  V30 5462 C 536.02 -1.93953 -1.28394 0
M  V30 5463 C 537.014 -0.822592 -1.48087 0
M  V30 5464 O 538.22 -1.00748 -1.49164 0
M  V30 5465 H 534.595 -0.61648 -0.430646 0
M  V30 5466 H 536.566 -2.83275 -0.937977 0
M  V30 5467 C 535.315 -2.27969 -2.62537 0
M  V30 5468 H 534.638 -3.13432 -2.48194 0
M  V30 5469 H 536.078 -2.58297 -3.36242 0
M  V30 5470 C 534.537 -1.10775 -3.18167 0
M  V30 5471 O 535.067 -0.373201 -3.99963 0
M  V30 5472 N 533.273 -0.889377 -2.76656 0
M  V30 5473 H 532.82 -1.48843 -2.10246 0
M  V30 5474 H 532.778 -0.107 -3.14218 0
M  V30 5475 N 536.55 0.480323 -1.50102 0
M  V30 5476 C 537.482 1.59669 -1.64433 0
M  V30 5477 C 538.495 1.54063 -0.52615 0
M  V30 5478 O 539.684 1.59619 -0.798992 0
M  V30 5479 C 536.784 2.98527 -1.6042 0
M  V30 5480 C 535.957 3.291 -2.88117 0
M  V30 5481 C 535.016 4.47468 -2.76873 0
M  V30 5482 O 534.042 4.4823 -3.50825 0
M  V30 5483 N 535.244 5.48593 -1.89806 0
M  V30 5484 H 538.009 1.47795 -2.60723 0
M  V30 5485 H 535.57 0.66858 -1.4745 0
M  V30 5486 H 537.562 3.75666 -1.50523 0
M  V30 5487 H 536.132 3.04218 -0.719036 0
M  V30 5488 H 535.352 2.40662 -3.12211 0
M  V30 5489 H 536.64 3.46334 -3.72734 0
M  V30 5490 H 536.038 5.50791 -1.2902 0
M  V30 5491 H 534.595 6.24752 -1.85819 0
M  V30 5492 N 538.028 1.39524 0.732853 0
M  V30 5493 C 539.277 1.36175 1.48792 0
M  V30 5494 C 539.59 -0.0388195 1.95561 0
M  V30 5495 O 540.796 -0.194899 2.708 0
M  V30 5496 C 539.252 2.39242 2.68871 0
M  V30 5497 C 538.86 3.85024 2.29042 0
M  V30 5498 C 540.604 2.44972 3.46683 0
M  V30 5499 C 538.511 4.79727 3.45856 0
M  V30 5500 H 537.441 0.506267 0.558757 0
M  V30 5501 H 540.092 1.65181 0.799226 0
M  V30 5502 H 538.474 2.0331 3.39825 0
M  V30 5503 H 539.648 4.30008 1.6562 0
M  V30 5504 H 537.963 3.82609 1.64316 0
M  V30 5505 H 540.56 3.12918 4.33574 0
M  V30 5506 H 540.903 1.4749 3.89297 0
M  V30 5507 H 541.436 2.79808 2.82759 0
M  V30 5508 H 538.175 5.78479 3.08289 0
M  V30 5509 H 537.695 4.39421 4.08251 0
M  V30 5510 H 539.374 4.98731 4.12161 0
M  V30 5511 N 539.506 -0.963266 1.24736 0
M  V30 5512 C 540.736 -1.73913 1.11524 0
M  V30 5513 C 541.144 -1.86218 -0.334612 0
M  V30 5514 O 540.487 -1.3531 -1.24245 0
M  V30 5515 C 540.549 -3.17501 1.68622 0
M  V30 5516 C 540.213 -3.28655 3.17546 0
M  V30 5517 C 541.21 -3.13637 4.14642 0
M  V30 5518 C 538.895 -3.52753 3.5759 0
M  V30 5519 C 540.889 -3.2255 5.49764 0
M  V30 5520 C 538.576 -3.61303 4.92852 0
M  V30 5521 C 539.574 -3.46214 5.88748 0
M  V30 5522 O 539.262 -3.5443 7.2155 0
M  V30 5523 H 538.994 -0.552057 0.390139 0
M  V30 5524 H 541.548 -1.2177 1.65412 0
M  V30 5525 H 539.778 -3.70969 1.09172 0
M  V30 5526 H 541.467 -3.76914 1.50635 0
M  V30 5527 H 542.233 -2.94899 3.85045 0
M  V30 5528 H 538.112 -3.63561 2.83451 0
M  V30 5529 H 541.656 -3.1069 6.24594 0
M  V30 5530 H 537.553 -3.79556 5.22118 0
M  V30 5531 H 538.321 -3.71116 7.29531 0
M  V30 5532 N 540.985 -1.06182 -1.16461 0
M  V30 5533 C 542.213 -0.798583 -1.90867 0
M  V30 5534 C 542.628 0.646921 -1.77371 0
M  V30 5535 O 541.985 1.44279 -1.11758 0
M  V30 5536 C 542.036 -1.18258 -3.4161 0
M  V30 5537 O 541.757 -2.57135 -3.54701 0
M  V30 5538 C 543.258 -0.946917 -4.33069 0
M  V30 5539 H 540.478 -0.289603 -0.605286 0
M  V30 5540 H 543.022 -1.41515 -1.47627 0
M  V30 5541 H 541.177 -0.610562 -3.82558 0
M  V30 5542 H 541.591 -2.72477 -4.4817 0
M  V30 5543 H 543.065 -1.26523 -5.37304 0
M  V30 5544 H 543.542 0.117406 -4.39043 0
M  V30 5545 H 544.148 -1.50326 -3.97847 0
M  V30 5546 N 542.463 1.3308 -0.844243 0
M  V30 5547 C 543.411 2.31028 -0.269954 0
M  V30 5548 C 544.405 1.58381 0.600997 0
M  V30 5549 O 545.611 1.73203 0.48996 0
M  V30 5550 H 541.986 0.748866 -0.0685782 0
M  V30 5551 H 543.957 2.76967 -1.11049 0
M  V30 5552 C 542.706 3.43549 0.535676 0
M  V30 5553 H 542.029 3.99604 -0.125202 0
M  V30 5554 H 543.469 4.14267 0.903262 0
M  V30 5555 C 541.928 2.8988 1.71672 0
M  V30 5556 O 542.458 2.86511 2.81557 0
M  V30 5557 N 540.664 2.46416 1.54037 0
M  V30 5558 H 540.211 2.49356 0.64649 0
M  V30 5559 H 540.169 2.1086 2.33207 0
M  V30 5560 N 543.941 0.601185 1.45683 0
M  V30 5561 C 544.851 -0.123395 2.34275 0
M  V30 5562 C 545.867 -0.86702 1.5086 0
M  V30 5563 O 547.043 -0.826049 1.8368 0
M  V30 5564 C 544.108 -1.11237 3.2837 0
M  V30 5565 C 543.169 -0.371405 4.2769 0
M  V30 5566 C 542.402 -1.31327 5.1729 0
M  V30 5567 O 542.625 -2.55078 5.10188 0
M  V30 5568 O 541.559 -0.813811 5.96373 0
M  V30 5569 H 545.385 0.604483 2.97623 0
M  V30 5570 H 542.97 0.361477 1.44961 0
M  V30 5571 H 544.852 -1.68214 3.8637 0
M  V30 5572 H 543.527 -1.82139 2.67595 0
M  V30 5573 H 542.434 0.24067 3.73325 0
M  V30 5574 H 543.767 0.296998 4.91303 0
M  V30 5575 N 545.419 -1.53889 0.339982 0
M  V30 5576 C 546.668 -2.00035 -0.258604 0
M  V30 5577 C 546.981 -1.23179 -1.51942 0
M  V30 5578 O 548.187 -1.59784 -2.19503 0
M  V30 5579 C 546.643 -3.56249 -0.511359 0
M  V30 5580 C 546.251 -4.41957 0.733349 0
M  V30 5581 C 547.995 -4.1082 -1.069 0
M  V30 5582 C 545.902 -5.89673 0.451591 0
M  V30 5583 H 544.832 -0.747284 -0.10041 0
M  V30 5584 H 547.483 -1.77776 0.454758 0
M  V30 5585 H 545.865 -3.7456 -1.28533 0
M  V30 5586 H 547.039 -4.35421 1.50815 0
M  V30 5587 H 545.354 -3.9836 1.21237 0
M  V30 5588 H 547.951 -5.18789 -1.2947 0
M  V30 5589 H 548.294 -3.63817 -2.02343 0
M  V30 5590 H 548.827 -3.96205 -0.355817 0
M  V30 5591 H 545.566 -6.40903 1.37565 0
M  V30 5592 H 545.086 -5.99122 -0.285193 0
M  V30 5593 H 546.765 -6.46965 0.0675067 0
M  V30 5594 N 546.897 -0.0685191 -1.57451 0
M  V30 5595 C 548.143 0.602239 -1.93652 0
M  V30 5596 C 548.476 1.6946 -0.948526 0
M  V30 5597 O 547.751 1.94487 0.022782 0
M  V30 5598 C 548.034 1.18223 -3.4014 0
M  V30 5599 C 547.887 0.0967431 -4.49696 0
M  V30 5600 C 549.206 2.08872 -3.87377 0
M  V30 5601 H 546.325 0.217453 -0.70419 0
M  V30 5602 H 548.967 -0.133821 -1.89528 0
M  V30 5603 H 547.117 1.80953 -3.43785 0
M  V30 5604 H 548.789 -0.536155 -4.58174 0
M  V30 5605 H 547.032 -0.573063 -4.29998 0
M  V30 5606 H 547.703 0.542894 -5.49324 0
M  V30 5607 H 550.179 1.56081 -3.85717 0
M  V30 5608 H 549.055 2.46389 -4.90493 0
M  V30 5609 H 549.316 2.99572 -3.25129 0
M  V30 5610 N 548.375 1.56261 0.205012 0
M  V30 5611 C 549.605 1.83874 0.942018 0
M  V30 5612 C 550.013 0.647595 1.77772 0
M  V30 5613 O 549.356 -0.393098 1.79445 0
M  V30 5614 C 549.418 3.05453 1.89575 0
M  V30 5615 C 549.082 4.39772 1.24296 0
M  V30 5616 C 550.079 5.16133 0.624724 0
M  V30 5617 C 547.764 4.86504 1.24978 0
M  V30 5618 C 549.758 6.37396 0.0220117 0
M  V30 5619 C 547.445 6.07705 0.643232 0
M  V30 5620 C 548.443 6.82993 0.0304164 0
M  V30 5621 O 548.131 8.019 -0.566654 0
M  V30 5622 H 547.863 0.614896 0.280854 0
M  V30 5623 H 550.417 2.04215 0.220285 0
M  V30 5624 H 548.647 2.80972 2.65691 0
M  V30 5625 H 550.336 3.19797 2.4997 0
M  V30 5626 H 551.102 4.81127 0.611666 0
M  V30 5627 H 546.981 4.27865 1.71616 0
M  V30 5628 H 550.525 6.96102 -0.456926 0
M  V30 5629 H 546.422 6.42181 0.653759 0
M  V30 5630 H 547.19 8.17192 -0.462588 0
M  V30 5631 N 549.853 -0.472356 1.50355 0
M  V30 5632 C 550.803 -1.56809 1.65514 0
M  V30 5633 C 551.787 -1.5261 0.509801 0
M  V30 5634 O 552.979 -1.59655 0.764145 0
M  V30 5635 C 550.108 -2.9526 1.75146 0
M  V30 5636 C 549.194 -3.04348 2.95353 0
M  V30 5637 N 549.585 -2.83253 4.19048 0
M  V30 5638 C 547.883 -3.35482 2.93884 0
M  V30 5639 C 548.584 -2.97273 5.00003 0
M  V30 5640 N 547.56 -3.27418 4.33934 0
M  V30 5641 H 551.362 -1.39197 2.58846 0
M  V30 5642 H 548.876 -0.67906 1.47521 0
M  V30 5643 H 550.873 -3.74044 1.8411 0
M  V30 5644 H 549.533 -3.1392 0.829717 0
M  V30 5645 H 550.544 -2.5886 4.48567 0
M  V30 5646 H 547.221 -3.60138 2.11204 0
M  V30 5647 H 548.611 -2.85214 6.08361 0
M  V30 5648 N 551.331 -1.39911 -0.725443 0
M  V30 5649 C 552.279 -1.39552 -1.86086 0
M  V30 5650 C 553.273 -0.277334 -1.67114 0
M  V30 5651 O 554.479 -0.447865 -1.74339 0
M  V30 5652 H 550.854 -0.435993 -0.612711 0
M  V30 5653 H 552.825 -2.35305 -1.83505 0
M  V30 5654 C 551.574 -1.26529 -3.2386 0
M  V30 5655 H 550.897 -2.11845 -3.3906 0
M  V30 5656 H 552.337 -1.30336 -4.03471 0
M  V30 5657 C 550.796 0.0254168 -3.3689 0
M  V30 5658 O 551.326 0.992048 -3.89257 0
M  V30 5659 N 549.532 0.0916528 -2.90455 0
M  V30 5660 H 549.079 -0.695675 -2.48028 0
M  V30 5661 H 549.037 0.954745 -2.99553 0
M  V30 5662 N 552.809 0.956637 -1.25245 0
M  V30 5663 C 554.057 1.69764 -1.09657 0
M  V30 5664 C 554.378 1.91583 0.363464 0
M  V30 5665 O 553.648 1.50149 1.25825 0
M  V30 5666 H 552.228 0.629097 -0.402798 0
M  V30 5667 H 554.89 1.15026 -1.57337 0
M  V30 5668 H 553.986 2.67769 -1.60331 0
M  V30 5669 N 554.287 1.06798 1.15896 0
M  V30 5670 C 555.219 0.641263 2.20046 0
M  V30 5671 C 556.232 -0.303355 1.59949 0
M  V30 5672 O 557.421 -0.0935478 1.78255 0
M  V30 5673 C 554.521 -0.0794029 3.38807 0
M  V30 5674 C 553.694 0.879986 4.28457 0
M  V30 5675 C 552.753 0.197638 5.25829 0
M  V30 5676 O 551.779 0.836913 5.63014 0
M  V30 5677 N 552.981 -1.05886 5.70761 0
M  V30 5678 H 555.746 1.53718 2.57276 0
M  V30 5679 H 553.307 0.951951 1.30956 0
M  V30 5680 H 555.299 -0.546418 4.00994 0
M  V30 5681 H 553.869 -0.877193 3.0004 0
M  V30 5682 H 553.089 1.52625 3.63454 0
M  V30 5683 H 554.377 1.53065 4.8523 0
M  V30 5684 H 553.775 -1.59828 5.42652 0
M  V30 5685 H 552.332 -1.46965 6.35015 0
M  V30 5686 N 555.766 -1.3263 0.851289 0
M  V30 5687 C 556.696 -2.31449 0.308771 0
M  V30 5688 C 557.677 -1.59531 -0.590255 0
M  V30 5689 O 558.862 -1.87351 -0.511205 0
M  V30 5690 C 555.992 -3.43586 -0.506548 0
M  V30 5691 C 554.946 -4.26963 0.297753 0
M  V30 5692 C 554.272 -5.30831 -0.642094 0
M  V30 5693 C 555.572 -4.99643 1.52166 0
M  V30 5694 H 557.266 -2.77074 1.13447 0
M  V30 5695 H 554.812 -1.33207 0.546971 0
M  V30 5696 H 556.765 -4.11754 -0.896474 0
M  V30 5697 H 555.489 -2.96681 -1.36558 0
M  V30 5698 H 554.148 -3.60437 0.669391 0
M  V30 5699 H 553.796 -4.8018 -1.49788 0
M  V30 5700 H 553.496 -5.87501 -0.107968 0
M  V30 5701 H 555.02 -6.01862 -1.02927 0
M  V30 5702 H 556.434 -5.6051 1.20421 0
M  V30 5703 H 554.831 -5.66022 1.99347 0
M  V30 5704 H 555.901 -4.27701 2.28474 0
M  V30 5705 N 557.244 -0.608902 -1.45362 0
M  V30 5706 C 558.49 -0.113196 -2.03085 0
M  V30 5707 C 558.845 1.24288 -1.46868 0
M  V30 5708 O 558.138 1.80792 -0.634402 0
M  V30 5709 C 558.332 -0.0167296 -3.57396 0
M  V30 5710 C 558.161 -1.36191 -4.28581 0
M  V30 5711 C 556.931 -1.94295 -4.66452 0
M  V30 5712 C 559.129 -2.29097 -4.60455 0
M  V30 5713 N 557.111 -3.2228 -5.22503 0
M  V30 5714 C 558.482 -3.41681 -5.17353 0
M  V30 5715 C 560.537 -2.28453 -4.42395 0
M  V30 5716 C 559.24 -4.53789 -5.58093 0
M  V30 5717 C 561.266 -3.39608 -4.8417 0
M  V30 5718 C 560.628 -4.50915 -5.41161 0
M  V30 5719 H 556.727 -0.0848213 -0.777386 0
M  V30 5720 H 559.311 -0.807541 -1.77163 0
M  V30 5721 H 557.482 0.646839 -3.82976 0
M  V30 5722 H 559.214 0.485757 -4.01774 0
M  V30 5723 H 555.969 -1.47486 -4.5005 0
M  V30 5724 H 556.393 -3.87654 -5.55025 0
M  V30 5725 H 561.035 -1.43658 -3.97646 0
M  V30 5726 H 558.753 -5.39307 -6.01808 0
M  V30 5727 H 562.339 -3.40259 -4.71927 0
M  V30 5728 H 561.219 -5.35505 -5.72891 0
M  V30 5729 N 558.722 1.53707 -0.348139 0
M  V30 5730 C 559.654 2.22725 0.540946 0
M  V30 5731 C 560.667 1.2354 1.06027 0
M  V30 5732 O 561.856 1.49867 0.96964 0
M  V30 5733 C 558.956 2.89756 1.75768 0
M  V30 5734 C 558.129 4.15297 1.37285 0
M  V30 5735 C 557.188 4.65697 2.44976 0
M  V30 5736 O 556.214 5.29798 2.08092 0
M  V30 5737 N 557.416 4.42017 3.763 0
M  V30 5738 H 560.181 2.99658 -0.0501592 0
M  V30 5739 H 557.742 1.60979 -0.17248 0
M  V30 5740 H 559.734 3.20388 2.47252 0
M  V30 5741 H 558.304 2.16382 2.25605 0
M  V30 5742 H 557.524 3.9116 0.488584 0
M  V30 5743 H 558.812 4.96948 1.09179 0
M  V30 5744 H 558.21 3.9076 4.09051 0
M  V30 5745 H 556.767 4.77242 4.4394 0
M  V30 5746 N 560.2 0.0768682 1.57412 0
M  V30 5747 C 561.163 -0.873949 2.11884 0
M  V30 5748 C 562.163 -1.22301 1.04398 0
M  V30 5749 O 563.353 -1.15545 1.30365 0
M  V30 5750 C 560.485 -2.17575 2.62438 0
M  V30 5751 H 561.678 -0.401278 2.97203 0
M  V30 5752 H 559.231 -0.171904 1.55352 0
M  V30 5753 H 559.966 -2.69368 1.80587 0
M  V30 5754 H 559.751 -1.93534 3.41009 0
M  V30 5755 H 561.241 -2.85631 3.04639 0
M  V30 5756 N 561.678 -1.56367 -0.196722 0
M  V30 5757 C 562.625 -1.94417 -1.24382 0
M  V30 5758 C 563.595 -0.804543 -1.45315 0
M  V30 5759 O 564.78 -1.06256 -1.58475 0
M  V30 5760 C 561.92 -2.28757 -2.58388 0
M  V30 5761 C 561.033 -3.55775 -2.45047 0
M  V30 5762 C 560.168 -3.79445 -3.71746 0
M  V30 5763 C 559.207 -4.99894 -3.53231 0
M  V30 5764 N 558.344 -5.19826 -4.71938 0
M  V30 5765 H 563.184 -2.83691 -0.912338 0
M  V30 5766 H 560.721 -1.40392 -0.439135 0
M  V30 5767 H 562.679 -2.46682 -3.36457 0
M  V30 5768 H 561.309 -1.42625 -2.89582 0
M  V30 5769 H 560.361 -3.45905 -1.58284 0
M  V30 5770 H 561.673 -4.44 -2.27299 0
M  V30 5771 H 560.827 -3.97601 -4.58256 0
M  V30 5772 H 559.566 -2.89546 -3.92446 0
M  V30 5773 H 558.571 -4.81662 -2.65107 0
M  V30 5774 H 559.796 -5.913 -3.33978 0
M  V30 5775 H 557.742 -4.32875 -4.92905 0
M  V30 5776 H 557.659 -6.02228 -4.57009 0
M  V30 5777 H 558.927 -5.42439 -5.59803 0
M  V30 5778 N 563.156 0.464375 -1.50603 0
M  V30 5779 C 564.402 1.21485 -1.63135 0
M  V30 5780 C 564.757 1.89538 -0.33063 0
M  V30 5781 O 564.05 1.79432 0.671903 0
M  V30 5782 C 564.244 2.278 -2.75394 0
M  V30 5783 C 564.073 1.70178 -4.16257 0
M  V30 5784 C 562.843 1.49854 -4.82568 0
M  V30 5785 C 565.041 1.19298 -5.00272 0
M  V30 5786 N 563.023 0.875458 -6.07626 0
M  V30 5787 C 564.394 0.693527 -6.16109 0
M  V30 5788 C 566.449 1.08216 -4.85998 0
M  V30 5789 C 565.152 0.0941808 -7.19238 0
M  V30 5790 C 567.178 0.496745 -5.8931 0
M  V30 5791 C 566.54 0.00770448 -7.044 0
M  V30 5792 H 562.639 0.433184 -0.651057 0
M  V30 5793 H 565.223 0.515748 -1.87745 0
M  V30 5794 H 563.394 2.95129 -2.52495 0
M  V30 5795 H 565.126 2.94814 -2.77249 0
M  V30 5796 H 561.881 1.75269 -4.39975 0
M  V30 5797 H 562.305 0.582135 -6.74493 0
M  V30 5798 H 566.947 1.44617 -3.97298 0
M  V30 5799 H 564.665 -0.28202 -8.07608 0
M  V30 5800 H 568.251 0.413275 -5.8033 0
M  V30 5801 H 567.131 -0.438188 -7.82975 0
M  V30 5802 N 564.634 1.40294 0.718013 0
M  V30 5803 C 565.88 1.39648 1.47885 0
M  V30 5804 C 566.235 -0.0023879 1.924 0
M  V30 5805 O 565.528 -0.972304 1.65096 0
M  V30 5806 C 565.722 2.31814 2.72024 0
M  V30 5807 C 565.551 3.80523 2.3965 0
M  V30 5808 C 564.321 4.49351 2.3111 0
M  V30 5809 C 566.519 4.72077 2.04079 0
M  V30 5810 N 564.501 5.83305 1.91385 0
M  V30 5811 C 565.872 5.94809 1.74935 0
M  V30 5812 C 567.927 4.59935 1.90694 0
M  V30 5813 C 566.63 7.06755 1.33753 0
M  V30 5814 C 568.656 5.7182 1.50915 0
M  V30 5815 C 568.018 6.93637 1.22668 0
M  V30 5816 H 564.117 0.566263 0.539324 0
M  V30 5817 H 566.701 1.75986 0.832891 0
M  V30 5818 H 564.872 1.97607 3.34374 0
M  V30 5819 H 566.604 2.22042 3.38348 0
M  V30 5820 H 563.359 4.03002 2.4877 0
M  V30 5821 H 563.783 6.54239 1.74068 0
M  V30 5822 H 568.425 3.66274 2.11194 0
M  V30 5823 H 566.143 8.00302 1.11995 0
M  V30 5824 H 569.729 5.64421 1.4114 0
M  V30 5825 H 568.609 7.78743 0.923502 0
M  V30 5826 N 566.112 -0.949982 1.2575 0
M  V30 5827 C 567.34 -1.72972 1.13527 0
M  V30 5828 C 567.755 -1.8623 -0.310453 0
M  V30 5829 O 567.112 -1.36336 -1.2132 0
M  V30 5830 C 567.163 -3.14108 1.78936 0
M  V30 5831 O 566.884 -3.01493 3.17858 0
M  V30 5832 C 568.385 -4.08338 1.72554 0
M  V30 5833 H 565.605 -0.541864 0.395758 0
M  V30 5834 H 568.149 -1.19151 1.66202 0
M  V30 5835 H 566.304 -3.64858 1.30221 0
M  V30 5836 H 566.718 -3.90559 3.50092 0
M  V30 5837 H 568.192 -5.04963 2.22973 0
M  V30 5838 H 568.669 -4.33742 0.690251 0
M  V30 5839 H 569.275 -3.63506 2.2078 0
M  V30 5840 N 567.59 -1.07411 -1.15328 0
M  V30 5841 C 568.522 -0.652924 -2.19703 0
M  V30 5842 C 569.535 0.294869 -1.60107 0
M  V30 5843 O 570.724 0.0840932 -1.78302 0
M  V30 5844 C 567.824 0.061434 -3.38844 0
M  V30 5845 C 566.997 -0.902696 -4.27984 0
M  V30 5846 C 566.056 -0.225521 -5.25717 0
M  V30 5847 O 565.082 -0.86676 -5.62562 0
M  V30 5848 N 566.284 1.02858 -5.71315 0
M  V30 5849 H 569.049 -1.55081 -2.56457 0
M  V30 5850 H 566.61 -0.958883 -1.30449 0
M  V30 5851 H 568.602 0.525145 -4.01278 0
M  V30 5852 H 567.172 0.861269 -3.00501 0
M  V30 5853 H 566.392 -1.54551 -3.6264 0
M  V30 5854 H 567.68 -1.55636 -4.84412 0
M  V30 5855 H 567.078 1.56948 -5.43492 0
M  V30 5856 H 565.635 1.43596 -6.35786 0
M  V30 5857 N 569.068 1.32177 -0.85831 0
M  V30 5858 C 570.016 2.30729 -0.294442 0
M  V30 5859 C 571.01 1.59009 0.584165 0
M  V30 5860 O 572.216 1.73713 0.471562 0
M  V30 5861 H 568.591 0.748097 -0.0765171 0
M  V30 5862 H 570.562 2.75774 -1.1398 0
M  V30 5863 C 569.311 3.44098 0.499208 0
M  V30 5864 H 568.634 3.99449 -0.167579 0
M  V30 5865 H 570.074 4.15202 0.859273 0
M  V30 5866 C 568.533 2.91684 1.68588 0
M  V30 5867 O 569.063 2.89481 2.78503 0
M  V30 5868 N 567.269 2.48036 1.51415 0
M  V30 5869 H 566.816 2.50027 0.620006 0
M  V30 5870 H 566.774 2.13322 2.30957 0
M  V30 5871 N 570.547 0.616602 1.45037 0
M  V30 5872 C 571.479 -0.135186 2.28801 0
M  V30 5873 C 572.492 -0.82303 1.40464 0
M  V30 5874 O 573.681 -0.686909 1.64754 0
M  V30 5875 C 570.781 -1.21292 3.16451 0
M  V30 5876 C 569.954 -0.61043 4.3312 0
M  V30 5877 C 569.013 -1.58022 5.01912 0
M  V30 5878 O 568.039 -1.10301 5.58411 0
M  V30 5879 N 569.241 -2.91464 5.02025 0
M  V30 5880 H 572.006 0.583612 2.93963 0
M  V30 5881 H 569.567 0.456723 1.55324 0
M  V30 5882 H 571.559 -1.86169 3.59337 0
M  V30 5883 H 570.129 -1.83412 2.53138 0
M  V30 5884 H 569.349 0.216638 3.93604 0
M  V30 5885 H 570.637 -0.188293 5.08451 0
M  V30 5886 H 570.035 -3.32829 4.57429 0
M  V30 5887 H 568.592 -3.51741 5.48745 0
M  V30 5888 N 572.025 -1.5352 0.356285 0
M  V30 5889 C 572.935 -2.29151 -0.502712 0
M  V30 5890 C 573.951 -1.34753 -1.1008 0
M  V30 5891 O 575.127 -1.67803 -1.11374 0
M  V30 5892 C 572.192 -3.05911 -1.63154 0
M  V30 5893 C 571.253 -4.15958 -1.06194 0
M  V30 5894 C 570.486 -4.8905 -2.13696 0
M  V30 5895 O 570.709 -4.61919 -3.34645 0
M  V30 5896 O 569.643 -5.75202 -1.77275 0
M  V30 5897 H 573.469 -3.03492 0.112466 0
M  V30 5898 H 571.054 -1.4891 0.120942 0
M  V30 5899 H 572.936 -3.53874 -2.28804 0
M  V30 5900 H 571.611 -2.34415 -2.23229 0
M  V30 5901 H 570.518 -3.7227 -0.369603 0
M  V30 5902 H 571.851 -4.89593 -0.505872 0
M  V30 5903 N 573.503 -0.0852151 -1.57369 0
M  V30 5904 C 574.914 0.445428 -1.81309 0
M  V30 5905 C 575.265 1.68795 -1.00013 0
M  V30 5906 O 574.39 2.15211 -0.226573 0
M  V30 5907 C 574.985 0.814887 -3.28854 0
M  V30 5908 C 573.544 1.29032 -3.53592 0
M  V30 5909 C 572.691 0.282089 -2.75861 0
M  V30 5910 H 575.642 -0.310771 -1.55627 0
M  V30 5911 H 575.663 1.67524 -3.41637 0
M  V30 5912 H 575.175 -0.0896309 -3.87996 0
M  V30 5913 H 573.276 2.21289 -2.9977 0
M  V30 5914 H 573.389 1.25898 -4.62262 0
M  V30 5915 H 571.753 0.762182 -2.43029 0
M  V30 5916 H 572.536 -0.614936 -3.37748 0
M  V30 5917 N 574.981 1.5647 0.188427 0
M  V30 5918 C 576.229 1.80655 0.905986 0
M  V30 5919 C 576.55 0.659391 1.83513 0
M  V30 5920 O 575.82 -0.321868 1.93238 0
M  V30 5921 H 574.4 0.666391 0.337538 0
M  V30 5922 H 577.062 1.93949 0.192339 0
M  V30 5923 H 576.158 2.74066 1.49313 0
M  V30 5924 N 576.459 -0.456382 1.50847 0
M  V30 5925 C 577.736 -1.21739 1.53098 0
M  V30 5926 C 578.116 -2.09179 0.284132 0
M  V30 5927 O 577.464 -2.16466 -0.731773 0
M  V30 5928 C 577.674 -2.03573 2.83477 0
M  V30 5929 C 579.022 -2.61264 3.34703 0
M  V30 5930 O 580.046 -2.13802 2.84898 0
M  V30 5931 O 578.905 -3.47779 4.21559 0
M  V30 5932 H 575.999 -0.553219 0.614718 0
M  V30 5933 H 578.545 -0.467003 1.63148 0
M  V30 5934 H 577.317 -1.39232 3.65691 0
M  V30 5935 H 576.94 -2.85716 2.76499 0
M  V30 5936 N 577.937 -1.40673 -0.710563 0
M  V30 5937 C 579.348 -1.34975 -1.28991 0
M  V30 5938 C 579.699 -0.0256272 -1.96183 0
M  V30 5939 O 578.824 0.876339 -1.97862 0
M  V30 5940 C 579.419 -2.44467 -2.34567 0
M  V30 5941 C 577.978 -2.42213 -2.88114 0
M  V30 5942 C 577.125 -2.25085 -1.61963 0
M  V30 5943 H 580.076 -1.50406 -0.506343 0
M  V30 5944 H 580.097 -2.12663 -3.15523 0
M  V30 5945 H 579.609 -3.40825 -1.85634 0
M  V30 5946 H 577.71 -1.49568 -3.41263 0
M  V30 5947 H 577.823 -3.37983 -3.39565 0
M  V30 5948 H 576.187 -1.72691 -1.87216 0
M  V30 5949 H 576.97 -3.23449 -1.15047 0
M  V30 5950 N 579.415 0.9433 -1.26252 0
M  V30 5951 C 580.645 1.72117 -1.14277 0
M  V30 5952 C 581.053 1.86726 0.304944 0
M  V30 5953 O 580.396 1.3727 1.22076 0
M  V30 5954 C 580.458 3.14778 -1.73651 0
M  V30 5955 C 580.122 3.23561 -3.22734 0
M  V30 5956 C 581.119 3.07001 -4.19579 0
M  V30 5957 C 578.804 3.47019 -3.63157 0
M  V30 5958 C 580.798 3.13763 -5.54826 0
M  V30 5959 C 578.485 3.53416 -4.98538 0
M  V30 5960 C 579.483 3.36804 -5.94182 0
M  V30 5961 O 579.171 3.42906 -7.27098 0
M  V30 5962 H 578.903 0.545781 -0.398873 0
M  V30 5963 H 581.457 1.19123 -1.67328 0
M  V30 5964 H 579.687 3.69186 -1.1506 0
M  V30 5965 H 581.376 3.74469 -1.56613 0
M  V30 5966 H 582.142 2.88736 -3.89688 0
M  V30 5967 H 578.021 3.59006 -2.89199 0
M  V30 5968 H 581.565 3.00714 -6.29458 0
M  V30 5969 H 577.462 3.71201 -5.28091 0
M  V30 5970 H 578.23 3.59463 -7.35342 0
M  V30 5971 N 580.893 1.08022 1.14757 0
M  V30 5972 C 582.141 0.805913 1.85336 0
M  V30 5973 C 582.462 -0.670162 1.83122 0
M  V30 5974 O 581.732 -1.48567 1.2769 0
M  V30 5975 H 580.312 0.295138 0.686223 0
M  V30 5976 H 582.974 1.36538 1.3908 0
M  V30 5977 H 582.07 1.14655 2.90277 0
M  V30 5978 N 582.371 -1.3172 0.865308 0
M  V30 5979 C 583.782 -1.79104 0.527126 0
M  V30 5980 C 584.133 -1.7135 -0.955695 0
M  V30 5981 O 583.258 -1.27845 -1.74598 0
M  V30 5982 C 583.853 -3.25207 0.950061 0
M  V30 5983 C 582.412 -3.70504 0.663611 0
M  V30 5984 C 581.559 -2.52605 1.14395 0
M  V30 5985 H 584.51 -1.18868 1.05148 0
M  V30 5986 H 584.531 -3.79535 0.270805 0
M  V30 5987 H 584.043 -3.30818 2.02931 0
M  V30 5988 H 582.144 -3.70398 -0.404474 0
M  V30 5989 H 582.257 -4.62845 1.23737 0
M  V30 5990 H 580.621 -2.4838 0.563859 0
M  V30 5991 H 581.404 -2.60964 2.23053 0
M  V30 5992 N 583.85 -0.624285 -1.44708 0
M  V30 5993 C 585.096 -0.13473 -2.02953 0
M  V30 5994 C 585.451 1.22724 -1.48178 0
M  V30 5995 O 584.744 1.80109 -0.653542 0
M  V30 5996 C 584.938 -0.0546353 -3.57358 0
M  V30 5997 C 584.767 -1.40729 -4.27113 0
M  V30 5998 C 583.537 -1.99231 -4.64365 0
M  V30 5999 C 585.735 -2.33968 -4.58 0
M  V30 6000 N 583.716 -3.27803 -5.19055 0
M  V30 6001 C 585.088 -3.47149 -5.137 0
M  V30 6002 C 587.143 -2.33132 -4.39948 0
M  V30 6003 C 585.846 -4.59682 -5.53249 0
M  V30 6004 C 587.872 -3.44724 -4.8054 0
M  V30 6005 C 587.234 -4.56629 -5.36348 0
M  V30 6006 H 583.332 -0.0930617 -0.776443 0
M  V30 6007 H 585.917 -0.826286 -1.76297 0
M  V30 6008 H 584.088 0.606183 -3.8364 0
M  V30 6009 H 585.82 0.443116 -4.02267 0
M  V30 6010 H 582.575 -1.52251 -4.4846 0
M  V30 6011 H 582.999 -3.93519 -5.50883 0
M  V30 6012 H 587.641 -1.47868 -3.961 0
M  V30 6013 H 585.359 -5.4566 -5.96054 0
M  V30 6014 H 588.945 -3.45245 -4.68291 0
M  V30 6015 H 587.825 -5.41551 -5.67179 0
M  V30 6016 N 585.328 1.53329 -0.364422 0
M  V30 6017 C 586.238 2.29414 0.490552 0
M  V30 6018 C 587.254 1.35335 1.09363 0
M  V30 6019 O 588.43 1.68391 1.10483 0
M  V30 6020 C 585.495 3.06772 1.61529 0
M  V30 6021 C 584.556 4.16516 1.03986 0
M  V30 6022 C 583.789 4.90176 2.111 0
M  V30 6023 O 584.012 4.63687 3.32191 0
M  V30 6024 O 582.946 5.76134 1.74222 0
M  V30 6025 H 586.772 3.03428 -0.12856 0
M  V30 6026 H 584.357 1.48843 -0.128837 0
M  V30 6027 H 586.239 3.55082 2.26924 0
M  V30 6028 H 584.914 2.35596 2.21983 0
M  V30 6029 H 583.821 3.7246 0.349856 0
M  V30 6030 H 585.154 4.89855 0.4799 0
M  V30 6031 N 586.806 0.0935595 1.57322 0
M  V30 6032 C 588.217 -0.435807 1.81542 0
M  V30 6033 C 588.568 -1.68263 1.00907 0
M  V30 6034 O 587.693 -2.15087 0.237983 0
M  V30 6035 C 588.288 -0.797436 3.29282 0
M  V30 6036 C 586.847 -1.27155 3.54272 0
M  V30 6037 C 585.994 -0.267455 2.76007 0
M  V30 6038 H 588.945 0.31902 1.5546 0
M  V30 6039 H 588.966 -1.6571 3.42521 0
M  V30 6040 H 588.478 0.110206 3.87943 0
M  V30 6041 H 586.579 -2.19696 3.00939 0
M  V30 6042 H 586.692 -1.23445 4.62923 0
M  V30 6043 H 585.056 -0.749282 2.43429 0
M  V30 6044 H 585.839 0.632839 3.37417 0
M  V30 6045 N 588.284 -1.56567 -0.180126 0
M  V30 6046 C 589.214 -1.98753 -1.22553 0
M  V30 6047 C 590.195 -0.86175 -1.46656 0
M  V30 6048 O 591.38 -1.12719 -1.58139 0
M  V30 6049 C 588.51 -2.33988 -2.56645 0
M  V30 6050 C 587.464 -3.49445 -2.47128 0
M  V30 6051 C 586.79 -3.70397 -3.8563 0
M  V30 6052 C 588.09 -4.83171 -1.98352 0
M  V30 6053 H 589.784 -2.86332 -0.874896 0
M  V30 6054 H 587.33 -1.37757 -0.419414 0
M  V30 6055 H 589.283 -2.62097 -3.29974 0
M  V30 6056 H 588.007 -1.43309 -2.93479 0
M  V30 6057 H 586.666 -3.2145 -1.76254 0
M  V30 6058 H 586.314 -2.77023 -4.19842 0
M  V30 6059 H 586.014 -4.48077 -3.80132 0
M  V30 6060 H 587.538 -4.00897 -4.60558 0
M  V30 6061 H 588.952 -5.10213 -2.61449 0
M  V30 6062 H 587.349 -5.64425 -2.03823 0
M  V30 6063 H 588.419 -4.75753 -0.937402 0
M  V30 6064 N 589.762 0.448376 -1.51087 0
M  V30 6065 C 590.71 1.56407 -1.72161 0
M  V30 6066 C 591.704 1.58878 -0.587721 0
M  V30 6067 O 592.91 1.62755 -0.768822 0
M  V30 6068 H 589.285 0.519423 -0.543786 0
M  V30 6069 H 591.256 1.35803 -2.65707 0
M  V30 6070 C 590.005 2.94163 -1.85373 0
M  V30 6071 H 589.328 2.9299 -2.72024 0
M  V30 6072 H 590.768 3.71625 -2.04135 0
M  V30 6073 C 589.227 3.31317 -0.610803 0
M  V30 6074 O 589.757 4.00985 0.239636 0
M  V30 6075 N 587.963 2.86966 -0.458127 0
M  V30 6076 H 587.51 2.30443 -1.15124 0
M  V30 6077 H 587.468 3.12188 0.372289 0
M  V30 6078 O 591.279 1.50177 0.59407 0
M  V30 6079 H 591.97 1.48064 1.24887 0
M  V30 END ATOM
M  V30 BEGIN BOND
M  V30 END BOND
M  V30 END CTAB
M  END
$$$$
