drugbank_target|Q16665 Hypoxia-inducible factor 1-alpha (DB01136; DB01275; DB02342; DB05959; DB06082; DB08687)
 OpenBabel12092120103D

  0  0  0     0  0            999 V3000
M  V30 BEGIN CTAB
M  V30 COUNTS 12864 12987 0 0 0
M  V30 BEGIN ATOM
M  V30 1 H -0.908 1.98254 -0.117106 0
M  V30 2 N 0 1.576 0 0
M  V30 3 C 0.933 2.03868 1.02534 0
M  V30 4 C 1.911 0.928543 1.3348 0
M  V30 5 O 3.095 1.19667 1.45644 0
M  V30 6 C 0.222 2.43627 2.35294 0
M  V30 7 C -0.732 3.65373 2.2001 0
M  V30 8 S 0.101 5.13292 1.52614 0
M  V30 9 C 1.257 5.56322 2.86805 0
M  V30 10 H 1.49 2.90518 0.631377 0
M  V30 11 H -0.977 1.52953 0.210867 0
M  V30 12 H 0.981 2.67203 3.11629 0
M  V30 13 H -0.358 1.57376 2.7183 0
M  V30 14 H -1.165 3.90944 3.18086 0
M  V30 15 H -1.563 3.418 1.51819 0
M  V30 16 H 0.729 5.58782 3.83104 0
M  V30 17 H 1.672 6.56266 2.65933 0
M  V30 18 H 2.08 4.83886 2.90714 0
M  V30 19 N 1.4781 -0.272755 1.55222 0
M  V30 20 C 2.3881 -1.35918 1.91216 0
M  V30 21 C 3.4041 -1.54026 0.809436 0
M  V30 22 O 4.5801 -1.68148 1.10852 0
M  V30 23 C 1.6451 -2.69834 2.17693 0
M  V30 24 C 0.7061 -2.6047 3.41253 0
M  V30 25 C -0.0609 -3.88 3.66458 0
M  V30 26 O 0.1621 -4.88693 2.94169 0
M  V30 27 O -0.9039 -3.88189 4.59992 0
M  V30 28 H 2.9221 -1.0839 2.83699 0
M  V30 29 H 0.5071 -0.471301 1.41771 0
M  V30 30 H 2.3891 -3.49017 2.36147 0
M  V30 31 H 1.0641 -2.97148 1.28392 0
M  V30 32 H -0.0289 -1.79663 3.28134 0
M  V30 33 H 1.3041 -2.38106 4.30774 0
M  V30 34 N 2.9562 -1.48159 -0.537278 0
M  V30 35 C 4.2042 -1.55497 -1.29094 0
M  V30 36 C 4.5252 -0.227454 -1.93669 0
M  V30 37 O 3.7952 0.750386 -1.80959 0
M  V30 38 H 2.3752 -0.572832 -0.47945 0
M  V30 39 H 5.0372 -1.84579 -0.625818 0
M  V30 40 H 4.1332 -2.33216 -2.07405 0
M  V30 41 N 4.4343 0.785586 -1.36625 0
M  V30 42 C 5.3973 1.87999 -1.31107 0
M  V30 43 C 6.3973 1.59316 -0.217959 0
M  V30 44 O 7.5873 1.67656 -0.472977 0
M  V30 45 C 4.7193 3.24861 -1.03334 0
M  V30 46 H 5.9123 1.94307 -2.2844 0
M  V30 47 H 3.4653 0.983813 -1.21453 0
M  V30 48 H 4.2003 3.24235 -0.0647432 0
M  V30 49 H 3.9853 3.4707 -1.82441 0
M  V30 50 H 5.4753 4.04929 -1.02088 0
M  V30 51 N 5.9124 1.20967 1.01018 0
M  V30 52 C 7.1604 1.02172 1.74371 0
M  V30 53 C 7.4814 -0.446414 1.89821 0
M  V30 54 O 6.7514 -1.32234 1.44537 0
M  V30 55 H 5.3314 0.375066 0.646014 0
M  V30 56 H 7.9934 1.52187 1.21758 0
M  V30 57 H 7.0894 1.48538 2.74487 0
M  V30 58 N 7.3905 -1.2043 1.01659 0
M  V30 59 C 8.6385 -1.89423 0.704522 0
M  V30 60 C 8.9595 -1.79231 -0.768197 0
M  V30 61 O 8.2295 -1.1947 -1.55254 0
M  V30 62 H 6.8095 -0.701178 0.257602 0
M  V30 63 H 9.4715 -1.4626 1.28818 0
M  V30 64 H 8.5675 -2.96052 0.987916 0
M  V30 65 N 8.8686 -0.792821 -1.36206 0
M  V30 66 C 9.8316 -0.199459 -2.2833 0
M  V30 67 C 10.8316 0.605189 -1.48977 0
M  V30 68 O 12.0216 0.425685 -1.68919 0
M  V30 69 C 9.1536 0.723523 -3.33134 0
M  V30 70 H 10.3466 -1.01181 -2.82316 0
M  V30 71 H 7.8996 -0.562485 -1.45828 0
M  V30 72 H 8.6346 1.56008 -2.84309 0
M  V30 73 H 8.4196 0.148436 -3.91819 0
M  V30 74 H 9.9096 1.13344 -4.01924 0
M  V30 75 N 10.3467 1.47872 -0.545128 0
M  V30 76 C 11.2947 2.31533 0.222512 0
M  V30 77 C 12.2887 1.42177 0.920985 0
M  V30 78 O 13.4947 1.59005 0.843645 0
M  V30 79 H 9.8697 0.746519 0.0906278 0
M  V30 80 H 11.8407 2.94139 -0.50246 0
M  V30 81 C 10.5897 3.2457 1.24699 0
M  V30 82 H 9.9127 3.93283 0.718944 0
M  V30 83 H 11.3527 3.85963 1.75523 0
M  V30 84 C 9.8117 2.47237 2.28856 0
M  V30 85 O 10.3417 2.20808 3.35569 0
M  V30 86 N 8.5477 2.08461 2.02466 0
M  V30 87 H 8.0947 2.30155 1.157 0
M  V30 88 H 8.0527 1.57033 2.72375 0
M  V30 89 N 11.8248 0.280983 1.55075 0
M  V30 90 C 13.1018 -0.386207 1.91749 0
M  V30 91 C 13.4818 -1.73264 1.20594 0
M  V30 92 O 12.8298 -2.26034 0.334784 0
M  V30 93 C 13.0398 -0.520687 3.45094 0
M  V30 94 C 14.3878 -0.800865 4.16979 0
M  V30 95 O 15.4118 -0.605271 3.5102 0
M  V30 96 O 14.2708 -1.1753 5.33712 0
M  V30 97 H 11.3648 -0.212408 0.799257 0
M  V30 98 H 13.9108 0.327568 1.66509 0
M  V30 99 H 12.6828 0.426633 3.88967 0
M  V30 100 H 12.3058 -1.2837 3.76307 0
M  V30 101 N 13.3029 -1.57598 0.00835791 0
M  V30 102 C 14.2499 -2.08945 -0.980346 0
M  V30 103 C 15.2199 -0.986738 -1.33614 0
M  V30 104 O 16.4049 -1.25968 -1.43306 0
M  V30 105 C 13.5449 -2.60425 -2.26435 0
M  V30 106 C 12.6579 -3.84628 -1.96685 0
M  V30 107 C 11.7929 -4.24579 -3.19228 0
M  V30 108 C 10.8319 -5.41596 -2.85202 0
M  V30 109 N 9.9689 -5.768 -4.00307 0
M  V30 110 H 14.8089 -2.93148 -0.535551 0
M  V30 111 H 12.3459 -1.44912 -0.252776 0
M  V30 112 H 14.3039 -2.88354 -3.01509 0
M  V30 113 H 12.9339 -1.79083 -2.68568 0
M  V30 114 H 11.9859 -3.63556 -1.11942 0
M  V30 115 H 13.2979 -4.69796 -1.67611 0
M  V30 116 H 12.4519 -4.53834 -4.02641 0
M  V30 117 H 11.1909 -3.38137 -3.51447 0
M  V30 118 H 10.1959 -5.12056 -2.00198 0
M  V30 119 H 11.4209 -6.29721 -2.54222 0
M  V30 120 H 9.3669 -4.93316 -4.32407 0
M  V30 121 H 9.2839 -6.5656 -3.74786 0
M  V30 122 H 10.5519 -6.10652 -4.84484 0
M  V30 123 N 14.781 0.264519 -1.55364 0
M  V30 124 C 15.728 1.32717 -1.88825 0
M  V30 125 C 16.698 1.48675 -0.740605 0
M  V30 126 O 17.883 1.62945 -0.992657 0
M  V30 127 C 15.023 2.68089 -2.17307 0
M  V30 128 C 14.136 2.60284 -3.44785 0
M  V30 129 C 13.271 3.87892 -3.62924 0
M  V30 130 C 12.31 3.74631 -4.84064 0
M  V30 131 N 11.447 4.94092 -4.98816 0
M  V30 132 H 16.287 1.03481 -2.79456 0
M  V30 133 H 13.824 0.499757 -1.3835 0
M  V30 134 H 15.782 3.46864 -2.31821 0
M  V30 135 H 14.412 2.95509 -1.299 0
M  V30 136 H 13.464 1.73173 -3.38697 0
M  V30 137 H 14.776 2.46388 -4.33698 0
M  V30 138 H 13.93 4.75109 -3.77302 0
M  V30 139 H 12.669 4.04664 -2.7221 0
M  V30 140 H 11.674 2.85797 -4.69681 0
M  V30 141 H 12.899 3.5937 -5.76221 0
M  V30 142 H 10.845 5.11259 -4.11036 0
M  V30 143 H 10.762 4.8276 -5.81789 0
M  V30 144 H 12.03 5.82857 -5.17588 0
M  V30 145 N 16.2591 1.48442 0.529413 0
M  V30 146 C 17.2061 1.63007 1.63394 0
M  V30 147 C 18.1761 0.47212 1.59249 0
M  V30 148 O 19.3611 0.695673 1.77666 0
M  V30 149 C 16.5011 1.6763 3.01653 0
M  V30 150 C 15.6141 2.94535 3.16027 0
M  V30 151 C 14.7491 2.90316 4.44849 0
M  V30 152 C 13.7881 4.11923 4.52754 0
M  V30 153 N 12.9251 4.05777 5.72965 0
M  V30 154 H 17.7651 2.5733 1.50285 0
M  V30 155 H 15.3021 1.27613 0.731656 0
M  V30 156 H 17.2601 1.68292 3.81751 0
M  V30 157 H 15.8901 0.76797 3.13532 0
M  V30 158 H 14.9421 3.03615 2.29177 0
M  V30 159 H 16.2541 3.84512 3.17729 0
M  V30 160 H 15.4081 2.89382 5.33238 0
M  V30 161 H 14.1471 1.98068 4.45668 0
M  V30 162 H 13.1521 4.13131 3.62771 0
M  V30 163 H 14.3771 5.0533 4.53672 0
M  V30 164 H 12.3231 3.16351 5.74681 0
M  V30 165 H 12.2401 4.8946 5.76164 0
M  V30 166 H 13.5081 4.08904 6.6364 0
M  V30 167 N 17.7372 -0.778329 1.37039 0
M  V30 168 C 18.9862 -1.53189 1.3121 0
M  V30 169 C 19.2992 -1.95328 -0.103095 0
M  V30 170 O 20.5052 -2.70012 -0.283826 0
M  V30 171 C 18.9612 -2.76591 2.30272 0
M  V30 172 C 18.5692 -2.41577 3.77286 0
M  V30 173 C 20.3132 -3.5455 2.33441 0
M  V30 174 C 18.2202 -3.61441 4.68096 0
M  V30 175 H 17.1502 -0.5751 0.487622 0
M  V30 176 H 19.8012 -0.853101 1.62464 0
M  V30 177 H 18.1832 -3.46326 1.92027 0
M  V30 178 H 19.3572 -1.79668 4.2433 0
M  V30 179 H 17.6722 -1.76806 3.76999 0
M  V30 180 H 20.2692 -4.43628 2.98493 0
M  V30 181 H 20.6122 -3.93936 1.34611 0
M  V30 182 H 21.1452 -2.91805 2.7036 0
M  V30 183 H 17.8842 -3.27142 5.6803 0
M  V30 184 H 17.4042 -4.22478 4.25761 0
M  V30 185 H 19.0832 -4.28335 4.8491 0
M  V30 186 N 19.2153 -1.21501 -1.00376 0
M  V30 187 C 20.4403 -1.05977 -1.78279 0
M  V30 188 C 20.8653 0.385994 -1.84097 0
M  V30 189 O 20.2233 1.27849 -1.28547 0
M  V30 190 C 20.2713 -1.66302 -3.19963 0
M  V30 191 O 19.3753 -0.909333 -4.0225 0
M  V30 192 H 18.7163 -0.372906 -0.549397 0
M  V30 193 H 21.2463 -1.6107 -1.26165 0
M  V30 194 H 21.2563 -1.70574 -3.70632 0
M  V30 195 H 19.9313 -2.71515 -3.15043 0
M  V30 196 H 18.5083 -0.941795 -3.60811 0
M  V30 197 N 20.6934 1.19889 -1.02296 0
M  V30 198 C 21.9184 1.9393 -0.735237 0
M  V30 199 C 22.3434 1.74639 0.698782 0
M  V30 200 O 21.7014 1.04481 1.48167 0
M  V30 201 C 21.7494 3.43916 -1.08417 0
M  V30 202 O 20.8534 4.11917 -0.199446 0
M  V30 203 H 20.1944 0.605645 -0.272196 0
M  V30 204 H 22.7244 1.52137 -1.36804 0
M  V30 205 H 22.7344 3.9456 -1.03856 0
M  V30 206 H 21.4094 3.5728 -2.12894 0
M  V30 207 H 19.9864 3.71666 -0.303136 0
M  V30 208 N 22.1715 0.800033 1.35784 0
M  V30 209 C 23.0815 0.207204 2.33683 0
M  V30 210 C 24.0975 -0.64631 1.61551 0
M  V30 211 O 25.2735 -0.559604 1.93469 0
M  V30 212 C 22.3385 -0.639659 3.40748 0
M  V30 213 C 21.3995 0.233585 4.28664 0
M  V30 214 C 20.6325 -0.572954 5.30616 0
M  V30 215 O 20.8555 -1.80816 5.40982 0
M  V30 216 O 19.7895 0.0327285 6.01891 0
M  V30 217 H 23.6155 1.01692 2.86169 0
M  V30 218 H 21.2005 0.561691 1.38439 0
M  V30 219 H 23.0825 -1.12223 4.06182 0
M  V30 220 H 21.7575 -1.42708 2.90544 0
M  V30 221 H 20.6645 0.763147 3.66233 0
M  V30 222 H 21.9975 0.984784 4.82248 0
M  V30 223 N 23.6496 -1.47581 0.552962 0
M  V30 224 C 25.0656 -1.5818 0.212424 0
M  V30 225 C 25.2656 -1.55213 -1.28496 0
M  V30 226 O 24.3216 -1.45329 -2.06484 0
M  V30 227 C 25.6346 -2.88865 0.835318 0
M  V30 228 C 27.1826 -3.0244 0.806156 0
M  V30 229 C 27.6576 -4.35819 1.40804 0
M  V30 230 N 29.1486 -4.42444 1.37103 0
M  V30 231 C 29.8836 -5.44202 1.80641 0
M  V30 232 N 29.3796 -6.52795 2.32015 0
M  V30 233 N 31.1726 -5.35222 1.71738 0
M  V30 234 H 23.3236 -1.47753 1.52587 0
M  V30 235 H 25.5866 -0.702941 0.636064 0
M  V30 236 H 25.2926 -2.9676 1.88749 0
M  V30 237 H 25.1666 -3.7579 0.325848 0
M  V30 238 H 27.5536 -2.94144 -0.237317 0
M  V30 239 H 27.6346 -2.17068 1.35334 0
M  V30 240 H 27.2786 -4.44871 2.45056 0
M  V30 241 H 27.2086 -5.19916 0.836338 0
M  V30 242 H 29.6996 -3.6456 0.995202 0
M  V30 243 H 30.0126 -7.26609 2.63171 0
M  V30 244 H 28.3576 -6.53696 2.36023 0
M  V30 245 H 31.5486 -4.49284 1.31382 0
M  V30 246 H 31.7216 -6.14389 2.05987 0
M  V30 247 N 25.1277 -0.289203 -1.54924 0
M  V30 248 C 26.5437 0.0645403 -1.59469 0
M  V30 249 C 26.7437 1.53419 -1.30632 0
M  V30 250 O 25.7997 2.2852 -1.074 0
M  V30 251 C 27.1127 -0.32278 -2.98963 0
M  V30 252 C 28.6607 -0.270564 -3.11828 0
M  V30 253 C 29.1357 -0.632532 -4.53611 0
M  V30 254 N 30.6267 -0.584617 -4.59496 0
M  V30 255 C 31.3617 -0.837314 -5.67254 0
M  V30 256 N 30.8577 -1.15536 -6.83098 0
M  V30 257 N 32.6507 -0.765166 -5.56868 0
M  V30 258 H 24.8017 -1.24714 -1.71931 0
M  V30 259 H 27.0647 -0.504809 -0.802416 0
M  V30 260 H 26.7707 -1.34541 -3.24948 0
M  V30 261 H 26.6447 0.32944 -3.75759 0
M  V30 262 H 29.0317 0.742805 -2.85598 0
M  V30 263 H 29.1127 -0.957242 -2.37214 0
M  V30 264 H 28.7567 -1.64365 -4.80569 0
M  V30 265 H 28.6867 0.07609 -5.26545 0
M  V30 266 H 31.1777 -0.349248 -3.76283 0
M  V30 267 H 31.4907 -1.33447 -7.61191 0
M  V30 268 H 29.8357 -1.19328 -6.84679 0
M  V30 269 H 33.0267 -0.516432 -4.65243 0
M  V30 270 H 33.1997 -0.965477 -6.40767 0
M  V30 271 N 26.6058 1.57591 -0.0167156 0
M  V30 272 C 27.5528 2.09462 0.969251 0
M  V30 273 C 28.5228 0.99381 1.33089 0
M  V30 274 O 29.7078 1.26726 1.42636 0
M  V30 275 C 26.8478 2.61622 2.25051 0
M  V30 276 C 25.9608 3.85666 1.94642 0
M  V30 277 C 25.0958 4.26266 3.16972 0
M  V30 278 C 24.1348 5.43101 2.82326 0
M  V30 279 N 23.2718 5.78915 3.97243 0
M  V30 280 H 28.1118 2.93428 0.519997 0
M  V30 281 H 25.6488 1.45044 0.245087 0
M  V30 282 H 27.6068 2.89949 2.99976 0
M  V30 283 H 26.2368 1.80505 2.67615 0
M  V30 284 H 25.2888 3.64145 1.10013 0
M  V30 285 H 26.6008 4.70678 1.65117 0
M  V30 286 H 25.7548 4.55963 4.00228 0
M  V30 287 H 24.4938 3.39996 3.49648 0
M  V30 288 H 23.4988 5.1311 1.97479 0
M  V30 289 H 24.7238 6.3106 2.50879 0
M  V30 290 H 22.6698 4.95602 4.29785 0
M  V30 291 H 22.5868 6.58539 3.71299 0
M  V30 292 H 23.8548 6.13212 4.81239 0
M  V30 293 N 28.0839 -0.256276 1.55502 0
M  V30 294 C 28.9939 -1.33882 1.92647 0
M  V30 295 C 30.0099 -1.53159 0.825727 0
M  V30 296 O 31.1859 -1.66963 1.12629 0
M  V30 297 C 28.2509 -2.6751 2.20543 0
M  V30 298 C 27.3119 -2.56836 3.43997 0
M  V30 299 C 26.5449 -3.84092 3.70553 0
M  V30 300 O 26.7679 -4.85545 2.99336 0
M  V30 301 O 25.7019 -3.83288 4.64084 0
M  V30 302 H 29.5279 -1.05374 2.84833 0
M  V30 303 H 27.1129 -0.456237 1.42263 0
M  V30 304 H 28.9949 -3.46492 2.39835 0
M  V30 305 H 27.6699 -2.9577 1.31536 0
M  V30 306 H 26.5769 -1.76172 3.30021 0
M  V30 307 H 27.9099 -2.33523 4.33275 0
M  V30 308 N 29.562 -1.4872 -0.521534 0
M  V30 309 C 30.509 -1.63871 -1.62527 0
M  V30 310 C 31.479 -0.480559 -1.58996 0
M  V30 311 O 32.664 -0.705085 -1.77294 0
M  V30 312 C 29.804 -1.69227 -3.00759 0
M  V30 313 C 28.917 -2.96207 -3.14461 0
M  V30 314 C 28.052 -2.92671 -4.43303 0
M  V30 315 C 27.091 -4.14318 -4.50563 0
M  V30 316 N 26.228 -4.0881 -5.70805 0
M  V30 317 H 31.068 -2.58123 -1.48918 0
M  V30 318 H 28.605 -1.28 -0.724878 0
M  V30 319 H 30.563 -1.70314 -3.80853 0
M  V30 320 H 29.193 -0.784586 -3.1312 0
M  V30 321 H 28.245 -3.04826 -2.27564 0
M  V30 322 H 29.557 -3.86192 -3.15686 0
M  V30 323 H 28.711 -2.92206 -5.31696 0
M  V30 324 H 27.45 -2.00429 -4.44612 0
M  V30 325 H 26.455 -4.15049 -3.60575 0
M  V30 326 H 27.68 -5.07729 -4.50986 0
M  V30 327 H 25.626 -3.19394 -5.72995 0
M  V30 328 H 25.543 -4.92509 -5.7356 0
M  V30 329 H 26.811 -4.12418 -6.61462 0
M  V30 330 N 31.0401 0.771051 -1.3745 0
M  V30 331 C 32.2651 1.56529 -1.36065 0
M  V30 332 C 32.6901 1.88029 0.0515859 0
M  V30 333 O 32.0481 1.49282 1.02882 0
M  V30 334 C 32.0961 2.85187 -2.20683 0
M  V30 335 O 31.2001 3.79593 -1.61193 0
M  V30 336 H 30.5411 0.47411 -0.464883 0
M  V30 337 H 33.0711 0.954269 -1.80983 0
M  V30 338 H 33.0811 3.34283 -2.33921 0
M  V30 339 H 31.7561 2.61588 -3.23334 0
M  V30 340 H 30.3331 3.38239 -1.56999 0
M  V30 341 N 32.5182 1.22032 0.997298 0
M  V30 342 C 33.9342 0.979326 1.26021 0
M  V30 343 C 34.1342 -0.32972 1.98784 0
M  V30 344 O 33.1902 -1.05345 2.29475 0
M  V30 345 C 34.5032 2.17509 2.07631 0
M  V30 346 C 36.0512 2.21817 2.2083 0
M  V30 347 C 36.5262 3.40933 3.05825 0
M  V30 348 N 38.0172 3.41067 3.13412 0
M  V30 349 C 38.7522 4.29885 3.79455 0
M  V30 350 N 38.2482 5.28914 4.47462 0
M  V30 351 N 40.0412 4.17673 3.76173 0
M  V30 352 H 32.1922 2.06202 0.509352 0
M  V30 353 H 34.4552 0.90334 0.287541 0
M  V30 354 H 34.1612 3.12415 1.61524 0
M  V30 355 H 34.0352 2.17206 3.08385 0
M  V30 356 H 36.4222 1.27462 2.66153 0
M  V30 357 H 36.5032 2.2616 1.1952 0
M  V30 358 H 36.1472 4.35586 2.61203 0
M  V30 359 H 36.0772 3.33829 4.07266 0
M  V30 360 H 38.5682 2.69406 2.65007 0
M  V30 361 H 38.8812 5.92973 4.95583 0
M  V30 362 H 37.2262 5.32831 4.46224 0
M  V30 363 H 40.4172 3.39564 3.22202 0
M  V30 364 H 40.5902 4.87098 4.27363 0
M  V30 365 N 33.9963 -1.19345 1.0293 0
M  V30 366 C 35.2733 -1.84811 0.640642 0
M  V30 367 C 35.6533 -1.91855 -0.88062 0
M  V30 368 O 35.0013 -1.43587 -1.7775 0
M  V30 369 C 35.2113 -3.23755 1.30321 0
M  V30 370 C 36.5593 -3.99912 1.42673 0
M  V30 371 O 37.5833 -3.33155 1.26041 0
M  V30 372 O 36.4423 -5.19494 1.6967 0
M  V30 373 H 33.5363 -0.796443 0.222726 0
M  V30 374 H 36.0823 -1.26831 1.12748 0
M  V30 375 H 34.8543 -3.13466 2.34211 0
M  V30 376 H 34.4773 -3.89381 0.804261 0
M  V30 377 N 35.4744 -0.807222 -1.35358 0
M  V30 378 C 36.4374 -0.223665 -2.28106 0
M  V30 379 C 37.4374 0.589354 -1.4961 0
M  V30 380 O 38.6274 0.407745 -1.69361 0
M  V30 381 C 35.7594 0.688149 -3.33882 0
M  V30 382 H 36.9524 -1.04169 -2.81227 0
M  V30 383 H 34.5054 -0.577921 -1.45223 0
M  V30 384 H 35.2404 1.52984 -2.85948 0
M  V30 385 H 35.0254 0.10687 -3.91954 0
M  V30 386 H 36.5154 1.09075 -4.03104 0
M  V30 387 N 36.9525 1.47285 -0.560781 0
M  V30 388 C 37.9155 2.28535 0.174488 0
M  V30 389 C 38.9155 1.37153 0.839388 0
M  V30 390 O 40.1055 1.59748 0.694702 0
M  V30 391 C 37.2375 3.16934 1.25561 0
M  V30 392 H 38.4305 2.95012 -0.539262 0
M  V30 393 H 35.9835 1.53034 -0.317865 0
M  V30 394 H 36.7185 2.55157 2.00164 0
M  V30 395 H 36.5035 3.8419 0.783604 0
M  V30 396 H 37.9935 3.78143 1.77193 0
M  V30 397 N 38.4306 0.297415 1.54768 0
M  V30 398 C 39.8466 -0.0560823 1.59501 0
M  V30 399 C 40.0466 -1.52725 1.31444 0
M  V30 400 O 39.1026 -2.27947 1.08611 0
M  V30 401 C 40.4156 0.338631 2.98787 0
M  V30 402 C 41.9636 0.287097 3.11681 0
M  V30 403 C 42.4386 0.656579 4.53269 0
M  V30 404 N 43.9296 0.608977 4.59179 0
M  V30 405 C 44.6646 0.867385 5.66802 0
M  V30 406 N 44.1606 1.19157 6.82476 0
M  V30 407 N 45.9536 0.794687 5.56454 0
M  V30 408 H 38.1046 1.25624 1.71267 0
M  V30 409 H 40.3676 0.509057 0.799728 0
M  V30 410 H 40.0736 1.36263 3.2423 0
M  V30 411 H 39.9476 -0.309508 3.75928 0
M  V30 412 H 42.3346 -0.727649 2.85988 0
M  V30 413 H 42.4156 0.969809 2.36703 0
M  V30 414 H 42.0596 1.66912 4.7969 0
M  V30 415 H 41.9896 -0.0481649 5.26578 0
M  V30 416 H 44.4806 0.369198 3.76092 0
M  V30 417 H 44.7936 1.37482 7.60473 0
M  V30 418 H 43.1386 1.22958 6.84037 0
M  V30 419 H 46.3296 0.541098 4.64962 0
M  V30 420 H 46.5026 0.999445 6.40246 0
M  V30 421 N 39.9087 -1.5758 0.0250728 0
M  V30 422 C 41.1337 -1.96337 -0.668317 0
M  V30 423 C 41.5587 -0.901314 -1.651 0
M  V30 424 O 40.9167 0.138187 -1.80773 0
M  V30 425 C 40.9647 -3.34191 -1.35457 0
M  V30 426 O 40.0687 -3.30269 -2.46974 0
M  V30 427 H 39.4097 -0.640281 -0.175887 0
M  V30 428 H 41.9397 -2.0442 0.0857224 0
M  V30 429 H 41.9497 -3.70331 -1.71228 0
M  V30 430 H 40.6247 -4.11036 -0.634218 0
M  V30 431 H 39.2017 -3.05841 -2.13344 0
M  V30 432 N 41.3868 0.248026 -1.55636 0
M  V30 433 C 42.8028 0.596483 -1.48035 0
M  V30 434 C 43.0028 1.88386 -0.715039 0
M  V30 435 O 42.0588 2.51319 -0.243944 0
M  V30 436 C 43.3718 0.700258 -2.92433 0
M  V30 437 C 44.9198 0.792659 -3.02797 0
M  V30 438 C 45.3948 0.928005 -4.485 0
M  V30 439 N 46.8858 0.992903 -4.52433 0
M  V30 440 C 47.6208 1.11687 -5.62418 0
M  V30 441 N 47.1168 1.20645 -6.82214 0
M  V30 442 N 48.9098 1.14994 -5.50212 0
M  V30 443 H 41.0608 -0.597109 -2.03834 0
M  V30 444 H 43.3238 -0.205925 -0.925364 0
M  V30 445 H 43.0298 -0.175658 -3.51261 0
M  V30 446 H 42.9038 1.57255 -3.42857 0
M  V30 447 H 45.2908 1.65903 -2.4405 0
M  V30 448 H 45.3718 -0.104762 -2.55585 0
M  V30 449 H 45.0158 0.0661971 -5.07857 0
M  V30 450 H 44.9458 1.84045 -4.93391 0
M  V30 451 H 47.4368 0.935064 -3.66149 0
M  V30 452 H 47.7498 1.30008 -7.61786 0
M  V30 453 H 46.0948 1.17605 -6.84977 0
M  V30 454 H 49.2858 1.07643 -4.55555 0
M  V30 455 H 49.4588 1.24311 -6.35965 0
M  V30 456 N 42.8649 1.48995 0.513639 0
M  V30 457 C 44.2809 1.35478 0.843682 0
M  V30 458 C 44.4809 0.378213 1.97919 0
M  V30 459 O 43.5369 -0.194689 2.51748 0
M  V30 460 C 44.8499 2.75901 1.1958 0
M  V30 461 C 46.3979 2.84509 1.30474 0
M  V30 462 C 46.8729 4.25671 1.69021 0
M  V30 463 N 48.3639 4.28422 1.76094 0
M  V30 464 C 49.0989 5.34601 2.07338 0
M  V30 465 N 48.5949 6.5104 2.36894 0
M  V30 466 N 50.3879 5.22007 2.08483 0
M  V30 467 H 42.5389 2.11092 -0.235328 0
M  V30 468 H 44.8019 0.947039 -0.0426669 0
M  V30 469 H 44.5079 3.49001 0.434913 0
M  V30 470 H 44.3819 3.10467 2.1422 0
M  V30 471 H 46.7689 2.11655 2.05637 0
M  V30 472 H 46.8499 2.53542 0.339155 0
M  V30 473 H 46.4939 4.99048 0.944135 0
M  V30 474 H 46.4239 4.54094 2.66658 0
M  V30 475 H 48.9149 3.44441 1.55464 0
M  V30 476 H 49.2279 7.2779 2.59887 0
M  V30 477 H 47.5729 6.54287 2.34378 0
M  V30 478 H 50.7639 4.30051 1.84861 0
M  V30 479 H 50.9369 6.04854 2.325 0
M  V30 480 N 44.343 -0.763751 1.37857 0
M  V30 481 C 45.568 -1.55805 1.36893 0
M  V30 482 C 45.993 -1.88054 -0.0416135 0
M  V30 483 O 45.351 -1.49825 -1.02089 0
M  V30 484 C 45.399 -2.84012 2.22192 0
M  V30 485 O 44.503 -3.78732 1.63204 0
M  V30 486 H 43.844 -0.471638 0.46739 0
M  V30 487 H 46.374 -0.944657 1.81487 0
M  V30 488 H 46.384 -3.33037 2.35691 0
M  V30 489 H 45.059 -2.59869 3.24716 0
M  V30 490 H 43.636 -3.37402 1.58791 0
M  V30 491 N 45.8211 -1.22559 -0.990812 0
M  V30 492 C 46.7681 -0.997519 -2.0813 0
M  V30 493 C 47.7381 0.0814702 -1.659 0
M  V30 494 O 48.9231 -0.0685424 -1.90677 0
M  V30 495 C 46.0631 -0.583615 -3.40129 0
M  V30 496 C 45.1761 -1.7336 -3.9569 0
M  V30 497 C 44.3111 -1.26748 -5.15857 0
M  V30 498 C 43.3501 -2.38888 -5.63559 0
M  V30 499 N 42.4871 -1.93308 -6.74964 0
M  V30 500 H 47.3271 -1.93099 -2.26973 0
M  V30 501 H 44.8641 -0.962114 -1.11273 0
M  V30 502 H 46.8221 -0.324801 -4.15934 0
M  V30 503 H 45.4521 0.312845 -3.2128 0
M  V30 504 H 44.5041 -2.10669 -3.16738 0
M  V30 505 H 45.8161 -2.57704 -4.27071 0
M  V30 506 H 44.9701 -0.966173 -5.98957 0
M  V30 507 H 43.7091 -0.394272 -4.86104 0
M  V30 508 H 42.7141 -2.69805 -4.79046 0
M  V30 509 H 43.9391 -3.26728 -5.95336 0
M  V30 510 H 41.8851 -1.08352 -6.4699 0
M  V30 511 H 41.8021 -2.71217 -7.05675 0
M  V30 512 H 43.0701 -1.66252 -7.61564 0
M  V30 513 N 47.2992 1.18797 -1.03562 0
M  V30 514 C 48.2092 2.25913 -0.632505 0
M  V30 515 C 49.2252 1.70668 0.338882 0
M  V30 516 O 50.4012 2.00453 0.195076 0
M  V30 517 C 47.4662 3.467 0.00350942 0
M  V30 518 C 46.5272 4.17098 -1.01624 0
M  V30 519 C 45.7602 5.32119 -0.410478 0
M  V30 520 O 45.9832 5.64976 0.784725 0
M  V30 521 O 44.9172 5.9107 -1.13667 0
M  V30 522 H 48.7432 2.62648 -1.52478 0
M  V30 523 H 46.3282 1.25781 -0.806195 0
M  V30 524 H 48.2102 4.19878 0.35781 0
M  V30 525 H 46.8852 3.11798 0.869686 0
M  V30 526 H 45.7922 3.4601 -1.42224 0
M  V30 527 H 47.1252 4.55987 -1.85301 0
M  V30 528 N 48.7773 0.814389 1.34928 0
M  V30 529 C 50.0023 0.410097 2.03305 0
M  V30 530 C 50.4273 -0.973464 1.60951 0
M  V30 531 O 49.7853 -1.63185 0.789964 0
M  V30 532 C 49.8333 0.51049 3.56968 0
M  V30 533 O 48.9373 -0.473035 4.09678 0
M  V30 534 H 48.2783 0.170088 0.641846 0
M  V30 535 H 50.8083 1.10244 1.72358 0
M  V30 536 H 50.8183 0.383135 4.06197 0
M  V30 537 H 49.4933 1.51963 3.87144 0
M  V30 538 H 48.0703 -0.305272 3.71648 0
M  V30 539 N 50.2554 -1.46986 0.568584 0
M  V30 540 C 51.1654 -2.33942 -0.17555 0
M  V30 541 C 52.1814 -1.48891 -0.90041 0
M  V30 542 O 53.3574 -1.81794 -0.86676 0
M  V30 543 C 50.4224 -3.25811 -1.18524 0
M  V30 544 C 49.4834 -4.26757 -0.466582 0
M  V30 545 C 48.7164 -5.14236 -1.42817 0
M  V30 546 O 48.9394 -5.04379 -2.66379 0
M  V30 547 O 47.8734 -5.94412 -0.946453 0
M  V30 548 H 51.6994 -2.98896 0.538036 0
M  V30 549 H 49.2844 -1.4573 0.329097 0
M  V30 550 H 51.1664 -3.82527 -1.76779 0
M  V30 551 H 49.8414 -2.63471 -1.88055 0
M  V30 552 H 48.7484 -3.73769 0.157451 0
M  V30 553 H 50.0814 -4.91843 0.187485 0
M  V30 554 N 51.7335 -0.305618 -1.54608 0
M  V30 555 C 52.9795 0.302746 -2.00528 0
M  V30 556 C 53.3125 1.53184 -1.19367 0
M  V30 557 O 52.5875 1.92598 -0.271321 0
M  V30 558 C 52.8705 0.654756 -3.54097 0
M  V30 559 C 52.7235 -0.583793 -4.45995 0
M  V30 560 C 54.0425 1.47947 -4.14487 0
M  V30 561 H 51.1615 0.108564 -0.72896 0
M  V30 562 H 53.8035 -0.418634 -1.85331 0
M  V30 563 H 51.9535 1.26935 -3.67178 0
M  V30 564 H 53.6255 -1.22224 -4.44814 0
M  V30 565 H 51.8685 -1.21615 -4.16404 0
M  V30 566 H 52.5395 -0.293287 -5.5122 0
M  V30 567 H 55.0155 0.96013 -4.04871 0
M  V30 568 H 53.8915 1.69454 -5.22088 0
M  V30 569 H 54.1525 2.47011 -3.66658 0
M  V30 570 N 53.2116 1.57565 -0.0334293 0
M  V30 571 C 54.4586 1.91978 0.644272 0
M  V30 572 C 54.7866 0.910231 1.71887 0
M  V30 573 O 54.0416 -0.0801961 1.95536 0
M  V30 574 C 54.3406 3.33112 1.29504 0
M  V30 575 C 54.0066 4.49537 0.350388 0
M  V30 576 C 52.6686 4.81115 0.0903974 0
M  V30 577 C 55.0206 5.20347 -0.298032 0
M  V30 578 C 52.3486 5.8086 -0.825746 0
M  V30 579 C 54.7006 6.2107 -1.20226 0
M  V30 580 C 53.3646 6.51088 -1.4711 0
M  V30 581 H 52.6346 0.702496 0.235756 0
M  V30 582 H 55.2816 1.91259 -0.0961176 0
M  V30 583 H 53.5866 3.30113 2.11028 0
M  V30 584 H 55.2836 3.57011 1.82603 0
M  V30 585 H 51.8736 4.24883 0.563205 0
M  V30 586 H 56.0576 4.96178 -0.110234 0
M  V30 587 H 51.3136 6.02461 -1.04169 0
M  V30 588 H 55.4876 6.75057 -1.71086 0
M  V30 589 H 53.1146 7.28193 -2.18264 0
M  V30 590 N 54.6897 -0.239769 1.55765 0
M  V30 591 C 55.9197 -0.982743 1.8173 0
M  V30 592 C 56.3277 -1.7917 0.607835 0
M  V30 593 O 55.6707 -1.78525 -0.432973 0
M  V30 594 C 55.7327 -1.96332 3.01155 0
M  V30 595 C 55.3967 -1.34062 4.36894 0
M  V30 596 C 56.3937 -0.739539 5.14613 0
M  V30 597 C 54.0787 -1.35784 4.83599 0
M  V30 598 C 56.0727 -0.163989 6.37189 0
M  V30 599 C 53.7597 -0.778441 6.06122 0
M  V30 600 C 54.7577 -0.182548 6.82756 0
M  V30 601 O 54.4457 0.387887 8.02964 0
M  V30 602 H 54.1777 -0.294481 0.608487 0
M  V30 603 H 56.7317 -0.26572 2.03674 0
M  V30 604 H 54.9617 -2.71884 2.74984 0
M  V30 605 H 56.6507 -2.57032 3.14149 0
M  V30 606 H 57.4167 -0.718687 4.79646 0
M  V30 607 H 53.2957 -1.81105 4.23936 0
M  V30 608 H 56.8397 0.301753 6.96947 0
M  V30 609 H 52.7367 -0.796645 6.40565 0
M  V30 610 H 53.5047 0.28044 8.18019 0
M  V30 611 N 56.1678 -1.49265 -0.50573 0
M  V30 612 C 57.0778 -1.68312 -1.63427 0
M  V30 613 C 58.0938 -0.565682 -1.64548 0
M  V30 614 O 59.2698 -0.839801 -1.83055 0
M  V30 615 C 56.3348 -1.74107 -2.99813 0
M  V30 616 C 55.3958 -2.97653 -3.09356 0
M  V30 617 C 54.6288 -3.03163 -4.39236 0
M  V30 618 O 54.8518 -2.16396 -5.27758 0
M  V30 619 O 53.7858 -3.9558 -4.53652 0
M  V30 620 H 57.6118 -2.63907 -1.50289 0
M  V30 621 H 55.1968 -1.32951 -0.681502 0
M  V30 622 H 57.0788 -1.803 -3.80881 0
M  V30 623 H 55.7538 -0.816901 -3.13223 0
M  V30 624 H 54.6608 -2.96981 -2.27493 0
M  V30 625 H 55.9938 -3.89535 -3.00871 0
M  V30 626 N 57.6459 0.756429 -1.3826 0
M  V30 627 C 58.5759 1.88374 -1.37976 0
M  V30 628 C 59.5569 1.68311 -0.246082 0
M  V30 629 O 60.7419 1.88944 -0.44874 0
M  V30 630 C 57.8719 3.25864 -1.20125 0
M  V30 631 C 56.8259 3.60523 -2.30666 0
M  V30 632 C 56.1519 4.9672 -1.97923 0
M  V30 633 C 57.4519 3.65692 -3.72916 0
M  V30 634 H 59.1459 1.88869 -2.32312 0
M  V30 635 H 56.6919 0.907272 -1.11824 0
M  V30 636 H 58.6449 4.0438 -1.18552 0
M  V30 637 H 57.3689 3.25841 -0.222498 0
M  V30 638 H 56.0279 2.84324 -2.3142 0
M  V30 639 H 55.6759 4.93253 -0.985393 0
M  V30 640 H 55.3759 5.20878 -2.71955 0
M  V30 641 H 56.8999 5.77618 -1.97964 0
M  V30 642 H 58.3139 4.34328 -3.74208 0
M  V30 643 H 56.7109 4.01358 -4.4613 0
M  V30 644 H 57.7809 2.65987 -4.05436 0
M  V30 645 N 59.124 1.23083 0.984299 0
M  V30 646 C 60.087 1.00979 2.05757 0
M  V30 647 C 61.087 -0.0269573 1.60777 0
M  V30 648 O 62.277 0.212403 1.729 0
M  V30 649 C 59.409 0.527072 3.36801 0
M  V30 650 H 60.602 1.9622 2.26799 0
M  V30 651 H 58.155 1.05072 1.15714 0
M  V30 652 H 58.89 -0.429294 3.21446 0
M  V30 653 H 58.675 1.27515 3.70786 0
M  V30 654 H 60.165 0.392942 4.15747 0
M  V30 655 N 60.6021 -1.18246 1.0419 0
M  V30 656 C 61.5521 -2.19843 0.604392 0
M  V30 657 C 62.5361 -1.56962 -0.353814 0
M  V30 658 O 63.7281 -1.76156 -0.17267 0
M  V30 659 C 60.8571 -3.43287 -0.0298975 0
M  V30 660 C 59.9431 -4.13288 0.951531 0
M  V30 661 N 60.3341 -4.59271 2.11906 0
M  V30 662 C 58.6321 -4.39165 0.7778 0
M  V30 663 C 59.3331 -5.13173 2.73912 0
M  V30 664 N 58.3091 -5.04763 2.01779 0
M  V30 665 H 62.1111 -2.53089 1.4941 0
M  V30 666 H 59.6251 -1.34465 0.910658 0
M  V30 667 H 61.6221 -4.15334 -0.361037 0
M  V30 668 H 60.2821 -3.11537 -0.915127 0
M  V30 669 H 61.2931 -4.5368 2.49789 0
M  V30 670 H 57.9701 -4.17461 -0.0572331 0
M  V30 671 H 59.3601 -5.58947 3.72864 0
M  V30 672 N 62.0802 -0.821533 -1.34494 0
M  V30 673 C 63.0122 -0.199946 -2.28326 0
M  V30 674 C 64.0252 0.609377 -1.50965 0
M  V30 675 O 65.2142 0.439285 -1.7301 0
M  V30 676 C 62.3142 0.738431 -3.30757 0
M  V30 677 C 61.4872 -0.0277632 -4.37391 0
M  V30 678 C 60.5462 0.831332 -5.19591 0
M  V30 679 O 59.5722 0.276822 -5.68526 0
M  V30 680 N 60.7742 2.15132 -5.39165 0
M  V30 681 H 63.5392 -1.00609 -2.82308 0
M  V30 682 H 61.1002 -0.678366 -1.47003 0
M  V30 683 H 63.0922 1.31773 -3.82646 0
M  V30 684 H 61.6622 1.44533 -2.7718 0
M  V30 685 H 60.8822 -0.788359 -3.86236 0
M  V30 686 H 62.1702 -0.555251 -5.05761 0
M  V30 687 H 61.5682 2.62559 -5.01078 0
M  V30 688 H 60.1252 2.6795 -5.94177 0
M  V30 689 N 63.5583 1.46682 -0.576371 0
M  V30 690 C 64.4883 2.33028 0.148397 0
M  V30 691 C 65.4693 1.44961 0.889956 0
M  V30 692 O 66.6543 1.73789 0.866662 0
M  V30 693 C 63.7843 3.27117 1.1667 0
M  V30 694 C 62.7383 4.24575 0.540386 0
M  V30 695 C 62.0643 5.08126 1.6647 0
M  V30 696 C 63.3643 5.19722 -0.518331 0
M  V30 697 H 65.0583 2.93875 -0.572509 0
M  V30 698 H 62.6043 1.41315 -0.276768 0
M  V30 699 H 64.5573 3.86374 1.68204 0
M  V30 700 H 63.2813 2.64364 1.9178 0
M  V30 701 H 61.9403 3.66571 0.0461769 0
M  V30 702 H 61.5883 4.41762 2.40531 0
M  V30 703 H 61.2883 5.74122 1.25131 0
M  V30 704 H 62.8123 5.70246 2.18293 0
M  V30 705 H 64.2263 5.73232 -0.0883058 0
M  V30 706 H 62.6233 5.94026 -0.851679 0
M  V30 707 H 63.6933 4.64037 -1.40703 0
M  V30 708 N 65.0364 0.313813 1.54444 0
M  V30 709 C 66.4474 -0.176243 1.85866 0
M  V30 710 C 66.7984 -1.52405 1.23561 0
M  V30 711 O 65.9234 -2.09605 0.538016 0
M  V30 712 C 66.5184 -0.32657 3.37222 0
M  V30 713 C 65.0774 -0.760846 3.6863 0
M  V30 714 C 64.2244 0.123247 2.77026 0
M  V30 715 H 67.1754 0.534418 1.49431 0
M  V30 716 H 67.1964 -1.15908 3.62416 0
M  V30 717 H 66.7084 0.654531 3.82541 0
M  V30 718 H 64.8094 -1.75204 3.28838 0
M  V30 719 H 64.9224 -0.571353 4.75681 0
M  V30 720 H 63.2864 -0.399597 2.51546 0
M  V30 721 H 64.0694 1.10094 3.25168 0
M  V30 722 N 66.5145 -1.57545 0.0417849 0
M  V30 723 C 67.4445 -2.14009 -0.933929 0
M  V30 724 C 68.4255 -1.05938 -1.33083 0
M  V30 725 O 69.6105 -1.33833 -1.40721 0
M  V30 726 C 66.7405 -2.67747 -2.21199 0
M  V30 727 C 65.6945 -3.80718 -1.95544 0
M  V30 728 C 65.0205 -4.20935 -3.29724 0
M  V30 729 C 66.3205 -5.06258 -1.28452 0
M  V30 730 H 68.0145 -2.95788 -0.463645 0
M  V30 731 H 65.5605 -1.42285 -0.221573 0
M  V30 732 H 67.5135 -3.05886 -2.89848 0
M  V30 733 H 66.2375 -1.83147 -2.70416 0
M  V30 734 H 64.8965 -3.43037 -1.2931 0
M  V30 735 H 64.5445 -3.33298 -3.76724 0
M  V30 736 H 64.2445 -4.9707 -3.13361 0
M  V30 737 H 65.7685 -4.61666 -3.9962 0
M  V30 738 H 67.1825 -5.41903 -1.8712 0
M  V30 739 H 65.5795 -5.87475 -1.22445 0
M  V30 740 H 66.6495 -4.84207 -0.259219 0
M  V30 741 N 67.9926 0.231505 -1.5589 0
M  V30 742 C 69.4036 0.799327 -1.68724 0
M  V30 743 C 69.7546 1.85398 -0.642022 0
M  V30 744 O 68.8796 2.1539 0.208784 0
M  V30 745 C 69.4746 1.45664 -3.05888 0
M  V30 746 C 68.0336 1.97197 -3.20609 0
M  V30 747 C 67.1806 0.828552 -2.64632 0
M  V30 748 H 70.1316 0.00702616 -1.58698 0
M  V30 749 H 70.1526 2.32517 -3.01191 0
M  V30 750 H 69.6646 0.688808 -3.81939 0
M  V30 751 H 67.7656 2.76813 -2.4941 0
M  V30 752 H 67.8786 2.15878 -4.27707 0
M  V30 753 H 66.2426 1.23321 -2.22854 0
M  V30 754 H 67.0256 0.0735544 -3.43221 0
M  V30 755 N 69.4707 1.49531 0.497807 0
M  V30 756 C 70.4207 1.62829 1.59596 0
M  V30 757 C 71.4047 0.483824 1.53453 0
M  V30 758 O 72.5967 0.736937 1.60929 0
M  V30 759 C 69.7257 1.7011 2.98191 0
M  V30 760 C 68.8117 2.90144 3.09317 0
M  V30 761 N 69.2027 4.1418 2.90324 0
M  V30 762 C 67.5007 2.88148 3.40422 0
M  V30 763 C 68.2017 4.94886 3.05717 0
M  V30 764 N 67.1777 4.28314 3.34736 0
M  V30 765 H 70.9797 2.56446 1.4357 0
M  V30 766 H 68.4937 1.46347 0.704001 0
M  V30 767 H 70.4907 1.77735 3.77115 0
M  V30 768 H 69.1507 0.776315 3.15283 0
M  V30 769 H 70.1617 4.44109 2.66436 0
M  V30 770 H 66.8387 2.05061 3.63671 0
M  V30 771 H 68.2287 6.03432 2.95499 0
M  V30 772 N 70.9488 -0.749086 1.3866 0
M  V30 773 C 71.8968 -1.88428 1.36373 0
M  V30 774 C 72.8908 -1.67561 0.248929 0
M  V30 775 O 74.0968 -1.75074 0.41821 0
M  V30 776 H 70.4718 -0.620023 0.42553 0
M  V30 777 H 72.4428 -1.87473 2.32156 0
M  V30 778 C 71.1918 -3.25961 1.21014 0
M  V30 779 H 70.5148 -3.42607 2.06059 0
M  V30 780 H 71.9548 -4.05625 1.23469 0
M  V30 781 C 70.4138 -3.36799 -0.0825941 0
M  V30 782 O 70.9438 -3.87517 -1.05797 0
M  V30 783 N 69.1498 -2.90258 -0.140939 0
M  V30 784 H 68.6968 -2.49174 0.653477 0
M  V30 785 H 68.6548 -2.97889 -1.00545 0
M  V30 786 N 72.4269 -1.23603 -0.977757 0
M  V30 787 C 73.6729 -1.07129 -1.72195 0
M  V30 788 C 74.0059 0.390501 -1.90233 0
M  V30 789 O 73.2809 1.28902 -1.45653 0
M  V30 790 C 73.5639 -1.80031 -3.11867 0
M  V30 791 C 73.4169 -3.33899 -3.01383 0
M  V30 792 C 74.7359 -1.56492 -4.11337 0
M  V30 793 H 71.8549 -0.390571 -0.624999 0
M  V30 794 H 74.4969 -1.52142 -1.13811 0
M  V30 795 H 72.6469 -1.41768 -3.6171 0
M  V30 796 H 74.3189 -3.81699 -2.59043 0
M  V30 797 H 72.5619 -3.62796 -2.37827 0
M  V30 798 H 73.2329 -3.801 -4.00285 0
M  V30 799 H 75.7089 -1.89757 -3.70313 0
M  V30 800 H 74.5849 -2.09973 -5.07151 0
M  V30 801 H 74.8459 -0.500874 -4.39254 0
M  V30 802 N 73.905 1.17692 -1.04816 0
M  V30 803 C 75.13 1.92327 -0.776207 0
M  V30 804 C 75.555 1.76082 0.661581 0
M  V30 805 O 74.913 1.076 1.45917 0
M  V30 806 C 74.961 3.41539 -1.15687 0
M  V30 807 O 74.065 4.11402 -0.286775 0
M  V30 808 H 73.406 0.599735 -0.284981 0
M  V30 809 H 75.936 1.49201 -1.4 0
M  V30 810 H 75.946 3.92269 -1.12202 0
M  V30 811 H 74.621 3.52684 -2.20425 0
M  V30 812 H 73.198 3.70939 -0.381903 0
M  V30 813 N 75.3831 0.828654 1.34056 0
M  V30 814 C 76.6081 0.431637 2.02859 0
M  V30 815 C 77.0331 -0.956339 1.61975 0
M  V30 816 O 76.3911 -1.62338 0.807228 0
M  V30 817 C 76.4391 0.548323 3.56407 0
M  V30 818 O 75.5431 -0.429556 4.10157 0
M  V30 819 H 74.8841 0.176886 0.640006 0
M  V30 820 H 77.4141 1.12066 1.71179 0
M  V30 821 H 77.4241 0.426196 4.05768 0
M  V30 822 H 76.0991 1.5606 3.8551 0
M  V30 823 H 74.6761 -0.265836 3.71951 0
M  V30 824 N 76.8612 -1.46375 0.584142 0
M  V30 825 C 77.8112 -2.27371 -0.169232 0
M  V30 826 C 78.7952 -1.35955 -0.860523 0
M  V30 827 O 79.9872 -1.60119 -0.754382 0
M  V30 828 C 77.1162 -3.22334 -1.18134 0
M  V30 829 C 76.2022 -4.21235 -0.492088 0
M  V30 830 N 76.5932 -5.03766 0.453129 0
M  V30 831 C 74.8912 -4.39773 -0.742652 0
M  V30 832 C 75.5922 -5.75366 0.85609 0
M  V30 833 N 74.5682 -5.43214 0.204926 0
M  V30 834 H 78.3702 -2.88572 0.557097 0
M  V30 835 H 75.8842 -1.57242 0.406042 0
M  V30 836 H 77.8812 -3.79071 -1.73525 0
M  V30 837 H 76.5412 -2.62693 -1.90847 0
M  V30 838 H 77.5522 -5.11227 0.828723 0
M  V30 839 H 74.2292 -3.91279 -1.45625 0
M  V30 840 H 75.6192 -6.5172 1.63434 0
M  V30 841 N 78.3393 -0.321999 -1.54275 0
M  V30 842 C 79.2693 0.537411 -2.27231 0
M  V30 843 C 80.2503 1.12064 -1.27968 0
M  V30 844 O 81.4353 1.14606 -1.56777 0
M  V30 845 C 78.5653 1.69919 -3.02894 0
M  V30 846 C 77.5193 1.24534 -4.09482 0
M  V30 847 C 76.8453 2.49394 -4.72977 0
M  V30 848 C 78.1453 0.361335 -5.21049 0
M  V30 849 H 79.8393 -0.0711406 -2.99315 0
M  V30 850 H 77.3853 -0.0356555 -1.43956 0
M  V30 851 H 79.3383 2.30668 -3.52662 0
M  V30 852 H 78.0623 2.33431 -2.28424 0
M  V30 853 H 76.7213 0.660782 -3.60596 0
M  V30 854 H 76.3693 3.11265 -3.95124 0
M  V30 855 H 76.0693 2.19718 -5.44975 0
M  V30 856 H 77.5933 3.10908 -5.25517 0
M  V30 857 H 79.0073 0.875072 -5.66582 0
M  V30 858 H 77.4043 0.157428 -5.99893 0
M  V30 859 H 78.4743 -0.60822 -4.8107 0
M  V30 860 N 79.8174 1.5752 -0.0501392 0
M  V30 861 C 81.0944 1.83996 0.663685 0
M  V30 862 C 81.4744 0.938339 1.89099 0
M  V30 863 O 80.8224 -0.00087759 2.285 0
M  V30 864 C 81.0324 3.33702 1.02196 0
M  V30 865 C 82.3804 4.00691 1.40469 0
M  V30 866 O 83.4044 3.38321 1.11433 0
M  V30 867 O 82.2634 5.10658 1.94654 0
M  V30 868 H 79.3574 0.759385 0.32751 0
M  V30 869 H 81.9034 1.69514 -0.0794238 0
M  V30 870 H 80.6754 3.91015 0.149364 0
M  V30 871 H 80.2984 3.53368 1.82255 0
M  V30 872 N 81.2955 -0.223234 1.56011 0
M  V30 873 C 82.2425 -1.27664 1.92277 0
M  V30 874 C 83.2125 -1.46659 0.779763 0
M  V30 875 O 84.3975 -1.60256 1.03551 0
M  V30 876 C 81.5375 -2.62234 2.24338 0
M  V30 877 C 80.6505 -2.51051 3.51564 0
M  V30 878 C 79.7855 -3.78133 3.7308 0
M  V30 879 C 78.8245 -3.61665 4.93827 0
M  V30 880 N 77.9615 -4.80693 5.11741 0
M  V30 881 H 82.8015 -0.960358 2.82101 0
M  V30 882 H 80.3385 -0.462901 1.39627 0
M  V30 883 H 82.2965 -3.40596 2.40936 0
M  V30 884 H 80.9265 -2.91961 1.3769 0
M  V30 885 H 79.9785 -1.64132 3.43169 0
M  V30 886 H 81.2905 -2.34803 4.40079 0
M  V30 887 H 80.4445 -4.64938 3.89766 0
M  V30 888 H 79.1835 -3.97304 2.82844 0
M  V30 889 H 78.1885 -2.73244 4.77093 0
M  V30 890 H 79.4135 -3.43966 5.85546 0
M  V30 891 H 77.3595 -5.00181 4.24446 0
M  V30 892 H 77.2765 -4.67165 5.94384 0
M  V30 893 H 78.5445 -5.6893 5.3286 0
M  V30 894 N 82.7736 -1.49793 -0.48987 0
M  V30 895 C 83.7366 -1.66752 -1.57246 0
M  V30 896 C 84.7366 -0.538867 -1.51502 0
M  V30 897 O 85.9266 -0.805545 -1.54456 0
M  V30 898 C 83.0586 -1.67528 -2.96896 0
M  V30 899 H 84.2516 -2.63321 -1.43534 0
M  V30 900 H 81.8046 -1.38992 -0.714914 0
M  V30 901 H 82.5396 -0.725837 -3.16073 0
M  V30 902 H 82.3246 -2.49504 -3.02473 0
M  V30 903 H 83.8146 -1.82667 -3.7553 0
M  V30 904 N 84.2517 0.741722 -1.39055 0
M  V30 905 C 85.4767 1.53607 -1.39354 0
M  V30 906 C 85.9017 1.88096 0.0116905 0
M  V30 907 O 85.2597 1.5143 0.996924 0
M  V30 908 C 85.3077 2.80441 -2.26682 0
M  V30 909 O 84.4117 3.76088 -1.69208 0
M  V30 910 H 83.7527 0.464142 -0.474835 0
M  V30 911 H 86.2827 0.915665 -1.82967 0
M  V30 912 H 86.2927 3.29246 -2.40959 0
M  V30 913 H 84.9677 2.5467 -3.2881 0
M  V30 914 H 83.5447 3.34833 -1.64138 0
M  V30 915 N 85.7298 1.2412 0.971189 0
M  V30 916 C 86.9758 1.08041 1.71625 0
M  V30 917 C 87.3088 -0.380407 1.90438 0
M  V30 918 O 86.5838 -1.28127 1.46334 0
M  V30 919 C 86.8668 1.81682 3.10908 0
M  V30 920 C 86.7198 3.35493 2.99608 0
M  V30 921 C 88.0388 1.58671 4.10501 0
M  V30 922 H 85.1578 0.39388 0.622919 0
M  V30 923 H 87.7998 1.52743 1.13003 0
M  V30 924 H 85.9498 1.43684 3.60953 0
M  V30 925 H 87.6218 3.83068 2.57015 0
M  V30 926 H 85.8648 3.64052 2.35899 0
M  V30 927 H 86.5358 3.82217 3.98264 0
M  V30 928 H 89.0118 1.91719 3.69301 0
M  V30 929 H 87.8878 2.1266 5.06031 0
M  V30 930 H 88.1488 0.524161 4.38982 0
M  V30 931 N 87.2079 -1.17134 1.05439 0
M  V30 932 C 88.1409 -2.2012 0.601855 0
M  V30 933 C 89.1189 -1.58314 -0.370854 0
M  V30 934 O 90.3029 -1.8638 -0.281882 0
M  V30 935 C 87.4299 -3.38491 -0.118868 0
M  V30 936 C 86.4759 -4.18752 0.809242 0
M  V30 937 S 87.3089 -4.83602 2.29977 0
M  V30 938 C 88.4649 -6.0536 1.59029 0
M  V30 939 H 88.6979 -2.58165 1.47438 0
M  V30 940 H 86.2309 -1.27788 0.866573 0
M  V30 941 H 88.1889 -4.07084 -0.528495 0
M  V30 942 H 86.8499 -2.98829 -0.967465 0
M  V30 943 H 86.0429 -5.03373 0.251379 0
M  V30 944 H 85.6449 -3.5561 1.15835 0
M  V30 945 H 87.9369 -6.71615 0.891017 0
M  V30 946 H 88.8799 -6.65679 2.41407 0
M  V30 947 H 89.2879 -5.54138 1.07663 0
M  V30 948 N 88.686 -0.835752 -1.33615 0
M  V30 949 C 90.102 -0.523139 -1.50783 0
M  V30 950 C 90.302 0.950171 -1.77691 0
M  V30 951 O 89.358 1.73411 -1.83534 0
M  V30 952 C 90.671 -1.39378 -2.66448 0
M  V30 953 C 92.219 -1.39223 -2.80332 0
M  V30 954 C 92.694 -2.24765 -3.99055 0
M  V30 955 N 94.185 -2.22458 -4.06284 0
M  V30 956 C 94.92 -2.85386 -4.97336 0
M  V30 957 N 94.416 -3.57354 -5.93523 0
M  V30 958 N 96.209 -2.74872 -4.90308 0
M  V30 959 H 88.36 -1.78952 -1.14411 0
M  V30 960 H 90.623 -0.763297 -0.562212 0
M  V30 961 H 90.329 -2.44061 -2.53234 0
M  V30 962 H 90.203 -1.0676 -3.61776 0
M  V30 963 H 92.59 -0.353136 -2.92979 0
M  V30 964 H 92.671 -1.75846 -1.85773 0
M  V30 965 H 92.315 -3.28732 -3.87167 0
M  V30 966 H 92.245 -1.85485 -4.92852 0
M  V30 967 H 94.736 -1.70119 -3.37443 0
M  V30 968 H 95.049 -4.02584 -6.59656 0
M  V30 969 H 93.394 -3.61461 -5.93608 0
M  V30 970 H 96.585 -2.18213 -4.14126 0
M  V30 971 H 96.758 -3.24199 -5.61069 0
M  V30 972 N 90.1641 1.46063 -0.591896 0
M  V30 973 C 91.0941 2.33172 0.123673 0
M  V30 974 C 92.0751 1.45897 0.87453 0
M  V30 975 O 93.2601 1.74698 0.848181 0
M  V30 976 C 90.3901 3.28336 1.13194 0
M  V30 977 C 89.3441 4.25124 0.495324 0
M  V30 978 C 88.6701 5.09863 1.61071 0
M  V30 979 C 89.9701 5.19143 -0.573425 0
M  V30 980 H 91.6641 2.93252 -0.603646 0
M  V30 981 H 89.2101 1.41014 -0.291741 0
M  V30 982 H 91.1631 3.88137 1.64097 0
M  V30 983 H 89.8871 2.66383 1.88965 0
M  V30 984 H 88.5461 3.66599 0.00729452 0
M  V30 985 H 88.1941 4.44288 2.35832 0
M  V30 986 H 87.8941 5.75417 1.19035 0
M  V30 987 H 89.4181 5.72529 2.12233 0
M  V30 988 H 90.8321 5.73106 -0.1491 0
M  V30 989 H 89.2291 5.93089 -0.914636 0
M  V30 990 H 90.2991 4.62519 -1.45617 0
M  V30 991 N 91.6422 0.330177 1.54103 0
M  V30 992 C 92.8702 -0.272179 2.05102 0
M  V30 993 C 93.2852 -1.45267 1.20595 0
M  V30 994 O 92.6422 -1.8094 0.238144 0
M  V30 995 C 92.6932 -0.70023 3.54653 0
M  V30 996 O 92.4142 0.433301 4.35952 0
M  V30 997 C 93.9152 -1.3647 4.21771 0
M  V30 998 H 91.1352 -0.0549159 0.668749 0
M  V30 999 H 93.6792 0.478285 1.98828 0
M  V30 1000 H 91.8342 -1.40066 3.61193 0
M  V30 1001 H 92.2482 0.0947539 5.24414 0
M  V30 1002 H 93.7222 -1.61509 5.27843 0
M  V30 1003 H 94.1992 -2.31409 3.73292 0
M  V30 1004 H 94.8052 -0.706675 4.19388 0
M  V30 1005 N 93.1203 -1.57491 0.0584922 0
M  V30 1006 C 94.3693 -1.92155 -0.613146 0
M  V30 1007 C 94.6823 -0.939334 -1.71569 0
M  V30 1008 O 95.8883 -1.17829 -2.44599 0
M  V30 1009 C 94.3443 -3.41303 -1.14195 0
M  V30 1010 C 93.9523 -4.47944 -0.0711265 0
M  V30 1011 C 95.6963 -3.84988 -1.78841 0
M  V30 1012 C 93.6033 -5.88212 -0.613225 0
M  V30 1013 H 92.5333 -0.717162 -0.232796 0
M  V30 1014 H 95.1843 -1.83049 0.12857 0
M  V30 1015 H 93.5663 -3.45437 -1.93621 0
M  V30 1016 H 94.7403 -4.55408 0.702836 0
M  V30 1017 H 93.0553 -4.13644 0.478313 0
M  V30 1018 H 95.6523 -4.87159 -2.20408 0
M  V30 1019 H 95.9953 -3.21632 -2.64308 0
M  V30 1020 H 96.5283 -3.83401 -1.06059 0
M  V30 1021 H 93.2673 -6.55183 0.203978 0
M  V30 1022 H 92.7873 -5.84294 -1.35501 0
M  V30 1023 H 94.4663 -6.37687 -1.09383 0
M  V30 1024 N 94.5984 0.214957 -1.56127 0
M  V30 1025 C 95.8234 0.95924 -1.83884 0
M  V30 1026 C 96.2484 1.7689 -0.639644 0
M  V30 1027 O 95.6064 1.76566 0.411601 0
M  V30 1028 C 95.6544 1.84723 -3.09693 0
M  V30 1029 O 94.7584 2.94346 -2.8885 0
M  V30 1030 H 94.0994 0.27125 -0.606069 0
M  V30 1031 H 96.6294 0.226276 -2.03345 0
M  V30 1032 H 96.6394 2.25576 -3.39969 0
M  V30 1033 H 95.3144 1.25218 -3.96602 0
M  V30 1034 H 93.8914 2.57391 -2.69823 0
M  V30 1035 N 96.0765 1.50051 0.48192 0
M  V30 1036 C 97.3065 1.63999 1.2565 0
M  V30 1037 C 97.7145 0.318288 1.86504 0
M  V30 1038 O 97.0575 -0.708534 1.69486 0
M  V30 1039 C 97.1195 2.66504 2.4128 0
M  V30 1040 C 96.7835 4.10352 2.01148 0
M  V30 1041 C 97.7805 4.96562 1.54021 0
M  V30 1042 C 95.4655 4.56203 2.10199 0
M  V30 1043 C 97.4595 6.26668 1.16473 0
M  V30 1044 C 95.1465 5.86318 1.72264 0
M  V30 1045 C 96.1445 6.71375 1.25477 0
M  V30 1046 O 95.8325 7.99062 0.880626 0
M  V30 1047 H 95.5645 0.55456 0.386574 0
M  V30 1048 H 98.1185 1.96954 0.582944 0
M  V30 1049 H 96.3485 2.28769 3.11772 0
M  V30 1050 H 98.0375 2.69783 3.03268 0
M  V30 1051 H 98.8035 4.62358 1.46458 0
M  V30 1052 H 94.6825 3.90152 2.45566 0
M  V30 1053 H 98.2265 6.93011 0.798841 0
M  V30 1054 H 94.1235 6.20046 1.79482 0
M  V30 1055 H 94.8915 8.12239 1.01043 0
M  V30 1056 N 97.5546 -0.734337 1.39446 0
M  V30 1057 C 98.4846 -1.86155 1.40955 0
M  V30 1058 C 99.4656 -1.67898 0.272827 0
M  V30 1059 O 100.651 -1.88207 0.478743 0
M  V30 1060 C 97.7806 -3.23912 1.25294 0
M  V30 1061 C 96.7346 -3.56808 2.36373 0
M  V30 1062 C 96.0606 -4.93508 2.058 0
M  V30 1063 C 97.3606 -3.59713 3.78687 0
M  V30 1064 H 99.0546 -1.8515 2.35287 0
M  V30 1065 H 96.6006 -0.889367 1.13253 0
M  V30 1066 H 98.5536 -4.02443 1.2497 0
M  V30 1067 H 97.2776 -3.25446 0.274308 0
M  V30 1068 H 95.9366 -2.80606 2.35914 0
M  V30 1069 H 95.5846 -4.91623 1.06374 0
M  V30 1070 H 95.2846 -5.16486 2.80208 0
M  V30 1071 H 96.8086 -5.74396 2.07128 0
M  V30 1072 H 98.2226 -4.2832 3.81071 0
M  V30 1073 H 96.6196 -3.94209 4.52459 0
M  V30 1074 H 97.6896 -2.59504 4.09617 0
M  V30 1075 N 99.0327 -1.24633 -0.964593 0
M  V30 1076 C 100.449 -1.01239 -1.2338 0
M  V30 1077 C 100.649 0.2769 -1.99588 0
M  V30 1078 O 99.7047 0.992241 -2.32187 0
M  V30 1079 C 101.018 -2.22937 -2.01791 0
M  V30 1080 C 102.566 -2.27594 -2.14872 0
M  V30 1081 C 103.041 -3.48921 -2.96678 0
M  V30 1082 N 104.532 -3.49257 -3.04259 0
M  V30 1083 C 105.267 -4.39795 -3.67924 0
M  V30 1084 N 104.763 -5.40591 -4.33281 0
M  V30 1085 N 106.556 -4.275 -3.64966 0
M  V30 1086 H 98.7067 -2.0748 -0.454502 0
M  V30 1087 H 100.97 -0.910647 -0.26349 0
M  V30 1088 H 100.676 -3.16587 -1.53184 0
M  V30 1089 H 100.55 -2.25306 -3.02518 0
M  V30 1090 H 102.937 -1.34473 -2.6268 0
M  V30 1091 H 103.018 -2.2925 -1.13482 0
M  V30 1092 H 102.662 -4.42359 -2.49562 0
M  V30 1093 H 102.592 -3.4451 -3.98272 0
M  V30 1094 H 105.083 -2.76337 -2.57771 0
M  V30 1095 H 105.396 -6.05904 -4.79687 0
M  V30 1096 H 103.741 -5.44475 -4.3194 0
M  V30 1097 H 106.932 -3.47987 -3.13086 0
M  V30 1098 H 107.105 -4.98258 -4.14298 0
M  V30 1099 N 100.511 1.16574 -1.06058 0
M  V30 1100 C 101.757 1.87324 -0.777022 0
M  V30 1101 C 102.09 1.81351 0.694645 0
M  V30 1102 O 101.365 1.22753 1.50871 0
M  V30 1103 C 101.648 3.36991 -1.26922 0
M  V30 1104 C 101.501 3.51667 -2.80447 0
M  V30 1105 C 102.82 4.3131 -0.87521 0
M  V30 1106 H 99.9388 0.680191 -0.28374 0
M  V30 1107 H 102.581 1.37036 -1.3161 0
M  V30 1108 H 100.731 3.79949 -0.81063 0
M  V30 1109 H 102.403 3.17664 -3.34495 0
M  V30 1110 H 100.646 2.93656 -3.19294 0
M  V30 1111 H 101.317 4.56766 -3.0995 0
M  V30 1112 H 103.793 3.9624 -1.27014 0
M  V30 1113 H 102.669 5.34545 -1.2471 0
M  V30 1114 H 102.93 4.41552 0.220071 0
M  V30 1115 N 101.989 0.842826 1.3317 0
M  V30 1116 C 103.405 0.531128 1.50503 0
M  V30 1117 C 103.605 -0.940734 1.78192 0
M  V30 1118 O 102.661 -1.72436 1.84451 0
M  V30 1119 C 103.974 1.40789 2.65705 0
M  V30 1120 C 105.522 1.40708 2.79589 0
M  V30 1121 C 105.997 2.26878 3.97857 0
M  V30 1122 N 107.488 2.24609 4.05099 0
M  V30 1123 C 108.223 2.88019 4.95815 0
M  V30 1124 N 107.719 3.60496 5.9162 0
M  V30 1125 N 109.512 2.77469 4.88843 0
M  V30 1126 H 101.663 1.79557 1.1346 0
M  V30 1127 H 103.926 0.766267 0.558156 0
M  V30 1128 H 103.632 2.454 2.51936 0
M  V30 1129 H 103.506 1.08677 3.61205 0
M  V30 1130 H 105.893 0.368668 2.92788 0
M  V30 1131 H 105.974 1.76829 1.84838 0
M  V30 1132 H 105.618 3.3078 3.85418 0
M  V30 1133 H 105.548 1.88096 4.91861 0
M  V30 1134 H 108.039 1.71906 3.36536 0
M  V30 1135 H 108.352 4.06076 6.57512 0
M  V30 1136 H 106.697 3.64604 5.91683 0
M  V30 1137 H 109.888 2.20406 4.12963 0
M  V30 1138 H 110.061 3.2717 5.59342 0
M  V30 1139 N 103.467 -1.45747 0.599634 0
M  V30 1140 C 104.414 -2.30467 -0.123849 0
M  V30 1141 C 105.384 -1.41632 -0.86774 0
M  V30 1142 O 106.569 -1.70568 -0.855056 0
M  V30 1143 C 103.709 -3.26402 -1.12051 0
M  V30 1144 C 102.822 -4.3034 -0.37832 0
M  V30 1145 C 101.957 -5.13389 -1.364 0
M  V30 1146 C 100.996 -6.09061 -0.609171 0
M  V30 1147 N 100.133 -6.84918 -1.54374 0
M  V30 1148 H 104.973 -2.91802 0.604627 0
M  V30 1149 H 102.51 -1.43797 0.309972 0
M  V30 1150 H 104.468 -3.80482 -1.7114 0
M  V30 1151 H 103.098 -2.66839 -1.8165 0
M  V30 1152 H 102.15 -3.78984 0.327929 0
M  V30 1153 H 103.462 -4.98354 0.210997 0
M  V30 1154 H 102.616 -5.7183 -2.02719 0
M  V30 1155 H 101.355 -4.45376 -1.98725 0
M  V30 1156 H 100.36 -5.49758 0.0676979 0
M  V30 1157 H 101.585 -6.79099 0.00891991 0
M  V30 1158 H 99.531 -6.19601 -2.15478 0
M  V30 1159 H 99.448 -7.49254 -1.00766 0
M  V30 1160 H 100.716 -7.47906 -2.19676 0
M  V30 1161 N 104.945 -0.338344 -1.53925 0
M  V30 1162 C 105.875 0.51328 -2.27789 0
M  V30 1163 C 106.856 1.107 -1.29149 0
M  V30 1164 O 108.041 1.12937 -1.57984 0
M  V30 1165 C 105.171 1.66697 -3.04679 0
M  V30 1166 C 104.125 1.20183 -4.1078 0
M  V30 1167 C 103.451 2.44363 -4.75595 0
M  V30 1168 C 104.751 0.30605 -5.21403 0
M  V30 1169 H 106.445 -0.102883 -2.99223 0
M  V30 1170 H 103.991 -0.0509219 -1.4391 0
M  V30 1171 H 105.944 2.26915 -3.55088 0
M  V30 1172 H 104.668 2.30995 -2.30887 0
M  V30 1173 H 103.327 0.622499 -3.61276 0
M  V30 1174 H 102.975 3.07057 -3.98403 0
M  V30 1175 H 102.675 2.13925 -5.47275 0
M  V30 1176 H 104.199 3.05317 -5.28786 0
M  V30 1177 H 105.613 0.814929 -5.67478 0
M  V30 1178 H 104.01 0.0937929 -6.00027 0
M  V30 1179 H 105.08 -0.65921 -4.80398 0
M  V30 1180 N 106.423 1.57458 -0.0668435 0
M  V30 1181 C 107.353 2.15468 0.899764 0
M  V30 1182 C 108.334 1.08042 1.31381 0
M  V30 1183 O 109.519 1.36054 1.38574 0
M  V30 1184 C 106.649 2.71232 2.16911 0
M  V30 1185 C 105.603 3.83781 1.89463 0
M  V30 1186 C 104.929 4.26127 3.22986 0
M  V30 1187 C 106.229 5.08238 1.20381 0
M  V30 1188 H 107.923 2.96488 0.416529 0
M  V30 1189 H 105.469 1.4262 0.198908 0
M  V30 1190 H 107.422 3.10458 2.84945 0
M  V30 1191 H 106.146 1.87426 2.67468 0
M  V30 1192 H 104.805 3.45051 1.23836 0
M  V30 1193 H 104.453 3.39249 3.71374 0
M  V30 1194 H 104.153 5.01993 3.05413 0
M  V30 1195 H 105.677 4.67966 3.92225 0
M  V30 1196 H 107.091 5.44811 1.78475 0
M  V30 1197 H 105.488 5.89349 1.13083 0
M  V30 1198 H 106.558 4.84558 0.182153 0
M  V30 1199 N 107.901 -0.206675 1.56239 0
M  V30 1200 C 109.178 -0.954051 1.70755 0
M  V30 1201 C 109.558 -2.01841 0.618353 0
M  V30 1202 O 108.906 -2.25444 -0.372434 0
M  V30 1203 C 109.116 -1.551 3.12642 0
M  V30 1204 C 110.464 -2.03757 3.72516 0
M  V30 1205 O 111.488 -1.64965 3.15698 0
M  V30 1206 O 110.347 -2.75103 4.72208 0
M  V30 1207 H 107.441 -0.446636 0.696021 0
M  V30 1208 H 109.987 -0.197283 1.68549 0
M  V30 1209 H 108.759 -0.783212 3.83382 0
M  V30 1210 H 108.382 -2.37291 3.19028 0
M  V30 1211 N 109.379 -1.50304 -0.473955 0
M  V30 1212 C 110.342 -1.6841 -1.55469 0
M  V30 1213 C 111.342 -0.554905 -1.50922 0
M  V30 1214 O 112.532 -0.821882 -1.53593 0
M  V30 1215 C 109.664 -1.70667 -2.95102 0
M  V30 1216 H 110.857 -2.64828 -1.40733 0
M  V30 1217 H 108.41 -1.39742 -0.700132 0
M  V30 1218 H 109.145 -0.75932 -3.15285 0
M  V30 1219 H 108.93 -2.52698 -2.9981 0
M  V30 1220 H 110.42 -1.8664 -3.73571 0
M  V30 1221 N 110.857 0.726932 -1.39834 0
M  V30 1222 C 112.105 1.4837 -1.37225 0
M  V30 1223 C 112.426 1.94979 0.0284857 0
M  V30 1224 O 111.696 1.69555 0.981213 0
M  V30 1225 H 110.276 0.55043 -0.505011 0
M  V30 1226 H 112.938 0.862468 -1.74778 0
M  V30 1227 H 112.034 2.36198 -2.04003 0
M  V30 1228 N 112.336 1.25143 0.95797 0
M  V30 1229 C 113.613 1.00472 1.67823 0
M  V30 1230 C 113.993 -0.470056 2.058 0
M  V30 1231 O 113.341 -1.44663 1.76875 0
M  V30 1232 C 113.551 1.9372 2.90299 0
M  V30 1233 C 114.899 2.21371 3.62326 0
M  V30 1234 O 115.923 1.91451 3.00375 0
M  V30 1235 O 114.782 2.72231 4.7387 0
M  V30 1236 H 111.876 0.380752 0.734137 0
M  V30 1237 H 114.422 1.36283 1.01119 0
M  V30 1238 H 113.194 2.93316 2.59001 0
M  V30 1239 H 112.817 1.58286 3.64735 0
M  V30 1240 N 113.814 -1.1601 1.06675 0
M  V30 1241 C 114.744 -2.22688 0.702307 0
M  V30 1242 C 115.725 -1.67306 -0.307032 0
M  V30 1243 O 116.91 -1.93352 -0.181305 0
M  V30 1244 C 114.04 -3.47178 0.092038 0
M  V30 1245 C 112.994 -4.15477 1.02777 0
M  V30 1246 C 112.32 -5.33963 0.28061 0
M  V30 1247 C 113.62 -4.66019 2.35846 0
M  V30 1248 H 115.314 -2.53429 1.59419 0
M  V30 1249 H 112.86 -1.21813 0.767961 0
M  V30 1250 H 114.813 -4.21037 -0.174814 0
M  V30 1251 H 113.537 -3.15749 -0.834877 0
M  V30 1252 H 112.196 -3.43549 1.27944 0
M  V30 1253 H 111.844 -4.98788 -0.649545 0
M  V30 1254 H 111.544 -5.806 0.904258 0
M  V30 1255 H 113.068 -6.10596 0.021396 0
M  V30 1256 H 114.482 -5.3144 2.15045 0
M  V30 1257 H 112.879 -5.23293 2.93743 0
M  V30 1258 H 113.949 -3.82023 2.98641 0
M  V30 1259 N 115.292 -0.849877 -1.32721 0
M  V30 1260 C 116.569 -0.372405 -1.92022 0
M  V30 1261 C 116.949 1.1435 -1.77447 0
M  V30 1262 O 116.297 1.96296 -1.16962 0
M  V30 1263 C 116.507 -0.831482 -3.3895 0
M  V30 1264 C 117.855 -0.845882 -4.16089 0
M  V30 1265 O 118.879 -0.775806 -3.47649 0
M  V30 1266 O 117.738 -0.943753 -5.38289 0
M  V30 1267 H 114.832 -0.107667 -0.819961 0
M  V30 1268 H 117.378 -0.93646 -1.41522 0
M  V30 1269 H 116.15 -1.87448 -3.4348 0
M  V30 1270 H 115.773 -0.24461 -3.96847 0
M  V30 1271 N 116.77 1.45427 -0.607355 0
M  V30 1272 C 118.019 2.01452 -0.100036 0
M  V30 1273 C 118.332 1.48159 1.27704 0
M  V30 1274 O 119.538 1.96159 1.87707 0
M  V30 1275 C 117.994 3.59672 -0.128158 0
M  V30 1276 C 117.602 4.21962 -1.50507 0
M  V30 1277 C 119.346 4.23262 0.323932 0
M  V30 1278 C 117.253 5.72333 -1.48959 0
M  V30 1279 H 116.183 0.75325 -0.0336299 0
M  V30 1280 H 118.834 1.66901 -0.76265 0
M  V30 1281 H 117.216 3.91411 0.601105 0
M  V30 1282 H 118.39 4.01796 -2.25602 0
M  V30 1283 H 116.705 3.70565 -1.89923 0
M  V30 1284 H 119.302 5.33522 0.354691 0
M  V30 1285 H 119.645 3.93921 1.34656 0
M  V30 1286 H 120.178 3.96239 -0.352056 0
M  V30 1287 H 116.917 6.06373 -2.48981 0
M  V30 1288 H 116.437 5.94691 -0.781214 0
M  V30 1289 H 118.116 6.35525 -1.21313 0
M  V30 1290 N 118.248 0.346503 1.53744 0
M  V30 1291 C 119.158 -0.517293 2.28826 0
M  V30 1292 C 120.174 -1.10935 1.3405 0
M  V30 1293 O 121.35 -1.1244 1.6709 0
M  V30 1294 C 118.415 -1.65098 3.04866 0
M  V30 1295 C 117.476 -1.0884 4.15274 0
M  V30 1296 C 116.709 -2.16806 4.87679 0
M  V30 1297 O 116.932 -3.3758 4.59778 0
M  V30 1298 O 115.866 -1.80934 5.74061 0
M  V30 1299 H 119.692 0.0931396 3.03557 0
M  V30 1300 H 117.277 0.111458 1.48984 0
M  V30 1301 H 119.159 -2.31053 3.5241 0
M  V30 1302 H 117.834 -2.24717 2.32989 0
M  V30 1303 H 116.741 -0.3933 3.72027 0
M  V30 1304 H 118.074 -0.537036 4.89261 0
M  V30 1305 N 119.726 -1.57421 0.075193 0
M  V30 1306 C 121.003 -1.85029 -0.634329 0
M  V30 1307 C 121.383 -0.968305 -1.87582 0
M  V30 1308 O 120.731 -0.0354749 -2.28472 0
M  V30 1309 C 120.941 -3.35286 -0.968742 0
M  V30 1310 C 122.289 -4.02875 -1.34077 0
M  V30 1311 O 123.313 -3.40051 -1.06037 0
M  V30 1312 O 122.172 -5.13691 -1.86506 0
M  V30 1313 H 119.266 -0.7645 -0.315387 0
M  V30 1314 H 121.812 -1.69366 0.106382 0
M  V30 1315 H 120.584 -3.91203 -0.0871376 0
M  V30 1316 H 120.207 -3.56223 -1.7661 0
M  V30 1317 N 121.204 0.198386 -1.56346 0
M  V30 1318 C 122.481 0.944982 -1.71258 0
M  V30 1319 C 122.861 2.0151 -0.629048 0
M  V30 1320 O 122.209 2.25639 0.360473 0
M  V30 1321 C 122.419 1.5344 -3.1346 0
M  V30 1322 C 123.767 2.01778 -3.73591 0
M  V30 1323 O 124.791 1.63288 -3.16568 0
M  V30 1324 O 123.65 2.72594 -4.73661 0
M  V30 1325 H 120.744 0.442939 -0.69838 0
M  V30 1326 H 123.29 0.188342 -1.68652 0
M  V30 1327 H 122.062 0.762869 -3.83792 0
M  V30 1328 H 121.685 2.35596 -3.20282 0
M  V30 1329 N 122.682 1.50554 0.465978 0
M  V30 1330 C 123.615 1.64436 1.58227 0
M  V30 1331 C 124.593 0.492367 1.54966 0
M  V30 1332 O 125.777 0.712536 1.74514 0
M  V30 1333 C 122.904 1.63165 2.96808 0
M  V30 1334 C 121.95 2.83987 3.18204 0
M  V30 1335 S 122.783 4.45219 2.97557 0
M  V30 1336 C 123.939 4.46649 4.3847 0
M  V30 1337 H 124.172 2.58861 1.46213 0
M  V30 1338 H 121.705 1.3988 0.653678 0
M  V30 1339 H 123.663 1.63116 3.76701 0
M  V30 1340 H 122.324 0.69967 3.06208 0
M  V30 1341 H 121.517 2.79416 4.19455 0
M  V30 1342 H 121.119 2.81629 2.46092 0
M  V30 1343 H 123.411 4.20526 5.31191 0
M  V30 1344 H 124.354 5.48295 4.48082 0
M  V30 1345 H 124.762 3.76296 4.20787 0
M  V30 1346 N 124.16 -0.719506 1.40217 0
M  V30 1347 C 125.107 -1.83359 1.40172 0
M  V30 1348 C 126.077 -1.64065 0.259206 0
M  V30 1349 O 127.262 -1.85254 0.456677 0
M  V30 1350 C 124.402 -3.2103 1.26624 0
M  V30 1351 C 123.515 -3.51923 2.50548 0
M  V30 1352 C 122.65 -4.79079 2.29471 0
M  V30 1353 C 121.689 -5.02863 3.48992 0
M  V30 1354 N 120.826 -6.2123 3.27135 0
M  V30 1355 H 125.666 -1.82733 2.35399 0
M  V30 1356 H 123.203 -0.892688 1.16917 0
M  V30 1357 H 125.161 -4.00524 1.16776 0
M  V30 1358 H 123.791 -3.20895 0.350176 0
M  V30 1359 H 122.843 -2.67014 2.70939 0
M  V30 1360 H 124.155 -3.6541 3.39525 0
M  V30 1361 H 123.309 -5.66582 2.16955 0
M  V30 1362 H 122.048 -4.67794 1.37913 0
M  V30 1363 H 121.053 -4.13816 3.6199 0
M  V30 1364 H 122.278 -5.16023 4.41472 0
M  V30 1365 H 120.224 -6.11204 2.38256 0
M  V30 1366 H 120.141 -6.35375 4.09675 0
M  V30 1367 H 121.409 -7.11532 3.18344 0
M  V30 1368 N 125.638 -1.25649 -0.95132 0
M  V30 1369 C 126.601 -1.06399 -2.03007 0
M  V30 1370 C 127.601 -0.0156794 -1.60792 0
M  V30 1371 O 128.791 -0.25817 -1.72276 0
M  V30 1372 C 125.923 -0.616184 -3.35285 0
M  V30 1373 H 127.116 -2.02164 -2.21517 0
M  V30 1374 H 124.669 -1.08103 -1.12887 0
M  V30 1375 H 125.404 0.343917 -3.22471 0
M  V30 1376 H 125.189 -1.37301 -3.67275 0
M  V30 1377 H 126.679 -0.503032 -4.14559 0
M  V30 1378 N 127.117 1.15442 -1.07289 0
M  V30 1379 C 128.049 2.19773 -0.650585 0
M  V30 1380 C 129.062 1.60076 0.296572 0
M  V30 1381 O 130.251 1.78293 0.0859905 0
M  V30 1382 C 127.351 3.38838 0.0650398 0
M  V30 1383 C 126.524 4.2808 -0.898141 0
M  V30 1384 C 125.583 5.2574 -0.219926 0
M  V30 1385 O 124.609 5.62654 -0.860773 0
M  V30 1386 N 125.811 5.71205 1.03466 0
M  V30 1387 H 128.576 2.56622 -1.54808 0
M  V30 1388 H 126.137 1.30551 -0.957494 0
M  V30 1389 H 128.129 4.01222 0.529415 0
M  V30 1390 H 126.699 3.00409 0.864466 0
M  V30 1391 H 125.919 3.62804 -1.54165 0
M  V30 1392 H 127.207 4.84577 -1.5512 0
M  V30 1393 H 126.605 5.43325 1.57526 0
M  V30 1394 H 125.162 6.35633 1.44272 0
M  V30 1395 N 128.595 0.856903 1.32268 0
M  V30 1396 C 129.528 0.247937 2.26849 0
M  V30 1397 C 130.506 -0.615382 1.50505 0
M  V30 1398 O 131.69 -0.571689 1.79622 0
M  V30 1399 C 128.817 -0.650093 3.32403 0
M  V30 1400 C 127.863 0.140138 4.2627 0
M  V30 1401 S 128.696 1.51004 5.13769 0
M  V30 1402 C 129.852 0.61778 6.22844 0
M  V30 1403 H 130.085 1.04971 2.78152 0
M  V30 1404 H 127.618 0.654665 1.39834 0
M  V30 1405 H 129.576 -1.16256 3.93694 0
M  V30 1406 H 128.237 -1.4257 2.7988 0
M  V30 1407 H 127.43 -0.543945 5.01056 0
M  V30 1408 H 127.032 0.584267 3.69408 0
M  V30 1409 H 129.324 -0.177053 6.77269 0
M  V30 1410 H 130.267 1.33636 6.95375 0
M  V30 1411 H 130.675 0.191124 5.64176 0
M  V30 1412 N 130.073 -1.45103 0.615059 0
M  V30 1413 C 131.021 -2.32331 -0.111791 0
M  V30 1414 C 132.015 -1.46409 -0.852102 0
M  V30 1415 O 133.221 -1.62849 -0.766821 0
M  V30 1416 H 129.596 -0.749993 -0.0549072 0
M  V30 1417 H 131.567 -2.91407 0.642225 0
M  V30 1418 C 130.316 -3.3015 -1.09071 0
M  V30 1419 H 129.639 -3.96265 -0.530485 0
M  V30 1420 H 131.079 -3.93898 -1.56908 0
M  V30 1421 C 129.538 -2.57875 -2.168 0
M  V30 1422 O 130.068 -2.36567 -3.24652 0
M  V30 1423 N 128.274 -2.17884 -1.92289 0
M  V30 1424 H 127.821 -2.35413 -1.04587 0
M  V30 1425 H 127.779 -1.6985 -2.64572 0
M  V30 1426 N 131.551 -0.354651 -1.53558 0
M  V30 1427 C 132.791 0.238651 -2.03002 0
M  V30 1428 C 133.155 1.46878 -1.23656 0
M  V30 1429 O 134.356 2.13699 -1.63053 0
M  V30 1430 C 132.627 0.534175 -3.53386 0
M  V30 1431 S 134.186 1.10271 -4.24719 0
M  V30 1432 H 131.004 0.0702908 -0.707517 0
M  V30 1433 H 133.606 -0.494987 -1.8913 0
M  V30 1434 H 132.31 -0.368765 -4.0874 0
M  V30 1435 H 131.841 1.29718 -3.71398 0
M  V30 1436 H 133.856 2.38772 -4.34974 0
M  V30 1437 N 133.029 1.57378 -0.0835403 0
M  V30 1438 C 134.276 1.9393 0.58287 0
M  V30 1439 C 134.604 0.964455 1.68904 0
M  V30 1440 O 133.859 -0.0179474 1.95692 0
M  V30 1441 C 134.158 3.37063 1.1884 0
M  V30 1442 C 133.824 4.50424 0.207194 0
M  V30 1443 C 132.486 4.81159 -0.0627115 0
M  V30 1444 C 134.838 5.19136 -0.463426 0
M  V30 1445 C 132.166 5.77939 -1.01012 0
M  V30 1446 C 134.518 6.16931 -1.39924 0
M  V30 1447 C 133.182 6.46078 -1.67749 0
M  V30 1448 H 132.452 0.70964 0.213287 0
M  V30 1449 H 135.099 1.90856 -0.156916 0
M  V30 1450 H 133.404 3.3666 2.00418 0
M  V30 1451 H 135.101 3.6264 1.71153 0
M  V30 1452 H 131.691 4.2646 0.427747 0
M  V30 1453 H 135.875 4.95576 -0.268034 0
M  V30 1454 H 131.131 5.98842 -1.23283 0
M  V30 1455 H 135.305 6.69273 -1.92476 0
M  V30 1456 H 132.932 7.2088 -2.41321 0
M  V30 1457 N 134.507 -0.190092 1.56449 0
M  V30 1458 C 135.737 -0.92443 1.84764 0
M  V30 1459 C 136.145 -1.77146 0.664529 0
M  V30 1460 O 135.488 -1.79812 -0.375957 0
M  V30 1461 C 135.55 -1.86651 3.07248 0
M  V30 1462 C 135.214 -1.20094 4.40938 0
M  V30 1463 C 136.211 -0.575445 5.16706 0
M  V30 1464 C 133.896 -1.2033 4.87674 0
M  V30 1465 C 135.89 0.0388111 6.37388 0
M  V30 1466 C 133.577 -0.585214 6.08291 0
M  V30 1467 C 134.575 0.0347578 6.82991 0
M  V30 1468 O 134.263 0.643147 8.01323 0
M  V30 1469 H 133.995 -0.274974 0.617548 0
M  V30 1470 H 136.549 -0.200788 2.04416 0
M  V30 1471 H 134.779 -2.62998 2.83494 0
M  V30 1472 H 136.468 -2.46907 3.22167 0
M  V30 1473 H 137.234 -0.565728 4.81689 0
M  V30 1474 H 133.113 -1.67526 4.29484 0
M  V30 1475 H 136.657 0.523329 6.95634 0
M  V30 1476 H 132.554 -0.592451 6.42775 0
M  V30 1477 H 133.322 0.540545 8.16713 0
M  V30 1478 N 135.985 -1.50799 -0.457987 0
M  V30 1479 C 136.915 -1.73553 -1.5621 0
M  V30 1480 C 137.896 -0.584774 -1.59732 0
M  V30 1481 O 139.081 -0.825314 -1.7579 0
M  V30 1482 C 136.211 -1.84169 -2.94447 0
M  V30 1483 C 135.165 -2.99461 -3.0579 0
M  V30 1484 C 134.491 -2.95235 -4.45803 0
M  V30 1485 C 135.791 -4.39766 -2.81786 0
M  V30 1486 H 137.485 -2.66 -1.37421 0
M  V30 1487 H 135.031 -1.28002 -0.659662 0
M  V30 1488 H 136.984 -1.98672 -3.71628 0
M  V30 1489 H 135.708 -0.883545 -3.14422 0
M  V30 1490 H 134.367 -2.8463 -2.31044 0
M  V30 1491 H 134.015 -1.97239 -4.62715 0
M  V30 1492 H 133.715 -3.72642 -4.54326 0
M  V30 1493 H 135.239 -3.11803 -5.24987 0
M  V30 1494 H 136.653 -4.55054 -3.4871 0
M  V30 1495 H 135.05 -5.18722 -3.0174 0
M  V30 1496 H 136.12 -4.51229 -1.7754 0
M  V30 1497 N 137.463 0.71206 -1.40597 0
M  V30 1498 C 138.41 1.82613 -1.41142 0
M  V30 1499 C 139.38 1.63925 -0.267903 0
M  V30 1500 O 140.565 1.85009 -0.466495 0
M  V30 1501 C 137.705 3.20354 -1.28324 0
M  V30 1502 C 136.818 3.50589 -2.52411 0
M  V30 1503 C 135.953 4.77855 -2.32009 0
M  V30 1504 C 134.992 5.01005 -3.51654 0
M  V30 1505 N 134.129 6.19487 -3.30425 0
M  V30 1506 H 138.969 1.81482 -2.36365 0
M  V30 1507 H 136.506 0.886475 -1.17388 0
M  V30 1508 H 138.464 3.99899 -1.18899 0
M  V30 1509 H 137.094 3.20705 -0.367189 0
M  V30 1510 H 136.146 2.65573 -2.72351 0
M  V30 1511 H 137.458 3.63604 -3.41458 0
M  V30 1512 H 136.612 5.65424 -2.19956 0
M  V30 1513 H 135.351 4.67056 -1.40392 0
M  V30 1514 H 134.356 4.1189 -3.64179 0
M  V30 1515 H 135.581 5.13674 -4.44202 0
M  V30 1516 H 133.527 6.09932 -2.41494 0
M  V30 1517 H 133.444 6.33194 -4.13039 0
M  V30 1518 H 134.712 7.09834 -3.22113 0
M  V30 1519 N 138.941 1.26152 0.944643 0
M  V30 1520 C 139.904 1.07474 2.0244 0
M  V30 1521 C 140.904 0.0242064 1.60782 0
M  V30 1522 O 142.094 0.267302 1.72137 0
M  V30 1523 C 139.226 0.633956 3.34953 0
M  V30 1524 H 140.419 2.03336 2.20442 0
M  V30 1525 H 137.972 1.087 1.12312 0
M  V30 1526 H 138.707 -0.326811 3.22649 0
M  V30 1527 H 138.492 1.39247 3.66542 0
M  V30 1528 H 139.982 0.52501 4.14287 0
M  V30 1529 N 140.419 -1.14872 1.07899 0
M  V30 1530 C 141.349 -2.2193 0.725887 0
M  V30 1531 C 142.33 -1.67622 -0.28927 0
M  V30 1532 O 143.515 -1.93533 -0.160787 0
M  V30 1533 C 140.645 -3.47061 0.128856 0
M  V30 1534 C 139.599 -4.14363 1.07178 0
M  V30 1535 C 138.925 -5.33636 0.337229 0
M  V30 1536 C 140.225 -4.63492 2.40775 0
M  V30 1537 H 141.919 -2.51724 1.62097 0
M  V30 1538 H 139.465 -1.20991 0.780838 0
M  V30 1539 H 141.418 -4.21199 -0.130147 0
M  V30 1540 H 140.142 -3.16617 -0.80134 0
M  V30 1541 H 138.801 -3.42173 1.3158 0
M  V30 1542 H 138.449 -4.99449 -0.596606 0
M  V30 1543 H 138.149 -5.79609 0.965788 0
M  V30 1544 H 139.673 -6.10539 0.0861567 0
M  V30 1545 H 141.087 -5.2913 2.20669 0
M  V30 1546 H 139.484 -5.20148 2.99276 0
M  V30 1547 H 140.554 -3.78834 3.02676 0
M  V30 1548 N 141.898 -0.863906 -1.31812 0
M  V30 1549 C 143.175 -0.39275 -1.91616 0
M  V30 1550 C 143.555 1.12461 -1.7865 0
M  V30 1551 O 142.903 1.95045 -1.19037 0
M  V30 1552 C 143.113 -0.867385 -3.38049 0
M  V30 1553 C 144.461 -0.889966 -4.15168 0
M  V30 1554 O 145.485 -0.812635 -3.46806 0
M  V30 1555 O 144.344 -1.00079 -5.37258 0
M  V30 1556 H 141.438 -0.116358 -0.818773 0
M  V30 1557 H 143.984 -0.951418 -1.40521 0
M  V30 1558 H 142.756 -1.91081 -3.41473 0
M  V30 1559 H 142.379 -0.286687 -3.96565 0
M  V30 1560 N 143.376 1.44774 -0.622745 0
M  V30 1561 C 144.624 2.01721 -0.123655 0
M  V30 1562 C 144.945 1.49172 1.25589 0
M  V30 1563 O 144.215 0.691974 1.83272 0
M  V30 1564 H 142.795 0.745777 -0.0427225 0
M  V30 1565 H 145.457 1.77382 -0.807559 0
M  V30 1566 H 144.553 3.11984 -0.0849534 0
M  V30 1567 N 144.854 0.36279 1.53368 0
M  V30 1568 C 146.101 -0.227776 2.01215 0
M  V30 1569 C 146.429 -1.49003 1.25014 0
M  V30 1570 O 145.684 -1.92876 0.331236 0
M  V30 1571 C 145.983 -0.568417 3.52851 0
M  V30 1572 C 145.649 0.59918 4.46901 0
M  V30 1573 C 144.311 0.919559 4.72332 0
M  V30 1574 C 146.663 1.38156 5.02556 0
M  V30 1575 C 143.991 2.02434 5.5067 0
M  V30 1576 C 146.343 2.47674 5.821 0
M  V30 1577 C 145.007 2.8025 6.05819 0
M  V30 1578 H 144.277 -0.083349 0.736297 0
M  V30 1579 H 146.924 0.494677 1.85001 0
M  V30 1580 H 145.229 -1.37185 3.66998 0
M  V30 1581 H 146.926 -1.03756 3.87344 0
M  V30 1582 H 143.516 0.339437 4.27254 0
M  V30 1583 H 147.7 1.14729 4.82857 0
M  V30 1584 H 142.956 2.28075 5.67267 0
M  V30 1585 H 147.13 3.08716 6.24234 0
M  V30 1586 H 144.757 3.65979 6.66306 0
M  V30 1587 N 146.332 -1.57332 0.0918853 0
M  V30 1588 C 147.578 -1.94524 -0.573425 0
M  V30 1589 C 147.911 -0.973578 -1.68033 0
M  V30 1590 O 147.186 -0.00609226 -1.94499 0
M  V30 1591 C 147.469 -3.41858 -1.13161 0
M  V30 1592 C 147.322 -4.4979 -0.0299747 0
M  V30 1593 C 148.641 -3.90435 -2.03098 0
M  V30 1594 H 145.76 -0.70734 -0.206975 0
M  V30 1595 H 148.402 -1.89309 0.161942 0
M  V30 1596 H 146.552 -3.46433 -1.7583 0
M  V30 1597 H 148.224 -4.57327 0.604112 0
M  V30 1598 H 146.467 -4.291 0.636833 0
M  V30 1599 H 147.138 -5.50069 -0.461287 0
M  V30 1600 H 149.614 -3.87992 -1.50338 0
M  V30 1601 H 148.49 -4.94097 -2.39081 0
M  V30 1602 H 148.751 -3.29541 -2.94712 0
M  V30 1603 N 147.81 0.181792 -1.56548 0
M  V30 1604 C 148.743 1.25366 -1.90679 0
M  V30 1605 C 149.721 1.43299 -0.768376 0
M  V30 1606 O 150.905 1.58475 -1.02068 0
M  V30 1607 C 148.032 2.61826 -2.1486 0
M  V30 1608 C 147.078 2.60688 -3.37556 0
M  V30 1609 S 147.911 2.10804 -4.92262 0
M  V30 1610 C 149.067 3.49062 -5.19525 0
M  V30 1611 H 149.3 0.962277 -2.81296 0
M  V30 1612 H 146.833 0.385892 -1.495 0
M  V30 1613 H 148.791 3.40371 -2.29473 0
M  V30 1614 H 147.452 2.88169 -1.24969 0
M  V30 1615 H 146.645 3.61058 -3.51643 0
M  V30 1616 H 146.247 1.90232 -3.22006 0
M  V30 1617 H 148.539 4.45003 -5.10861 0
M  V30 1618 H 149.482 3.39859 -6.2121 0
M  V30 1619 H 149.89 3.4459 -4.47122 0
M  V30 1620 N 149.288 1.51039 0.449983 0
M  V30 1621 C 150.534 1.63322 1.20223 0
M  V30 1622 C 150.867 0.34241 1.91158 0
M  V30 1623 O 150.142 -0.657344 1.83055 0
M  V30 1624 C 150.425 2.82801 2.22925 0
M  V30 1625 C 150.278 4.21823 1.56157 0
M  V30 1626 C 151.597 2.97807 3.24035 0
M  V30 1627 H 148.716 0.594407 0.435718 0
M  V30 1628 H 151.358 1.83489 0.493136 0
M  V30 1629 H 149.508 2.65738 2.834 0
M  V30 1630 H 151.18 4.50526 0.991162 0
M  V30 1631 H 149.423 4.25105 0.864172 0
M  V30 1632 H 150.094 5.01391 2.30891 0
M  V30 1633 H 152.57 3.13497 2.73603 0
M  V30 1634 H 151.446 3.82992 3.93202 0
M  V30 1635 H 151.707 2.09328 3.89402 0
M  V30 1636 N 150.766 -0.704594 1.40972 0
M  V30 1637 C 151.696 -1.83124 1.44872 0
M  V30 1638 C 152.677 -1.67281 0.30838 0
M  V30 1639 O 153.862 -1.87149 0.518556 0
M  V30 1640 C 150.992 -3.21181 1.32136 0
M  V30 1641 C 149.946 -3.51714 2.43888 0
M  V30 1642 C 149.272 -4.89032 2.16222 0
M  V30 1643 C 150.572 -3.516 3.86232 0
M  V30 1644 H 152.266 -1.80117 2.39161 0
M  V30 1645 H 149.812 -0.865145 1.15114 0
M  V30 1646 H 151.765 -3.99702 1.33479 0
M  V30 1647 H 150.489 -3.24791 0.343279 0
M  V30 1648 H 149.148 -2.75539 2.41813 0
M  V30 1649 H 148.796 -4.89256 1.16778 0
M  V30 1650 H 148.496 -5.10426 2.911 0
M  V30 1651 H 150.02 -5.69873 2.19265 0
M  V30 1652 H 151.434 -4.2014 3.9007 0
M  V30 1653 H 149.831 -3.84523 4.60719 0
M  V30 1654 H 150.901 -2.50757 4.15029 0
M  V30 1655 N 152.244 -1.26651 -0.937939 0
M  V30 1656 C 153.472 -1.15173 -1.7188 0
M  V30 1657 C 153.887 0.292668 -1.86518 0
M  V30 1658 O 153.244 1.20014 -1.37488 0
M  V30 1659 C 153.295 -1.81925 -3.12387 0
M  V30 1660 O 153.016 -3.2072 -2.98446 0
M  V30 1661 C 154.517 -1.76442 -4.06673 0
M  V30 1662 H 151.737 -0.400911 -0.538063 0
M  V30 1663 H 154.281 -1.67332 -1.1756 0
M  V30 1664 H 152.436 -1.33696 -3.63599 0
M  V30 1665 H 152.85 -3.53802 -3.872 0
M  V30 1666 H 154.324 -2.27781 -5.02812 0
M  V30 1667 H 154.801 -0.731608 -4.33064 0
M  V30 1668 H 155.407 -2.24238 -3.61382 0
M  V30 1669 N 153.722 1.14298 -1.08507 0
M  V30 1670 C 154.999 1.81544 -0.728088 0
M  V30 1671 C 155.379 1.95838 0.78808 0
M  V30 1672 O 154.727 1.51904 1.70697 0
M  V30 1673 C 154.937 3.17169 -1.45619 0
M  V30 1674 C 156.285 3.9265 -1.61591 0
M  V30 1675 O 157.309 3.26762 -1.41793 0
M  V30 1676 O 156.168 5.10807 -1.94263 0
M  V30 1677 H 153.262 0.78491 -0.260471 0
M  V30 1678 H 155.808 1.21307 -1.18671 0
M  V30 1679 H 154.58 3.01934 -2.489 0
M  V30 1680 H 154.203 3.851 -0.989124 0
M  V30 1681 N 155.201 0.870884 1.31352 0
M  V30 1682 C 156.478 0.402907 1.91405 0
M  V30 1683 C 156.858 -1.11512 1.79244 0
M  V30 1684 O 156.206 -1.94411 1.2007 0
M  V30 1685 C 156.416 0.885301 3.37585 0
M  V30 1686 C 157.764 0.911971 4.14691 0
M  V30 1687 O 158.788 0.831016 3.46371 0
M  V30 1688 O 157.647 1.02927 5.3672 0
M  V30 1689 H 154.741 0.120698 0.818145 0
M  V30 1690 H 157.287 0.958857 1.40014 0
M  V30 1691 H 156.059 1.92889 3.40455 0
M  V30 1692 H 155.682 0.307714 3.96407 0
M  V30 1693 N 156.679 -1.44442 0.630414 0
M  V30 1694 C 157.927 -2.01653 0.134351 0
M  V30 1695 C 158.248 -1.49836 -1.24796 0
M  V30 1696 O 157.518 -0.701684 -1.82902 0
M  V30 1697 H 156.098 -0.74554 0.0466769 0
M  V30 1698 H 158.76 -1.76952 0.816955 0
M  V30 1699 H 157.856 -3.11935 0.101498 0
M  V30 1700 N 158.157 -0.370918 -1.53173 0
M  V30 1701 C 159.434 0.273754 -1.93675 0
M  V30 1702 C 159.814 1.65938 -1.3049 0
M  V30 1703 O 159.162 2.23698 -0.465999 0
M  V30 1704 C 159.372 0.318602 -3.47543 0
M  V30 1705 C 160.72 0.556392 -4.20939 0
M  V30 1706 O 161.744 0.399587 -3.53952 0
M  V30 1707 O 160.603 0.862133 -5.39657 0
M  V30 1708 H 157.697 0.165448 -0.810281 0
M  V30 1709 H 160.243 -0.42409 -1.64315 0
M  V30 1710 H 159.015 -0.652687 -3.85818 0
M  V30 1711 H 158.638 1.06212 -3.83151 0
M  V30 1712 N 159.635 1.57281 -0.100228 0
M  V30 1713 C 160.568 2.09976 0.893612 0
M  V30 1714 C 161.546 1.01155 1.27304 0
M  V30 1715 O 162.73 1.28687 1.37739 0
M  V30 1716 C 159.857 2.58098 2.19324 0
M  V30 1717 C 158.903 3.78626 1.96328 0
M  V30 1718 S 159.736 5.21959 1.19662 0
M  V30 1719 C 160.892 5.73435 2.50844 0
M  V30 1720 H 161.125 2.93946 0.44534 0
M  V30 1721 H 158.658 1.53985 0.113167 0
M  V30 1722 H 160.616 2.8648 2.94005 0
M  V30 1723 H 159.277 1.74344 2.61272 0
M  V30 1724 H 158.47 4.10382 2.92579 0
M  V30 1725 H 158.072 3.50763 1.29775 0
M  V30 1726 H 160.364 5.82015 3.46792 0
M  V30 1727 H 161.307 6.7185 2.23659 0
M  V30 1728 H 161.715 5.01395 2.59352 0
M  V30 1729 N 161.113 -0.173488 1.56642 0
M  V30 1730 C 162.362 -0.888758 1.81063 0
M  V30 1731 C 162.675 -1.83506 0.67712 0
M  V30 1732 O 163.881 -2.59254 0.806206 0
M  V30 1733 C 162.337 -1.63091 3.20826 0
M  V30 1734 C 161.945 -0.728357 4.4204 0
M  V30 1735 C 163.689 -2.33454 3.54541 0
M  V30 1736 C 161.596 -1.47062 5.72823 0
M  V30 1737 H 160.526 -0.335618 0.675186 0
M  V30 1738 H 163.177 -0.141712 1.82952 0
M  V30 1739 H 161.559 -2.42263 3.13248 0
M  V30 1740 H 162.733 0.0262449 4.60793 0
M  V30 1741 H 161.048 -0.134492 4.16183 0
M  V30 1742 H 163.645 -2.89578 4.49498 0
M  V30 1743 H 163.988 -3.08687 2.79317 0
M  V30 1744 H 164.521 -1.61227 3.63663 0
M  V30 1745 H 161.26 -0.760658 6.51072 0
M  V30 1746 H 160.78 -2.1986 5.58052 0
M  V30 1747 H 162.459 -2.01868 6.14702 0
M  V30 1748 N 162.591 -1.51276 -0.441967 0
M  V30 1749 C 163.821 -1.67273 -1.21257 0
M  V30 1750 C 164.229 -0.367624 -1.85594 0
M  V30 1751 O 163.572 0.663349 -1.71305 0
M  V30 1752 C 163.634 -2.72807 -2.34129 0
M  V30 1753 C 163.298 -4.1554 -1.90198 0
M  V30 1754 C 164.295 -5.00471 -1.40801 0
M  V30 1755 C 161.98 -4.61616 -1.9803 0
M  V30 1756 C 163.974 -6.29536 -0.998174 0
M  V30 1757 C 161.661 -5.90679 -1.56658 0
M  V30 1758 C 162.659 -6.74466 -1.07633 0
M  V30 1759 O 162.347 -8.01116 -0.668459 0
M  V30 1760 H 162.079 -0.564614 -0.371734 0
M  V30 1761 H 164.633 -1.9843 -0.530521 0
M  V30 1762 H 162.863 -2.36954 -3.05597 0
M  V30 1763 H 164.552 -2.77729 -2.96009 0
M  V30 1764 H 165.318 -4.66079 -1.34148 0
M  V30 1765 H 161.197 -3.96526 -2.35135 0
M  V30 1766 H 164.741 -6.94885 -0.61482 0
M  V30 1767 H 160.638 -6.24586 -1.62979 0
M  V30 1768 H 161.406 -8.14633 -0.794722 0
M  V30 1769 N 164.069 0.697108 -1.41344 0
M  V30 1770 C 165.318 1.45279 -1.39918 0
M  V30 1771 C 165.631 1.95597 -0.0109624 0
M  V30 1772 O 166.837 2.71208 0.125919 0
M  V30 1773 C 165.293 2.62695 -2.46007 0
M  V30 1774 C 164.901 2.19169 -3.90729 0
M  V30 1775 C 166.645 3.40336 -2.53715 0
M  V30 1776 C 164.552 3.33535 -4.88373 0
M  V30 1777 H 163.482 0.545692 -0.520323 0
M  V30 1778 H 166.133 0.756929 -1.67161 0
M  V30 1779 H 164.515 3.34541 -2.11892 0
M  V30 1780 H 165.689 1.54623 -4.34083 0
M  V30 1781 H 164.004 1.54525 -3.86666 0
M  V30 1782 H 166.601 4.2547 -3.2385 0
M  V30 1783 H 166.944 3.85418 -1.5735 0
M  V30 1784 H 167.477 2.75546 -2.86913 0
M  V30 1785 H 164.216 2.93468 -5.86137 0
M  V30 1786 H 163.736 3.96936 -4.49668 0
M  V30 1787 H 165.415 3.99335 -5.09059 0
M  V30 1788 N 165.547 1.27147 0.931209 0
M  V30 1789 C 166.772 1.16191 1.71797 0
M  V30 1790 C 167.197 -0.278004 1.86034 0
M  V30 1791 O 166.555 -1.20137 1.35782 0
M  V30 1792 C 166.603 1.84673 3.09723 0
M  V30 1793 O 165.707 1.14231 3.96264 0
M  V30 1794 H 165.048 0.404303 0.526721 0
M  V30 1795 H 167.578 1.68152 1.1656 0
M  V30 1796 H 167.588 1.91893 3.60057 0
M  V30 1797 H 166.263 2.89421 2.98677 0
M  V30 1798 H 164.84 1.15056 3.54706 0
M  V30 1799 N 167.025 -1.13721 1.09112 0
M  V30 1800 C 168.302 -1.81155 0.737706 0
M  V30 1801 C 168.682 -1.96253 -0.777683 0
M  V30 1802 O 168.03 -1.52807 -1.69889 0
M  V30 1803 C 168.24 -3.16392 1.47299 0
M  V30 1804 C 169.588 -3.91787 1.63671 0
M  V30 1805 O 170.612 -3.26005 1.43524 0
M  V30 1806 O 169.471 -5.0977 1.96969 0
M  V30 1807 H 166.565 -0.783518 0.26463 0
M  V30 1808 H 169.111 -1.20676 1.19312 0
M  V30 1809 H 167.883 -3.0061 2.50498 0
M  V30 1810 H 167.506 -3.8457 1.00953 0
M  V30 1811 N 168.503 -0.877838 -1.30888 0
M  V30 1812 C 169.451 -0.328662 -2.30266 0
M  V30 1813 C 170.445 0.560496 -1.59859 0
M  V30 1814 O 171.651 0.445722 -1.74394 0
M  V30 1815 H 168.026 -0.0876142 -0.746879 0
M  V30 1816 H 169.997 -1.18061 -2.74051 0
M  V30 1817 C 168.746 0.448071 -3.44801 0
M  V30 1818 H 168.069 -0.226859 -3.99156 0
M  V30 1819 H 169.509 0.797541 -4.16432 0
M  V30 1820 C 167.968 1.64239 -2.94155 0
M  V30 1821 O 168.498 2.74175 -2.93583 0
M  V30 1822 N 166.704 1.47716 -2.50256 0
M  V30 1823 H 166.251 0.582821 -2.5092 0
M  V30 1824 H 166.209 2.27765 -2.16727 0
M  V30 1825 N 169.982 1.44106 -0.638065 0
M  V30 1826 C 171.228 2.02277 -0.145546 0
M  V30 1827 C 171.561 1.50125 1.23191 0
M  V30 1828 O 170.836 0.688133 1.8192 0
M  V30 1829 C 171.119 3.59829 -0.139791 0
M  V30 1830 C 170.972 4.22247 -1.55008 0
M  V30 1831 C 172.291 4.36873 0.531966 0
M  V30 1832 H 169.41 0.734992 -0.0543632 0
M  V30 1833 H 172.052 1.71592 -0.815863 0
M  V30 1834 H 170.202 3.86102 0.431007 0
M  V30 1835 H 171.874 4.07057 -2.1703 0
M  V30 1836 H 170.117 3.79476 -2.10191 0
M  V30 1837 H 170.788 5.31284 -1.49804 0
M  V30 1838 H 173.264 4.16074 0.0464781 0
M  V30 1839 H 172.14 5.4657 0.505206 0
M  V30 1840 H 172.401 4.11995 1.60352 0
M  V30 1841 N 171.46 0.379036 1.52974 0
M  V30 1842 C 172.408 -0.476033 2.27677 0
M  V30 1843 C 173.402 -1.0719 1.31174 0
M  V30 1844 O 174.608 -1.01355 1.48752 0
M  V30 1845 H 170.983 -0.172255 0.732006 0
M  V30 1846 H 172.954 0.175615 2.97883 0
M  V30 1847 C 171.703 -1.5967 3.0887 0
M  V30 1848 H 171.026 -1.1475 3.82978 0
M  V30 1849 H 172.466 -2.16943 3.64296 0
M  V30 1850 C 170.925 -2.54682 2.20542 0
M  V30 1851 O 171.455 -3.57836 1.82527 0
M  V30 1852 N 169.661 -2.24183 1.84907 0
M  V30 1853 H 169.208 -1.40333 2.1602 0
M  V30 1854 H 169.166 -2.88006 1.26096 0
M  V30 1855 N 172.938 -1.57226 0.108567 0
M  V30 1856 C 173.885 -2.14756 -0.845481 0
M  V30 1857 C 174.855 -1.06971 -1.27068 0
M  V30 1858 O 176.04 -1.34827 -1.35005 0
M  V30 1859 C 173.18 -2.74298 -2.09415 0
M  V30 1860 C 172.293 -3.96358 -1.71826 0
M  V30 1861 C 171.428 -4.44021 -2.9158 0
M  V30 1862 C 170.467 -5.58637 -2.50181 0
M  V30 1863 N 169.604 -6.01091 -3.62814 0
M  V30 1864 H 174.444 -2.95961 -0.348035 0
M  V30 1865 H 171.981 -1.46226 -0.160106 0
M  V30 1866 H 173.939 -3.06945 -2.82561 0
M  V30 1867 H 172.569 -1.95801 -2.56636 0
M  V30 1868 H 171.621 -3.69939 -0.885947 0
M  V30 1869 H 172.933 -4.79504 -1.37394 0
M  V30 1870 H 172.087 -4.78522 -3.72963 0
M  V30 1871 H 170.826 -3.59803 -3.29231 0
M  V30 1872 H 169.831 -5.23751 -1.67228 0
M  V30 1873 H 171.056 -6.44613 -2.13659 0
M  V30 1874 H 169.002 -5.19817 -4.00158 0
M  V30 1875 H 168.919 -6.79066 -3.32273 0
M  V30 1876 H 170.187 -6.40227 -4.44668 0
M  V30 1877 N 174.416 0.165178 -1.56732 0
M  V30 1878 C 175.646 0.894919 -1.86212 0
M  V30 1879 C 176.054 1.76066 -0.692627 0
M  V30 1880 O 175.397 1.80387 0.347303 0
M  V30 1881 C 175.459 1.8174 -3.10179 0
M  V30 1882 C 175.123 1.13064 -4.42793 0
M  V30 1883 C 176.12 0.493169 -5.17556 0
M  V30 1884 C 173.805 1.12556 -4.89527 0
M  V30 1885 C 175.799 -0.140209 -6.37246 0
M  V30 1886 C 173.486 0.488366 -6.09145 0
M  V30 1887 C 174.484 -0.143411 -6.82849 0
M  V30 1888 O 174.172 -0.77055 -8.00199 0
M  V30 1889 H 173.904 0.265114 -0.621844 0
M  V30 1890 H 176.458 0.168242 -2.0471 0
M  V30 1891 H 174.688 2.58455 -2.87642 0
M  V30 1892 H 176.377 2.4175 -3.26055 0
M  V30 1893 H 177.143 0.489023 -4.82528 0
M  V30 1894 H 173.022 1.60672 -4.32094 0
M  V30 1895 H 176.566 -0.633932 -6.94714 0
M  V30 1896 H 172.463 0.490116 -6.43637 0
M  V30 1897 H 173.231 -0.670408 -8.1575 0
M  V30 1898 N 175.894 1.51508 0.433938 0
M  V30 1899 C 176.827 1.67756 1.54704 0
M  V30 1900 C 177.805 0.525127 1.53887 0
M  V30 1901 O 178.989 0.749393 1.72963 0
M  V30 1902 C 176.116 1.69424 2.9328 0
M  V30 1903 C 175.162 2.90673 3.12108 0
M  V30 1904 S 175.995 4.51431 2.88046 0
M  V30 1905 C 177.151 4.55849 4.28897 0
M  V30 1906 H 177.384 2.61904 1.40689 0
M  V30 1907 H 174.917 1.41235 0.62386 0
M  V30 1908 H 176.875 1.7107 3.73156 0
M  V30 1909 H 175.536 0.764464 3.04655 0
M  V30 1910 H 174.729 2.88251 4.13434 0
M  V30 1911 H 174.331 2.86786 2.40062 0
M  V30 1912 H 176.623 4.31699 5.22152 0
M  V30 1913 H 177.566 5.57676 4.36351 0
M  V30 1914 H 177.974 3.85137 4.12711 0
M  V30 1915 N 177.372 -0.689602 1.41712 0
M  V30 1916 C 178.62 -1.4468 1.4111 0
M  V30 1917 C 178.941 -1.94986 0.0232196 0
M  V30 1918 O 178.211 -1.72097 -0.935913 0
M  V30 1919 H 176.791 -0.536847 0.519427 0
M  V30 1920 H 179.453 -0.815825 1.77004 0
M  V30 1921 H 178.549 -2.30706 2.10193 0
M  V30 1922 N 178.85 -1.27639 -0.924453 0
M  V30 1923 C 179.78 -1.13166 -2.04244 0
M  V30 1924 C 180.761 -0.032256 -1.70069 0
M  V30 1925 O 181.946 -0.207328 -1.9309 0
M  V30 1926 C 179.076 -0.781496 -3.38393 0
M  V30 1927 C 178.03 -1.83449 -3.86692 0
M  V30 1928 C 177.356 -1.33822 -5.17683 0
M  V30 1929 C 178.656 -3.23917 -4.09726 0
M  V30 1930 H 180.35 -2.06689 -2.1661 0
M  V30 1931 H 177.896 -0.995136 -1.04082 0
M  V30 1932 H 179.849 -0.667057 -4.16087 0
M  V30 1933 H 178.573 0.189439 -3.2605 0
M  V30 1934 H 177.232 -1.93789 -3.11193 0
M  V30 1935 H 176.88 -0.35665 -5.01734 0
M  V30 1936 H 176.58 -2.04224 -5.50968 0
M  V30 1937 H 178.104 -1.23679 -5.97943 0
M  V30 1938 H 179.518 -3.16559 -4.77978 0
M  V30 1939 H 177.915 -3.92059 -4.54324 0
M  V30 1940 H 178.985 -3.68729 -3.14908 0
M  V30 1941 N 180.328 1.1314 -1.09713 0
M  V30 1942 C 181.556 1.88321 -0.856898 0
M  V30 1943 C 181.971 1.79276 0.592073 0
M  V30 1944 O 181.328 1.16142 1.40774 0
M  V30 1945 C 181.379 3.37812 -1.28706 0
M  V30 1946 O 181.1 3.46627 -2.67921 0
M  V30 1947 C 182.601 4.29952 -1.07964 0
M  V30 1948 H 179.821 0.596094 -0.308079 0
M  V30 1949 H 182.365 1.43205 -1.45988 0
M  V30 1950 H 180.52 3.805 -0.727912 0
M  V30 1951 H 180.934 4.39579 -2.8613 0
M  V30 1952 H 182.408 5.33159 -1.42986 0
M  V30 1953 H 182.885 4.39196 -0.0176577 0
M  V30 1954 H 183.491 3.93036 -1.62489 0
M  V30 1955 N 181.806 0.884767 1.30421 0
M  V30 1956 C 182.738 0.308655 2.27112 0
M  V30 1957 C 183.751 -0.536655 1.53701 0
M  V30 1958 O 184.94 -0.35624 1.74909 0
M  V30 1959 C 182.04 -0.579782 3.33904 0
M  V30 1960 C 181.213 0.236417 4.36761 0
M  V30 1961 C 180.272 -0.582482 5.22966 0
M  V30 1962 O 179.298 -0.00525502 5.692 0
M  V30 1963 N 180.5 -1.89163 5.48815 0
M  V30 1964 H 183.265 1.13964 2.77186 0
M  V30 1965 H 180.826 0.747731 1.43599 0
M  V30 1966 H 182.818 -1.13366 3.88497 0
M  V30 1967 H 181.388 -1.31144 2.83761 0
M  V30 1968 H 180.608 0.97174 3.82035 0
M  V30 1969 H 181.896 0.795924 5.02536 0
M  V30 1970 H 181.294 -2.38352 5.13035 0
M  V30 1971 H 179.851 -2.39296 6.06284 0
M  V30 1972 N 183.284 -1.43765 0.645699 0
M  V30 1973 C 184.531 -2.01898 0.15604 0
M  V30 1974 C 184.859 -1.50887 -1.22733 0
M  V30 1975 O 184.114 -0.689271 -1.8316 0
M  V30 1976 C 184.413 -3.57238 0.107679 0
M  V30 1977 C 184.079 -4.27564 1.43178 0
M  V30 1978 C 182.741 -4.46492 1.7944 0
M  V30 1979 C 185.093 -4.67454 2.30513 0
M  V30 1980 C 182.421 -5.02573 3.02716 0
M  V30 1981 C 184.773 -5.24901 3.53074 0
M  V30 1982 C 183.437 -5.42046 3.89541 0
M  V30 1983 H 182.707 -0.738797 0.057099 0
M  V30 1984 H 185.354 -1.72341 0.834912 0
M  V30 1985 H 183.659 -3.86293 -0.654618 0
M  V30 1986 H 185.356 -3.99965 -0.287938 0
M  V30 1987 H 181.946 -4.13171 1.13963 0
M  V30 1988 H 186.13 -4.5253 2.0379 0
M  V30 1989 H 181.386 -5.14033 3.31028 0
M  V30 1990 H 185.56 -5.54758 4.20971 0
M  V30 1991 H 183.187 -5.85268 4.85145 0
M  V30 1992 N 184.763 -0.387143 -1.52771 0
M  V30 1993 C 185.673 0.456442 -2.30117 0
M  V30 1994 C 186.689 1.07342 -1.36944 0
M  V30 1995 O 187.865 1.07971 -1.70013 0
M  V30 1996 C 184.93 1.56957 -3.09136 0
M  V30 1997 C 183.991 0.977916 -4.18014 0
M  V30 1998 C 183.224 2.038 -4.93256 0
M  V30 1999 O 183.447 3.25271 -4.68567 0
M  V30 2000 O 182.381 1.6565 -5.78657 0
M  V30 2001 H 186.207 -0.17359 -3.03203 0
M  V30 2002 H 183.792 -0.150919 -1.48636 0
M  V30 2003 H 185.674 2.21628 -3.58412 0
M  V30 2004 H 184.349 2.18461 -2.38865 0
M  V30 2005 H 183.256 0.294525 -3.72939 0
M  V30 2006 H 184.589 0.407128 -4.90513 0
M  V30 2007 N 186.241 1.57166 -0.116904 0
M  V30 2008 C 187.171 2.18222 0.830759 0
M  V30 2009 C 188.152 1.12167 1.27877 0
M  V30 2010 O 189.337 1.40394 1.34176 0
M  V30 2011 C 186.467 2.77996 2.08172 0
M  V30 2012 C 185.421 3.89614 1.77157 0
M  V30 2013 C 184.747 4.36187 3.09265 0
M  V30 2014 C 186.047 5.1181 1.04151 0
M  V30 2015 H 187.741 2.97664 0.321992 0
M  V30 2016 H 185.287 1.4318 0.153434 0
M  V30 2017 H 187.24 3.19366 2.74924 0
M  V30 2018 H 185.964 1.9584 2.6137 0
M  V30 2019 H 184.623 3.48816 1.12796 0
M  V30 2020 H 184.271 3.50893 3.60393 0
M  V30 2021 H 183.971 5.11455 2.89288 0
M  V30 2022 H 185.495 4.80207 3.77139 0
M  V30 2023 H 186.909 5.50214 1.61052 0
M  V30 2024 H 185.306 5.92648 0.942762 0
M  V30 2025 H 186.376 4.84892 0.0279022 0
M  V30 2026 N 187.719 -0.156864 1.56817 0
M  V30 2027 C 188.947 -0.886316 1.86955 0
M  V30 2028 C 189.362 -1.75185 0.703975 0
M  V30 2029 O 188.719 -1.79555 -0.326552 0
M  V30 2030 C 188.77 -1.75117 3.16253 0
M  V30 2031 O 188.491 -0.920537 4.2832 0
M  V30 2032 C 189.992 -2.58905 3.59837 0
M  V30 2033 H 187.212 -0.25678 0.619923 0
M  V30 2034 H 189.756 -0.152615 2.0393 0
M  V30 2035 H 187.911 -2.43805 3.01062 0
M  V30 2036 H 188.325 -1.51337 5.02192 0
M  V30 2037 H 189.799 -3.1518 4.53172 0
M  V30 2038 H 190.276 -3.34472 2.84649 0
M  V30 2039 H 190.882 -1.95526 3.7769 0
M  V30 2040 N 189.197 -1.51736 -0.425897 0
M  V30 2041 C 190.445 -1.64644 -1.17204 0
M  V30 2042 C 190.766 -0.370486 -1.91448 0
M  V30 2043 O 190.036 0.614088 -1.86026 0
M  V30 2044 H 188.616 -0.606819 -0.435638 0
M  V30 2045 H 191.278 -1.88713 -0.487177 0
M  V30 2046 H 190.374 -2.47958 -1.89534 0
M  V30 2047 N 190.675 0.682077 -1.42076 0
M  V30 2048 C 191.625 1.78823 -1.41444 0
M  V30 2049 C 192.609 1.58323 -0.28681 0
M  V30 2050 O 193.801 1.68926 -0.528498 0
M  V30 2051 C 190.93 3.17232 -1.3122 0
M  V30 2052 C 190.016 3.4338 -2.489 0
M  V30 2053 N 190.407 3.40152 -3.7434 0
M  V30 2054 C 188.705 3.73986 -2.43003 0
M  V30 2055 C 189.406 3.65581 -4.52466 0
M  V30 2056 N 188.382 3.85989 -3.8277 0
M  V30 2057 H 192.184 1.7471 -2.36334 0
M  V30 2058 H 189.698 0.882622 -1.36321 0
M  V30 2059 H 191.695 3.96489 -1.2885 0
M  V30 2060 H 190.355 3.22547 -0.373263 0
M  V30 2061 H 191.366 3.20221 -4.07037 0
M  V30 2062 H 188.043 3.86591 -1.57651 0
M  V30 2063 H 189.433 3.69108 -5.61435 0
M  V30 2064 N 192.153 1.28127 0.917671 0
M  V30 2065 C 193.378 1.18007 1.70555 0
M  V30 2066 C 193.803 -0.258257 1.86319 0
M  V30 2067 O 193.161 -1.1869 1.37049 0
M  V30 2068 C 193.209 1.87948 3.07746 0
M  V30 2069 O 192.313 1.18427 3.9503 0
M  V30 2070 H 191.654 0.409867 0.522403 0
M  V30 2071 H 194.184 1.69379 1.1477 0
M  V30 2072 H 194.194 1.95701 3.58001 0
M  V30 2073 H 192.869 2.92573 2.95591 0
M  V30 2074 H 191.446 1.18811 3.53466 0
M  V30 2075 N 193.631 -1.12557 1.10312 0
M  V30 2076 C 194.877 -1.84311 0.846011 0
M  V30 2077 C 195.21 -1.83805 -0.626859 0
M  V30 2078 O 194.485 -1.28268 -1.46211 0
M  V30 2079 C 194.768 -3.32048 1.39341 0
M  V30 2080 C 194.621 -3.41016 2.93305 0
M  V30 2081 C 195.94 -4.27764 1.03468 0
M  V30 2082 H 193.059 -0.669192 0.30879 0
M  V30 2083 H 195.701 -1.32057 1.36605 0
M  V30 2084 H 193.851 -3.76678 0.951087 0
M  V30 2085 H 195.523 -3.05031 3.46055 0
M  V30 2086 H 193.766 -2.81603 3.29973 0
M  V30 2087 H 194.437 -4.44948 3.26689 0
M  V30 2088 H 196.913 -3.91253 1.41633 0
M  V30 2089 H 195.789 -5.29549 1.44463 0
M  V30 2090 H 196.05 -4.42064 -0.0560404 0
M  V30 2091 N 195.109 -0.891671 -1.2995 0
M  V30 2092 C 196.356 -0.513501 -1.95881 0
M  V30 2093 C 196.684 0.938655 -1.70351 0
M  V30 2094 O 195.939 1.67936 -1.00478 0
M  V30 2095 C 196.238 -0.742868 -3.49594 0
M  V30 2096 C 195.904 -2.17114 -3.95186 0
M  V30 2097 C 194.566 -2.56169 -4.07346 0
M  V30 2098 C 196.918 -3.10162 -4.18866 0
M  V30 2099 C 194.246 -3.87469 -4.4055 0
M  V30 2100 C 196.598 -4.41001 -4.53542 0
M  V30 2101 C 195.262 -4.79941 -4.63911 0
M  V30 2102 H 194.532 -0.187903 -0.71678 0
M  V30 2103 H 197.179 -1.1288 -1.54694 0
M  V30 2104 H 195.484 -0.044586 -3.91775 0
M  V30 2105 H 197.181 -0.429767 -3.9869 0
M  V30 2106 H 193.771 -1.85801 -3.86233 0
M  V30 2107 H 197.955 -2.81206 -4.08946 0
M  V30 2108 H 193.211 -4.17371 -4.46779 0
M  V30 2109 H 197.385 -5.13133 -4.70815 0
M  V30 2110 H 195.012 -5.81719 -4.89395 0
M  V30 2111 N 196.587 1.43421 -0.653314 0
M  V30 2112 C 197.864 1.95361 -0.0966581 0
M  V30 2113 C 198.244 1.59461 1.38331 0
M  V30 2114 O 197.592 0.879777 2.10884 0
M  V30 2115 C 197.802 3.47311 -0.342988 0
M  V30 2116 C 199.15 4.23875 -0.24798 0
M  V30 2117 O 200.174 3.55133 -0.275553 0
M  V30 2118 O 199.033 5.4623 -0.171771 0
M  V30 2119 H 196.127 0.826945 0.00956291 0
M  V30 2120 H 198.673 1.5336 -0.726558 0
M  V30 2121 H 197.445 3.66569 -1.36906 0
M  V30 2122 H 197.068 3.9631 0.319975 0
M  V30 2123 N 198.065 0.39524 1.52563 0
M  V30 2124 C 199.312 -0.185044 2.01653 0
M  V30 2125 C 199.64 -1.46317 1.28146 0
M  V30 2126 O 198.895 -1.9213 0.372074 0
M  V30 2127 C 199.194 -0.493444 3.53977 0
M  V30 2128 C 198.86 0.69384 4.4553 0
M  V30 2129 C 197.522 1.01954 4.70275 0
M  V30 2130 C 199.874 1.48785 4.99512 0
M  V30 2131 C 197.202 2.14069 5.46252 0
M  V30 2132 C 199.554 2.59965 5.76716 0
M  V30 2133 C 198.218 2.93037 5.99738 0
M  V30 2134 H 197.488 -0.0677123 0.7379 0
M  V30 2135 H 200.135 0.533807 1.8391 0
M  V30 2136 H 198.44 -1.29369 3.69825 0
M  V30 2137 H 200.137 -0.955163 3.89458 0
M  V30 2138 H 196.727 0.429987 4.26438 0
M  V30 2139 H 200.911 1.24946 4.80315 0
M  V30 2140 H 196.167 2.40056 5.62302 0
M  V30 2141 H 200.341 3.21887 6.17545 0
M  V30 2142 H 197.968 3.8003 6.58393 0
M  V30 2143 N 199.544 -1.57102 0.125237 0
M  V30 2144 C 200.772 -1.99761 -0.538797 0
M  V30 2145 C 201.187 -1.00503 -1.59827 0
M  V30 2146 O 200.544 0.00119474 -1.825 0
M  V30 2147 C 200.595 -3.42408 -1.15927 0
M  V30 2148 O 200.316 -4.37869 -0.142143 0
M  V30 2149 C 201.817 -4.00232 -1.90602 0
M  V30 2150 H 199.037 -0.655772 -0.14214 0
M  V30 2151 H 201.581 -2.03383 0.213413 0
M  V30 2152 H 199.736 -3.39706 -1.86223 0
M  V30 2153 H 200.15 -5.21128 -0.593775 0
M  V30 2154 H 201.624 -5.02105 -2.29335 0
M  V30 2155 H 202.101 -3.39721 -2.78363 0
M  V30 2156 H 202.707 -4.06499 -1.25055 0
M  V30 2157 N 201.022 0.148545 -1.56898 0
M  V30 2158 C 201.972 1.1886 -1.94567 0
M  V30 2159 C 202.956 1.3863 -0.816735 0
M  V30 2160 O 204.148 1.40218 -1.08018 0
M  V30 2161 C 201.277 2.52262 -2.32849 0
M  V30 2162 C 200.363 2.36092 -3.52309 0
M  V30 2163 N 200.754 1.89674 -4.6889 0
M  V30 2164 C 199.052 2.66848 -3.57363 0
M  V30 2165 C 199.753 1.86511 -5.50989 0
M  V30 2166 N 198.729 2.29766 -4.92655 0
M  V30 2167 H 202.531 0.821793 -2.82177 0
M  V30 2168 H 200.045 0.356615 -1.58436 0
M  V30 2169 H 202.042 3.27447 -2.58039 0
M  V30 2170 H 200.702 2.89727 -1.46589 0
M  V30 2171 H 201.713 1.59663 -4.92674 0
M  V30 2172 H 198.39 3.08198 -2.81639 0
M  V30 2173 H 199.78 1.52128 -6.54452 0
M  V30 2174 N 202.5 1.5196 0.417844 0
M  V30 2175 C 203.911 1.57851 0.997 0
M  V30 2176 C 204.262 0.413714 1.91789 0
M  V30 2177 O 203.387 -0.467057 2.113 0
M  V30 2178 C 203.982 2.86085 1.81496 0
M  V30 2179 C 202.541 2.94483 2.34428 0
M  V30 2180 C 201.688 2.52707 1.14169 0
M  V30 2181 H 204.639 1.57455 0.198392 0
M  V30 2182 H 204.66 2.70947 2.67148 0
M  V30 2183 H 204.172 3.70842 1.14446 0
M  V30 2184 H 202.273 2.142 3.04875 0
M  V30 2185 H 202.386 3.98546 2.65891 0
M  V30 2186 H 200.75 2.06353 1.49301 0
M  V30 2187 H 201.533 3.39828 0.486999 0
M  V30 2188 N 203.978 -0.674533 1.42435 0
M  V30 2189 C 205.218 -1.4466 1.44405 0
M  V30 2190 C 205.582 -1.91911 0.0585784 0
M  V30 2191 O 206.783 -2.68759 -0.0469991 0
M  V30 2192 C 205.054 -2.61136 2.44013 0
M  V30 2193 S 206.613 -3.49981 2.64687 0
M  V30 2194 H 203.431 -0.494074 0.511284 0
M  V30 2195 H 206.033 -0.785162 1.7904 0
M  V30 2196 H 204.737 -2.24662 3.43446 0
M  V30 2197 H 204.268 -3.32153 2.10803 0
M  V30 2198 H 206.283 -4.57124 1.93007 0
M  V30 2199 N 205.456 -1.28612 -0.910864 0
M  V30 2200 C 206.733 -1.06632 -1.63979 0
M  V30 2201 C 207.113 0.393351 -2.07403 0
M  V30 2202 O 206.461 1.37999 -1.82122 0
M  V30 2203 C 206.671 -2.0436 -2.8291 0
M  V30 2204 C 208.019 -2.34666 -3.5386 0
M  V30 2205 O 209.043 -2.02467 -2.93062 0
M  V30 2206 O 207.902 -2.89631 -4.63439 0
M  V30 2207 H 204.996 -0.407737 -0.7195 0
M  V30 2208 H 207.542 -1.39942 -0.959914 0
M  V30 2209 H 206.314 -3.02727 -2.47936 0
M  V30 2210 H 205.937 -1.71714 -3.58609 0
M  V30 2211 N 206.934 1.1197 -1.10907 0
M  V30 2212 C 207.884 2.15946 -0.731538 0
M  V30 2213 C 208.868 1.58758 0.261699 0
M  V30 2214 O 210.06 1.76863 0.0696722 0
M  V30 2215 C 207.189 3.42877 -0.170299 0
M  V30 2216 C 206.275 4.07037 -1.19087 0
M  V30 2217 N 206.666 4.46135 -2.38322 0
M  V30 2218 C 204.964 4.33884 -1.03252 0
M  V30 2219 C 205.665 4.96331 -3.03366 0
M  V30 2220 N 204.641 4.9214 -2.30865 0
M  V30 2221 H 208.443 2.43947 -1.63912 0
M  V30 2222 H 205.957 1.28927 -0.987505 0
M  V30 2223 H 207.954 4.16732 0.118271 0
M  V30 2224 H 206.614 3.16343 0.731935 0
M  V30 2225 H 207.625 4.38345 -2.75815 0
M  V30 2226 H 204.302 4.17084 -0.186256 0
M  V30 2227 H 205.692 5.36257 -4.04818 0
M  V30 2228 N 208.412 0.89855 1.29475 0
M  V30 2229 C 209.322 0.379974 2.31502 0
M  V30 2230 C 210.338 -0.524695 1.659 0
M  V30 2231 O 211.514 -0.414551 1.97087 0
M  V30 2232 C 208.579 -0.385138 3.44554 0
M  V30 2233 C 207.64 0.550914 4.2575 0
M  V30 2234 C 206.873 -0.177778 5.33404 0
M  V30 2235 O 207.096 -1.40189 5.52904 0
M  V30 2236 O 206.03 0.479106 5.9999 0
M  V30 2237 H 209.856 1.22639 2.77837 0
M  V30 2238 H 207.441 0.662834 1.33891 0
M  V30 2239 H 209.323 -0.817841 4.13388 0
M  V30 2240 H 207.998 -1.20763 3.0033 0
M  V30 2241 H 206.905 1.03271 3.59564 0
M  V30 2242 H 208.238 1.33979 4.73614 0
M  V30 2243 N 209.89 -1.43072 0.660911 0
M  V30 2244 C 210.8 -2.34585 -0.0264163 0
M  V30 2245 C 211.816 -1.54316 -0.803898 0
M  V30 2246 O 212.992 -1.86939 -0.749391 0
M  V30 2247 C 210.057 -3.32689 -0.975639 0
M  V30 2248 C 209.118 -4.2886 -0.194236 0
M  V30 2249 C 208.351 -5.22278 -1.09825 0
M  V30 2250 O 208.574 -5.20299 -2.33763 0
M  V30 2251 O 207.508 -5.99228 -0.566513 0
M  V30 2252 H 211.334 -2.94869 0.727034 0
M  V30 2253 H 208.919 -1.43342 0.42111 0
M  V30 2254 H 210.801 -3.92995 -1.52094 0
M  V30 2255 H 209.476 -2.74898 -1.70918 0
M  V30 2256 H 208.383 -3.72011 0.394835 0
M  V30 2257 H 209.716 -4.89655 0.499899 0
M  V30 2258 N 211.368 -0.403325 -1.52352 0
M  V30 2259 C 212.301 0.469463 -2.23319 0
M  V30 2260 C 213.279 1.05272 -1.23922 0
M  V30 2261 O 214.463 1.10169 -1.52954 0
M  V30 2262 C 211.59 1.6511 -2.9573 0
M  V30 2263 C 210.636 1.19178 -4.0951 0
M  V30 2264 S 211.469 0.161718 -5.35256 0
M  V30 2265 C 212.625 1.34882 -6.11194 0
M  V30 2266 H 212.858 -0.133134 -2.97002 0
M  V30 2267 H 210.391 -0.187588 -1.53256 0
M  V30 2268 H 212.349 2.3287 -3.38056 0
M  V30 2269 H 211.01 2.22503 -2.21701 0
M  V30 2270 H 210.203 2.07444 -4.59329 0
M  V30 2271 H 209.805 0.592911 -3.6927 0
M  V30 2272 H 212.097 2.27345 -6.38217 0
M  V30 2273 H 213.04 0.89128 -7.02468 0
M  V30 2274 H 213.448 1.57198 -5.42171 0
M  V30 2275 N 212.846 1.57033 -0.133567 0
M  V30 2276 C 214.262 1.58035 0.222944 0
M  V30 2277 C 214.462 1.14713 1.6566 0
M  V30 2278 O 213.518 0.841218 2.38075 0
M  V30 2279 C 214.831 3.00691 -0.0236116 0
M  V30 2280 C 216.379 3.12973 0.0411512 0
M  V30 2281 C 216.854 4.57654 -0.177899 0
M  V30 2282 N 218.345 4.63033 -0.124365 0
M  V30 2283 C 219.08 5.72771 -0.268553 0
M  V30 2284 N 218.576 6.91206 -0.46972 0
M  V30 2285 N 220.369 5.61718 -0.2071 0
M  V30 2286 H 212.52 1.8349 -1.06981 0
M  V30 2287 H 214.783 0.848677 -0.422436 0
M  V30 2288 H 214.489 3.36726 -1.0153 0
M  V30 2289 H 214.363 3.70614 0.701808 0
M  V30 2290 H 216.75 2.76787 1.02338 0
M  V30 2291 H 216.831 2.45564 -0.716383 0
M  V30 2292 H 216.475 4.94542 -1.15717 0
M  V30 2293 H 216.405 5.23173 0.599797 0
M  V30 2294 H 218.896 3.7789 0.027011 0
M  V30 2295 H 219.209 7.70693 -0.570212 0
M  V30 2296 H 217.554 6.93156 -0.505876 0
M  V30 2297 H 220.745 4.68072 -0.0507986 0
M  V30 2298 H 220.918 6.47195 -0.322909 0
M  V30 2299 N 214.325 -0.140222 1.56975 0
M  V30 2300 C 215.235 -1.19223 2.02047 0
M  V30 2301 C 216.251 -1.46612 0.937062 0
M  V30 2302 O 217.427 -1.58148 1.24704 0
M  V30 2303 C 214.492 -2.50414 2.39778 0
M  V30 2304 C 213.553 -2.30612 3.621 0
M  V30 2305 C 212.786 -3.55547 3.98023 0
M  V30 2306 O 213.009 -4.62004 3.34528 0
M  V30 2307 O 211.943 -3.47808 4.91237 0
M  V30 2308 H 215.769 -0.839559 2.91865 0
M  V30 2309 H 213.354 -0.349453 1.45256 0
M  V30 2310 H 215.236 -3.27747 2.64877 0
M  V30 2311 H 213.911 -2.85198 1.53114 0
M  V30 2312 H 212.818 -1.51207 3.4218 0
M  V30 2313 H 214.151 -2.00741 4.49404 0
M  V30 2314 N 215.803 -1.52179 -0.40978 0
M  V30 2315 C 216.736 -1.70196 -1.52015 0
M  V30 2316 C 217.714 -0.549542 -1.53032 0
M  V30 2317 O 218.898 -0.776815 -1.71749 0
M  V30 2318 C 216.025 -1.74069 -2.90547 0
M  V30 2319 C 215.071 -2.95601 -3.07445 0
M  V30 2320 S 215.904 -4.55956 -2.80827 0
M  V30 2321 C 217.06 -4.62614 -4.21591 0
M  V30 2322 H 217.293 -2.64109 -1.36504 0
M  V30 2323 H 214.826 -1.4221 -0.601312 0
M  V30 2324 H 216.784 -1.76985 -3.70387 0
M  V30 2325 H 215.445 -0.812835 -3.034 0
M  V30 2326 H 214.638 -2.94791 -4.08796 0
M  V30 2327 H 214.24 -2.90569 -2.35469 0
M  V30 2328 H 216.532 -4.39951 -5.15218 0
M  V30 2329 H 217.475 -5.64548 -4.27424 0
M  V30 2330 H 217.883 -3.91654 -4.06531 0
M  V30 2331 N 217.281 0.66697 -1.42791 0
M  V30 2332 C 218.211 1.79218 -1.49677 0
M  V30 2333 C 219.192 1.66405 -0.352623 0
M  V30 2334 O 220.377 1.85708 -0.567993 0
M  V30 2335 C 217.507 3.17565 -1.40605 0
M  V30 2336 C 216.461 3.45124 -2.53127 0
M  V30 2337 C 215.787 4.83127 -2.29112 0
M  V30 2338 C 217.087 3.41236 -3.95418 0
M  V30 2339 H 218.781 1.73713 -2.43853 0
M  V30 2340 H 216.327 0.83432 -1.17367 0
M  V30 2341 H 218.28 3.96022 -1.44029 0
M  V30 2342 H 217.004 3.23767 -0.429271 0
M  V30 2343 H 215.663 2.69031 -2.49034 0
M  V30 2344 H 215.311 4.85988 -1.29709 0
M  V30 2345 H 215.011 5.02528 -3.04531 0
M  V30 2346 H 216.535 5.63859 -2.34297 0
M  V30 2347 H 217.949 4.09651 -4.01073 0
M  V30 2348 H 216.346 3.72173 -4.70752 0
M  V30 2349 H 217.416 2.39665 -4.21532 0
M  V30 2350 N 218.759 1.29093 0.90403 0
M  V30 2351 C 219.987 1.19689 1.68766 0
M  V30 2352 C 220.402 -0.243113 1.87228 0
M  V30 2353 O 219.759 -1.16326 1.40621 0
M  V30 2354 C 219.81 1.90144 3.07453 0
M  V30 2355 O 219.531 3.2852 2.89838 0
M  V30 2356 C 221.032 1.87162 4.01852 0
M  V30 2357 H 218.252 0.415035 0.527244 0
M  V30 2358 H 220.796 1.7039 1.13082 0
M  V30 2359 H 218.951 1.43289 3.59926 0
M  V30 2360 H 219.365 3.63944 3.77684 0
M  V30 2361 H 220.839 2.41032 4.96596 0
M  V30 2362 H 221.316 0.84617 4.30972 0
M  V30 2363 H 221.922 2.33741 3.5531 0
M  V30 2364 N 220.237 -1.11381 1.11499 0
M  V30 2365 C 221.187 -2.15555 0.74298 0
M  V30 2366 C 222.171 -1.58894 -0.253276 0
M  V30 2367 O 223.363 -1.76897 -0.0602918 0
M  V30 2368 C 220.492 -3.42782 0.188481 0
M  V30 2369 C 219.578 -4.064 1.21244 0
M  V30 2370 N 219.969 -4.44864 2.40685 0
M  V30 2371 C 218.267 -4.3333 1.05552 0
M  V30 2372 C 218.968 -4.94715 3.05994 0
M  V30 2373 N 217.944 -4.90909 2.33472 0
M  V30 2374 H 221.746 -2.43074 1.65203 0
M  V30 2375 H 219.26 -1.28401 0.994329 0
M  V30 2376 H 221.257 -4.16789 -0.0961693 0
M  V30 2377 H 219.917 -3.16727 -0.715149 0
M  V30 2378 H 220.928 -4.36876 2.78136 0
M  V30 2379 H 217.605 -4.1698 0.208372 0
M  V30 2380 H 218.995 -5.34103 4.07656 0
M  V30 2381 N 221.715 -0.905404 -1.28997 0
M  V30 2382 C 223.131 -0.60233 -1.47798 0
M  V30 2383 C 223.331 0.854645 -1.82478 0
M  V30 2384 O 222.387 1.63439 -1.92468 0
M  V30 2385 C 223.7 -1.53306 -2.58685 0
M  V30 2386 C 225.248 -1.53887 -2.72558 0
M  V30 2387 C 225.723 -2.45602 -3.86579 0
M  V30 2388 N 227.214 -2.43681 -3.93921 0
M  V30 2389 C 227.949 -3.11347 -4.81509 0
M  V30 2390 N 227.445 -3.88313 -5.73746 0
M  V30 2391 N 229.238 -3.00476 -4.75048 0
M  V30 2392 H 221.389 -1.84765 -1.04764 0
M  V30 2393 H 223.652 -0.792025 -0.520961 0
M  V30 2394 H 223.358 -2.57141 -2.39941 0
M  V30 2395 H 223.232 -1.25787 -3.55609 0
M  V30 2396 H 225.619 -0.507941 -2.90696 0
M  V30 2397 H 225.7 -1.85447 -1.76191 0
M  V30 2398 H 225.344 -3.48792 -3.69197 0
M  V30 2399 H 225.274 -2.11349 -4.82327 0
M  V30 2400 H 227.765 -1.87767 -3.27951 0
M  V30 2401 H 228.078 -4.36985 -6.37389 0
M  V30 2402 H 226.423 -3.92419 -5.73614 0
M  V30 2403 H 229.614 -2.39858 -4.01977 0
M  V30 2404 H 229.787 -3.53485 -5.43095 0
M  V30 2405 N 223.193 1.4272 -0.668489 0
M  V30 2406 C 224.141 2.32586 0.0254857 0
M  V30 2407 C 225.135 1.49471 0.797176 0
M  V30 2408 O 226.341 1.65583 0.705853 0
M  V30 2409 H 222.716 0.751514 0.0270339 0
M  V30 2410 H 224.687 2.88823 -0.749936 0
M  V30 2411 C 223.436 3.3397 0.967427 0
M  V30 2412 H 222.759 3.97961 0.383048 0
M  V30 2413 H 224.199 3.9945 1.42181 0
M  V30 2414 C 222.658 2.65744 2.0708 0
M  V30 2415 O 223.188 2.48454 3.15648 0
M  V30 2416 N 221.394 2.2487 1.8407 0
M  V30 2417 H 220.941 2.39132 0.95778 0
M  V30 2418 H 220.899 1.79552 2.58086 0
M  V30 2419 N 224.671 0.411399 1.52136 0
M  V30 2420 C 225.919 -0.163322 2.01439 0
M  V30 2421 C 226.24 -1.45453 1.29879 0
M  V30 2422 O 225.51 -1.91225 0.4254 0
M  V30 2423 H 224.09 -0.0633447 0.744309 0
M  V30 2424 H 226.752 0.548161 1.87033 0
M  V30 2425 H 225.848 -0.357817 3.10042 0
M  V30 2426 N 226.149 -1.5696 0.141893 0
M  V30 2427 C 227.079 -2.19516 -0.795936 0
M  V30 2428 C 228.06 -1.14187 -1.26077 0
M  V30 2429 O 229.245 -1.42511 -1.31925 0
M  V30 2430 C 226.375 -2.81272 -2.03723 0
M  V30 2431 C 225.329 -3.92384 -1.70936 0
M  V30 2432 C 224.655 -4.41052 -3.02287 0
M  V30 2433 C 225.955 -5.13403 -0.959954 0
M  V30 2434 H 227.649 -2.98138 -0.274596 0
M  V30 2435 H 225.195 -1.43406 -0.130636 0
M  V30 2436 H 227.148 -3.237 -2.69808 0
M  V30 2437 H 225.872 -1.99973 -2.58221 0
M  V30 2438 H 224.531 -3.50566 -1.07232 0
M  V30 2439 H 224.179 -3.56582 -3.54765 0
M  V30 2440 H 223.879 -5.15993 -2.81114 0
M  V30 2441 H 225.403 -4.86146 -3.69451 0
M  V30 2442 H 226.817 -5.52706 -1.52279 0
M  V30 2443 H 225.214 -5.94073 -0.848357 0
M  V30 2444 H 226.284 -4.84875 0.0492434 0
M  V30 2445 N 227.627 0.131896 -1.57047 0
M  V30 2446 C 228.873 0.843179 -1.84441 0
M  V30 2447 C 229.206 1.80129 -0.725749 0
M  V30 2448 O 228.481 1.92624 0.269469 0
M  V30 2449 C 228.764 1.60442 -3.22382 0
M  V30 2450 C 228.617 0.666782 -4.4483 0
M  V30 2451 C 229.936 2.56354 -3.5773 0
M  V30 2452 H 227.055 0.305081 -0.670891 0
M  V30 2453 H 229.697 0.107839 -1.89694 0
M  V30 2454 H 227.847 2.23128 -3.18035 0
M  V30 2455 H 229.519 0.0497646 -4.61273 0
M  V30 2456 H 227.762 -0.022609 -4.33794 0
M  V30 2457 H 228.433 1.23579 -5.37989 0
M  V30 2458 H 230.909 2.0378 -3.62785 0
M  V30 2459 H 229.785 3.06657 -4.5525 0
M  V30 2460 H 230.046 3.38419 -2.84473 0
M  V30 2461 N 229.106 1.52395 0.401703 0
M  V30 2462 C 230.053 1.76268 1.48991 0
M  V30 2463 C 231.023 0.605386 1.54675 0
M  V30 2464 O 232.208 0.843742 1.7113 0
M  V30 2465 C 229.348 1.92592 2.86361 0
M  V30 2466 C 228.461 3.20259 2.89928 0
M  V30 2467 C 227.596 3.26972 4.18644 0
M  V30 2468 C 226.635 4.48812 4.16214 0
M  V30 2469 N 225.772 4.52877 5.36514 0
M  V30 2470 H 230.612 2.6914 1.27935 0
M  V30 2471 H 228.149 1.33355 0.620871 0
M  V30 2472 H 230.107 2.0004 3.66115 0
M  V30 2473 H 228.737 1.03093 3.05895 0
M  V30 2474 H 227.789 3.21945 2.02621 0
M  V30 2475 H 229.101 4.10056 2.83999 0
M  V30 2476 H 228.255 3.33533 5.06794 0
M  V30 2477 H 226.994 2.35126 4.27278 0
M  V30 2478 H 225.999 4.4239 3.26453 0
M  V30 2479 H 227.224 5.41961 4.09213 0
M  V30 2480 H 225.17 3.63917 5.45802 0
M  V30 2481 H 225.087 5.36529 5.32609 0
M  V30 2482 H 226.355 4.63676 6.26597 0
M  V30 2483 N 230.584 -0.659388 1.43143 0
M  V30 2484 C 231.531 -1.77249 1.47822 0
M  V30 2485 C 232.501 -1.62818 0.328558 0
M  V30 2486 O 233.686 -1.83151 0.534838 0
M  V30 2487 C 230.826 -3.15371 1.40126 0
M  V30 2488 C 229.939 -3.4098 2.65249 0
M  V30 2489 C 229.074 -4.68915 2.49584 0
M  V30 2490 C 228.113 -4.87608 3.70006 0
M  V30 2491 N 227.25 -6.06796 3.53189 0
M  V30 2492 H 232.09 -1.72584 2.42938 0
M  V30 2493 H 229.627 -0.842297 1.20598 0
M  V30 2494 H 231.585 -3.9521 1.33659 0
M  V30 2495 H 230.215 -3.19121 0.485964 0
M  V30 2496 H 229.267 -2.55282 2.8202 0
M  V30 2497 H 230.579 -3.50681 3.54717 0
M  V30 2498 H 229.733 -5.56871 2.4079 0
M  V30 2499 H 228.472 -4.61524 1.5763 0
M  V30 2500 H 227.477 -3.9809 3.79215 0
M  V30 2501 H 228.702 -4.96834 4.62961 0
M  V30 2502 H 226.648 -6.00549 2.63965 0
M  V30 2503 H 226.565 -6.17428 4.36255 0
M  V30 2504 H 227.833 -6.9739 3.48236 0
M  V30 2505 N 232.062 -1.29571 -0.897171 0
M  V30 2506 C 233.31 -1.17456 -1.64464 0
M  V30 2507 C 233.631 0.273698 -1.9307 0
M  V30 2508 O 232.901 1.18684 -1.55855 0
M  V30 2509 H 231.481 -0.431706 -0.609622 0
M  V30 2510 H 234.143 -1.62531 -1.07562 0
M  V30 2511 H 233.239 -1.72648 -2.59998 0
M  V30 2512 N 233.54 1.10788 -1.12088 0
M  V30 2513 C 234.487 2.17025 -0.785407 0
M  V30 2514 C 235.457 1.64265 0.246191 0
M  V30 2515 O 236.642 1.90412 0.121584 0
M  V30 2516 C 233.782 3.44249 -0.242177 0
M  V30 2517 C 232.895 4.1098 -1.33115 0
M  V30 2518 C 232.03 5.25911 -0.747741 0
M  V30 2519 C 231.069 5.84538 -1.81609 0
M  V30 2520 N 230.206 6.90853 -1.25167 0
M  V30 2521 H 235.046 2.45066 -1.69548 0
M  V30 2522 H 232.583 1.20297 -0.846582 0
M  V30 2523 H 234.541 4.17101 0.0908026 0
M  V30 2524 H 233.171 3.16571 0.631072 0
M  V30 2525 H 232.223 3.36133 -1.78097 0
M  V30 2526 H 233.535 4.50601 -2.13917 0
M  V30 2527 H 232.689 6.056 -0.365216 0
M  V30 2528 H 231.428 4.87614 0.0915188 0
M  V30 2529 H 230.433 5.03522 -2.20785 0
M  V30 2530 H 231.658 6.249 -2.6585 0
M  V30 2531 H 229.604 6.54562 -0.434174 0
M  V30 2532 H 229.521 7.29166 -1.99633 0
M  V30 2533 H 230.789 7.7433 -0.896259 0
M  V30 2534 N 235.018 0.912232 1.28515 0
M  V30 2535 C 235.928 0.404506 2.31086 0
M  V30 2536 C 236.944 -0.50707 1.66448 0
M  V30 2537 O 238.12 -0.393624 1.97516 0
M  V30 2538 C 235.185 -0.348572 3.44943 0
M  V30 2539 C 234.246 0.59604 4.25142 0
M  V30 2540 C 233.479 -0.121194 5.33562 0
M  V30 2541 O 233.702 -1.34317 5.5436 0
M  V30 2542 O 232.636 0.542716 5.99448 0
M  V30 2543 H 236.462 1.25579 2.76521 0
M  V30 2544 H 234.047 0.676998 1.33181 0
M  V30 2545 H 235.929 -0.77395 4.14232 0
M  V30 2546 H 234.604 -1.17571 3.01594 0
M  V30 2547 H 233.511 1.07079 3.58448 0
M  V30 2548 H 234.844 1.38995 4.72167 0
M  V30 2549 N 236.496 -1.42363 0.676048 0
M  V30 2550 C 237.428 -2.29164 -0.0404605 0
M  V30 2551 C 238.441 -1.43747 -0.764245 0
M  V30 2552 O 239.63 -1.67453 -0.618195 0
M  V30 2553 C 236.73 -3.21196 -1.08103 0
M  V30 2554 C 235.903 -4.35273 -0.430812 0
M  V30 2555 C 234.962 -5.08017 -1.37133 0
M  V30 2556 O 233.988 -5.62494 -0.87116 0
M  V30 2557 N 235.19 -5.13647 -2.70456 0
M  V30 2558 H 237.955 -2.91298 0.704667 0
M  V30 2559 H 235.516 -1.53303 0.520559 0
M  V30 2560 H 237.508 -3.66728 -1.71152 0
M  V30 2561 H 236.078 -2.60505 -1.72788 0
M  V30 2562 H 235.298 -3.92372 0.379209 0
M  V30 2563 H 236.586 -5.08795 0.0221132 0
M  V30 2564 H 235.984 -4.708 -3.1363 0
M  V30 2565 H 234.541 -5.62821 -3.28749 0
M  V30 2566 N 237.974 -0.419461 -1.51915 0
M  V30 2567 C 238.922 0.415502 -2.28859 0
M  V30 2568 C 239.916 1.03674 -1.3397 0
M  V30 2569 O 241.122 0.973757 -1.51387 0
M  V30 2570 H 237.497 0.152786 -0.736315 0
M  V30 2571 H 239.468 -0.254531 -2.97312 0
M  V30 2572 C 238.217 1.51425 -3.12995 0
M  V30 2573 H 237.54 1.04556 -3.85886 0
M  V30 2574 H 238.98 2.07208 -3.6992 0
M  V30 2575 C 237.439 2.48745 -2.27217 0
M  V30 2576 O 237.969 3.52871 -1.9195 0
M  V30 2577 N 236.175 2.19202 -1.90785 0
M  V30 2578 H 235.722 1.34556 -2.19664 0
M  V30 2579 H 235.68 2.84561 -1.33687 0
M  V30 2580 N 239.452 1.56882 -0.150215 0
M  V30 2581 C 240.68 2.00593 0.506948 0
M  V30 2582 C 241.095 1.03033 1.58208 0
M  V30 2583 O 240.452 0.0278396 1.82479 0
M  V30 2584 C 240.503 3.44209 1.10465 0
M  V30 2585 O 240.224 4.3804 0.0724636 0
M  V30 2586 C 241.725 4.03214 1.84211 0
M  V30 2587 H 238.945 0.65795 0.13169 0
M  V30 2588 H 241.489 2.03018 -0.245743 0
M  V30 2589 H 239.644 3.42625 1.80795 0
M  V30 2590 H 240.058 5.22007 0.510793 0
M  V30 2591 H 241.532 5.0569 2.21318 0
M  V30 2592 H 242.009 3.44107 2.72923 0
M  V30 2593 H 242.615 4.08437 1.18572 0
M  V30 2594 N 240.93 -0.123565 1.57115 0
M  V30 2595 C 241.862 -1.17739 1.96648 0
M  V30 2596 C 242.875 -1.37906 0.865201 0
M  V30 2597 O 244.064 -1.37062 1.14351 0
M  V30 2598 C 241.164 -2.53821 2.24562 0
M  V30 2599 C 240.337 -2.54317 3.55867 0
M  V30 2600 C 239.396 -3.72112 3.72047 0
M  V30 2601 O 238.422 -3.55907 4.44206 0
M  V30 2602 N 239.624 -4.90498 3.10471 0
M  V30 2603 H 242.389 -0.841147 2.87654 0
M  V30 2604 H 239.95 -0.31289 1.58848 0
M  V30 2605 H 241.942 -3.31175 2.32606 0
M  V30 2606 H 240.512 -2.79645 1.39705 0
M  V30 2607 H 239.732 -1.62711 3.59053 0
M  V30 2608 H 241.02 -2.51701 4.42181 0
M  V30 2609 H 240.418 -5.06567 2.51806 0
M  V30 2610 H 238.975 -5.65544 3.24043 0
M  V30 2611 N 242.408 -1.52605 -0.393616 0
M  V30 2612 C 243.824 -1.41753 -0.733357 0
M  V30 2613 C 244.024 -0.534293 -1.94287 0
M  V30 2614 O 243.08 -0.0059787 -2.52499 0
M  V30 2615 C 244.393 -2.84531 -0.972772 0
M  V30 2616 C 245.941 -2.93978 -1.07453 0
M  V30 2617 C 246.416 -4.37756 -1.3466 0
M  V30 2618 N 247.907 -4.4106 -1.41492 0
M  V30 2619 C 248.642 -5.49387 -1.642 0
M  V30 2620 N 248.138 -6.67806 -1.8441 0
M  V30 2621 N 249.931 -5.36923 -1.66342 0
M  V30 2622 H 242.082 -2.08555 0.402328 0
M  V30 2623 H 244.345 -0.940654 0.117789 0
M  V30 2624 H 244.051 -3.51353 -0.156204 0
M  V30 2625 H 243.925 -3.26508 -1.88871 0
M  V30 2626 H 246.312 -2.27326 -1.88167 0
M  V30 2627 H 246.393 -2.55435 -0.136605 0
M  V30 2628 H 246.037 -5.04972 -0.544581 0
M  V30 2629 H 245.967 -4.73848 -2.2973 0
M  V30 2630 H 248.458 -3.55705 -1.27601 0
M  V30 2631 H 248.771 -7.46141 -2.01231 0
M  V30 2632 H 247.116 -6.70843 -1.81644 0
M  V30 2633 H 250.307 -4.43381 -1.50102 0
M  V30 2634 H 250.48 -6.21416 -1.837 0
M  V30 2635 N 243.887 0.651787 -1.4349 0
M  V30 2636 C 245.112 1.44434 -1.48841 0
M  V30 2637 C 245.537 1.8779 -0.107955 0
M  V30 2638 O 244.895 1.57464 0.898602 0
M  V30 2639 C 244.943 2.65458 -2.44059 0
M  V30 2640 O 244.047 3.64566 -1.92784 0
M  V30 2641 H 243.388 0.433005 -0.503391 0
M  V30 2642 H 245.918 0.797451 -1.88419 0
M  V30 2643 H 245.928 3.13255 -2.6141 0
M  V30 2644 H 244.603 2.33244 -3.4434 0
M  V30 2645 H 243.18 3.23716 -1.851 0
M  V30 2646 N 245.365 1.30045 0.890287 0
M  V30 2647 C 246.612 1.18561 1.64163 0
M  V30 2648 C 246.94 -0.260852 1.92743 0
M  V30 2649 O 246.195 -1.20376 1.54299 0
M  V30 2650 C 246.494 1.95409 2.99249 0
M  V30 2651 C 246.16 3.45066 2.90242 0
M  V30 2652 C 244.822 3.85878 2.87492 0
M  V30 2653 C 247.174 4.4039 2.78758 0
M  V30 2654 C 244.502 5.20314 2.7109 0
M  V30 2655 C 246.854 5.74928 2.63894 0
M  V30 2656 C 245.518 6.14986 2.59516 0
M  V30 2657 H 244.788 0.433846 0.600715 0
M  V30 2658 H 247.435 1.61088 1.03552 0
M  V30 2659 H 245.74 1.45501 3.63781 0
M  V30 2660 H 247.437 1.8392 3.56334 0
M  V30 2661 H 244.027 3.12631 2.93189 0
M  V30 2662 H 248.211 4.09806 2.79952 0
M  V30 2663 H 243.467 5.50449 2.66112 0
M  V30 2664 H 247.641 6.48434 2.53981 0
M  V30 2665 H 245.268 7.19104 2.46565 0
M  V30 2666 N 246.843 -1.10192 1.12674 0
M  V30 2667 C 248.09 -1.82205 0.883606 0
M  V30 2668 C 248.418 -1.8532 -0.590492 0
M  V30 2669 O 247.673 -1.31137 -1.45264 0
M  V30 2670 C 247.972 -3.28552 1.4067 0
M  V30 2671 C 247.638 -3.45582 2.89627 0
M  V30 2672 C 246.3 -3.49937 3.30299 0
M  V30 2673 C 248.652 -3.50768 3.85501 0
M  V30 2674 C 245.98 -3.57049 4.65546 0
M  V30 2675 C 248.332 -3.59414 5.20581 0
M  V30 2676 C 246.996 -3.62034 5.60792 0
M  V30 2677 H 246.266 -0.666735 0.323334 0
M  V30 2678 H 248.913 -1.29868 1.40736 0
M  V30 2679 H 247.218 -3.83473 0.80347 0
M  V30 2680 H 248.915 -3.82788 1.19475 0
M  V30 2681 H 245.505 -3.42871 2.57172 0
M  V30 2682 H 249.689 -3.46651 3.55171 0
M  V30 2683 H 244.945 -3.57361 4.96088 0
M  V30 2684 H 249.119 -3.62371 5.94693 0
M  V30 2685 H 246.746 -3.67298 6.6558 0
M  V30 2686 N 248.321 -0.919034 -1.28029 0
M  V30 2687 C 249.251 -0.428581 -2.29533 0
M  V30 2688 C 250.232 0.50659 -1.62381 0
M  V30 2689 O 251.417 0.413195 -1.89753 0
M  V30 2690 C 248.547 0.327388 -3.45753 0
M  V30 2691 C 247.501 -0.519137 -4.2484 0
M  V30 2692 C 246.827 0.365486 -5.33449 0
M  V30 2693 C 248.127 -1.77914 -4.91064 0
M  V30 2694 H 249.821 -1.27687 -2.70807 0
M  V30 2695 H 247.367 -0.615428 -1.30186 0
M  V30 2696 H 249.32 0.681378 -4.15855 0
M  V30 2697 H 248.044 1.20963 -3.03374 0
M  V30 2698 H 246.703 -0.855717 -3.56473 0
M  V30 2699 H 246.351 1.24642 -4.87312 0
M  V30 2700 H 246.051 -0.197356 -5.87268 0
M  V30 2701 H 247.575 0.715241 -6.06396 0
M  V30 2702 H 248.989 -1.49374 -5.53498 0
M  V30 2703 H 247.386 -2.2848 -5.54903 0
M  V30 2704 H 248.456 -2.50382 -4.15255 0
M  V30 2705 N 249.799 1.42003 -0.683588 0
M  V30 2706 C 251.215 1.55625 -0.353976 0
M  V30 2707 C 251.415 1.66151 1.14 0
M  V30 2708 O 250.471 1.63329 1.92561 0
M  V30 2709 C 251.784 2.80171 -1.092 0
M  V30 2710 C 253.332 2.93954 -1.07518 0
M  V30 2711 C 253.807 4.21372 -1.79471 0
M  V30 2712 N 255.298 4.28303 -1.76381 0
M  V30 2713 C 256.033 5.25729 -2.28904 0
M  V30 2714 N 255.529 6.29254 -2.89846 0
M  V30 2715 N 257.322 5.17586 -2.19228 0
M  V30 2716 H 249.473 1.33415 -1.6527 0
M  V30 2717 H 251.736 0.64282 -0.696769 0
M  V30 2718 H 251.442 2.78561 -2.14701 0
M  V30 2719 H 251.316 3.7133 -0.662862 0
M  V30 2720 H 253.703 2.95086 -0.028475 0
M  V30 2721 H 253.784 2.04002 -1.54328 0
M  V30 2722 H 253.428 4.21001 -2.84114 0
M  V30 2723 H 253.358 5.10275 -1.30104 0
M  V30 2724 H 255.849 3.54119 -1.31939 0
M  V30 2725 H 256.162 6.99964 -3.27522 0
M  V30 2726 H 254.507 6.29791 -2.93919 0
M  V30 2727 H 257.698 4.35631 -1.71299 0
M  V30 2728 H 257.871 5.93348 -2.60466 0
M  V30 2729 N 251.277 0.427512 1.51691 0
M  V30 2730 C 252.21 -0.433876 2.24037 0
M  V30 2731 C 253.188 -1.03287 1.25581 0
M  V30 2732 O 254.372 -1.07722 1.54688 0
M  V30 2733 C 251.499 -1.60385 2.98319 0
M  V30 2734 C 250.545 -1.12648 4.11355 0
M  V30 2735 S 251.378 -0.076543 5.35445 0
M  V30 2736 C 252.534 -1.25141 6.13262 0
M  V30 2737 H 252.767 0.180367 2.96752 0
M  V30 2738 H 250.3 0.211946 1.52938 0
M  V30 2739 H 252.258 -2.27462 3.41718 0
M  V30 2740 H 250.919 -2.18948 2.25213 0
M  V30 2741 H 250.112 -2.0011 4.62571 0
M  V30 2742 H 249.714 -0.534088 3.70167 0
M  V30 2743 H 252.006 -2.17162 6.41753 0
M  V30 2744 H 252.949 -0.779411 7.03797 0
M  V30 2745 H 253.357 -1.48553 5.44603 0
M  V30 2746 N 252.755 -1.56801 0.158532 0
M  V30 2747 C 253.702 -2.17337 -0.776729 0
M  V30 2748 C 254.672 -1.1096 -1.23601 0
M  V30 2749 O 255.857 -1.39054 -1.30647 0
M  V30 2750 C 252.997 -2.80822 -2.00582 0
M  V30 2751 C 252.11 -4.01624 -1.59129 0
M  V30 2752 C 251.245 -4.53072 -2.77306 0
M  V30 2753 C 250.284 -5.66314 -2.32282 0
M  V30 2754 N 249.421 -6.12329 -3.43508 0
M  V30 2755 H 254.261 -2.96918 -0.253701 0
M  V30 2756 H 251.798 -1.46661 -0.113504 0
M  V30 2757 H 253.756 -3.15779 -2.72652 0
M  V30 2758 H 252.386 -2.03866 -2.50277 0
M  V30 2759 H 251.438 -3.72571 -0.767806 0
M  V30 2760 H 252.75 -4.83633 -1.2207 0
M  V30 2761 H 251.904 -4.90145 -3.57551 0
M  V30 2762 H 250.643 -3.70095 -3.17617 0
M  V30 2763 H 249.648 -5.28806 -1.5048 0
M  V30 2764 H 250.873 -6.51085 -1.93043 0
M  V30 2765 H 248.819 -5.32284 -3.83418 0
M  V30 2766 H 248.736 -6.89293 -3.105 0
M  V30 2767 H 250.004 -6.5405 -4.24075 0
M  V30 2768 N 254.233 0.115231 -1.57178 0
M  V30 2769 C 255.473 0.828199 -1.8687 0
M  V30 2770 C 255.837 1.76873 -0.747002 0
M  V30 2771 O 257.038 2.52354 -0.925785 0
M  V30 2772 C 255.309 1.55515 -3.21792 0
M  V30 2773 S 256.868 2.30917 -3.73125 0
M  V30 2774 H 253.686 0.27634 -0.655101 0
M  V30 2775 H 256.288 0.0863469 -1.95309 0
M  V30 2776 H 254.992 0.856248 -4.01368 0
M  V30 2777 H 254.523 2.3373 -3.16439 0
M  V30 2778 H 256.538 3.56705 -3.44929 0
M  V30 2779 N 255.711 1.52812 0.385517 0
M  V30 2780 C 256.939 1.71907 1.15133 0
M  V30 2781 C 257.354 0.439004 1.83625 0
M  V30 2782 O 256.711 -0.586765 1.7281 0
M  V30 2783 C 256.762 2.87099 2.19673 0
M  V30 2784 O 256.483 4.10151 1.53973 0
M  V30 2785 C 257.984 3.17902 3.08955 0
M  V30 2786 H 255.204 0.575479 0.345057 0
M  V30 2787 H 257.748 1.99476 0.45052 0
M  V30 2788 H 255.903 2.61982 2.85384 0
M  V30 2789 H 256.317 4.74514 2.23465 0
M  V30 2790 H 257.791 4.01959 3.7833 0
M  V30 2791 H 258.268 2.3243 3.72657 0
M  V30 2792 H 258.874 3.44871 2.48885 0
M  V30 2793 N 257.189 -0.644168 1.43834 0
M  V30 2794 C 258.119 -1.76814 1.52509 0
M  V30 2795 C 259.1 -1.65823 0.379052 0
M  V30 2796 O 260.285 -1.84781 0.597466 0
M  V30 2797 C 257.415 -3.15288 1.4564 0
M  V30 2798 C 256.369 -3.41053 2.58586 0
M  V30 2799 C 255.695 -4.79421 2.36769 0
M  V30 2800 C 256.995 -3.34902 4.00797 0
M  V30 2801 H 258.689 -1.69812 2.46586 0
M  V30 2802 H 256.235 -0.815542 1.1868 0
M  V30 2803 H 258.188 -3.93681 1.50311 0
M  V30 2804 H 256.912 -3.23043 0.480725 0
M  V30 2805 H 255.571 -2.65035 2.53282 0
M  V30 2806 H 255.219 -4.83863 1.37424 0
M  V30 2807 H 254.919 -4.9762 3.12487 0
M  V30 2808 H 256.443 -5.6006 2.43238 0
M  V30 2809 H 257.857 -4.03218 4.07539 0
M  V30 2810 H 256.254 -3.64637 4.76613 0
M  V30 2811 H 257.324 -2.32928 4.25291 0
M  V30 2812 N 258.668 -1.30515 -0.883378 0
M  V30 2813 C 259.896 -1.22359 -1.66841 0
M  V30 2814 C 260.311 0.213296 -1.87591 0
M  V30 2815 O 259.668 1.14075 -1.42454 0
M  V30 2816 C 259.719 -1.95011 -3.04389 0
M  V30 2817 O 259.44 -3.3309 -2.84575 0
M  V30 2818 C 260.941 -1.93532 -3.98824 0
M  V30 2819 H 258.161 -0.423371 -0.520575 0
M  V30 2820 H 260.705 -1.72167 -1.10357 0
M  V30 2821 H 258.86 -1.48997 -3.57601 0
M  V30 2822 H 259.274 -3.69907 -3.71846 0
M  V30 2823 H 260.748 -2.48902 -4.92699 0
M  V30 2824 H 261.225 -0.914627 -4.29571 0
M  V30 2825 H 261.831 -2.39364 -3.51547 0
M  V30 2826 N 260.146 1.09593 -1.13257 0
M  V30 2827 C 261.371 1.8604 -0.916732 0
M  V30 2828 C 261.796 1.80504 0.529146 0
M  V30 2829 O 261.154 1.18127 1.37534 0
M  V30 2830 C 261.202 3.32017 -1.40703 0
M  V30 2831 O 260.306 4.08141 -0.591153 0
M  V30 2832 H 259.647 0.576943 -0.328683 0
M  V30 2833 H 262.177 1.38405 -1.50682 0
M  V30 2834 H 262.187 3.82865 -1.4099 0
M  V30 2835 H 260.862 3.35361 -2.45979 0
M  V30 2836 H 259.439 3.67084 -0.656005 0
M  V30 2837 N 261.624 0.925811 1.2754 0
M  V30 2838 C 263.04 0.625767 1.46821 0
M  V30 2839 C 263.24 -0.825506 1.83814 0
M  V30 2840 O 262.296 -1.60356 1.95044 0
M  V30 2841 C 263.609 1.57402 2.56213 0
M  V30 2842 C 265.157 1.58204 2.70075 0
M  V30 2843 C 265.632 2.51721 3.82623 0
M  V30 2844 N 267.123 2.49917 3.89994 0
M  V30 2845 C 267.858 3.18968 4.76494 0
M  V30 2846 N 267.354 3.97391 5.67496 0
M  V30 2847 N 269.147 3.07996 4.70208 0
M  V30 2848 H 261.298 1.86409 1.01811 0
M  V30 2849 H 263.561 0.800213 0.508295 0
M  V30 2850 H 263.267 2.60925 2.35819 0
M  V30 2851 H 263.141 1.31428 3.53563 0
M  V30 2852 H 265.528 0.554124 2.89851 0
M  V30 2853 H 265.609 1.88226 1.73218 0
M  V30 2854 H 265.253 3.54622 3.63601 0
M  V30 2855 H 265.183 2.18996 4.78903 0
M  V30 2856 H 267.674 1.9296 3.24923 0
M  V30 2857 H 267.987 4.4707 6.30356 0
M  V30 2858 H 266.332 4.01495 5.67298 0
M  V30 2859 H 269.523 2.46223 3.9811 0
M  V30 2860 H 269.696 3.6208 5.37403 0
M  V30 2861 N 263.102 -1.41638 0.69111 0
M  V30 2862 C 264.35 -2.00902 0.219758 0
M  V30 2863 C 264.671 -1.54994 -1.18329 0
M  V30 2864 O 263.941 -0.778628 -1.79762 0
M  V30 2865 H 262.521 -0.74289 0.0782558 0
M  V30 2866 H 265.183 -1.73327 0.891271 0
M  V30 2867 H 264.279 -3.11224 0.233708 0
M  V30 2868 N 264.58 -0.43555 -1.51462 0
M  V30 2869 C 265.996 -0.0877501 -1.59359 0
M  V30 2870 C 266.196 1.4027 -1.4466 0
M  V30 2871 O 265.252 2.17243 -1.28693 0
M  V30 2872 C 266.565 -0.606264 -2.94525 0
M  V30 2873 C 268.113 -0.566548 -3.0783 0
M  V30 2874 C 268.588 -1.06201 -4.45517 0
M  V30 2875 N 270.079 -1.01992 -4.51832 0
M  V30 2876 C 270.814 -1.37417 -5.5669 0
M  V30 2877 N 270.31 -1.80119 -6.68976 0
M  V30 2878 N 272.103 -1.29245 -5.47039 0
M  V30 2879 H 264.254 -1.40533 -1.59261 0
M  V30 2880 H 266.517 -0.578992 -0.750648 0
M  V30 2881 H 266.223 -1.64901 -3.10645 0
M  V30 2882 H 266.097 -0.0302097 -3.77188 0
M  V30 2883 H 268.484 0.467208 -2.91378 0
M  V30 2884 H 268.565 -1.17898 -2.2701 0
M  V30 2885 H 268.209 -2.09422 -4.62715 0
M  V30 2886 H 268.139 -0.426127 -5.24873 0
M  V30 2887 H 270.63 -0.706308 -3.71241 0
M  V30 2888 H 270.943 -2.05392 -7.45006 0
M  V30 2889 H 269.288 -1.84044 -6.70189 0
M  V30 2890 H 272.479 -0.957522 -4.58202 0
M  V30 2891 H 272.652 -1.57182 -6.28648 0
M  V30 2892 N 266.058 1.56714 -0.166846 0
M  V30 2893 C 267.286 2.0112 0.485644 0
M  V30 2894 C 267.701 1.04705 1.57106 0
M  V30 2895 O 267.058 0.0471923 1.82439 0
M  V30 2896 C 267.109 3.45361 1.06808 0
M  V30 2897 O 266.83 4.38092 0.0259995 0
M  V30 2898 C 268.331 4.05145 1.79924 0
M  V30 2899 H 265.551 0.65931 0.124704 0
M  V30 2900 H 268.095 2.02746 -0.267262 0
M  V30 2901 H 266.25 3.44524 1.7715 0
M  V30 2902 H 266.664 5.22519 0.455398 0
M  V30 2903 H 268.138 5.08009 2.15942 0
M  V30 2904 H 268.615 3.46982 2.69258 0
M  V30 2905 H 269.221 4.09672 1.14234 0
M  V30 2906 N 267.536 -0.106894 1.57237 0
M  V30 2907 C 268.469 -1.16125 1.96444 0
M  V30 2908 C 269.447 -1.3947 0.835871 0
M  V30 2909 O 270.631 -1.53425 1.09513 0
M  V30 2910 C 267.758 -2.51277 2.27107 0
M  V30 2911 C 266.804 -2.44285 3.4961 0
M  V30 2912 S 267.637 -1.87077 5.01759 0
M  V30 2913 C 268.793 -3.23877 5.35588 0
M  V30 2914 H 269.026 -0.826971 2.85567 0
M  V30 2915 H 266.559 -0.314124 1.51171 0
M  V30 2916 H 268.517 -3.29035 2.45451 0
M  V30 2917 H 267.178 -2.81879 1.38576 0
M  V30 2918 H 266.371 -3.4387 3.68469 0
M  V30 2919 H 265.973 -1.74652 3.30715 0
M  V30 2920 H 268.265 -4.20122 5.31511 0
M  V30 2921 H 269.208 -3.09833 6.36717 0
M  V30 2922 H 269.616 -3.22864 4.63054 0
M  V30 2923 N 269.014 -1.53014 -0.377408 0
M  V30 2924 C 269.962 -1.7927 -1.48206 0
M  V30 2925 C 270.956 -0.661195 -1.55963 0
M  V30 2926 O 272.162 -0.843908 -1.58991 0
M  V30 2927 H 268.537 -0.567425 -0.493491 0
M  V30 2928 H 270.508 -2.71753 -1.2326 0
M  V30 2929 C 269.257 -1.98894 -2.85196 0
M  V30 2930 H 268.58 -2.85395 -2.79981 0
M  V30 2931 H 270.02 -2.21249 -3.61698 0
M  V30 2932 C 268.479 -0.764691 -3.28107 0
M  V30 2933 O 269.009 0.0523226 -4.01666 0
M  V30 2934 N 267.215 -0.591493 -2.84517 0
M  V30 2935 H 266.762 -1.25749 -2.24822 0
M  V30 2936 H 266.72 0.226253 -3.13585 0
M  V30 2937 N 270.492 0.636531 -1.44174 0
M  V30 2938 C 271.741 1.39213 -1.45954 0
M  V30 2939 C 272.054 1.95374 -0.0939119 0
M  V30 2940 O 273.26 2.71498 0.0107767 0
M  V30 2941 C 271.716 2.52025 -2.56927 0
M  V30 2942 C 271.324 2.024 -3.99673 0
M  V30 2943 C 273.068 3.29269 -2.67922 0
M  V30 2944 C 270.975 3.12521 -5.0208 0
M  V30 2945 H 269.905 0.523132 -0.542999 0
M  V30 2946 H 272.556 0.685349 -1.70221 0
M  V30 2947 H 270.938 3.25253 -2.25891 0
M  V30 2948 H 272.112 1.36073 -4.40251 0
M  V30 2949 H 270.427 1.37987 -3.92872 0
M  V30 2950 H 273.024 4.11352 -3.41605 0
M  V30 2951 H 273.367 3.78397 -1.73555 0
M  V30 2952 H 273.9 2.63129 -2.98342 0
M  V30 2953 H 270.639 2.68343 -5.98057 0
M  V30 2954 H 270.159 3.77507 -4.66099 0
M  V30 2955 H 271.838 3.77385 -5.25538 0
M  V30 2956 N 271.97 1.30982 0.876444 0
M  V30 2957 C 272.917 1.18085 1.98304 0
M  V30 2958 C 273.887 0.0682263 1.6596 0
M  V30 2959 O 275.072 0.239937 1.89285 0
M  V30 2960 C 272.212 0.887475 3.33493 0
M  V30 2961 C 271.325 2.08281 3.78475 0
M  V30 2962 C 270.46 1.72678 5.0235 0
M  V30 2963 C 269.499 2.88657 5.39762 0
M  V30 2964 N 268.636 2.53292 6.54819 0
M  V30 2965 H 273.476 2.1275 2.08666 0
M  V30 2966 H 271.013 1.05839 1.02159 0
M  V30 2967 H 272.971 0.697961 4.1132 0
M  V30 2968 H 271.601 -0.022315 3.22792 0
M  V30 2969 H 270.653 2.3833 2.96484 0
M  V30 2970 H 271.965 2.95108 4.02135 0
M  V30 2971 H 271.119 1.50151 5.87826 0
M  V30 2972 H 269.858 0.830327 4.8058 0
M  V30 2973 H 268.863 3.1184 4.52809 0
M  V30 2974 H 270.088 3.79002 5.63502 0
M  V30 2975 H 268.034 1.66163 6.34607 0
M  V30 2976 H 267.951 3.3365 6.7839 0
M  V30 2977 H 269.219 2.34143 7.43503 0
M  V30 2978 N 273.449 -1.08991 1.13837 0
M  V30 2979 C 274.674 -1.85551 0.926585 0
M  V30 2980 C 275.099 -1.80782 -0.519566 0
M  V30 2981 O 274.457 -1.18855 -1.36906 0
M  V30 2982 C 274.505 -3.31266 1.42462 0
M  V30 2983 O 273.609 -4.07822 0.612789 0
M  V30 2984 H 272.95 -0.575192 0.331738 0
M  V30 2985 H 275.48 -1.37604 1.51414 0
M  V30 2986 H 275.49 -3.82112 1.43019 0
M  V30 2987 H 274.165 -3.34052 2.47754 0
M  V30 2988 H 272.742 -3.66731 0.675463 0
M  V30 2989 N 274.927 -0.932562 -1.27047 0
M  V30 2990 C 275.89 -0.440064 -2.24936 0
M  V30 2991 C 276.89 0.444071 -1.54547 0
M  V30 2992 O 278.08 0.244465 -1.72476 0
M  V30 2993 C 275.212 0.36678 -3.38921 0
M  V30 2994 H 276.405 -1.305 -2.70018 0
M  V30 2995 H 273.958 -0.713707 -1.39054 0
M  V30 2996 H 274.693 1.25033 -2.99228 0
M  V30 2997 H 274.478 -0.267204 -3.91188 0
M  V30 2998 H 275.968 0.701567 -4.11665 0
M  V30 2999 N 276.405 1.4127 -0.698611 0
M  V30 3000 C 277.633 2.05503 -0.239992 0
M  V30 3001 C 278.048 1.52584 1.11191 0
M  V30 3002 O 277.405 0.675323 1.69545 0
M  V30 3003 C 277.456 3.60987 -0.192429 0
M  V30 3004 O 277.177 4.1195 -1.49094 0
M  V30 3005 C 278.678 4.42371 0.28681 0
M  V30 3006 H 275.898 0.661748 -0.111045 0
M  V30 3007 H 278.442 1.80987 -0.95205 0
M  V30 3008 H 276.597 3.84533 0.470472 0
M  V30 3009 H 277.011 5.06018 -1.38007 0
M  V30 3010 H 278.485 5.51344 0.26896 0
M  V30 3011 H 278.962 4.18699 1.32619 0
M  V30 3012 H 279.568 4.23897 -0.345201 0
M  V30 3013 N 277.883 0.443576 1.51229 0
M  V30 3014 C 279.129 -0.11321 2.03085 0
M  V30 3015 C 279.484 -1.39841 1.32145 0
M  V30 3016 O 278.777 -1.86723 0.429542 0
M  V30 3017 C 278.971 -0.380579 3.55368 0
M  V30 3018 C 278.8 0.877157 4.41062 0
M  V30 3019 C 277.57 1.4125 4.85156 0
M  V30 3020 C 279.768 1.76503 4.83064 0
M  V30 3021 N 277.75 2.62213 5.55083 0
M  V30 3022 C 279.121 2.82067 5.52122 0
M  V30 3023 C 281.176 1.7787 4.65045 0
M  V30 3024 C 279.879 3.88952 6.05069 0
M  V30 3025 C 281.905 2.83694 5.18914 0
M  V30 3026 C 281.267 3.87978 5.87922 0
M  V30 3027 H 277.366 -0.00210178 0.781997 0
M  V30 3028 H 279.95 0.605641 1.85041 0
M  V30 3029 H 278.121 -1.06847 3.73414 0
M  V30 3030 H 279.853 -0.929274 3.93887 0
M  V30 3031 H 276.608 0.965542 4.63653 0
M  V30 3032 H 277.032 3.23568 5.9467 0
M  V30 3033 H 281.674 0.985744 4.11148 0
M  V30 3034 H 279.392 4.69082 6.58018 0
M  V30 3035 H 282.978 2.85702 5.06819 0
M  V30 3036 H 281.858 4.68517 6.28857 0
M  V30 3037 N 279.361 -1.56624 0.175154 0
M  V30 3038 C 280.308 -2.18149 -0.753634 0
M  V30 3039 C 281.278 -1.12265 -1.22417 0
M  V30 3040 O 282.463 -1.40432 -1.29165 0
M  V30 3041 C 279.603 -2.82933 -1.97592 0
M  V30 3042 C 278.716 -4.03289 -1.5486 0
M  V30 3043 C 277.851 -4.55988 -2.72485 0
M  V30 3044 C 276.89 -5.68746 -2.26262 0
M  V30 3045 N 276.027 -6.15938 -3.36994 0
M  V30 3046 H 280.867 -2.9717 -0.222195 0
M  V30 3047 H 278.404 -1.46774 -0.0979422 0
M  V30 3048 H 280.362 -3.18653 -2.69288 0
M  V30 3049 H 278.992 -2.06509 -2.481 0
M  V30 3050 H 278.044 -3.73364 -0.728246 0
M  V30 3051 H 279.356 -4.849 -1.16933 0
M  V30 3052 H 278.51 -4.9391 -3.52332 0
M  V30 3053 H 277.249 -3.73443 -3.13674 0
M  V30 3054 H 276.254 -5.30372 -1.44863 0
M  V30 3055 H 277.479 -6.53095 -1.86127 0
M  V30 3056 H 275.425 -5.36321 -3.77751 0
M  V30 3057 H 275.342 -6.92548 -3.03172 0
M  V30 3058 H 276.61 -6.58511 -4.17114 0
M  V30 3059 N 280.839 0.0985539 -1.57292 0
M  V30 3060 C 282.085 0.803867 -1.86188 0
M  V30 3061 C 282.418 1.78549 -0.763794 0
M  V30 3062 O 281.693 1.93153 0.22855 0
M  V30 3063 C 281.976 1.53568 -3.25713 0
M  V30 3064 C 281.829 0.572277 -4.46145 0
M  V30 3065 C 283.148 2.48708 -3.63087 0
M  V30 3066 H 280.267 0.290781 -0.677211 0
M  V30 3067 H 282.909 0.0675783 -1.8988 0
M  V30 3068 H 281.059 2.16332 -3.22696 0
M  V30 3069 H 282.731 -0.0480894 -4.61275 0
M  V30 3070 H 280.974 -0.114618 -4.33649 0
M  V30 3071 H 281.645 1.12139 -5.40489 0
M  V30 3072 H 284.121 1.96039 -3.67026 0
M  V30 3073 H 282.997 2.96932 -4.61652 0
M  V30 3074 H 283.258 3.32309 -2.91588 0
M  V30 3075 N 282.317 1.53212 0.369288 0
M  V30 3076 C 283.247 1.82365 1.45826 0
M  V30 3077 C 284.228 0.676907 1.56051 0
M  V30 3078 O 285.413 0.926401 1.70679 0
M  V30 3079 C 282.543 2.01023 2.83208 0
M  V30 3080 C 281.497 3.1678 2.8781 0
M  V30 3081 C 280.823 3.20724 4.27832 0
M  V30 3082 C 282.123 4.55447 2.55667 0
M  V30 3083 H 283.817 2.73559 1.21678 0
M  V30 3084 H 281.363 1.3163 0.583911 0
M  V30 3085 H 283.316 2.20001 3.59413 0
M  V30 3086 H 282.04 1.06536 3.08736 0
M  V30 3087 H 280.699 2.97616 2.14056 0
M  V30 3088 H 280.347 2.23882 4.50429 0
M  V30 3089 H 280.047 3.98496 4.31827 0
M  V30 3090 H 281.571 3.41881 5.05915 0
M  V30 3091 H 282.985 4.74611 3.21586 0
M  V30 3092 H 281.382 5.35432 2.70984 0
M  V30 3093 H 282.452 4.60812 1.5093 0
M  V30 3094 N 283.795 -0.628877 1.44509 0
M  V30 3095 C 284.745 -1.7345 1.47983 0
M  V30 3096 C 285.729 -1.5715 0.345373 0
M  V30 3097 O 286.921 -1.66848 0.590829 0
M  V30 3098 C 284.05 -3.12143 1.42904 0
M  V30 3099 C 283.136 -3.33906 2.61472 0
M  V30 3100 N 283.527 -3.26024 3.86706 0
M  V30 3101 C 281.825 -3.64709 2.56716 0
M  V30 3102 C 282.526 -3.48536 4.65722 0
M  V30 3103 N 281.502 -3.71517 3.96832 0
M  V30 3104 H 285.304 -1.65818 2.42655 0
M  V30 3105 H 282.818 -0.831419 1.39503 0
M  V30 3106 H 284.815 -3.91433 1.43476 0
M  V30 3107 H 283.475 -3.2094 0.492717 0
M  V30 3108 H 284.486 -3.04893 4.18641 0
M  V30 3109 H 281.163 -3.80473 1.71891 0
M  V30 3110 H 282.553 -3.48016 5.74747 0
M  V30 3111 N 285.273 -1.31445 -0.869486 0
M  V30 3112 C 286.513 -1.22458 -1.63656 0
M  V30 3113 C 286.877 0.213846 -1.90805 0
M  V30 3114 O 288.078 0.427212 -2.65383 0
M  V30 3115 C 286.349 -2.04564 -2.93067 0
M  V30 3116 S 287.908 -2.12445 -3.83944 0
M  V30 3117 H 284.726 -0.436145 -0.561514 0
M  V30 3118 H 287.328 -1.66114 -1.03085 0
M  V30 3119 H 286.032 -3.0816 -2.71045 0
M  V30 3120 H 285.563 -1.6163 -3.58663 0
M  V30 3121 H 287.578 -1.26312 -4.79854 0
M  V30 3122 N 286.751 1.08385 -1.14413 0
M  V30 3123 C 287.979 1.84517 -0.936001 0
M  V30 3124 C 288.394 1.81626 0.515503 0
M  V30 3125 O 287.751 1.22008 1.35721 0
M  V30 3126 C 287.802 3.32049 -1.42918 0
M  V30 3127 O 287.523 3.34951 -2.82381 0
M  V30 3128 C 289.024 4.24986 -1.26103 0
M  V30 3129 H 286.244 0.582491 -0.333084 0
M  V30 3130 H 288.788 1.36885 -1.5193 0
M  V30 3131 H 286.943 3.7707 -0.888641 0
M  V30 3132 H 287.357 4.27048 -3.04517 0
M  V30 3133 H 288.831 5.26615 -1.6547 0
M  V30 3134 H 289.308 4.38726 -0.20392 0
M  V30 3135 H 289.914 3.85791 -1.79012 0
M  V30 3136 N 288.23 0.939286 1.26551 0
M  V30 3137 C 289.478 0.58469 1.93457 0
M  V30 3138 C 289.799 -0.878774 1.74076 0
M  V30 3139 O 289.069 -1.62421 1.09528 0
M  V30 3140 H 287.649 0.21325 0.715914 0
M  V30 3141 H 290.311 1.1942 1.54029 0
M  V30 3142 H 289.407 0.800849 3.0165 0
M  V30 3143 N 289.708 -1.40897 0.706093 0
M  V30 3144 C 290.658 -2.27987 0.0240746 0
M  V30 3145 C 291.642 -1.42759 -0.742204 0
M  V30 3146 O 292.834 -1.65936 -0.615966 0
M  V30 3147 C 289.963 -3.31186 -0.903907 0
M  V30 3148 C 289.049 -4.2389 -0.133318 0
M  V30 3149 N 289.44 -4.98113 0.878444 0
M  V30 3150 C 287.738 -4.44485 -0.367269 0
M  V30 3151 C 288.439 -5.6604 1.34064 0
M  V30 3152 N 287.415 -5.39522 0.664565 0
M  V30 3153 H 291.217 -2.82812 0.799658 0
M  V30 3154 H 288.731 -1.53235 0.537845 0
M  V30 3155 H 290.728 -3.92413 -1.40775 0
M  V30 3156 H 289.388 -2.77922 -1.67897 0
M  V30 3157 H 290.399 -5.02364 1.25901 0
M  V30 3158 H 287.076 -4.02213 -1.1194 0
M  V30 3159 H 288.466 -6.35524 2.1808 0
M  V30 3160 N 291.186 -0.45159 -1.50991 0
M  V30 3161 C 292.435 0.111653 -2.01391 0
M  V30 3162 C 292.748 1.42529 -1.33959 0
M  V30 3163 O 293.954 2.07232 -1.75405 0
M  V30 3164 C 292.41 0.249514 -3.59034 0
M  V30 3165 C 292.018 -1.05453 -4.35412 0
M  V30 3166 C 293.762 0.765762 -4.17536 0
M  V30 3167 C 291.669 -0.881529 -5.84793 0
M  V30 3168 H 290.599 0.0455022 -0.752626 0
M  V30 3169 H 293.25 -0.583524 -1.73975 0
M  V30 3170 H 291.632 1.00803 -3.82955 0
M  V30 3171 H 292.806 -1.82248 -4.23229 0
M  V30 3172 H 291.121 -1.50039 -3.88429 0
M  V30 3173 H 293.718 0.911913 -5.26866 0
M  V30 3174 H 294.061 1.75201 -3.77638 0
M  V30 3175 H 294.594 0.0651744 -3.97747 0
M  V30 3176 H 291.333 -1.84057 -6.29129 0
M  V30 3177 H 290.853 -0.153625 -5.99603 0
M  V30 3178 H 292.532 -0.540363 -6.4474 0
M  V30 3179 N 292.664 1.56529 -0.183458 0
M  V30 3180 C 293.614 2.1515 0.754605 0
M  V30 3181 C 294.598 1.08904 1.18443 0
M  V30 3182 O 295.79 1.34997 1.14476 0
M  V30 3183 C 292.919 2.80531 1.97881 0
M  V30 3184 C 292.005 3.93952 1.57043 0
M  V30 3185 N 292.396 4.98221 0.87231 0
M  V30 3186 C 290.694 4.05338 1.86057 0
M  V30 3187 C 291.395 5.77836 0.669377 0
M  V30 3188 N 290.371 5.29858 1.21454 0
M  V30 3189 H 294.173 2.93132 0.212387 0
M  V30 3190 H 291.687 1.62391 0.0167725 0
M  V30 3191 H 293.684 3.20914 2.6612 0
M  V30 3192 H 292.344 2.04035 2.52586 0
M  V30 3193 H 293.355 5.15191 0.529033 0
M  V30 3194 H 290.032 3.39957 2.42354 0
M  V30 3195 H 291.422 6.71799 0.116422 0
M  V30 3196 N 294.142 -0.090211 1.57342 0
M  V30 3197 C 295.388 -0.793982 1.86611 0
M  V30 3198 C 295.721 -1.78142 0.773252 0
M  V30 3199 O 294.996 -1.93271 -0.218304 0
M  V30 3200 C 295.279 -1.51839 3.26523 0
M  V30 3201 C 295.132 -0.548609 4.46442 0
M  V30 3202 C 296.451 -2.46779 3.64401 0
M  V30 3203 H 293.57 -0.287186 0.678744 0
M  V30 3204 H 296.212 -0.0575076 1.89913 0
M  V30 3205 H 294.362 -2.14617 3.23839 0
M  V30 3206 H 296.034 0.0725513 4.61243 0
M  V30 3207 H 294.277 0.137614 4.33582 0
M  V30 3208 H 294.948 -1.09271 5.41076 0
M  V30 3209 H 297.424 -1.94089 3.68061 0
M  V30 3210 H 296.3 -2.94479 4.63221 0
M  V30 3211 H 296.561 -3.30758 2.93346 0
M  V30 3212 N 295.62 -1.53406 -0.361157 0
M  V30 3213 C 296.85 -1.73465 -1.1222 0
M  V30 3214 C 297.258 -0.465486 -1.83384 0
M  V30 3215 O 296.601 0.571611 -1.7458 0
M  V30 3216 C 296.663 -2.84834 -2.19339 0
M  V30 3217 C 296.327 -4.25038 -1.67903 0
M  V30 3218 C 297.324 -5.07231 -1.14074 0
M  V30 3219 C 295.009 -4.71464 -1.73282 0
M  V30 3220 C 297.003 -6.33942 -0.663068 0
M  V30 3221 C 294.69 -5.98153 -1.25127 0
M  V30 3222 C 295.688 -6.79223 -0.717296 0
M  V30 3223 O 295.376 -8.03533 -0.242865 0
M  V30 3224 H 295.108 -0.583526 -0.341283 0
M  V30 3225 H 297.662 -2.00964 -0.424591 0
M  V30 3226 H 295.892 -2.5282 -2.92607 0
M  V30 3227 H 297.581 -2.9303 -2.80871 0
M  V30 3228 H 298.347 -4.72534 -1.09254 0
M  V30 3229 H 294.226 -4.08432 -2.13786 0
M  V30 3230 H 297.77 -6.97167 -0.245612 0
M  V30 3231 H 293.667 -6.32347 -1.29642 0
M  V30 3232 H 294.435 -8.177 -0.361786 0
M  V30 3233 N 297.098 0.621204 -1.44841 0
M  V30 3234 C 298.375 1.38 -1.38619 0
M  V30 3235 C 298.755 2.11041 -0.0498935 0
M  V30 3236 O 298.103 2.06992 0.967816 0
M  V30 3237 C 298.313 2.33817 -2.59096 0
M  V30 3238 C 299.661 2.96844 -3.03593 0
M  V30 3239 O 300.685 2.44141 -2.59371 0
M  V30 3240 O 299.544 3.92476 -3.80296 0
M  V30 3241 H 296.638 0.61811 -0.549426 0
M  V30 3242 H 299.184 0.645429 -1.56947 0
M  V30 3243 H 297.956 1.79012 -3.47952 0
M  V30 3244 H 297.579 3.14676 -2.43032 0
M  V30 3245 N 298.576 1.31904 0.862503 0
M  V30 3246 C 299.804 1.24998 1.64873 0
M  V30 3247 C 300.219 -0.183425 1.87907 0
M  V30 3248 O 299.576 -1.11794 1.44251 0
M  V30 3249 C 299.627 1.99829 3.01248 0
M  V30 3250 O 299.348 3.37575 2.79239 0
M  V30 3251 C 300.849 1.99852 3.95694 0
M  V30 3252 H 298.069 0.431599 0.513773 0
M  V30 3253 H 300.613 1.73901 1.07604 0
M  V30 3254 H 298.768 1.54668 3.55185 0
M  V30 3255 H 299.182 3.75776 3.65914 0
M  V30 3256 H 300.656 2.56709 4.88676 0
M  V30 3257 H 301.133 0.982852 4.28062 0
M  V30 3258 H 301.739 2.44926 3.47694 0
M  V30 3259 N 300.054 -1.07777 1.14986 0
M  V30 3260 C 301.002 -2.16964 0.838406 0
M  V30 3261 C 301.996 -1.68372 -0.186386 0
M  V30 3262 O 303.202 -1.79951 -0.0418465 0
M  V30 3263 H 299.577 -0.708006 0.253439 0
M  V30 3264 H 301.548 -2.40454 1.76704 0
M  V30 3265 C 300.297 -3.4604 0.339335 0
M  V30 3266 H 299.62 -3.83813 1.11927 0
M  V30 3267 H 301.06 -4.23698 0.160021 0
M  V30 3268 C 299.519 -3.23569 -0.938325 0
M  V30 3269 O 300.049 -3.47752 -2.01077 0
M  V30 3270 N 298.255 -2.77079 -0.876117 0
M  V30 3271 H 297.802 -2.576 -0.00322037 0
M  V30 3272 H 297.76 -2.62422 -1.73153 0
M  V30 3273 N 301.532 -0.945985 -1.26051 0
M  V30 3274 C 302.757 -0.612525 -1.98149 0
M  V30 3275 C 303.182 0.806623 -1.69927 0
M  V30 3276 O 302.54 1.54411 -0.950108 0
M  V30 3277 C 302.588 -0.866981 -3.50023 0
M  V30 3278 O 301.692 0.0585333 -4.12358 0
M  V30 3279 H 301.033 -0.23379 -0.621481 0
M  V30 3280 H 303.563 -1.27023 -1.60395 0
M  V30 3281 H 303.573 -0.789792 -4.00283 0
M  V30 3282 H 302.248 -1.90135 -3.69894 0
M  V30 3283 H 300.825 -0.0701241 -3.72834 0
M  V30 3284 N 303.011 1.40521 -0.713556 0
M  V30 3285 C 303.959 2.32549 -0.0485227 0
M  V30 3286 C 304.953 1.51931 0.74922 0
M  V30 3287 O 306.159 1.67745 0.652816 0
M  V30 3288 H 302.534 0.751994 0.00311138 0
M  V30 3289 H 304.505 2.86291 -0.841443 0
M  V30 3290 C 303.254 3.36879 0.860687 0
M  V30 3291 H 302.577 3.98978 0.256246 0
M  V30 3292 H 304.017 4.03772 1.294 0
M  V30 3293 C 302.476 2.72197 1.9852 0
M  V30 3294 O 303.006 2.5837 3.07584 0
M  V30 3295 N 301.212 2.30612 1.76823 0
M  V30 3296 H 300.759 2.42059 0.881217 0
M  V30 3297 H 300.717 1.87672 2.52243 0
M  V30 3298 N 304.489 0.459591 1.5075 0
M  V30 3299 C 305.421 -0.37665 2.26084 0
M  V30 3300 C 306.434 -0.967109 1.30961 0
M  V30 3301 O 307.623 -0.857468 1.56556 0
M  V30 3302 C 304.723 -1.54112 3.01832 0
M  V30 3303 C 303.896 -1.06553 4.24223 0
M  V30 3304 C 302.955 -2.1027 4.82362 0
M  V30 3305 O 301.981 -1.68798 5.43595 0
M  V30 3306 N 303.183 -3.42974 4.68347 0
M  V30 3307 H 305.948 0.269124 2.98489 0
M  V30 3308 H 303.509 0.28972 1.59287 0
M  V30 3309 H 305.501 -2.23165 3.37608 0
M  V30 3310 H 304.071 -2.0918 2.32298 0
M  V30 3311 H 303.291 -0.201274 3.93686 0
M  V30 3312 H 304.579 -0.725516 5.03601 0
M  V30 3313 H 303.977 -3.79385 4.19623 0
M  V30 3314 H 302.534 -4.07858 5.08424 0
M  V30 3315 N 305.967 -1.56429 0.191757 0
M  V30 3316 C 307.378 -1.83912 -0.321428 0
M  V30 3317 C 307.729 -1.11231 -1.61623 0
M  V30 3318 O 306.854 -0.37202 -2.13178 0
M  V30 3319 C 307.449 -3.33624 -0.589961 0
M  V30 3320 C 306.008 -3.6153 -1.04753 0
M  V30 3321 C 305.155 -2.7714 -0.0943327 0
M  V30 3322 H 308.106 -1.53161 0.415612 0
M  V30 3323 H 308.127 -3.52213 -1.43966 0
M  V30 3324 H 307.639 -3.86495 0.352588 0
M  V30 3325 H 305.74 -3.14089 -2.00447 0
M  V30 3326 H 305.853 -4.69737 -0.942549 0
M  V30 3327 H 304.217 -2.47638 -0.595589 0
M  V30 3328 H 305 -3.32799 0.842601 0
M  V30 3329 N 307.445 0.0818655 -1.57387 0
M  V30 3330 C 308.377 1.12484 -1.997 0
M  V30 3331 C 309.39 1.35564 -0.90146 0
M  V30 3332 O 310.579 1.33982 -1.17945 0
M  V30 3333 C 307.679 2.47778 -2.31213 0
M  V30 3334 C 306.852 2.44793 -3.62485 0
M  V30 3335 C 305.911 3.62117 -3.81782 0
M  V30 3336 O 304.937 3.44005 -4.53486 0
M  V30 3337 N 306.139 4.82094 -3.23367 0
M  V30 3338 H 308.904 0.764585 -2.89783 0
M  V30 3339 H 306.465 0.270664 -1.59621 0
M  V30 3340 H 308.457 3.24891 -2.41304 0
M  V30 3341 H 307.027 2.75843 -1.4707 0
M  V30 3342 H 306.247 1.53134 -3.6324 0
M  V30 3343 H 307.535 2.39889 -4.48699 0
M  V30 3344 H 306.933 4.99713 -2.65148 0
M  V30 3345 H 305.49 5.56753 -3.38923 0
M  V30 3346 N 308.923 1.53595 0.353017 0
M  V30 3347 C 310.163 1.72094 1.10286 0
M  V30 3348 C 310.527 0.469217 1.86178 0
M  V30 3349 O 311.728 0.531083 2.63501 0
M  V30 3350 C 309.999 2.94386 2.02661 0
M  V30 3351 S 311.558 3.33651 2.84996 0
M  V30 3352 H 308.376 0.605433 0.372789 0
M  V30 3353 H 310.978 1.91722 0.38248 0
M  V30 3354 H 309.682 3.83669 1.45691 0
M  V30 3355 H 309.213 2.77197 2.79152 0
M  V30 3356 H 311.228 2.86645 4.0503 0
M  V30 3357 N 310.401 -0.613514 1.45168 0
M  V30 3358 C 311.649 -1.36997 1.48581 0
M  V30 3359 C 311.97 -1.94589 0.126545 0
M  V30 3360 O 311.24 -1.76816 -0.843372 0
M  V30 3361 H 309.82 -0.508558 0.547154 0
M  V30 3362 H 312.482 -0.720853 1.81079 0
M  V30 3363 H 311.578 -2.1924 2.22127 0
M  V30 3364 N 311.879 -1.3236 -0.855495 0
M  V30 3365 C 313.109 -1.25688 -1.6397 0
M  V30 3366 C 313.517 0.177592 -1.88365 0
M  V30 3367 O 312.86 1.12485 -1.45234 0
M  V30 3368 C 312.922 -1.94602 -3.02275 0
M  V30 3369 C 312.586 -3.43937 -3.00926 0
M  V30 3370 C 313.583 -4.39435 -2.77835 0
M  V30 3371 C 311.268 -3.85858 -3.21588 0
M  V30 3372 C 313.262 -5.74829 -2.75409 0
M  V30 3373 C 310.949 -5.21361 -3.18789 0
M  V30 3374 C 311.947 -6.15658 -2.95727 0
M  V30 3375 O 311.635 -7.48681 -2.928 0
M  V30 3376 H 311.367 -0.434972 -0.51747 0
M  V30 3377 H 313.921 -1.75023 -1.075 0
M  V30 3378 H 312.151 -1.39836 -3.60531 0
M  V30 3379 H 313.84 -1.81651 -3.62985 0
M  V30 3380 H 314.606 -4.08374 -2.6164 0
M  V30 3381 H 310.485 -3.12883 -3.38564 0
M  V30 3382 H 314.029 -6.48404 -2.57328 0
M  V30 3383 H 309.926 -5.52052 -3.34528 0
M  V30 3384 H 310.694 -7.5803 -3.0876 0
M  V30 3385 N 313.357 1.07166 -1.15556 0
M  V30 3386 C 314.304 2.14417 -0.854055 0
M  V30 3387 C 315.274 1.64965 0.193806 0
M  V30 3388 O 316.459 1.90703 0.0609443 0
M  V30 3389 C 313.599 3.43304 -0.351574 0
M  V30 3390 C 312.712 4.06537 -1.46123 0
M  V30 3391 C 311.847 5.23266 -0.914677 0
M  V30 3392 C 310.886 5.78464 -2.00114 0
M  V30 3393 N 310.023 6.86521 -1.47083 0
M  V30 3394 H 314.863 2.39548 -1.77259 0
M  V30 3395 H 312.4 1.17543 -0.884425 0
M  V30 3396 H 314.358 4.17179 -0.0419409 0
M  V30 3397 H 312.988 3.18419 0.530037 0
M  V30 3398 H 312.04 3.30297 -1.88701 0
M  V30 3399 H 313.352 4.43567 -2.28144 0
M  V30 3400 H 312.506 6.04131 -0.557698 0
M  V30 3401 H 311.245 4.87658 -0.0636583 0
M  V30 3402 H 310.25 4.96243 -2.36692 0
M  V30 3403 H 311.475 6.16126 -2.85597 0
M  V30 3404 H 309.421 6.52849 -0.642198 0
M  V30 3405 H 309.338 7.22446 -2.22729 0
M  V30 3406 H 310.606 7.71087 -1.14215 0
M  V30 3407 N 314.835 0.952656 1.25548 0
M  V30 3408 C 315.782 0.47008 2.25962 0
M  V30 3409 C 316.752 -0.476384 1.59122 0
M  V30 3410 O 317.937 -0.39007 1.8677 0
M  V30 3411 C 315.077 -0.247881 3.44209 0
M  V30 3412 C 314.19 0.735591 4.25691 0
M  V30 3413 C 313.325 -0.0047306 5.312 0
M  V30 3414 C 312.364 0.969805 6.04368 0
M  V30 3415 N 311.501 0.260486 7.01617 0
M  V30 3416 H 316.341 1.33126 2.66611 0
M  V30 3417 H 313.878 0.66765 1.31076 0
M  V30 3418 H 315.836 -0.680695 4.1161 0
M  V30 3419 H 314.466 -1.07312 3.0444 0
M  V30 3420 H 313.518 1.28689 3.57971 0
M  V30 3421 H 314.83 1.47934 4.76358 0
M  V30 3422 H 313.984 -0.496275 6.04667 0
M  V30 3423 H 312.723 -0.781282 4.81401 0
M  V30 3424 H 311.728 1.47237 5.29718 0
M  V30 3425 H 312.953 1.74655 6.56256 0
M  V30 3426 H 310.899 -0.497364 6.54112 0
M  V30 3427 H 310.816 0.943362 7.50091 0
M  V30 3428 H 312.084 -0.209587 7.79218 0
M  V30 3429 N 316.313 -1.40141 0.720998 0
M  V30 3430 C 317.724 -1.83678 0.334553 0
M  V30 3431 C 318.075 -1.6027 -1.13173 0
M  V30 3432 O 317.2 -1.08643 -1.87152 0
M  V30 3433 C 317.795 -3.33437 0.600437 0
M  V30 3434 C 316.354 -3.75447 0.267642 0
M  V30 3435 C 315.501 -2.63296 0.870097 0
M  V30 3436 H 318.452 -1.29331 0.919732 0
M  V30 3437 H 318.473 -3.80269 -0.132517 0
M  V30 3438 H 317.985 -3.50442 1.66768 0
M  V30 3439 H 316.086 -3.64035 -0.794329 0
M  V30 3440 H 316.199 -4.73344 0.74042 0
M  V30 3441 H 314.563 -2.52954 0.297739 0
M  V30 3442 H 315.346 -2.83112 1.94172 0
M  V30 3443 N 317.792 -0.46758 -1.50504 0
M  V30 3444 C 319.203 -0.0116166 -1.86696 0
M  V30 3445 C 319.554 1.39202 -1.38265 0
M  V30 3446 O 318.679 2.0313 -0.746132 0
M  V30 3447 C 319.274 -0.0143044 -3.38797 0
M  V30 3448 C 317.833 0.386175 -3.74414 0
M  V30 3449 C 316.98 -0.401287 -2.74381 0
M  V30 3450 H 319.931 -0.682022 -1.43297 0
M  V30 3451 H 319.952 0.788641 -3.72237 0
M  V30 3452 H 319.464 -1.03602 -3.74016 0
M  V30 3453 H 317.565 1.41237 -3.44794 0
M  V30 3454 H 317.678 0.0899596 -4.79016 0
M  V30 3455 H 316.042 0.144536 -2.5429 0
M  V30 3456 H 316.825 -1.42244 -3.12444 0
M  V30 3457 N 319.27 1.56325 -0.20005 0
M  V30 3458 C 320.203 2.15234 0.758267 0
M  V30 3459 C 321.181 1.09046 1.20614 0
M  V30 3460 O 322.365 1.37186 1.29276 0
M  V30 3461 C 319.492 2.71524 2.02466 0
M  V30 3462 C 318.538 3.90345 1.71852 0
M  V30 3463 S 319.371 5.28513 0.862249 0
M  V30 3464 C 320.527 5.88227 2.13868 0
M  V30 3465 H 320.76 2.96183 0.2575 0
M  V30 3466 H 318.293 1.54393 0.0150099 0
M  V30 3467 H 320.251 3.04598 2.75191 0
M  V30 3468 H 318.912 1.90607 2.49655 0
M  V30 3469 H 318.105 4.28158 2.65888 0
M  V30 3470 H 317.707 3.58306 1.07205 0
M  V30 3471 H 319.999 6.02891 3.09076 0
M  V30 3472 H 320.942 6.84714 1.80479 0
M  V30 3473 H 321.35 5.16874 2.2694 0
M  V30 3474 N 320.748 -0.0735177 1.57428 0
M  V30 3475 C 321.976 -0.785969 1.9139 0
M  V30 3476 C 322.391 -1.71207 0.795847 0
M  V30 3477 O 321.748 -1.81033 -0.230915 0
M  V30 3478 C 321.799 -1.58107 3.25091 0
M  V30 3479 O 321.52 -0.6922 4.32597 0
M  V30 3480 C 323.021 -2.39467 3.73055 0
M  V30 3481 H 320.241 -0.223558 0.632663 0
M  V30 3482 H 322.785 -0.044302 2.04452 0
M  V30 3483 H 320.94 -2.27503 3.13562 0
M  V30 3484 H 321.354 -1.24504 5.09508 0
M  V30 3485 H 322.828 -2.90716 4.69242 0
M  V30 3486 H 323.305 -3.18913 3.01979 0
M  V30 3487 H 323.911 -1.7523 3.87523 0
M  V30 3488 N 322.226 -1.5378 -0.344866 0
M  V30 3489 C 323.466 -1.72677 -1.09371 0
M  V30 3490 C 323.83 -0.479084 -1.85927 0
M  V30 3491 O 325.031 -0.54505 -2.63216 0
M  V30 3492 C 323.302 -2.95457 -2.01097 0
M  V30 3493 S 324.861 -3.35158 -2.83222 0
M  V30 3494 H 321.679 -0.607402 -0.369573 0
M  V30 3495 H 324.281 -1.91922 -0.372307 0
M  V30 3496 H 322.985 -3.84437 -1.43655 0
M  V30 3497 H 322.516 -2.78673 -2.77678 0
M  V30 3498 H 324.531 -2.88789 -4.03504 0
M  V30 3499 N 323.704 0.605807 -1.45491 0
M  V30 3500 C 324.634 1.72709 -1.57143 0
M  V30 3501 C 325.615 1.6476 -0.422884 0
M  V30 3502 O 326.8 1.83132 -0.646247 0
M  V30 3503 C 323.93 3.11316 -1.53948 0
M  V30 3504 C 322.884 3.34077 -2.67537 0
M  V30 3505 C 322.21 4.72975 -2.49397 0
M  V30 3506 C 323.51 3.24158 -4.09535 0
M  V30 3507 H 325.204 1.63214 -2.51001 0
M  V30 3508 H 322.75 0.78379 -1.208 0
M  V30 3509 H 324.703 3.89557 -1.60696 0
M  V30 3510 H 323.427 3.21655 -0.566205 0
M  V30 3511 H 322.086 2.58227 -2.6022 0
M  V30 3512 H 321.734 4.8005 -1.50205 0
M  V30 3513 H 321.434 4.8916 -3.25571 0
M  V30 3514 H 322.958 5.53414 -2.58002 0
M  V30 3515 H 324.372 3.92271 -4.18086 0
M  V30 3516 H 322.769 3.51872 -4.86113 0
M  V30 3517 H 323.839 2.2157 -4.31317 0
M  V30 3518 N 325.182 1.32811 0.848464 0
M  V30 3519 C 326.428 1.23907 1.60546 0
M  V30 3520 C 326.761 -0.197161 1.93197 0
M  V30 3521 O 326.036 -1.13596 1.5788 0
M  V30 3522 C 326.319 2.10489 2.92175 0
M  V30 3523 C 326.172 3.62522 2.66266 0
M  V30 3524 C 327.491 1.97075 3.93509 0
M  V30 3525 H 324.61 0.451459 0.58254 0
M  V30 3526 H 327.252 1.62818 0.979296 0
M  V30 3527 H 325.402 1.77434 3.45614 0
M  V30 3528 H 327.074 4.05821 2.19334 0
M  V30 3529 H 325.317 3.84879 2.00126 0
M  V30 3530 H 325.988 4.18437 3.6002 0
M  V30 3531 H 328.464 2.26045 3.49346 0
M  V30 3532 H 327.34 2.59923 4.83457 0
M  V30 3533 H 327.601 0.940186 4.31987 0
M  V30 3534 N 326.66 -1.06551 1.16123 0
M  V30 3535 C 327.59 -2.15935 0.88851 0
M  V30 3536 C 328.571 -1.69306 -0.164135 0
M  V30 3537 O 329.756 -1.94193 -0.0167857 0
M  V30 3538 C 326.886 -3.45149 0.385942 0
M  V30 3539 C 325.84 -4.05271 1.3762 0
M  V30 3540 C 325.166 -5.29664 0.732137 0
M  V30 3541 C 326.466 -4.44355 2.74493 0
M  V30 3542 H 328.16 -2.39006 1.80323 0
M  V30 3543 H 325.706 -1.14866 0.868435 0
M  V30 3544 H 327.659 -4.21004 0.182647 0
M  V30 3545 H 326.383 -3.21689 -0.564274 0
M  V30 3546 H 325.042 -3.3147 1.56599 0
M  V30 3547 H 324.69 -5.02499 -0.224483 0
M  V30 3548 H 324.39 -5.70848 1.39307 0
M  V30 3549 H 325.914 -6.08218 0.538802 0
M  V30 3550 H 327.328 -5.11303 2.59311 0
M  V30 3551 H 325.725 -4.96515 3.37035 0
M  V30 3552 H 326.795 -3.55339 3.29943 0
M  V30 3553 N 328.138 -0.959301 -1.25041 0
M  V30 3554 C 329.387 -0.612254 -1.92183 0
M  V30 3555 C 329.7 0.855347 -1.75907 0
M  V30 3556 O 330.906 1.31256 -2.37664 0
M  V30 3557 C 329.362 -1.04435 -3.44414 0
M  V30 3558 C 328.97 -2.53482 -3.69393 0
M  V30 3559 C 330.714 -0.770055 -4.17457 0
M  V30 3560 C 328.621 -2.90468 -5.15153 0
M  V30 3561 H 327.551 -0.225279 -0.719559 0
M  V30 3562 H 330.202 -1.16438 -1.41825 0
M  V30 3563 H 328.584 -0.4206 -3.9376 0
M  V30 3564 H 329.758 -3.20916 -3.30681 0
M  V30 3565 H 328.073 -2.78432 -3.0962 0
M  V30 3566 H 330.67 -1.02249 -5.24832 0
M  V30 3567 H 331.013 0.293611 -4.15263 0
M  V30 3568 H 331.546 -1.35437 -3.74034 0
M  V30 3569 H 328.285 -3.95871 -5.22462 0
M  V30 3570 H 327.805 -2.27711 -5.54894 0
M  V30 3571 H 329.484 -2.79914 -5.83315 0
M  V30 3572 N 329.616 1.39756 -0.72842 0
M  V30 3573 C 330.856 2.025 -0.278078 0
M  V30 3574 C 331.22 1.5654 1.11173 0
M  V30 3575 O 332.421 2.11435 1.65978 0
M  V30 3576 C 330.692 3.55489 -0.369139 0
M  V30 3577 S 332.251 4.388 0.00232983 0
M  V30 3578 H 329.069 0.702534 -0.109391 0
M  V30 3579 H 331.671 1.70672 -0.95348 0
M  V30 3580 H 330.375 3.86429 -1.38204 0
M  V30 3581 H 329.906 3.92061 0.324308 0
M  V30 3582 H 331.921 4.80954 1.22055 0
M  V30 3583 N 331.094 0.475555 1.50254 0
M  V30 3584 C 332.004 -0.321501 2.32387 0
M  V30 3585 C 333.02 -0.991755 1.42969 0
M  V30 3586 O 334.196 -0.978747 1.76018 0
M  V30 3587 C 331.261 -1.38667 3.17762 0
M  V30 3588 C 330.322 -0.732538 4.23004 0
M  V30 3589 C 329.555 -1.74695 5.04299 0
M  V30 3590 O 329.778 -2.97399 4.86734 0
M  V30 3591 O 328.712 -1.31631 5.8733 0
M  V30 3592 H 332.538 0.350071 3.01676 0
M  V30 3593 H 330.123 0.237321 1.47503 0
M  V30 3594 H 332.005 -2.00354 3.70724 0
M  V30 3595 H 330.68 -2.04163 2.51196 0
M  V30 3596 H 329.587 -0.0765902 3.74022 0
M  V30 3597 H 330.92 -0.120452 4.92053 0
M  V30 3598 N 332.573 -1.56217 0.208337 0
M  V30 3599 C 333.984 -1.84243 -0.301904 0
M  V30 3600 C 334.335 -1.12939 -1.60434 0
M  V30 3601 O 333.46 -0.39461 -2.12772 0
M  V30 3602 C 334.055 -3.34231 -0.554543 0
M  V30 3603 C 332.614 -3.62621 -1.00912 0
M  V30 3604 C 331.761 -2.77224 -0.064933 0
M  V30 3605 H 334.712 -1.52712 0.431833 0
M  V30 3606 H 334.733 -3.5372 -1.40223 0
M  V30 3607 H 334.245 -3.86099 0.393561 0
M  V30 3608 H 332.346 -3.16197 -1.97104 0
M  V30 3609 H 332.459 -4.7071 -0.892674 0
M  V30 3610 H 330.823 -2.48256 -0.56929 0
M  V30 3611 H 331.606 -3.31887 0.877851 0
M  V30 3612 N 334.051 0.0651679 -1.57465 0
M  V30 3613 C 335.3 0.761916 -1.86756 0
M  V30 3614 C 335.613 1.78406 -0.801925 0
M  V30 3615 O 336.819 2.53084 -0.982885 0
M  V30 3616 C 335.275 1.40603 -3.31299 0
M  V30 3617 C 334.883 0.422115 -4.46007 0
M  V30 3618 C 336.627 2.08476 -3.69781 0
M  V30 3619 C 334.534 1.07252 -5.81593 0
M  V30 3620 H 333.464 0.288308 -0.696702 0
M  V30 3621 H 336.115 0.015344 -1.83494 0
M  V30 3622 H 334.497 2.20109 -3.29193 0
M  V30 3623 H 335.671 -0.343613 -4.59517 0
M  V30 3624 H 333.986 -0.152527 -4.16121 0
M  V30 3625 H 336.583 2.57925 -4.68379 0
M  V30 3626 H 336.926 2.88712 -2.99919 0
M  V30 3627 H 337.459 1.35792 -3.73905 0
M  V30 3628 H 334.198 0.310342 -6.54765 0
M  V30 3629 H 333.718 1.80895 -5.71872 0
M  V30 3630 H 335.397 1.59043 -6.27148 0
M  V30 3631 N 335.529 1.53961 0.336706 0
M  V30 3632 C 336.94 1.62914 0.911925 0
M  V30 3633 C 337.291 0.514795 1.89326 0
M  V30 3634 O 336.416 -0.354395 2.13478 0
M  V30 3635 C 337.011 2.95304 1.66076 0
M  V30 3636 C 335.57 3.06496 2.18489 0
M  V30 3637 C 334.717 2.58403 1.00613 0
M  V30 3638 H 337.668 1.58285 0.114649 0
M  V30 3639 H 337.689 2.84727 2.5241 0
M  V30 3640 H 337.201 3.76387 0.946276 0
M  V30 3641 H 335.302 2.3006 2.93092 0
M  V30 3642 H 335.415 4.1208 2.44391 0
M  V30 3643 H 333.779 2.13977 1.38152 0
M  V30 3644 H 334.562 3.41932 0.306179 0
M  V30 3645 N 337.007 -0.598083 1.45811 0
M  V30 3646 C 337.957 -1.70272 1.51629 0
M  V30 3647 C 338.941 -1.56382 0.378629 0
M  V30 3648 O 340.133 -1.65557 0.626087 0
M  V30 3649 C 337.262 -3.09042 1.49493 0
M  V30 3650 C 336.348 -3.28284 2.68496 0
M  V30 3651 N 336.739 -3.17748 3.93535 0
M  V30 3652 C 335.037 -3.59182 2.64394 0
M  V30 3653 C 335.738 -3.38579 4.7301 0
M  V30 3654 N 334.714 -3.63016 4.04624 0
M  V30 3655 H 338.516 -1.60634 2.46118 0
M  V30 3656 H 336.03 -0.801642 1.41235 0
M  V30 3657 H 338.027 -3.88302 1.51747 0
M  V30 3658 H 336.687 -3.19823 0.560683 0
M  V30 3659 H 337.698 -2.95944 4.25014 0
M  V30 3660 H 334.375 -3.76742 1.79922 0
M  V30 3661 H 335.765 -3.35747 5.82 0
M  V30 3662 N 338.485 -1.33259 -0.841409 0
M  V30 3663 C 339.896 -1.22066 -1.41269 0
M  V30 3664 C 340.247 0.161479 -1.95534 0
M  V30 3665 O 339.372 1.06094 -1.88608 0
M  V30 3666 C 339.967 -2.20996 -2.568 0
M  V30 3667 C 338.526 -2.13649 -3.09888 0
M  V30 3668 C 337.673 -2.08623 -1.82679 0
M  V30 3669 H 340.624 -1.44895 -0.647395 0
M  V30 3670 H 340.645 -1.81621 -3.34356 0
M  V30 3671 H 340.157 -3.2158 -2.17274 0
M  V30 3672 H 338.258 -1.16359 -3.53965 0
M  V30 3673 H 338.371 -3.04079 -3.70234 0
M  V30 3674 H 336.735 -1.54061 -2.02824 0
M  V30 3675 H 337.518 -3.1101 -1.45353 0
M  V30 3676 N 339.963 1.05934 -1.16686 0
M  V30 3677 C 341.188 1.83029 -0.975455 0
M  V30 3678 C 341.613 1.82096 0.471452 0
M  V30 3679 O 340.971 1.22443 1.33706 0
M  V30 3680 C 341.019 3.27372 -1.51195 0
M  V30 3681 O 340.123 4.06054 -0.720701 0
M  V30 3682 H 339.464 0.566194 -0.346872 0
M  V30 3683 H 341.994 1.33541 -1.55009 0
M  V30 3684 H 342.004 3.78186 -1.53099 0
M  V30 3685 H 340.679 3.27366 -2.56523 0
M  V30 3686 H 339.256 3.64812 -0.772458 0
M  V30 3687 N 341.441 0.965919 1.2453 0
M  V30 3688 C 342.389 0.486506 2.27455 0
M  V30 3689 C 343.383 -0.449041 1.6334 0
M  V30 3690 O 344.589 -0.324527 1.7705 0
M  V30 3691 H 340.964 0.138857 0.739069 0
M  V30 3692 H 342.935 1.3666 2.65267 0
M  V30 3693 C 341.684 -0.209481 3.47068 0
M  V30 3694 H 341.007 0.50129 3.96645 0
M  V30 3695 H 342.447 -0.508775 4.20936 0
M  V30 3696 C 340.906 -1.43586 3.0477 0
M  V30 3697 O 341.436 -2.53299 3.11773 0
M  V30 3698 N 339.642 -1.30126 2.59838 0
M  V30 3699 H 339.189 -0.408583 2.54339 0
M  V30 3700 H 339.147 -2.12294 2.31902 0
M  V30 3701 N 342.919 -1.39368 0.735821 0
M  V30 3702 C 344.168 -1.99733 0.281004 0
M  V30 3703 C 344.481 -1.59055 -1.13846 0
M  V30 3704 O 345.687 -2.12262 -1.69284 0
M  V30 3705 C 344.143 -3.57057 0.451462 0
M  V30 3706 C 343.751 -4.06697 1.87886 0
M  V30 3707 C 345.495 -4.2446 0.0584616 0
M  V30 3708 C 343.402 -5.56598 1.99883 0
M  V30 3709 H 342.332 -0.747163 0.101311 0
M  V30 3710 H 344.983 -1.59357 0.909819 0
M  V30 3711 H 343.365 -3.95234 -0.246263 0
M  V30 3712 H 344.539 -3.79853 2.60861 0
M  V30 3713 H 342.854 -3.5196 2.22515 0
M  V30 3714 H 345.451 -5.34549 0.127099 0
M  V30 3715 H 345.794 -4.04444 -0.986433 0
M  V30 3716 H 346.327 -3.9146 0.707374 0
M  V30 3717 H 343.066 -5.81494 3.02564 0
M  V30 3718 H 342.586 -5.85242 1.31346 0
M  V30 3719 H 344.265 -6.22022 1.78039 0
M  V30 3720 N 344.397 -0.483516 -1.5 0
M  V30 3721 C 345.307 0.309172 -2.32554 0
M  V30 3722 C 346.323 0.984159 -1.43493 0
M  V30 3723 O 347.499 0.969399 -1.76535 0
M  V30 3724 C 344.564 1.36979 -3.18493 0
M  V30 3725 C 343.625 0.710095 -4.23387 0
M  V30 3726 C 342.858 1.72018 -5.05218 0
M  V30 3727 O 343.081 2.94813 -4.88305 0
M  V30 3728 O 342.015 1.28515 -5.8802 0
M  V30 3729 H 345.841 -0.366064 -3.01486 0
M  V30 3730 H 343.426 -0.24514 -1.47375 0
M  V30 3731 H 345.308 1.98385 -3.71781 0
M  V30 3732 H 343.983 2.02828 -2.52275 0
M  V30 3733 H 342.89 0.0567539 -3.74057 0
M  V30 3734 H 344.223 0.0943557 -4.9211 0
M  V30 3735 N 345.875 1.56104 -0.216619 0
M  V30 3736 C 347.124 1.97348 0.416744 0
M  V30 3737 C 347.437 1.10715 1.6125 0
M  V30 3738 O 348.643 1.41836 2.31506 0
M  V30 3739 C 347.099 3.51059 0.792835 0
M  V30 3740 C 346.707 4.46387 -0.379828 0
M  V30 3741 C 348.451 4.01026 1.39208 0
M  V30 3742 C 346.358 5.91397 0.0184223 0
M  V30 3743 H 345.288 0.736942 0.159475 0
M  V30 3744 H 347.939 1.80827 -0.31205 0
M  V30 3745 H 346.321 3.63162 1.57891 0
M  V30 3746 H 347.495 4.46029 -1.15737 0
M  V30 3747 H 345.81 4.06734 -0.891979 0
M  V30 3748 H 348.407 5.0686 1.70286 0
M  V30 3749 H 348.75 3.46587 2.30614 0
M  V30 3750 H 349.283 3.92125 0.669537 0
M  V30 3751 H 346.022 6.49807 -0.862002 0
M  V30 3752 H 345.542 5.94961 0.760384 0
M  V30 3753 H 347.221 6.45455 0.446818 0
M  V30 3754 N 347.353 -0.0568162 1.57498 0
M  V30 3755 C 348.764 -0.606858 1.76562 0
M  V30 3756 C 349.115 -1.77114 0.844094 0
M  V30 3757 O 348.24 -2.16376 0.0318911 0
M  V30 3758 C 348.835 -1.10766 3.20182 0
M  V30 3759 C 347.394 -1.60344 3.40539 0
M  V30 3760 C 346.541 -0.529311 2.72201 0
M  V30 3761 H 349.492 0.169393 1.57793 0
M  V30 3762 H 349.513 -1.97602 3.25167 0
M  V30 3763 H 349.025 -0.26006 3.87228 0
M  V30 3764 H 347.126 -2.47379 2.78629 0
M  V30 3765 H 347.239 -1.67006 4.4905 0
M  V30 3766 H 345.603 -0.977893 2.35179 0
M  V30 3767 H 346.386 0.308352 3.41912 0
M  V30 3768 N 348.832 -1.54138 -0.328536 0
M  V30 3769 C 349.762 -1.86167 -1.40939 0
M  V30 3770 C 350.743 -0.718044 -1.54202 0
M  V30 3771 O 351.928 -0.971328 -1.68163 0
M  V30 3772 C 349.058 -2.08461 -2.77779 0
M  V30 3773 C 348.012 -3.24299 -2.7931 0
M  V30 3774 C 347.338 -3.31955 -4.19178 0
M  V30 3775 C 348.638 -4.62065 -2.43502 0
M  V30 3776 H 350.332 -2.76689 -1.14383 0
M  V30 3777 H 347.878 -1.33132 -0.548806 0
M  V30 3778 H 349.831 -2.29453 -3.53454 0
M  V30 3779 H 348.555 -1.14684 -3.05802 0
M  V30 3780 H 347.214 -3.03187 -2.0609 0
M  V30 3781 H 346.862 -2.35745 -4.44335 0
M  V30 3782 H 346.562 -4.09805 -4.2111 0
M  V30 3783 H 348.086 -3.55175 -4.96672 0
M  V30 3784 H 349.5 -4.8297 -3.08889 0
M  V30 3785 H 347.897 -5.42429 -2.56693 0
M  V30 3786 H 348.967 -4.64652 -1.38659 0
M  V30 3787 N 350.31 0.590341 -1.46126 0
M  V30 3788 C 351.587 1.35029 -1.41515 0
M  V30 3789 C 351.967 2.10888 -0.0946472 0
M  V30 3790 O 351.315 2.08998 0.923693 0
M  V30 3791 C 351.525 2.28269 -2.63997 0
M  V30 3792 C 352.873 2.90338 -3.09821 0
M  V30 3793 O 353.897 2.38585 -2.64492 0
M  V30 3794 O 352.756 3.84321 -3.88535 0
M  V30 3795 H 349.85 0.606317 -0.562413 0
M  V30 3796 H 352.396 0.611994 -1.58281 0
M  V30 3797 H 351.168 1.71591 -3.51671 0
M  V30 3798 H 350.791 3.0945 -2.49652 0
M  V30 3799 N 351.788 1.33704 0.83433 0
M  V30 3800 C 353.013 1.28615 1.62705 0
M  V30 3801 C 353.438 -0.139242 1.87584 0
M  V30 3802 O 352.796 -1.09734 1.4432 0
M  V30 3803 C 352.844 2.07139 2.95171 0
M  V30 3804 O 351.948 1.4331 3.86699 0
M  V30 3805 H 351.289 0.44226 0.49528 0
M  V30 3806 H 353.819 1.76335 1.03766 0
M  V30 3807 H 353.829 2.18073 3.44831 0
M  V30 3808 H 352.504 3.10779 2.76386 0
M  V30 3809 H 351.081 1.4105 3.45195 0
M  V30 3810 N 353.266 -1.05314 1.17247 0
M  V30 3811 C 354.213 -2.13031 0.888058 0
M  V30 3812 C 355.183 -1.65253 -0.167537 0
M  V30 3813 O 356.368 -1.90775 -0.0305974 0
M  V30 3814 C 353.508 -3.42702 0.406147 0
M  V30 3815 C 352.621 -4.04161 1.52572 0
M  V30 3816 C 351.756 -5.21744 0.997808 0
M  V30 3817 C 350.795 -5.75207 2.09291 0
M  V30 3818 N 349.932 -6.84094 1.57986 0
M  V30 3819 H 354.772 -2.36698 1.81048 0
M  V30 3820 H 352.309 -1.16121 0.903013 0
M  V30 3821 H 354.267 -4.17059 0.108305 0
M  V30 3822 H 352.897 -3.19222 -0.479313 0
M  V30 3823 H 351.949 -3.27253 1.93931 0
M  V30 3824 H 353.261 -4.39881 2.35172 0
M  V30 3825 H 352.415 -6.03168 0.653739 0
M  V30 3826 H 351.154 -4.87495 0.141232 0
M  V30 3827 H 350.159 -4.92414 2.44557 0
M  V30 3828 H 351.384 -6.11505 2.95362 0
M  V30 3829 H 349.33 -6.51745 0.74598 0
M  V30 3830 H 349.247 -7.18811 2.34195 0
M  V30 3831 H 350.515 -7.69172 1.26468 0
M  V30 3832 N 354.744 -0.972509 -1.24016 0
M  V30 3833 C 355.972 -0.654803 -1.96265 0
M  V30 3834 C 356.387 0.776708 -1.72083 0
M  V30 3835 O 355.744 1.52171 -1.00748 0
M  V30 3836 C 355.795 -0.92592 -3.49441 0
M  V30 3837 O 355.516 -2.30116 -3.72798 0
M  V30 3838 C 357.017 -0.623068 -4.38899 0
M  V30 3839 H 354.237 -0.243907 -0.6251 0
M  V30 3840 H 356.781 -1.30175 -1.57717 0
M  V30 3841 H 354.936 -0.325108 -3.86033 0
M  V30 3842 H 355.35 -2.38483 -4.67147 0
M  V30 3843 H 356.824 -0.863189 -5.45209 0
M  V30 3844 H 357.301 0.442754 -4.36963 0
M  V30 3845 H 357.907 -1.204 -4.07902 0
M  V30 3846 N 356.222 1.38976 -0.743202 0
M  V30 3847 C 357.469 2.00343 -0.294752 0
M  V30 3848 C 357.797 1.58983 1.12047 0
M  V30 3849 O 357.052 0.813809 1.77977 0
M  V30 3850 C 357.351 3.55647 -0.353517 0
M  V30 3851 C 357.017 4.16685 -1.72292 0
M  V30 3852 C 355.679 4.3307 -2.09771 0
M  V30 3853 C 358.031 4.50464 -2.62168 0
M  V30 3854 C 355.359 4.80526 -3.36618 0
M  V30 3855 C 357.711 4.99332 -3.88395 0
M  V30 3856 C 356.375 5.13924 -4.25956 0
M  V30 3857 H 355.645 0.733108 -0.107857 0
M  V30 3858 H 358.292 1.6618 -0.951651 0
M  V30 3859 H 356.597 3.89884 0.386954 0
M  V30 3860 H 358.294 4.00998 0.0117269 0
M  V30 3861 H 354.884 4.04339 -1.42155 0
M  V30 3862 H 359.068 4.37416 -2.3448 0
M  V30 3863 H 354.324 4.90008 -3.65653 0
M  V30 3864 H 358.498 5.2444 -4.58187 0
M  V30 3865 H 356.125 5.50457 -5.2431 0
M  V30 3866 N 357.7 0.491464 1.49741 0
M  V30 3867 C 358.63 -0.28154 2.31796 0
M  V30 3868 C 359.611 -0.971473 1.3963 0
M  V30 3869 O 360.796 -0.964719 1.68543 0
M  V30 3870 C 357.926 -1.35203 3.19902 0
M  V30 3871 C 356.88 -0.782529 4.20786 0
M  V30 3872 C 356.206 -1.95283 4.97764 0
M  V30 3873 C 357.506 0.21999 5.21837 0
M  V30 3874 H 359.2 0.403355 2.96671 0
M  V30 3875 H 356.746 0.195425 1.42668 0
M  V30 3876 H 358.699 -1.90045 3.76113 0
M  V30 3877 H 357.423 -2.06598 2.52953 0
M  V30 3878 H 356.082 -0.255928 3.65706 0
M  V30 3879 H 355.73 -2.65423 4.2727 0
M  V30 3880 H 355.43 -1.57789 5.66018 0
M  V30 3881 H 356.954 -2.50577 5.56816 0
M  V30 3882 H 358.368 -0.23996 5.72798 0
M  V30 3883 H 356.765 0.51026 5.97927 0
M  V30 3884 H 357.835 1.13911 4.7133 0
M  V30 3885 N 359.178 -1.55987 0.224894 0
M  V30 3886 C 360.403 -2.03232 -0.41369 0
M  V30 3887 C 360.828 -1.10359 -1.52323 0
M  V30 3888 O 360.186 -0.092395 -1.81064 0
M  V30 3889 C 360.234 -3.48682 -0.919405 0
M  V30 3890 O 359.338 -3.58947 -2.03054 0
M  V30 3891 H 358.679 -0.657428 -0.0931903 0
M  V30 3892 H 361.209 -2.01679 0.34451 0
M  V30 3893 H 361.219 -3.8907 -1.22835 0
M  V30 3894 H 359.894 -4.15761 -0.107339 0
M  V30 3895 H 358.471 -3.30448 -1.72796 0
M  V30 3896 N 360.656 0.0484629 -1.57525 0
M  V30 3897 C 362.072 0.40375 -1.54409 0
M  V30 3898 C 362.272 1.77786 -0.948384 0
M  V30 3899 O 361.328 2.46189 -0.560983 0
M  V30 3900 C 362.641 0.323394 -2.98956 0
M  V30 3901 C 364.189 0.401892 -3.10409 0
M  V30 3902 C 364.664 0.351195 -4.56652 0
M  V30 3903 N 366.155 0.410576 -4.61377 0
M  V30 3904 C 366.89 0.393933 -5.72045 0
M  V30 3905 N 366.386 0.330724 -6.9201 0
M  V30 3906 N 368.179 0.442227 -5.60358 0
M  V30 3907 H 360.33 -0.851016 -1.94606 0
M  V30 3908 H 362.593 -0.321721 -0.89174 0
M  V30 3909 H 362.299 -0.62011 -3.4619 0
M  V30 3910 H 362.173 1.12463 -3.60044 0
M  V30 3911 H 364.56 1.33582 -2.63134 0
M  V30 3912 H 364.641 -0.428342 -2.52188 0
M  V30 3913 H 364.285 -0.578987 -5.04589 0
M  V30 3914 H 364.215 1.19928 -5.12762 0
M  V30 3915 H 366.706 0.462729 -3.75056 0
M  V30 3916 H 367.019 0.322592 -7.72126 0
M  V30 3917 H 365.364 0.29706 -6.94365 0
M  V30 3918 H 368.555 0.489464 -4.65534 0
M  V30 3919 H 368.728 0.425788 -6.466 0
M  V30 3920 N 362.134 1.5431 0.320358 0
M  V30 3921 C 363.084 1.803 1.39556 0
M  V30 3922 C 364.068 0.659166 1.46778 0
M  V30 3923 O 365.26 0.91926 1.51257 0
M  V30 3924 C 362.389 2.03665 2.76361 0
M  V30 3925 C 361.475 3.24178 2.73439 0
M  V30 3926 N 361.866 4.4516 2.40137 0
M  V30 3927 C 360.164 3.25816 3.04565 0
M  V30 3928 C 360.865 5.27109 2.4603 0
M  V30 3929 N 359.841 4.64368 2.82601 0
M  V30 3930 H 363.643 2.71416 1.12742 0
M  V30 3931 H 361.157 1.53548 0.528856 0
M  V30 3932 H 363.154 2.20425 3.53862 0
M  V30 3933 H 361.814 1.13805 3.04103 0
M  V30 3934 H 362.825 4.72104 2.12927 0
M  V30 3935 H 359.502 2.46001 3.37328 0
M  V30 3936 H 360.892 6.33728 2.23246 0
M  V30 3937 N 363.613 -0.582584 1.46437 0
M  V30 3938 C 364.838 -1.37168 1.55563 0
M  V30 3939 C 365.263 -1.87061 0.19743 0
M  V30 3940 O 364.621 -1.61572 -0.822451 0
M  V30 3941 C 364.669 -2.53511 2.56446 0
M  V30 3942 O 363.773 -3.54953 2.09958 0
M  V30 3943 H 363.114 -0.408494 0.523477 0
M  V30 3944 H 365.644 -0.706646 1.9201 0
M  V30 3945 H 365.654 -3.00426 2.76058 0
M  V30 3946 H 364.329 -2.16549 3.55076 0
M  V30 3947 H 362.906 -3.14516 2.00334 0
M  V30 3948 N 365.091 -1.34144 -0.827227 0
M  V30 3949 C 366.021 -1.28005 -1.95287 0
M  V30 3950 C 367.002 -0.158321 -1.69362 0
M  V30 3951 O 368.187 -0.349987 -1.9102 0
M  V30 3952 C 365.317 -1.03036 -3.31664 0
M  V30 3953 C 364.271 -2.11628 -3.72019 0
M  V30 3954 C 363.597 -1.71854 -5.0633 0
M  V30 3955 C 364.897 -3.53417 -3.8457 0
M  V30 3956 H 366.591 -2.22187 -2.00682 0
M  V30 3957 H 364.137 -1.0696 -0.964135 0
M  V30 3958 H 366.09 -0.973863 -4.09993 0
M  V30 3959 H 364.814 -0.0529391 -3.26557 0
M  V30 3960 H 363.473 -2.16339 -2.95961 0
M  V30 3961 H 363.121 -0.727841 -4.97706 0
M  V30 3962 H 362.821 -2.44531 -5.34302 0
M  V30 3963 H 364.345 -1.67692 -5.87122 0
M  V30 3964 H 365.759 -3.51142 -4.5318 0
M  V30 3965 H 364.156 -4.24679 -4.2399 0
M  V30 3966 H 365.226 -3.91072 -2.86689 0
M  V30 3967 N 366.569 1.04691 -1.17803 0
M  V30 3968 C 367.846 1.7472 -0.879328 0
M  V30 3969 C 368.226 2.01812 0.619271 0
M  V30 3970 O 367.574 1.65824 1.57209 0
M  V30 3971 C 367.784 3.03686 -1.71976 0
M  V30 3972 C 369.132 3.77542 -1.94286 0
M  V30 3973 O 370.156 3.13569 -1.68976 0
M  V30 3974 O 369.015 4.92506 -2.36855 0
M  V30 3975 H 366.109 0.760011 -0.326056 0
M  V30 3976 H 368.655 1.10813 -1.28525 0
M  V30 3977 H 367.427 2.79754 -2.73594 0
M  V30 3978 H 367.05 3.75332 -1.31194 0
M  V30 3979 N 368.047 0.979072 1.23499 0
M  V30 3980 C 368.98 0.463027 2.23453 0
M  V30 3981 C 369.958 -0.469128 1.55685 0
M  V30 3982 O 371.142 -0.397882 1.84253 0
M  V30 3983 C 368.269 -0.330308 3.37086 0
M  V30 3984 C 367.315 0.545795 4.22993 0
M  V30 3985 S 368.148 1.99285 4.97037 0
M  V30 3986 C 369.304 1.20862 6.1412 0
M  V30 3987 H 369.537 1.31005 2.6688 0
M  V30 3988 H 367.07 0.784965 1.32957 0
M  V30 3989 H 369.028 -0.782027 4.02982 0
M  V30 3990 H 367.689 -1.15244 2.92194 0
M  V30 3991 H 366.882 -0.0638928 5.03959 0
M  V30 3992 H 366.484 0.933705 3.62157 0
M  V30 3993 H 368.776 0.469284 6.75873 0
M  V30 3994 H 369.719 1.99307 6.79472 0
M  V30 3995 H 370.127 0.727992 5.59786 0
M  V30 3996 N 369.525 -1.3858 0.750561 0
M  V30 3997 C 370.472 -2.30483 0.120835 0
M  V30 3998 C 371.442 -1.50022 -0.712923 0
M  V30 3999 O 372.627 -1.78662 -0.669676 0
M  V30 4000 C 369.767 -3.36431 -0.768666 0
M  V30 4001 C 368.88 -4.31927 0.0793922 0
M  V30 4002 C 368.015 -5.24944 -0.81283 0
M  V30 4003 C 367.054 -6.12088 0.0390447 0
M  V30 4004 N 366.191 -6.97412 -0.809969 0
M  V30 4005 H 371.031 -2.83761 0.91015 0
M  V30 4006 H 368.568 -1.39707 0.460463 0
M  V30 4007 H 370.526 -3.96462 -1.29898 0
M  V30 4008 H 369.156 -2.8457 -1.5238 0
M  V30 4009 H 368.208 -3.73382 0.727303 0
M  V30 4010 H 369.52 -4.93319 0.737401 0
M  V30 4011 H 368.674 -5.90078 -1.41042 0
M  V30 4012 H 367.413 -4.63911 -1.50458 0
M  V30 4013 H 366.418 -5.45952 0.649328 0
M  V30 4014 H 367.643 -6.75189 0.727809 0
M  V30 4015 H 365.589 -6.38931 -1.48672 0
M  V30 4016 H 365.506 -7.55712 -0.208789 0
M  V30 4017 H 366.774 -7.66959 -1.39263 0
M  V30 4018 N 371.003 -0.499398 -1.49478 0
M  V30 4019 C 372.25 0.0456899 -2.02448 0
M  V30 4020 C 372.578 1.37142 -1.37921 0
M  V30 4021 O 371.833 1.89111 -0.503544 0
M  V30 4022 C 372.132 0.248424 -3.56536 0
M  V30 4023 C 371.798 -0.999107 -4.39692 0
M  V30 4024 C 370.46 -1.34108 -4.62135 0
M  V30 4025 C 372.812 -1.82842 -4.88076 0
M  V30 4026 C 370.14 -2.51191 -5.30208 0
M  V30 4027 C 372.492 -2.99076 -5.57437 0
M  V30 4028 C 371.156 -3.33655 -5.78127 0
M  V30 4029 H 370.426 0.0167191 -0.740811 0
M  V30 4030 H 373.073 -0.65923 -1.79795 0
M  V30 4031 H 371.378 1.03586 -3.77859 0
M  V30 4032 H 373.075 0.684605 -3.95113 0
M  V30 4033 H 369.665 -0.722729 -4.22463 0
M  V30 4034 H 373.849 -1.57737 -4.70566 0
M  V30 4035 H 369.105 -2.78221 -5.44429 0
M  V30 4036 H 373.279 -3.63664 -5.93904 0
M  V30 4037 H 370.906 -4.24483 -6.30649 0
M  V30 4038 N 372.481 1.55866 -0.233164 0
M  V30 4039 C 373.706 2.03449 0.402906 0
M  V30 4040 C 374.131 1.11166 1.51736 0
M  V30 4041 O 373.489 0.101996 1.81013 0
M  V30 4042 C 373.537 3.49165 0.9009 0
M  V30 4043 O 372.641 3.60019 2.01147 0
M  V30 4044 H 371.982 0.657913 0.0897025 0
M  V30 4045 H 374.512 2.01493 -0.355201 0
M  V30 4046 H 374.522 3.89716 1.2077 0
M  V30 4047 H 373.197 4.15813 0.0852889 0
M  V30 4048 H 371.774 3.3136 1.71042 0
M  V30 4049 N 373.959 -0.0401083 1.57549 0
M  V30 4050 C 375.189 -0.744115 1.92734 0
M  V30 4051 C 375.597 -1.70005 0.830348 0
M  V30 4052 O 374.94 -1.82576 -0.20286 0
M  V30 4053 C 375.002 -1.56516 3.2364 0
M  V30 4054 C 374.666 -0.7752 4.50377 0
M  V30 4055 C 375.663 -0.0803326 5.19838 0
M  V30 4056 C 373.348 -0.733002 4.96923 0
M  V30 4057 C 375.342 0.646154 6.34116 0
M  V30 4058 C 373.029 -0.00276321 6.111 0
M  V30 4059 C 374.027 0.685585 6.7955 0
M  V30 4060 O 373.715 1.40399 7.91545 0
M  V30 4061 H 373.447 -0.214861 0.640945 0
M  V30 4062 H 376.001 -0.00503675 2.05399 0
M  V30 4063 H 374.231 -2.3478 3.07271 0
M  V30 4064 H 375.92 -2.15076 3.44234 0
M  V30 4065 H 376.686 -0.104035 4.84888 0
M  V30 4066 H 372.565 -1.25827 4.43496 0
M  V30 4067 H 376.109 1.18398 6.87479 0
M  V30 4068 H 372.006 0.0229012 6.45496 0
M  V30 4069 H 372.774 1.31653 8.07843 0
M  V30 4070 N 375.437 -1.54477 -0.31217 0
M  V30 4071 C 376.677 -1.74958 -1.05684 0
M  V30 4072 C 377.041 -0.518414 -1.84869 0
M  V30 4073 O 378.242 -0.600759 -2.62001 0
M  V30 4074 C 376.513 -2.99656 -1.94785 0
M  V30 4075 S 378.072 -3.4109 -2.76049 0
M  V30 4076 H 374.89 -0.615104 -0.356606 0
M  V30 4077 H 377.492 -1.92669 -0.331514 0
M  V30 4078 H 376.196 -3.87397 -1.35468 0
M  V30 4079 H 375.727 -2.845 -2.71704 0
M  V30 4080 H 377.742 -2.97283 -3.97287 0
M  V30 4081 N 376.915 0.57481 -1.46744 0
M  V30 4082 C 378.192 1.3352 -1.4294 0
M  V30 4083 C 378.572 2.10775 -0.117009 0
M  V30 4084 O 377.92 2.09966 0.901474 0
M  V30 4085 C 378.13 2.25456 -2.66403 0
M  V30 4086 C 379.478 2.87035 -3.12883 0
M  V30 4087 O 380.502 2.35766 -2.67007 0
M  V30 4088 O 379.361 3.80179 -3.92589 0
M  V30 4089 H 376.455 0.600318 -0.568812 0
M  V30 4090 H 379.001 0.595171 -1.58921 0
M  V30 4091 H 377.773 1.67851 -3.53471 0
M  V30 4092 H 377.396 3.06785 -2.52921 0
M  V30 4093 N 378.394 1.34581 0.820102 0
M  V30 4094 C 379.304 1.28471 1.96297 0
M  V30 4095 C 380.32 0.191902 1.72939 0
M  V30 4096 O 381.496 0.418879 1.96996 0
M  V30 4097 C 378.561 1.04281 3.30645 0
M  V30 4098 C 377.622 2.22745 3.66992 0
M  V30 4099 C 376.855 1.997 4.9493 0
M  V30 4100 O 377.078 0.956656 5.6232 0
M  V30 4101 O 376.012 2.86723 5.2922 0
M  V30 4102 H 379.838 2.24624 2.04396 0
M  V30 4103 H 377.423 1.14816 0.955913 0
M  V30 4104 H 379.305 0.925841 4.11104 0
M  V30 4105 H 377.98 0.111697 3.23507 0
M  V30 4106 H 376.887 2.40003 2.86966 0
M  V30 4107 H 378.22 3.14257 3.78819 0
M  V30 4108 N 379.872 -1.04064 1.18357 0
M  V30 4109 C 381.288 -1.2947 0.933258 0
M  V30 4110 C 381.488 -1.97466 -0.401169 0
M  V30 4111 O 380.544 -2.25528 -1.13549 0
M  V30 4112 C 381.857 -2.15337 2.09882 0
M  V30 4113 C 383.405 -2.28683 2.13712 0
M  V30 4114 C 383.88 -3.17917 3.29686 0
M  V30 4115 N 385.371 -3.25504 3.29547 0
M  V30 4116 C 386.106 -3.94706 4.15926 0
M  V30 4117 N 385.602 -4.66239 5.12439 0
M  V30 4118 N 387.395 -3.90986 4.0384 0
M  V30 4119 H 379.546 -0.583359 2.04232 0
M  V30 4120 H 381.809 -0.319921 0.892387 0
M  V30 4121 H 381.515 -1.72682 3.06389 0
M  V30 4122 H 381.389 -3.16015 2.05947 0
M  V30 4123 H 383.776 -2.70575 1.17784 0
M  V30 4124 H 383.857 -1.27596 2.21705 0
M  V30 4125 H 383.501 -2.76736 4.25887 0
M  V30 4126 H 383.431 -4.19036 3.1893 0
M  V30 4127 H 385.922 -2.74547 2.59677 0
M  V30 4128 H 386.235 -5.16638 5.74722 0
M  V30 4129 H 384.58 -4.65143 5.16398 0
M  V30 4130 H 387.771 -3.34234 3.27727 0
M  V30 4131 H 387.944 -4.44646 4.71375 0
M  V30 4132 N 381.35 -0.985608 -1.22978 0
M  V30 4133 C 382.599 -0.652881 -1.90841 0
M  V30 4134 C 382.912 0.817842 -1.77681 0
M  V30 4135 O 384.118 1.26185 -2.40395 0
M  V30 4136 C 382.574 -1.11717 -3.42122 0
M  V30 4137 C 382.182 -2.6126 -3.63933 0
M  V30 4138 C 383.926 -0.85843 -4.1573 0
M  V30 4139 C 381.833 -3.0133 -5.08876 0
M  V30 4140 H 380.763 -0.240491 -0.714619 0
M  V30 4141 H 383.414 -1.1942 -1.39324 0
M  V30 4142 H 381.796 -0.504027 -3.92779 0
M  V30 4143 H 382.97 -3.27858 -3.23799 0
M  V30 4144 H 381.285 -2.84937 -3.03644 0
M  V30 4145 H 383.882 -1.13359 -5.22546 0
M  V30 4146 H 384.225 0.205461 -4.15793 0
M  V30 4147 H 384.758 -1.43341 -3.71077 0
M  V30 4148 H 381.497 -4.06864 -5.13947 0
M  V30 4149 H 381.017 -2.3943 -5.49939 0
M  V30 4150 H 382.696 -2.92224 -5.77247 0
M  V30 4151 N 382.828 1.3818 -0.7579 0
M  V30 4152 C 384.056 2.04301 -0.326937 0
M  V30 4153 C 384.471 1.57163 1.0462 0
M  V30 4154 O 383.828 0.746626 1.66529 0
M  V30 4155 C 383.879 3.59846 -0.345363 0
M  V30 4156 O 383.6 4.05256 -1.66432 0
M  V30 4157 C 385.101 4.4319 0.098927 0
M  V30 4158 H 382.321 0.656443 -0.139012 0
M  V30 4159 H 384.865 1.76786 -1.02796 0
M  V30 4160 H 383.02 3.86182 0.306955 0
M  V30 4161 H 383.434 4.99709 -1.59345 0
M  V30 4162 H 384.908 5.51989 0.0348745 0
M  V30 4163 H 385.385 4.23947 1.14741 0
M  V30 4164 H 385.991 4.22051 -0.52468 0
M  V30 4165 N 384.306 0.507319 1.49211 0
M  V30 4166 C 385.216 -0.272136 2.33016 0
M  V30 4167 C 386.232 -0.961206 1.45041 0
M  V30 4168 O 387.408 -0.941191 1.78055 0
M  V30 4169 C 384.473 -1.31895 3.20631 0
M  V30 4170 C 383.534 -0.642648 4.24463 0
M  V30 4171 C 382.767 -1.63959 5.07891 0
M  V30 4172 O 382.99 -2.87007 4.92933 0
M  V30 4173 O 381.924 -1.19143 5.8999 0
M  V30 4174 H 385.75 0.413982 3.00865 0
M  V30 4175 H 383.335 0.268556 1.46966 0
M  V30 4176 H 385.217 -1.92446 3.7489 0
M  V30 4177 H 383.892 -1.98788 2.5547 0
M  V30 4178 H 382.799 0.00276252 3.741 0
M  V30 4179 H 384.132 -0.0160534 4.92197 0
M  V30 4180 N 385.784 -1.5574 0.241426 0
M  V30 4181 C 386.714 -2.24133 -0.654722 0
M  V30 4182 C 387.695 -1.21974 -1.1856 0
M  V30 4183 O 388.88 -1.50612 -1.22595 0
M  V30 4184 C 386.01 -2.93659 -1.85423 0
M  V30 4185 C 384.964 -4.0246 -1.45636 0
M  V30 4186 C 384.29 -4.59383 -2.73626 0
M  V30 4187 C 385.59 -5.18468 -0.631506 0
M  V30 4188 H 387.284 -2.99281 -0.0844353 0
M  V30 4189 H 384.83 -1.43947 -0.0391707 0
M  V30 4190 H 386.783 -3.40203 -2.48676 0
M  V30 4191 H 385.507 -2.15991 -2.44981 0
M  V30 4192 H 384.166 -3.56676 -0.847202 0
M  V30 4193 H 383.814 -3.78422 -3.3137 0
M  V30 4194 H 383.514 -5.32826 -2.4773 0
M  V30 4195 H 385.038 -5.08658 -3.37786 0
M  V30 4196 H 386.452 -5.61272 -1.1682 0
M  V30 4197 H 384.849 -5.98266 -0.468831 0
M  V30 4198 H 385.919 -4.8358 0.357506 0
M  V30 4199 N 387.262 0.0317525 -1.57568 0
M  V30 4200 C 388.195 1.06621 -2.0176 0
M  V30 4201 C 389.173 1.35323 -0.901462 0
M  V30 4202 O 390.357 1.48025 -1.16708 0
M  V30 4203 C 387.484 2.40155 -2.38837 0
M  V30 4204 C 386.53 2.27327 -3.60867 0
M  V30 4205 S 387.363 1.62925 -5.10113 0
M  V30 4206 C 388.519 2.97955 -5.5043 0
M  V30 4207 H 388.752 0.689781 -2.89187 0
M  V30 4208 H 386.285 0.24164 -1.52497 0
M  V30 4209 H 388.243 3.1695 -2.6087 0
M  V30 4210 H 386.904 2.74946 -1.51867 0
M  V30 4211 H 386.097 3.25898 -3.84456 0
M  V30 4212 H 385.699 1.58675 -3.38671 0
M  V30 4213 H 387.991 3.94285 -5.5095 0
M  V30 4214 H 388.934 2.79102 -6.50775 0
M  V30 4215 H 389.342 3.00404 -4.77931 0
M  V30 4216 N 388.74 1.54641 0.303973 0
M  V30 4217 C 389.988 1.73437 1.0375 0
M  V30 4218 C 390.309 0.521449 1.87899 0
M  V30 4219 O 389.579 -0.46432 1.90318 0
M  V30 4220 H 388.159 0.639518 0.386039 0
M  V30 4221 H 390.821 1.91988 0.335675 0
M  V30 4222 H 389.917 2.62235 1.69231 0
M  V30 4223 N 390.218 -0.567019 1.47046 0
M  V30 4224 C 391.448 -1.34831 1.56538 0
M  V30 4225 C 391.856 -1.8802 0.21101 0
M  V30 4226 O 391.199 -1.65152 -0.804387 0
M  V30 4227 C 391.261 -2.56139 2.52256 0
M  V30 4228 C 390.925 -2.24307 3.98165 0
M  V30 4229 C 391.922 -1.82192 4.86931 0
M  V30 4230 C 389.607 -2.35968 4.43423 0
M  V30 4231 C 391.601 -1.52153 6.18973 0
M  V30 4232 C 389.288 -2.05542 5.75496 0
M  V30 4233 C 390.286 -1.63701 6.63092 0
M  V30 4234 O 389.974 -1.33657 7.92711 0
M  V30 4235 H 389.706 -0.417683 0.531523 0
M  V30 4236 H 392.26 -0.694726 1.93294 0
M  V30 4237 H 390.49 -3.24356 2.10548 0
M  V30 4238 H 392.179 -3.18214 2.51982 0
M  V30 4239 H 392.945 -1.72684 4.53217 0
M  V30 4240 H 388.824 -2.67495 3.75456 0
M  V30 4241 H 392.368 -1.19421 6.87302 0
M  V30 4242 H 388.265 -2.14679 6.08755 0
M  V30 4243 H 389.033 -1.4737 8.05124 0
M  V30 4244 N 391.696 -1.35014 -0.812953 0
M  V30 4245 C 392.606 -1.2951 -1.95613 0
M  V30 4246 C 393.622 -0.20107 -1.72834 0
M  V30 4247 O 394.798 -0.42932 -1.96771 0
M  V30 4248 C 391.863 -1.06033 -3.30088 0
M  V30 4249 C 390.924 -2.24688 -3.65805 0
M  V30 4250 C 390.157 -2.02322 -4.93864 0
M  V30 4251 O 390.38 -0.986464 -5.61805 0
M  V30 4252 O 389.314 -2.89525 -5.27692 0
M  V30 4253 H 393.14 -2.25705 -2.03202 0
M  V30 4254 H 390.725 -1.15321 -0.949811 0
M  V30 4255 H 392.607 -0.94763 -4.10607 0
M  V30 4256 H 391.282 -0.128852 -3.23443 0
M  V30 4257 H 390.189 -2.41521 -2.85689 0
M  V30 4258 H 391.522 -3.16261 -3.77147 0
M  V30 4259 N 393.175 1.03435 -1.18907 0
M  V30 4260 C 394.586 1.58195 -0.991523 0
M  V30 4261 C 394.937 1.90801 0.457081 0
M  V30 4262 O 394.062 1.70272 1.33553 0
M  V30 4263 C 394.657 2.87432 -1.79355 0
M  V30 4264 C 393.216 3.38785 -1.64017 0
M  V30 4265 C 392.363 2.12292 -1.78402 0
M  V30 4266 H 395.314 0.860299 -1.33359 0
M  V30 4267 H 395.335 3.58096 -1.28638 0
M  V30 4268 H 394.847 2.63669 -2.84781 0
M  V30 4269 H 392.948 3.67547 -0.611536 0
M  V30 4270 H 393.061 4.12186 -2.44212 0
M  V30 4271 H 391.425 2.23901 -1.2141 0
M  V30 4272 H 392.208 1.90977 -2.85277 0
M  V30 4273 N 394.653 0.992116 1.22453 0
M  V30 4274 C 395.563 0.55065 2.28046 0
M  V30 4275 C 396.579 -0.400189 1.69335 0
M  V30 4276 O 397.755 -0.267215 1.99619 0
M  V30 4277 C 394.82 -0.128496 3.46462 0
M  V30 4278 C 393.881 0.865208 4.20491 0
M  V30 4279 C 393.114 0.218377 5.33253 0
M  V30 4280 O 393.337 -0.987894 5.6178 0
M  V30 4281 O 392.271 0.922845 5.94783 0
M  V30 4282 H 396.097 1.4291 2.67975 0
M  V30 4283 H 393.682 0.760326 1.28606 0
M  V30 4284 H 395.564 -0.508947 4.18315 0
M  V30 4285 H 394.239 -0.981526 3.0846 0
M  V30 4286 H 393.146 1.29658 3.50913 0
M  V30 4287 H 394.479 1.68741 4.62371 0
M  V30 4288 N 396.131 -1.37776 0.765217 0
M  V30 4289 C 397.041 -2.34135 0.147666 0
M  V30 4290 C 398.057 -1.59854 -0.687215 0
M  V30 4291 O 399.233 -1.91983 -0.608659 0
M  V30 4292 C 396.298 -3.3901 -0.72617 0
M  V30 4293 C 395.359 -4.2912 0.124417 0
M  V30 4294 C 394.592 -5.28986 -0.707807 0
M  V30 4295 O 394.815 -5.36205 -1.94525 0
M  V30 4296 O 393.749 -6.01779 -0.12046 0
M  V30 4297 H 397.575 -2.88664 0.943758 0
M  V30 4298 H 395.16 -1.39824 0.526277 0
M  V30 4299 H 397.042 -4.03195 -1.22524 0
M  V30 4300 H 395.717 -2.86819 -1.50056 0
M  V30 4301 H 394.624 -3.68057 0.669696 0
M  V30 4302 H 395.957 -4.84598 0.861736 0
M  V30 4303 N 397.609 -0.515225 -1.4894 0
M  V30 4304 C 398.539 0.244628 -2.32215 0
M  V30 4305 C 399.52 0.949136 -1.41157 0
M  V30 4306 O 400.705 0.937783 -1.70057 0
M  V30 4307 C 397.835 1.30096 -3.22013 0
M  V30 4308 C 396.789 0.715486 -4.21977 0
M  V30 4309 C 396.115 1.87339 -5.00808 0
M  V30 4310 C 397.415 -0.302982 -5.2142 0
M  V30 4311 H 399.109 -0.450501 -2.95991 0
M  V30 4312 H 396.655 -0.218098 -1.42339 0
M  V30 4313 H 398.608 1.84037 -3.79089 0
M  V30 4314 H 397.332 2.02547 -2.56207 0
M  V30 4315 H 395.991 0.197715 -3.66066 0
M  V30 4316 H 395.639 2.58592 -4.31438 0
M  V30 4317 H 395.339 1.48764 -5.68457 0
M  V30 4318 H 396.863 2.41686 -5.60732 0
M  V30 4319 H 398.277 0.148802 -5.73107 0
M  V30 4320 H 396.674 -0.60532 -5.97039 0
M  V30 4321 H 397.744 -1.21395 -4.69459 0
M  V30 4322 N 399.087 1.5561 -0.249682 0
M  V30 4323 C 400.017 2.24477 0.642826 0
M  V30 4324 C 400.998 1.22601 1.17911 0
M  V30 4325 O 402.183 1.5126 1.21795 0
M  V30 4326 C 399.313 2.94638 1.83863 0
M  V30 4327 C 398.267 4.03227 1.435 0
M  V30 4328 C 397.593 4.60828 2.71186 0
M  V30 4329 C 398.893 5.18796 0.604002 0
M  V30 4330 H 400.587 2.99321 0.0685625 0
M  V30 4331 H 398.133 1.43965 0.0315363 0
M  V30 4332 H 400.086 3.41517 2.46868 0
M  V30 4333 H 398.81 2.17287 2.43832 0
M  V30 4334 H 397.469 3.57121 0.828275 0
M  V30 4335 H 397.117 3.80174 3.29358 0
M  V30 4336 H 396.817 5.34132 2.44901 0
M  V30 4337 H 398.341 5.10442 3.35084 0
M  V30 4338 H 399.755 5.61883 1.13842 0
M  V30 4339 H 398.152 5.98506 0.437097 0
M  V30 4340 H 399.222 4.83384 -0.383147 0
M  V30 4341 N 400.565 -0.0233959 1.57583 0
M  V30 4342 C 401.813 -0.711654 1.89156 0
M  V30 4343 C 402.134 -1.75591 0.848096 0
M  V30 4344 O 401.404 -1.95547 -0.117566 0
M  V30 4345 H 399.984 -0.265835 0.698098 0
M  V30 4346 H 402.646 0.0119948 1.94896 0
M  V30 4347 H 401.742 -1.19766 2.88206 0
M  V30 4348 N 402.043 -1.548 -0.295768 0
M  V30 4349 C 403.459 -1.4613 -0.641722 0
M  V30 4350 C 403.659 -0.656771 -1.90496 0
M  V30 4351 O 402.715 -0.166547 -2.5195 0
M  V30 4352 C 404.028 -2.90141 -0.789852 0
M  V30 4353 C 405.576 -3.00216 -0.885396 0
M  V30 4354 C 406.051 -4.45434 -1.06548 0
M  V30 4355 N 407.542 -4.49166 -1.13156 0
M  V30 4356 C 408.277 -5.58717 -1.28929 0
M  V30 4357 N 407.773 -6.78182 -1.41567 0
M  V30 4358 N 409.566 -5.46415 -1.31859 0
M  V30 4359 H 401.717 -2.05574 0.534147 0
M  V30 4360 H 403.98 -0.931259 0.177372 0
M  V30 4361 H 403.686 -3.51635 0.0675598 0
M  V30 4362 H 403.56 -3.37859 -1.67724 0
M  V30 4363 H 405.947 -2.38833 -1.73329 0
M  V30 4364 H 406.028 -2.55787 0.0261185 0
M  V30 4365 H 405.672 -5.07413 -0.222335 0
M  V30 4366 H 405.602 -4.87499 -1.9913 0
M  V30 4367 H 408.093 -3.631 -1.04721 0
M  V30 4368 H 408.406 -7.57428 -1.53372 0
M  V30 4369 H 406.751 -6.81037 -1.38613 0
M  V30 4370 H 409.942 -4.5203 -1.21601 0
M  V30 4371 H 410.115 -6.31841 -1.43808 0
M  V30 4372 N 403.521 0.559213 -1.47345 0
M  V30 4373 C 404.746 1.34676 -1.57725 0
M  V30 4374 C 405.171 1.86723 -0.227164 0
M  V30 4375 O 404.529 1.6286 0.796642 0
M  V30 4376 C 404.577 2.49399 -2.60447 0
M  V30 4377 O 403.681 3.51567 -2.15578 0
M  V30 4378 H 403.022 0.400115 -0.52991 0
M  V30 4379 H 405.552 0.676009 -1.93109 0
M  V30 4380 H 405.562 2.95996 -2.80803 0
M  V30 4381 H 404.237 2.10873 -3.58477 0
M  V30 4382 H 402.814 3.11289 -2.05313 0
M  V30 4383 N 404.999 1.35443 0.805782 0
M  V30 4384 C 406.248 1.28097 1.55801 0
M  V30 4385 C 406.561 -0.142428 1.95081 0
M  V30 4386 O 407.767 -0.33817 2.69386 0
M  V30 4387 C 406.223 2.24653 2.81174 0
M  V30 4388 C 405.831 3.72342 2.49129 0
M  V30 4389 C 407.575 2.2625 3.59181 0
M  V30 4390 C 405.482 4.60719 3.70799 0
M  V30 4391 H 404.412 0.475937 0.584808 0
M  V30 4392 H 407.063 1.60712 0.885661 0
M  V30 4393 H 405.445 1.85011 3.50124 0
M  V30 4394 H 406.619 4.20624 1.88181 0
M  V30 4395 H 404.934 3.73361 1.84366 0
M  V30 4396 H 407.531 2.89495 4.49552 0
M  V30 4397 H 407.874 1.26647 3.96568 0
M  V30 4398 H 408.407 2.64426 2.97193 0
M  V30 4399 H 405.146 5.61324 3.3852 0
M  V30 4400 H 404.666 4.17163 4.3097 0
M  V30 4401 H 406.345 4.76182 4.38018 0
M  V30 4402 N 406.477 -1.02803 1.19454 0
M  V30 4403 C 407.707 -1.79581 1.02149 0
M  V30 4404 C 408.115 -1.84182 -0.432851 0
M  V30 4405 O 407.458 -1.28534 -1.31243 0
M  V30 4406 C 407.52 -3.25993 1.51554 0
M  V30 4407 C 407.184 -3.45025 2.99678 0
M  V30 4408 C 408.181 -3.35175 3.97434 0
M  V30 4409 C 405.866 -3.71212 3.38389 0
M  V30 4410 C 407.86 -3.51238 5.31893 0
M  V30 4411 C 405.547 -3.8692 4.73008 0
M  V30 4412 C 406.545 -3.76936 5.69569 0
M  V30 4413 O 406.233 -3.92179 7.01748 0
M  V30 4414 H 405.965 -0.571962 0.360327 0
M  V30 4415 H 408.519 -1.30367 1.58725 0
M  V30 4416 H 406.749 -3.76235 0.893543 0
M  V30 4417 H 408.438 -3.84368 1.30444 0
M  V30 4418 H 409.204 -3.14895 3.68872 0
M  V30 4419 H 405.083 -3.78075 2.6378 0
M  V30 4420 H 408.627 -3.43362 6.07247 0
M  V30 4421 H 404.524 -4.06699 5.01265 0
M  V30 4422 H 405.292 -4.09265 7.08833 0
M  V30 4423 N 407.956 -0.998596 -1.21925 0
M  V30 4424 C 408.866 -0.562736 -2.27751 0
M  V30 4425 C 409.882 0.391203 -1.69545 0
M  V30 4426 O 411.058 0.256625 -1.99758 0
M  V30 4427 C 408.123 0.11012 -3.46525 0
M  V30 4428 C 407.184 -0.887495 -4.20026 0
M  V30 4429 C 406.417 -0.246654 -5.3313 0
M  V30 4430 O 406.64 0.958088 -5.62296 0
M  V30 4431 O 405.574 -0.954374 -5.94286 0
M  V30 4432 H 409.4 -1.44329 -2.67213 0
M  V30 4433 H 406.985 -0.767135 -1.28201 0
M  V30 4434 H 408.867 0.486756 -4.18579 0
M  V30 4435 H 407.542 0.965154 -3.08976 0
M  V30 4436 H 406.449 -1.31517 -3.5022 0
M  V30 4437 H 407.782 -1.71191 -4.6147 0
M  V30 4438 N 409.434 1.37368 -0.772513 0
M  V30 4439 C 410.664 2.03647 -0.348082 0
M  V30 4440 C 411.072 1.58392 1.03482 0
M  V30 4441 O 410.415 0.760921 1.672 0
M  V30 4442 C 410.477 3.58131 -0.313404 0
M  V30 4443 C 410.141 4.2652 -1.64102 0
M  V30 4444 C 411.138 4.50587 -2.5936 0
M  V30 4445 C 408.823 4.64335 -1.91567 0
M  V30 4446 C 410.817 5.11526 -3.80289 0
M  V30 4447 C 408.504 5.24996 -3.12766 0
M  V30 4448 C 409.502 5.48529 -4.06946 0
M  V30 4449 O 409.19 6.07921 -5.26011 0
M  V30 4450 H 408.922 0.660538 -0.143753 0
M  V30 4451 H 411.476 1.76669 -1.04772 0
M  V30 4452 H 409.706 3.84159 0.442617 0
M  V30 4453 H 411.395 4.05813 0.0840613 0
M  V30 4454 H 412.161 4.21784 -2.39423 0
M  V30 4455 H 408.04 4.45353 -1.19088 0
M  V30 4456 H 411.584 5.29811 -4.53813 0
M  V30 4457 H 407.481 5.53223 -3.32588 0
M  V30 4458 H 408.249 6.26398 -5.26847 0
M  V30 4459 N 410.912 0.523116 1.48665 0
M  V30 4460 C 412.142 -0.00961724 2.06598 0
M  V30 4461 C 412.55 -1.29333 1.38093 0
M  V30 4462 O 411.893 -1.77846 0.46007 0
M  V30 4463 C 411.955 -0.311135 3.58151 0
M  V30 4464 C 411.619 0.878092 4.48485 0
M  V30 4465 C 412.616 1.77464 4.88674 0
M  V30 4466 C 410.301 1.08315 4.90483 0
M  V30 4467 C 412.295 2.86021 5.69623 0
M  V30 4468 C 409.982 2.17187 5.71203 0
M  V30 4469 C 410.98 3.05873 6.10681 0
M  V30 4470 O 410.668 4.12862 6.89783 0
M  V30 4471 H 410.4 0.0272658 0.67545 0
M  V30 4472 H 412.954 0.726156 1.92136 0
M  V30 4473 H 411.184 -1.10079 3.70701 0
M  V30 4474 H 412.873 -0.785125 3.98234 0
M  V30 4475 H 413.639 1.62813 4.56855 0
M  V30 4476 H 409.518 0.402149 4.59243 0
M  V30 4477 H 413.062 3.55272 6.00356 0
M  V30 4478 H 408.959 2.31824 6.02435 0
M  V30 4479 H 409.727 4.10487 7.08126 0
M  V30 4480 N 412.39 -1.55475 0.257931 0
M  V30 4481 C 413.34 -2.18506 -0.651094 0
M  V30 4482 C 414.324 -1.14431 -1.13112 0
M  V30 4483 O 415.516 -1.40305 -1.07905 0
M  V30 4484 C 412.645 -2.89653 -1.84272 0
M  V30 4485 C 411.731 -4.00996 -1.38068 0
M  V30 4486 N 412.122 -5.01816 -0.633609 0
M  V30 4487 C 410.42 -4.13753 -1.66506 0
M  V30 4488 C 411.121 -5.80371 -0.392922 0
M  V30 4489 N 410.097 -5.3505 -0.960359 0
M  V30 4490 H 413.899 -2.93811 -0.0722883 0
M  V30 4491 H 411.413 -1.62286 0.0607256 0
M  V30 4492 H 413.41 -3.33245 -2.50506 0
M  V30 4493 H 412.07 -2.15854 -2.42564 0
M  V30 4494 H 413.081 -5.17128 -0.282626 0
M  V30 4495 H 409.758 -3.51133 -2.25858 0
M  V30 4496 H 411.148 -6.7159 0.204235 0
M  V30 4497 N 413.868 0.0150385 -1.57593 0
M  V30 4498 C 414.831 0.995996 -2.06428 0
M  V30 4499 C 415.831 1.2818 -0.970903 0
M  V30 4500 O 417.021 1.22949 -1.23406 0
M  V30 4501 C 414.153 2.32506 -2.49307 0
M  V30 4502 H 415.346 0.573873 -2.94358 0
M  V30 4503 H 412.899 0.262186 -1.54085 0
M  V30 4504 H 413.634 2.79438 -1.64575 0
M  V30 4505 H 413.419 2.13087 -3.29145 0
M  V30 4506 H 414.909 3.02906 -2.87468 0
M  V30 4507 N 415.346 1.54954 0.287554 0
M  V30 4508 C 416.276 1.89839 1.35954 0
M  V30 4509 C 417.257 0.758675 1.52244 0
M  V30 4510 O 418.442 1.01557 1.65529 0
M  V30 4511 C 415.572 2.15753 2.72154 0
M  V30 4512 C 414.526 3.3159 2.70614 0
M  V30 4513 C 413.852 3.42952 4.10229 0
M  V30 4514 C 415.152 4.68359 2.31165 0
M  V30 4515 H 416.846 2.79625 1.07007 0
M  V30 4516 H 414.392 1.3454 0.513316 0
M  V30 4517 H 416.345 2.38743 3.47246 0
M  V30 4518 H 415.069 1.22752 3.02654 0
M  V30 4519 H 413.728 3.08545 1.97979 0
M  V30 4520 H 413.376 2.47443 4.37928 0
M  V30 4521 H 413.076 4.20826 4.10097 0
M  V30 4522 H 414.6 3.68218 4.87081 0
M  V30 4523 H 416.014 4.9099 2.95976 0
M  V30 4524 H 414.411 5.49044 2.42221 0
M  V30 4525 H 415.481 4.68165 1.26291 0
M  V30 4526 N 416.824 -0.551391 1.4764 0
M  V30 4527 C 418.101 -1.31229 1.45046 0
M  V30 4528 C 418.481 -2.10563 0.150527 0
M  V30 4529 O 417.829 -2.11374 -0.867956 0
M  V30 4530 C 418.039 -2.21189 2.69956 0
M  V30 4531 C 419.387 -2.82021 3.1741 0
M  V30 4532 O 420.411 -2.31488 2.70724 0
M  V30 4533 O 419.27 -3.73885 3.98588 0
M  V30 4534 H 416.364 -0.591193 0.578291 0
M  V30 4535 H 418.91 -0.569813 1.59847 0
M  V30 4536 H 417.682 -1.62207 3.56096 0
M  V30 4537 H 417.305 -3.02722 2.57769 0
M  V30 4538 N 418.302 -1.35869 -0.798587 0
M  V30 4539 C 419.527 -1.32883 -1.59238 0
M  V30 4540 C 419.952 0.0894587 -1.87887 0
M  V30 4541 O 419.31 1.05869 -1.47178 0
M  V30 4542 C 419.358 -2.14892 -2.89575 0
M  V30 4543 O 418.462 -1.53512 -3.82763 0
M  V30 4544 H 417.803 -0.455236 -0.48338 0
M  V30 4545 H 420.333 -1.79024 -0.990539 0
M  V30 4546 H 420.343 -2.27139 -3.38928 0
M  V30 4547 H 419.018 -3.17998 -2.68049 0
M  V30 4548 H 417.595 -1.50153 -3.41334 0
M  V30 4549 N 419.78 1.02168 -1.19998 0
M  V30 4550 C 421.057 1.72816 -0.916191 0
M  V30 4551 C 421.437 2.03081 0.576325 0
M  V30 4552 O 420.785 1.69122 1.53656 0
M  V30 4553 C 420.995 2.9997 -1.78378 0
M  V30 4554 C 422.343 3.73336 -2.02251 0
M  V30 4555 O 423.367 3.09914 -1.75589 0
M  V30 4556 O 422.226 4.87371 -2.47249 0
M  V30 4557 H 419.32 0.752924 -0.342103 0
M  V30 4558 H 421.866 1.08062 -1.30846 0
M  V30 4559 H 420.638 2.73888 -2.79466 0
M  V30 4560 H 420.261 3.72464 -1.39126 0
M  V30 4561 N 421.258 1.00505 1.21394 0
M  V30 4562 C 422.208 0.536503 2.21598 0
M  V30 4563 C 423.192 -0.401914 1.55799 0
M  V30 4564 O 424.384 -0.226757 1.75541 0
M  V30 4565 C 421.513 -0.135446 3.43033 0
M  V30 4566 C 420.599 0.823992 4.16018 0
M  V30 4567 N 420.99 1.97683 4.6557 0
M  V30 4568 C 419.288 0.642387 4.4135 0
M  V30 4569 C 419.989 2.58003 5.21354 0
M  V30 4570 N 418.965 1.86162 5.1073 0
M  V30 4571 H 422.767 1.41557 2.57563 0
M  V30 4572 H 420.281 0.868878 1.37202 0
M  V30 4573 H 422.278 -0.488584 4.14027 0
M  V30 4574 H 420.938 -1.01049 3.08576 0
M  V30 4575 H 421.949 2.3572 4.61147 0
M  V30 4576 H 418.626 -0.185578 4.17087 0
M  V30 4577 H 420.016 3.555 5.70149 0
M  V30 4578 N 422.737 -1.36956 0.779787 0
M  V30 4579 C 423.667 -2.32761 0.185651 0
M  V30 4580 C 424.648 -1.56177 -0.673989 0
M  V30 4581 O 425.833 -1.84378 -0.609797 0
M  V30 4582 C 422.963 -3.40418 -0.687964 0
M  V30 4583 C 421.917 -4.27941 0.0710102 0
M  V30 4584 C 421.243 -5.26681 -0.922573 0
M  V30 4585 C 422.543 -5.07006 1.25467 0
M  V30 4586 H 424.237 -2.82698 0.986008 0
M  V30 4587 H 421.783 -1.3592 0.475592 0
M  V30 4588 H 423.736 -4.06423 -1.11348 0
M  V30 4589 H 422.46 -2.89025 -1.52093 0
M  V30 4590 H 421.119 -3.63478 0.47739 0
M  V30 4591 H 420.767 -4.71565 -1.7503 0
M  V30 4592 H 420.467 -5.86103 -0.419237 0
M  V30 4593 H 421.991 -5.9556 -1.34686 0
M  V30 4594 H 423.405 -5.66105 0.905401 0
M  V30 4595 H 421.802 -5.75793 1.69063 0
M  V30 4596 H 422.872 -4.3921 2.05481 0
M  V30 4597 N 424.215 -0.530993 -1.48385 0
M  V30 4598 C 425.443 -0.00134122 -2.069 0
M  V30 4599 C 425.858 1.2805 -1.3874 0
M  V30 4600 O 425.215 1.76204 -0.475244 0
M  V30 4601 C 425.266 0.225256 -3.60798 0
M  V30 4602 O 424.987 -1.0058 -4.26398 0
M  V30 4603 C 426.488 0.795172 -4.3611 0
M  V30 4604 H 423.708 -0.0339704 -0.67014 0
M  V30 4605 H 426.252 -0.736926 -1.90761 0
M  V30 4606 H 424.407 0.910891 -3.76539 0
M  V30 4607 H 424.821 -0.787165 -5.1856 0
M  V30 4608 H 426.295 0.903143 -5.44562 0
M  V30 4609 H 426.772 1.80031 -4.00606 0
M  V30 4610 H 427.378 0.146069 -4.25049 0
M  V30 4611 N 425.693 1.55336 -0.266172 0
M  V30 4612 C 426.64 2.22172 0.625165 0
M  V30 4613 C 427.61 1.19211 1.15663 0
M  V30 4614 O 428.795 1.47723 1.20758 0
M  V30 4615 C 425.935 2.93972 1.8076 0
M  V30 4616 C 425.048 4.11632 1.31084 0
M  V30 4617 C 424.183 4.71099 2.45436 0
M  V30 4618 C 423.222 5.8097 1.92718 0
M  V30 4619 N 422.359 6.34538 3.00509 0
M  V30 4620 H 427.199 2.9796 0.0485582 0
M  V30 4621 H 424.736 1.47095 0.0122024 0
M  V30 4622 H 426.694 3.33811 2.50251 0
M  V30 4623 H 425.324 2.20623 2.35638 0
M  V30 4624 H 424.376 3.76975 0.509326 0
M  V30 4625 H 425.688 4.90893 0.884633 0
M  V30 4626 H 424.842 5.13612 3.22936 0
M  V30 4627 H 423.581 3.91096 2.91368 0
M  V30 4628 H 422.586 5.37916 1.13695 0
M  V30 4629 H 423.811 6.62836 1.47733 0
M  V30 4630 H 421.757 5.57433 3.45839 0
M  V30 4631 H 421.674 7.09046 2.62279 0
M  V30 4632 H 422.942 6.81709 3.78011 0
M  V30 4633 N 427.171 -0.0066808 1.57599 0
M  V30 4634 C 428.399 -0.704087 1.94551 0
M  V30 4635 C 428.814 -1.67677 0.867746 0
M  V30 4636 O 428.171 -1.8185 -0.153925 0
M  V30 4637 C 428.222 -1.44177 3.31505 0
M  V30 4638 O 427.943 -0.508097 4.35144 0
M  V30 4639 C 429.444 -2.23429 3.82876 0
M  V30 4640 H 426.664 -0.196523 0.641576 0
M  V30 4641 H 429.208 0.042453 2.04456 0
M  V30 4642 H 427.363 -2.13999 3.22929 0
M  V30 4643 H 427.777 -1.02782 5.14331 0
M  V30 4644 H 429.251 -2.70552 4.8115 0
M  V30 4645 H 429.728 -3.05818 3.15233 0
M  V30 4646 H 430.334 -1.58636 3.94607 0
M  V30 4647 N 428.649 -1.55105 -0.279332 0
M  V30 4648 C 429.599 -1.83937 -1.34727 0
M  V30 4649 C 430.583 -0.69785 -1.44979 0
M  V30 4650 O 431.775 -0.95904 -1.48766 0
M  V30 4651 C 428.904 -2.1092 -2.70864 0
M  V30 4652 C 427.99 -3.31314 -2.64748 0
M  V30 4653 N 428.381 -4.51371 -2.2825 0
M  V30 4654 C 426.679 -3.33777 -2.95819 0
M  V30 4655 C 427.38 -5.33447 -2.31969 0
M  V30 4656 N 426.356 -4.71697 -2.7019 0
M  V30 4657 H 430.158 -2.74309 -1.05506 0
M  V30 4658 H 427.672 -1.54896 -0.487959 0
M  V30 4659 H 429.669 -2.2973 -3.47893 0
M  V30 4660 H 428.329 -1.21828 -3.00979 0
M  V30 4661 H 429.34 -4.77584 -2.00335 0
M  V30 4662 H 426.017 -2.54858 -3.30687 0
M  V30 4663 H 427.407 -6.39424 -2.06365 0
M  V30 4664 N 430.127 0.543554 -1.4793 0
M  V30 4665 C 431.077 1.64527 -1.57844 0
M  V30 4666 C 432.061 1.54869 -0.436408 0
M  V30 4667 O 433.253 1.63119 -0.687101 0
M  V30 4668 C 430.382 3.03281 -1.6086 0
M  V30 4669 C 429.468 3.18093 -2.80495 0
M  V30 4670 N 429.859 3.02923 -4.05057 0
M  V30 4671 C 428.157 3.49121 -2.77543 0
M  V30 4672 C 428.858 3.20791 -4.85251 0
M  V30 4673 N 427.834 3.47749 -4.17818 0
M  V30 4674 H 431.636 1.51388 -2.5191 0
M  V30 4675 H 429.15 0.748671 -1.44113 0
M  V30 4676 H 431.147 3.82403 -1.66054 0
M  V30 4677 H 429.807 3.17521 -0.678996 0
M  V30 4678 H 430.818 2.79966 -4.35705 0
M  V30 4679 H 427.495 3.69804 -1.93781 0
M  V30 4680 H 428.885 3.13915 -5.9406 0
M  V30 4681 N 431.605 1.3629 0.791371 0
M  V30 4682 C 432.882 1.20962 1.53712 0
M  V30 4683 C 433.262 -0.205021 2.10102 0
M  V30 4684 O 432.61 -1.21042 1.93807 0
M  V30 4685 C 432.82 2.29002 2.63361 0
M  V30 4686 C 434.168 2.65572 3.31295 0
M  V30 4687 O 435.192 2.2803 2.73643 0
M  V30 4688 O 434.051 3.3018 4.35481 0
M  V30 4689 H 431.145 0.47086 0.679867 0
M  V30 4690 H 433.691 1.48016 0.830021 0
M  V30 4691 H 432.463 3.2382 2.19674 0
M  V30 4692 H 432.086 2.03303 3.41692 0
M  V30 4693 N 433.083 -1.0153 1.20538 0
M  V30 4694 C 434.016 -2.09759 0.898695 0
M  V30 4695 C 434.994 -1.61909 -0.149733 0
M  V30 4696 O 436.178 -1.88486 -0.0230293 0
M  V30 4697 C 433.305 -3.36913 0.347512 0
M  V30 4698 C 432.351 -4.03655 1.37713 0
M  V30 4699 S 433.184 -4.47402 2.94265 0
M  V30 4700 C 434.34 -5.77756 2.40726 0
M  V30 4701 H 434.573 -2.3545 1.81523 0
M  V30 4702 H 432.106 -1.14665 1.03399 0
M  V30 4703 H 434.064 -4.10484 0.0360518 0
M  V30 4704 H 432.725 -3.09291 -0.547546 0
M  V30 4705 H 431.918 -4.9514 0.940872 0
M  V30 4706 H 431.52 -3.36313 1.63614 0
M  V30 4707 H 433.812 -6.52994 1.80569 0
M  V30 4708 H 434.755 -6.2618 3.30612 0
M  V30 4709 H 435.163 -5.34081 1.82806 0
M  V30 4710 N 434.561 -1.01147 -1.20859 0
M  V30 4711 C 435.808 -0.697865 -1.90095 0
M  V30 4712 C 436.136 0.772014 -1.78522 0
M  V30 4713 O 435.391 1.57595 -1.16027 0
M  V30 4714 C 435.69 -1.0727 -3.40922 0
M  V30 4715 C 435.356 -2.53792 -3.72693 0
M  V30 4716 C 434.018 -2.93829 -3.81075 0
M  V30 4717 C 436.37 -3.48674 -3.87397 0
M  V30 4718 C 433.698 -4.27696 -4.01613 0
M  V30 4719 C 436.05 -4.82223 -4.09444 0
M  V30 4720 C 434.714 -5.21973 -4.16054 0
M  V30 4721 H 433.984 -0.255367 -0.695607 0
M  V30 4722 H 436.631 -1.27111 -1.43231 0
M  V30 4723 H 434.936 -0.417799 -3.89566 0
M  V30 4724 H 436.633 -0.807818 -3.92779 0
M  V30 4725 H 433.223 -2.21768 -3.66765 0
M  V30 4726 H 437.407 -3.18904 -3.80281 0
M  V30 4727 H 432.663 -4.58055 -4.04964 0
M  V30 4728 H 436.837 -5.55672 -4.19763 0
M  V30 4729 H 434.464 -6.25717 -4.31721 0
M  V30 4730 N 436.039 1.36541 -0.78704 0
M  V30 4731 C 437.267 2.03561 -0.370199 0
M  V30 4732 C 437.682 1.59347 1.01263 0
M  V30 4733 O 437.039 0.781781 1.64907 0
M  V30 4734 C 437.09 3.59033 -0.421614 0
M  V30 4735 O 436.811 4.01634 -1.7499 0
M  V30 4736 C 438.312 4.433 0.00489763 0
M  V30 4737 H 435.532 0.653346 -0.152904 0
M  V30 4738 H 438.076 1.74566 -1.06522 0
M  V30 4739 H 436.231 3.86746 0.224971 0
M  V30 4740 H 436.645 4.96217 -1.69909 0
M  V30 4741 H 438.119 5.51939 -0.0822184 0
M  V30 4742 H 438.596 4.26285 1.05723 0
M  V30 4743 H 439.202 4.20843 -0.614085 0
M  V30 4744 N 437.518 0.538854 1.48102 0
M  V30 4745 C 438.465 -0.219042 2.29758 0
M  V30 4746 C 439.435 -0.925562 1.37922 0
M  V30 4747 O 440.62 -0.924855 1.66886 0
M  V30 4748 C 437.76 -1.25452 3.2149 0
M  V30 4749 C 436.873 -0.555943 4.28408 0
M  V30 4750 C 436.008 -1.57512 5.0731 0
M  V30 4751 C 435.047 -0.860498 6.06021 0
M  V30 4752 N 434.184 -1.82564 6.77949 0
M  V30 4753 H 439.024 0.483449 2.94052 0
M  V30 4754 H 436.561 0.250247 1.44956 0
M  V30 4755 H 438.519 -1.86727 3.7308 0
M  V30 4756 H 437.149 -1.92528 2.591 0
M  V30 4757 H 436.201 0.170938 3.80016 0
M  V30 4758 H 437.513 0.00474616 4.988 0
M  V30 4759 H 436.667 -2.26191 5.62959 0
M  V30 4760 H 435.406 -2.16972 4.36778 0
M  V30 4761 H 434.411 -0.159686 5.49568 0
M  V30 4762 H 435.636 -0.271897 6.78555 0
M  V30 4763 H 433.582 -2.40915 6.10161 0
M  V30 4764 H 433.499 -1.31662 7.44447 0
M  V30 4765 H 434.767 -2.50414 7.38182 0
M  V30 4766 N 438.996 -1.55193 0.274407 0
M  V30 4767 C 440.244 -1.99187 -0.341902 0
M  V30 4768 C 440.565 -1.16422 -1.56431 0
M  V30 4769 O 439.835 -0.253573 -1.94252 0
M  V30 4770 H 438.415 -0.735721 -0.129317 0
M  V30 4771 H 441.077 -1.91168 0.379578 0
M  V30 4772 H 440.173 -3.05629 -0.632253 0
M  V30 4773 N 440.474 -0.00167713 -1.576 0
M  V30 4774 C 441.406 1.0174 -2.05382 0
M  V30 4775 C 442.419 1.30595 -0.972052 0
M  V30 4776 O 443.608 1.27542 -1.24882 0
M  V30 4777 C 440.708 2.35174 -2.44022 0
M  V30 4778 C 439.881 2.25234 -3.74951 0
M  V30 4779 C 438.94 3.4137 -4.00441 0
M  V30 4780 O 437.966 3.19483 -4.71083 0
M  V30 4781 N 439.168 4.64275 -3.48467 0
M  V30 4782 H 441.933 0.609902 -2.93428 0
M  V30 4783 H 439.494 0.185672 -1.60832 0
M  V30 4784 H 441.486 3.11643 -2.58187 0
M  V30 4785 H 440.056 2.67659 -1.61485 0
M  V30 4786 H 439.276 1.33664 -3.70847 0
M  V30 4787 H 440.564 2.15767 -4.60784 0
M  V30 4788 H 439.962 4.84955 -2.91264 0
M  V30 4789 H 438.519 5.38005 -3.67959 0
M  V30 4790 N 441.952 1.55251 0.271103 0
M  V30 4791 C 443.198 1.76207 1.00394 0
M  V30 4792 C 443.531 0.562604 1.85872 0
M  V30 4793 O 442.806 -0.439785 1.89463 0
M  V30 4794 C 443.089 3.06828 1.8849 0
M  V30 4795 C 442.942 4.37134 1.05992 0
M  V30 4796 C 444.261 3.33503 2.87165 0
M  V30 4797 H 441.38 0.641086 0.363562 0
M  V30 4798 H 444.022 1.87982 0.276189 0
M  V30 4799 H 442.172 2.96921 2.5054 0
M  V30 4800 H 443.844 4.59001 0.459978 0
M  V30 4801 H 442.087 4.32275 0.363443 0
M  V30 4802 H 442.758 5.2486 1.70955 0
M  V30 4803 H 445.234 3.43215 2.3525 0
M  V30 4804 H 444.11 4.2616 3.45946 0
M  V30 4805 H 444.371 2.53235 3.62387 0
M  V30 4806 N 443.43 -0.535701 1.48216 0
M  V30 4807 C 444.658 -1.31671 1.59594 0
M  V30 4808 C 445.073 -1.87083 0.254056 0
M  V30 4809 O 444.43 -1.66112 -0.755854 0
M  V30 4810 C 444.481 -2.47158 2.63809 0
M  V30 4811 O 444.202 -1.94032 3.92789 0
M  V30 4812 C 445.703 -3.39062 2.85573 0
M  V30 4813 H 442.923 -0.400623 0.538277 0
M  V30 4814 H 445.467 -0.646827 1.94001 0
M  V30 4815 H 443.622 -3.10043 2.32276 0
M  V30 4816 H 444.036 -2.69585 4.49916 0
M  V30 4817 H 445.51 -4.16459 3.62306 0
M  V30 4818 H 445.987 -3.93941 1.94184 0
M  V30 4819 H 446.593 -2.81975 3.18387 0
M  V30 4820 N 444.908 -1.36708 -0.784132 0
M  V30 4821 C 446.136 -1.34398 -1.57305 0
M  V30 4822 C 446.551 0.0735577 -1.88657 0
M  V30 4823 O 445.908 1.03193 -1.50524 0
M  V30 4824 C 445.959 -2.17053 -2.89085 0
M  V30 4825 O 445.68 -3.53281 -2.59083 0
M  V30 4826 C 447.181 -2.22583 -3.83369 0
M  V30 4827 H 444.401 -0.460819 -0.487736 0
M  V30 4828 H 446.945 -1.79879 -0.972819 0
M  V30 4829 H 445.1 -1.75113 -3.45564 0
M  V30 4830 H 445.514 -3.9647 -3.43383 0
M  V30 4831 H 446.988 -2.84763 -4.72878 0
M  V30 4832 H 447.465 -1.23075 -4.21603 0
M  V30 4833 H 448.071 -2.64781 -3.32823 0
M  V30 4834 N 446.386 1.0089 -1.21074 0
M  V30 4835 C 447.634 1.74262 -1.02358 0
M  V30 4836 C 447.955 1.89869 0.444393 0
M  V30 4837 O 447.225 1.44677 1.32081 0
M  V30 4838 H 445.805 0.645615 -0.375754 0
M  V30 4839 H 448.467 1.21596 -1.52317 0
M  V30 4840 H 447.563 2.74328 -1.4883 0
M  V30 4841 N 447.864 1.01787 1.20321 0
M  V30 4842 C 448.796 0.547357 2.22568 0
M  V30 4843 C 449.809 -0.370922 1.58518 0
M  V30 4844 O 450.998 -0.169067 1.77698 0
M  V30 4845 C 448.098 -0.223031 3.38165 0
M  V30 4846 C 447.271 0.697472 4.31803 0
M  V30 4847 C 446.33 -0.025562 5.26194 0
M  V30 4848 O 445.356 0.597367 5.66057 0
M  V30 4849 N 446.558 -1.29999 5.65757 0
M  V30 4850 H 449.323 1.42668 2.63564 0
M  V30 4851 H 446.884 0.895552 1.34876 0
M  V30 4852 H 448.876 -0.716002 3.98316 0
M  V30 4853 H 447.446 -1.00366 2.9605 0
M  V30 4854 H 446.666 1.37073 3.69601 0
M  V30 4855 H 447.954 1.32347 4.91286 0
M  V30 4856 H 447.352 -1.827 5.35385 0
M  V30 4857 H 445.909 -1.73766 6.28211 0
M  V30 4858 N 449.342 -1.36122 0.79427 0
M  V30 4859 C 450.572 -2.03067 0.380437 0
M  V30 4860 C 450.98 -1.60018 -1.00949 0
M  V30 4861 O 450.323 -0.787425 -1.65968 0
M  V30 4862 C 450.385 -3.57587 0.37034 0
M  V30 4863 C 450.049 -4.23855 1.70867 0
M  V30 4864 C 451.046 -4.46404 2.66496 0
M  V30 4865 C 448.731 -4.61229 1.9893 0
M  V30 4866 C 450.725 -5.05412 3.88378 0
M  V30 4867 C 448.412 -5.19953 3.21079 0
M  V30 4868 C 449.41 -5.41985 4.15621 0
M  V30 4869 O 449.098 -5.99475 5.35616 0
M  V30 4870 H 448.83 -0.658168 0.154243 0
M  V30 4871 H 451.384 -1.7498 1.0757 0
M  V30 4872 H 449.614 -3.84814 -0.381444 0
M  V30 4873 H 451.303 -4.05895 -0.0194894 0
M  V30 4874 H 452.069 -4.17921 2.46103 0
M  V30 4875 H 447.948 -4.43402 1.26158 0
M  V30 4876 H 451.492 -5.22524 4.62185 0
M  V30 4877 H 447.389 -5.47862 3.41347 0
M  V30 4878 H 448.157 -6.17937 5.36745 0
M  V30 4879 N 450.82 -0.546701 -1.47814 0
M  V30 4880 C 452.236 -0.205717 -1.58269 0
M  V30 4881 C 452.436 1.29153 -1.54667 0
M  V30 4882 O 451.492 2.07098 -1.44453 0
M  V30 4883 C 452.805 -0.823065 -2.89216 0
M  V30 4884 C 454.353 -0.793328 -3.02779 0
M  V30 4885 C 454.828 -1.38955 -4.36412 0
M  V30 4886 N 456.319 -1.35227 -4.43021 0
M  V30 4887 C 457.054 -1.78333 -5.44963 0
M  V30 4888 N 456.55 -2.29246 -6.53772 0
M  V30 4889 N 458.343 -1.69467 -5.35945 0
M  V30 4890 H 450.494 -1.5196 -1.48398 0
M  V30 4891 H 452.757 -0.633078 -0.705632 0
M  V30 4892 H 452.463 -1.8749 -2.97558 0
M  V30 4893 H 452.337 -0.309915 -3.75925 0
M  V30 4894 H 454.724 0.249784 -2.94041 0
M  V30 4895 H 454.805 -1.34412 -2.17639 0
M  V30 4896 H 454.449 -2.43168 -4.45906 0
M  V30 4897 H 454.379 -0.814291 -5.20266 0
M  V30 4898 H 456.87 -0.979739 -3.64979 0
M  V30 4899 H 457.183 -2.60089 -7.27718 0
M  V30 4900 H 455.528 -2.3325 -6.5469 0
M  V30 4901 H 458.719 -1.29477 -4.49837 0
M  V30 4902 H 458.892 -2.03381 -6.15256 0
M  V30 4903 N 452.299 1.55045 -0.282633 0
M  V30 4904 C 453.232 2.18951 0.64311 0
M  V30 4905 C 454.21 1.15287 1.14664 0
M  V30 4906 O 455.394 1.43846 1.21822 0
M  V30 4907 C 452.521 2.81874 1.87789 0
M  V30 4908 C 451.567 3.98906 1.50919 0
M  V30 4909 S 452.4 5.3234 0.580884 0
M  V30 4910 C 453.556 5.98737 1.82387 0
M  V30 4911 H 453.789 2.97131 0.100138 0
M  V30 4912 H 451.322 1.54255 -0.0668514 0
M  V30 4913 H 453.28 3.18757 2.58658 0
M  V30 4914 H 451.941 2.03573 2.392 0
M  V30 4915 H 451.134 4.4165 2.42819 0
M  V30 4916 H 450.736 3.63485 0.88061 0
M  V30 4917 H 453.028 6.18427 2.76684 0
M  V30 4918 H 453.971 6.93318 1.4393 0
M  V30 4919 H 454.379 5.28177 1.99223 0
M  V30 4920 N 453.777 0.010035 1.57597 0
M  V30 4921 C 454.707 -0.976857 2.12084 0
M  V30 4922 C 455.688 -1.35191 1.03235 0
M  V30 4923 O 456.873 -1.43389 1.3097 0
M  V30 4924 C 454.003 -2.26548 2.63236 0
M  V30 4925 C 452.957 -2.03175 3.76701 0
M  V30 4926 C 452.283 -3.38138 4.14206 0
M  V30 4927 C 453.583 -1.38625 5.03568 0
M  V30 4928 H 455.277 -0.523145 2.94794 0
M  V30 4929 H 452.823 -0.250195 1.4181 0
M  V30 4930 H 454.776 -2.95952 2.99984 0
M  V30 4931 H 453.5 -2.74051 1.77661 0
M  V30 4932 H 452.159 -1.36195 3.40362 0
M  V30 4933 H 451.807 -3.83363 3.25641 0
M  V30 4934 H 451.507 -3.23312 4.90656 0
M  V30 4935 H 453.031 -4.08841 4.53521 0
M  V30 4936 H 454.445 -1.98 5.38023 0
M  V30 4937 H 452.842 -1.34256 5.84889 0
M  V30 4938 H 453.912 -0.356722 4.83586 0
M  V30 4939 N 455.255 -1.55392 -0.262866 0
M  V30 4940 C 456.218 -1.88181 -1.30846 0
M  V30 4941 C 457.218 -0.757079 -1.41862 0
M  V30 4942 O 458.408 -1.02519 -1.40838 0
M  V30 4943 C 455.54 -2.09609 -2.68844 0
M  V30 4944 H 456.733 -2.81659 -1.02997 0
M  V30 4945 H 454.286 -1.48039 -0.501414 0
M  V30 4946 H 455.021 -1.18547 -3.01856 0
M  V30 4947 H 454.806 -2.91508 -2.62231 0
M  V30 4948 H 456.296 -2.36215 -3.44372 0
M  V30 4949 N 456.733 0.527833 -1.48498 0
M  V30 4950 C 457.68 1.6322 -1.6318 0
M  V30 4951 C 458.65 1.59199 -0.473815 0
M  V30 4952 O 459.835 1.77591 -0.697563 0
M  V30 4953 C 456.975 3.01474 -1.67951 0
M  V30 4954 C 456.088 3.15713 -2.94871 0
M  V30 4955 C 455.223 4.44539 -2.90789 0
M  V30 4956 C 454.262 4.52315 -4.12404 0
M  V30 4957 N 453.399 5.72533 -4.06387 0
M  V30 4958 H 458.239 1.50011 -2.57489 0
M  V30 4959 H 455.776 0.730298 -1.27691 0
M  V30 4960 H 457.734 3.81572 -1.68698 0
M  V30 4961 H 456.364 3.1345 -0.771306 0
M  V30 4962 H 455.416 2.28854 -3.03859 0
M  V30 4963 H 456.728 3.1732 -3.8485 0
M  V30 4964 H 455.882 5.3293 -2.89949 0
M  V30 4965 H 454.621 4.45457 -1.98542 0
M  V30 4966 H 453.626 3.62331 -4.13517 0
M  V30 4967 H 454.851 4.53134 -5.05812 0
M  V30 4968 H 452.797 5.74344 -3.16962 0
M  V30 4969 H 452.714 5.75643 -4.90073 0
M  V30 4970 H 453.982 6.63204 -4.0961 0
M  V30 4971 N 458.211 1.37122 0.776871 0
M  V30 4972 C 459.627 1.1781 1.07671 0
M  V30 4973 C 459.827 0.0107454 2.01497 0
M  V30 4974 O 458.883 -0.650756 2.4397 0
M  V30 4975 C 460.196 2.49451 1.67913 0
M  V30 4976 C 461.744 2.55927 1.80195 0
M  V30 4977 C 462.219 3.87686 2.43851 0
M  V30 4978 N 463.71 3.891 2.51307 0
M  V30 4979 C 464.445 4.87797 3.014 0
M  V30 4980 N 463.941 5.96888 3.51705 0
M  V30 4981 N 465.734 4.75205 3.00227 0
M  V30 4982 H 457.885 2.11843 0.153778 0
M  V30 4983 H 460.148 0.938927 0.130844 0
M  V30 4984 H 459.854 3.35207 1.06439 0
M  V30 4985 H 459.728 2.66169 2.67271 0
M  V30 4986 H 462.115 1.70582 2.40803 0
M  V30 4987 H 462.196 2.43097 0.796069 0
M  V30 4988 H 461.84 4.73444 1.83884 0
M  V30 4989 H 461.77 3.97817 3.45035 0
M  V30 4990 H 464.261 3.10293 2.157 0
M  V30 4991 H 464.574 6.68155 3.88316 0
M  V30 4992 H 462.919 6.0054 3.49824 0
M  V30 4993 H 466.11 3.89103 2.60224 0
M  V30 4994 H 466.283 5.52279 3.38957 0
M  V30 4995 N 459.689 -1.00246 1.21608 0
M  V30 4996 C 460.937 -1.73717 1.0328 0
M  V30 4997 C 461.258 -1.90102 -0.434318 0
M  V30 4998 O 460.528 -1.45376 -1.31311 0
M  V30 4999 H 459.108 -0.643613 0.379172 0
M  V30 5000 H 461.77 -1.20787 1.52959 0
M  V30 5001 H 460.866 -2.73535 1.50283 0
M  V30 5002 N 461.167 -1.02423 -1.1978 0
M  V30 5003 C 462.415 -0.716569 -1.8897 0
M  V30 5004 C 462.736 0.756769 -1.79716 0
M  V30 5005 O 462.006 1.5449 -1.20456 0
M  V30 5006 H 460.586 -0.262062 -0.699523 0
M  V30 5007 H 463.248 -1.29747 -1.45436 0
M  V30 5008 H 462.344 -1.00675 -2.95417 0
M  V30 5009 N 462.645 1.35699 -0.801477 0
M  V30 5010 C 463.875 2.02862 -0.3912 0
M  V30 5011 C 464.283 1.60552 1.00099 0
M  V30 5012 O 463.626 0.796215 1.65548 0
M  V30 5013 C 463.688 3.57386 -0.389299 0
M  V30 5014 C 463.352 4.22943 -1.73113 0
M  V30 5015 C 464.349 4.44984 -2.68859 0
M  V30 5016 C 462.034 4.60167 -2.01373 0
M  V30 5017 C 464.028 5.03345 -3.91053 0
M  V30 5018 C 461.715 5.18243 -3.23832 0
M  V30 5019 C 462.713 5.39773 -4.1849 0
M  V30 5020 O 462.401 5.96626 -5.38788 0
M  V30 5021 H 462.133 0.657341 -0.157732 0
M  V30 5022 H 464.687 1.74407 -1.08496 0
M  V30 5023 H 462.917 3.85011 0.361031 0
M  V30 5024 H 464.606 4.059 -0.0020365 0
M  V30 5025 H 465.372 4.1661 -2.48316 0
M  V30 5026 H 461.251 4.42726 -1.28508 0
M  V30 5027 H 464.795 5.20065 -4.64949 0
M  V30 5028 H 460.692 5.46044 -3.44248 0
M  V30 5029 H 461.46 6.15082 -5.40015 0
M  V30 5030 N 464.123 0.554532 1.47522 0
M  V30 5031 C 465.369 0.0295227 2.02779 0
M  V30 5032 C 465.702 -1.31582 1.42828 0
M  V30 5033 O 464.977 -1.85561 0.582872 0
M  V30 5034 C 465.26 -0.0664057 3.60039 0
M  V30 5035 C 465.113 1.30585 4.30427 0
M  V30 5036 C 466.432 -0.781162 4.33112 0
M  V30 5037 H 463.551 0.0122027 0.736899 0
M  V30 5038 H 466.193 0.716305 1.7598 0
M  V30 5039 H 464.343 -0.651307 3.83002 0
M  V30 5040 H 466.015 1.93374 4.18813 0
M  V30 5041 H 464.258 1.88125 3.90886 0
M  V30 5042 H 464.929 1.19147 5.38988 0
M  V30 5043 H 467.405 -0.284565 4.15126 0
M  V30 5044 H 466.281 -0.817237 5.42782 0
M  V30 5045 H 466.542 -1.83672 4.0214 0
M  V30 5046 N 465.601 -1.54893 0.290851 0
M  V30 5047 C 466.847 -2.00949 -0.314784 0
M  V30 5048 C 467.202 -1.1757 -1.52299 0
M  V30 5049 O 466.495 -0.241558 -1.90071 0
M  V30 5050 C 466.689 -3.49815 -0.732397 0
M  V30 5051 C 466.518 -4.47603 0.433799 0
M  V30 5052 C 465.288 -4.96806 0.922599 0
M  V30 5053 C 467.486 -4.98233 1.27546 0
M  V30 5054 N 465.468 -5.78426 2.05662 0
M  V30 5055 C 466.839 -5.77455 2.25712 0
M  V30 5056 C 468.894 -4.80439 1.307 0
M  V30 5057 C 467.597 -6.40778 3.26796 0
M  V30 5058 C 469.623 -5.44574 2.30637 0
M  V30 5059 C 468.985 -6.23619 3.27533 0
M  V30 5060 H 465.084 -0.777905 -0.0799257 0
M  V30 5061 H 467.668 -1.9015 0.418458 0
M  V30 5062 H 465.839 -3.60925 -1.43483 0
M  V30 5063 H 467.571 -3.82681 -1.31671 0
M  V30 5064 H 464.326 -4.70961 0.49926 0
M  V30 5065 H 464.75 -6.23923 2.62772 0
M  V30 5066 H 469.392 -4.18918 0.571622 0
M  V30 5067 H 467.11 -7.01439 4.01258 0
M  V30 5068 H 470.696 -5.32739 2.33838 0
M  V30 5069 H 469.576 -6.72367 4.03599 0
M  V30 5070 N 467.08 -0.0183926 -1.57589 0
M  V30 5071 C 468.326 0.663543 -1.91638 0
M  V30 5072 C 468.659 1.72392 -0.894134 0
M  V30 5073 O 467.934 1.94316 0.0846449 0
M  V30 5074 C 468.217 1.28984 -3.36207 0
M  V30 5075 C 468.07 0.239761 -4.49161 0
M  V30 5076 C 469.389 2.2109 -3.80536 0
M  V30 5077 H 466.508 0.239746 -0.696915 0
M  V30 5078 H 469.15 -0.073456 -1.89858 0
M  V30 5079 H 467.3 1.91799 -3.37854 0
M  V30 5080 H 468.972 -0.390119 -4.59647 0
M  V30 5081 H 467.215 -0.435972 -4.31604 0
M  V30 5082 H 467.886 0.717383 -5.47319 0
M  V30 5083 H 470.362 1.68273 -3.80557 0
M  V30 5084 H 469.238 2.61869 -4.82406 0
M  V30 5085 H 469.499 3.09764 -3.15434 0
M  V30 5086 N 468.558 1.5553 0.254621 0
M  V30 5087 C 469.468 1.92789 1.33677 0
M  V30 5088 C 470.484 0.827356 1.53071 0
M  V30 5089 O 471.66 1.12807 1.66843 0
M  V30 5090 C 468.725 2.20827 2.67275 0
M  V30 5091 C 467.786 3.4427 2.5647 0
M  V30 5092 C 467.019 3.70961 3.83697 0
M  V30 5093 O 467.242 2.99852 4.85227 0
M  V30 5094 O 466.176 4.64491 3.82794 0
M  V30 5095 H 470.002 2.84945 1.05071 0
M  V30 5096 H 467.587 1.42312 0.454723 0
M  V30 5097 H 469.469 2.40204 3.46237 0
M  V30 5098 H 468.144 1.31851 2.9563 0
M  V30 5099 H 467.051 3.30209 1.75821 0
M  V30 5100 H 468.384 4.33524 2.33062 0
M  V30 5101 N 470.036 -0.519951 1.48776 0
M  V30 5102 C 471.264 -1.29971 1.60982 0
M  V30 5103 C 471.679 -1.86803 0.273885 0
M  V30 5104 O 471.036 -1.66904 -0.738193 0
M  V30 5105 C 471.087 -2.44346 2.66415 0
M  V30 5106 O 470.808 -1.89855 3.94825 0
M  V30 5107 C 472.309 -3.36014 2.89153 0
M  V30 5108 H 469.529 -0.394891 0.542496 0
M  V30 5109 H 472.073 -0.626214 1.94676 0
M  V30 5110 H 470.228 -3.07562 2.35552 0
M  V30 5111 H 470.642 -2.64798 4.5275 0
M  V30 5112 H 472.116 -4.12593 3.66703 0
M  V30 5113 H 472.593 -3.91859 1.98351 0
M  V30 5114 H 473.199 -2.78582 3.21359 0
M  V30 5115 N 471.514 -1.37532 -0.769588 0
M  V30 5116 C 472.446 -1.29347 -1.89214 0
M  V30 5117 C 473.459 -0.208842 -1.61455 0
M  V30 5118 O 474.648 -0.465158 -1.72333 0
M  V30 5119 C 471.748 -0.977649 -3.24492 0
M  V30 5120 C 470.921 -2.16817 -3.7988 0
M  V30 5121 C 469.98 -1.82229 -4.93639 0
M  V30 5122 O 469.006 -2.54548 -5.09111 0
M  V30 5123 N 470.208 -0.767696 -5.75401 0
M  V30 5124 H 472.973 -2.26073 -1.96751 0
M  V30 5125 H 470.534 -1.31185 -0.948795 0
M  V30 5126 H 472.526 -0.727065 -3.98115 0
M  V30 5127 H 471.096 -0.0988777 -3.12444 0
M  V30 5128 H 470.316 -2.58038 -2.9801 0
M  V30 5129 H 471.604 -2.96308 -4.13617 0
M  V30 5130 H 471.002 -0.167626 -5.65452 0
M  V30 5131 H 469.559 -0.576973 -6.49241 0
M  V30 5132 N 472.992 0.995999 -1.22138 0
M  V30 5133 C 473.955 2.06711 -0.990109 0
M  V30 5134 C 474.955 1.60744 0.0422978 0
M  V30 5135 O 476.145 1.73095 -0.195895 0
M  V30 5136 C 473.277 3.37288 -0.49491 0
M  V30 5137 H 474.47 2.28661 -1.94047 0
M  V30 5138 H 472.023 1.16711 -1.03963 0
M  V30 5139 H 472.758 3.21022 0.459948 0
M  V30 5140 H 472.543 3.71986 -1.23971 0
M  V30 5141 H 474.033 4.16103 -0.353253 0
M  V30 5142 N 474.47 1.03057 1.19235 0
M  V30 5143 C 475.698 0.747697 1.92917 0
M  V30 5144 C 476.113 -0.69372 1.75593 0
M  V30 5145 O 475.47 -1.47191 1.07894 0
M  V30 5146 C 475.521 1.09159 3.44625 0
M  V30 5147 O 475.242 2.47641 3.61394 0
M  V30 5148 C 476.743 0.831763 4.35427 0
M  V30 5149 H 473.963 0.273453 0.612751 0
M  V30 5150 H 476.507 1.37552 1.51327 0
M  V30 5151 H 474.662 0.508919 3.84043 0
M  V30 5152 H 475.076 2.60499 4.55237 0
M  V30 5153 H 476.55 1.12233 5.4047 0
M  V30 5154 H 477.027 -0.233769 4.38577 0
M  V30 5155 H 477.633 1.39725 4.01693 0
M  V30 5156 N 475.948 -1.35272 0.808662 0
M  V30 5157 C 477.194 -1.99003 0.390581 0
M  V30 5158 C 477.527 -1.63999 -1.0401 0
M  V30 5159 O 476.802 -0.904368 -1.72196 0
M  V30 5160 C 477.085 -3.55454 0.576566 0
M  V30 5161 C 476.938 -4.00249 2.05233 0
M  V30 5162 C 478.257 -4.401 0.00354277 0
M  V30 5163 H 475.376 -0.722917 0.143388 0
M  V30 5164 H 478.018 -1.6039 1.01858 0
M  V30 5165 H 476.168 -3.88477 0.0419766 0
M  V30 5166 H 477.84 -3.77626 2.64946 0
M  V30 5167 H 476.083 -3.51082 2.54801 0
M  V30 5168 H 476.754 -5.0911 2.13333 0
M  V30 5169 H 479.23 -4.13548 0.460117 0
M  V30 5170 H 478.106 -5.48656 0.163575 0
M  V30 5171 H 478.367 -4.28444 -1.09032 0
M  V30 5172 N 477.426 -0.562348 -1.47226 0
M  V30 5173 C 478.675 -0.038041 -2.01664 0
M  V30 5174 C 478.988 1.32199 -1.44162 0
M  V30 5175 O 480.194 1.9365 -1.90294 0
M  V30 5176 C 478.65 -0.0174958 -3.59896 0
M  V30 5177 C 478.258 -1.3746 -4.2639 0
M  V30 5178 C 480.002 0.453934 -4.22066 0
M  V30 5179 C 477.909 -1.31289 -5.76643 0
M  V30 5180 H 476.839 -0.0104511 -0.753928 0
M  V30 5181 H 479.49 -0.710966 -1.69167 0
M  V30 5182 H 477.872 0.721182 -3.89378 0
M  V30 5183 H 479.046 -2.1314 -4.08544 0
M  V30 5184 H 477.361 -1.78438 -3.7623 0
M  V30 5185 H 479.958 0.518584 -5.32179 0
M  V30 5186 H 480.301 1.46706 -3.89594 0
M  V30 5187 H 480.834 -0.230044 -3.97134 0
M  V30 5188 H 477.573 -2.30217 -6.13743 0
M  V30 5189 H 477.093 -0.597973 -5.96812 0
M  V30 5190 H 478.772 -1.01713 -6.38955 0
M  V30 5191 N 478.904 1.54736 -0.299062 0
M  V30 5192 C 480.134 2.04215 0.312992 0
M  V30 5193 C 480.542 1.17596 1.48215 0
M  V30 5194 O 479.885 0.193835 1.82674 0
M  V30 5195 C 479.947 3.49696 0.833862 0
M  V30 5196 C 479.611 4.56518 -0.20977 0
M  V30 5197 C 480.608 5.09442 -1.03756 0
M  V30 5198 C 478.293 5.01073 -0.35091 0
M  V30 5199 C 480.287 6.05459 -1.99244 0
M  V30 5200 C 477.974 5.9691 -1.30924 0
M  V30 5201 C 478.972 6.48987 -2.1285 0
M  V30 5202 O 478.66 7.42947 -3.07059 0
M  V30 5203 H 478.392 0.672128 0.0722494 0
M  V30 5204 H 480.946 2.00718 -0.436043 0
M  V30 5205 H 479.176 3.5051 1.63339 0
M  V30 5206 H 480.865 3.82381 1.36159 0
M  V30 5207 H 481.631 4.75816 -0.939376 0
M  V30 5208 H 477.51 4.60168 0.276813 0
M  V30 5209 H 481.054 6.46031 -2.63229 0
M  V30 5210 H 476.951 6.29953 -1.40815 0
M  V30 5211 H 477.719 7.60743 -3.02015 0
M  V30 5212 N 480.382 0.0267497 1.57577 0
M  V30 5213 C 481.33 -0.973923 2.11229 0
M  V30 5214 C 482.324 -1.33849 1.03831 0
M  V30 5215 O 483.53 -1.321 1.22269 0
M  V30 5216 H 479.905 -0.331844 0.674821 0
M  V30 5217 H 481.876 -0.496092 2.94247 0
M  V30 5218 C 480.625 -2.24798 2.65257 0
M  V30 5219 H 479.948 -1.9762 3.47543 0
M  V30 5220 H 481.388 -2.93031 3.06445 0
M  V30 5221 C 479.847 -2.97611 1.57891 0
M  V30 5222 O 480.377 -3.89629 0.97735 0
M  V30 5223 N 478.583 -2.59905 1.29992 0
M  V30 5224 H 478.13 -1.85154 1.79097 0
M  V30 5225 H 478.088 -3.08932 0.583798 0
M  V30 5226 N 481.861 -1.55662 -0.24637 0
M  V30 5227 C 483.089 -1.81575 -0.991876 0
M  V30 5228 C 483.504 -0.602545 -1.78927 0
M  V30 5229 O 482.861 0.428795 -1.77391 0
M  V30 5230 C 482.912 -3.05711 -1.92933 0
M  V30 5231 O 482.633 -4.22348 -1.1642 0
M  V30 5232 C 484.134 -3.44428 -2.79078 0
M  V30 5233 H 481.354 -0.604209 -0.291844 0
M  V30 5234 H 483.898 -2.02722 -0.269095 0
M  V30 5235 H 482.053 -2.86612 -2.60638 0
M  V30 5236 H 482.467 -4.92706 -1.79835 0
M  V30 5237 H 483.941 -4.34388 -3.40603 0
M  V30 5238 H 484.418 -2.65037 -3.50217 0
M  V30 5239 H 485.024 -3.65879 -2.16824 0
M  V30 5240 N 483.339 0.512053 -1.4905 0
M  V30 5241 C 484.286 1.6148 -1.64902 0
M  V30 5242 C 485.256 1.58687 -0.490673 0
M  V30 5243 O 486.441 1.76842 -0.71636 0
M  V30 5244 C 483.581 2.99676 -1.71139 0
M  V30 5245 C 482.694 3.12568 -2.98203 0
M  V30 5246 C 481.829 4.4143 -2.95487 0
M  V30 5247 C 480.868 4.47916 -4.17179 0
M  V30 5248 N 480.005 5.68191 -4.12437 0
M  V30 5249 H 484.845 1.47271 -2.59066 0
M  V30 5250 H 482.382 0.716713 -1.28459 0
M  V30 5251 H 484.34 3.79761 -1.72736 0
M  V30 5252 H 482.97 3.12614 -0.804508 0
M  V30 5253 H 482.022 2.25618 -3.06269 0
M  V30 5254 H 483.334 3.1322 -3.88194 0
M  V30 5255 H 482.488 5.29825 -2.95585 0
M  V30 5256 H 481.227 4.43326 -2.03256 0
M  V30 5257 H 480.232 3.57925 -4.17337 0
M  V30 5258 H 481.457 4.47744 -5.1059 0
M  V30 5259 H 479.403 5.7095 -3.23036 0
M  V30 5260 H 479.32 5.70413 -4.96151 0
M  V30 5261 H 480.588 6.58823 -4.16621 0
M  V30 5262 N 484.817 1.37938 0.762283 0
M  V30 5263 C 485.765 1.34569 1.89721 0
M  V30 5264 C 486.759 0.232929 1.67791 0
M  V30 5265 O 487.965 0.401485 1.75465 0
M  V30 5266 H 484.34 0.419594 0.624055 0
M  V30 5267 H 486.311 2.30357 1.8968 0
M  V30 5268 C 485.06 1.17898 3.27101 0
M  V30 5269 H 484.383 2.02781 3.44558 0
M  V30 5270 H 485.823 1.19593 4.06784 0
M  V30 5271 C 484.282 -0.114728 3.36705 0
M  V30 5272 O 484.812 -1.0949 3.8649 0
M  V30 5273 N 483.018 -0.16863 2.9011 0
M  V30 5274 H 482.565 0.62967 2.49786 0
M  V30 5275 H 482.523 -1.03383 2.96916 0
M  V30 5276 N 486.295 -0.989507 1.22664 0
M  V30 5277 C 487.52 -1.77031 1.08051 0
M  V30 5278 C 487.945 -1.84535 -0.364483 0
M  V30 5279 O 487.303 -1.3003 -1.2634 0
M  V30 5280 C 487.351 -3.18 1.70024 0
M  V30 5281 O 486.455 -4.01161 0.956216 0
M  V30 5282 H 485.796 -0.545008 0.379292 0
M  V30 5283 H 488.326 -1.24277 1.62531 0
M  V30 5284 H 488.336 -3.68616 1.74888 0
M  V30 5285 H 487.011 -3.11853 2.75174 0
M  V30 5286 H 485.588 -3.59687 0.98384 0
M  V30 5287 N 487.773 -1.03688 -1.18687 0
M  V30 5288 C 488.705 -0.582696 -2.21669 0
M  V30 5289 C 489.718 0.345656 -1.59088 0
M  V30 5290 O 490.907 0.140776 -1.77944 0
M  V30 5291 C 488.007 0.169204 -3.38477 0
M  V30 5292 C 487.18 -0.766079 -4.30639 0
M  V30 5293 C 486.239 -0.0581541 -5.26168 0
M  V30 5294 O 485.265 -0.687346 -5.65035 0
M  V30 5295 N 486.467 1.20981 -5.67753 0
M  V30 5296 H 489.232 -1.46843 -2.61261 0
M  V30 5297 H 486.793 -0.916896 -1.33434 0
M  V30 5298 H 488.785 0.652543 -3.99405 0
M  V30 5299 H 487.355 0.956435 -2.97609 0
M  V30 5300 H 486.575 -1.42935 -3.67373 0
M  V30 5301 H 487.863 -1.40146 -4.89118 0
M  V30 5302 H 487.261 1.74159 -5.38224 0
M  V30 5303 H 485.818 1.6375 -6.30896 0
M  V30 5304 N 489.251 1.34841 -0.815825 0
M  V30 5305 C 490.662 1.80937 -0.46029 0
M  V30 5306 C 491.013 1.67685 1.01863 0
M  V30 5307 O 490.138 1.21277 1.79223 0
M  V30 5308 C 490.733 3.28509 -0.828708 0
M  V30 5309 C 489.292 3.72712 -0.525644 0
M  V30 5310 C 488.439 2.56676 -1.04941 0
M  V30 5311 H 491.39 1.22688 -1.00664 0
M  V30 5312 H 491.411 3.80279 -0.129757 0
M  V30 5313 H 490.923 3.38122 -1.90513 0
M  V30 5314 H 489.024 3.68642 0.541666 0
M  V30 5315 H 489.137 4.67119 -1.06474 0
M  V30 5316 H 487.501 2.50302 -0.471286 0
M  V30 5317 H 488.284 2.69063 -2.13214 0
M  V30 5318 N 490.729 0.570148 1.46925 0
M  V30 5319 C 491.661 -0.207909 2.28255 0
M  V30 5320 C 492.674 -0.867301 1.37774 0
M  V30 5321 O 493.863 -0.738976 1.62485 0
M  V30 5322 C 490.963 -1.31298 3.12433 0
M  V30 5323 C 490.136 -0.747915 4.30958 0
M  V30 5324 C 489.195 -1.7391 4.9663 0
M  V30 5325 O 488.221 -1.2801 5.54619 0
M  V30 5326 N 489.423 -3.07288 4.92498 0
M  V30 5327 H 492.188 0.489794 2.95671 0
M  V30 5328 H 489.749 0.407076 1.56699 0
M  V30 5329 H 491.741 -1.97507 3.53232 0
M  V30 5330 H 490.311 -1.91373 2.47175 0
M  V30 5331 H 489.531 0.0913066 3.94094 0
M  V30 5332 H 490.819 -0.349958 5.07595 0
M  V30 5333 H 490.217 -3.47213 4.46609 0
M  V30 5334 H 488.774 -3.69021 5.37277 0
M  V30 5335 N 492.207 -1.54576 0.307264 0
M  V30 5336 C 493.447 -2.02172 -0.300962 0
M  V30 5337 C 493.811 -1.19081 -1.50611 0
M  V30 5338 O 495.012 -1.56405 -2.18612 0
M  V30 5339 C 493.283 -3.51576 -0.642591 0
M  V30 5340 S 494.842 -4.21127 -1.23279 0
M  V30 5341 H 491.66 -0.705021 -0.0920141 0
M  V30 5342 H 494.262 -1.90563 0.436594 0
M  V30 5343 H 492.966 -4.09681 0.242901 0
M  V30 5344 H 492.497 -3.67234 -1.41077 0
M  V30 5345 H 494.512 -4.27426 -2.52034 0
M  V30 5346 N 493.685 -0.035106 -1.57561 0
M  V30 5347 C 494.934 0.641604 -1.91223 0
M  V30 5348 C 495.247 1.72944 -0.913761 0
M  V30 5349 O 496.453 2.46321 -1.14185 0
M  V30 5350 C 494.909 1.19249 -3.3957 0
M  V30 5351 C 494.517 0.137616 -4.47789 0
M  V30 5352 C 496.261 1.84537 -3.82291 0
M  V30 5353 C 494.168 0.700478 -5.87237 0
M  V30 5354 H 493.098 0.243417 -0.713627 0
M  V30 5355 H 495.749 -0.101382 -1.8322 0
M  V30 5356 H 494.131 1.98728 -3.42525 0
M  V30 5357 H 495.305 -0.635153 -4.56402 0
M  V30 5358 H 493.62 -0.416855 -4.14308 0
M  V30 5359 H 496.217 2.27616 -4.83834 0
M  V30 5360 H 496.56 2.69054 -3.17672 0
M  V30 5361 H 497.093 1.11739 -3.81784 0
M  V30 5362 H 493.832 -0.106693 -6.55413 0
M  V30 5363 H 493.352 1.4416 -5.82218 0
M  V30 5364 H 495.031 1.18837 -6.35993 0
M  V30 5365 N 495.163 1.55791 0.238111 0
M  V30 5366 C 496.409 1.78297 0.966337 0
M  V30 5367 C 496.742 0.601903 1.84637 0
M  V30 5368 O 496.017 -0.399499 1.90353 0
M  V30 5369 C 496.3 3.10758 1.81939 0
M  V30 5370 C 496.153 4.39283 0.966958 0
M  V30 5371 C 497.472 3.39519 2.80027 0
M  V30 5372 H 494.591 0.648654 0.349882 0
M  V30 5373 H 497.233 1.88525 0.236253 0
M  V30 5374 H 495.383 3.02168 2.44185 0
M  V30 5375 H 497.055 4.59873 0.362514 0
M  V30 5376 H 495.298 4.32948 0.271669 0
M  V30 5377 H 495.969 5.28368 1.59784 0
M  V30 5378 H 498.445 3.48128 2.27917 0
M  V30 5379 H 497.321 4.33402 3.36829 0
M  V30 5380 H 497.582 2.60864 3.56934 0
M  V30 5381 N 496.642 -0.504142 1.49319 0
M  V30 5382 C 497.882 -1.26867 1.60263 0
M  V30 5383 C 498.246 -1.89924 0.281578 0
M  V30 5384 O 499.447 -2.67479 0.266176 0
M  V30 5385 C 497.718 -2.30956 2.72753 0
M  V30 5386 S 499.277 -3.1679 3.03628 0
M  V30 5387 H 496.095 -0.431198 0.565322 0
M  V30 5388 H 498.697 -0.571407 1.86963 0
M  V30 5389 H 497.401 -1.83156 3.67263 0
M  V30 5390 H 496.932 -3.05356 2.48035 0
M  V30 5391 H 498.947 -4.31549 2.44908 0
M  V30 5392 N 498.12 -1.38341 -0.754957 0
M  V30 5393 C 499.366 -1.34672 -1.51628 0
M  V30 5394 C 499.699 0.0636036 -1.94096 0
M  V30 5395 O 498.974 1.0245 -1.6533 0
M  V30 5396 C 499.257 -2.30116 -2.76981 0
M  V30 5397 C 499.11 -3.80003 -2.4066 0
M  V30 5398 C 500.429 -2.23715 -3.78998 0
M  V30 5399 H 497.548 -0.490517 -0.550056 0
M  V30 5400 H 500.19 -1.69178 -0.864807 0
M  V30 5401 H 498.34 -2.00821 -3.3257 0
M  V30 5402 H 500.012 -4.19966 -1.90856 0
M  V30 5403 H 498.255 -3.97751 -1.73137 0
M  V30 5404 H 498.926 -4.42244 -3.30339 0
M  V30 5405 H 501.402 -2.49574 -3.32945 0
M  V30 5406 H 500.278 -2.9261 -4.64403 0
M  V30 5407 H 500.539 -1.23554 -4.24484 0
M  V30 5408 N 499.598 0.982988 -1.23187 0
M  V30 5409 C 500.546 2.09616 -1.00817 0
M  V30 5410 C 501.54 1.6932 0.0519995 0
M  V30 5411 O 502.746 1.79715 -0.101284 0
M  V30 5412 H 499.121 0.685628 -0.308899 0
M  V30 5413 H 501.092 2.25652 -1.95253 0
M  V30 5414 C 499.841 3.42249 -0.613243 0
M  V30 5415 H 499.164 3.73705 -1.42073 0
M  V30 5416 H 500.604 4.21086 -0.496208 0
M  V30 5417 C 499.063 3.30002 0.678233 0
M  V30 5418 O 499.593 3.6263 1.72807 0
M  V30 5419 N 497.799 2.83164 0.653165 0
M  V30 5420 H 497.346 2.56811 -0.201492 0
M  V30 5421 H 497.304 2.75352 1.51752 0
M  V30 5422 N 501.076 1.04316 1.18135 0
M  V30 5423 C 502.306 0.767003 1.91835 0
M  V30 5424 C 502.714 -0.68002 1.76557 0
M  V30 5425 O 502.057 -1.47548 1.09432 0
M  V30 5426 C 502.119 1.05674 3.43618 0
M  V30 5427 C 501.783 2.49818 3.82675 0
M  V30 5428 C 502.78 3.48003 3.86251 0
M  V30 5429 C 500.465 2.84596 4.13897 0
M  V30 5430 C 502.459 4.79016 4.20503 0
M  V30 5431 C 500.146 4.15813 4.4782 0
M  V30 5432 C 501.144 5.12834 4.51099 0
M  V30 5433 O 500.832 6.41699 4.84229 0
M  V30 5434 H 500.564 0.278948 0.615763 0
M  V30 5435 H 503.118 1.3946 1.50798 0
M  V30 5436 H 501.348 0.372029 3.84906 0
M  V30 5437 H 503.037 0.767994 3.98568 0
M  V30 5438 H 503.803 3.22475 3.62264 0
M  V30 5439 H 499.682 2.09748 4.1052 0
M  V30 5440 H 503.226 5.54739 4.22978 0
M  V30 5441 H 499.123 4.41109 4.71268 0
M  V30 5442 H 499.891 6.46387 5.02121 0
M  V30 5443 N 502.554 -1.34406 0.822964 0
M  V30 5444 C 503.8 -1.98578 0.411666 0
M  V30 5445 C 504.133 -1.65093 -1.02264 0
M  V30 5446 O 503.408 -0.92258 -1.71227 0
M  V30 5447 C 503.691 -3.54823 0.614235 0
M  V30 5448 C 503.544 -3.9805 2.09466 0
M  V30 5449 C 504.863 -4.40071 0.050221 0
M  V30 5450 H 501.982 -0.721355 0.151047 0
M  V30 5451 H 504.624 -1.59301 1.03554 0
M  V30 5452 H 502.774 -3.88411 0.0831774 0
M  V30 5453 H 504.446 -3.74795 2.68936 0
M  V30 5454 H 502.689 -3.4836 2.5851 0
M  V30 5455 H 503.36 -5.06819 2.18721 0
M  V30 5456 H 505.836 -4.13037 0.503953 0
M  V30 5457 H 504.712 -5.48452 0.221759 0
M  V30 5458 H 504.973 -4.29576 -1.04482 0
M  V30 5459 N 504.032 -0.577932 -1.46621 0
M  V30 5460 C 505.278 -0.0617793 -2.02706 0
M  V30 5461 C 505.611 1.29294 -1.44903 0
M  V30 5462 O 504.886 1.8461 -0.61232 0
M  V30 5463 C 505.169 0.00911824 -3.60099 0
M  V30 5464 C 505.022 -1.37416 -4.28295 0
M  V30 5465 C 506.341 0.712159 -4.343 0
M  V30 5466 H 503.46 -0.0239246 -0.736612 0
M  V30 5467 H 506.102 -0.744211 -1.74818 0
M  V30 5468 H 504.252 0.590292 -3.83989 0
M  V30 5469 H 505.924 -2.00013 -4.15683 0
M  V30 5470 H 504.167 -1.94319 -3.87843 0
M  V30 5471 H 504.838 -1.27707 -5.37024 0
M  V30 5472 H 507.314 0.218486 -4.15526 0
M  V30 5473 H 506.19 0.730782 -5.44014 0
M  V30 5474 H 506.451 1.77251 -4.05012 0
M  V30 5475 N 505.51 1.54411 -0.315457 0
M  V30 5476 C 506.735 2.05299 0.294496 0
M  V30 5477 C 507.16 1.19052 1.4563 0
M  V30 5478 O 506.518 0.197804 1.80218 0
M  V30 5479 C 506.566 3.5345 0.714549 0
M  V30 5480 O 505.67 3.70175 1.81781 0
M  V30 5481 H 505.011 0.661743 0.0547019 0
M  V30 5482 H 507.541 1.99327 -0.461508 0
M  V30 5483 H 507.551 3.9557 0.999426 0
M  V30 5484 H 506.226 4.1568 -0.135244 0
M  V30 5485 H 504.803 3.3996 1.53236 0
M  V30 5486 N 506.988 0.0434614 1.5754 0
M  V30 5487 C 508.236 -0.630786 1.92004 0
M  V30 5488 C 508.557 -1.71836 0.921807 0
M  V30 5489 O 507.827 -1.9587 -0.034522 0
M  V30 5490 H 506.407 -0.235988 0.708745 0
M  V30 5491 H 509.069 0.0946462 1.9467 0
M  V30 5492 H 508.165 -1.07434 2.93026 0
M  V30 5493 N 508.466 -1.55915 -0.229846 0
M  V30 5494 C 509.715 -1.77742 -0.953455 0
M  V30 5495 C 510.028 -0.610524 -1.85828 0
M  V30 5496 O 511.234 -0.712219 -2.61992 0
M  V30 5497 C 509.69 -3.14738 -1.74551 0
M  V30 5498 C 509.298 -4.39126 -0.887242 0
M  V30 5499 C 511.042 -3.45895 -2.46084 0
M  V30 5500 C 508.949 -5.67149 -1.67617 0
M  V30 5501 H 507.879 -0.662648 -0.359741 0
M  V30 5502 H 510.53 -1.82322 -0.207576 0
M  V30 5503 H 508.912 -3.04311 -2.53399 0
M  V30 5504 H 510.086 -4.60588 -0.139892 0
M  V30 5505 H 508.401 -4.15427 -0.284443 0
M  V30 5506 H 510.998 -4.38767 -3.05594 0
M  V30 5507 H 511.341 -2.68007 -3.18556 0
M  V30 5508 H 511.874 -3.57614 -1.74233 0
M  V30 5509 H 508.613 -6.47906 -0.994881 0
M  V30 5510 H 508.133 -5.49763 -2.39836 0
M  V30 5511 H 509.812 -6.07025 -2.23898 0
M  V30 5512 N 509.944 0.496216 -1.49584 0
M  V30 5513 C 511.193 1.24668 -1.58558 0
M  V30 5514 C 511.506 1.9359 -0.279703 0
M  V30 5515 O 512.712 2.70365 -0.248048 0
M  V30 5516 C 511.168 2.26388 -2.79779 0
M  V30 5517 C 510.776 1.63384 -4.17145 0
M  V30 5518 C 512.52 3.02233 -2.98086 0
M  V30 5519 C 510.427 2.63243 -5.29582 0
M  V30 5520 H 509.357 0.468995 -0.590389 0
M  V30 5521 H 512.008 0.519985 -1.75978 0
M  V30 5522 H 510.39 3.02241 -2.55863 0
M  V30 5523 H 511.564 0.93491 -4.51216 0
M  V30 5524 H 509.879 0.999121 -4.04236 0
M  V30 5525 H 512.476 3.76919 -3.79257 0
M  V30 5526 H 512.819 3.60132 -2.08831 0
M  V30 5527 H 513.352 2.33495 -3.22063 0
M  V30 5528 H 510.091 2.10119 -6.20911 0
M  V30 5529 H 509.611 3.31363 -4.99959 0
M  V30 5530 H 511.29 3.25575 -5.59115 0
M  V30 5531 N 511.423 1.38739 0.74761 0
M  V30 5532 C 512.355 1.32341 1.87132 0
M  V30 5533 C 513.368 0.234502 1.61102 0
M  V30 5534 O 514.557 0.492516 1.71571 0
M  V30 5535 C 511.657 1.02915 3.22896 0
M  V30 5536 C 510.83 2.22834 3.76383 0
M  V30 5537 C 509.889 1.90059 4.90677 0
M  V30 5538 O 508.915 2.62615 5.04997 0
M  V30 5539 N 510.117 0.859141 5.74107 0
M  V30 5540 H 512.882 2.29175 1.93129 0
M  V30 5541 H 510.443 1.32678 0.927805 0
M  V30 5542 H 512.435 0.79031 3.96908 0
M  V30 5543 H 511.005 0.148572 3.12247 0
M  V30 5544 H 510.225 2.62747 2.93867 0
M  V30 5545 H 511.513 3.02851 4.08851 0
M  V30 5546 H 510.911 0.257564 5.65113 0
M  V30 5547 H 509.468 0.680189 6.48241 0
M  V30 5548 N 512.901 -0.976442 1.23707 0
M  V30 5549 C 513.851 -2.0544 0.988851 0
M  V30 5550 C 514.835 -1.60762 -0.0665901 0
M  V30 5551 O 516.027 -1.76396 0.14604 0
M  V30 5552 C 513.156 -3.38258 0.586223 0
M  V30 5553 C 512.242 -3.89523 1.67728 0
M  V30 5554 N 512.633 -4.13823 2.90834 0
M  V30 5555 C 510.931 -4.18097 1.55277 0
M  V30 5556 C 511.632 -4.55731 3.61502 0
M  V30 5557 N 510.608 -4.60394 2.8903 0
M  V30 5558 H 514.41 -2.22191 1.92376 0
M  V30 5559 H 511.924 -1.15954 1.13704 0
M  V30 5560 H 513.921 -4.15075 0.389658 0
M  V30 5561 H 512.581 -3.22898 -0.341594 0
M  V30 5562 H 513.592 -4.01529 3.271 0
M  V30 5563 H 510.269 -4.11719 0.692351 0
M  V30 5564 H 511.659 -4.83018 4.67059 0
M  V30 5565 N 514.379 -1.04941 -1.1758 0
M  V30 5566 C 515.656 -0.671918 -1.83697 0
M  V30 5567 C 516.036 0.847929 -1.93322 0
M  V30 5568 O 515.384 1.75287 -1.46583 0
M  V30 5569 C 515.594 -1.35797 -3.21497 0
M  V30 5570 C 516.942 -1.4944 -3.97433 0
M  V30 5571 O 517.966 -1.31678 -3.30967 0
M  V30 5572 O 516.825 -1.78463 -5.1654 0
M  V30 5573 H 513.919 -0.236212 -0.792548 0
M  V30 5574 H 516.465 -1.14884 -1.24899 0
M  V30 5575 H 515.237 -2.39498 -3.09446 0
M  V30 5576 H 514.86 -0.870236 -3.8796 0
M  V30 5577 N 515.857 1.33968 -0.830081 0
M  V30 5578 C 516.787 2.31911 -0.271911 0
M  V30 5579 C 517.768 1.58571 0.61556 0
M  V30 5580 O 518.953 1.86514 0.540946 0
M  V30 5581 C 516.083 3.42737 0.561146 0
M  V30 5582 C 515.037 4.27383 -0.229789 0
M  V30 5583 C 514.363 5.29742 0.726463 0
M  V30 5584 C 515.663 5.02 -1.44197 0
M  V30 5585 H 517.357 2.78844 -1.09025 0
M  V30 5586 H 514.903 1.34061 -0.52571 0
M  V30 5587 H 516.856 4.10276 0.961867 0
M  V30 5588 H 515.58 2.94471 1.41261 0
M  V30 5589 H 514.239 3.61456 -0.611964 0
M  V30 5590 H 513.887 4.77736 1.57408 0
M  V30 5591 H 513.587 5.87255 0.20142 0
M  V30 5592 H 515.111 6.00149 1.12489 0
M  V30 5593 H 516.525 5.62355 -1.11488 0
M  V30 5594 H 514.922 5.69122 -1.90317 0
M  V30 5595 H 515.992 4.31281 -2.2164 0
M  V30 5596 N 517.335 0.585699 1.46312 0
M  V30 5597 C 518.584 0.0701192 2.01578 0
M  V30 5598 C 518.897 -1.29889 1.46247 0
M  V30 5599 O 520.103 -1.90598 1.93351 0
M  V30 5600 C 518.559 0.0747499 3.59822 0
M  V30 5601 C 518.167 1.44226 4.24149 0
M  V30 5602 C 519.911 -0.38673 4.22735 0
M  V30 5603 C 517.818 1.40446 5.74481 0
M  V30 5604 H 516.748 0.0224441 0.753666 0
M  V30 5605 H 519.399 0.737789 1.68015 0
M  V30 5606 H 517.781 -0.659144 3.90476 0
M  V30 5607 H 518.955 2.19612 4.05101 0
M  V30 5608 H 517.27 1.84401 3.73343 0
M  V30 5609 H 519.867 -0.433853 5.32937 0
M  V30 5610 H 520.21 -1.40489 3.91878 0
M  V30 5611 H 520.743 0.293195 3.96718 0
M  V30 5612 H 517.482 2.39952 6.10003 0
M  V30 5613 H 517.002 0.692845 5.95785 0
M  V30 5614 H 518.681 1.11865 6.37256 0
M  V30 5615 N 518.813 -1.54241 0.323641 0
M  V30 5616 C 520.06 -2.0057 -0.27891 0
M  V30 5617 C 520.388 -1.21181 -1.52136 0
M  V30 5618 O 519.643 -0.282043 -1.93657 0
M  V30 5619 C 519.942 -3.5129 -0.658031 0
M  V30 5620 C 519.608 -4.48281 0.485252 0
M  V30 5621 C 518.27 -4.74519 0.799055 0
M  V30 5622 C 520.622 -5.05909 1.25322 0
M  V30 5623 C 517.95 -5.55643 1.88354 0
M  V30 5624 C 520.302 -5.88215 2.32779 0
M  V30 5625 C 518.966 -6.12755 2.64741 0
M  V30 5626 H 518.236 -0.733938 -0.10206 0
M  V30 5627 H 520.883 -1.862 0.447435 0
M  V30 5628 H 519.188 -3.63388 -1.4648 0
M  V30 5629 H 520.885 -3.84578 -1.1358 0
M  V30 5630 H 517.475 -4.27979 0.230593 0
M  V30 5631 H 521.659 -4.8562 1.02404 0
M  V30 5632 H 516.915 -5.72888 2.13564 0
M  V30 5633 H 521.089 -6.31888 2.92729 0
M  V30 5634 H 518.716 -6.75404 3.48904 0
M  V30 5635 N 520.291 -0.0518155 -1.57515 0
M  V30 5636 C 521.516 0.634896 -1.97443 0
M  V30 5637 C 521.941 1.63546 -0.929207 0
M  V30 5638 O 521.299 1.80981 0.107484 0
M  V30 5639 C 521.347 1.29765 -3.36442 0
M  V30 5640 O 520.451 2.41333 -3.34413 0
M  V30 5641 H 519.792 0.164994 -0.643174 0
M  V30 5642 H 522.322 -0.120407 -2.04245 0
M  V30 5643 H 522.332 1.64918 -3.73184 0
M  V30 5644 H 521.007 0.564361 -4.12053 0
M  V30 5645 H 519.584 2.08122 -3.09418 0
M  V30 5646 N 521.769 1.56035 0.221574 0
M  V30 5647 C 522.699 1.95434 1.2778 0
M  V30 5648 C 523.68 0.822564 1.48889 0
M  V30 5649 O 524.865 1.08486 1.61072 0
M  V30 5650 C 521.995 2.27102 2.62759 0
M  V30 5651 C 520.949 3.4277 2.56306 0
M  V30 5652 C 520.275 3.60043 3.95314 0
M  V30 5653 C 521.575 4.77742 2.11093 0
M  V30 5654 H 523.269 2.83912 0.950504 0
M  V30 5655 H 520.815 1.36596 0.455791 0
M  V30 5656 H 522.768 2.53256 3.36807 0
M  V30 5657 H 521.492 1.35478 2.97176 0
M  V30 5658 H 520.151 3.16664 1.84715 0
M  V30 5659 H 519.799 2.65794 4.27039 0
M  V30 5660 H 519.499 4.37841 3.91879 0
M  V30 5661 H 521.023 3.88545 4.71025 0
M  V30 5662 H 522.437 5.03102 2.74885 0
M  V30 5663 H 520.834 5.58823 2.18716 0
M  V30 5664 H 521.904 4.731 1.06321 0
M  V30 5665 N 523.247 -0.488276 1.49845 0
M  V30 5666 C 524.179 -1.60539 1.63584 0
M  V30 5667 C 525.192 -1.5434 0.517972 0
M  V30 5668 O 526.381 -1.60041 0.790516 0
M  V30 5669 C 523.481 -2.99374 1.58835 0
M  V30 5670 C 522.654 -3.30624 2.86368 0
M  V30 5671 C 521.713 -4.4893 2.74496 0
M  V30 5672 O 520.739 -4.50085 3.48443 0
M  V30 5673 N 521.941 -5.49591 1.86894 0
M  V30 5674 H 524.706 -1.49176 2.59936 0
M  V30 5675 H 522.267 -0.67639 1.47094 0
M  V30 5676 H 524.259 -3.76459 1.48529 0
M  V30 5677 H 522.829 -3.04595 0.702892 0
M  V30 5678 H 522.049 -2.42314 3.1093 0
M  V30 5679 H 523.337 -3.48305 3.70892 0
M  V30 5680 H 522.735 -5.51467 1.26097 0
M  V30 5681 H 521.292 -6.25728 1.82503 0
M  V30 5682 N 524.725 -1.39134 -0.740242 0
M  V30 5683 C 525.657 -1.33332 -1.86428 0
M  V30 5684 C 526.67 -0.243042 -1.60976 0
M  V30 5685 O 527.859 -0.501608 -1.71307 0
M  V30 5686 C 524.959 -1.04626 -3.22346 0
M  V30 5687 C 524.132 -2.24826 -3.75196 0
M  V30 5688 C 523.191 -1.92659 -4.89662 0
M  V30 5689 O 522.217 -2.6529 -5.03597 0
M  V30 5690 N 523.419 -0.889575 -5.73643 0
M  V30 5691 H 526.184 -2.30196 -1.91911 0
M  V30 5692 H 523.745 -1.33168 -0.920756 0
M  V30 5693 H 525.737 -0.811347 -3.96484 0
M  V30 5694 H 524.307 -0.165129 -3.12164 0
M  V30 5695 H 523.527 -2.64301 -2.9247 0
M  V30 5696 H 524.815 -3.05015 -4.07239 0
M  V30 5697 H 524.213 -0.287529 -5.64969 0
M  V30 5698 H 522.77 -0.714557 -6.47871 0
M  V30 5699 N 526.204 0.969867 -1.24223 0
M  V30 5700 C 527.432 1.74756 -1.10761 0
M  V30 5701 C 527.847 1.85713 0.340041 0
M  V30 5702 O 527.204 1.34389 1.23474 0
M  V30 5703 C 527.255 3.16915 -1.73917 0
M  V30 5704 O 526.976 3.06511 -3.13021 0
M  V30 5705 C 528.477 4.11032 -1.66036 0
M  V30 5706 H 525.697 0.548092 -0.387087 0
M  V30 5707 H 528.241 1.2178 -1.64286 0
M  V30 5708 H 526.396 3.66884 -1.244 0
M  V30 5709 H 526.81 3.96079 -3.43834 0
M  V30 5710 H 528.284 5.08446 -2.14911 0
M  V30 5711 H 528.761 4.34785 -0.621159 0
M  V30 5712 H 529.367 3.66972 -2.14969 0
M  V30 5713 N 527.682 1.05563 1.17022 0
M  V30 5714 C 528.592 0.670758 2.24807 0
M  V30 5715 C 529.608 -0.309865 1.71219 0
M  V30 5716 O 530.784 -0.161025 2.00755 0
M  V30 5717 C 527.849 0.055337 3.46656 0
M  V30 5718 C 526.91 1.08688 4.15314 0
M  V30 5719 C 526.143 0.500736 5.31346 0
M  V30 5720 O 526.366 -0.688718 5.66227 0
M  V30 5721 O 525.3 1.23683 5.89055 0
M  V30 5722 H 529.126 1.56914 2.60023 0
M  V30 5723 H 526.711 0.827428 1.24395 0
M  V30 5724 H 528.593 -0.286492 4.20425 0
M  V30 5725 H 527.268 -0.816638 3.13229 0
M  V30 5726 H 526.175 1.48077 3.43546 0
M  V30 5727 H 527.508 1.93014 4.52777 0
M  V30 5728 N 529.16 -1.33526 0.837174 0
M  V30 5729 C 530.4 -1.99649 0.438115 0
M  V30 5730 C 530.764 -1.64879 -0.983816 0
M  V30 5731 O 531.965 -2.23956 -1.48651 0
M  V30 5732 C 530.236 -3.51431 0.650461 0
M  V30 5733 S 531.795 -4.37431 0.346371 0
M  V30 5734 H 528.613 -0.69162 0.164872 0
M  V30 5735 H 531.215 -1.62556 1.08609 0
M  V30 5736 H 529.919 -3.74225 1.68475 0
M  V30 5737 H 529.45 -3.93398 -0.0117309 0
M  V30 5738 H 531.465 -4.89132 -0.834504 0
M  V30 5739 N 530.638 -0.59345 -1.46 0
M  V30 5740 C 531.884 -0.0832754 -2.02629 0
M  V30 5741 C 532.217 1.27749 -1.46266 0
M  V30 5742 O 531.492 1.8395 -0.631866 0
M  V30 5743 C 531.775 -0.0290756 -3.60088 0
M  V30 5744 C 531.628 -1.41951 -4.26814 0
M  V30 5745 C 532.947 0.666055 -4.35031 0
M  V30 5746 H 530.066 -0.031736 -0.736316 0
M  V30 5747 H 532.708 -0.762711 -1.74019 0
M  V30 5748 H 530.858 0.549532 -3.84594 0
M  V30 5749 H 532.53 -2.04411 -4.13538 0
M  V30 5750 H 530.773 -1.98422 -3.8576 0
M  V30 5751 H 531.444 -1.33395 -5.3564 0
M  V30 5752 H 533.92 0.174401 -4.15734 0
M  V30 5753 H 532.796 0.673041 -5.44758 0
M  V30 5754 H 533.057 1.72946 -4.06869 0
M  V30 5755 N 532.116 1.54067 -0.331816 0
M  V30 5756 C 533.046 2.27569 0.522932 0
M  V30 5757 C 534.027 1.28679 1.11247 0
M  V30 5758 O 535.212 1.57504 1.13605 0
M  V30 5759 C 532.342 3.0397 1.67987 0
M  V30 5760 C 531.296 4.10267 1.21924 0
M  V30 5761 C 530.622 4.74555 2.46377 0
M  V30 5762 C 531.922 5.21268 0.32815 0
M  V30 5763 H 533.616 2.99264 -0.0901977 0
M  V30 5764 H 531.162 1.4393 -0.044821 0
M  V30 5765 H 533.115 3.54123 2.28418 0
M  V30 5766 H 531.839 2.29906 2.31971 0
M  V30 5767 H 530.498 3.61009 0.637809 0
M  V30 5768 H 530.146 3.97098 3.08743 0
M  V30 5769 H 529.846 5.46363 2.16243 0
M  V30 5770 H 531.37 5.27487 3.07555 0
M  V30 5771 H 532.784 5.67128 0.838978 0
M  V30 5772 H 531.181 5.99982 0.119228 0
M  V30 5773 H 532.251 4.80673 -0.638839 0
M  V30 5774 N 533.594 0.0601682 1.57485 0
M  V30 5775 C 534.541 -0.91112 2.12055 0
M  V30 5776 C 535.511 -1.30298 1.03013 0
M  V30 5777 O 536.696 -1.39087 1.30612 0
M  V30 5778 C 533.836 -2.1775 2.67729 0
M  V30 5779 C 532.949 -1.83933 3.90887 0
M  V30 5780 C 532.084 -3.05096 4.34845 0
M  V30 5781 C 531.123 -2.67241 5.5068 0
M  V30 5782 N 530.26 -3.81127 5.8965 0
M  V30 5783 H 535.1 -0.43888 2.9475 0
M  V30 5784 H 532.637 -0.204995 1.45665 0
M  V30 5785 H 534.595 -2.91866 2.98111 0
M  V30 5786 H 533.225 -2.62535 1.87816 0
M  V30 5787 H 532.277 -0.999287 3.6704 0
M  V30 5788 H 533.589 -1.52074 4.75052 0
M  V30 5789 H 532.743 -3.87502 4.66827 0
M  V30 5790 H 531.482 -3.40139 3.49509 0
M  V30 5791 H 530.487 -1.83254 5.18361 0
M  V30 5792 H 531.712 -2.3338 6.37738 0
M  V30 5793 H 529.658 -4.15954 5.07266 0
M  V30 5794 H 529.575 -3.52997 6.68528 0
M  V30 5795 H 530.843 -4.64145 6.2625 0
M  V30 5796 N 535.072 -1.5615 -0.213296 0
M  V30 5797 C 536.483 -1.69645 -0.779582 0
M  V30 5798 C 536.834 -0.663615 -1.84636 0
M  V30 5799 O 535.959 0.183633 -2.15619 0
M  V30 5800 C 536.554 -3.07567 -1.42084 0
M  V30 5801 C 535.113 -3.22889 -1.93442 0
M  V30 5802 C 534.26 -2.65581 -0.797612 0
M  V30 5803 H 537.211 -1.58696 0.0114951 0
M  V30 5804 H 537.232 -3.03884 -2.28986 0
M  V30 5805 H 536.744 -3.82716 -0.644187 0
M  V30 5806 H 534.845 -2.52623 -2.73884 0
M  V30 5807 H 534.958 -4.30197 -2.10872 0
M  V30 5808 H 533.322 -2.24278 -1.20712 0
M  V30 5809 H 534.105 -3.43284 -0.033494 0
M  V30 5810 N 536.55 0.480323 -1.50102 0
M  V30 5811 C 537.796 1.23489 -1.60867 0
M  V30 5812 C 538.129 1.91809 -0.303827 0
M  V30 5813 O 537.404 1.81694 0.694092 0
M  V30 5814 C 537.687 2.28578 -2.78252 0
M  V30 5815 C 537.54 1.64624 -4.18592 0
M  V30 5816 C 538.859 3.2997 -2.91218 0
M  V30 5817 H 535.978 0.447605 -0.585507 0
M  V30 5818 H 538.62 0.530005 -1.82458 0
M  V30 5819 H 536.77 2.88697 -2.59974 0
M  V30 5820 H 538.442 1.08173 -4.48438 0
M  V30 5821 H 536.685 0.949645 -4.23278 0
M  V30 5822 H 537.356 2.40946 -4.96638 0
M  V30 5823 H 539.832 2.79864 -3.07921 0
M  V30 5824 H 538.708 4.00839 -3.74993 0
M  V30 5825 H 538.969 3.93541 -2.0144 0
M  V30 5826 N 538.028 1.39524 0.732853 0
M  V30 5827 C 538.938 1.40695 1.87729 0
M  V30 5828 C 539.954 0.301496 1.71368 0
M  V30 5829 O 541.13 0.543313 1.93933 0
M  V30 5830 C 538.195 1.25098 3.23344 0
M  V30 5831 C 537.256 2.45634 3.52083 0
M  V30 5832 C 536.489 2.30772 4.81228 0
M  V30 5833 O 536.712 1.31233 5.55098 0
M  V30 5834 O 535.646 3.19799 5.09914 0
M  V30 5835 H 539.472 2.37168 1.89697 0
M  V30 5836 H 537.057 1.20663 0.880959 0
M  V30 5837 H 538.939 1.18541 4.04383 0
M  V30 5838 H 537.614 0.317209 3.22142 0
M  V30 5839 H 536.521 2.57767 2.71122 0
M  V30 5840 H 537.854 3.37712 3.58066 0
M  V30 5841 N 539.506 -0.963266 1.24736 0
M  V30 5842 C 540.731 -1.74699 1.11781 0
M  V30 5843 C 541.156 -1.85267 -0.325258 0
M  V30 5844 O 540.514 -1.32681 -1.23553 0
M  V30 5845 C 540.562 -3.14322 1.76731 0
M  V30 5846 O 539.666 -3.99043 1.04109 0
M  V30 5847 H 539.007 -0.53684 0.390767 0
M  V30 5848 H 541.537 -1.20801 1.65131 0
M  V30 5849 H 541.547 -3.64824 1.82668 0
M  V30 5850 H 540.222 -3.05946 2.81726 0
M  V30 5851 H 538.799 -3.5752 1.05991 0
M  V30 5852 N 540.985 -1.06182 -1.16461 0
M  V30 5853 C 542.21 -0.798599 -1.91408 0
M  V30 5854 C 542.635 0.640987 -1.76842 0
M  V30 5855 O 541.993 1.44652 -1.09296 0
M  V30 5856 C 542.041 -1.19665 -3.40165 0
M  V30 5857 O 541.145 -0.334768 -4.11039 0
M  V30 5858 H 540.486 -0.291961 -0.596368 0
M  V30 5859 H 543.016 -1.41732 -1.47557 0
M  V30 5860 H 543.026 -1.16772 -3.90933 0
M  V30 5861 H 541.701 -2.24526 -3.50087 0
M  V30 5862 H 540.278 -0.425168 -3.70468 0
M  V30 5863 N 542.463 1.3308 -0.844243 0
M  V30 5864 C 543.74 1.92178 -0.364261 0
M  V30 5865 C 544.12 1.76961 1.15101 0
M  V30 5866 O 543.468 1.16128 1.9679 0
M  V30 5867 C 543.678 3.393 -0.817106 0
M  V30 5868 C 545.026 4.16444 -0.828236 0
M  V30 5869 O 546.05 3.47975 -0.761062 0
M  V30 5870 O 544.909 5.38685 -0.920926 0
M  V30 5871 H 542.003 0.820411 -0.10419 0
M  V30 5872 H 544.549 1.41918 -0.930453 0
M  V30 5873 H 543.321 3.44272 -1.85991 0
M  V30 5874 H 542.944 3.96947 -0.227785 0
M  V30 5875 N 543.941 0.601185 1.45683 0
M  V30 5876 C 544.874 -0.17013 2.27565 0
M  V30 5877 C 545.852 -0.879661 1.36751 0
M  V30 5878 O 547.036 -0.889827 1.66176 0
M  V30 5879 C 544.163 -1.24568 3.14961 0
M  V30 5880 C 543.209 -0.639978 4.21671 0
M  V30 5881 S 544.042 0.547275 5.32696 0
M  V30 5882 C 545.198 -0.529019 6.2366 0
M  V30 5883 H 545.431 0.524583 2.92635 0
M  V30 5884 H 542.964 0.388537 1.49431 0
M  V30 5885 H 544.922 -1.86138 3.65873 0
M  V30 5886 H 543.583 -1.91243 2.49169 0
M  V30 5887 H 542.776 -1.44903 4.8272 0
M  V30 5888 H 542.378 -0.0995558 3.73867 0
M  V30 5889 H 544.67 -1.40981 6.62669 0
M  V30 5890 H 545.613 0.0451599 7.08086 0
M  V30 5891 H 546.021 -0.84147 5.58193 0
M  V30 5892 N 545.419 -1.53889 0.339982 0
M  V30 5893 C 546.366 -2.24902 -0.518452 0
M  V30 5894 C 547.336 -1.24593 -1.09844 0
M  V30 5895 O 548.521 -1.53317 -1.13572 0
M  V30 5896 C 545.661 -3.02262 -1.66529 0
M  V30 5897 C 544.774 -4.17418 -1.11295 0
M  V30 5898 C 543.909 -4.82273 -2.2268 0
M  V30 5899 C 542.948 -5.89503 -1.6478 0
M  V30 5900 N 542.085 -6.48153 -2.69893 0
M  V30 5901 H 546.925 -2.97853 0.0936579 0
M  V30 5902 H 544.462 -1.46986 0.0579924 0
M  V30 5903 H 546.42 -3.45371 -2.3404 0
M  V30 5904 H 545.05 -2.31614 -2.24844 0
M  V30 5905 H 544.102 -3.78976 -0.328886 0
M  V30 5906 H 545.414 -4.94554 -0.649414 0
M  V30 5907 H 544.568 -5.28435 -2.98063 0
M  V30 5908 H 543.307 -4.04552 -2.72376 0
M  V30 5909 H 542.312 -5.42728 -0.879004 0
M  V30 5910 H 543.537 -6.6913 -1.1594 0
M  V30 5911 H 541.483 -5.73298 -3.1885 0
M  V30 5912 H 541.4 -7.20752 -2.28151 0
M  V30 5913 H 542.668 -6.98968 -3.45056 0
M  V30 5914 N 546.897 -0.0685191 -1.57451 0
M  V30 5915 C 547.83 0.935736 -2.08133 0
M  V30 5916 C 548.808 1.29317 -0.985698 0
M  V30 5917 O 549.992 1.40304 -1.25886 0
M  V30 5918 C 547.119 2.2448 -2.53627 0
M  V30 5919 C 546.165 2.03917 -3.74593 0
M  V30 5920 S 546.998 1.30154 -5.19442 0
M  V30 5921 C 548.154 2.62346 -5.68265 0
M  V30 5922 H 548.387 0.504473 -2.92989 0
M  V30 5923 H 545.92 0.144169 -1.53725 0
M  V30 5924 H 547.878 2.99718 -2.80499 0
M  V30 5925 H 546.539 2.64731 -1.69045 0
M  V30 5926 H 545.732 3.00788 -4.04404 0
M  V30 5927 H 545.334 1.36815 -3.48077 0
M  V30 5928 H 547.626 3.58448 -5.7491 0
M  V30 5929 H 548.569 2.3715 -6.67207 0
M  V30 5930 H 548.977 2.69401 -4.96068 0
M  V30 5931 N 548.375 1.56261 0.205012 0
M  V30 5932 C 549.603 1.84141 0.943386 0
M  V30 5933 C 550.018 0.649772 1.77266 0
M  V30 5934 O 549.375 -0.381612 1.78466 0
M  V30 5935 C 549.426 3.10719 1.84759 0
M  V30 5936 O 549.147 4.25286 1.05181 0
M  V30 5937 C 550.648 3.51706 2.69848 0
M  V30 5938 H 547.868 0.611734 0.275721 0
M  V30 5939 H 550.412 2.03364 0.215253 0
M  V30 5940 H 548.567 2.93422 2.52947 0
M  V30 5941 H 548.981 4.97301 1.66709 0
M  V30 5942 H 550.455 4.43266 3.28967 0
M  V30 5943 H 550.932 2.7423 3.43067 0
M  V30 5944 H 551.538 3.71499 2.07047 0
M  V30 5945 N 549.853 -0.472356 1.50355 0
M  V30 5946 C 550.785 -1.58795 1.65278 0
M  V30 5947 C 551.798 -1.53782 0.534313 0
M  V30 5948 O 552.987 -1.59193 0.807446 0
M  V30 5949 C 550.087 -2.97672 1.62001 0
M  V30 5950 C 549.26 -3.27568 2.89859 0
M  V30 5951 C 548.319 -4.45993 2.79242 0
M  V30 5952 O 547.345 -4.46364 3.53197 0
M  V30 5953 N 548.547 -5.47578 1.92713 0
M  V30 5954 H 551.312 -1.46411 2.61503 0
M  V30 5955 H 548.873 -0.660751 1.47803 0
M  V30 5956 H 550.865 -3.74862 1.52513 0
M  V30 5957 H 549.435 -3.03832 0.735159 0
M  V30 5958 H 548.655 -2.39003 3.13483 0
M  V30 5959 H 549.943 -3.44352 3.74565 0
M  V30 5960 H 549.341 -5.50099 1.31939 0
M  V30 5961 H 547.898 -6.23757 1.8913 0
M  V30 5962 N 551.331 -1.39911 -0.725443 0
M  V30 5963 C 552.261 -1.42138 -1.85254 0
M  V30 5964 C 553.242 -0.283513 -1.67721 0
M  V30 5965 O 554.427 -0.490717 -1.87898 0
M  V30 5966 C 551.557 -1.27354 -3.23107 0
M  V30 5967 C 550.511 -2.3864 -3.55296 0
M  V30 5968 C 549.837 -2.08939 -4.92188 0
M  V30 5969 C 551.137 -3.8097 -3.57295 0
M  V30 5970 H 552.831 -2.36461 -1.83648 0
M  V30 5971 H 550.377 -1.13817 -0.882138 0
M  V30 5972 H 552.33 -1.2753 -4.01639 0
M  V30 5973 H 551.054 -0.295025 -3.25265 0
M  V30 5974 H 549.713 -2.37696 -2.79099 0
M  V30 5975 H 549.361 -1.09502 -4.90936 0
M  V30 5976 H 549.061 -2.83491 -5.14691 0
M  V30 5977 H 550.585 -2.10781 -5.73065 0
M  V30 5978 H 551.999 -3.8379 -4.25885 0
M  V30 5979 H 550.396 -4.5496 -3.9132 0
M  V30 5980 H 551.466 -4.11261 -2.5689 0
M  V30 5981 N 552.809 0.956637 -1.25245 0
M  V30 5982 C 554.056 1.701 -1.09874 0
M  V30 5983 C 554.384 1.91128 0.36062 0
M  V30 5984 O 553.639 1.47837 1.28229 0
M  V30 5985 C 553.938 3.08996 -1.79601 0
M  V30 5986 C 553.604 3.07774 -3.29523 0
M  V30 5987 C 552.266 3.07149 -3.70423 0
M  V30 5988 C 554.618 3.01257 -4.25316 0
M  V30 5989 C 551.946 2.97752 -5.0553 0
M  V30 5990 C 554.298 2.93403 -5.60444 0
M  V30 5991 C 552.962 2.91111 -6.00675 0
M  V30 5992 H 552.232 0.62244 -0.402056 0
M  V30 5993 H 554.879 1.1178 -1.55491 0
M  V30 5994 H 553.184 3.70848 -1.26408 0
M  V30 5995 H 554.881 3.65407 -1.65162 0
M  V30 5996 H 551.471 3.09032 -2.9698 0
M  V30 5997 H 555.655 3.00861 -3.9471 0
M  V30 5998 H 550.911 2.94346 -5.35883 0
M  V30 5999 H 555.085 2.87321 -6.34366 0
M  V30 6000 H 552.712 2.83586 -7.05325 0
M  V30 6001 N 554.287 1.06798 1.15896 0
M  V30 6002 C 555.515 0.808694 1.90441 0
M  V30 6003 C 555.93 -0.637506 1.77711 0
M  V30 6004 O 555.287 -1.43684 1.12522 0
M  V30 6005 C 555.338 1.20068 3.40978 0
M  V30 6006 O 555.059 2.59013 3.53333 0
M  V30 6007 C 556.56 0.96987 4.3256 0
M  V30 6008 H 553.78 0.292809 0.603742 0
M  V30 6009 H 556.324 1.42296 1.46874 0
M  V30 6010 H 554.479 0.630842 3.82229 0
M  V30 6011 H 554.893 2.7485 4.46719 0
M  V30 6012 H 556.367 1.29371 5.36626 0
M  V30 6013 H 556.844 -0.0941209 4.39099 0
M  V30 6014 H 557.45 1.52433 3.97044 0
M  V30 6015 N 555.766 -1.3263 0.851289 0
M  V30 6016 C 556.713 -2.28952 0.291469 0
M  V30 6017 C 557.683 -1.54897 -0.599676 0
M  V30 6018 O 558.868 -1.83137 -0.535305 0
M  V30 6019 C 556.008 -3.41206 -0.516992 0
M  V30 6020 C 555.121 -4.30148 0.399566 0
M  V30 6021 C 554.256 -5.29527 -0.4212 0
M  V30 6022 C 553.295 -6.10112 0.492969 0
M  V30 6023 N 552.432 -7.01499 -0.290414 0
M  V30 6024 H 557.272 -2.76228 1.11813 0
M  V30 6025 H 554.809 -1.35907 0.562826 0
M  V30 6026 H 556.767 -4.05005 -1.00132 0
M  V30 6027 H 555.397 -2.9509 -1.30851 0
M  V30 6028 H 554.449 -3.66959 1.00227 0
M  V30 6029 H 555.761 -4.8649 1.1013 0
M  V30 6030 H 554.915 -5.98914 -0.968832 0
M  V30 6031 H 553.654 -4.73794 -1.15632 0
M  V30 6032 H 552.659 -5.39632 1.05251 0
M  V30 6033 H 553.884 -6.6793 1.22664 0
M  V30 6034 H 551.83 -6.48199 -1.00868 0
M  V30 6035 H 551.747 -7.55178 0.352354 0
M  V30 6036 H 553.015 -7.75176 -0.819882 0
M  V30 6037 N 557.244 -0.608902 -1.45362 0
M  V30 6038 C 558.49 -0.104762 -2.02529 0
M  V30 6039 C 558.823 1.26191 -1.47613 0
M  V30 6040 O 558.098 1.8327 -0.65134 0
M  V30 6041 C 558.381 -0.0672661 -3.60037 0
M  V30 6042 C 558.234 -1.4647 -4.25284 0
M  V30 6043 C 559.553 0.619877 -4.35713 0
M  V30 6044 H 556.672 -0.0395438 -0.735938 0
M  V30 6045 H 559.314 -0.781126 -1.73201 0
M  V30 6046 H 557.464 0.50871 -3.85155 0
M  V30 6047 H 559.136 -2.08785 -4.11347 0
M  V30 6048 H 557.379 -2.02502 -3.83634 0
M  V30 6049 H 558.05 -1.39069 -5.34195 0
M  V30 6050 H 560.526 0.130297 -4.15896 0
M  V30 6051 H 559.402 0.615224 -5.45441 0
M  V30 6052 H 559.663 1.68621 -4.0868 0
M  V30 6053 N 558.722 1.53707 -0.348139 0
M  V30 6054 C 559.632 2.28881 0.514857 0
M  V30 6055 C 560.648 1.34168 1.10793 0
M  V30 6056 O 561.824 1.6721 1.12262 0
M  V30 6057 C 558.889 3.05042 1.64774 0
M  V30 6058 C 557.95 4.15389 1.08398 0
M  V30 6059 C 557.183 4.87909 2.16287 0
M  V30 6060 O 557.406 4.60137 3.3709 0
M  V30 6061 O 556.34 5.74254 1.80323 0
M  V30 6062 H 560.166 3.03547 -0.0963699 0
M  V30 6063 H 557.751 1.48972 -0.113043 0
M  V30 6064 H 559.633 3.52656 2.30677 0
M  V30 6065 H 558.308 2.33228 2.24469 0
M  V30 6066 H 557.215 3.72068 0.389341 0
M  V30 6067 H 558.548 4.89318 0.531829 0
M  V30 6068 N 560.2 0.0768682 1.57412 0
M  V30 6069 C 561.425 -0.603404 1.98428 0
M  V30 6070 C 561.85 -1.62047 0.955108 0
M  V30 6071 O 561.208 -1.81129 -0.0786778 0
M  V30 6072 C 561.256 -1.24396 3.38464 0
M  V30 6073 O 560.36 -2.35982 3.3821 0
M  V30 6074 H 559.701 -0.154741 0.645718 0
M  V30 6075 H 562.231 0.152885 2.04028 0
M  V30 6076 H 562.241 -1.5896 3.7576 0
M  V30 6077 H 560.916 -0.498735 4.12899 0
M  V30 6078 H 559.493 -2.03173 3.1269 0
M  V30 6079 N 561.678 -1.56367 -0.196722 0
M  V30 6080 C 562.588 -1.97617 -1.2643 0
M  V30 6081 C 563.604 -0.883598 -1.49895 0
M  V30 6082 O 564.78 -1.18921 -1.62541 0
M  V30 6083 C 561.845 -2.30595 -2.58895 0
M  V30 6084 C 560.906 -3.53551 -2.43516 0
M  V30 6085 C 560.139 -3.84946 -3.69665 0
M  V30 6086 O 560.362 -3.17655 -4.73763 0
M  V30 6087 O 559.296 -4.78379 -3.65291 0
M  V30 6088 H 563.122 -2.88648 -0.944233 0
M  V30 6089 H 560.707 -1.43901 -0.401592 0
M  V30 6090 H 562.589 -2.52889 -3.37083 0
M  V30 6091 H 561.264 -1.42732 -2.90533 0
M  V30 6092 H 560.171 -3.36507 -1.63445 0
M  V30 6093 H 561.504 -4.41875 -2.16812 0
M  V30 6094 N 563.156 0.464375 -1.50603 0
M  V30 6095 C 564.433 1.22549 -1.5245 0
M  V30 6096 C 564.813 2.09327 -0.273035 0
M  V30 6097 O 564.161 2.16074 0.743242 0
M  V30 6098 C 564.371 2.05074 -2.82393 0
M  V30 6099 C 565.719 2.63036 -3.33313 0
M  V30 6100 O 566.743 2.1531 -2.8376 0
M  V30 6101 O 565.602 3.5001 -4.19709 0
M  V30 6102 H 562.696 0.556471 -0.611775 0
M  V30 6103 H 565.242 0.475648 -1.62898 0
M  V30 6104 H 564.014 1.41169 -3.64948 0
M  V30 6105 H 563.637 2.87179 -2.7498 0
M  V30 6106 N 564.634 1.40294 0.718013 0
M  V30 6107 C 565.862 1.4175 1.50714 0
M  V30 6108 C 566.277 0.0165366 1.88793 0
M  V30 6109 O 565.634 -0.958942 1.55276 0
M  V30 6110 C 565.685 2.30598 2.784 0
M  V30 6111 O 565.406 3.6524 2.41932 0
M  V30 6112 C 566.907 2.4062 3.72313 0
M  V30 6113 H 564.127 0.483565 0.465194 0
M  V30 6114 H 566.671 1.84316 0.885889 0
M  V30 6115 H 564.826 1.91401 3.36815 0
M  V30 6116 H 565.24 4.12402 3.24076 0
M  V30 6117 H 566.714 3.07001 4.58753 0
M  V30 6118 H 567.191 1.4305 4.15251 0
M  V30 6119 H 567.797 2.80359 3.19811 0
M  V30 6120 N 566.112 -0.949982 1.2575 0
M  V30 6121 C 567.337 -1.73503 1.13628 0
M  V30 6122 C 567.762 -1.85601 -0.30559 0
M  V30 6123 O 567.12 -1.33984 -1.22139 0
M  V30 6124 C 567.168 -3.1243 1.80055 0
M  V30 6125 O 566.272 -3.97916 1.08336 0
M  V30 6126 H 565.613 -0.532665 0.396439 0
M  V30 6127 H 568.143 -1.19043 1.66403 0
M  V30 6128 H 568.153 -3.62866 1.86527 0
M  V30 6129 H 566.828 -3.02941 2.84956 0
M  V30 6130 H 565.405 -3.56375 1.09777 0
M  V30 6131 N 567.59 -1.07411 -1.15328 0
M  V30 6132 C 568.815 -0.818856 -1.90551 0
M  V30 6133 C 569.24 0.622194 -1.77512 0
M  V30 6134 O 568.598 1.43484 -1.10824 0
M  V30 6135 C 568.646 -1.23267 -3.38877 0
M  V30 6136 O 567.75 -0.378345 -4.10661 0
M  V30 6137 H 567.091 -0.29827 -0.593238 0
M  V30 6138 H 569.621 -1.43289 -1.46046 0
M  V30 6139 H 569.631 -1.20912 -3.89672 0
M  V30 6140 H 568.306 -2.28226 -3.47686 0
M  V30 6141 H 566.883 -0.464437 -3.69996 0
M  V30 6142 N 569.068 1.32177 -0.85831 0
M  V30 6143 C 569.998 2.31282 -0.321041 0
M  V30 6144 C 570.979 1.59841 0.581786 0
M  V30 6145 O 572.164 1.87619 0.501262 0
M  V30 6146 C 569.294 3.4385 0.48832 0
M  V30 6147 C 568.248 4.26799 -0.320391 0
M  V30 6148 C 567.574 5.31164 0.613934 0
M  V30 6149 C 568.874 4.98829 -1.54813 0
M  V30 6150 H 570.568 2.76469 -1.14915 0
M  V30 6151 H 568.114 1.32916 -0.554028 0
M  V30 6152 H 570.067 4.12224 0.874626 0
M  V30 6153 H 568.791 2.97401 1.34983 0
M  V30 6154 H 567.45 3.60077 -0.688497 0
M  V30 6155 H 567.098 4.80967 1.47239 0
M  V30 6156 H 566.798 5.8755 0.0768097 0
M  V30 6157 H 568.322 6.024 0.997336 0
M  V30 6158 H 569.736 5.59864 -1.23392 0
M  V30 6159 H 568.133 5.64957 -2.02346 0
M  V30 6160 H 569.203 4.26483 -2.30739 0
M  V30 6161 N 570.547 0.616602 1.45037 0
M  V30 6162 C 571.794 0.115331 2.02171 0
M  V30 6163 C 572.122 -1.25748 1.48383 0
M  V30 6164 O 571.377 -1.84511 0.652229 0
M  V30 6165 C 571.676 0.0356829 3.57382 0
M  V30 6166 C 571.342 1.34535 4.30362 0
M  V30 6167 C 570.004 1.70408 4.50016 0
M  V30 6168 C 572.356 2.21049 4.72003 0
M  V30 6169 C 569.684 2.92529 5.0857 0
M  V30 6170 C 572.036 3.42427 5.31908 0
M  V30 6171 C 570.7 3.78541 5.49784 0
M  V30 6172 H 569.97 0.0422024 0.739797 0
M  V30 6173 H 572.617 0.80002 1.73988 0
M  V30 6174 H 570.922 -0.732314 3.84895 0
M  V30 6175 H 572.619 -0.368463 3.99304 0
M  V30 6176 H 569.209 1.05615 4.15383 0
M  V30 6177 H 573.393 1.94632 4.56544 0
M  V30 6178 H 568.649 3.20605 5.20598 0
M  V30 6179 H 572.823 4.09709 5.63127 0
M  V30 6180 H 570.45 4.73255 5.94923 0
M  V30 6181 N 572.025 -1.5352 0.356285 0
M  V30 6182 C 573.302 -1.93405 -0.292223 0
M  V30 6183 C 573.682 -1.28901 -1.67176 0
M  V30 6184 O 573.03 -0.444632 -2.24132 0
M  V30 6185 C 573.24 -3.47223 -0.35175 0
M  V30 6186 C 574.588 -4.20389 -0.596534 0
M  V30 6187 O 575.612 -3.53554 -0.433344 0
M  V30 6188 O 574.471 -5.3881 -0.913589 0
M  V30 6189 H 571.565 -0.808666 -0.173172 0
M  V30 6190 H 574.111 -1.64713 0.408391 0
M  V30 6191 H 572.883 -3.86423 0.615841 0
M  V30 6192 H 572.506 -3.8212 -1.09864 0
M  V30 6193 N 573.503 -0.0852151 -1.57369 0
M  V30 6194 C 574.45 0.877268 -2.13478 0
M  V30 6195 C 575.42 1.28642 -1.05073 0
M  V30 6196 O 576.605 1.36992 -1.32808 0
M  V30 6197 C 573.745 2.13464 -2.71159 0
M  V30 6198 C 572.858 1.77691 -3.93764 0
M  V30 6199 C 571.993 2.98139 -4.39643 0
M  V30 6200 C 571.032 2.58447 -5.54862 0
M  V30 6201 N 570.169 3.71698 -5.95639 0
M  V30 6202 H 575.009 0.391933 -2.95411 0
M  V30 6203 H 572.546 0.181796 -1.45972 0
M  V30 6204 H 574.504 2.87086 -3.02717 0
M  V30 6205 H 573.134 2.59514 -1.91969 0
M  V30 6206 H 572.186 0.940768 -3.68583 0
M  V30 6207 H 573.498 1.44497 -4.77412 0
M  V30 6208 H 572.652 3.80026 -4.72933 0
M  V30 6209 H 571.391 3.34536 -3.54876 0
M  V30 6210 H 570.396 1.74984 -5.21211 0
M  V30 6211 H 571.621 2.23205 -6.41371 0
M  V30 6212 H 569.567 4.07831 -5.13819 0
M  V30 6213 H 569.484 3.42317 -6.74059 0
M  V30 6214 H 570.752 4.54123 -6.33555 0
M  V30 6215 N 574.981 1.5647 0.188427 0
M  V30 6216 C 575.911 1.98101 1.23606 0
M  V30 6217 C 576.892 0.853961 1.47111 0
M  V30 6218 O 578.077 1.11879 1.58735 0
M  V30 6219 C 575.207 2.32624 2.57882 0
M  V30 6220 C 574.161 3.48129 2.48978 0
M  V30 6221 C 573.487 3.68347 3.87588 0
M  V30 6222 C 574.787 4.82112 2.00911 0
M  V30 6223 H 576.481 2.85864 0.890068 0
M  V30 6224 H 574.027 1.37532 0.426714 0
M  V30 6225 H 575.98 2.60343 3.3136 0
M  V30 6226 H 574.704 1.41751 2.94235 0
M  V30 6227 H 573.363 3.20511 1.77956 0
M  V30 6228 H 573.011 2.74793 4.21305 0
M  V30 6229 H 572.711 4.46055 3.82503 0
M  V30 6230 H 574.235 3.98449 4.62678 0
M  V30 6231 H 575.649 5.08819 2.64151 0
M  V30 6232 H 574.046 5.63337 2.06814 0
M  V30 6233 H 575.116 4.75249 0.96262 0
M  V30 6234 N 576.459 -0.456382 1.50847 0
M  V30 6235 C 577.406 -1.55249 1.70782 0
M  V30 6236 C 578.376 -1.56757 0.549231 0
M  V30 6237 O 579.561 -1.74061 0.7815 0
M  V30 6238 C 576.701 -2.93118 1.82143 0
M  V30 6239 C 575.814 -3.01285 3.09598 0
M  V30 6240 C 574.949 -4.30159 3.11667 0
M  V30 6241 C 573.988 -4.32124 4.33515 0
M  V30 6242 N 573.125 -5.52492 4.3324 0
M  V30 6243 H 577.965 -1.37555 2.64353 0
M  V30 6244 H 575.502 -0.668543 1.3103 0
M  V30 6245 H 577.46 -3.73088 1.86711 0
M  V30 6246 H 576.09 -3.09413 0.919978 0
M  V30 6247 H 575.142 -2.14096 3.14431 0
M  V30 6248 H 576.454 -2.98597 3.99551 0
M  V30 6249 H 575.608 -5.18489 3.15046 0
M  V30 6250 H 574.347 -4.35477 2.1957 0
M  V30 6251 H 573.352 -3.42189 4.30333 0
M  V30 6252 H 574.577 -4.28485 5.26856 0
M  V30 6253 H 572.523 -5.58567 3.44004 0
M  V30 6254 H 572.44 -5.51605 5.16979 0
M  V30 6255 H 573.708 -6.42906 4.40786 0
M  V30 6256 N 577.937 -1.40673 -0.710563 0
M  V30 6257 C 578.884 -1.41336 -1.82463 0
M  V30 6258 C 579.854 -0.269648 -1.63897 0
M  V30 6259 O 581.039 -0.468463 -1.8496 0
M  V30 6260 C 578.179 -1.28665 -3.20218 0
M  V30 6261 C 577.292 -2.52784 -3.5032 0
M  V30 6262 C 576.427 -2.32517 -4.77608 0
M  V30 6263 C 575.466 -3.52187 -5.0063 0
M  V30 6264 N 574.603 -3.31084 -6.19135 0
M  V30 6265 H 579.443 -2.36558 -1.8123 0
M  V30 6266 H 576.98 -1.17483 -0.885226 0
M  V30 6267 H 578.938 -1.19324 -3.99772 0
M  V30 6268 H 577.568 -0.370602 -3.20666 0
M  V30 6269 H 576.62 -2.72634 -2.65283 0
M  V30 6270 H 577.932 -3.41845 -3.63241 0
M  V30 6271 H 577.086 -2.20558 -5.65189 0
M  V30 6272 H 575.825 -1.40889 -4.66906 0
M  V30 6273 H 574.83 -3.64617 -4.11502 0
M  V30 6274 H 576.055 -4.44749 -5.13201 0
M  V30 6275 H 574.001 -2.42143 -6.09674 0
M  V30 6276 H 573.918 -4.13713 -6.32754 0
M  V30 6277 H 575.186 -3.22868 -7.0949 0
M  V30 6278 N 579.415 0.9433 -1.26252 0
M  V30 6279 C 580.325 2.07532 -1.09397 0
M  V30 6280 C 581.341 1.73977 -0.0280449 0
M  V30 6281 O 582.517 2.00067 -0.231337 0
M  V30 6282 C 579.582 3.39002 -0.726523 0
M  V30 6283 C 578.643 3.86353 -1.87163 0
M  V30 6284 C 577.876 5.11549 -1.52162 0
M  V30 6285 O 578.099 5.68834 -0.422385 0
M  V30 6286 O 577.033 5.53889 -2.35565 0
M  V30 6287 H 580.859 2.24658 -2.04359 0
M  V30 6288 H 578.444 1.05988 -1.05295 0
M  V30 6289 H 580.326 4.18 -0.534236 0
M  V30 6290 H 579.001 3.2312 0.193721 0
M  V30 6291 H 577.908 3.0831 -2.11886 0
M  V30 6292 H 579.241 4.06752 -2.77152 0
M  V30 6293 N 580.893 1.08022 1.14757 0
M  V30 6294 C 582.304 0.829144 1.67279 0
M  V30 6295 C 582.655 -0.644721 1.85305 0
M  V30 6296 O 581.78 -1.49838 1.56133 0
M  V30 6297 C 582.375 1.49855 3.03857 0
M  V30 6298 C 580.934 1.29482 3.53428 0
M  V30 6299 C 580.081 1.56386 2.28995 0
M  V30 6300 H 583.032 1.24134 0.988762 0
M  V30 6301 H 583.053 0.923572 3.69121 0
M  V30 6302 H 582.565 2.57123 2.90705 0
M  V30 6303 H 580.666 0.242669 3.71809 0
M  V30 6304 H 580.779 2.01974 4.34446 0
M  V30 6305 H 579.143 0.985217 2.34874 0
M  V30 6306 H 579.926 2.64851 2.18423 0
M  V30 6307 N 582.371 -1.3172 0.865308 0
M  V30 6308 C 583.648 -1.91574 0.394789 0
M  V30 6309 C 584.028 -1.78769 -1.12271 0
M  V30 6310 O 583.376 -1.19245 -1.94918 0
M  V30 6311 C 583.586 -3.37957 0.870982 0
M  V30 6312 C 584.934 -4.15073 0.894384 0
M  V30 6313 O 585.958 -3.4672 0.816325 0
M  V30 6314 O 584.817 -5.37151 1.00651 0
M  V30 6315 H 581.911 -0.818649 0.117229 0
M  V30 6316 H 584.457 -1.4042 0.952913 0
M  V30 6317 H 583.229 -3.41269 1.91444 0
M  V30 6318 H 582.852 -3.96534 0.290907 0
M  V30 6319 N 583.85 -0.624285 -1.44708 0
M  V30 6320 C 584.812 0.0749638 -2.29077 0
M  V30 6321 C 585.812 0.778965 -1.40673 0
M  V30 6322 O 587.003 0.624591 -1.62618 0
M  V30 6323 C 584.135 1.11663 -3.22094 0
M  V30 6324 H 585.327 -0.667013 -2.92388 0
M  V30 6325 H 582.88 -0.384098 -1.51507 0
M  V30 6326 H 583.615 1.88881 -2.63618 0
M  V30 6327 H 583.401 0.61583 -3.87234 0
M  V30 6328 H 584.891 1.60585 -3.8549 0
M  V30 6329 N 585.328 1.53329 -0.364422 0
M  V30 6330 C 586.258 2.28627 0.474543 0
M  V30 6331 C 587.239 1.31009 1.08492 0
M  V30 6332 O 588.424 1.59878 1.10239 0
M  V30 6333 C 585.554 3.07465 1.61501 0
M  V30 6334 C 584.508 4.1276 1.13194 0
M  V30 6335 C 583.834 4.79674 2.36255 0
M  V30 6336 C 585.134 5.21847 0.217507 0
M  V30 6337 H 586.828 2.99005 -0.153656 0
M  V30 6338 H 584.374 1.43803 -0.0753406 0
M  V30 6339 H 586.327 3.58889 2.20855 0
M  V30 6340 H 585.051 2.34775 2.27042 0
M  V30 6341 H 583.71 3.62281 0.56109 0
M  V30 6342 H 583.358 4.03557 3.00251 0
M  V30 6343 H 583.058 5.50827 2.04606 0
M  V30 6344 H 584.582 5.33892 2.96297 0
M  V30 6345 H 585.996 5.6878 0.718493 0
M  V30 6346 H 584.393 6.00099 -0.00806408 0
M  V30 6347 H 585.463 4.7921 -0.740653 0
M  V30 6348 N 586.806 0.0935595 1.57322 0
M  V30 6349 C 588.034 -0.578934 1.98635 0
M  V30 6350 C 588.449 -1.61819 0.972626 0
M  V30 6351 O 587.806 -1.82461 -0.0379638 0
M  V30 6352 C 587.857 -1.22802 3.40003 0
M  V30 6353 O 587.578 -0.230334 4.37494 0
M  V30 6354 C 589.079 -1.98627 3.96311 0
M  V30 6355 H 586.299 -0.155324 0.652775 0
M  V30 6356 H 588.843 0.172393 2.03772 0
M  V30 6357 H 586.998 -1.93029 3.35885 0
M  V30 6358 H 587.412 -0.698649 5.19826 0
M  V30 6359 H 588.886 -2.39405 4.97382 0
M  V30 6360 H 589.363 -2.85151 3.34044 0
M  V30 6361 H 589.969 -1.3322 4.03897 0
M  V30 6362 N 588.284 -1.56567 -0.180126 0
M  V30 6363 C 589.214 -1.98753 -1.22553 0
M  V30 6364 C 590.195 -0.86175 -1.46656 0
M  V30 6365 O 591.38 -1.12719 -1.58139 0
M  V30 6366 C 588.51 -2.33988 -2.56645 0
M  V30 6367 C 587.464 -3.49445 -2.47128 0
M  V30 6368 C 586.79 -3.70397 -3.8563 0
M  V30 6369 C 588.09 -4.83171 -1.98352 0
M  V30 6370 H 589.784 -2.86332 -0.874896 0
M  V30 6371 H 587.33 -1.37757 -0.419414 0
M  V30 6372 H 589.283 -2.62097 -3.29974 0
M  V30 6373 H 588.007 -1.43309 -2.93479 0
M  V30 6374 H 586.666 -3.2145 -1.76254 0
M  V30 6375 H 586.314 -2.77023 -4.19842 0
M  V30 6376 H 586.014 -4.48077 -3.80132 0
M  V30 6377 H 587.538 -4.00897 -4.60558 0
M  V30 6378 H 588.952 -5.10213 -2.61449 0
M  V30 6379 H 587.349 -5.64425 -2.03823 0
M  V30 6380 H 588.419 -4.75753 -0.937402 0
M  V30 6381 N 589.762 0.448376 -1.51087 0
M  V30 6382 C 590.692 1.55102 -1.74544 0
M  V30 6383 C 591.673 1.59357 -0.594932 0
M  V30 6384 O 592.858 1.75261 -0.836491 0
M  V30 6385 C 589.988 2.93268 -1.86041 0
M  V30 6386 C 588.942 3.03877 -3.01402 0
M  V30 6387 C 588.268 4.43914 -2.98068 0
M  V30 6388 C 589.568 2.7898 -4.41551 0
M  V30 6389 H 591.262 1.35724 -2.66869 0
M  V30 6390 H 588.808 0.651498 -1.28419 0
M  V30 6391 H 590.761 3.70356 -2.01034 0
M  V30 6392 H 589.485 3.13853 -0.903548 0
M  V30 6393 H 588.144 2.29227 -2.86096 0
M  V30 6394 H 587.792 4.6145 -2.00182 0
M  V30 6395 H 587.492 4.51944 -3.75527 0
M  V30 6396 H 589.016 5.22991 -3.1514 0
M  V30 6397 H 590.43 3.45805 -4.57265 0
M  V30 6398 H 588.827 2.98431 -5.20633 0
M  V30 6399 H 589.897 1.74663 -4.5235 0
M  V30 6400 N 591.24 1.41047 0.703093 0
M  V30 6401 C 592.203 1.42036 1.79884 0
M  V30 6402 C 593.203 0.312153 1.57741 0
M  V30 6403 O 594.393 0.571672 1.64553 0
M  V30 6404 C 591.525 1.22437 3.18154 0
M  V30 6405 H 592.718 2.39572 1.80403 0
M  V30 6406 H 590.271 1.27079 0.909977 0
M  V30 6407 H 591.006 0.257112 3.23279 0
M  V30 6408 H 590.791 2.02723 3.35627 0
M  V30 6409 H 592.281 1.25946 3.98155 0
M  V30 6410 N 592.718 -0.936591 1.26751 0
M  V30 6411 C 594.129 -1.49816 1.1141 0
M  V30 6412 C 594.48 -1.9383 -0.304015 0
M  V30 6413 O 593.605 -1.80346 -1.196 0
M  V30 6414 C 594.2 -2.72271 2.01629 0
M  V30 6415 C 592.759 -3.2468 1.9042 0
M  V30 6416 C 591.906 -1.97444 1.94708 0
M  V30 6417 H 594.857 -0.751604 1.39773 0
M  V30 6418 H 594.878 -3.46741 1.56688 0
M  V30 6419 H 594.39 -2.40205 3.04833 0
M  V30 6420 H 592.491 -3.61525 0.901674 0
M  V30 6421 H 592.604 -3.91476 2.76195 0
M  V30 6422 H 590.968 -2.13545 1.38818 0
M  V30 6423 H 591.751 -1.67703 2.9955 0
M  V30 6424 N 594.196 -1.08629 -1.14182 0
M  V30 6425 C 595.159 -0.722027 -2.1753 0
M  V30 6426 C 596.159 0.244305 -1.58933 0
M  V30 6427 O 597.349 0.0235545 -1.74184 0
M  V30 6428 C 594.481 -0.0663966 -3.40835 0
M  V30 6429 H 595.674 -1.63719 -2.51269 0
M  V30 6430 H 593.227 -0.884442 -1.28869 0
M  V30 6431 H 593.962 0.860389 -3.12678 0
M  V30 6432 H 593.747 -0.761598 -3.84632 0
M  V30 6433 H 595.237 0.173346 -4.1724 0
M  V30 6434 N 595.674 1.31259 -0.872281 0
M  V30 6435 C 596.637 2.26744 -0.334656 0
M  V30 6436 C 597.637 1.52307 0.515681 0
M  V30 6437 O 598.827 1.71148 0.324656 0
M  V30 6438 C 595.959 3.36841 0.524482 0
M  V30 6439 H 597.152 2.75812 -1.17762 0
M  V30 6440 H 594.705 1.42232 -0.648064 0
M  V30 6441 H 595.44 2.93069 1.38855 0
M  V30 6442 H 595.225 3.92009 -0.0844299 0
M  V30 6443 H 596.715 4.07944 0.892838 0
M  V30 6444 N 597.152 0.631951 1.44375 0
M  V30 6445 C 598.4 0.136497 2.01639 0
M  V30 6446 C 598.721 -1.24637 1.49969 0
M  V30 6447 O 597.991 -1.82827 0.70363 0
M  V30 6448 H 596.571 0.0474703 0.74549 0
M  V30 6449 H 599.233 0.818837 1.76865 0
M  V30 6450 H 598.329 0.104817 3.11924 0
M  V30 6451 N 598.631 -1.53133 0.372548 0
M  V30 6452 C 599.908 -1.93704 -0.271693 0
M  V30 6453 C 600.288 -1.30667 -1.65799 0
M  V30 6454 O 599.636 -0.46838 -2.23648 0
M  V30 6455 C 599.846 -3.47576 -0.314903 0
M  V30 6456 C 601.194 -4.20998 -0.551912 0
M  V30 6457 O 602.218 -3.53994 -0.39582 0
M  V30 6458 O 601.077 -5.39748 -0.85639 0
M  V30 6459 H 598.171 -0.810457 -0.164586 0
M  V30 6460 H 600.717 -1.6427 0.425838 0
M  V30 6461 H 599.489 -3.85749 0.656792 0
M  V30 6462 H 599.112 -3.83264 -1.05804 0
M  V30 6463 N 600.109 -0.101901 -1.5727 0
M  V30 6464 C 601.337 0.568392 -1.98939 0
M  V30 6465 C 601.752 1.61301 -0.981194 0
M  V30 6466 O 601.109 1.82478 0.0282869 0
M  V30 6467 C 601.16 1.20997 -3.40649 0
M  V30 6468 O 600.881 0.207129 -4.3761 0
M  V30 6469 C 602.382 1.96523 -3.97358 0
M  V30 6470 H 599.602 0.15186 -0.65359 0
M  V30 6471 H 602.146 -0.183198 -2.03678 0
M  V30 6472 H 600.301 1.91245 -3.36904 0
M  V30 6473 H 600.715 0.671071 -5.20189 0
M  V30 6474 H 602.189 2.36764 -4.98645 0
M  V30 6475 H 602.666 2.83376 -3.35552 0
M  V30 6476 H 603.272 1.31076 -4.04598 0
M  V30 6477 N 601.587 1.56661 0.17182 0
M  V30 6478 C 602.836 1.81158 0.886831 0
M  V30 6479 C 603.149 0.679072 1.83434 0
M  V30 6480 O 604.355 0.808964 2.59168 0
M  V30 6481 C 602.811 3.20999 1.6275 0
M  V30 6482 C 602.419 4.42117 0.723652 0
M  V30 6483 C 604.163 3.5479 2.33076 0
M  V30 6484 C 602.07 5.7298 1.46452 0
M  V30 6485 H 601 0.675543 0.334899 0
M  V30 6486 H 603.651 1.82967 0.139765 0
M  V30 6487 H 602.033 3.13506 2.4193 0
M  V30 6488 H 603.207 4.60789 -0.0311485 0
M  V30 6489 H 601.522 4.16197 0.130063 0
M  V30 6490 H 604.119 4.49806 2.89099 0
M  V30 6491 H 604.462 2.79646 3.08389 0
M  V30 6492 H 604.995 3.63834 1.6084 0
M  V30 6493 H 601.734 6.51152 0.753729 0
M  V30 6494 H 601.254 5.58285 2.19266 0
M  V30 6495 H 602.933 6.14916 2.01214 0
M  V30 6496 N 603.065 -0.440357 1.51323 0
M  V30 6497 C 604.314 -1.18697 1.63076 0
M  V30 6498 C 604.627 -1.92418 0.35136 0
M  V30 6499 O 605.833 -2.69258 0.348221 0
M  V30 6500 C 604.289 -2.15849 2.87988 0
M  V30 6501 C 603.897 -1.47789 4.22921 0
M  V30 6502 C 605.641 -2.90962 3.09098 0
M  V30 6503 C 603.548 -2.43407 5.38987 0
M  V30 6504 H 602.478 -0.44676 0.607389 0
M  V30 6505 H 605.129 -0.454313 1.77787 0
M  V30 6506 H 603.511 -2.92537 2.66905 0
M  V30 6507 H 604.685 -0.7668 4.54375 0
M  V30 6508 H 603 -0.848404 4.07665 0
M  V30 6509 H 605.597 -3.62584 3.92985 0
M  V30 6510 H 605.94 -3.52133 2.22053 0
M  V30 6511 H 606.473 -2.21381 3.30507 0
M  V30 6512 H 603.212 -1.86929 6.28282 0
M  V30 6513 H 602.732 -3.12579 5.11913 0
M  V30 6514 H 604.411 -3.046 5.70813 0
M  V30 6515 N 604.543 -1.41418 -0.695603 0
M  V30 6516 C 605.768 -1.44329 -1.48942 0
M  V30 6517 C 606.193 -0.0501579 -1.88033 0
M  V30 6518 O 605.551 0.946598 -1.54626 0
M  V30 6519 C 605.599 -2.3578 -2.72837 0
M  V30 6520 O 604.703 -1.81482 -3.70322 0
M  V30 6521 H 604.044 -0.489838 -0.44828 0
M  V30 6522 H 606.574 -1.85878 -0.855014 0
M  V30 6523 H 606.584 -2.51654 -3.21145 0
M  V30 6524 H 605.259 -3.37005 -2.43722 0
M  V30 6525 H 603.836 -1.75058 -3.29255 0
M  V30 6526 N 606.021 0.929856 -1.27246 0
M  V30 6527 C 606.951 2.04722 -1.12299 0
M  V30 6528 C 607.932 1.70082 -0.0250464 0
M  V30 6529 O 609.117 1.93176 -0.199141 0
M  V30 6530 C 606.247 3.38721 -0.767145 0
M  V30 6531 C 605.201 3.87466 -1.81808 0
M  V30 6532 C 604.527 5.18246 -1.31626 0
M  V30 6533 C 605.827 4.11095 -3.22177 0
M  V30 6534 H 607.521 2.17485 -2.05769 0
M  V30 6535 H 605.067 1.04503 -0.990715 0
M  V30 6536 H 607.02 4.16366 -0.649413 0
M  V30 6537 H 605.744 3.25967 0.203259 0
M  V30 6538 H 604.403 3.12012 -1.92468 0
M  V30 6539 H 604.051 5.01881 -0.335378 0
M  V30 6540 H 603.751 5.51829 -2.01887 0
M  V30 6541 H 605.275 5.98462 -1.21143 0
M  V30 6542 H 606.689 4.79316 -3.1453 0
M  V30 6543 H 605.086 4.55982 -3.90129 0
M  V30 6544 H 606.156 3.16468 -3.67391 0
M  V30 6545 N 607.499 1.09233 1.13605 0
M  V30 6546 C 608.776 0.739633 1.81077 0
M  V30 6547 C 609.156 -0.775595 1.96336 0
M  V30 6548 O 608.504 -1.69726 1.52988 0
M  V30 6549 C 608.714 1.47636 3.16235 0
M  V30 6550 C 610.062 1.64087 3.91613 0
M  V30 6551 O 611.086 1.43871 3.25852 0
M  V30 6552 O 609.945 1.97511 5.0956 0
M  V30 6553 H 607.039 0.265464 0.783236 0
M  V30 6554 H 609.585 1.19441 1.20549 0
M  V30 6555 H 608.357 2.50818 3.00344 0
M  V30 6556 H 607.98 1.01362 3.84462 0
M  V30 6557 N 608.977 -1.30795 0.87923 0
M  V30 6558 C 610.224 -1.96362 0.494786 0
M  V30 6559 C 610.552 -1.69448 -0.954868 0
M  V30 6560 O 609.807 -0.988711 -1.68888 0
M  V30 6561 C 610.106 -3.50287 0.709476 0
M  V30 6562 C 609.772 -3.9724 2.13333 0
M  V30 6563 C 608.434 -4.09772 2.52271 0
M  V30 6564 C 610.786 -4.21807 3.06151 0
M  V30 6565 C 608.114 -4.44227 3.83248 0
M  V30 6566 C 610.466 -4.5773 4.36654 0
M  V30 6567 C 609.13 -4.68469 4.75492 0
M  V30 6568 H 608.4 -0.71854 0.181055 0
M  V30 6569 H 611.047 -1.55764 1.11399 0
M  V30 6570 H 609.352 -3.91799 0.0072 0
M  V30 6571 H 611.049 -3.99082 0.391703 0
M  V30 6572 H 607.639 -3.87988 1.82107 0
M  V30 6573 H 611.823 -4.11611 2.77291 0
M  V30 6574 H 607.079 -4.50741 4.13089 0
M  V30 6575 H 611.253 -4.7569 5.08617 0
M  V30 6576 H 608.88 -4.94923 5.77022 0
M  V30 6577 N 610.455 -0.639598 -1.44038 0
M  V30 6578 C 611.703 -0.147188 -2.01563 0
M  V30 6579 C 612.024 1.2384 -1.50628 0
M  V30 6580 O 611.294 1.82452 -0.713316 0
M  V30 6581 H 609.874 -0.0514231 -0.745228 0
M  V30 6582 H 612.536 -0.828205 -1.76428 0
M  V30 6583 H 611.632 -0.121358 -3.11864 0
M  V30 6584 N 611.933 1.52934 -0.380664 0
M  V30 6585 C 613.158 2.06363 0.207157 0
M  V30 6586 C 613.583 1.25122 1.4045 0
M  V30 6587 O 612.941 0.274062 1.79217 0
M  V30 6588 C 612.989 3.56162 0.563996 0
M  V30 6589 O 612.093 3.77552 1.65917 0
M  V30 6590 H 611.434 0.663468 0.0265859 0
M  V30 6591 H 613.964 1.9719 -0.545635 0
M  V30 6592 H 613.974 3.99453 0.830752 0
M  V30 6593 H 612.649 4.14732 -0.311427 0
M  V30 6594 H 611.226 3.46154 1.3868 0
M  V30 6595 N 613.412 0.11024 1.57214 0
M  V30 6596 C 614.36 -0.860586 2.16094 0
M  V30 6597 C 615.354 -1.28156 1.1078 0
M  V30 6598 O 616.56 -1.25433 1.29099 0
M  V30 6599 H 612.935 -0.295606 0.691463 0
M  V30 6600 H 614.906 -0.33942 2.96463 0
M  V30 6601 C 613.655 -2.10421 2.768 0
M  V30 6602 H 612.978 -1.7892 3.5753 0
M  V30 6603 H 614.418 -2.76375 3.21547 0
M  V30 6604 C 612.877 -2.88823 1.73444 0
M  V30 6605 O 613.407 -3.839 1.18251 0
M  V30 6606 N 611.613 -2.52649 1.43586 0
M  V30 6607 H 611.16 -1.754 1.8866 0
M  V30 6608 H 611.118 -3.05403 0.746735 0
M  V30 6609 N 614.89 -1.56749 -0.16351 0
M  V30 6610 C 616.167 -1.73321 -0.906599 0
M  V30 6611 C 616.547 -0.673779 -2.00059 0
M  V30 6612 O 615.895 0.310121 -2.26386 0
M  V30 6613 C 616.105 -3.168 -1.46419 0
M  V30 6614 C 617.453 -3.77993 -1.93407 0
M  V30 6615 O 618.477 -3.20127 -1.56196 0
M  V30 6616 O 617.336 -4.79615 -2.61976 0
M  V30 6617 H 614.43 -0.708073 -0.427272 0
M  V30 6618 H 616.976 -1.69029 -0.150727 0
M  V30 6619 H 615.748 -3.85396 -0.677189 0
M  V30 6620 H 615.371 -3.2545 -2.28403 0
M  V30 6621 N 616.368 0.432326 -1.51554 0
M  V30 6622 C 617.596 1.20364 -1.68286 0
M  V30 6623 C 618.011 1.84888 -0.38233 0
M  V30 6624 O 617.368 1.70924 0.639627 0
M  V30 6625 C 617.419 2.28398 -2.80208 0
M  V30 6626 O 617.14 1.66512 -4.05223 0
M  V30 6627 C 618.641 3.18584 -3.08251 0
M  V30 6628 H 615.861 0.36259 -0.564596 0
M  V30 6629 H 618.405 0.511647 -1.97996 0
M  V30 6630 H 616.56 2.93305 -2.53083 0
M  V30 6631 H 616.974 2.37951 -4.67418 0
M  V30 6632 H 618.448 3.90511 -3.90135 0
M  V30 6633 H 618.925 3.79628 -2.2086 0
M  V30 6634 H 619.531 2.59372 -3.37055 0
M  V30 6635 N 617.846 1.41785 0.688094 0
M  V30 6636 C 618.756 1.46596 1.83158 0
M  V30 6637 C 619.772 0.355862 1.70322 0
M  V30 6638 O 620.948 0.604737 1.92106 0
M  V30 6639 C 618.013 1.35322 3.192 0
M  V30 6640 C 617.074 2.56711 3.4409 0
M  V30 6641 C 616.307 2.45965 4.73642 0
M  V30 6642 O 616.53 1.48827 5.50642 0
M  V30 6643 O 615.464 3.35859 4.99482 0
M  V30 6644 H 619.29 2.43083 1.82056 0
M  V30 6645 H 616.875 1.23404 0.842126 0
M  V30 6646 H 618.757 1.31347 4.00407 0
M  V30 6647 H 617.432 0.419536 3.2097 0
M  V30 6648 H 616.339 2.66262 2.62784 0
M  V30 6649 H 617.672 3.48933 3.47141 0
M  V30 6650 N 619.324 -0.923095 1.27737 0
M  V30 6651 C 620.552 -1.70525 1.17171 0
M  V30 6652 C 620.967 -1.86847 -0.270881 0
M  V30 6653 O 620.324 -1.38879 -1.18401 0
M  V30 6654 C 620.375 -3.10242 1.85559 0
M  V30 6655 O 620.096 -2.94683 3.24182 0
M  V30 6656 C 621.597 -4.04586 1.81176 0
M  V30 6657 H 618.817 -0.533347 0.407163 0
M  V30 6658 H 621.361 -1.15599 1.68692 0
M  V30 6659 H 619.516 -3.62014 1.3793 0
M  V30 6660 H 619.93 -3.83045 3.58297 0
M  V30 6661 H 621.404 -5.00119 2.33633 0
M  V30 6662 H 621.881 -4.3218 0.782099 0
M  V30 6663 H 622.487 -3.58741 2.2844 0
M  V30 6664 N 620.802 -1.09834 -1.13024 0
M  V30 6665 C 622.079 -0.749225 -1.80682 0
M  V30 6666 C 622.459 0.765171 -1.96744 0
M  V30 6667 O 621.807 1.68912 -1.53886 0
M  V30 6668 C 622.017 -1.49311 -3.15448 0
M  V30 6669 C 623.365 -1.66162 -3.90737 0
M  V30 6670 O 624.389 -1.45597 -3.25085 0
M  V30 6671 O 623.248 -2.00211 -5.08505 0
M  V30 6672 H 620.342 -0.269614 -0.781817 0
M  V30 6673 H 622.888 -1.20078 -1.19914 0
M  V30 6674 H 621.66 -2.52407 -2.99009 0
M  V30 6675 H 621.283 -1.034 -3.8392 0
M  V30 6676 N 622.28 1.30327 -0.886154 0
M  V30 6677 C 623.557 1.90922 -0.425217 0
M  V30 6678 C 623.937 1.80533 1.09413 0
M  V30 6679 O 623.285 1.2233 1.92996 0
M  V30 6680 C 623.495 3.36529 -0.924638 0
M  V30 6681 C 624.843 4.13598 -0.960305 0
M  V30 6682 O 625.867 3.45377 -0.871382 0
M  V30 6683 O 624.726 5.35482 -1.09184 0
M  V30 6684 H 621.82 0.81668 -0.130238 0
M  V30 6685 H 624.366 1.38886 -0.975132 0
M  V30 6686 H 623.138 3.38181 -1.96849 0
M  V30 6687 H 622.761 3.96021 -0.353955 0
M  V30 6688 N 623.758 0.647228 1.43697 0
M  V30 6689 C 624.69 -0.0866232 2.29036 0
M  V30 6690 C 625.703 -0.793051 1.42178 0
M  V30 6691 O 626.892 -0.651807 1.66174 0
M  V30 6692 C 623.992 -1.14552 3.18953 0
M  V30 6693 C 623.165 -0.518422 4.34317 0
M  V30 6694 C 622.224 -1.4734 5.05151 0
M  V30 6695 O 621.25 -0.984312 5.60625 0
M  V30 6696 N 622.452 -2.8075 5.08094 0
M  V30 6697 H 625.217 0.645834 2.92659 0
M  V30 6698 H 622.778 0.489567 1.54321 0
M  V30 6699 H 624.77 -1.78505 3.63205 0
M  V30 6700 H 623.34 -1.78001 2.56971 0
M  V30 6701 H 622.56 0.300079 3.93056 0
M  V30 6702 H 623.848 -0.080401 5.08736 0
M  V30 6703 H 623.246 -3.23052 4.64386 0
M  V30 6704 H 621.803 -3.40022 5.56083 0
M  V30 6705 N 625.236 -1.5273 0.388769 0
M  V30 6706 C 626.168 -2.24081 -0.481704 0
M  V30 6707 C 627.181 -1.26307 -1.02715 0
M  V30 6708 O 628.37 -1.52386 -0.929565 0
M  V30 6709 C 625.47 -2.94315 -1.68024 0
M  V30 6710 C 624.643 -4.18791 -1.26226 0
M  V30 6711 C 623.702 -4.72028 -2.32542 0
M  V30 6712 O 622.728 -5.35129 -1.93972 0
M  V30 6713 N 623.93 -4.51838 -3.64448 0
M  V30 6714 H 626.695 -2.9942 0.129591 0
M  V30 6715 H 624.256 -1.60465 0.2151 0
M  V30 6716 H 626.248 -3.26831 -2.38671 0
M  V30 6717 H 624.818 -2.22287 -2.19789 0
M  V30 6718 H 624.038 -3.92318 -0.384703 0
M  V30 6719 H 625.326 -4.99668 -0.959647 0
M  V30 6720 H 624.724 -4.01468 -3.98547 0
M  V30 6721 H 623.281 -4.88845 -4.31131 0
M  V30 6722 N 626.714 -0.118576 -1.57153 0
M  V30 6723 C 627.644 0.828436 -2.1831 0
M  V30 6724 C 628.625 1.27758 -1.12303 0
M  V30 6725 O 629.81 1.34026 -1.40537 0
M  V30 6726 C 626.94 2.07876 -2.78217 0
M  V30 6727 C 625.894 1.76742 -3.89803 0
M  V30 6728 C 625.22 3.08801 -4.36516 0
M  V30 6729 C 626.52 1.03606 -5.11921 0
M  V30 6730 H 628.214 0.318824 -2.97698 0
M  V30 6731 H 625.76 0.151911 -1.43196 0
M  V30 6732 H 627.713 2.74584 -3.19659 0
M  V30 6733 H 626.437 2.61161 -1.96118 0
M  V30 6734 H 625.096 1.12424 -3.48936 0
M  V30 6735 H 624.744 3.6002 -3.51276 0
M  V30 6736 H 624.444 2.88743 -5.11763 0
M  V30 6737 H 625.968 3.76627 -4.80608 0
M  V30 6738 H 627.382 1.60467 -5.50385 0
M  V30 6739 H 625.779 0.936454 -5.92748 0
M  V30 6740 H 626.849 0.0227421 -4.84895 0
M  V30 6741 N 628.193 1.56834 0.155195 0
M  V30 6742 C 629.103 2.009 1.21146 0
M  V30 6743 C 630.119 0.923029 1.475 0
M  V30 6744 O 631.295 1.23189 1.59331 0
M  V30 6745 C 628.36 2.37378 2.52691 0
M  V30 6746 C 627.421 3.59883 2.34057 0
M  V30 6747 C 626.654 3.94612 3.59329 0
M  V30 6748 O 626.877 3.30104 4.65175 0
M  V30 6749 O 625.811 4.87895 3.52479 0
M  V30 6750 H 629.637 2.9105 0.867371 0
M  V30 6751 H 627.222 1.44916 0.363298 0
M  V30 6752 H 629.104 2.61737 3.3026 0
M  V30 6753 H 627.779 1.50385 2.86646 0
M  V30 6754 H 626.686 3.40722 1.54465 0
M  V30 6755 H 628.019 4.47468 2.0502 0
M  V30 6756 N 629.671 -0.424282 1.51781 0
M  V30 6757 C 630.581 -1.54087 1.76902 0
M  V30 6758 C 631.597 -1.61249 0.653826 0
M  V30 6759 O 632.773 -1.78247 0.937552 0
M  V30 6760 C 629.838 -2.8996 1.90063 0
M  V30 6761 C 628.899 -2.92809 3.13945 0
M  V30 6762 C 628.132 -4.22201 3.26469 0
M  V30 6763 O 628.355 -5.15286 2.44616 0
M  V30 6764 O 627.289 -4.31599 4.1953 0
M  V30 6765 H 631.115 -1.358 2.71647 0
M  V30 6766 H 628.7 -0.608618 1.36441 0
M  V30 6767 H 630.582 -3.70575 2.0063 0
M  V30 6768 H 629.257 -3.08347 0.985067 0
M  V30 6769 H 628.164 -2.11102 3.08847 0
M  V30 6770 H 629.497 -2.79369 4.05233 0
M  V30 6771 N 631.149 -1.42148 -0.680565 0
M  V30 6772 C 632.395 -1.42521 -1.44277 0
M  V30 6773 C 632.728 -0.0393718 -1.9416 0
M  V30 6774 O 632.003 0.935425 -1.70529 0
M  V30 6775 C 632.286 -2.44475 -2.64394 0
M  V30 6776 C 632.139 -3.92226 -2.20179 0
M  V30 6777 C 633.458 -2.43491 -3.66606 0
M  V30 6778 H 630.577 -0.518985 -0.523282 0
M  V30 6779 H 633.219 -1.73524 -0.773914 0
M  V30 6780 H 631.369 -2.18168 -3.21458 0
M  V30 6781 H 633.041 -4.29493 -1.68327 0
M  V30 6782 H 631.284 -4.0637 -1.5181 0
M  V30 6783 H 631.955 -4.59133 -3.06433 0
M  V30 6784 H 634.431 -2.66872 -3.19247 0
M  V30 6785 H 633.307 -3.16816 -4.4824 0
M  V30 6786 H 633.568 -1.45881 -4.17338 0
M  V30 6787 N 632.627 0.916307 -1.28225 0
M  V30 6788 C 634.038 1.48024 -1.13779 0
M  V30 6789 C 634.389 1.94289 0.273139 0
M  V30 6790 O 633.514 1.82226 1.16716 0
M  V30 6791 C 634.109 2.69029 -2.05935 0
M  V30 6792 C 632.668 3.2161 -1.95561 0
M  V30 6793 C 631.815 1.94321 -1.97825 0
M  V30 6794 H 634.766 0.729272 -1.40951 0
M  V30 6795 H 634.787 3.44204 -1.62184 0
M  V30 6796 H 634.299 2.35325 -3.08616 0
M  V30 6797 H 632.4 3.60045 -0.959076 0
M  V30 6798 H 632.513 3.87032 -2.82388 0
M  V30 6799 H 630.877 2.1131 -1.42198 0
M  V30 6800 H 631.66 1.62917 -3.0218 0
M  V30 6801 N 634.105 1.10431 1.1244 0
M  V30 6802 C 635.035 0.775143 2.20258 0
M  V30 6803 C 636.016 -0.25186 1.68225 0
M  V30 6804 O 637.201 -0.117637 1.93843 0
M  V30 6805 C 634.331 0.206133 3.46688 0
M  V30 6806 C 633.285 1.16382 4.11873 0
M  V30 6807 C 632.611 0.456014 5.32752 0
M  V30 6808 C 633.911 2.5104 4.58013 0
M  V30 6809 H 635.605 1.67665 2.4805 0
M  V30 6810 H 633.151 0.807595 1.19222 0
M  V30 6811 H 635.104 -0.036291 4.21384 0
M  V30 6812 H 633.828 -0.730614 3.18323 0
M  V30 6813 H 632.487 1.39169 3.39157 0
M  V30 6814 H 632.135 -0.485203 5.00654 0
M  V30 6815 H 631.835 1.09466 5.77314 0
M  V30 6816 H 633.359 0.222135 6.10196 0
M  V30 6817 H 634.773 2.32401 5.24083 0
M  V30 6818 H 633.17 3.10789 5.13352 0
M  V30 6819 H 634.24 3.11039 3.71998 0
M  V30 6820 N 635.583 -1.29855 0.893053 0
M  V30 6821 C 636.813 -1.99686 0.530019 0
M  V30 6822 C 637.221 -1.67066 -0.888012 0
M  V30 6823 O 636.564 -0.908366 -1.5967 0
M  V30 6824 C 636.626 -3.53855 0.63457 0
M  V30 6825 C 636.29 -4.10013 2.01837 0
M  V30 6826 C 637.287 -4.25406 2.98874 0
M  V30 6827 C 634.972 -4.45202 2.32595 0
M  V30 6828 C 636.966 -4.7521 4.24799 0
M  V30 6829 C 634.653 -4.94704 3.58763 0
M  V30 6830 C 635.651 -5.09662 4.5468 0
M  V30 6831 O 635.339 -5.58093 5.78608 0
M  V30 6832 H 635.071 -0.644913 0.20264 0
M  V30 6833 H 637.625 -1.66518 1.20253 0
M  V30 6834 H 635.855 -3.86583 -0.0949477 0
M  V30 6835 H 637.544 -4.04922 0.281648 0
M  V30 6836 H 638.31 -3.98515 2.76425 0
M  V30 6837 H 634.189 -4.32822 1.58701 0
M  V30 6838 H 637.733 -4.86801 4.99671 0
M  V30 6839 H 633.63 -5.21032 3.81046 0
M  V30 6840 H 634.398 -5.7642 5.81104 0
M  V30 6841 N 637.061 -0.65484 -1.43351 0
M  V30 6842 C 638.009 0.0476784 -2.32551 0
M  V30 6843 C 639.003 0.811403 -1.48703 0
M  V30 6844 O 640.209 0.721621 -1.64902 0
M  V30 6845 H 636.584 0.0342038 -0.751222 0
M  V30 6846 H 638.555 -0.722342 -2.89525 0
M  V30 6847 C 637.304 0.999251 -3.33032 0
M  V30 6848 H 636.627 0.421005 -3.97577 0
M  V30 6849 H 638.067 1.45986 -3.98076 0
M  V30 6850 C 636.526 2.09606 -2.63756 0
M  V30 6851 O 637.056 3.18004 -2.4543 0
M  V30 6852 N 635.262 1.86207 -2.23103 0
M  V30 6853 H 634.809 0.980555 -2.38208 0
M  V30 6854 H 634.767 2.59787 -1.77081 0
M  V30 6855 N 638.539 1.52521 -0.396863 0
M  V30 6856 C 639.816 1.94112 0.240842 0
M  V30 6857 C 640.196 1.33288 1.637 0
M  V30 6858 O 639.544 0.503901 2.22875 0
M  V30 6859 C 639.754 3.48033 0.259567 0
M  V30 6860 C 641.102 4.21822 0.484866 0
M  V30 6861 O 642.126 3.54579 0.339453 0
M  V30 6862 O 640.985 5.41042 0.770412 0
M  V30 6863 H 638.079 0.812973 0.151671 0
M  V30 6864 H 640.625 1.63572 -0.451918 0
M  V30 6865 H 639.397 3.84655 -0.718078 0
M  V30 6866 H 639.02 3.84899 0.996937 0
M  V30 6867 N 640.017 0.126909 1.57088 0
M  V30 6868 C 641.263 -0.529952 1.95753 0
M  V30 6869 C 641.596 -1.65823 1.01077 0
M  V30 6870 O 640.871 -1.94437 0.0494162 0
M  V30 6871 C 641.154 -1.05517 3.44294 0
M  V30 6872 C 641.007 0.0702253 4.49745 0
M  V30 6873 C 642.326 -1.9435 3.94862 0
M  V30 6874 H 639.445 -0.191168 0.711775 0
M  V30 6875 H 642.087 0.204071 1.88901 0
M  V30 6876 H 640.237 -1.68069 3.50264 0
M  V30 6877 H 641.909 0.705834 4.55868 0
M  V30 6878 H 640.152 0.732259 4.27575 0
M  V30 6879 H 640.823 -0.338642 5.5096 0
M  V30 6880 H 643.299 -1.41658 3.91244 0
M  V30 6881 H 642.175 -2.28015 4.993 0
M  V30 6882 H 642.436 -2.87299 3.36024 0
M  V30 6883 N 641.495 -1.56914 -0.146875 0
M  V30 6884 C 642.428 -1.93425 -1.21087 0
M  V30 6885 C 643.406 -0.800106 -1.41552 0
M  V30 6886 O 644.59 -1.05572 -1.56162 0
M  V30 6887 C 641.717 -2.20639 -2.56975 0
M  V30 6888 C 640.763 -3.43279 -2.53104 0
M  V30 6889 S 641.596 -4.96836 -1.99786 0
M  V30 6890 C 642.752 -5.27172 -3.37403 0
M  V30 6891 H 642.985 -2.8337 -0.899378 0
M  V30 6892 H 640.518 -1.50322 -0.352494 0
M  V30 6893 H 642.476 -2.36998 -3.35175 0
M  V30 6894 H 641.137 -1.31357 -2.85314 0
M  V30 6895 H 640.33 -3.59599 -3.53136 0
M  V30 6896 H 639.932 -3.26163 -1.83012 0
M  V30 6897 H 642.224 -5.20647 -4.33513 0
M  V30 6898 H 643.167 -6.28626 -3.25937 0
M  V30 6899 H 643.575 -4.54687 -3.34544 0
M  V30 6900 N 642.974 0.416227 -1.52004 0
M  V30 6901 C 643.904 1.51365 -1.77795 0
M  V30 6902 C 644.885 1.58059 -0.628601 0
M  V30 6903 O 646.07 1.73447 -0.873478 0
M  V30 6904 C 643.2 2.89256 -1.92219 0
M  V30 6905 C 642.154 2.97415 -3.0778 0
M  V30 6906 C 641.48 4.37492 -3.07417 0
M  V30 6907 C 642.78 2.69551 -4.47369 0
M  V30 6908 H 644.474 1.30033 -2.69688 0
M  V30 6909 H 642.02 0.624112 -1.29772 0
M  V30 6910 H 643.973 3.66008 -2.08845 0
M  V30 6911 H 642.697 3.11866 -0.969917 0
M  V30 6912 H 641.356 2.23107 -2.90893 0
M  V30 6913 H 641.004 4.571 -2.09925 0
M  V30 6914 H 640.704 4.43877 -3.85029 0
M  V30 6915 H 642.228 5.16188 -3.26162 0
M  V30 6916 H 643.642 3.36028 -4.64497 0
M  V30 6917 H 642.039 2.87321 -5.26846 0
M  V30 6918 H 643.109 1.65029 -4.55953 0
M  V30 6919 N 644.452 1.42507 0.673017 0
M  V30 6920 C 645.863 1.38347 1.25367 0
M  V30 6921 C 646.214 0.0776327 1.96046 0
M  V30 6922 O 645.339 -0.823571 2.00116 0
M  V30 6923 C 645.934 2.506 2.28002 0
M  V30 6924 C 644.493 2.49767 2.81591 0
M  V30 6925 C 643.64 2.293 1.55938 0
M  V30 6926 H 646.591 1.51695 0.466288 0
M  V30 6927 H 646.612 2.20953 3.09774 0
M  V30 6928 H 646.124 3.45627 1.76532 0
M  V30 6929 H 644.225 1.58563 3.37177 0
M  V30 6930 H 644.338 3.46867 3.30485 0
M  V30 6931 H 642.702 1.77594 1.82572 0
M  V30 6932 H 643.485 3.26385 1.06431 0
M  V30 6933 N 645.93 -0.909495 1.28709 0
M  V30 6934 C 647.155 -1.69801 1.1909 0
M  V30 6935 C 647.58 -1.86479 -0.246388 0
M  V30 6936 O 646.938 -1.37802 -1.17815 0
M  V30 6937 C 646.986 -3.06543 1.89904 0
M  V30 6938 O 646.09 -3.94268 1.2094 0
M  V30 6939 H 645.431 -0.519783 0.413185 0
M  V30 6940 H 647.961 -1.13689 1.70106 0
M  V30 6941 H 647.971 -3.56748 1.97977 0
M  V30 6942 H 646.646 -2.93722 2.94449 0
M  V30 6943 H 645.223 -3.52702 1.2106 0
M  V30 6944 N 647.408 -1.11026 -1.11852 0
M  V30 6945 C 648.819 -0.873203 -1.65021 0
M  V30 6946 C 649.17 0.595364 -1.86949 0
M  V30 6947 O 648.295 1.45645 -1.60051 0
M  V30 6948 C 648.89 -1.57859 -2.99777 0
M  V30 6949 C 647.449 -1.38807 -3.49871 0
M  V30 6950 C 646.596 -1.62403 -2.24768 0
M  V30 6951 H 649.547 -1.26712 -0.955503 0
M  V30 6952 H 649.568 -1.02111 -3.66543 0
M  V30 6953 H 649.08 -2.6474 -2.83786 0
M  V30 6954 H 647.181 -0.341163 -3.71035 0
M  V30 6955 H 647.294 -2.13421 -4.28938 0
M  V30 6956 H 645.658 -1.04714 -2.32179 0
M  V30 6957 H 646.441 -2.70549 -2.11324 0
M  V30 6958 N 648.886 1.2938 -0.899927 0
M  V30 6959 C 649.834 2.29675 -0.367698 0
M  V30 6960 C 650.828 1.60787 0.533282 0
M  V30 6961 O 652.034 1.75126 0.416058 0
M  V30 6962 H 648.409 0.745284 -0.100279 0
M  V30 6963 H 650.38 2.72008 -1.22696 0
M  V30 6964 C 649.129 3.45512 0.389483 0
M  V30 6965 H 648.452 3.98713 -0.294575 0
M  V30 6966 H 649.892 4.17725 0.726744 0
M  V30 6967 C 648.351 2.969 1.59223 0
M  V30 6968 O 648.881 2.98195 2.69152 0
M  V30 6969 N 647.087 2.52728 1.43447 0
M  V30 6970 H 646.634 2.51873 0.540148 0
M  V30 6971 H 646.592 2.20561 2.24054 0
M  V30 6972 N 650.364 0.662433 1.43002 0
M  V30 6973 C 651.274 -0.0239199 2.34588 0
M  V30 6974 C 652.29 -0.802255 1.54402 0
M  V30 6975 O 653.466 -0.747401 1.87018 0
M  V30 6976 C 650.531 -0.972098 3.32793 0
M  V30 6977 C 649.592 -0.189673 4.28881 0
M  V30 6978 C 648.825 -1.09269 5.22395 0
M  V30 6979 O 649.048 -2.33209 5.20547 0
M  V30 6980 O 647.982 -0.560136 5.99288 0
M  V30 6981 H 651.808 0.730171 2.94792 0
M  V30 6982 H 649.393 0.422635 1.43297 0
M  V30 6983 H 651.275 -1.51676 3.93157 0
M  V30 6984 H 649.95 -1.70626 2.75079 0
M  V30 6985 H 648.857 0.398794 3.71968 0
M  V30 6986 H 650.19 0.50511 4.89601 0
M  V30 6987 N 651.842 -1.52309 0.404946 0
M  V30 6988 C 652.789 -2.26898 -0.422597 0
M  V30 6989 C 653.759 -1.2914 -1.04461 0
M  V30 6990 O 654.944 -1.57996 -1.06967 0
M  V30 6991 C 652.084 -3.09053 -1.53559 0
M  V30 6992 C 651.197 -4.21762 -0.934908 0
M  V30 6993 C 650.332 -4.91283 -2.02025 0
M  V30 6994 C 649.371 -5.95962 -1.39628 0
M  V30 6995 N 648.508 -6.59017 -2.42159 0
M  V30 6996 H 653.348 -2.97188 0.219903 0
M  V30 6997 H 650.885 -1.46607 0.120282 0
M  V30 6998 H 652.843 -3.54987 -2.19181 0
M  V30 6999 H 651.473 -2.40942 -2.14818 0
M  V30 7000 H 650.525 -3.80029 -0.167854 0
M  V30 7001 H 651.837 -4.96864 -0.439073 0
M  V30 7002 H 650.991 -5.40601 -2.75383 0
M  V30 7003 H 649.73 -4.15741 -2.54973 0
M  V30 7004 H 648.735 -5.45968 -0.648023 0
M  V30 7005 H 649.96 -6.73445 -0.874553 0
M  V30 7006 H 647.906 -5.86306 -2.94247 0
M  V30 7007 H 647.823 -7.2978 -1.97376 0
M  V30 7008 H 649.091 -7.12974 -3.15099 0
M  V30 7009 N 653.32 -0.135238 -1.57019 0
M  V30 7010 C 654.25 0.805235 -2.19176 0
M  V30 7011 C 655.231 1.2656 -1.13651 0
M  V30 7012 O 656.416 1.32528 -1.4195 0
M  V30 7013 C 653.546 2.04914 -2.80406 0
M  V30 7014 C 652.5 1.72598 -3.91655 0
M  V30 7015 C 651.826 3.04154 -4.39766 0
M  V30 7016 C 653.126 0.981709 -5.12991 0
M  V30 7017 H 654.82 0.287232 -2.98019 0
M  V30 7018 H 652.366 0.136714 -1.4335 0
M  V30 7019 H 654.319 2.71178 -3.22553 0
M  V30 7020 H 653.043 2.59067 -1.98877 0
M  V30 7021 H 651.702 1.08717 -3.50109 0
M  V30 7022 H 651.35 3.56274 -3.55075 0
M  V30 7023 H 651.05 2.83299 -5.14796 0
M  V30 7024 H 652.574 3.71509 -4.84576 0
M  V30 7025 H 653.988 1.5462 -5.52056 0
M  V30 7026 H 652.385 0.873533 -5.93708 0
M  V30 7027 H 653.455 -0.0286887 -4.84892 0
M  V30 7028 N 654.798 1.5699 0.138552 0
M  V30 7029 C 655.73 1.95515 1.1961 0
M  V30 7030 C 656.743 0.852002 1.38726 0
M  V30 7031 O 657.932 1.13038 1.38147 0
M  V30 7032 C 655.032 2.2213 2.55952 0
M  V30 7033 C 654.205 3.53424 2.57702 0
M  V30 7034 C 653.264 3.6848 3.75645 0
M  V30 7035 O 652.29 4.4079 3.60129 0
M  V30 7036 N 653.492 3.05777 4.93438 0
M  V30 7037 H 656.257 2.86838 0.868557 0
M  V30 7038 H 653.818 1.58542 0.328033 0
M  V30 7039 H 655.81 2.29435 3.33379 0
M  V30 7040 H 654.38 1.3703 2.80965 0
M  V30 7041 H 653.6 3.57484 1.6613 0
M  V30 7042 H 654.888 4.39759 2.55909 0
M  V30 7043 H 654.286 2.46961 5.08947 0
M  V30 7044 H 652.843 3.18631 5.6861 0
M  V30 7045 N 656.276 -0.40816 1.52223 0
M  V30 7046 C 657.224 -1.51788 1.76248 0
M  V30 7047 C 658.218 -1.57264 0.629638 0
M  V30 7048 O 659.424 -1.60659 0.811704 0
M  V30 7049 H 655.799 -0.504823 0.557367 0
M  V30 7050 H 657.77 -1.2871 2.69214 0
M  V30 7051 C 656.519 -2.89145 1.93107 0
M  V30 7052 H 655.842 -2.85674 2.79697 0
M  V30 7053 H 657.282 -3.66082 2.13916 0
M  V30 7054 C 655.741 -3.29581 0.698431 0
M  V30 7055 O 656.271 -4.01479 -0.133238 0
M  V30 7056 N 654.477 -2.85651 0.53405 0
M  V30 7057 H 654.024 -2.2731 1.21194 0
M  V30 7058 H 653.982 -3.13065 -0.289387 0
M  V30 7059 N 657.755 -1.42862 -0.66545 0
M  V30 7060 C 659.004 -1.43119 -1.42126 0
M  V30 7061 C 659.317 -0.0545297 -1.95524 0
M  V30 7062 O 660.523 0.0654747 -2.71421 0
M  V30 7063 C 658.979 -2.51797 -2.5715 0
M  V30 7064 C 658.587 -3.95514 -2.10411 0
M  V30 7065 C 660.331 -2.61233 -3.346 0
M  V30 7066 C 658.238 -4.95682 -3.22573 0
M  V30 7067 H 657.168 -0.532349 -0.533966 0
M  V30 7068 H 659.819 -1.68806 -0.719506 0
M  V30 7069 H 658.201 -2.19292 -3.29738 0
M  V30 7070 H 659.375 -4.3742 -1.44915 0
M  V30 7071 H 657.69 -3.90012 -1.45874 0
M  V30 7072 H 660.287 -3.33248 -4.18151 0
M  V30 7073 H 660.63 -1.65896 -3.81817 0
M  V30 7074 H 661.163 -2.9298 -2.69087 0
M  V30 7075 H 657.902 -5.92529 -2.80338 0
M  V30 7076 H 657.422 -4.58399 -3.86821 0
M  V30 7077 H 659.101 -5.17828 -3.87896 0
M  V30 7078 N 659.233 0.902656 -1.29189 0
M  V30 7079 C 660.181 2.0278 -1.13943 0
M  V30 7080 C 661.175 1.69308 -0.055787 0
M  V30 7081 O 662.381 1.78707 -0.215371 0
M  V30 7082 H 658.756 0.664595 -0.351877 0
M  V30 7083 H 660.727 2.12778 -2.09208 0
M  V30 7084 C 659.476 3.37657 -0.82966 0
M  V30 7085 H 658.799 3.63913 -1.65551 0
M  V30 7086 H 660.239 4.17078 -0.762998 0
M  V30 7087 C 658.698 3.33648 0.466991 0
M  V30 7088 O 659.228 3.72886 1.49395 0
M  V30 7089 N 657.434 2.86745 0.471761 0
M  V30 7090 H 656.981 2.55009 -0.364406 0
M  V30 7091 H 656.939 2.84446 1.33933 0
M  V30 7092 N 660.711 1.11618 1.11262 0
M  V30 7093 C 661.641 0.79846 2.19424 0
M  V30 7094 C 662.622 -0.234003 1.68483 0
M  V30 7095 O 663.807 -0.0970704 1.93957 0
M  V30 7096 C 660.937 0.242892 3.4645 0
M  V30 7097 C 659.891 1.20744 4.10615 0
M  V30 7098 C 659.217 0.512494 5.32238 0
M  V30 7099 C 660.517 2.55884 4.55325 0
M  V30 7100 H 662.211 1.70286 2.46258 0
M  V30 7101 H 659.757 0.820195 1.18359 0
M  V30 7102 H 661.71 0.00840447 4.21399 0
M  V30 7103 H 660.434 -0.696811 3.1908 0
M  V30 7104 H 659.093 1.42759 3.37662 0
M  V30 7105 H 658.741 -0.432075 5.01141 0
M  V30 7106 H 658.441 1.15583 5.7612 0
M  V30 7107 H 659.965 0.286842 6.09926 0
M  V30 7108 H 661.379 2.37946 5.21588 0
M  V30 7109 H 659.776 3.16216 5.10027 0
M  V30 7110 H 660.846 3.14968 3.68678 0
M  V30 7111 N 662.189 -1.289 0.906776 0
M  V30 7112 C 663.152 -2.25777 0.394656 0
M  V30 7113 C 664.152 -1.53621 -0.475119 0
M  V30 7114 O 665.342 -1.71949 -0.279165 0
M  V30 7115 C 662.474 -3.38113 -0.43499 0
M  V30 7116 H 663.667 -2.72592 1.25033 0
M  V30 7117 H 661.22 -1.40463 0.685547 0
M  V30 7118 H 661.955 -2.96648 -1.31036 0
M  V30 7119 H 661.74 -3.91647 0.188334 0
M  V30 7120 H 663.23 -4.10168 -0.784365 0
M  V30 7121 N 663.667 -0.670007 -1.42649 0
M  V30 7122 C 664.6 0.0613623 -2.28117 0
M  V30 7123 C 665.578 0.813414 -1.40792 0
M  V30 7124 O 666.762 0.809529 -1.70232 0
M  V30 7125 C 663.889 1.09399 -3.20546 0
M  V30 7126 C 662.935 0.438064 -4.24244 0
M  V30 7127 S 663.768 -0.800808 -5.29478 0
M  V30 7128 C 664.924 0.23086 -6.25474 0
M  V30 7129 H 665.157 -0.663606 -2.89799 0
M  V30 7130 H 662.69 -0.45939 -1.47407 0
M  V30 7131 H 664.648 1.68469 -3.74337 0
M  V30 7132 H 663.309 1.79137 -2.58009 0
M  V30 7133 H 662.502 1.21707 -4.89084 0
M  V30 7134 H 662.104 -0.0789346 -3.73917 0
M  V30 7135 H 664.396 1.09204 -6.68641 0
M  V30 7136 H 665.339 -0.382945 -7.07064 0
M  V30 7137 H 665.747 0.574191 -5.61572 0
M  V30 7138 N 665.145 1.52092 -0.413018 0
M  V30 7139 C 666.37 2.06756 0.163338 0
M  V30 7140 C 666.795 1.28073 1.37764 0
M  V30 7141 O 666.153 0.312015 1.78595 0
M  V30 7142 C 666.201 3.57278 0.488322 0
M  V30 7143 O 665.305 3.80986 1.57871 0
M  V30 7144 H 664.646 0.663882 0.0125068 0
M  V30 7145 H 667.176 1.95988 -0.587339 0
M  V30 7146 H 667.186 4.01125 0.745836 0
M  V30 7147 H 665.861 4.13978 -0.399327 0
M  V30 7148 H 664.438 3.49017 1.31306 0
M  V30 7149 N 666.623 0.143563 1.56945 0
M  V30 7150 C 668.034 -0.37783 1.82837 0
M  V30 7151 C 668.385 -1.64967 1.06209 0
M  V30 7152 O 667.51 -2.14221 0.306291 0
M  V30 7153 C 668.105 -0.692274 3.31652 0
M  V30 7154 C 666.664 -1.1582 3.58138 0
M  V30 7155 C 665.811 -0.17951 2.76718 0
M  V30 7156 H 668.762 0.368317 1.54367 0
M  V30 7157 H 668.783 -1.54729 3.47619 0
M  V30 7158 H 668.295 0.233572 3.87397 0
M  V30 7159 H 666.396 -2.10011 3.07776 0
M  V30 7160 H 666.509 -1.08655 4.66616 0
M  V30 7161 H 664.873 -0.671458 2.4569 0
M  V30 7162 H 665.656 0.739865 3.35233 0
M  V30 7163 N 668.101 -1.57061 -0.130224 0
M  V30 7164 C 669.031 -2.02552 -1.16168 0
M  V30 7165 C 670.012 -0.907971 -1.4384 0
M  V30 7166 O 671.197 -1.17693 -1.54473 0
M  V30 7167 C 668.327 -2.42035 -2.49071 0
M  V30 7168 C 667.281 -3.5713 -2.35886 0
M  V30 7169 C 666.607 -3.82478 -3.7365 0
M  V30 7170 C 667.907 -4.89236 -1.8288 0
M  V30 7171 H 669.601 -2.8897 -0.783359 0
M  V30 7172 H 667.147 -1.39021 -0.375376 0
M  V30 7173 H 669.1 -2.72462 -3.21469 0
M  V30 7174 H 667.824 -1.52573 -2.88771 0
M  V30 7175 H 666.483 -3.26895 -1.65938 0
M  V30 7176 H 666.131 -2.9024 -4.10816 0
M  V30 7177 H 665.831 -4.59944 -3.65685 0
M  V30 7178 H 667.355 -4.15347 -4.47571 0
M  V30 7179 H 668.769 -5.18272 -2.45085 0
M  V30 7180 H 667.166 -5.70624 -1.85763 0
M  V30 7181 H 668.236 -4.78494 -0.785571 0
M  V30 7182 N 669.579 0.400081 -1.52437 0
M  V30 7183 C 670.99 0.97851 -1.59003 0
M  V30 7184 C 671.341 1.91293 -0.436068 0
M  V30 7185 O 670.466 2.1183 0.442365 0
M  V30 7186 C 671.061 1.78145 -2.88184 0
M  V30 7187 C 669.62 2.30976 -2.97199 0
M  V30 7188 C 668.767 1.11212 -2.54022 0
M  V30 7189 H 671.718 0.180002 -1.57676 0
M  V30 7190 H 671.739 2.63968 -2.74046 0
M  V30 7191 H 671.251 1.1011 -3.72152 0
M  V30 7192 H 669.352 3.02355 -2.17744 0
M  V30 7193 H 669.465 2.61221 -4.01622 0
M  V30 7194 H 667.829 1.46882 -2.08081 0
M  V30 7195 H 668.612 0.447307 -3.40373 0
M  V30 7196 N 671.057 1.43213 0.657864 0
M  V30 7197 C 672.285 1.48015 1.44566 0
M  V30 7198 C 672.7 0.0965951 1.88553 0
M  V30 7199 O 672.057 -0.892221 1.59203 0
M  V30 7200 C 672.108 2.42199 2.68369 0
M  V30 7201 O 671.829 3.75173 2.26223 0
M  V30 7202 C 673.33 2.56195 3.61772 0
M  V30 7203 H 670.55 0.502861 0.444266 0
M  V30 7204 H 673.094 1.87907 0.806917 0
M  V30 7205 H 671.249 2.05514 3.28394 0
M  V30 7206 H 671.663 4.25776 3.06293 0
M  V30 7207 H 673.137 3.26182 4.4532 0
M  V30 7208 H 673.614 1.60534 4.0881 0
M  V30 7209 H 674.22 2.93671 3.07632 0
M  V30 7210 N 672.536 -0.895792 1.29666 0
M  V30 7211 C 673.499 -1.98189 1.15124 0
M  V30 7212 C 674.499 -1.60572 0.0855717 0
M  V30 7213 O 675.689 -1.70991 0.332826 0
M  V30 7214 C 672.821 -3.32289 0.761372 0
M  V30 7215 H 674.014 -2.12518 2.11603 0
M  V30 7216 H 671.567 -1.0808 1.12908 0
M  V30 7217 H 672.302 -3.23662 -0.203393 0
M  V30 7218 H 672.087 -3.60958 1.53139 0
M  V30 7219 H 673.577 -4.1198 0.682792 0
M  V30 7220 N 674.014 -1.12206 -1.10668 0
M  V30 7221 C 674.924 -0.800686 -2.20513 0
M  V30 7222 C 675.94 0.209512 -1.72734 0
M  V30 7223 O 677.116 0.043705 -2.01353 0
M  V30 7224 C 674.181 -0.257353 -3.45744 0
M  V30 7225 C 673.242 -1.32718 -4.0827 0
M  V30 7226 C 672.475 -0.809674 -5.27522 0
M  V30 7227 O 672.698 0.35742 -5.69279 0
M  V30 7228 O 671.632 -1.57816 -5.80842 0
M  V30 7229 H 675.458 -1.71807 -2.50432 0
M  V30 7230 H 673.043 -0.898546 -1.19359 0
M  V30 7231 H 674.925 0.0408849 -4.2138 0
M  V30 7232 H 673.6 0.632627 -3.17458 0
M  V30 7233 H 672.507 -1.67855 -3.34329 0
M  V30 7234 H 673.84 -2.19083 -4.40753 0
M  V30 7235 N 675.492 1.28418 -0.913599 0
M  V30 7236 C 676.72 1.99106 -0.562536 0
M  V30 7237 C 677.135 1.68273 0.856137 0
M  V30 7238 O 676.492 0.935401 1.56705 0
M  V30 7239 C 676.543 3.5338 -0.761903 0
M  V30 7240 O 676.264 3.83127 -2.12475 0
M  V30 7241 C 677.765 4.41328 -0.417651 0
M  V30 7242 H 674.985 0.635798 -0.214481 0
M  V30 7243 H 677.529 1.63618 -1.22676 0
M  V30 7244 H 675.684 3.8713 -0.144676 0
M  V30 7245 H 676.098 4.77763 -2.16431 0
M  V30 7246 H 677.572 5.48642 -0.607919 0
M  V30 7247 H 678.049 4.34422 0.646108 0
M  V30 7248 H 678.655 4.13074 -1.01241 0
M  V30 7249 N 676.97 0.677563 1.42291 0
M  V30 7250 C 678.381 0.277912 1.8462 0
M  V30 7251 C 678.732 -1.18048 1.56714 0
M  V30 7252 O 677.857 -1.90404 1.02836 0
M  V30 7253 C 678.452 0.497619 3.35126 0
M  V30 7254 C 677.011 0.152063 3.76093 0
M  V30 7255 C 676.158 0.78872 2.65847 0
M  V30 7256 H 679.109 0.879527 1.32098 0
M  V30 7257 H 679.13 -0.24939 3.79682 0
M  V30 7258 H 678.642 1.55913 3.55405 0
M  V30 7259 H 676.743 -0.905896 3.6142 0
M  V30 7260 H 676.856 0.594514 4.75397 0
M  V30 7261 H 675.22 0.219813 2.5375 0
M  V30 7262 H 676.003 1.85374 2.88949 0
M  V30 7263 N 678.448 -1.51871 0.421078 0
M  V30 7264 C 679.395 -2.27334 -0.398508 0
M  V30 7265 C 680.365 -1.30241 -1.03085 0
M  V30 7266 O 681.55 -1.59121 -1.05285 0
M  V30 7267 C 678.69 -3.10664 -1.50272 0
M  V30 7268 C 677.803 -4.2273 -0.890122 0
M  V30 7269 C 676.938 -4.93399 -1.96803 0
M  V30 7270 C 675.977 -5.97409 -1.333 0
M  V30 7271 N 675.114 -6.61548 -2.35156 0
M  V30 7272 H 679.954 -2.96938 0.251411 0
M  V30 7273 H 677.491 -1.46472 0.135825 0
M  V30 7274 H 679.449 -3.57292 -2.15403 0
M  V30 7275 H 678.079 -2.43207 -2.1225 0
M  V30 7276 H 677.131 -3.80186 -0.127537 0
M  V30 7277 H 678.443 -4.97302 -0.386349 0
M  V30 7278 H 677.597 -5.43491 -2.69633 0
M  V30 7279 H 676.336 -4.18421 -2.50549 0
M  V30 7280 H 675.341 -5.46624 -0.59008 0
M  V30 7281 H 676.566 -6.74335 -0.803076 0
M  V30 7282 H 674.512 -5.89394 -2.88012 0
M  V30 7283 H 674.429 -7.31832 -1.89624 0
M  V30 7284 H 675.697 -7.16276 -3.0752 0
M  V30 7285 N 679.926 -0.151884 -1.56866 0
M  V30 7286 C 681.337 0.368128 -1.83035 0
M  V30 7287 C 681.688 1.64402 -1.07082 0
M  V30 7288 O 680.813 2.14056 -0.317647 0
M  V30 7289 C 681.408 0.674676 -3.32014 0
M  V30 7290 C 679.967 1.13919 -3.58747 0
M  V30 7291 C 679.114 0.164833 -2.7681 0
M  V30 7292 H 682.065 -0.376499 -1.54169 0
M  V30 7293 H 682.086 1.52883 -3.48435 0
M  V30 7294 H 681.598 -0.254113 -3.87267 0
M  V30 7295 H 679.699 2.08375 -3.08886 0
M  V30 7296 H 679.812 1.06179 -4.67186 0
M  V30 7297 H 678.176 0.658419 -2.46043 0
M  V30 7298 H 678.959 -0.757633 -3.34836 0
M  V30 7299 N 681.404 1.57128 0.121893 0
M  V30 7300 C 682.334 2.03165 1.15092 0
M  V30 7301 C 683.315 0.915587 1.43356 0
M  V30 7302 O 684.5 1.1851 1.53847 0
M  V30 7303 C 681.63 2.43352 2.47784 0
M  V30 7304 C 680.584 3.58376 2.33989 0
M  V30 7305 C 679.91 3.84454 3.71617 0
M  V30 7306 C 681.21 4.90199 1.80283 0
M  V30 7307 H 682.904 2.89382 0.768023 0
M  V30 7308 H 680.45 1.39218 0.367998 0
M  V30 7309 H 682.403 2.74163 3.20019 0
M  V30 7310 H 681.127 1.54103 2.87958 0
M  V30 7311 H 679.786 3.2777 1.64202 0
M  V30 7312 H 679.434 2.92414 4.09271 0
M  V30 7313 H 679.134 4.61877 3.6324 0
M  V30 7314 H 680.658 4.17714 4.45362 0
M  V30 7315 H 682.072 5.19565 2.42333 0
M  V30 7316 H 680.469 5.71601 1.82735 0
M  V30 7317 H 681.539 4.78904 0.760184 0
M  V30 7318 N 682.882 -0.391992 1.52647 0
M  V30 7319 C 684.298 -0.731848 1.41831 0
M  V30 7320 C 684.498 -1.9423 0.536361 0
M  V30 7321 O 683.554 -2.52499 0.00866571 0
M  V30 7322 C 684.867 -0.969743 2.84634 0
M  V30 7323 C 686.415 -1.0714 2.94092 0
M  V30 7324 C 686.89 -1.34195 4.37899 0
M  V30 7325 N 688.381 -1.41023 4.41211 0
M  V30 7326 C 689.116 -1.63616 5.49561 0
M  V30 7327 N 688.612 -1.83699 6.68002 0
M  V30 7328 N 690.405 -1.65771 5.371 0
M  V30 7329 H 682.556 0.404547 2.08512 0
M  V30 7330 H 684.819 0.11879 0.940528 0
M  V30 7331 H 684.525 -0.152465 3.51369 0
M  V30 7332 H 684.399 -1.88523 3.26709 0
M  V30 7333 H 686.786 -1.87925 2.27526 0
M  V30 7334 H 686.867 -0.133887 2.55449 0
M  V30 7335 H 686.511 -0.539207 5.0503 0
M  V30 7336 H 686.441 -2.29226 4.74092 0
M  V30 7337 H 688.932 -1.27223 3.55841 0
M  V30 7338 H 689.245 -2.00437 7.46354 0
M  V30 7339 H 687.59 -1.8093 6.71036 0
M  V30 7340 H 690.781 -1.4963 4.43541 0
M  V30 7341 H 690.954 -1.83038 6.21612 0
M  V30 7342 N 684.36 -1.4356 -0.65026 0
M  V30 7343 C 685.585 -1.48995 -1.44275 0
M  V30 7344 C 686.01 -0.109954 -1.87778 0
M  V30 7345 O 685.368 0.896926 -1.57559 0
M  V30 7346 C 685.416 -2.44341 -2.65198 0
M  V30 7347 O 684.52 -1.93172 -3.6436 0
M  V30 7348 H 683.861 -0.503852 -0.432469 0
M  V30 7349 H 686.391 -1.88504 -0.795446 0
M  V30 7350 H 686.401 -2.61743 -3.12977 0
M  V30 7351 H 685.076 -3.44588 -2.32877 0
M  V30 7352 H 683.653 -1.85445 -3.23519 0
M  V30 7353 N 685.838 0.888903 -1.30139 0
M  V30 7354 C 687.063 1.67884 -1.21777 0
M  V30 7355 C 687.488 1.86848 0.216689 0
M  V30 7356 O 686.846 1.39659 1.15608 0
M  V30 7357 C 686.894 3.03483 -1.94757 0
M  V30 7358 O 685.998 3.92294 -1.27198 0
M  V30 7359 H 685.339 0.513144 -0.421402 0
M  V30 7360 H 687.869 1.10968 -1.71893 0
M  V30 7361 H 687.879 3.53553 -2.03627 0
M  V30 7362 H 686.554 2.89 -2.99085 0
M  V30 7363 H 685.131 3.50732 -1.26655 0
M  V30 7364 N 687.317 1.12792 1.10072 0
M  V30 7365 C 688.28 0.802264 2.14701 0
M  V30 7366 C 689.28 -0.18515 1.59731 0
M  V30 7367 O 690.47 0.041109 1.74151 0
M  V30 7368 C 687.602 0.19285 3.40354 0
M  V30 7369 H 688.795 1.72932 2.45019 0
M  V30 7370 H 686.348 0.931662 1.25498 0
M  V30 7371 H 687.083 -0.743748 3.15656 0
M  V30 7372 H 686.868 0.903827 3.81541 0
M  V30 7373 H 688.358 -0.0183704 4.17596 0
M  V30 7374 N 688.795 -1.27931 0.920396 0
M  V30 7375 C 690.072 -1.89728 0.475687 0
M  V30 7376 C 690.452 -1.8337 -1.04588 0
M  V30 7377 O 689.8 -1.27404 -1.89685 0
M  V30 7378 C 690.01 -3.33959 1.01354 0
M  V30 7379 C 691.358 -4.10907 1.06963 0
M  V30 7380 O 692.382 -3.42945 0.962646 0
M  V30 7381 O 691.241 -5.32399 1.23343 0
M  V30 7382 H 688.335 -0.81294 0.151845 0
M  V30 7383 H 690.881 -1.36252 1.01161 0
M  V30 7384 H 689.653 -3.32843 2.05746 0
M  V30 7385 H 689.276 -3.94944 0.458829 0
M  V30 7386 N 690.273 -0.685099 -1.4193 0
M  V30 7387 C 691.684 -0.287699 -1.8447 0
M  V30 7388 C 692.035 1.17215 -1.57338 0
M  V30 7389 O 691.16 1.89856 -1.03845 0
M  V30 7390 C 691.755 -0.515385 -3.34857 0
M  V30 7391 C 690.314 -0.172006 -3.76007 0
M  V30 7392 C 689.461 -0.802808 -2.65425 0
M  V30 7393 H 692.412 -0.88652 -1.3163 0
M  V30 7394 H 692.433 0.229251 -3.79809 0
M  V30 7395 H 691.945 -1.57796 -3.54573 0
M  V30 7396 H 690.046 0.886716 -3.61895 0
M  V30 7397 H 690.159 -0.619717 -4.75075 0
M  V30 7398 H 688.523 -0.233267 -2.5363 0
M  V30 7399 H 689.306 -1.86904 -2.87961 0
M  V30 7400 N 691.751 1.51645 -0.429126 0
M  V30 7401 C 692.714 2.26116 0.374726 0
M  V30 7402 C 693.714 1.29242 0.956714 0
M  V30 7403 O 694.904 1.53022 0.832452 0
M  V30 7404 C 692.036 3.04669 1.52937 0
M  V30 7405 H 693.229 2.9861 -0.277818 0
M  V30 7406 H 690.782 1.55236 -0.182097 0
M  V30 7407 H 691.517 2.36571 2.21821 0
M  V30 7408 H 691.302 3.75814 1.11833 0
M  V30 7409 H 692.792 3.61102 2.09751 0
M  V30 7410 N 693.229 0.160201 1.56784 0
M  V30 7411 C 694.159 -0.770264 2.2043 0
M  V30 7412 C 695.14 -1.24736 1.15651 0
M  V30 7413 O 696.325 -1.30253 1.44041 0
M  V30 7414 C 693.455 -2.00427 2.83631 0
M  V30 7415 C 692.409 -1.66345 3.94352 0
M  V30 7416 C 691.735 -2.97119 4.4455 0
M  V30 7417 C 693.035 -0.899972 5.14488 0
M  V30 7418 H 694.729 -0.239783 2.98438 0
M  V30 7419 H 692.275 -0.113891 1.43549 0
M  V30 7420 H 694.228 -2.66012 3.26827 0
M  V30 7421 H 692.952 -2.5587 2.02973 0
M  V30 7422 H 691.611 -1.03133 3.51794 0
M  V30 7423 H 691.259 -3.5058 3.60698 0
M  V30 7424 H 690.959 -2.75073 5.19238 0
M  V30 7425 H 692.483 -3.63753 4.90425 0
M  V30 7426 H 693.897 -1.45818 5.54446 0
M  V30 7427 H 692.294 -0.778968 5.95023 0
M  V30 7428 H 693.364 0.105827 4.84785 0
M  V30 7429 N 694.707 -1.5719 -0.113559 0
M  V30 7430 C 695.655 -2.01725 -1.158 0
M  V30 7431 C 696.649 -0.915105 -1.42556 0
M  V30 7432 O 697.855 -1.10031 -1.42454 0
M  V30 7433 H 694.23 -0.64262 -0.390569 0
M  V30 7434 H 696.201 -2.88666 -0.755926 0
M  V30 7435 C 694.95 -2.44203 -2.47507 0
M  V30 7436 H 694.273 -3.28582 -2.27758 0
M  V30 7437 H 695.713 -2.79158 -3.19135 0
M  V30 7438 C 694.172 -1.30785 -3.10478 0
M  V30 7439 O 694.702 -0.626807 -3.9678 0
M  V30 7440 N 692.908 -1.06352 -2.7044 0
M  V30 7441 H 692.455 -1.61913 -2.00355 0
M  V30 7442 H 692.413 -0.306614 -3.12901 0
M  V30 7443 N 696.185 0.383891 -1.52853 0
M  V30 7444 C 697.117 1.48889 -1.74255 0
M  V30 7445 C 698.13 1.50405 -0.623063 0
M  V30 7446 O 699.319 1.54215 -0.898887 0
M  V30 7447 C 696.419 2.87721 -1.79081 0
M  V30 7448 C 695.592 3.10111 -3.08464 0
M  V30 7449 C 694.651 4.28954 -3.0477 0
M  V30 7450 O 693.677 4.25012 -3.78621 0
M  V30 7451 N 694.879 5.35411 -2.24311 0
M  V30 7452 H 697.644 1.30915 -2.69595 0
M  V30 7453 H 695.205 0.573454 -1.51404 0
M  V30 7454 H 697.197 3.65333 -1.7411 0
M  V30 7455 H 695.767 2.99029 -0.911052 0
M  V30 7456 H 694.987 2.20319 -3.26884 0
M  V30 7457 H 696.275 3.21928 -3.94005 0
M  V30 7458 H 695.673 5.41471 -1.63787 0
M  V30 7459 H 694.23 6.1167 -2.25175 0
M  V30 7460 N 697.663 1.43903 0.642637 0
M  V30 7461 C 698.573 1.52349 1.78401 0
M  V30 7462 C 699.589 0.409869 1.69104 0
M  V30 7463 O 700.765 0.665548 1.90085 0
M  V30 7464 C 697.83 1.45408 3.14734 0
M  V30 7465 C 696.891 2.67528 3.35749 0
M  V30 7466 C 696.124 2.60909 4.65577 0
M  V30 7467 O 696.347 1.6627 5.45628 0
M  V30 7468 O 695.281 3.5158 4.88544 0
M  V30 7469 H 699.107 2.48752 1.7423 0
M  V30 7470 H 696.692 1.26021 0.802439 0
M  V30 7471 H 698.574 1.44019 3.96026 0
M  V30 7472 H 697.249 0.521437 3.19473 0
M  V30 7473 H 696.156 2.74487 2.5418 0
M  V30 7474 H 697.489 3.598 3.35864 0
M  V30 7475 N 699.141 -0.881989 1.30609 0
M  V30 7476 C 700.387 -1.63647 1.19781 0
M  V30 7477 C 700.72 -1.92632 -0.246265 0
M  V30 7478 O 699.995 -1.54938 -1.17577 0
M  V30 7479 C 700.278 -2.97437 2.02985 0
M  V30 7480 C 700.131 -2.75406 3.55628 0
M  V30 7481 C 701.45 -3.98397 1.86997 0
M  V30 7482 H 698.569 -0.593841 0.436488 0
M  V30 7483 H 701.211 -1.02041 1.60273 0
M  V30 7484 H 699.361 -3.50018 1.68581 0
M  V30 7485 H 701.033 -2.2959 4.00107 0
M  V30 7486 H 699.276 -2.09856 3.79662 0
M  V30 7487 H 699.947 -3.70552 4.09139 0
M  V30 7488 H 702.423 -3.54986 2.17081 0
M  V30 7489 H 701.299 -4.89916 2.47536 0
M  V30 7490 H 701.56 -4.3424 0.829943 0
M  V30 7491 N 700.619 -1.13374 -1.09472 0
M  V30 7492 C 701.582 -0.813639 -2.14272 0
M  V30 7493 C 702.582 0.176677 -1.59826 0
M  V30 7494 O 703.772 -0.0503441 -1.74127 0
M  V30 7495 C 700.904 -0.210897 -3.40247 0
M  V30 7496 H 702.097 -1.74229 -2.44099 0
M  V30 7497 H 699.65 -0.938304 -1.25002 0
M  V30 7498 H 700.385 0.726998 -3.16046 0
M  V30 7499 H 700.17 -0.924048 -3.81056 0
M  V30 7500 H 701.66 -0.00377603 -4.176 0
M  V30 7501 N 702.098 1.27442 -0.927168 0
M  V30 7502 C 703.028 2.29256 -0.443188 0
M  V30 7503 C 704.009 1.62701 0.49624 0
M  V30 7504 O 705.194 1.90013 0.401105 0
M  V30 7505 C 702.324 3.45955 0.305366 0
M  V30 7506 C 701.278 4.24501 -0.546178 0
M  V30 7507 C 700.604 5.33671 0.331512 0
M  V30 7508 C 701.904 4.89921 -1.81037 0
M  V30 7509 H 703.598 2.69988 -1.29409 0
M  V30 7510 H 701.144 1.29792 -0.623705 0
M  V30 7511 H 703.097 4.1628 0.654885 0
M  V30 7512 H 701.821 3.04138 1.19029 0
M  V30 7513 H 700.48 3.55921 -0.878398 0
M  V30 7514 H 700.128 4.88096 1.21537 0
M  V30 7515 H 699.828 5.87131 -0.234746 0
M  V30 7516 H 701.352 6.0684 0.676614 0
M  V30 7517 H 702.766 5.52536 -1.52895 0
M  V30 7518 H 701.163 5.53436 -2.32009 0
M  V30 7519 H 702.233 4.13652 -2.53021 0
M  V30 7520 N 703.576 0.692616 1.41565 0
M  V30 7521 C 704.523 0.0254264 2.30786 0
M  V30 7522 C 705.493 -0.774347 1.46946 0
M  V30 7523 O 706.678 -0.742981 1.7574 0
M  V30 7524 C 703.818 -0.907123 3.32964 0
M  V30 7525 C 702.931 -0.0992784 4.31886 0
M  V30 7526 C 702.066 -1.0292 5.21134 0
M  V30 7527 C 701.105 -0.214088 6.11725 0
M  V30 7528 N 700.242 -1.09766 6.93467 0
M  V30 7529 H 705.082 0.792036 2.87282 0
M  V30 7530 H 702.619 0.4023 1.41492 0
M  V30 7531 H 704.577 -1.46181 3.90752 0
M  V30 7532 H 703.207 -1.64016 2.78026 0
M  V30 7533 H 702.259 0.572287 3.76071 0
M  V30 7534 H 703.571 0.532782 4.95946 0
M  V30 7535 H 702.725 -1.65321 5.83741 0
M  V30 7536 H 701.464 -1.69512 4.57293 0
M  V30 7537 H 700.469 0.42302 5.4817 0
M  V30 7538 H 701.694 0.447995 6.77621 0
M  V30 7539 H 699.64 -1.74965 6.32237 0
M  V30 7540 H 699.557 -0.521099 7.54202 0
M  V30 7541 H 700.825 -1.70858 7.60544 0
M  V30 7542 N 705.054 -1.51416 0.437162 0
M  V30 7543 C 705.984 -2.30631 -0.364922 0
M  V30 7544 C 706.965 -1.36037 -1.02118 0
M  V30 7545 O 708.15 -1.64956 -1.02485 0
M  V30 7546 C 705.28 -3.1482 -1.46648 0
M  V30 7547 C 704.234 -4.17691 -0.933717 0
M  V30 7548 C 703.56 -4.904 -2.13101 0
M  V30 7549 C 704.86 -5.2229 0.0317201 0
M  V30 7550 H 706.554 -2.97932 0.29614 0
M  V30 7551 H 704.1 -1.4328 0.143865 0
M  V30 7552 H 706.053 -3.69017 -2.03481 0
M  V30 7553 H 704.777 -2.4534 -2.15583 0
M  V30 7554 H 703.436 -3.64545 -0.387602 0
M  V30 7555 H 703.084 -4.17423 -2.80654 0
M  V30 7556 H 702.784 -5.59962 -1.78092 0
M  V30 7557 H 704.308 -5.4742 -2.70487 0
M  V30 7558 H 705.722 -5.7156 -0.446302 0
M  V30 7559 H 704.119 -5.99378 0.29437 0
M  V30 7560 H 705.189 -4.75131 0.968447 0
M  V30 7561 N 706.532 -0.168513 -1.56696 0
M  V30 7562 C 707.442 0.775435 -2.21414 0
M  V30 7563 C 708.458 1.25529 -1.20492 0
M  V30 7564 O 709.634 1.30801 -1.53144 0
M  V30 7565 C 706.699 1.9886 -2.83999 0
M  V30 7566 C 705.76 1.5559 -4.00113 0
M  V30 7567 C 704.993 2.71124 -4.59704 0
M  V30 7568 O 705.216 3.87917 -4.18182 0
M  V30 7569 O 704.15 2.4536 -5.4962 0
M  V30 7570 H 707.976 0.254416 -3.02632 0
M  V30 7571 H 705.561 0.0595507 -1.49281 0
M  V30 7572 H 707.443 2.69816 -3.23693 0
M  V30 7573 H 706.118 2.49874 -2.05779 0
M  V30 7574 H 705.025 0.815924 -3.65094 0
M  V30 7575 H 706.358 1.09271 -4.79917 0
M  V30 7576 N 708.01 1.57248 0.105221 0
M  V30 7577 C 709.421 1.74612 0.660865 0
M  V30 7578 C 709.772 0.789231 1.79626 0
M  V30 7579 O 708.897 -0.0346611 2.16372 0
M  V30 7580 C 709.492 3.16624 1.20559 0
M  V30 7581 C 708.051 3.35447 1.7074 0
M  V30 7582 C 707.198 2.70445 0.612764 0
M  V30 7583 H 710.149 1.5824 -0.12079 0
M  V30 7584 H 710.17 3.18937 2.07508 0
M  V30 7585 H 709.682 3.86245 0.379012 0
M  V30 7586 H 707.783 2.7089 2.5583 0
M  V30 7587 H 707.896 4.43702 1.80736 0
M  V30 7588 H 706.26 2.32061 1.04975 0
M  V30 7589 H 707.043 3.42699 -0.203066 0
M  V30 7590 N 709.488 -0.375779 1.53054 0
M  V30 7591 C 710.436 -1.48015 1.79428 0
M  V30 7592 C 711.43 -1.55893 0.662854 0
M  V30 7593 O 712.636 -1.58901 0.845599 0
M  V30 7594 H 709.011 -0.492887 0.56795 0
M  V30 7595 H 710.982 -1.22971 2.71884 0
M  V30 7596 C 709.731 -2.84984 1.99197 0
M  V30 7597 H 709.054 -2.79677 2.85693 0
M  V30 7598 H 710.494 -3.61462 2.21633 0
M  V30 7599 C 708.953 -3.28025 0.768183 0
M  V30 7600 O 709.483 -4.01671 -0.0480482 0
M  V30 7601 N 707.689 -2.84454 0.594521 0
M  V30 7602 H 707.236 -2.24688 1.25988 0
M  V30 7603 H 707.194 -3.13609 -0.222916 0
M  V30 7604 N 710.966 -1.44241 -0.634997 0
M  V30 7605 C 712.377 -1.41622 -1.21655 0
M  V30 7606 C 712.728 -0.129584 -1.95772 0
M  V30 7607 O 711.853 0.770225 -2.02229 0
M  V30 7608 C 712.448 -2.56557 -2.21278 0
M  V30 7609 C 711.007 -2.57145 -2.7487 0
M  V30 7610 C 710.154 -2.33354 -1.49804 0
M  V30 7611 H 713.105 -1.52878 -0.425905 0
M  V30 7612 H 713.126 -2.29089 -3.03807 0
M  V30 7613 H 712.638 -3.50186 -1.67306 0
M  V30 7614 H 710.739 -1.67447 -3.32855 0
M  V30 7615 H 710.852 -3.55507 -3.21172 0
M  V30 7616 H 709.216 -1.82372 -1.77799 0
M  V30 7617 H 709.999 -3.29092 -0.977402 0
M  V30 7618 N 712.444 0.87505 -1.31075 0
M  V30 7619 C 713.354 2.01441 -1.20244 0
M  V30 7620 C 714.37 1.73584 -0.120227 0
M  V30 7621 O 715.546 1.98559 -0.337063 0
M  V30 7622 C 712.611 3.34675 -0.905199 0
M  V30 7623 C 711.672 3.75889 -2.0738 0
M  V30 7624 C 710.905 5.02764 -1.79064 0
M  V30 7625 O 711.128 5.65795 -0.723318 0
M  V30 7626 O 710.062 5.40623 -2.64594 0
M  V30 7627 H 713.888 2.13509 -2.1598 0
M  V30 7628 H 711.473 1.00257 -1.10765 0
M  V30 7629 H 713.355 4.1458 -0.755057 0
M  V30 7630 H 712.03 3.23692 0.0221695 0
M  V30 7631 H 710.937 2.96645 -2.27931 0
M  V30 7632 H 712.27 3.91489 -2.98324 0
M  V30 7633 N 713.922 1.13953 1.08869 0
M  V30 7634 C 715.147 0.928559 1.85452 0
M  V30 7635 C 715.572 -0.517642 1.80837 0
M  V30 7636 O 714.93 -1.36779 1.19001 0
M  V30 7637 C 714.978 1.42814 3.31114 0
M  V30 7638 O 714.082 0.617129 4.07756 0
M  V30 7639 H 713.423 0.33235 0.574839 0
M  V30 7640 H 715.953 1.5156 1.37443 0
M  V30 7641 H 715.963 1.43425 3.8196 0
M  V30 7642 H 714.638 2.48109 3.33788 0
M  V30 7643 H 713.215 0.679365 3.66659 0
M  V30 7644 N 715.4 -1.26948 0.933913 0
M  V30 7645 C 716.33 -2.29017 0.45534 0
M  V30 7646 C 717.311 -1.62961 -0.487605 0
M  V30 7647 O 718.496 -1.90223 -0.391022 0
M  V30 7648 C 715.626 -3.46112 -0.287015 0
M  V30 7649 C 714.58 -4.24205 0.568682 0
M  V30 7650 C 713.906 -5.3384 -0.303206 0
M  V30 7651 C 715.206 -4.88954 1.83633 0
M  V30 7652 H 716.9 -2.69298 1.30839 0
M  V30 7653 H 714.446 -1.29459 0.630579 0
M  V30 7654 H 716.399 -4.16622 -0.6328 0
M  V30 7655 H 715.123 -3.04765 -1.17414 0
M  V30 7656 H 713.782 -3.5545 0.897261 0
M  V30 7657 H 713.43 -4.88734 -1.18947 0
M  V30 7658 H 713.13 -5.86998 0.265879 0
M  V30 7659 H 714.654 -6.0719 -0.644423 0
M  V30 7660 H 716.068 -5.51717 1.55823 0
M  V30 7661 H 714.465 -5.52198 2.34941 0
M  V30 7662 H 715.535 -4.12305 2.55211 0
M  V30 7663 N 716.879 -0.700114 -1.41195 0
M  V30 7664 C 717.789 -0.0382854 -2.34569 0
M  V30 7665 C 718.805 0.761036 -1.56474 0
M  V30 7666 O 719.981 0.697553 -1.88934 0
M  V30 7667 C 717.046 0.883522 -3.35253 0
M  V30 7668 C 716.107 0.0758957 -4.29233 0
M  V30 7669 C 715.34 0.9538 -5.25108 0
M  V30 7670 O 715.563 2.19326 -5.26547 0
M  V30 7671 O 714.497 0.401049 -6.00562 0
M  V30 7672 H 718.323 -0.808073 -2.92752 0
M  V30 7673 H 715.908 -0.460479 -1.42127 0
M  V30 7674 H 717.79 1.41199 -3.9704 0
M  V30 7675 H 716.465 1.63272 -2.79506 0
M  V30 7676 H 715.372 -0.497274 -3.7078 0
M  V30 7677 H 716.705 -0.634741 -4.8809 0
M  V30 7678 N 718.357 1.51182 -0.445186 0
M  V30 7679 C 719.287 2.30821 0.352686 0
M  V30 7680 C 720.268 1.36576 1.01395 0
M  V30 7681 O 721.453 1.65497 1.01609 0
M  V30 7682 C 718.583 3.15593 1.44976 0
M  V30 7683 C 717.537 4.1818 0.911553 0
M  V30 7684 C 716.863 4.91523 2.10497 0
M  V30 7685 C 718.163 5.22266 -0.059418 0
M  V30 7686 H 719.857 2.97771 -0.311936 0
M  V30 7687 H 717.403 1.43201 -0.151461 0
M  V30 7688 H 719.356 3.70091 2.01521 0
M  V30 7689 H 718.08 2.4648 2.14278 0
M  V30 7690 H 716.739 3.64746 0.368264 0
M  V30 7691 H 716.387 4.18906 2.78437 0
M  V30 7692 H 716.087 5.60898 1.7512 0
M  V30 7693 H 717.611 5.48847 2.6758 0
M  V30 7694 H 719.025 5.71789 0.415985 0
M  V30 7695 H 717.422 5.99213 -0.326152 0
M  V30 7696 H 718.492 4.7461 -0.993631 0
M  V30 7697 N 719.835 0.176821 1.56605 0
M  V30 7698 C 721.06 -0.47599 2.01864 0
M  V30 7699 C 721.485 -1.55645 1.05623 0
M  V30 7700 O 720.843 -1.81263 0.0366729 0
M  V30 7701 C 720.891 -1.02619 3.4569 0
M  V30 7702 O 719.995 -2.13996 3.52533 0
M  V30 7703 H 719.336 -0.113363 0.654251 0
M  V30 7704 H 721.866 0.28233 2.02643 0
M  V30 7705 H 721.876 -1.34742 3.85109 0
M  V30 7706 H 720.551 -0.235138 4.15235 0
M  V30 7707 H 719.128 -1.82876 3.24978 0
M  V30 7708 N 721.313 -1.57302 -0.09688 0
M  V30 7709 C 722.56 -1.85997 -0.800699 0
M  V30 7710 C 722.888 -0.765089 -1.7882 0
M  V30 7711 O 722.143 0.241492 -1.94204 0
M  V30 7712 C 722.442 -3.21272 -1.56586 0
M  V30 7713 C 722.108 -4.45104 -0.72064 0
M  V30 7714 C 720.77 -4.78723 -0.487632 0
M  V30 7715 C 723.122 -5.2103 -0.132948 0
M  V30 7716 C 720.45 -5.85697 0.34296 0
M  V30 7717 C 722.802 -6.28881 0.684957 0
M  V30 7718 C 721.466 -6.61017 0.928073 0
M  V30 7719 H 720.736 -0.680613 -0.292997 0
M  V30 7720 H 723.383 -1.91399 -0.0622474 0
M  V30 7721 H 721.688 -3.11547 -2.37583 0
M  V30 7722 H 723.385 -3.40702 -2.11478 0
M  V30 7723 H 719.975 -4.18777 -0.912359 0
M  V30 7724 H 724.159 -4.95392 -0.300132 0
M  V30 7725 H 719.415 -6.09008 0.540317 0
M  V30 7726 H 723.589 -6.86886 1.14721 0
M  V30 7727 H 721.216 -7.43738 1.57348 0
M  V30 7728 N 722.791 0.367657 -1.53252 0
M  V30 7729 C 724.019 1.13119 -1.73239 0
M  V30 7730 C 724.434 1.831 -0.460404 0
M  V30 7731 O 723.791 1.73483 0.566557 0
M  V30 7732 C 723.842 2.16308 -2.89643 0
M  V30 7733 O 723.563 1.49175 -4.1192 0
M  V30 7734 C 725.064 3.05224 -3.21486 0
M  V30 7735 H 722.284 0.338318 -0.579467 0
M  V30 7736 H 724.828 0.42721 -1.99988 0
M  V30 7737 H 722.983 2.82307 -2.65295 0
M  V30 7738 H 723.397 2.17912 -4.7709 0
M  V30 7739 H 724.871 3.73613 -4.06346 0
M  V30 7740 H 725.348 3.69919 -2.36763 0
M  V30 7741 H 725.954 2.44843 -3.47753 0
M  V30 7742 N 724.269 1.44576 0.627338 0
M  V30 7743 C 725.202 1.46206 1.75212 0
M  V30 7744 C 726.18 0.320483 1.5941 0
M  V30 7745 O 727.364 0.518028 1.81242 0
M  V30 7746 C 724.491 1.29834 3.12827 0
M  V30 7747 C 723.537 2.47603 3.47268 0
M  V30 7748 S 724.37 4.10125 3.44322 0
M  V30 7749 C 725.526 3.96183 4.84551 0
M  V30 7750 H 725.759 2.41378 1.73563 0
M  V30 7751 H 723.292 1.3192 0.802283 0
M  V30 7752 H 725.25 1.21075 3.92239 0
M  V30 7753 H 723.911 0.361662 3.12011 0
M  V30 7754 H 723.104 2.3202 4.47418 0
M  V30 7755 H 722.706 2.53121 2.75329 0
M  V30 7756 H 724.998 3.60107 5.73872 0
M  V30 7757 H 725.941 4.96176 5.05188 0
M  V30 7758 H 726.349 3.28177 4.59304 0
M  V30 7759 N 725.747 -0.868086 1.31537 0
M  V30 7760 C 727.158 -1.437 1.19195 0
M  V30 7761 C 727.509 -1.95169 -0.200842 0
M  V30 7762 O 726.634 -1.86432 -1.09872 0
M  V30 7763 C 727.229 -2.612 2.15778 0
M  V30 7764 C 725.788 -3.1413 2.07363 0
M  V30 7765 C 724.935 -1.86845 2.049 0
M  V30 7766 H 727.886 -0.676457 1.43561 0
M  V30 7767 H 727.907 -3.37948 1.74847 0
M  V30 7768 H 727.419 -2.23709 3.17137 0
M  V30 7769 H 725.52 -3.56238 1.09204 0
M  V30 7770 H 725.633 -3.76285 2.96557 0
M  V30 7771 H 723.997 -2.05886 1.49943 0
M  V30 7772 H 724.78 -1.51589 3.08019 0
M  V30 7773 N 727.225 -1.14528 -1.08264 0
M  V30 7774 C 728.157 -0.791325 -2.15106 0
M  V30 7775 C 729.17 0.192449 -1.61659 0
M  V30 7776 O 730.359 -0.0294704 -1.78476 0
M  V30 7777 C 727.459 -0.154183 -3.38549 0
M  V30 7778 C 726.632 -1.17305 -4.21377 0
M  V30 7779 C 725.691 -0.559401 -5.23218 0
M  V30 7780 O 724.717 -1.22277 -5.55911 0
M  V30 7781 N 725.919 0.663159 -5.767 0
M  V30 7782 H 728.684 -1.71076 -2.46075 0
M  V30 7783 H 726.245 -1.0399 -1.24087 0
M  V30 7784 H 728.237 0.268884 -4.03806 0
M  V30 7785 H 726.807 0.668418 -3.0537 0
M  V30 7786 H 726.027 -1.773 -3.52077 0
M  V30 7787 H 727.315 -1.86128 -4.73533 0
M  V30 7788 H 726.713 1.22066 -5.52373 0
M  V30 7789 H 725.27 1.02871 -6.43631 0
M  V30 7790 N 728.703 1.26451 -0.940633 0
M  V30 7791 C 729.952 1.93071 -0.583656 0
M  V30 7792 C 730.265 1.74618 0.881366 0
M  V30 7793 O 731.471 2.35689 1.34769 0
M  V30 7794 C 729.927 3.45927 -0.993106 0
M  V30 7795 C 729.535 3.73115 -2.4797 0
M  V30 7796 C 731.279 4.18554 -0.707998 0
M  V30 7797 C 729.186 5.19408 -2.82788 0
M  V30 7798 H 728.116 0.722824 -0.214572 0
M  V30 7799 H 730.767 1.43538 -1.1432 0
M  V30 7800 H 729.149 3.94341 -0.362099 0
M  V30 7801 H 730.323 3.35408 -3.15971 0
M  V30 7802 H 728.638 3.13719 -2.73805 0
M  V30 7803 H 731.235 5.26293 -0.94447 0
M  V30 7804 H 731.578 4.14782 0.355225 0
M  V30 7805 H 732.111 3.76003 -1.2987 0
M  V30 7806 H 728.85 5.28281 -3.88071 0
M  V30 7807 H 728.37 5.58214 -2.19449 0
M  V30 7808 H 730.049 5.87407 -2.71224 0
M  V30 7809 N 730.181 0.707592 1.40822 0
M  V30 7810 C 731.113 0.0105968 2.29198 0
M  V30 7811 C 732.126 -0.732035 1.45414 0
M  V30 7812 O 733.315 -0.580741 1.68789 0
M  V30 7813 C 730.415 -1.00921 3.23525 0
M  V30 7814 C 729.588 -0.333747 4.36125 0
M  V30 7815 C 728.647 -1.25783 5.10945 0
M  V30 7816 O 727.673 -0.745646 5.64295 0
M  V30 7817 N 728.875 -2.58947 5.19545 0
M  V30 7818 H 731.64 0.76938 2.89656 0
M  V30 7819 H 729.201 0.554579 1.52105 0
M  V30 7820 H 731.193 -1.6294 3.70449 0
M  V30 7821 H 729.763 -1.66942 2.6429 0
M  V30 7822 H 728.983 0.466518 3.9143 0
M  V30 7823 H 730.271 0.135444 5.0862 0
M  V30 7824 H 729.669 -3.03065 4.7767 0
M  V30 7825 H 728.226 -3.16131 5.70004 0
M  V30 7826 N 731.66 -1.50943 0.453197 0
M  V30 7827 C 732.937 -1.94872 -0.168633 0
M  V30 7828 C 733.317 -1.39272 -1.5864 0
M  V30 7829 O 732.665 -0.586272 -2.20851 0
M  V30 7830 C 732.875 -3.48757 -0.130217 0
M  V30 7831 C 734.223 -4.23331 -0.327975 0
M  V30 7832 O 735.247 -3.55594 -0.207619 0
M  V30 7833 O 734.106 -5.43529 -0.569077 0
M  V30 7834 H 731.2 -0.818042 -0.121394 0
M  V30 7835 H 733.746 -1.61782 0.512316 0
M  V30 7836 H 732.518 -3.81725 0.860346 0
M  V30 7837 H 732.141 -3.88333 -0.853397 0
M  V30 7838 N 733.138 -0.185124 -1.56509 0
M  V30 7839 C 734.07 0.771401 -2.15829 0
M  V30 7840 C 735.083 1.18392 -1.11747 0
M  V30 7841 O 736.272 1.12137 -1.38879 0
M  V30 7842 C 733.372 2.05169 -2.69739 0
M  V30 7843 C 732.545 1.80056 -3.98621 0
M  V30 7844 C 731.604 2.92435 -4.37456 0
M  V30 7845 O 730.63 2.62473 -5.05071 0
M  V30 7846 N 731.832 4.20554 -4.00143 0
M  V30 7847 H 734.597 0.264184 -2.98533 0
M  V30 7848 H 732.158 -0.00281069 -1.619 0
M  V30 7849 H 734.15 2.7947 -2.92709 0
M  V30 7850 H 732.72 2.47041 -1.91545 0
M  V30 7851 H 731.94 0.895862 -3.83885 0
M  V30 7852 H 733.228 1.60662 -4.82768 0
M  V30 7853 H 732.626 4.47753 -3.45736 0
M  V30 7854 H 731.183 4.91514 -4.28085 0
M  V30 7855 N 734.616 1.57351 0.0885366 0
M  V30 7856 C 735.844 1.90631 0.804196 0
M  V30 7857 C 736.259 0.779474 1.71958 0
M  V30 7858 O 735.616 -0.248179 1.80805 0
M  V30 7859 C 735.667 3.23568 1.61202 0
M  V30 7860 O 735.388 4.31917 0.733447 0
M  V30 7861 C 736.889 3.70753 2.43016 0
M  V30 7862 H 734.109 0.630501 0.229585 0
M  V30 7863 H 736.653 2.044 0.0638092 0
M  V30 7864 H 734.808 3.11377 2.30485 0
M  V30 7865 H 735.222 5.08297 1.29361 0
M  V30 7866 H 736.696 4.66447 2.9518 0
M  V30 7867 H 737.173 2.98922 3.2178 0
M  V30 7868 H 737.779 3.85834 1.7892 0
M  V30 7869 N 736.094 -0.359525 1.53444 0
M  V30 7870 C 737.505 -0.936009 1.61542 0
M  V30 7871 C 737.856 -1.90069 0.486633 0
M  V30 7872 O 736.981 -2.12929 -0.386047 0
M  V30 7873 C 737.576 -1.70441 2.92806 0
M  V30 7874 C 736.135 -2.23015 3.03218 0
M  V30 7875 C 735.282 -1.04438 2.56881 0
M  V30 7876 H 738.233 -0.138134 1.58098 0
M  V30 7877 H 738.254 -2.56609 2.80948 0
M  V30 7878 H 737.766 -1.00205 3.74941 0
M  V30 7879 H 735.867 -2.96475 2.25684 0
M  V30 7880 H 735.98 -2.50481 4.08407 0
M  V30 7881 H 734.344 -1.41314 2.11902 0
M  V30 7882 H 735.127 -0.356905 3.4144 0
M  V30 7883 N 737.572 -1.44907 -0.619662 0
M  V30 7884 C 738.797 -1.52021 -1.41083 0
M  V30 7885 C 739.222 -0.14976 -1.87503 0
M  V30 7886 O 738.58 0.863303 -1.59426 0
M  V30 7887 C 738.628 -2.49911 -2.59955 0
M  V30 7888 O 737.732 -2.00857 -3.60181 0
M  V30 7889 H 737.073 -0.512912 -0.421684 0
M  V30 7890 H 739.603 -1.90149 -0.755282 0
M  V30 7891 H 739.613 -2.68323 -3.07354 0
M  V30 7892 H 738.288 -3.4945 -2.25516 0
M  V30 7893 H 736.865 -1.92265 -3.19513 0
M  V30 7894 N 739.05 0.861098 -1.31996 0
M  V30 7895 C 740.461 1.43065 -1.19955 0
M  V30 7896 C 740.812 1.95273 0.190489 0
M  V30 7897 O 739.937 1.87012 1.08882 0
M  V30 7898 C 740.532 2.60052 -2.1716 0
M  V30 7899 C 739.091 3.13026 -2.09026 0
M  V30 7900 C 738.238 1.85756 -2.05888 0
M  V30 7901 H 741.189 0.668834 -1.43918 0
M  V30 7902 H 741.21 3.37016 -1.76637 0
M  V30 7903 H 740.722 2.22024 -3.18319 0
M  V30 7904 H 738.823 3.55653 -1.11092 0
M  V30 7905 H 738.936 3.74707 -2.98549 0
M  V30 7906 H 737.3 2.05088 -1.51033 0
M  V30 7907 H 738.083 1.49954 -3.08818 0
M  V30 7908 N 740.528 1.15101 1.07655 0
M  V30 7909 C 741.753 0.948177 1.84457 0
M  V30 7910 C 742.178 -0.498432 1.81376 0
M  V30 7911 O 741.536 -1.35509 1.20445 0
M  V30 7912 C 741.584 1.46318 3.29581 0
M  V30 7913 O 740.688 0.660342 4.07079 0
M  V30 7914 H 740.029 0.338428 0.571281 0
M  V30 7915 H 742.559 1.5301 1.35828 0
M  V30 7916 H 742.569 1.47468 3.80417 0
M  V30 7917 H 741.244 2.51635 3.31138 0
M  V30 7918 H 739.821 0.718216 3.65918 0
M  V30 7919 N 742.006 -1.2595 0.947325 0
M  V30 7920 C 743.283 -1.88676 0.515824 0
M  V30 7921 C 743.663 -1.85547 -1.00675 0
M  V30 7922 O 743.011 -1.31399 -1.8694 0
M  V30 7923 C 743.221 -3.31734 1.08415 0
M  V30 7924 C 744.569 -4.08545 1.15654 0
M  V30 7925 O 745.593 -3.40826 1.03517 0
M  V30 7926 O 744.452 -5.29663 1.34608 0
M  V30 7927 H 741.546 -0.809537 0.169055 0
M  V30 7928 H 744.092 -1.34075 1.04029 0
M  V30 7929 H 742.864 -3.28404 2.1276 0
M  V30 7930 H 742.487 -3.93882 0.542499 0
M  V30 7931 N 743.484 -0.715051 -1.40445 0
M  V30 7932 C 744.732 -0.253826 -2.005 0
M  V30 7933 C 745.053 1.15681 -1.5698 0
M  V30 7934 O 744.323 1.78414 -0.809027 0
M  V30 7935 H 742.903 -0.0908537 -0.741454 0
M  V30 7936 H 745.565 -0.920561 -1.7179 0
M  V30 7937 H 744.661 -0.286499 -3.10782 0
M  V30 7938 N 744.962 1.50701 -0.461195 0
M  V30 7939 C 746.187 2.07171 0.0974773 0
M  V30 7940 C 746.612 1.32391 1.3362 0
M  V30 7941 O 745.97 0.368676 1.77512 0
M  V30 7942 C 746.018 3.58651 0.374409 0
M  V30 7943 O 745.122 3.85816 1.4567 0
M  V30 7944 H 744.463 0.663944 -0.00862047 0
M  V30 7945 H 746.993 1.94021 -0.649394 0
M  V30 7946 H 747.003 4.03295 0.617843 0
M  V30 7947 H 745.678 4.12498 -0.530829 0
M  V30 7948 H 744.255 3.53018 1.20136 0
M  V30 7949 N 746.441 0.193421 1.56409 0
M  V30 7950 C 747.669 -0.451438 2.01915 0
M  V30 7951 C 748.084 -1.55306 1.07357 0
M  V30 7952 O 747.441 -1.82333 0.0781512 0
M  V30 7953 C 747.492 -1.00931 3.47124 0
M  V30 7954 O 747.213 0.0483623 4.38073 0
M  V30 7955 C 748.714 -1.73021 4.0814 0
M  V30 7956 H 745.934 -0.113495 0.661332 0
M  V30 7957 H 748.478 0.301636 2.02263 0
M  V30 7958 H 746.633 -1.71277 3.47481 0
M  V30 7959 H 747.047 -0.366644 5.23217 0
M  V30 7960 H 748.521 -2.07289 5.11601 0
M  V30 7961 H 748.998 -2.6333 3.51502 0
M  V30 7962 H 749.604 -1.07264 4.11551 0
M  V30 7963 N 747.919 -1.57396 -0.0801906 0
M  V30 7964 C 749.335 -1.53564 -0.434778 0
M  V30 7965 C 749.535 -0.912372 -1.79661 0
M  V30 7966 O 748.591 -0.511268 -2.4727 0
M  V30 7967 C 749.904 -2.98244 -0.383561 0
M  V30 7968 C 751.452 -3.09536 -0.46435 0
M  V30 7969 C 751.927 -4.55851 -0.443128 0
M  V30 7970 N 753.418 -4.60456 -0.503448 0
M  V30 7971 C 754.153 -5.71135 -0.509106 0
M  V30 7972 N 753.649 -6.91203 -0.47008 0
M  V30 7973 N 755.442 -5.59353 -0.555035 0
M  V30 7974 H 747.593 -1.96281 0.811635 0
M  V30 7975 H 749.856 -0.898041 0.303689 0
M  V30 7976 H 749.562 -3.47369 0.550236 0
M  V30 7977 H 749.436 -3.57705 -1.19694 0
M  V30 7978 H 751.823 -2.6039 -1.38857 0
M  V30 7979 H 751.904 -2.53 0.377445 0
M  V30 7980 H 751.548 -5.05653 0.477207 0
M  V30 7981 H 751.478 -5.10242 -1.30234 0
M  V30 7982 H 753.969 -3.74048 -0.538199 0
M  V30 7983 H 754.282 -7.7132 -0.478091 0
M  V30 7984 H 752.627 -6.93625 -0.436897 0
M  V30 7985 H 755.818 -4.64453 -0.583158 0
M  V30 7986 H 755.991 -6.4561 -0.555976 0
M  V30 7987 N 749.397 0.351382 -1.53633 0
M  V30 7988 C 750.329 1.45159 -1.77374 0
M  V30 7989 C 751.342 1.4905 -0.654826 0
M  V30 7990 O 752.531 1.52274 -0.931396 0
M  V30 7991 C 749.631 2.83858 -1.85143 0
M  V30 7992 C 748.804 3.03498 -3.14972 0
M  V30 7993 C 747.863 4.22393 -3.138 0
M  V30 7994 O 746.889 4.16885 -3.87551 0
M  V30 7995 N 748.091 5.30533 -2.35617 0
M  V30 7996 H 750.856 1.25167 -2.72311 0
M  V30 7997 H 748.417 0.54121 -1.52586 0
M  V30 7998 H 750.409 3.61557 -1.8182 0
M  V30 7999 H 748.979 2.9703 -0.974275 0
M  V30 8000 H 748.199 2.13336 -3.31484 0
M  V30 8001 H 749.487 3.13498 -4.00745 0
M  V30 8002 H 748.885 5.37875 -1.75235 0
M  V30 8003 H 747.442 6.06756 -2.38098 0
M  V30 8004 N 750.875 1.45233 0.611969 0
M  V30 8005 C 752.1 1.52767 1.40274 0
M  V30 8006 C 752.525 0.159701 1.87421 0
M  V30 8007 O 751.883 -0.854837 1.59882 0
M  V30 8008 C 751.931 2.51286 2.58626 0
M  V30 8009 O 751.035 2.02764 3.59111 0
M  V30 8010 H 750.376 0.515141 0.418958 0
M  V30 8011 H 752.906 1.90547 0.745188 0
M  V30 8012 H 752.916 2.69949 3.05927 0
M  V30 8013 H 751.591 3.50641 2.23659 0
M  V30 8014 H 750.168 1.93957 3.18489 0
M  V30 8015 N 752.353 -0.854086 1.3245 0
M  V30 8016 C 753.578 -1.64597 1.26185 0
M  V30 8017 C 754.003 -1.87357 -0.167074 0
M  V30 8018 O 753.361 -1.42675 -1.11864 0
M  V30 8019 C 753.409 -2.98213 2.02734 0
M  V30 8020 O 752.513 -3.88784 1.37554 0
M  V30 8021 H 751.854 -0.50179 0.434859 0
M  V30 8022 H 754.384 -1.06372 1.74775 0
M  V30 8023 H 754.394 -3.4803 2.1293 0
M  V30 8024 H 753.069 -2.80969 3.06642 0
M  V30 8025 H 751.646 -3.4725 1.3591 0
M  V30 8026 N 753.831 -1.1567 -1.07043 0
M  V30 8027 C 755.242 -0.942408 -1.61169 0
M  V30 8028 C 755.593 0.515537 -1.89306 0
M  V30 8029 O 754.718 1.38726 -1.66084 0
M  V30 8030 C 755.313 -1.70431 -2.92812 0
M  V30 8031 C 753.872 -1.53521 -3.43669 0
M  V30 8032 C 753.019 -1.7179 -2.17678 0
M  V30 8033 H 755.97 -1.3065 -0.9009 0
M  V30 8034 H 755.991 -1.17566 -3.61882 0
M  V30 8035 H 755.503 -2.76538 -2.72302 0
M  V30 8036 H 753.604 -0.498224 -3.69254 0
M  V30 8037 H 753.717 -2.31422 -4.19501 0
M  V30 8038 H 752.081 -1.14468 -2.27529 0
M  V30 8039 H 752.864 -2.79269 -1.99659 0
M  V30 8040 N 755.309 1.25446 -0.953992 0
M  V30 8041 C 756.219 2.29632 -0.480264 0
M  V30 8042 C 757.235 1.68025 0.452071 0
M  V30 8043 O 758.411 1.98703 0.328472 0
M  V30 8044 C 755.476 3.45903 0.234974 0
M  V30 8045 C 754.537 4.22953 -0.735495 0
M  V30 8046 C 753.77 5.33672 -0.0542957 0
M  V30 8047 O 753.993 5.58477 1.16018 0
M  V30 8048 O 752.927 5.9734 -0.739509 0
M  V30 8049 H 756.753 2.72242 -1.34602 0
M  V30 8050 H 754.338 1.30883 -0.720419 0
M  V30 8051 H 756.22 4.16552 0.637341 0
M  V30 8052 H 754.895 3.05296 1.07592 0
M  V30 8053 H 753.802 3.54734 -1.18806 0
M  V30 8054 H 755.135 4.67341 -1.54444 0
M  V30 8055 N 756.787 0.722489 1.40064 0
M  V30 8056 C 758.198 0.336507 1.83642 0
M  V30 8057 C 758.549 -1.13002 1.6039 0
M  V30 8058 O 757.674 -1.87036 1.08842 0
M  V30 8059 C 758.269 0.603985 3.33373 0
M  V30 8060 C 756.828 0.271637 3.75419 0
M  V30 8061 C 755.975 0.872898 2.63203 0
M  V30 8062 H 758.926 0.921108 1.29233 0
M  V30 8063 H 758.947 -0.128471 3.80283 0
M  V30 8064 H 758.459 1.67141 3.50265 0
M  V30 8065 H 756.56 -0.790455 3.64119 0
M  V30 8066 H 756.673 0.745457 4.73265 0
M  V30 8067 H 755.037 0.300431 2.52922 0
M  V30 8068 H 755.82 1.94473 2.82905 0
M  V30 8069 N 758.265 -1.50454 0.469181 0
M  V30 8070 C 759.213 -2.30101 -0.340033 0
M  V30 8071 C 760.207 -1.37306 -0.992135 0
M  V30 8072 O 761.413 -1.54506 -0.923458 0
M  V30 8073 H 757.788 -0.740941 -0.128495 0
M  V30 8074 H 759.759 -2.96315 0.352144 0
M  V30 8075 C 758.508 -3.17804 -1.41052 0
M  V30 8076 H 757.831 -3.89115 -0.918124 0
M  V30 8077 H 759.271 -3.76533 -1.94934 0
M  V30 8078 C 757.73 -2.35272 -2.4114 0
M  V30 8079 O 758.26 -2.03448 -3.4637 0
M  V30 8080 N 756.466 -1.97889 -2.1281 0
M  V30 8081 H 756.013 -2.2397 -1.27261 0
M  V30 8082 H 755.971 -1.42971 -2.80012 0
M  V30 8083 N 759.743 -0.201713 -1.56304 0
M  V30 8084 C 760.968 0.443815 -2.02596 0
M  V30 8085 C 761.393 1.53945 -1.08086 0
M  V30 8086 O 760.751 1.81182 -0.0655056 0
M  V30 8087 C 760.799 0.971066 -3.47279 0
M  V30 8088 O 759.903 2.0836 -3.55893 0
M  V30 8089 H 759.244 0.10294 -0.655972 0
M  V30 8090 H 761.774 -0.314533 -2.02168 0
M  V30 8091 H 761.784 1.28598 -3.87204 0
M  V30 8092 H 760.459 0.169048 -4.15556 0
M  V30 8093 H 759.036 1.77683 -3.27846 0
M  V30 8094 N 761.222 1.57436 0.0718424 0
M  V30 8095 C 762.633 1.75975 0.623678 0
M  V30 8096 C 762.984 0.827155 1.77912 0
M  V30 8097 O 762.109 0.0112425 2.16397 0
M  V30 8098 C 762.704 3.1911 1.13816 0
M  V30 8099 C 761.263 3.38994 1.63586 0
M  V30 8100 C 760.41 2.71684 0.555261 0
M  V30 8101 H 763.361 1.57948 -0.154328 0
M  V30 8102 H 763.382 3.23267 2.00696 0
M  V30 8103 H 762.894 3.86962 0.296998 0
M  V30 8104 H 760.995 2.76256 2.50027 0
M  V30 8105 H 761.108 4.47436 1.71283 0
M  V30 8106 H 759.472 2.34236 1.00029 0
M  V30 8107 H 760.255 3.42191 -0.275712 0
M  V30 8108 N 762.7 -0.34323 1.53817 0
M  V30 8109 C 763.925 -1.1079 1.75329 0
M  V30 8110 C 764.35 -1.81571 0.491293 0
M  V30 8111 O 763.708 -1.72561 -0.556089 0
M  V30 8112 C 763.756 -2.09681 2.9337 0
M  V30 8113 O 762.86 -3.17207 2.63541 0
M  V30 8114 H 762.201 -0.320402 0.581583 0
M  V30 8115 H 764.731 -0.393525 2.0078 0
M  V30 8116 H 764.741 -2.52897 3.20168 0
M  V30 8117 H 763.416 -1.5756 3.84899 0
M  V30 8118 H 761.993 -2.78806 2.47632 0
M  V30 8119 N 764.178 -1.45556 -0.604258 0
M  V30 8120 C 765.088 -1.57025 -1.74299 0
M  V30 8121 C 766.104 -0.45456 -1.67958 0
M  V30 8122 O 767.28 -0.715711 -1.88254 0
M  V30 8123 C 764.345 -1.53702 -3.10768 0
M  V30 8124 C 763.406 -2.76335 -3.28538 0
M  V30 8125 C 762.639 -2.73161 -4.58496 0
M  V30 8126 O 762.862 -1.80678 -5.41028 0
M  V30 8127 O 761.796 -3.64409 -4.79051 0
M  V30 8128 H 765.622 -2.53284 -1.67573 0
M  V30 8129 H 763.207 -1.28104 -0.768745 0
M  V30 8130 H 765.089 -1.54468 -3.92068 0
M  V30 8131 H 763.764 -0.605957 -3.17978 0
M  V30 8132 H 762.671 -2.8113 -2.46813 0
M  V30 8133 H 764.004 -3.68578 -3.26207 0
M  V30 8134 N 765.656 0.84705 -1.32902 0
M  V30 8135 C 766.886 1.63166 -1.26729 0
M  V30 8136 C 767.294 1.88474 0.165595 0
M  V30 8137 O 766.637 1.45947 1.11558 0
M  V30 8138 C 766.699 3.0103 -1.96522 0
M  V30 8139 C 766.363 2.9873 -3.45846 0
M  V30 8140 C 767.36 2.75032 -4.41196 0
M  V30 8141 C 765.045 3.19125 -3.87898 0
M  V30 8142 C 767.039 2.71743 -5.76571 0
M  V30 8143 C 764.726 3.15462 -5.2338 0
M  V30 8144 C 765.724 2.91801 -6.17528 0
M  V30 8145 O 765.412 2.88027 -7.5053 0
M  V30 8146 H 765.144 0.51469 -0.438258 0
M  V30 8147 H 767.698 1.06383 -1.75704 0
M  V30 8148 H 765.928 3.59634 -1.42128 0
M  V30 8149 H 767.617 3.61821 -1.83958 0
M  V30 8150 H 768.383 2.59034 -4.10032 0
M  V30 8151 H 764.262 3.36565 -3.15032 0
M  V30 8152 H 767.806 2.53194 -6.5003 0
M  V30 8153 H 763.703 3.31006 -5.54171 0
M  V30 8154 H 764.471 3.03927 -7.59981 0
M  V30 8155 N 767.134 1.16236 1.06428 0
M  V30 8156 C 768.374 0.95369 1.80787 0
M  V30 8157 C 768.738 -0.509495 1.85117 0
M  V30 8158 O 769.939 -0.836822 2.55442 0
M  V30 8159 C 768.21 1.56235 3.21443 0
M  V30 8160 S 769.769 1.49812 4.12434 0
M  V30 8161 H 766.587 0.343004 0.622792 0
M  V30 8162 H 769.189 1.47957 1.27785 0
M  V30 8163 H 767.893 2.62 3.15886 0
M  V30 8164 H 767.424 1.03574 3.79521 0
M  V30 8165 H 769.439 0.49745 4.937 0
M  V30 8166 N 768.612 -1.24939 0.960631 0
M  V30 8167 C 769.859 -1.92818 0.618663 0
M  V30 8168 C 770.187 -1.75177 -0.845173 0
M  V30 8169 O 769.442 -1.09412 -1.62258 0
M  V30 8170 C 769.741 -3.45066 0.930809 0
M  V30 8171 C 769.407 -3.82869 2.38164 0
M  V30 8172 C 768.069 -3.92899 2.7782 0
M  V30 8173 C 770.421 -4.01483 3.32356 0
M  V30 8174 C 767.749 -4.18955 4.10723 0
M  V30 8175 C 770.101 -4.29033 4.6488 0
M  V30 8176 C 768.765 -4.37282 5.04322 0
M  V30 8177 H 768.035 -0.705571 0.226385 0
M  V30 8178 H 770.682 -1.48365 1.21079 0
M  V30 8179 H 768.987 -3.9096 0.256355 0
M  V30 8180 H 770.684 -3.95783 0.644712 0
M  V30 8181 H 767.274 -3.75622 2.06413 0
M  V30 8182 H 771.458 -3.93143 3.02907 0
M  V30 8183 H 766.714 -4.23558 4.40918 0
M  V30 8184 H 770.888 -4.42381 5.3784 0
M  V30 8185 H 768.515 -4.57225 6.0733 0
M  V30 8186 N 770.09 -0.729906 -1.39679 0
M  V30 8187 C 771.32 -0.285295 -2.04621 0
M  V30 8188 C 771.728 1.08304 -1.55135 0
M  V30 8189 O 771.071 1.6946 -0.709146 0
M  V30 8190 C 771.133 -0.203129 -3.58926 0
M  V30 8191 C 770.797 -1.50909 -4.31365 0
M  V30 8192 C 771.794 -2.45381 -4.58349 0
M  V30 8193 C 769.479 -1.77198 -4.70007 0
M  V30 8194 C 771.473 -3.64379 -5.22979 0
M  V30 8195 C 769.16 -2.96474 -5.34365 0
M  V30 8196 C 770.158 -3.89886 -5.60783 0
M  V30 8197 O 769.846 -5.07069 -6.23808 0
M  V30 8198 H 769.578 -0.123373 -0.664647 0
M  V30 8199 H 772.132 -0.992901 -1.79807 0
M  V30 8200 H 770.362 0.560538 -3.82616 0
M  V30 8201 H 772.051 0.208811 -4.05363 0
M  V30 8202 H 772.817 -2.2634 -4.28947 0
M  V30 8203 H 768.696 -1.05337 -4.48804 0
M  V30 8204 H 772.24 -4.37307 -5.43515 0
M  V30 8205 H 768.137 -3.15419 -5.63188 0
M  V30 8206 H 768.905 -5.07335 -6.42303 0
M  V30 8207 N 771.568 1.50203 -0.477153 0
M  V30 8208 C 772.814 2.02658 0.0758507 0
M  V30 8209 C 773.147 1.358 1.38824 0
M  V30 8210 O 772.422 0.485696 1.88338 0
M  V30 8211 C 772.705 3.59208 0.253339 0
M  V30 8212 C 772.558 4.36629 -1.0805 0
M  V30 8213 C 773.877 4.28469 1.00509 0
M  V30 8214 H 770.996 0.736538 0.0260921 0
M  V30 8215 H 773.638 1.79464 -0.623925 0
M  V30 8216 H 771.788 3.79101 0.849378 0
M  V30 8217 H 773.46 4.28292 -1.71358 0
M  V30 8218 H 771.703 4.0013 -1.67566 0
M  V30 8219 H 772.374 5.44449 -0.909883 0
M  V30 8220 H 774.85 4.13087 0.499818 0
M  V30 8221 H 773.726 5.37804 1.09808 0
M  V30 8222 H 773.987 3.92057 2.04314 0
M  V30 8223 N 773.046 0.209999 1.56195 0
M  V30 8224 C 774.323 -0.473214 1.89789 0
M  V30 8225 C 774.703 -1.78581 1.1257 0
M  V30 8226 O 774.051 -2.27325 0.231398 0
M  V30 8227 C 774.261 -0.677458 3.42362 0
M  V30 8228 C 775.609 -0.990114 4.12895 0
M  V30 8229 O 776.633 -0.764655 3.47896 0
M  V30 8230 O 775.492 -1.41737 5.278 0
M  V30 8231 H 772.586 -0.248622 0.788743 0
M  V30 8232 H 775.132 0.251324 1.67829 0
M  V30 8233 H 773.904 0.248878 3.90508 0
M  V30 8234 H 773.527 -1.45391 3.70064 0
M  V30 8235 N 774.524 -1.57472 -0.0634922 0
M  V30 8236 C 775.749 -1.92273 -0.77756 0
M  V30 8237 C 776.174 -0.807141 -1.69902 0
M  V30 8238 O 775.532 0.239523 -1.79711 0
M  V30 8239 C 775.58 -3.26054 -1.54017 0
M  V30 8240 O 774.684 -3.15873 -2.65138 0
M  V30 8241 H 774.025 -0.629389 -0.211579 0
M  V30 8242 H 776.555 -2.04579 -0.0292523 0
M  V30 8243 H 776.565 -3.60127 -1.91763 0
M  V30 8244 H 775.24 -4.06824 -0.864128 0
M  V30 8245 H 773.817 -2.93373 -2.30189 0
M  V30 8246 N 776.003 0.335068 -1.53997 0
M  V30 8247 C 777.28 1.09188 -1.62288 0
M  V30 8248 C 777.66 2.0626 -0.449458 0
M  V30 8249 O 777.008 2.21596 0.557444 0
M  V30 8250 C 777.218 1.80403 -2.98757 0
M  V30 8251 C 778.566 2.33841 -3.54406 0
M  V30 8252 O 779.59 1.90487 -3.00987 0
M  V30 8253 O 778.449 3.1318 -4.47862 0
M  V30 8254 H 775.543 0.502621 -0.656736 0
M  V30 8255 H 778.089 0.33588 -1.66343 0
M  V30 8256 H 776.861 1.09732 -3.75599 0
M  V30 8257 H 776.484 2.62841 -2.9833 0
M  V30 8258 N 777.481 1.45874 0.596531 0
M  V30 8259 C 778.414 1.49889 1.72071 0
M  V30 8260 C 779.392 0.354224 1.58695 0
M  V30 8261 O 780.576 0.556355 1.80103 0
M  V30 8262 C 777.703 1.3644 3.10003 0
M  V30 8263 C 776.749 2.54913 3.41938 0
M  V30 8264 S 777.582 4.17336 3.35545 0
M  V30 8265 C 778.738 4.06372 4.76039 0
M  V30 8266 H 778.971 2.45005 1.68404 0
M  V30 8267 H 776.504 1.33592 0.77412 0
M  V30 8268 H 778.462 1.29368 3.89582 0
M  V30 8269 H 777.123 0.427762 3.11174 0
M  V30 8270 H 776.316 2.41458 4.42396 0
M  V30 8271 H 775.918 2.58904 2.69898 0
M  V30 8272 H 778.21 3.72199 5.66105 0
M  V30 8273 H 779.153 5.0678 4.9455 0
M  V30 8274 H 779.561 3.37846 4.52239 0
M  V30 8275 N 778.959 -0.83999 1.33349 0
M  V30 8276 C 780.205 -1.59753 1.24927 0
M  V30 8277 C 780.538 -1.93318 -0.184855 0
M  V30 8278 O 779.813 -1.586 -1.12589 0
M  V30 8279 C 780.096 -2.90829 2.12345 0
M  V30 8280 C 779.949 -2.63953 3.6421 0
M  V30 8281 C 781.268 -3.92246 1.99577 0
M  V30 8282 H 778.387 -0.579654 0.45516 0
M  V30 8283 H 781.029 -0.968909 1.63439 0
M  V30 8284 H 779.179 -3.44478 1.79631 0
M  V30 8285 H 780.851 -2.16745 4.07209 0
M  V30 8286 H 779.094 -1.97671 3.86146 0
M  V30 8287 H 779.765 -3.57348 4.20721 0
M  V30 8288 H 782.241 -3.479 2.28265 0
M  V30 8289 H 781.117 -4.81793 2.62996 0
M  V30 8290 H 781.378 -4.3138 0.967673 0
M  V30 8291 N 780.437 -1.16799 -1.0581 0
M  V30 8292 C 781.385 -0.875111 -2.1551 0
M  V30 8293 C 782.379 0.157781 -1.68664 0
M  V30 8294 O 783.585 0.011297 -1.79996 0
M  V30 8295 H 779.96 -0.26542 -0.703602 0
M  V30 8296 H 781.931 -1.8076 -2.37421 0
M  V30 8297 C 780.68 -0.39802 -3.45414 0
M  V30 8298 H 780.003 -1.18425 -3.81858 0
M  V30 8299 H 781.443 -0.231913 -4.23365 0
M  V30 8300 C 779.902 0.88327 -3.25115 0
M  V30 8301 O 780.432 1.95145 -3.51114 0
M  V30 8302 N 778.638 0.828961 -2.78526 0
M  V30 8303 H 778.185 -0.0405029 -2.57568 0
M  V30 8304 H 778.143 1.68673 -2.65324 0
M  V30 8305 N 781.915 1.24427 -0.967243 0
M  V30 8306 C 782.825 2.29109 -0.504592 0
M  V30 8307 C 783.841 1.68495 0.434224 0
M  V30 8308 O 785.017 1.99041 0.307379 0
M  V30 8309 C 782.082 3.46133 0.198273 0
M  V30 8310 C 781.143 4.22149 -0.780313 0
M  V30 8311 C 780.376 5.33585 -0.110896 0
M  V30 8312 O 780.599 5.59676 1.10088 0
M  V30 8313 O 779.533 5.96522 -0.802823 0
M  V30 8314 H 783.359 2.708 -1.37482 0
M  V30 8315 H 780.944 1.30111 -0.73426 0
M  V30 8316 H 782.826 4.17205 0.593124 0
M  V30 8317 H 781.501 3.0642 1.04347 0
M  V30 8318 H 780.408 3.53454 -1.22561 0
M  V30 8319 H 781.741 4.65677 -1.59392 0
M  V30 8320 N 783.393 0.737304 1.3929 0
M  V30 8321 C 784.64 0.286257 2.00467 0
M  V30 8322 C 784.968 -1.1272 1.58507 0
M  V30 8323 O 784.223 -1.7832 0.806257 0
M  V30 8324 C 784.522 0.338438 3.55794 0
M  V30 8325 C 784.188 1.70524 4.17411 0
M  V30 8326 C 782.85 2.07934 4.33955 0
M  V30 8327 C 785.202 2.60256 4.51571 0
M  V30 8328 C 782.53 3.34578 4.81948 0
M  V30 8329 C 784.882 3.86275 5.00974 0
M  V30 8330 C 783.546 4.23774 5.15725 0
M  V30 8331 H 782.816 0.104749 0.733559 0
M  V30 8332 H 785.463 0.944598 1.66582 0
M  V30 8333 H 783.768 -0.403478 3.89717 0
M  V30 8334 H 785.465 -0.0287255 4.0099 0
M  V30 8335 H 782.055 1.40439 4.04938 0
M  V30 8336 H 786.239 2.32624 4.38406 0
M  V30 8337 H 781.495 3.63572 4.91554 0
M  V30 8338 H 785.669 4.5596 5.26378 0
M  V30 8339 H 783.296 5.21972 5.52674 0
M  V30 8340 N 784.871 -1.49948 0.485112 0
M  V30 8341 C 785.818 -2.28819 -0.301729 0
M  V30 8342 C 786.788 -1.34496 -0.974683 0
M  V30 8343 O 787.973 -1.63444 -0.984418 0
M  V30 8344 C 785.113 -3.16758 -1.36961 0
M  V30 8345 C 784.226 -4.26125 -0.710027 0
M  V30 8346 C 783.361 -5.01302 -1.75699 0
M  V30 8347 C 782.4 -6.02525 -1.07841 0
M  V30 8348 N 781.537 -6.70927 -2.06886 0
M  V30 8349 H 786.377 -2.95604 0.377127 0
M  V30 8350 H 783.914 -1.45764 0.197826 0
M  V30 8351 H 785.872 -3.66106 -2.00056 0
M  V30 8352 H 784.502 -2.51991 -2.01744 0
M  V30 8353 H 783.554 -3.80385 0.0338278 0
M  V30 8354 H 784.866 -4.98493 -0.175079 0
M  V30 8355 H 784.02 -5.54438 -2.46339 0
M  V30 8356 H 782.759 -4.28672 -2.32577 0
M  V30 8357 H 781.764 -5.48635 -0.357706 0
M  V30 8358 H 782.989 -6.77134 -0.516345 0
M  V30 8359 H 780.935 -6.01079 -2.62755 0
M  V30 8360 H 780.852 -7.39216 -1.58414 0
M  V30 8361 H 782.12 -7.28675 -2.76863 0
M  V30 8362 N 786.349 -0.21828 -1.56081 0
M  V30 8363 C 787.279 0.687922 -2.23136 0
M  V30 8364 C 788.26 1.20357 -1.202 0
M  V30 8365 O 789.445 1.24817 -1.48776 0
M  V30 8366 C 786.575 1.89762 -2.90874 0
M  V30 8367 C 785.529 1.51595 -4.00254 0
M  V30 8368 C 784.855 2.80415 -4.55271 0
M  V30 8369 C 786.155 0.708404 -5.17474 0
M  V30 8370 H 787.849 0.128854 -2.99123 0
M  V30 8371 H 785.395 0.0605354 -1.43873 0
M  V30 8372 H 787.348 2.53699 -3.36474 0
M  V30 8373 H 786.072 2.4816 -2.1233 0
M  V30 8374 H 784.731 0.900058 -3.55379 0
M  V30 8375 H 784.379 3.36951 -3.73461 0
M  V30 8376 H 784.079 2.55613 -5.2909 0
M  V30 8377 H 785.603 3.453 -5.03587 0
M  V30 8378 H 787.017 1.2514 -5.59476 0
M  V30 8379 H 785.414 0.557593 -5.97504 0
M  V30 8380 H 786.484 -0.285679 -4.84058 0
M  V30 8381 N 787.827 1.57504 0.0551401 0
M  V30 8382 C 788.737 2.08198 1.08124 0
M  V30 8383 C 789.753 1.01496 1.41331 0
M  V30 8384 O 790.929 1.33073 1.51174 0
M  V30 8385 C 787.994 2.52968 2.37083 0
M  V30 8386 C 787.055 3.7404 2.10696 0
M  V30 8387 C 786.288 4.16665 3.33505 0
M  V30 8388 O 786.511 3.59019 4.4324 0
M  V30 8389 O 785.445 5.09324 3.20737 0
M  V30 8390 H 789.271 2.95977 0.680518 0
M  V30 8391 H 786.856 1.46933 0.270401 0
M  V30 8392 H 788.738 2.82211 3.12946 0
M  V30 8393 H 787.413 1.6831 2.76502 0
M  V30 8394 H 786.32 3.49855 1.32484 0
M  V30 8395 H 787.653 4.59601 1.76148 0
M  V30 8396 N 789.305 -0.326896 1.54172 0
M  V30 8397 C 790.235 -1.40741 1.86317 0
M  V30 8398 C 791.216 -1.54125 0.719684 0
M  V30 8399 O 792.401 -1.6806 0.973117 0
M  V30 8400 C 789.531 -2.77557 2.08757 0
M  V30 8401 C 788.485 -2.78965 3.24596 0
M  V30 8402 C 787.811 -4.18824 3.32401 0
M  V30 8403 C 789.111 -2.4301 4.62324 0
M  V30 8404 H 790.805 -1.14088 2.76811 0
M  V30 8405 H 788.351 -0.547389 1.3319 0
M  V30 8406 H 790.304 -3.53209 2.29829 0
M  V30 8407 H 789.028 -3.0568 1.15009 0
M  V30 8408 H 787.687 -2.05767 3.03406 0
M  V30 8409 H 787.335 -4.44083 2.36218 0
M  V30 8410 H 787.035 -4.20673 4.10253 0
M  V30 8411 H 788.559 -4.96294 3.55703 0
M  V30 8412 H 789.973 -3.08375 4.83299 0
M  V30 8413 H 788.37 -2.56116 5.42701 0
M  V30 8414 H 789.44 -1.38165 4.64799 0
M  V30 8415 N 790.784 -1.46188 -0.588786 0
M  V30 8416 C 792.03 -1.51407 -1.34921 0
M  V30 8417 C 792.363 -0.162771 -1.93517 0
M  V30 8418 O 791.638 0.825082 -1.76132 0
M  V30 8419 C 791.921 -2.60795 -2.48311 0
M  V30 8420 C 791.774 -4.05435 -1.94789 0
M  V30 8421 C 793.093 -2.66313 -3.50379 0
M  V30 8422 H 790.212 -0.551213 -0.489217 0
M  V30 8423 H 792.854 -1.78095 -0.661993 0
M  V30 8424 H 791.004 -2.3817 -3.06932 0
M  V30 8425 H 792.676 -4.39328 -1.40672 0
M  V30 8426 H 790.919 -4.15202 -1.25659 0
M  V30 8427 H 791.59 -4.77691 -2.76613 0
M  V30 8428 H 794.066 -2.86634 -3.01629 0
M  V30 8429 H 792.942 -3.44681 -4.27184 0
M  V30 8430 H 793.203 -1.72127 -4.07216 0
M  V30 8431 N 792.262 0.832906 -1.33792 0
M  V30 8432 C 793.172 1.97514 -1.26592 0
M  V30 8433 C 794.188 1.73114 -0.175391 0
M  V30 8434 O 795.364 1.97387 -0.400062 0
M  V30 8435 C 792.429 3.31625 -1.01121 0
M  V30 8436 C 791.49 3.69101 -2.19233 0
M  V30 8437 C 790.723 4.96813 -1.94968 0
M  V30 8438 O 790.946 5.63208 -0.902955 0
M  V30 8439 O 789.88 5.31932 -2.8166 0
M  V30 8440 H 793.706 2.0653 -2.22664 0
M  V30 8441 H 791.291 0.966826 -1.13898 0
M  V30 8442 H 793.173 4.11968 -0.886571 0
M  V30 8443 H 791.848 3.23599 -0.080822 0
M  V30 8444 H 790.755 2.89243 -2.37253 0
M  V30 8445 H 792.088 3.818 -3.10628 0
M  V30 8446 N 793.74 1.17359 1.05189 0
M  V30 8447 C 794.687 0.890325 2.12936 0
M  V30 8448 C 795.657 -0.165779 1.65271 0
M  V30 8449 O 796.842 -0.0285672 1.90779 0
M  V30 8450 C 793.982 0.409793 3.42658 0
M  V30 8451 C 793.095 1.53002 4.03998 0
M  V30 8452 C 792.23 1.00336 5.21638 0
M  V30 8453 C 791.269 2.09903 5.74984 0
M  V30 8454 N 790.406 1.58714 6.83926 0
M  V30 8455 H 795.246 1.81299 2.36505 0
M  V30 8456 H 792.783 0.904249 1.16025 0
M  V30 8457 H 794.741 0.112743 4.17048 0
M  V30 8458 H 793.371 -0.475915 3.19272 0
M  V30 8459 H 792.423 1.9428 3.27047 0
M  V30 8460 H 793.735 2.3564 4.39631 0
M  V30 8461 H 792.889 0.660158 6.03098 0
M  V30 8462 H 791.628 0.14642 4.8748 0
M  V30 8463 H 790.633 2.45081 4.92154 0
M  V30 8464 H 791.858 2.96013 6.1119 0
M  V30 8465 H 789.804 0.752915 6.51665 0
M  V30 8466 H 789.721 2.34959 7.18561 0
M  V30 8467 H 790.989 1.27287 7.69037 0
M  V30 8468 N 795.218 -1.23913 0.973828 0
M  V30 8469 C 796.148 -2.27453 0.527969 0
M  V30 8470 C 797.129 -1.6443 -0.435513 0
M  V30 8471 O 798.314 -1.9137 -0.330306 0
M  V30 8472 C 795.444 -3.4685 -0.176757 0
M  V30 8473 C 794.398 -4.22181 0.703352 0
M  V30 8474 C 793.724 -5.34534 -0.133215 0
M  V30 8475 C 795.024 -4.82865 1.99096 0
M  V30 8476 H 796.718 -2.65 1.3934 0
M  V30 8477 H 794.264 -1.27388 0.671446 0
M  V30 8478 H 796.217 -4.18424 -0.499934 0
M  V30 8479 H 794.941 -3.08346 -1.07659 0
M  V30 8480 H 793.6 -3.52416 1.00989 0
M  V30 8481 H 793.248 -4.92271 -1.03338 0
M  V30 8482 H 792.948 -5.85855 0.452494 0
M  V30 8483 H 794.472 -6.08933 -0.450924 0
M  V30 8484 H 795.886 -5.46481 1.73297 0
M  V30 8485 H 794.283 -5.44444 2.52389 0
M  V30 8486 H 795.353 -4.03977 2.68199 0
M  V30 8487 N 796.696 -0.74468 -1.38897 0
M  V30 8488 C 797.943 -0.296884 -2.00312 0
M  V30 8489 C 798.271 1.11878 -1.59102 0
M  V30 8490 O 797.526 1.7789 -0.815702 0
M  V30 8491 C 797.825 -0.357302 -3.55609 0
M  V30 8492 C 797.491 -1.72736 -4.16501 0
M  V30 8493 C 796.153 -2.10232 -4.32846 0
M  V30 8494 C 798.505 -2.62647 -4.50184 0
M  V30 8495 C 795.833 -3.3713 -4.80167 0
M  V30 8496 C 798.185 -3.88926 -4.98918 0
M  V30 8497 C 796.849 -4.26503 -5.1347 0
M  V30 8498 H 796.119 -0.108638 -0.732993 0
M  V30 8499 H 798.766 -0.953419 -1.66079 0
M  V30 8500 H 797.071 0.382805 -3.89925 0
M  V30 8501 H 798.768 0.0074596 -4.00999 0
M  V30 8502 H 795.358 -1.42585 -4.04187 0
M  V30 8503 H 799.542 -2.34945 -4.37166 0
M  V30 8504 H 794.798 -3.66174 -4.89619 0
M  V30 8505 H 798.972 -4.58745 -5.23952 0
M  V30 8506 H 796.599 -5.24896 -5.49898 0
M  V30 8507 N 798.174 1.49689 -0.493057 0
M  V30 8508 C 799.137 2.27502 0.278485 0
M  V30 8509 C 800.137 1.33184 0.901037 0
M  V30 8510 O 801.327 1.56415 0.766801 0
M  V30 8511 C 798.459 3.10881 1.39878 0
M  V30 8512 H 799.652 2.97163 -0.404219 0
M  V30 8513 H 797.205 1.54324 -0.247774 0
M  V30 8514 H 797.94 2.45767 2.11587 0
M  V30 8515 H 797.725 3.80219 0.957924 0
M  V30 8516 H 799.215 3.69673 1.94247 0
M  V30 8517 N 799.652 0.226554 1.55963 0
M  V30 8518 C 800.562 -0.692725 2.24139 0
M  V30 8519 C 801.578 -1.20971 1.25068 0
M  V30 8520 O 802.754 -1.25027 1.57893 0
M  V30 8521 C 799.819 -1.88183 2.91184 0
M  V30 8522 C 798.88 -1.40633 4.05612 0
M  V30 8523 C 798.113 -2.53875 4.6945 0
M  V30 8524 O 798.336 -3.72129 4.32292 0
M  V30 8525 O 797.27 -2.24792 5.58348 0
M  V30 8526 H 801.096 -0.141921 3.03368 0
M  V30 8527 H 798.681 -0.0041049 1.49399 0
M  V30 8528 H 800.563 -2.57617 3.33484 0
M  V30 8529 H 799.238 -2.42064 2.14911 0
M  V30 8530 H 798.145 -0.67986 3.67871 0
M  V30 8531 H 799.478 -0.913838 4.83642 0
M  V30 8532 N 801.13 -1.57531 -0.0467866 0
M  V30 8533 C 802.407 -1.79568 -0.775536 0
M  V30 8534 C 802.787 -0.820322 -1.94509 0
M  V30 8535 O 802.135 0.14134 -2.28062 0
M  V30 8536 C 802.345 -3.26789 -1.22516 0
M  V30 8537 C 803.693 -3.91299 -1.64835 0
M  V30 8538 O 804.717 -3.30831 -1.3202 0
M  V30 8539 O 803.576 -4.97727 -2.25677 0
M  V30 8540 H 800.67 -0.737817 -0.373572 0
M  V30 8541 H 803.216 -1.69682 -0.0249302 0
M  V30 8542 H 801.988 -3.89357 -0.389446 0
M  V30 8543 H 801.611 -3.41496 -2.03633 0
M  V30 8544 N 802.608 0.318715 -1.54344 0
M  V30 8545 C 803.836 1.0755 -1.7675 0
M  V30 8546 C 804.251 1.81543 -0.518422 0
M  V30 8547 O 803.608 1.75198 0.511078 0
M  V30 8548 C 803.659 2.06983 -2.96378 0
M  V30 8549 O 803.38 1.35995 -4.16458 0
M  V30 8550 C 804.881 2.94841 -3.31034 0
M  V30 8551 H 802.101 0.319711 -0.589937 0
M  V30 8552 H 804.645 0.363369 -2.01246 0
M  V30 8553 H 802.8 2.73724 -2.74142 0
M  V30 8554 H 803.214 2.02623 -4.83781 0
M  V30 8555 H 804.688 3.60496 -4.18027 0
M  V30 8556 H 805.165 3.62199 -2.48412 0
M  V30 8557 H 805.771 2.33656 -3.55366 0
M  V30 8558 N 804.086 1.46499 0.581025 0
M  V30 8559 C 804.996 1.59778 1.71779 0
M  V30 8560 C 806.012 0.481223 1.67213 0
M  V30 8561 O 807.188 0.74557 1.87091 0
M  V30 8562 C 804.253 1.58626 3.08283 0
M  V30 8563 C 803.314 2.81527 3.241 0
M  V30 8564 C 802.547 2.80421 4.54092 0
M  V30 8565 O 802.77 1.89262 5.38085 0
M  V30 8566 O 801.704 3.71984 4.73193 0
M  V30 8567 H 805.53 2.55918 1.63523 0
M  V30 8568 H 803.115 1.29311 0.748267 0
M  V30 8569 H 804.997 1.60686 3.89561 0
M  V30 8570 H 803.672 0.656467 3.16973 0
M  V30 8571 H 802.579 2.85021 2.42309 0
M  V30 8572 H 803.912 3.73721 3.20302 0
M  V30 8573 N 805.565 -0.825799 1.34232 0
M  V30 8574 C 806.528 -1.91808 1.25468 0
M  V30 8575 C 807.528 -1.59893 0.170567 0
M  V30 8576 O 808.718 -1.68986 0.422996 0
M  V30 8577 C 805.85 -3.27786 0.93644 0
M  V30 8578 H 807.043 -2.01003 2.22571 0
M  V30 8579 H 804.596 -1.01944 1.18479 0
M  V30 8580 H 805.331 -3.24285 -0.0315408 0
M  V30 8581 H 805.116 -3.52333 1.72057 0
M  V30 8582 H 806.606 -4.07782 0.900214 0
M  V30 8583 N 807.043 -1.17915 -1.04565 0
M  V30 8584 C 807.99 -0.901605 -2.12461 0
M  V30 8585 C 808.96 0.157011 -1.65356 0
M  V30 8586 O 810.145 0.0184494 -1.90791 0
M  V30 8587 C 807.285 -0.42796 -3.42436 0
M  V30 8588 C 806.398 -1.55142 -4.03181 0
M  V30 8589 C 805.533 -1.03101 -5.21098 0
M  V30 8590 C 804.572 -2.1295 -5.73863 0
M  V30 8591 N 803.709 -1.62339 -6.83074 0
M  V30 8592 H 808.549 -1.82551 -2.3554 0
M  V30 8593 H 806.086 -0.910389 -1.15544 0
M  V30 8594 H 808.044 -0.134859 -4.16982 0
M  V30 8595 H 806.674 0.458977 -3.1952 0
M  V30 8596 H 805.726 -1.96011 -3.26012 0
M  V30 8597 H 807.038 -2.37968 -4.38375 0
M  V30 8598 H 806.192 -0.692132 -6.02739 0
M  V30 8599 H 804.931 -0.17227 -4.87396 0
M  V30 8600 H 803.936 -2.47687 -4.90847 0
M  V30 8601 H 805.161 -2.9925 -6.09611 0
M  V30 8602 H 803.107 -0.787464 -6.51256 0
M  V30 8603 H 803.024 -2.38767 -7.17305 0
M  V30 8604 H 804.292 -1.31363 -7.68351 0
M  V30 8605 N 808.521 1.23394 -0.980386 0
M  V30 8606 C 809.469 2.26872 -0.513018 0
M  V30 8607 C 810.463 1.63853 0.429948 0
M  V30 8608 O 811.669 1.77417 0.303842 0
M  V30 8609 H 808.044 0.737398 -0.147473 0
M  V30 8610 H 810.015 2.63654 -1.39746 0
M  V30 8611 C 808.764 3.47289 0.168962 0
M  V30 8612 H 808.087 3.96033 -0.547546 0
M  V30 8613 H 809.527 4.21502 0.459616 0
M  V30 8614 C 807.986 3.06425 1.40019 0
M  V30 8615 O 808.516 3.14708 2.49643 0
M  V30 8616 N 806.722 2.61339 1.27084 0
M  V30 8617 H 806.269 2.54799 0.378872 0
M  V30 8618 H 806.227 2.34364 2.09573 0
M  V30 8619 N 809.999 0.752036 1.385 0
M  V30 8620 C 811.41 0.375385 1.82887 0
M  V30 8621 C 811.761 -1.09575 1.62751 0
M  V30 8622 O 810.886 -1.84685 1.12785 0
M  V30 8623 C 811.481 0.674563 3.32017 0
M  V30 8624 C 810.04 0.351208 3.74758 0
M  V30 8625 C 809.187 0.928531 2.61292 0
M  V30 8626 H 812.138 0.948313 1.27251 0
M  V30 8627 H 812.159 -0.0477781 3.8047 0
M  V30 8628 H 811.671 1.74533 3.46641 0
M  V30 8629 H 809.772 -0.713042 3.65714 0
M  V30 8630 H 809.885 0.845675 4.71577 0
M  V30 8631 H 808.249 0.354012 2.52228 0
M  V30 8632 H 809.032 2.0043 2.78716 0
M  V30 8633 N 811.477 -1.49425 0.500989 0
M  V30 8634 C 812.724 -2.02453 -0.0435355 0
M  V30 8635 C 813.052 -1.38067 -1.36995 0
M  V30 8636 O 812.307 -0.505557 -1.89057 0
M  V30 8637 C 812.606 -3.56562 -0.24463 0
M  V30 8638 C 812.272 -4.39585 1.00379 0
M  V30 8639 C 810.934 -4.61992 1.346 0
M  V30 8640 C 813.286 -4.87881 1.83361 0
M  V30 8641 C 810.614 -5.2994 2.51755 0
M  V30 8642 C 812.966 -5.57119 2.99669 0
M  V30 8643 C 811.63 -5.77771 3.3427 0
M  V30 8644 H 810.9 -0.740829 -0.0159308 0
M  V30 8645 H 813.547 -1.79725 0.661143 0
M  V30 8646 H 811.852 -3.77969 -1.03183 0
M  V30 8647 H 813.549 -3.95185 -0.6804 0
M  V30 8648 H 810.139 -4.22385 0.727225 0
M  V30 8649 H 814.323 -4.70398 1.58237 0
M  V30 8650 H 809.579 -5.44133 2.788 0
M  V30 8651 H 813.753 -5.93516 3.64296 0
M  V30 8652 H 811.38 -6.30197 4.25154 0
M  V30 8653 N 812.955 -0.234822 -1.55841 0
M  V30 8654 C 814.18 0.400741 -2.03492 0
M  V30 8655 C 814.605 1.51618 -1.11327 0
M  V30 8656 O 813.963 1.81002 -0.103922 0
M  V30 8657 C 814.011 0.897184 -3.49261 0
M  V30 8658 O 813.115 2.00764 -3.60233 0
M  V30 8659 H 812.456 0.0890023 -0.658008 0
M  V30 8660 H 814.986 -0.357345 -2.01455 0
M  V30 8661 H 814.996 1.20356 -3.89844 0
M  V30 8662 H 813.671 0.0808639 -4.15821 0
M  V30 8663 H 812.248 1.70689 -3.31541 0
M  V30 8664 N 814.433 1.57553 0.0384317 0
M  V30 8665 C 815.661 1.93093 0.743141 0
M  V30 8666 C 816.076 0.833787 1.69391 0
M  V30 8667 O 815.433 -0.190532 1.81503 0
M  V30 8668 C 815.484 3.28533 1.50826 0
M  V30 8669 O 815.205 4.34032 0.595665 0
M  V30 8670 C 816.706 3.78297 2.31098 0
M  V30 8671 H 813.926 0.637486 0.20941 0
M  V30 8672 H 816.47 2.045 -0.00125154 0
M  V30 8673 H 814.625 3.18552 2.20462 0
M  V30 8674 H 815.039 5.12155 1.13124 0
M  V30 8675 H 816.513 4.75602 2.80191 0
M  V30 8676 H 816.99 3.09008 3.12107 0
M  V30 8677 H 817.596 3.91331 1.66555 0
M  V30 8678 N 815.911 -0.310526 1.54511 0
M  V30 8679 C 816.843 -1.40405 1.8116 0
M  V30 8680 C 817.856 -1.47261 0.694114 0
M  V30 8681 O 819.045 -1.49751 0.971441 0
M  V30 8682 C 816.145 -2.78849 1.92604 0
M  V30 8683 C 815.318 -2.95041 3.22908 0
M  V30 8684 C 814.377 -4.13925 3.24889 0
M  V30 8685 O 813.403 -4.06463 3.98467 0
M  V30 8686 N 814.605 -5.24099 2.496 0
M  V30 8687 H 817.37 -1.17903 2.75534 0
M  V30 8688 H 814.931 -0.500564 1.53967 0
M  V30 8689 H 816.923 -3.5661 1.91342 0
M  V30 8690 H 815.493 -2.94342 1.05268 0
M  V30 8691 H 814.713 -2.04472 3.37023 0
M  V30 8692 H 816.001 -3.02763 4.08916 0
M  V30 8693 H 815.399 -5.33039 1.89435 0
M  V30 8694 H 813.956 -6.0023 2.54102 0
M  V30 8695 N 817.389 -1.46805 -0.573248 0
M  V30 8696 C 818.666 -1.43082 -1.33368 0
M  V30 8697 C 819.046 -0.119252 -2.10763 0
M  V30 8698 O 818.394 0.899239 -2.10062 0
M  V30 8699 C 818.604 -2.66643 -2.25172 0
M  V30 8700 C 819.952 -3.13188 -2.86702 0
M  V30 8701 O 820.976 -2.67258 -2.35482 0
M  V30 8702 O 819.835 -3.92994 -3.79761 0
M  V30 8703 H 816.929 -0.569451 -0.599712 0
M  V30 8704 H 819.475 -1.58984 -0.59348 0
M  V30 8705 H 818.247 -3.53649 -1.67475 0
M  V30 8706 H 817.87 -2.53247 -3.06516 0
M  V30 8707 N 818.867 0.818669 -1.34668 0
M  V30 8708 C 820.095 1.60674 -1.30351 0
M  V30 8709 C 820.51 1.88408 0.121546 0
M  V30 8710 O 819.867 1.47849 1.06991 0
M  V30 8711 C 819.918 2.94516 -2.09625 0
M  V30 8712 O 819.639 2.6799 -3.46573 0
M  V30 8713 C 821.14 3.8891 -2.12754 0
M  V30 8714 H 818.36 0.499306 -0.448258 0
M  V30 8715 H 820.904 1.01828 -1.77345 0
M  V30 8716 H 819.059 3.49908 -1.66262 0
M  V30 8717 H 819.473 3.53361 -3.87603 0
M  V30 8718 H 820.947 4.79972 -2.72637 0
M  V30 8719 H 821.424 4.24599 -1.12306 0
M  V30 8720 H 822.03 3.39453 -2.56225 0
M  V30 8721 N 820.346 1.18468 1.03938 0
M  V30 8722 C 821.623 0.890435 1.74157 0
M  V30 8723 C 822.003 -0.606409 2.02203 0
M  V30 8724 O 821.351 -1.5615 1.66822 0
M  V30 8725 C 821.561 1.73906 3.02585 0
M  V30 8726 C 822.909 1.96686 3.76297 0
M  V30 8727 O 823.933 1.70969 3.12487 0
M  V30 8728 O 822.792 2.39986 4.90988 0
M  V30 8729 H 819.886 0.330889 0.757919 0
M  V30 8730 H 822.432 1.29228 1.09992 0
M  V30 8731 H 821.204 2.75369 2.78006 0
M  V30 8732 H 820.827 1.33581 3.74489 0
M  V30 8733 N 821.824 -1.22873 0.986916 0
M  V30 8734 C 822.754 -2.2688 0.552064 0
M  V30 8735 C 823.735 -1.64883 -0.418048 0
M  V30 8736 O 824.92 -1.9171 -0.30999 0
M  V30 8737 C 822.05 -3.47018 -0.139959 0
M  V30 8738 C 821.004 -4.21411 0.748091 0
M  V30 8739 C 820.33 -5.34645 -0.0765132 0
M  V30 8740 C 821.63 -4.80726 2.04206 0
M  V30 8741 H 823.324 -2.63507 1.42143 0
M  V30 8742 H 820.87 -1.26668 0.68492 0
M  V30 8743 H 822.823 -4.18931 -0.455527 0
M  V30 8744 H 821.547 -3.0947 -1.04382 0
M  V30 8745 H 820.206 -3.51325 1.04721 0
M  V30 8746 H 819.854 -4.93339 -0.981109 0
M  V30 8747 H 819.554 -5.85342 0.514606 0
M  V30 8748 H 821.078 -6.09377 -0.386313 0
M  V30 8749 H 822.492 -5.44612 1.79083 0
M  V30 8750 H 820.889 -5.41737 2.5815 0
M  V30 8751 H 821.959 -4.01109 2.72469 0
M  V30 8752 N 823.302 -0.75937 -1.38099 0
M  V30 8753 C 824.579 -0.243371 -1.9408 0
M  V30 8754 C 824.959 1.25942 -1.69416 0
M  V30 8755 O 824.307 2.03667 -1.03595 0
M  V30 8756 C 824.517 -0.603328 -3.43745 0
M  V30 8757 C 825.865 -0.566195 -4.20808 0
M  V30 8758 O 826.889 -0.541969 -3.52053 0
M  V30 8759 O 825.748 -0.582261 -5.43389 0
M  V30 8760 H 822.842 -0.0526825 -0.82532 0
M  V30 8761 H 825.388 -0.839884 -1.47459 0
M  V30 8762 H 824.16 -1.64098 -3.55229 0
M  V30 8763 H 823.783 0.0208887 -3.97595 0
M  V30 8764 N 824.78 1.49157 -0.508906 0
M  V30 8765 C 825.71 2.32109 0.254469 0
M  V30 8766 C 826.691 1.40754 0.955111 0
M  V30 8767 O 827.876 1.69658 0.944983 0
M  V30 8768 C 825.006 3.21458 1.3146 0
M  V30 8769 C 823.96 4.2167 0.733368 0
M  V30 8770 C 823.286 5.00009 1.8946 0
M  V30 8771 C 824.586 5.21544 -0.280875 0
M  V30 8772 H 826.28 2.9618 -0.43795 0
M  V30 8773 H 823.826 1.4243 -0.212062 0
M  V30 8774 H 825.779 3.78305 1.85643 0
M  V30 8775 H 824.503 2.55346 2.03632 0
M  V30 8776 H 823.162 3.65979 0.213231 0
M  V30 8777 H 822.81 4.30338 2.60419 0
M  V30 8778 H 822.51 5.67821 1.51173 0
M  V30 8779 H 824.034 5.59702 2.44061 0
M  V30 8780 H 825.448 5.73039 0.173095 0
M  V30 8781 H 823.845 5.97291 -0.580006 0
M  V30 8782 H 824.915 4.69969 -1.19404 0
M  V30 8783 N 826.258 0.243083 1.55714 0
M  V30 8784 C 827.168 -0.668913 2.24862 0
M  V30 8785 C 828.184 -1.19638 1.26344 0
M  V30 8786 O 829.36 -1.23345 1.5921 0
M  V30 8787 C 826.425 -1.85084 2.93163 0
M  V30 8788 C 825.486 -1.36323 4.07081 0
M  V30 8789 C 824.719 -2.48882 4.72116 0
M  V30 8790 O 824.942 -3.67523 4.36214 0
M  V30 8791 O 823.876 -2.18857 5.60701 0
M  V30 8792 H 827.702 -0.109737 3.03502 0
M  V30 8793 H 825.287 0.0117411 1.49395 0
M  V30 8794 H 827.169 -2.54065 3.36197 0
M  V30 8795 H 825.844 -2.39771 2.17466 0
M  V30 8796 H 824.751 -0.640804 3.68571 0
M  V30 8797 H 826.084 -0.86249 4.84584 0
M  V30 8798 N 827.736 -1.57571 -0.0300757 0
M  V30 8799 C 828.669 -2.01874 -1.06406 0
M  V30 8800 C 829.647 -0.902901 -1.35227 0
M  V30 8801 O 830.831 -1.16865 -1.47901 0
M  V30 8802 C 827.958 -2.39093 -2.39901 0
M  V30 8803 C 827.004 -3.61108 -2.26943 0
M  V30 8804 S 827.837 -5.10287 -1.62382 0
M  V30 8805 C 828.993 -5.50747 -2.97369 0
M  V30 8806 H 829.226 -2.89261 -0.686703 0
M  V30 8807 H 826.759 -1.52523 -0.240017 0
M  V30 8808 H 828.717 -2.61207 -3.16672 0
M  V30 8809 H 827.378 -1.52159 -2.74784 0
M  V30 8810 H 826.571 -3.84803 -3.25489 0
M  V30 8811 H 826.173 -3.3884 -1.58314 0
M  V30 8812 H 828.465 -5.51369 -3.93698 0
M  V30 8813 H 829.408 -6.51071 -2.78409 0
M  V30 8814 H 829.816 -4.7825 -2.99895 0
M  V30 8815 N 829.214 0.302327 -1.54673 0
M  V30 8816 C 830.144 1.37759 -1.88533 0
M  V30 8817 C 831.125 1.52961 -0.744113 0
M  V30 8818 O 832.31 1.6649 -0.999731 0
M  V30 8819 C 829.44 2.74201 -2.13146 0
M  V30 8820 C 828.394 2.73765 -3.28993 0
M  V30 8821 C 827.72 4.13483 -3.39022 0
M  V30 8822 C 829.02 2.35624 -4.66132 0
M  V30 8823 H 830.714 1.0967 -2.78591 0
M  V30 8824 H 828.26 0.52613 -1.34044 0
M  V30 8825 H 830.213 3.49508 -2.35419 0
M  V30 8826 H 828.937 3.03812 -1.19858 0
M  V30 8827 H 827.596 2.00914 -3.06642 0
M  V30 8828 H 827.244 4.40269 -2.43253 0
M  V30 8829 H 826.944 4.14093 -4.16894 0
M  V30 8830 H 828.468 4.90572 -3.63553 0
M  V30 8831 H 829.882 3.00647 -4.88143 0
M  V30 8832 H 828.279 2.47449 -5.46707 0
M  V30 8833 H 829.349 1.30753 -4.66939 0
M  V30 8834 N 830.692 1.47107 0.565454 0
M  V30 8835 C 831.655 1.58535 1.65527 0
M  V30 8836 C 832.655 0.461081 1.54048 0
M  V30 8837 O 833.845 0.725911 1.58355 0
M  V30 8838 C 830.977 1.52204 3.05036 0
M  V30 8839 H 832.17 2.55676 1.56747 0
M  V30 8840 H 829.723 1.35174 0.78471 0
M  V30 8841 H 830.458 0.564071 3.19357 0
M  V30 8842 H 830.243 2.3379 3.14777 0
M  V30 8843 H 831.733 1.63322 3.84338 0
M  V30 8844 N 832.17 -0.811516 1.35101 0
M  V30 8845 C 833.581 -1.38515 1.25182 0
M  V30 8846 C 833.932 -1.95846 -0.117883 0
M  V30 8847 O 833.057 -1.90925 -1.01866 0
M  V30 8848 C 833.652 -2.51813 2.26662 0
M  V30 8849 C 832.211 -3.05052 2.20499 0
M  V30 8850 C 831.358 -1.77987 2.12641 0
M  V30 8851 H 834.309 -0.614959 1.46301 0
M  V30 8852 H 834.33 -3.30228 1.89023 0
M  V30 8853 H 833.842 -2.10057 3.2634 0
M  V30 8854 H 831.943 -3.51285 1.24215 0
M  V30 8855 H 832.056 -3.63368 3.1225 0
M  V30 8856 H 830.42 -1.99342 1.5854 0
M  V30 8857 H 831.203 -1.38389 3.14171 0
M  V30 8858 N 833.648 -1.19017 -1.03309 0
M  V30 8859 C 834.878 -1.01387 -1.80012 0
M  V30 8860 C 835.286 0.440655 -1.83997 0
M  V30 8861 O 834.629 1.31786 -1.27977 0
M  V30 8862 C 834.691 -1.50171 -3.26633 0
M  V30 8863 C 834.355 -2.98213 -3.46292 0
M  V30 8864 C 835.352 -3.96009 -3.36857 0
M  V30 8865 C 833.037 -3.36812 -3.72643 0
M  V30 8866 C 835.031 -5.30399 -3.5349 0
M  V30 8867 C 832.718 -4.71363 -3.88922 0
M  V30 8868 C 833.716 -5.67966 -3.79347 0
M  V30 8869 O 833.404 -7.00079 -3.95151 0
M  V30 8870 H 833.136 -0.357899 -0.573484 0
M  V30 8871 H 835.69 -1.58171 -1.31039 0
M  V30 8872 H 833.92 -0.877586 -3.7661 0
M  V30 8873 H 835.609 -1.28814 -3.84918 0
M  V30 8874 H 836.375 -3.67534 -3.16455 0
M  V30 8875 H 832.254 -2.62175 -3.7919 0
M  V30 8876 H 835.798 -6.05786 -3.45933 0
M  V30 8877 H 831.695 -4.99536 -4.0882 0
M  V30 8878 H 832.463 -7.07092 -4.12266 0
M  V30 8879 N 835.127 1.22348 -0.993418 0
M  V30 8880 C 836.376 1.90422 -0.665019 0
M  V30 8881 C 836.689 1.78199 0.806512 0
M  V30 8882 O 837.895 2.41193 1.24652 0
M  V30 8883 C 836.351 3.41403 -1.13893 0
M  V30 8884 C 835.959 3.62262 -2.63572 0
M  V30 8885 C 837.703 4.15175 -0.884884 0
M  V30 8886 C 835.61 5.06947 -3.04564 0
M  V30 8887 H 834.54 0.713073 -0.245037 0
M  V30 8888 H 837.191 1.3856 -1.20305 0
M  V30 8889 H 835.573 3.9245 -0.529027 0
M  V30 8890 H 836.747 3.21705 -3.29913 0
M  V30 8891 H 835.062 3.01824 -2.86865 0
M  V30 8892 H 837.659 5.21813 -1.16684 0
M  V30 8893 H 838.002 4.15915 0.178982 0
M  V30 8894 H 838.535 3.70157 -1.45701 0
M  V30 8895 H 835.274 5.11346 -4.10128 0
M  V30 8896 H 834.794 5.48404 -2.42927 0
M  V30 8897 H 836.473 5.75374 -2.95894 0
M  V30 8898 N 836.605 0.766683 1.37694 0
M  V30 8899 C 838.016 0.394761 1.82479 0
M  V30 8900 C 838.367 -1.07842 1.63904 0
M  V30 8901 O 837.492 -1.83479 1.14737 0
M  V30 8902 C 838.087 0.70974 3.31283 0
M  V30 8903 C 836.646 0.390936 3.74364 0
M  V30 8904 C 835.793 0.956192 2.60293 0
M  V30 8905 H 838.744 0.961756 1.26238 0
M  V30 8906 H 838.765 -0.00742144 3.80499 0
M  V30 8907 H 838.277 1.782 3.4477 0
M  V30 8908 H 836.378 -0.674213 3.66449 0
M  V30 8909 H 836.491 0.895645 4.70654 0
M  V30 8910 H 834.855 0.380744 2.51838 0
M  V30 8911 H 835.638 2.03375 2.76575 0
M  V30 8912 N 838.083 -1.48885 0.516809 0
M  V30 8913 C 839.016 -2.26218 -0.30011 0
M  V30 8914 C 839.994 -1.31491 -0.956496 0
M  V30 8915 O 841.178 -1.6081 -0.983488 0
M  V30 8916 C 838.305 -3.07315 -1.42392 0
M  V30 8917 C 837.351 -4.17316 -0.880295 0
M  V30 8918 S 838.184 -5.34955 0.24146 0
M  V30 8919 C 839.34 -6.1961 -0.885138 0
M  V30 8920 H 839.573 -2.95158 0.356217 0
M  V30 8921 H 837.106 -1.5141 0.302365 0
M  V30 8922 H 839.064 -3.54619 -2.06775 0
M  V30 8923 H 837.725 -2.37813 -2.05192 0
M  V30 8924 H 836.918 -4.73635 -1.72297 0
M  V30 8925 H 836.52 -3.72685 -0.313396 0
M  V30 8926 H 838.812 -6.53513 -1.78682 0
M  V30 8927 H 839.755 -7.07183 -0.360226 0
M  V30 8928 H 840.163 -5.52461 -1.1596 0
M  V30 8929 N 839.561 -0.251338 -1.55583 0
M  V30 8930 C 840.838 0.422729 -1.90977 0
M  V30 8931 C 841.218 1.75534 -1.17265 0
M  V30 8932 O 840.566 2.26632 -0.291588 0
M  V30 8933 C 840.776 0.586448 -3.44037 0
M  V30 8934 C 842.124 0.880294 -4.15375 0
M  V30 8935 O 843.148 0.672148 -3.49801 0
M  V30 8936 O 842.007 1.27694 -5.31372 0
M  V30 8937 H 839.101 0.227622 -0.795058 0
M  V30 8938 H 841.647 -0.295733 -1.67103 0
M  V30 8939 H 840.419 -0.352327 -3.89711 0
M  V30 8940 H 840.042 1.35528 -3.73789 0
M  V30 8941 N 841.039 1.57585 0.0217189 0
M  V30 8942 C 842.316 1.80779 0.74687 0
M  V30 8943 C 842.696 0.851163 1.9318 0
M  V30 8944 O 842.044 -0.105039 2.28258 0
M  V30 8945 C 842.254 3.28696 1.17302 0
M  V30 8946 C 843.602 3.93871 1.58589 0
M  V30 8947 O 844.626 3.3289 1.2674 0
M  V30 8948 O 843.485 5.01254 2.1773 0
M  V30 8949 H 840.579 0.743666 0.361786 0
M  V30 8950 H 843.125 1.697 -0.00206785 0
M  V30 8951 H 841.897 3.89927 0.327453 0
M  V30 8952 H 841.52 3.44692 1.98174 0
M  V30 8953 N 842.517 -0.29412 1.54831 0
M  V30 8954 C 843.794 -1.04847 1.65126 0
M  V30 8955 C 844.174 -2.04996 0.503986 0
M  V30 8956 O 843.522 -2.22996 -0.498496 0
M  V30 8957 C 843.732 -1.72418 3.03435 0
M  V30 8958 C 845.08 -2.24362 3.60481 0
M  V30 8959 O 846.104 -1.8244 3.05932 0
M  V30 8960 O 844.963 -3.01196 4.56008 0
M  V30 8961 H 842.057 -0.485032 0.669831 0
M  V30 8962 H 844.603 -0.291659 1.67175 0
M  V30 8963 H 843.375 -0.997351 3.78376 0
M  V30 8964 H 842.998 -2.54839 3.05193 0
M  V30 8965 N 843.995 -1.47404 -0.557645 0
M  V30 8966 C 845.242 -1.54007 -1.31484 0
M  V30 8967 C 845.57 -0.202162 -1.93447 0
M  V30 8968 O 844.825 0.804901 -1.78381 0
M  V30 8969 C 845.124 -2.6061 -2.44575 0
M  V30 8970 C 844.79 -4.03896 -2.00446 0
M  V30 8971 C 843.452 -4.42901 -1.88127 0
M  V30 8972 C 845.804 -4.93804 -1.66754 0
M  V30 8973 C 843.132 -5.6965 -1.40411 0
M  V30 8974 C 845.484 -6.21016 -1.20509 0
M  V30 8975 C 844.148 -6.58903 -1.06786 0
M  V30 8976 H 843.418 -0.563552 -0.481134 0
M  V30 8977 H 846.065 -1.81001 -0.625375 0
M  V30 8978 H 844.37 -2.27371 -3.19076 0
M  V30 8979 H 846.067 -2.62941 -3.02759 0
M  V30 8980 H 842.657 -3.73077 -2.10977 0
M  V30 8981 H 846.841 -4.64369 -1.75144 0
M  V30 8982 H 842.097 -5.97755 -1.2845 0
M  V30 8983 H 846.271 -6.90095 -0.935001 0
M  V30 8984 H 843.898 -7.57008 -0.695891 0
M  V30 8985 N 845.473 0.80434 -1.35529 0
M  V30 8986 C 846.405 1.92445 -1.2449 0
M  V30 8987 C 847.418 1.61934 -0.167685 0
M  V30 8988 O 848.607 1.73461 -0.42115 0
M  V30 8989 C 845.707 3.26875 -0.894751 0
M  V30 8990 C 844.88 3.85275 -2.07079 0
M  V30 8991 C 843.939 4.98116 -1.69607 0
M  V30 8992 O 842.965 5.15424 -2.41509 0
M  V30 8993 N 844.167 5.77169 -0.621012 0
M  V30 8994 H 846.932 2.02441 -2.20993 0
M  V30 8995 H 844.493 0.981874 -1.28728 0
M  V30 8996 H 846.485 3.99837 -0.625511 0
M  V30 8997 H 845.055 3.12594 -0.0193306 0
M  V30 8998 H 844.275 3.0448 -2.5037 0
M  V30 8999 H 845.563 4.21024 -2.85685 0
M  V30 9000 H 844.961 5.65695 -0.0236679 0
M  V30 9001 H 843.518 6.50499 -0.411558 0
M  V30 9002 N 846.951 1.19563 1.02676 0
M  V30 9003 C 847.881 0.959024 2.12897 0
M  V30 9004 C 848.862 -0.108382 1.69754 0
M  V30 9005 O 850.047 0.0470698 1.94143 0
M  V30 9006 C 847.177 0.499211 3.43693 0
M  V30 9007 C 846.131 1.5087 4.00528 0
M  V30 9008 C 845.457 0.905884 5.2697 0
M  V30 9009 C 846.757 2.88954 4.3509 0
M  V30 9010 H 848.451 1.88084 2.32948 0
M  V30 9011 H 845.997 0.905731 1.11949 0
M  V30 9012 H 847.95 0.320965 4.20176 0
M  V30 9013 H 846.674 -0.458205 3.2337 0
M  V30 9014 H 845.333 1.67413 3.26142 0
M  V30 9015 H 844.981 -0.0591506 5.02965 0
M  V30 9016 H 844.681 1.58 5.65959 0
M  V30 9017 H 846.205 0.73848 6.06118 0
M  V30 9018 H 847.619 2.75981 5.02501 0
M  V30 9019 H 846.016 3.53177 4.85166 0
M  V30 9020 H 847.086 3.41447 3.44299 0
M  V30 9021 N 848.429 -1.21819 0.999893 0
M  V30 9022 C 849.845 -1.42847 0.711824 0
M  V30 9023 C 850.045 -1.88391 -0.714928 0
M  V30 9024 O 849.101 -2.0422 -1.48494 0
M  V30 9025 C 850.414 -2.46417 1.72334 0
M  V30 9026 C 851.962 -2.60207 1.73958 0
M  V30 9027 C 852.437 -3.67005 2.73992 0
M  V30 9028 N 853.928 -3.7447 2.72628 0
M  V30 9029 C 854.663 -4.56718 3.46693 0
M  V30 9030 N 854.159 -5.42904 4.3038 0
M  V30 9031 N 855.952 -4.51094 3.35366 0
M  V30 9032 H 848.103 -0.905656 1.92124 0
M  V30 9033 H 850.366 -0.459893 0.828977 0
M  V30 9034 H 850.072 -2.19914 2.74465 0
M  V30 9035 H 849.946 -3.45137 1.52186 0
M  V30 9036 H 852.333 -2.8605 0.725217 0
M  V30 9037 H 852.414 -1.61739 1.98177 0
M  V30 9038 H 852.058 -3.41908 3.75582 0
M  V30 9039 H 851.988 -4.65058 2.4704 0
M  V30 9040 H 854.479 -3.12895 2.11909 0
M  V30 9041 H 854.792 -6.02704 4.83702 0
M  V30 9042 H 853.137 -5.42463 4.34464 0
M  V30 9043 H 856.328 -3.82791 2.69423 0
M  V30 9044 H 856.501 -5.1496 3.93344 0
M  V30 9045 N 849.908 -0.773975 -1.37286 0
M  V30 9046 C 851.133 -0.349561 -2.04433 0
M  V30 9047 C 851.558 1.02082 -1.5799 0
M  V30 9048 O 850.916 1.65458 -0.741172 0
M  V30 9049 C 850.964 -0.404292 -3.58326 0
M  V30 9050 O 850.068 0.594447 -4.08093 0
M  V30 9051 H 849.409 -0.150959 -0.646612 0
M  V30 9052 H 851.939 -1.05079 -1.75555 0
M  V30 9053 H 851.949 -0.262378 -4.07155 0
M  V30 9054 H 850.624 -1.40403 -3.91484 0
M  V30 9055 H 849.201 0.415468 -3.70578 0
M  V30 9056 N 851.386 1.48609 -0.524698 0
M  V30 9057 C 852.633 2.02497 0.0113214 0
M  V30 9058 C 852.961 1.40229 1.34781 0
M  V30 9059 O 852.216 0.53557 1.88229 0
M  V30 9060 C 852.515 3.56906 0.187873 0
M  V30 9061 C 852.181 4.37932 -1.07359 0
M  V30 9062 C 850.843 4.59792 -1.41933 0
M  V30 9063 C 853.195 4.84902 -1.911 0
M  V30 9064 C 850.523 5.25868 -2.60154 0
M  V30 9065 C 852.875 5.52281 -3.08495 0
M  V30 9066 C 851.539 5.7238 -3.4342 0
M  V30 9067 H 850.809 0.740988 0.0041428 0
M  V30 9068 H 853.456 1.78651 -0.689652 0
M  V30 9069 H 851.761 3.79563 0.971572 0
M  V30 9070 H 853.458 3.96218 0.617443 0
M  V30 9071 H 850.048 4.21175 -0.794331 0
M  V30 9072 H 854.232 4.67821 -1.65701 0
M  V30 9073 H 849.488 5.39628 -2.87422 0
M  V30 9074 H 853.662 5.87645 -3.73692 0
M  V30 9075 H 851.289 6.23354 -4.35126 0
M  V30 9076 N 852.864 0.259585 1.55447 0
M  V30 9077 C 854.141 -0.412595 1.91199 0
M  V30 9078 C 854.521 -1.74909 1.18194 0
M  V30 9079 O 853.869 -2.26474 0.303603 0
M  V30 9080 C 854.079 -0.568195 3.44344 0
M  V30 9081 C 855.427 -0.858253 4.15836 0
M  V30 9082 O 856.451 -0.653588 3.50152 0
M  V30 9083 O 855.31 -1.24874 5.32042 0
M  V30 9084 H 852.404 -0.223403 0.796254 0
M  V30 9085 H 854.95 0.30459 1.66944 0
M  V30 9086 H 853.722 0.372989 3.89518 0
M  V30 9087 H 853.345 -1.33544 3.74502 0
M  V30 9088 N 854.342 -1.57594 -0.0133615 0
M  V30 9089 C 855.274 -2.04402 -1.03695 0
M  V30 9090 C 856.287 -0.959546 -1.31516 0
M  V30 9091 O 857.476 -1.23659 -1.28727 0
M  V30 9092 C 854.576 -2.41766 -2.37491 0
M  V30 9093 C 853.749 -3.72785 -2.28802 0
M  V30 9094 C 852.808 -3.97165 -3.45176 0
M  V30 9095 O 851.834 -4.68013 -3.23963 0
M  V30 9096 N 853.036 -3.44021 -4.67579 0
M  V30 9097 H 855.801 -2.92833 -0.637874 0
M  V30 9098 H 853.362 -1.60647 -0.20101 0
M  V30 9099 H 855.354 -2.55201 -3.14093 0
M  V30 9100 H 853.924 -1.58924 -2.69188 0
M  V30 9101 H 853.144 -3.69555 -1.37197 0
M  V30 9102 H 854.432 -4.58704 -2.20154 0
M  V30 9103 H 853.83 -2.86623 -4.87713 0
M  V30 9104 H 852.387 -3.62808 -5.41492 0
M  V30 9105 N 855.82 0.285905 -1.54985 0
M  V30 9106 C 856.75 1.35752 -1.89983 0
M  V30 9107 C 857.731 1.52163 -0.760295 0
M  V30 9108 O 858.916 1.65421 -1.01733 0
M  V30 9109 C 856.046 2.71925 -2.16042 0
M  V30 9110 C 855 2.70261 -3.31878 0
M  V30 9111 C 854.326 4.09864 -3.43388 0
M  V30 9112 C 855.626 2.30667 -4.68604 0
M  V30 9113 H 857.32 1.06709 -2.79738 0
M  V30 9114 H 854.866 0.511884 -1.34595 0
M  V30 9115 H 856.819 3.46992 -2.39113 0
M  V30 9116 H 855.543 3.02523 -1.23074 0
M  V30 9117 H 854.202 1.97651 -3.08755 0
M  V30 9118 H 853.85 4.37664 -2.47909 0
M  V30 9119 H 853.55 4.09648 -4.21262 0
M  V30 9120 H 855.074 4.86689 -3.68736 0
M  V30 9121 H 856.488 2.95453 -4.91305 0
M  V30 9122 H 854.885 2.41637 -5.49301 0
M  V30 9123 H 855.955 1.25793 -4.68299 0
M  V30 9124 N 857.298 1.47698 0.54982 0
M  V30 9125 C 858.523 1.58579 1.33669 0
M  V30 9126 C 858.948 0.239049 1.86575 0
M  V30 9127 O 858.306 -0.786256 1.63364 0
M  V30 9128 C 858.354 2.62029 2.47736 0
M  V30 9129 O 857.458 2.17813 3.50188 0
M  V30 9130 H 856.799 0.532447 0.396732 0
M  V30 9131 H 859.329 1.93536 0.6637 0
M  V30 9132 H 859.339 2.82682 2.94202 0
M  V30 9133 H 858.014 3.59812 2.08586 0
M  V30 9134 H 856.591 2.07291 3.09976 0
M  V30 9135 N 858.776 -0.797141 1.35954 0
M  V30 9136 C 860.187 -1.37179 1.26644 0
M  V30 9137 C 860.538 -1.9596 -0.0971046 0
M  V30 9138 O 859.663 -1.91994 -0.998355 0
M  V30 9139 C 860.258 -2.49395 2.2932 0
M  V30 9140 C 858.817 -3.02697 2.23722 0
M  V30 9141 C 857.964 -1.75721 2.14517 0
M  V30 9142 H 860.915 -0.599407 1.46945 0
M  V30 9143 H 860.936 -3.28204 1.92515 0
M  V30 9144 H 860.448 -2.06584 3.2855 0
M  V30 9145 H 858.549 -3.49948 1.27934 0
M  V30 9146 H 858.662 -3.60036 3.16087 0
M  V30 9147 H 857.026 -1.97649 1.60646 0
M  V30 9148 H 857.809 -1.35049 3.15621 0
M  V30 9149 N 860.254 -1.20106 -1.0204 0
M  V30 9150 C 861.184 -0.970301 -2.12385 0
M  V30 9151 C 862.165 0.099378 -1.69809 0
M  V30 9152 O 863.35 -0.057365 -1.94115 0
M  V30 9153 C 860.48 -0.517431 -3.43424 0
M  V30 9154 C 859.434 -1.52992 -3.99722 0
M  V30 9155 C 858.76 -0.933817 -5.26483 0
M  V30 9156 C 860.06 -2.91257 -4.33551 0
M  V30 9157 H 861.754 -1.89316 -2.31948 0
M  V30 9158 H 859.3 -0.911655 -1.11467 0
M  V30 9159 H 861.253 -0.343243 -4.2 0
M  V30 9160 H 859.977 0.441049 -3.23608 0
M  V30 9161 H 858.636 -1.6914 -3.2525 0
M  V30 9162 H 858.284 0.0324763 -5.0299 0
M  V30 9163 H 857.984 -1.60999 -5.65113 0
M  V30 9164 H 859.508 -0.770614 -6.05718 0
M  V30 9165 H 860.922 -2.78642 -5.0103 0
M  V30 9166 H 859.319 -3.55745 -4.83286 0
M  V30 9167 H 860.389 -3.43269 -3.42483 0
M  V30 9168 N 861.732 1.21287 -1.00634 0
M  V30 9169 C 862.642 2.27388 -0.577226 0
M  V30 9170 C 863.658 1.69791 0.380399 0
M  V30 9171 O 864.834 1.99918 0.2439 0
M  V30 9172 C 861.899 3.46588 0.0880532 0
M  V30 9173 C 860.96 4.19453 -0.914222 0
M  V30 9174 C 860.193 5.32962 -0.280596 0
M  V30 9175 O 860.416 5.62895 0.922265 0
M  V30 9176 O 859.35 5.93666 -0.992196 0
M  V30 9177 H 863.176 2.66289 -1.46028 0
M  V30 9178 H 860.761 1.2771 -0.775283 0
M  V30 9179 H 862.643 4.18881 0.460094 0
M  V30 9180 H 861.318 3.09585 0.945461 0
M  V30 9181 H 860.225 3.49376 -1.33744 0
M  V30 9182 H 861.558 4.6037 -1.74126 0
M  V30 9183 N 863.21 0.781244 1.36873 0
M  V30 9184 C 864.435 0.360398 2.04245 0
M  V30 9185 C 864.86 -1.01242 1.58529 0
M  V30 9186 O 864.218 -1.65063 0.749936 0
M  V30 9187 C 864.266 0.42329 3.58107 0
M  V30 9188 O 863.37 -0.572796 4.08403 0
M  V30 9189 H 862.711 0.154386 0.645803 0
M  V30 9190 H 865.241 1.06008 1.74996 0
M  V30 9191 H 865.251 0.283967 4.07011 0
M  V30 9192 H 863.926 1.42477 3.90734 0
M  V30 9193 H 862.503 -0.395809 3.70793 0
M  V30 9194 N 864.689 -1.48329 0.532571 0
M  V30 9195 C 865.914 -2.074 0.00147755 0
M  V30 9196 C 866.339 -1.38615 -1.27151 0
M  V30 9197 O 865.697 -0.452949 -1.75551 0
M  V30 9198 C 865.745 -3.60029 -0.202866 0
M  V30 9199 O 864.849 -3.92327 -1.27097 0
M  V30 9200 H 864.19 -0.662777 0.0402883 0
M  V30 9201 H 866.72 -1.90701 0.741224 0
M  V30 9202 H 866.73 -4.05783 -0.424722 0
M  V30 9203 H 865.405 -4.09496 0.727033 0
M  V30 9204 H 863.982 -3.58348 -1.03156 0
M  V30 9205 N 866.167 -0.267825 -1.55308 0
M  V30 9206 C 867.392 0.357487 -2.04296 0
M  V30 9207 C 867.817 1.49222 -1.14518 0
M  V30 9208 O 867.175 1.80741 -0.142292 0
M  V30 9209 C 867.223 0.822899 -3.51085 0
M  V30 9210 O 866.327 1.93078 -3.6441 0
M  V30 9211 H 865.668 0.075025 -0.659748 0
M  V30 9212 H 868.198 -0.399996 -2.00652 0
M  V30 9213 H 868.208 1.12059 -3.92309 0
M  V30 9214 H 866.883 -0.0073562 -4.15899 0
M  V30 9215 H 865.46 1.63618 -3.35087 0
M  V30 9216 N 867.645 1.57599 0.00500368 0
M  V30 9217 C 868.608 2.07058 0.982832 0
M  V30 9218 C 869.608 0.979045 1.27559 0
M  V30 9219 O 870.798 1.24187 1.22161 0
M  V30 9220 C 867.93 2.50782 2.30914 0
M  V30 9221 H 869.123 2.94718 0.555119 0
M  V30 9222 H 866.676 1.54249 0.25237 0
M  V30 9223 H 867.411 1.66351 2.78385 0
M  V30 9224 H 867.196 3.30495 2.10987 0
M  V30 9225 H 868.686 2.89391 3.0107 0
M  V30 9226 N 869.123 -0.277682 1.55134 0
M  V30 9227 C 870.348 -1.03254 1.7987 0
M  V30 9228 C 870.773 -1.79324 0.567861 0
M  V30 9229 O 870.131 -1.74764 -0.4824 0
M  V30 9230 C 870.179 -1.9705 3.02 0
M  V30 9231 O 869.283 -3.05744 2.76757 0
M  V30 9232 H 868.624 -0.295447 0.594649 0
M  V30 9233 H 871.154 -0.308013 2.02268 0
M  V30 9234 H 871.164 -2.3909 3.30606 0
M  V30 9235 H 869.839 -1.41094 3.91236 0
M  V30 9236 H 868.416 -2.68052 2.59235 0
M  V30 9237 N 870.601 -1.47988 -0.541979 0
M  V30 9238 C 872.012 -1.49073 -1.12402 0
M  V30 9239 C 872.363 -0.253825 -1.94551 0
M  V30 9240 O 871.488 0.640056 -2.06718 0
M  V30 9241 C 872.083 -2.7011 -2.04514 0
M  V30 9242 C 870.642 -2.74105 -2.5796 0
M  V30 9243 C 869.789 -2.42409 -1.3466 0
M  V30 9244 H 872.74 -1.55277 -0.327818 0
M  V30 9245 H 872.761 -2.47946 -2.88623 0
M  V30 9246 H 872.273 -3.60117 -1.44697 0
M  V30 9247 H 870.374 -1.88276 -3.21532 0
M  V30 9248 H 870.487 -3.75213 -2.97913 0
M  V30 9249 H 868.851 -1.9331 -1.65841 0
M  V30 9250 H 869.634 -3.34642 -0.766133 0
M  V30 9251 N 872.079 0.78992 -1.36375 0
M  V30 9252 C 872.989 1.93386 -1.32812 0
M  V30 9253 C 874.005 1.72468 -0.230377 0
M  V30 9254 O 875.181 1.96014 -0.462657 0
M  V30 9255 C 872.246 3.2824 -1.11621 0
M  V30 9256 C 871.307 3.61939 -2.30865 0
M  V30 9257 C 870.54 4.90359 -2.10675 0
M  V30 9258 O 870.763 5.6005 -1.08168 0
M  V30 9259 O 869.697 5.22702 -2.9844 0
M  V30 9260 H 873.523 1.99342 -2.29121 0
M  V30 9261 H 871.108 0.9301 -1.16917 0
M  V30 9262 H 872.99 4.08939 -1.01719 0
M  V30 9263 H 871.665 3.23178 -0.183732 0
M  V30 9264 H 870.572 2.81549 -2.46335 0
M  V30 9265 H 871.905 3.71725 -3.22617 0
M  V30 9266 N 873.557 1.20646 1.01402 0
M  V30 9267 C 874.782 1.04462 1.79172 0
M  V30 9268 C 875.207 -0.401588 1.83763 0
M  V30 9269 O 874.565 -1.28934 1.27459 0
M  V30 9270 C 874.613 1.63583 3.21361 0
M  V30 9271 O 873.717 0.875198 4.03006 0
M  V30 9272 H 873.058 0.368235 0.552539 0
M  V30 9273 H 875.588 1.59994 1.27526 0
M  V30 9274 H 875.598 1.67426 3.72065 0
M  V30 9275 H 874.273 2.68835 3.17334 0
M  V30 9276 H 872.85 0.911172 3.61597 0
M  V30 9277 N 875.035 -1.20752 1.01276 0
M  V30 9278 C 875.998 -2.2162 0.584583 0
M  V30 9279 C 876.998 -1.57094 -0.343215 0
M  V30 9280 O 878.188 -1.73696 -0.132433 0
M  V30 9281 C 875.32 -3.40583 -0.146872 0
M  V30 9282 H 876.513 -2.61015 1.47686 0
M  V30 9283 H 874.066 -1.34148 0.802123 0
M  V30 9284 H 874.801 -3.06686 -1.05424 0
M  V30 9285 H 874.586 -3.88642 0.51958 0
M  V30 9286 H 876.076 -4.15339 -0.433924 0
M  V30 9287 N 876.513 -0.788492 -1.36457 0
M  V30 9288 C 877.738 -0.371224 -2.04051 0
M  V30 9289 C 878.163 1.004 -1.59064 0
M  V30 9290 O 877.521 1.64663 -0.758679 0
M  V30 9291 C 877.569 -0.442275 -3.57877 0
M  V30 9292 O 876.673 0.55113 -4.08701 0
M  V30 9293 H 876.014 -0.157808 -0.644975 0
M  V30 9294 H 878.544 -1.06935 -1.74431 0
M  V30 9295 H 878.554 -0.305548 -4.06854 0
M  V30 9296 H 877.229 -1.44547 -3.89973 0
M  V30 9297 H 875.806 0.37614 -3.70998 0
M  V30 9298 N 877.991 1.48044 -0.54043 0
M  V30 9299 C 879.402 1.86418 -0.102662 0
M  V30 9300 C 879.753 1.4489 1.32293 0
M  V30 9301 O 878.878 0.844319 1.99249 0
M  V30 9302 C 879.473 3.38324 -0.179533 0
M  V30 9303 C 878.032 3.75852 0.203098 0
M  V30 9304 C 877.179 2.72097 -0.534637 0
M  V30 9305 H 880.13 1.398 -0.751103 0
M  V30 9306 H 880.151 3.75641 0.606147 0
M  V30 9307 H 879.663 3.68518 -1.21721 0
M  V30 9308 H 877.764 3.51272 1.24252 0
M  V30 9309 H 877.877 4.78884 -0.143784 0
M  V30 9310 H 876.241 2.54692 0.0203358 0
M  V30 9311 H 877.024 3.05135 -1.57314 0
M  V30 9312 N 879.47 0.276058 1.55163 0
M  V30 9313 C 880.402 -0.644254 2.19959 0
M  V30 9314 C 881.415 -1.11675 1.18459 0
M  V30 9315 O 882.604 -1.0385 1.45181 0
M  V30 9316 C 879.704 -1.89093 2.81242 0
M  V30 9317 C 878.877 -1.56509 4.08441 0
M  V30 9318 C 877.936 -2.66433 4.53762 0
M  V30 9319 O 876.962 -2.32579 5.19515 0
M  V30 9320 N 878.164 -3.96509 4.23982 0
M  V30 9321 H 880.929 -0.0896808 2.99566 0
M  V30 9322 H 878.49 0.0971981 1.61608 0
M  V30 9323 H 880.482 -2.61929 3.08505 0
M  V30 9324 H 879.052 -2.35453 2.05622 0
M  V30 9325 H 878.272 -0.670522 3.88455 0
M  V30 9326 H 879.56 -1.32242 4.91314 0
M  V30 9327 H 878.958 -4.26834 3.71254 0
M  V30 9328 H 877.515 -4.6572 4.56014 0
M  V30 9329 N 880.948 -1.576 0.00335426 0
M  V30 9330 C 882.173 -1.95398 -0.695311 0
M  V30 9331 C 882.598 -0.878476 -1.66326 0
M  V30 9332 O 881.956 0.163086 -1.80565 0
M  V30 9333 C 882.004 -3.32293 -1.40049 0
M  V30 9334 O 881.108 -3.26834 -2.51502 0
M  V30 9335 H 880.449 -0.637796 -0.184694 0
M  V30 9336 H 882.979 -2.04519 0.057543 0
M  V30 9337 H 882.989 -3.67936 -1.76316 0
M  V30 9338 H 881.664 -4.10123 -0.690803 0
M  V30 9339 H 880.241 -3.02872 -2.17539 0
M  V30 9340 N 882.426 0.269451 -1.5528 0
M  V30 9341 C 883.654 1.01872 -1.80082 0
M  V30 9342 C 884.069 1.79802 -0.575917 0
M  V30 9343 O 883.426 1.76735 0.455081 0
M  V30 9344 C 883.477 1.9745 -3.02813 0
M  V30 9345 O 883.198 1.22677 -4.20573 0
M  V30 9346 C 884.699 2.8416 -3.40247 0
M  V30 9347 H 881.919 0.300781 -0.59981 0
M  V30 9348 H 884.463 0.29916 -2.023 0
M  V30 9349 H 882.618 2.64864 -2.82712 0
M  V30 9350 H 883.032 1.87129 -4.89982 0
M  V30 9351 H 884.506 3.47014 -4.29284 0
M  V30 9352 H 884.983 3.54113 -2.59809 0
M  V30 9353 H 885.589 2.22232 -3.6262 0
M  V30 9354 N 883.904 1.48273 0.534124 0
M  V30 9355 C 885.15 1.56311 1.29208 0
M  V30 9356 C 885.483 0.234481 1.92779 0
M  V30 9357 O 884.758 -0.759143 1.79073 0
M  V30 9358 C 885.041 2.69831 2.3846 0
M  V30 9359 C 884.894 4.12385 1.79608 0
M  V30 9360 C 886.213 2.79133 3.40254 0
M  V30 9361 H 883.332 0.56899 0.468422 0
M  V30 9362 H 885.974 1.80429 0.595438 0
M  V30 9363 H 884.124 2.49397 2.97881 0
M  V30 9364 H 885.796 4.44246 1.24269 0
M  V30 9365 H 884.039 4.19579 1.10162 0
M  V30 9366 H 884.71 4.87629 2.58693 0
M  V30 9367 H 887.186 2.97632 2.90783 0
M  V30 9368 H 886.062 3.60298 4.14097 0
M  V30 9369 H 886.323 1.87122 4.00547 0
M  V30 9370 N 885.382 -0.782676 1.36792 0
M  V30 9371 C 886.61 -1.57162 1.34565 0
M  V30 9372 C 887.025 -1.88664 -0.0715501 0
M  V30 9373 O 886.382 -1.50633 -1.03033 0
M  V30 9374 C 886.433 -2.88854 2.1736 0
M  V30 9375 O 886.154 -2.58707 3.53557 0
M  V30 9376 C 887.655 -3.83132 2.2299 0
M  V30 9377 H 884.875 -0.487245 0.461338 0
M  V30 9378 H 887.419 -0.970905 1.79982 0
M  V30 9379 H 885.574 -3.45377 1.7548 0
M  V30 9380 H 885.988 -3.42961 3.96835 0
M  V30 9381 H 887.462 -4.72575 2.85266 0
M  V30 9382 H 887.939 -4.21472 1.23524 0
M  V30 9383 H 888.545 -3.32541 2.65135 0
M  V30 9384 N 886.86 -1.21182 -1.00761 0
M  V30 9385 C 888.106 -1.02898 -1.74756 0
M  V30 9386 C 888.439 0.436774 -1.89225 0
M  V30 9387 O 887.714 1.32415 -1.42466 0
M  V30 9388 C 887.997 -1.72372 -3.16164 0
M  V30 9389 C 887.85 -3.2645 -3.09435 0
M  V30 9390 C 889.169 -1.46415 -4.15031 0
M  V30 9391 H 886.288 -0.375214 -0.634337 0
M  V30 9392 H 888.93 -1.49321 -1.17487 0
M  V30 9393 H 887.08 -1.32906 -3.65059 0
M  V30 9394 H 888.752 -3.75269 -2.68274 0
M  V30 9395 H 886.995 -3.56889 -2.46603 0
M  V30 9396 H 887.666 -3.70226 -4.09435 0
M  V30 9397 H 890.142 -1.80671 -3.7483 0
M  V30 9398 H 889.018 -1.97544 -5.12121 0
M  V30 9399 H 889.279 -0.39361 -4.40344 0
M  V30 9400 N 888.338 1.20213 -1.01915 0
M  V30 9401 C 889.585 1.89647 -0.709955 0
M  V30 9402 C 889.913 1.7901 0.760631 0
M  V30 9403 O 889.168 1.17028 1.56853 0
M  V30 9404 C 889.467 3.40232 -1.09438 0
M  V30 9405 C 889.133 3.7107 -2.5616 0
M  V30 9406 C 887.795 3.79196 -2.96249 0
M  V30 9407 C 890.147 3.85169 -3.51133 0
M  V30 9408 C 887.475 3.98882 -4.30244 0
M  V30 9409 C 889.827 4.06365 -4.8482 0
M  V30 9410 C 888.491 4.12722 -5.24611 0
M  V30 9411 H 887.761 0.693967 -0.259791 0
M  V30 9412 H 890.408 1.42419 -1.2802 0
M  V30 9413 H 888.713 3.89292 -0.442596 0
M  V30 9414 H 890.41 3.92257 -0.832811 0
M  V30 9415 H 887 3.65346 -2.24099 0
M  V30 9416 H 891.184 3.78243 -3.21319 0
M  V30 9417 H 886.44 4.02039 -4.60624 0
M  V30 9418 H 890.614 4.16216 -5.58334 0
M  V30 9419 H 888.241 4.27728 -6.28453 0
M  V30 9420 N 889.816 0.795718 1.36037 0
M  V30 9421 C 890.748 0.156336 2.28666 0
M  V30 9422 C 891.761 -0.638075 1.49775 0
M  V30 9423 O 892.95 -0.472222 1.7214 0
M  V30 9424 C 890.05 -0.801417 3.29288 0
M  V30 9425 C 889.223 -0.0557118 4.37365 0
M  V30 9426 C 888.282 -0.930338 5.1791 0
M  V30 9427 O 887.308 -0.385266 5.67895 0
M  V30 9428 N 888.51 -2.25382 5.34961 0
M  V30 9429 H 891.275 0.952033 2.84177 0
M  V30 9430 H 888.836 0.650189 1.48271 0
M  V30 9431 H 890.828 -1.39051 3.80062 0
M  V30 9432 H 889.398 -1.49796 2.74372 0
M  V30 9433 H 888.618 0.714508 3.87671 0
M  V30 9434 H 889.906 0.458633 5.06729 0
M  V30 9435 H 889.304 -2.72073 4.95977 0
M  V30 9436 H 887.861 -2.79241 5.88955 0
M  V30 9437 N 891.294 -1.47756 0.548274 0
M  V30 9438 C 892.226 -2.27921 -0.24177 0
M  V30 9439 C 893.239 -1.36471 -0.887658 0
M  V30 9440 O 894.428 -1.6137 -0.763016 0
M  V30 9441 C 891.528 -3.10449 -1.35922 0
M  V30 9442 C 890.701 -4.298 -0.811808 0
M  V30 9443 C 889.76 -4.93994 -1.81264 0
M  V30 9444 O 888.786 -5.52657 -1.3623 0
M  V30 9445 N 889.988 -4.87882 -3.14566 0
M  V30 9446 H 892.753 -2.96365 0.445848 0
M  V30 9447 H 890.314 -1.57286 0.383769 0
M  V30 9448 H 892.306 -3.50261 -2.02729 0
M  V30 9449 H 890.876 -2.44306 -1.95021 0
M  V30 9450 H 890.096 -3.94186 0.0327929 0
M  V30 9451 H 891.384 -5.0702 -0.425272 0
M  V30 9452 H 890.782 -4.41405 -3.53805 0
M  V30 9453 H 889.339 -5.3174 -3.76956 0
M  V30 9454 N 892.772 -0.284283 -1.55015 0
M  V30 9455 C 894 0.332948 -2.04203 0
M  V30 9456 C 894.415 1.48783 -1.16229 0
M  V30 9457 O 893.772 1.81567 -0.184323 0
M  V30 9458 C 893.823 0.805207 -3.52418 0
M  V30 9459 O 893.544 -0.303689 -4.37046 0
M  V30 9460 C 895.045 1.48931 -4.17534 0
M  V30 9461 H 892.265 0.0747447 -0.666824 0
M  V30 9462 H 894.809 -0.419048 -2.00161 0
M  V30 9463 H 892.964 1.50727 -3.56876 0
M  V30 9464 H 893.378 0.0609703 -5.24465 0
M  V30 9465 H 894.852 1.77108 -5.22816 0
M  V30 9466 H 895.329 2.42389 -3.66257 0
M  V30 9467 H 895.935 0.830867 -4.17105 0
M  V30 9468 N 894.251 1.57596 -0.0117121 0
M  V30 9469 C 895.183 2.06025 1.0043 0
M  V30 9470 C 896.196 0.980348 1.29973 0
M  V30 9471 O 897.385 1.25691 1.26744 0
M  V30 9472 C 894.485 2.45514 2.33615 0
M  V30 9473 C 893.658 3.76378 2.22842 0
M  V30 9474 C 892.717 4.02606 3.38814 0
M  V30 9475 O 891.743 4.73108 3.16477 0
M  V30 9476 N 892.945 3.51416 4.62047 0
M  V30 9477 H 895.71 2.93811 0.591206 0
M  V30 9478 H 893.271 1.60947 0.175427 0
M  V30 9479 H 895.263 2.60166 3.09993 0
M  V30 9480 H 893.833 1.63186 2.66625 0
M  V30 9481 H 893.053 3.71691 1.313 0
M  V30 9482 H 894.341 4.62149 2.12829 0
M  V30 9483 H 893.739 2.94346 4.83091 0
M  V30 9484 H 892.296 3.71377 5.35651 0
M  V30 9485 N 895.729 -0.261212 1.5542 0
M  V30 9486 C 896.978 -0.989072 1.75785 0
M  V30 9487 C 897.291 -1.8702 0.572961 0
M  V30 9488 O 898.497 -2.63374 0.659289 0
M  V30 9489 C 896.953 -1.80857 3.11157 0
M  V30 9490 C 896.561 -0.975535 4.3725 0
M  V30 9491 C 898.305 -2.53003 3.40866 0
M  V30 9492 C 896.212 -1.7901 5.63657 0
M  V30 9493 H 895.142 -0.373019 0.655266 0
M  V30 9494 H 897.793 -0.244267 1.81867 0
M  V30 9495 H 896.175 -2.59479 2.99144 0
M  V30 9496 H 897.349 -0.232661 4.60212 0
M  V30 9497 H 895.664 -0.368083 4.1477 0
M  V30 9498 H 898.261 -3.14372 4.32521 0
M  V30 9499 H 898.604 -3.23891 2.61535 0
M  V30 9500 H 899.137 -1.81403 3.54031 0
M  V30 9501 H 895.876 -1.12522 6.4577 0
M  V30 9502 H 895.396 -2.50863 5.44819 0
M  V30 9503 H 897.075 -2.36082 6.0239 0
M  V30 9504 N 897.207 -1.48554 -0.526253 0
M  V30 9505 C 898.139 -1.59446 -1.6465 0
M  V30 9506 C 899.152 -0.478525 -1.55608 0
M  V30 9507 O 900.341 -0.74953 -1.62001 0
M  V30 9508 C 897.441 -1.51164 -3.03319 0
M  V30 9509 C 896.614 -2.77861 -3.37805 0
M  V30 9510 C 895.673 -2.62982 -4.5577 0
M  V30 9511 O 894.699 -3.36876 -4.58806 0
M  V30 9512 N 895.901 -1.72847 -5.5417 0
M  V30 9513 H 898.666 -2.56055 -1.55743 0
M  V30 9514 H 896.227 -1.45325 -0.713606 0
M  V30 9515 H 898.219 -1.389 -3.80117 0
M  V30 9516 H 896.789 -0.625147 -3.06285 0
M  V30 9517 H 896.009 -3.04663 -2.50149 0
M  V30 9518 H 897.297 -3.61908 -3.57632 0
M  V30 9519 H 896.695 -1.12022 -5.54498 0
M  V30 9520 H 895.252 -1.6652 -6.3017 0
M  V30 9521 N 898.685 0.775411 -1.37205 0
M  V30 9522 C 899.595 1.91967 -1.34855 0
M  V30 9523 C 900.611 1.72214 -0.248656 0
M  V30 9524 O 901.787 1.95512 -0.483421 0
M  V30 9525 C 898.852 3.27038 -1.15096 0
M  V30 9526 C 897.913 3.5947 -2.34691 0
M  V30 9527 C 897.146 4.88097 -2.15865 0
M  V30 9528 O 897.369 5.58871 -1.14102 0
M  V30 9529 O 896.303 5.19507 -3.03967 0
M  V30 9530 H 900.129 1.969 -2.31223 0
M  V30 9531 H 897.714 0.917647 -1.17897 0
M  V30 9532 H 899.596 4.07837 -1.0605 0
M  V30 9533 H 898.271 3.22965 -0.217999 0
M  V30 9534 H 897.178 2.7892 -2.49308 0
M  V30 9535 H 898.511 3.68282 -3.26541 0
M  V30 9536 N 900.163 1.21714 1.00117 0
M  V30 9537 C 901.574 1.03477 1.55401 0
M  V30 9538 C 901.925 -0.40429 1.91989 0
M  V30 9539 O 901.05 -1.28807 1.7389 0
M  V30 9540 C 901.645 1.87213 2.82377 0
M  V30 9541 C 900.204 1.73297 3.34133 0
M  V30 9542 C 899.351 1.84189 2.07291 0
M  V30 9543 H 902.302 1.3568 0.823195 0
M  V30 9544 H 902.323 1.38465 3.54412 0
M  V30 9545 H 901.835 2.91944 2.55715 0
M  V30 9546 H 899.936 0.712662 3.65721 0
M  V30 9547 H 900.049 2.55486 4.05294 0
M  V30 9548 H 898.413 1.27538 2.20468 0
M  V30 9549 H 899.196 2.90435 1.83037 0
M  V30 9550 N 901.641 -1.19671 1.02551 0
M  V30 9551 C 902.869 -1.93233 0.739513 0
M  V30 9552 C 903.284 -1.75298 -0.701158 0
M  V30 9553 O 902.641 -1.07269 -1.47647 0
M  V30 9554 C 902.692 -3.45085 1.07697 0
M  V30 9555 O 902.413 -3.62441 2.46106 0
M  V30 9556 C 903.914 -4.35776 0.813298 0
M  V30 9557 H 901.134 -0.613905 0.270853 0
M  V30 9558 H 903.678 -1.51909 1.36909 0
M  V30 9559 H 901.833 -3.84255 0.492635 0
M  V30 9560 H 902.247 -4.56337 2.58567 0
M  V30 9561 H 903.721 -5.40941 1.09941 0
M  V30 9562 H 904.198 -4.38474 -0.252359 0
M  V30 9563 H 904.804 -4.02282 1.38021 0
M  V30 9564 N 903.119 -0.802921 -1.35613 0
M  V30 9565 C 904.082 -0.216422 -2.28176 0
M  V30 9566 C 905.082 0.594101 -1.49422 0
M  V30 9567 O 906.272 0.41312 -1.6923 0
M  V30 9568 C 903.404 0.698746 -3.33662 0
M  V30 9569 H 904.597 -1.03276 -2.81557 0
M  V30 9570 H 902.15 -0.573307 -1.45406 0
M  V30 9571 H 902.885 1.53891 -2.85461 0
M  V30 9572 H 902.67 0.119314 -3.91918 0
M  V30 9573 H 904.16 1.10354 -4.02755 0
M  V30 9574 N 904.597 1.47463 -0.556102 0
M  V30 9575 C 905.545 2.31692 0.205299 0
M  V30 9576 C 906.539 1.42857 0.910394 0
M  V30 9577 O 907.745 1.59628 0.831806 0
M  V30 9578 H 904.12 0.747172 0.0850775 0
M  V30 9579 H 906.091 2.93758 -0.524305 0
M  V30 9580 C 904.84 3.25487 1.22283 0
M  V30 9581 H 904.163 3.93806 0.689697 0
M  V30 9582 H 905.603 3.87257 1.7265 0
M  V30 9583 C 904.062 2.48931 2.27013 0
M  V30 9584 O 904.592 2.23296 3.33919 0
M  V30 9585 N 902.798 2.0996 2.00911 0
M  V30 9586 H 902.345 2.31008 1.13986 0
M  V30 9587 H 902.303 1.59053 2.712 0
M  V30 9588 N 906.075 0.2925 1.54862 0
M  V30 9589 C 907.038 -0.574423 2.21885 0
M  V30 9590 C 908.038 -1.06791 1.20218 0
M  V30 9591 O 909.228 -0.9653 1.45009 0
M  V30 9592 C 906.36 -1.79438 2.89853 0
M  V30 9593 H 907.553 0.0110319 2.99898 0
M  V30 9594 H 905.106 0.043256 1.5624 0
M  V30 9595 H 905.841 -2.4199 2.15897 0
M  V30 9596 H 905.626 -1.44827 3.64373 0
M  V30 9597 H 907.116 -2.41048 3.41007 0
M  V30 9598 N 907.553 -1.57587 0.0200696 0
M  V30 9599 C 908.781 -1.95718 -0.670964 0
M  V30 9600 C 909.196 -0.896081 -1.6618 0
M  V30 9601 O 908.553 0.123037 -1.82085 0
M  V30 9602 C 908.604 -3.33904 -1.38529 0
M  V30 9603 O 908.325 -4.35943 -0.434167 0
M  V30 9604 C 909.826 -3.86614 -2.16898 0
M  V30 9605 H 907.046 -0.644819 -0.185606 0
M  V30 9606 H 909.59 -2.04354 0.0771495 0
M  V30 9607 H 907.745 -3.26515 -2.08487 0
M  V30 9608 H 908.159 -5.16001 -0.940378 0
M  V30 9609 H 909.633 -4.85673 -2.62346 0
M  V30 9610 H 910.11 -3.20379 -3.00423 0
M  V30 9611 H 910.716 -3.97243 -1.51916 0
M  V30 9612 N 909.032 0.252966 -1.55557 0
M  V30 9613 C 910.26 0.999565 -1.81153 0
M  V30 9614 C 910.675 1.79181 -0.594955 0
M  V30 9615 O 910.032 1.77208 0.436311 0
M  V30 9616 C 910.083 1.94227 -3.04891 0
M  V30 9617 O 909.804 1.18209 -4.21851 0
M  V30 9618 C 911.305 2.80536 -3.43241 0
M  V30 9619 H 908.525 0.294402 -0.602966 0
M  V30 9620 H 911.069 0.277686 -2.02606 0
M  V30 9621 H 909.224 2.6185 -2.85505 0
M  V30 9622 H 909.638 1.81922 -4.9194 0
M  V30 9623 H 911.112 3.42442 -4.32941 0
M  V30 9624 H 911.589 3.51337 -2.6355 0
M  V30 9625 H 912.195 2.18373 -3.64956 0
M  V30 9626 N 910.51 1.48831 0.518367 0
M  V30 9627 C 911.738 1.6112 1.298 0
M  V30 9628 C 912.153 0.275872 1.86774 0
M  V30 9629 O 911.51 -0.736416 1.66983 0
M  V30 9630 C 911.561 2.66675 2.44063 0
M  V30 9631 O 911.282 3.95027 1.89434 0
M  V30 9632 C 912.783 2.8951 3.35706 0
M  V30 9633 H 910.003 0.542916 0.394314 0
M  V30 9634 H 912.547 1.94743 0.624142 0
M  V30 9635 H 910.702 2.35879 3.07311 0
M  V30 9636 H 911.116 4.53031 2.64316 0
M  V30 9637 H 912.59 3.67142 4.12202 0
M  V30 9638 H 913.067 1.98768 3.91648 0
M  V30 9639 H 913.673 3.21656 2.7824 0
M  V30 9640 N 911.988 -0.768124 1.37614 0
M  V30 9641 C 913.216 -1.55726 1.36224 0
M  V30 9642 C 913.631 -1.8873 -0.0515357 0
M  V30 9643 O 912.988 -1.51718 -1.0143 0
M  V30 9644 C 913.039 -2.86533 2.20412 0
M  V30 9645 O 912.76 -2.54942 3.56281 0
M  V30 9646 C 914.261 -3.80745 2.27041 0
M  V30 9647 H 911.481 -0.482325 0.46648 0
M  V30 9648 H 914.025 -0.95176 1.81002 0
M  V30 9649 H 912.18 -3.43496 1.79134 0
M  V30 9650 H 912.594 -3.38732 4.00451 0
M  V30 9651 H 914.068 -4.69523 2.90263 0
M  V30 9652 H 914.545 -4.20138 1.27987 0
M  V30 9653 H 915.151 -3.2971 2.68647 0
M  V30 9654 N 913.466 -1.22244 -0.994698 0
M  V30 9655 C 914.429 -0.992308 -2.06606 0
M  V30 9656 C 915.429 0.0405872 -1.60749 0
M  V30 9657 O 916.619 -0.197737 -1.73074 0
M  V30 9658 C 913.751 -0.498499 -3.37236 0
M  V30 9659 H 914.944 -1.9429 -2.28455 0
M  V30 9660 H 912.497 -1.04087 -1.166 0
M  V30 9661 H 913.232 0.456531 -3.21071 0
M  V30 9662 H 913.017 -1.24367 -3.71854 0
M  V30 9663 H 914.507 -0.35768 -4.16065 0
M  V30 9664 N 914.944 1.19125 -1.03184 0
M  V30 9665 C 916.172 1.92838 -0.74975 0
M  V30 9666 C 916.587 1.75667 0.691851 0
M  V30 9667 O 915.944 1.0805 1.47076 0
M  V30 9668 C 915.995 3.44509 -1.09525 0
M  V30 9669 O 915.716 3.6113 -2.48025 0
M  V30 9670 C 917.217 4.35338 -0.836397 0
M  V30 9671 H 914.437 0.61246 -0.274105 0
M  V30 9672 H 916.981 1.5118 -1.37712 0
M  V30 9673 H 915.136 3.83988 -0.513006 0
M  V30 9674 H 915.55 4.54959 -2.60984 0
M  V30 9675 H 917.024 5.4035 -1.12808 0
M  V30 9676 H 917.501 4.38602 0.229102 0
M  V30 9677 H 918.107 4.01544 -1.40152 0
M  V30 9678 N 916.422 0.810101 1.35185 0
M  V30 9679 C 917.65 0.404696 2.02903 0
M  V30 9680 C 918.065 -0.985434 1.61042 0
M  V30 9681 O 917.422 -1.63557 0.809658 0
M  V30 9682 C 917.473 0.482493 3.58266 0
M  V30 9683 O 917.194 1.81782 3.98606 0
M  V30 9684 C 918.695 0.070345 4.43244 0
M  V30 9685 H 915.915 0.163972 0.650657 0
M  V30 9686 H 918.459 1.0947 1.72733 0
M  V30 9687 H 916.614 -0.159296 3.87072 0
M  V30 9688 H 917.028 1.78306 4.93262 0
M  V30 9689 H 918.502 0.175888 5.5172 0
M  V30 9690 H 918.979 -0.984724 4.28018 0
M  V30 9691 H 919.585 0.685427 4.1974 0
M  V30 9692 N 917.9 -1.47166 0.563914 0
M  V30 9693 C 919.177 -1.95586 -0.0236172 0
M  V30 9694 C 919.557 -1.50655 -1.47872 0
M  V30 9695 O 918.905 -0.748479 -2.15894 0
M  V30 9696 C 919.115 -3.48762 0.128841 0
M  V30 9697 C 920.463 -4.24598 -0.0130544 0
M  V30 9698 O 921.487 -3.56155 0.0567242 0
M  V30 9699 O 920.346 -5.46253 -0.164332 0
M  V30 9700 H 917.44 -0.824793 -0.0603789 0
M  V30 9701 H 919.986 -1.57536 0.63091 0
M  V30 9702 H 918.758 -3.74291 1.14113 0
M  V30 9703 H 918.381 -3.93594 -0.56299 0
M  V30 9704 N 919.378 -0.300708 -1.54705 0
M  V30 9705 C 920.288 0.584996 -2.27189 0
M  V30 9706 C 921.304 1.14866 -1.30697 0
M  V30 9707 O 922.48 1.17351 -1.63679 0
M  V30 9708 C 919.545 1.74076 -2.99831 0
M  V30 9709 C 918.606 1.2112 -4.1186 0
M  V30 9710 C 917.839 2.31188 -4.81028 0
M  V30 9711 O 918.062 3.5108 -4.49554 0
M  V30 9712 O 916.996 1.97897 -5.68437 0
M  V30 9713 H 920.822 -0.00298177 -3.037 0
M  V30 9714 H 918.407 -0.0671802 -1.49249 0
M  V30 9715 H 920.289 2.41413 -3.45395 0
M  V30 9716 H 918.964 2.31535 -2.26215 0
M  V30 9717 H 917.871 0.50357 -3.70695 0
M  V30 9718 H 919.204 0.682046 -4.87452 0
M  V30 9719 N 920.856 1.57574 -0.0284266 0
M  V30 9720 C 921.786 2.1321 0.952039 0
M  V30 9721 C 922.767 1.04806 1.33977 0
M  V30 9722 O 923.952 1.32635 1.41851 0
M  V30 9723 C 921.082 2.65862 2.23461 0
M  V30 9724 C 920.036 3.79047 1.98765 0
M  V30 9725 C 919.362 4.18124 3.33281 0
M  V30 9726 C 920.662 5.05151 1.32739 0
M  V30 9727 H 922.356 2.95385 0.488705 0
M  V30 9728 H 919.902 1.42092 0.233628 0
M  V30 9729 H 921.855 3.03417 2.92431 0
M  V30 9730 H 920.579 1.80848 2.71959 0
M  V30 9731 H 919.238 3.41929 1.32213 0
M  V30 9732 H 918.886 3.30092 3.79537 0
M  V30 9733 H 918.586 4.94396 3.17563 0
M  V30 9734 H 920.11 4.58262 4.0352 0
M  V30 9735 H 921.524 5.40297 1.91708 0
M  V30 9736 H 919.921 5.86416 1.27421 0
M  V30 9737 H 920.991 4.83969 0.300261 0
M  V30 9738 N 922.334 -0.244713 1.55689 0
M  V30 9739 C 923.281 -1.30301 1.905 0
M  V30 9740 C 924.251 -1.4772 0.759478 0
M  V30 9741 O 925.436 -1.61667 1.01333 0
M  V30 9742 C 922.576 -2.653 2.20703 0
M  V30 9743 C 921.689 -2.55872 3.48071 0
M  V30 9744 C 920.824 -3.83238 3.67834 0
M  V30 9745 C 919.863 -3.68436 4.88796 0
M  V30 9746 N 919 -4.877 5.05068 0
M  V30 9747 H 923.84 -0.999143 2.80751 0
M  V30 9748 H 921.377 -0.482099 1.38976 0
M  V30 9749 H 923.335 -3.43884 2.36219 0
M  V30 9750 H 921.965 -2.93831 1.33653 0
M  V30 9751 H 921.017 -1.68846 3.40874 0
M  V30 9752 H 922.329 -2.40845 4.36801 0
M  V30 9753 H 921.483 -4.70266 3.83321 0
M  V30 9754 H 920.222 -4.01165 2.77341 0
M  V30 9755 H 919.227 -2.79793 4.73282 0
M  V30 9756 H 920.452 -3.52003 5.8075 0
M  V30 9757 H 918.398 -5.05983 4.17513 0
M  V30 9758 H 918.315 -4.75312 5.8789 0
M  V30 9759 H 919.583 -5.76219 5.24969 0
M  V30 9760 N 923.813 -1.49104 -0.510467 0
M  V30 9761 C 925.041 -1.61806 -1.28944 0
M  V30 9762 C 925.456 -0.285774 -1.86625 0
M  V30 9763 O 924.813 0.727551 -1.67371 0
M  V30 9764 C 924.864 -2.67966 -2.42645 0
M  V30 9765 O 924.585 -3.96026 -1.87337 0
M  V30 9766 C 926.086 -2.91286 -3.34166 0
M  V30 9767 H 923.306 -0.544999 -0.391429 0
M  V30 9768 H 925.85 -1.95071 -0.613805 0
M  V30 9769 H 924.005 -2.37505 -3.06056 0
M  V30 9770 H 924.419 -4.54427 -2.61909 0
M  V30 9771 H 925.893 -3.69323 -4.1025 0
M  V30 9772 H 926.37 -2.00842 -3.90588 0
M  V30 9773 H 926.976 -3.23127 -2.76531 0
M  V30 9774 N 925.291 0.760815 -1.38019 0
M  V30 9775 C 926.537 1.52198 -1.34028 0
M  V30 9776 C 926.87 1.94067 0.0718309 0
M  V30 9777 O 926.145 1.64895 1.0315 0
M  V30 9778 C 926.428 2.77954 -2.2894 0
M  V30 9779 C 926.281 2.42269 -3.7898 0
M  V30 9780 C 927.6 3.79943 -2.22107 0
M  V30 9781 H 924.719 0.552131 -0.488181 0
M  V30 9782 H 927.361 0.871971 -1.6881 0
M  V30 9783 H 925.511 3.33419 -1.9941 0
M  V30 9784 H 927.183 1.92635 -4.19153 0
M  V30 9785 H 925.426 1.74822 -3.97014 0
M  V30 9786 H 926.097 3.32211 -4.4084 0
M  V30 9787 H 928.573 3.34 -2.4816 0
M  V30 9788 H 927.449 4.6564 -2.90639 0
M  V30 9789 H 927.71 4.25004 -1.21753 0
M  V30 9790 N 926.769 1.22769 0.988202 0
M  V30 9791 C 927.997 1.08155 1.76381 0
M  V30 9792 C 928.412 -0.367573 1.85187 0
M  V30 9793 O 927.769 -1.25455 1.32541 0
M  V30 9794 C 927.82 1.69193 3.19462 0
M  V30 9795 O 927.541 3.08437 3.11125 0
M  V30 9796 C 929.042 1.59915 4.13451 0
M  V30 9797 H 926.262 0.378908 0.553778 0
M  V30 9798 H 928.806 1.6246 1.24206 0
M  V30 9799 H 926.961 1.18939 3.6869 0
M  V30 9800 H 927.375 3.37916 4.0114 0
M  V30 9801 H 928.849 2.07339 5.1158 0
M  V30 9802 H 929.326 0.556546 4.3566 0
M  V30 9803 H 929.932 2.09497 3.70123 0
M  V30 9804 N 928.247 -1.18576 1.03814 0
M  V30 9805 C 929.194 -2.2212 0.626988 0
M  V30 9806 C 930.164 -1.62064 -0.363912 0
M  V30 9807 O 931.349 -1.89041 -0.258469 0
M  V30 9808 C 928.489 -3.45099 -0.00650133 0
M  V30 9809 C 927.602 -4.19503 1.03156 0
M  V30 9810 C 926.737 -5.29932 0.366852 0
M  V30 9811 C 925.776 -5.96104 1.39018 0
M  V30 9812 N 924.913 -6.98076 0.750625 0
M  V30 9813 H 929.753 -2.56646 1.51449 0
M  V30 9814 H 927.29 -1.26084 0.757702 0
M  V30 9815 H 929.248 -4.15363 -0.391108 0
M  V30 9816 H 927.878 -3.11201 -0.857536 0
M  V30 9817 H 926.93 -3.48092 1.53414 0
M  V30 9818 H 928.242 -4.64843 1.80893 0
M  V30 9819 H 927.396 -6.06657 -0.0720979 0
M  V30 9820 H 926.135 -4.85687 -0.442631 0
M  V30 9821 H 925.14 -5.18122 1.8393 0
M  V30 9822 H 926.365 -6.42432 2.20132 0
M  V30 9823 H 924.311 -6.55989 -0.0385981 0
M  V30 9824 H 924.228 -7.41655 1.46574 0
M  V30 9825 H 925.496 -7.78776 0.335986 0
M  V30 9826 N 929.725 -0.817259 -1.34754 0
M  V30 9827 C 931.002 -0.325468 -1.92873 0
M  V30 9828 C 931.382 1.18643 -1.74606 0
M  V30 9829 O 930.73 1.9909 -1.1214 0
M  V30 9830 C 930.94 -0.74858 -3.40877 0
M  V30 9831 C 932.288 -0.744165 -4.18028 0
M  V30 9832 O 933.312 -0.690799 -3.49437 0
M  V30 9833 O 932.171 -0.812207 -5.40431 0
M  V30 9834 H 929.265 -0.0876397 -0.822343 0
M  V30 9835 H 931.811 -0.901671 -1.43764 0
M  V30 9836 H 930.583 -1.79017 -3.47949 0
M  V30 9837 H 930.206 -0.147764 -3.97325 0
M  V30 9838 N 931.203 1.46865 -0.571711 0
M  V30 9839 C 932.619 1.57897 -0.23255 0
M  V30 9840 C 932.819 1.56836 1.26509 0
M  V30 9841 O 931.875 1.47947 2.04617 0
M  V30 9842 C 933.188 2.87778 -0.872036 0
M  V30 9843 C 934.736 3.01389 -0.844605 0
M  V30 9844 C 935.211 4.33991 -1.46343 0
M  V30 9845 N 936.702 4.40662 -1.42727 0
M  V30 9846 C 937.437 5.41858 -1.87557 0
M  V30 9847 N 936.933 6.49787 -2.4031 0
M  V30 9848 N 938.726 5.32992 -1.7854 0
M  V30 9849 H 930.877 1.45798 -1.54457 0
M  V30 9850 H 933.14 0.694785 -0.644964 0
M  V30 9851 H 932.846 2.94332 -1.92513 0
M  V30 9852 H 932.72 3.75345 -0.373677 0
M  V30 9853 H 935.107 2.94423 0.19984 0
M  V30 9854 H 935.188 2.15327 -1.38087 0
M  V30 9855 H 934.832 4.41714 -2.50701 0
M  V30 9856 H 934.762 5.18809 -0.902479 0
M  V30 9857 H 937.253 3.63263 -1.04155 0
M  V30 9858 H 937.566 7.23199 -2.72403 0
M  V30 9859 H 935.911 6.50637 -2.44329 0
M  V30 9860 H 939.102 4.47575 -1.37093 0
M  V30 9861 H 939.275 6.11716 -2.13794 0
M  V30 9862 N 932.681 0.308908 1.54543 0
M  V30 9863 C 933.614 -0.605854 2.20011 0
M  V30 9864 C 934.592 -1.1269 1.17216 0
M  V30 9865 O 935.776 -1.19363 1.45893 0
M  V30 9866 C 932.903 -1.82977 2.85021 0
M  V30 9867 C 931.949 -1.44126 4.0141 0
M  V30 9868 S 932.782 -0.490445 5.33249 0
M  V30 9869 C 933.938 -1.72198 6.01746 0
M  V30 9870 H 934.171 -0.0496911 2.97258 0
M  V30 9871 H 931.704 0.0930238 1.5412 0
M  V30 9872 H 933.662 -2.53211 3.23102 0
M  V30 9873 H 932.323 -2.35711 2.07604 0
M  V30 9874 H 931.516 -2.35288 4.45708 0
M  V30 9875 H 931.118 -0.818788 3.64927 0
M  V30 9876 H 933.41 -2.66147 6.23034 0
M  V30 9877 H 934.353 -1.32142 6.95661 0
M  V30 9878 H 934.761 -1.90229 5.31482 0
M  V30 9879 N 934.159 -1.57557 0.0367827 0
M  V30 9880 C 935.069 -2.14148 -0.958017 0
M  V30 9881 C 936.085 -1.09564 -1.35173 0
M  V30 9882 O 937.261 -1.4166 -1.43158 0
M  V30 9883 C 934.326 -2.6636 -2.21931 0
M  V30 9884 C 933.387 -3.85688 -1.8853 0
M  V30 9885 C 932.62 -4.35401 -3.08645 0
M  V30 9886 O 932.843 -3.8425 -4.21554 0
M  V30 9887 O 931.777 -5.27158 -2.90497 0
M  V30 9888 H 935.603 -2.99442 -0.506797 0
M  V30 9889 H 933.188 -1.48259 -0.184275 0
M  V30 9890 H 935.07 -2.99976 -2.9596 0
M  V30 9891 H 933.745 -1.84145 -2.66219 0
M  V30 9892 H 932.652 -3.56985 -1.11861 0
M  V30 9893 H 933.985 -4.69089 -1.49052 0
M  V30 9894 N 935.637 0.236453 -1.55816 0
M  V30 9895 C 936.914 0.986463 -1.68903 0
M  V30 9896 C 937.294 2.02984 -0.579722 0
M  V30 9897 O 936.642 2.24693 0.415389 0
M  V30 9898 C 936.852 1.61038 -3.09625 0
M  V30 9899 C 938.2 2.10829 -3.6856 0
M  V30 9900 O 939.224 1.7096 -3.12492 0
M  V30 9901 O 938.083 2.84064 -4.66873 0
M  V30 9902 H 935.177 0.459837 -0.687371 0
M  V30 9903 H 937.723 0.229412 -1.68142 0
M  V30 9904 H 936.495 0.856232 -3.81817 0
M  V30 9905 H 936.118 2.43336 -3.14441 0
M  V30 9906 N 937.115 1.49373 0.502552 0
M  V30 9907 C 938.364 1.58028 1.25339 0
M  V30 9908 C 938.677 0.271494 1.93707 0
M  V30 9909 O 939.883 0.236584 2.70467 0
M  V30 9910 C 938.339 2.78817 2.27572 0
M  V30 9911 C 937.947 4.16448 1.65151 0
M  V30 9912 C 939.691 2.96802 3.03494 0
M  V30 9913 C 937.598 5.28461 2.65486 0
M  V30 9914 H 936.528 0.588396 0.471494 0
M  V30 9915 H 939.179 1.75756 0.52744 0
M  V30 9916 H 937.561 2.5458 3.03323 0
M  V30 9917 H 938.735 4.50816 0.954029 0
M  V30 9918 H 937.05 4.03809 1.01625 0
M  V30 9919 H 939.647 3.77656 3.78524 0
M  V30 9920 H 939.99 2.07303 3.61014 0
M  V30 9921 H 940.523 3.21071 2.34858 0
M  V30 9922 H 937.262 6.20015 2.12749 0
M  V30 9923 H 936.782 4.9855 3.33479 0
M  V30 9924 H 938.461 5.5773 3.27943 0
M  V30 9925 N 938.594 -0.753485 1.38421 0
M  V30 9926 C 939.541 -1.86723 1.35659 0
M  V30 9927 C 940.511 -1.64648 0.219121 0
M  V30 9928 O 941.696 -1.86313 0.411366 0
M  V30 9929 C 938.836 -3.24023 1.18758 0
M  V30 9930 C 937.949 -3.57928 2.41892 0
M  V30 9931 C 937.084 -4.84532 2.17721 0
M  V30 9932 C 936.123 -5.11224 3.36626 0
M  V30 9933 N 935.26 -6.29023 3.11889 0
M  V30 9934 H 940.1 -1.88419 2.30873 0
M  V30 9935 H 937.637 -0.920934 1.14705 0
M  V30 9936 H 939.595 -4.03252 1.06974 0
M  V30 9937 H 938.225 -3.21654 0.27182 0
M  V30 9938 H 937.277 -2.73541 2.64347 0
M  V30 9939 H 938.589 -3.73581 3.30513 0
M  V30 9940 H 937.743 -5.71704 2.03074 0
M  V30 9941 H 936.482 -4.71018 1.26465 0
M  V30 9942 H 935.487 -4.2252 3.51791 0
M  V30 9943 H 936.712 -5.26635 4.28757 0
M  V30 9944 H 934.658 -6.16832 2.2328 0
M  V30 9945 H 934.575 -6.45177 3.9406 0
M  V30 9946 H 935.843 -7.19083 3.00898 0
M  V30 9947 N 940.072 -1.23292 -0.981677 0
M  V30 9948 C 941.321 -1.05832 -1.71705 0
M  V30 9949 C 941.634 0.40514 -1.91358 0
M  V30 9950 O 942.84 0.699645 -2.6233 0
M  V30 9951 C 941.296 -1.84532 -3.08992 0
M  V30 9952 C 940.904 -3.35199 -2.9723 0
M  V30 9953 C 942.648 -1.75557 -3.86497 0
M  V30 9954 C 940.555 -4.06296 -4.29741 0
M  V30 9955 H 939.485 -0.39241 -0.64384 0
M  V30 9956 H 942.136 -1.47247 -1.09502 0
M  V30 9957 H 940.518 -1.35923 -3.71942 0
M  V30 9958 H 941.692 -3.91286 -2.43377 0
M  V30 9959 H 940.007 -3.44973 -2.332 0
M  V30 9960 H 942.604 -2.25989 -4.84596 0
M  V30 9961 H 942.947 -0.718101 -4.1006 0
M  V30 9962 H 943.48 -2.21771 -3.30246 0
M  V30 9963 H 940.219 -5.10344 -4.11375 0
M  V30 9964 H 939.739 -3.54997 -4.83464 0
M  V30 9965 H 941.418 -4.12519 -4.98434 0
M  V30 9966 N 941.55 1.18024 -1.04442 0
M  V30 9967 C 942.48 2.23988 -0.659683 0
M  V30 9968 C 943.461 1.6669 0.338904 0
M  V30 9969 O 944.646 1.92971 0.21817 0
M  V30 9970 C 941.776 3.4729 -0.0257672 0
M  V30 9971 C 940.73 4.17362 -0.948299 0
M  V30 9972 C 940.056 5.34401 -0.17866 0
M  V30 9973 C 941.356 4.70435 -2.26909 0
M  V30 9974 H 943.05 2.56425 -1.54553 0
M  V30 9975 H 940.596 1.23256 -0.744575 0
M  V30 9976 H 942.549 4.20627 0.255131 0
M  V30 9977 H 941.273 3.14098 0.894981 0
M  V30 9978 H 939.932 3.45928 -1.21364 0
M  V30 9979 H 939.58 4.97458 0.744614 0
M  V30 9980 H 939.28 5.8222 -0.793294 0
M  V30 9981 H 940.804 6.10526 0.0951315 0
M  V30 9982 H 942.218 5.35447 -2.04864 0
M  V30 9983 H 940.615 5.28803 -2.83703 0
M  V30 9984 H 941.685 3.87653 -2.91296 0
M  V30 9985 N 943.028 0.824394 1.34319 0
M  V30 9986 C 944.277 0.40956 1.97498 0
M  V30 9987 C 944.59 -1.03323 1.66083 0
M  V30 9988 O 945.796 -1.55205 2.22764 0
M  V30 9989 C 944.252 0.681384 3.53391 0
M  V30 9990 C 943.86 2.1379 3.93698 0
M  V30 9991 C 945.604 0.332788 4.23194 0
M  V30 9992 C 943.511 2.35453 5.42509 0
M  V30 9993 H 942.441 0.149409 0.739049 0
M  V30 9994 H 945.092 1.01095 1.5314 0
M  V30 9995 H 943.474 0.00980375 3.95999 0
M  V30 9996 H 944.648 2.84876 3.62191 0
M  V30 9997 H 942.963 2.44807 3.36836 0
M  V30 9998 H 945.56 0.472463 5.32609 0
M  V30 9999 H 945.903 -0.722862 4.09976 0
M  V30 10000 H 946.436 0.959005 3.86067 0
M  V30 10001 H 943.175 3.39529 5.60714 0
M  V30 10002 H 942.695 1.68912 5.75525 0
M  V30 10003 H 944.374 2.17885 6.09209 0
M  V30 10004 N 944.506 -1.46559 0.579492 0
M  V30 10005 C 945.469 -2.28739 -0.145371 0
M  V30 10006 C 946.469 -1.38211 -0.821854 0
M  V30 10007 O 947.659 -1.6062 -0.674302 0
M  V30 10008 C 944.791 -3.18507 -1.21515 0
M  V30 10009 H 945.984 -2.94301 0.576786 0
M  V30 10010 H 943.537 -1.52616 0.337327 0
M  V30 10011 H 944.272 -2.57685 -1.96899 0
M  V30 10012 H 944.057 -3.85157 -0.734616 0
M  V30 10013 H 945.547 -3.80369 -1.72363 0
M  V30 10014 N 945.984 -0.3171 -1.54377 0
M  V30 10015 C 947.209 0.292311 -2.0533 0
M  V30 10016 C 947.634 1.45503 -1.19207 0
M  V30 10017 O 946.992 1.80197 -0.199721 0
M  V30 10018 C 947.04 0.710787 -3.53525 0
M  V30 10019 O 946.144 1.81387 -3.70368 0
M  V30 10020 H 945.485 0.0539976 -0.661801 0
M  V30 10021 H 948.015 -0.463629 -1.99278 0
M  V30 10022 H 948.025 0.995216 -3.95676 0
M  V30 10023 H 946.7 -0.139668 -4.15665 0
M  V30 10024 H 945.277 1.52875 -3.40123 0
M  V30 10025 N 947.462 1.57535 -0.0451378 0
M  V30 10026 C 948.873 1.80116 0.491426 0
M  V30 10027 C 949.224 0.956846 1.71286 0
M  V30 10028 O 948.349 0.17173 2.15718 0
M  V30 10029 C 948.944 3.26674 0.898315 0
M  V30 10030 C 947.503 3.50194 1.37989 0
M  V30 10031 C 946.65 2.75054 0.352202 0
M  V30 10032 H 949.601 1.56368 -0.271065 0
M  V30 10033 H 949.622 3.37263 1.76164 0
M  V30 10034 H 949.134 3.88099 0.009141 0
M  V30 10035 H 947.235 2.94041 2.28846 0
M  V30 10036 H 947.348 4.58909 1.37622 0
M  V30 10037 H 945.712 2.4101 0.823784 0
M  V30 10038 H 946.495 3.39203 -0.528782 0
M  V30 10039 N 948.94 -0.228186 1.55939 0
M  V30 10040 C 950.165 -0.974795 1.83064 0
M  V30 10041 C 950.59 -1.77426 0.624624 0
M  V30 10042 O 949.948 -1.76211 -0.426556 0
M  V30 10043 C 949.996 -1.87342 3.08116 0
M  V30 10044 O 949.1 -2.96784 2.86344 0
M  V30 10045 H 948.441 -0.276379 0.603747 0
M  V30 10046 H 950.971 -0.243507 2.03146 0
M  V30 10047 H 950.981 -2.28451 3.38045 0
M  V30 10048 H 949.656 -1.28575 3.95526 0
M  V30 10049 H 948.233 -2.59669 2.67631 0
M  V30 10050 N 950.418 -1.49637 -0.494624 0
M  V30 10051 C 951.829 -1.52573 -1.07603 0
M  V30 10052 C 952.18 -0.315591 -1.93645 0
M  V30 10053 O 951.305 0.573966 -2.08649 0
M  V30 10054 C 951.9 -2.7648 -1.95817 0
M  V30 10055 C 950.459 -2.82173 -2.49109 0
M  V30 10056 C 949.606 -2.4657 -1.2688 0
M  V30 10057 H 952.557 -1.56242 -0.278251 0
M  V30 10058 H 952.578 -2.57003 -2.80588 0
M  V30 10059 H 952.09 -3.64538 -1.33167 0
M  V30 10060 H 950.191 -1.9841 -3.15379 0
M  V30 10061 H 950.304 -3.84501 -2.85825 0
M  V30 10062 H 948.668 -1.98489 -1.59607 0
M  V30 10063 H 949.451 -3.3691 -0.659281 0
M  V30 10064 N 951.896 0.746133 -1.38819 0
M  V30 10065 C 953.124 1.53539 -1.38685 0
M  V30 10066 C 953.539 1.88788 0.0215039 0
M  V30 10067 O 952.896 1.53312 0.990031 0
M  V30 10068 C 952.947 2.8299 -2.24942 0
M  V30 10069 O 952.668 2.49242 -3.60292 0
M  V30 10070 C 954.169 3.77085 -2.3307 0
M  V30 10071 H 951.389 0.474842 -0.474095 0
M  V30 10072 H 953.933 0.922844 -1.82493 0
M  V30 10073 H 952.088 3.40603 -1.84576 0
M  V30 10074 H 952.502 3.32319 -4.05789 0
M  V30 10075 H 953.976 4.64845 -2.97696 0
M  V30 10076 H 954.453 4.18049 -1.34655 0
M  V30 10077 H 955.059 3.25394 -2.73859 0
M  V30 10078 N 953.375 1.23811 0.975125 0
M  V30 10079 C 954.325 0.991036 2.05335 0
M  V30 10080 C 955.309 -0.0648793 1.60769 0
M  V30 10081 O 956.501 0.147917 1.76381 0
M  V30 10082 C 953.63 0.589822 3.38195 0
M  V30 10083 C 952.716 1.68142 3.89344 0
M  V30 10084 N 953.107 2.91274 4.13513 0
M  V30 10085 C 951.405 1.55722 4.17931 0
M  V30 10086 C 952.106 3.61987 4.55347 0
M  V30 10087 N 951.082 2.8952 4.60086 0
M  V30 10088 H 954.884 1.92612 2.21986 0
M  V30 10089 H 952.398 1.13827 1.15832 0
M  V30 10090 H 954.395 0.394075 4.15033 0
M  V30 10091 H 953.055 -0.338157 3.22934 0
M  V30 10092 H 954.066 3.27528 4.01181 0
M  V30 10093 H 950.743 0.696732 4.11645 0
M  V30 10094 H 952.133 4.67572 4.8252 0
M  V30 10095 N 954.853 -1.17469 1.05066 0
M  V30 10096 C 956.102 -1.87032 0.755114 0
M  V30 10097 C 956.415 -1.81844 -0.720572 0
M  V30 10098 O 957.621 -2.46866 -1.13002 0
M  V30 10099 C 956.077 -3.35581 1.30052 0
M  V30 10100 C 955.685 -3.49274 2.80556 0
M  V30 10101 C 957.429 -4.1048 1.08196 0
M  V30 10102 C 955.336 -4.91838 3.28404 0
M  V30 10103 H 954.266 -0.70057 0.278779 0
M  V30 10104 H 956.917 -1.32663 1.26779 0
M  V30 10105 H 955.299 -3.89479 0.715667 0
M  V30 10106 H 956.473 -3.05598 3.44886 0
M  V30 10107 H 954.788 -2.87793 3.00939 0
M  V30 10108 H 957.385 -5.15652 1.41447 0
M  V30 10109 H 957.728 -4.16295 0.0196603 0
M  V30 10110 H 958.261 -3.62784 1.63195 0
M  V30 10111 H 955 -4.91196 4.34058 0
M  V30 10112 H 954.52 -5.36189 2.68815 0
M  V30 10113 H 956.199 -5.60602 3.23009 0
M  V30 10114 N 956.331 -0.831506 -1.3388 0
M  V30 10115 C 957.281 -0.231656 -2.2682 0
M  V30 10116 C 958.265 0.609075 -1.48926 0
M  V30 10117 O 959.457 0.462249 -1.70857 0
M  V30 10118 C 956.586 0.59846 -3.38043 0
M  V30 10119 C 955.672 -0.253372 -4.23342 0
M  V30 10120 N 956.063 -1.32854 -4.8804 0
M  V30 10121 C 954.361 -0.0391537 -4.45983 0
M  V30 10122 C 955.062 -1.85069 -5.51475 0
M  V30 10123 N 954.038 -1.15327 -5.31226 0
M  V30 10124 H 957.84 -1.05396 -2.74352 0
M  V30 10125 H 955.354 -0.675195 -1.47699 0
M  V30 10126 H 957.351 1.04443 -4.03605 0
M  V30 10127 H 956.011 1.41882 -2.92061 0
M  V30 10128 H 957.022 -1.71139 -4.88806 0
M  V30 10129 H 953.699 0.748356 -4.10738 0
M  V30 10130 H 955.089 -2.75065 -6.13016 0
M  V30 10131 N 957.809 1.4625 -0.587256 0
M  V30 10132 C 958.756 2.30354 0.143384 0
M  V30 10133 C 959.726 1.40891 0.879716 0
M  V30 10134 O 960.911 1.69837 0.869486 0
M  V30 10135 C 958.051 3.25441 1.14815 0
M  V30 10136 C 957.164 4.30004 0.414792 0
M  V30 10137 C 956.299 5.12214 1.40748 0
M  V30 10138 C 955.338 6.08523 0.660786 0
M  V30 10139 N 954.475 6.83585 1.60176 0
M  V30 10140 H 959.315 2.92304 -0.579866 0
M  V30 10141 H 956.852 1.44055 -0.29777 0
M  V30 10142 H 958.81 3.79018 1.7436 0
M  V30 10143 H 957.44 2.6529 1.83906 0
M  V30 10144 H 956.492 3.79248 -0.295787 0
M  V30 10145 H 957.804 4.98515 -0.168738 0
M  V30 10146 H 956.958 5.70091 2.0756 0
M  V30 10147 H 955.697 4.43675 2.02494 0
M  V30 10148 H 954.702 5.49796 -0.0210864 0
M  V30 10149 H 955.927 6.79083 0.0486551 0
M  V30 10150 H 953.873 6.17752 2.20724 0
M  V30 10151 H 953.79 7.48373 1.07115 0
M  V30 10152 H 955.058 7.46016 2.26009 0
M  V30 10153 N 959.287 0.325282 1.54207 0
M  V30 10154 C 960.197 -0.548778 2.28091 0
M  V30 10155 C 961.213 -1.12772 1.32508 0
M  V30 10156 O 962.389 -1.14732 1.65525 0
M  V30 10157 C 959.454 -1.69284 3.02562 0
M  V30 10158 C 958.515 -1.14553 4.13734 0
M  V30 10159 C 957.748 -2.23506 4.84645 0
M  V30 10160 O 957.971 -3.43884 4.55082 0
M  V30 10161 O 956.905 -1.88828 5.71513 0
M  V30 10162 H 960.731 0.0512974 3.03657 0
M  V30 10163 H 958.316 0.0909159 1.49123 0
M  V30 10164 H 960.198 -2.35887 3.49192 0
M  V30 10165 H 958.873 -2.27906 2.2987 0
M  V30 10166 H 957.78 -0.444532 3.71449 0
M  V30 10167 H 959.113 -0.60441 4.88475 0
M  V30 10168 N 960.765 -1.57509 0.0534917 0
M  V30 10169 C 961.993 -1.97098 -0.629298 0
M  V30 10170 C 962.408 -0.931128 -1.64242 0
M  V30 10171 O 961.765 0.0843866 -1.82305 0
M  V30 10172 C 961.816 -3.36767 -1.31415 0
M  V30 10173 O 961.537 -4.36766 -0.341599 0
M  V30 10174 C 963.038 -3.91127 -2.08649 0
M  V30 10175 H 960.258 -0.648611 -0.171886 0
M  V30 10176 H 962.802 -2.04145 0.120479 0
M  V30 10177 H 960.957 -3.30863 -2.01515 0
M  V30 10178 H 961.371 -5.1788 -0.830715 0
M  V30 10179 H 962.845 -4.91129 -2.51985 0
M  V30 10180 H 963.322 -3.26679 -2.9356 0
M  V30 10181 H 963.928 -4.00376 -1.43456 0
M  V30 10182 N 962.243 0.219913 -1.56058 0
M  V30 10183 C 963.471 0.960915 -1.83232 0
M  V30 10184 C 963.886 1.77878 -0.632828 0
M  V30 10185 O 963.243 1.78093 0.398624 0
M  V30 10186 C 963.294 1.87716 -3.08942 0
M  V30 10187 O 963.015 1.09235 -4.24263 0
M  V30 10188 C 964.516 2.73192 -3.49115 0
M  V30 10189 H 961.736 0.281546 -0.609075 0
M  V30 10190 H 964.28 0.234648 -2.03149 0
M  V30 10191 H 962.435 2.55736 -2.90995 0
M  V30 10192 H 962.849 1.71446 -4.95688 0
M  V30 10193 H 964.323 3.33181 -4.40107 0
M  V30 10194 H 964.8 3.45668 -2.70943 0
M  V30 10195 H 965.406 2.10583 -3.69506 0
M  V30 10196 N 963.721 1.49897 0.486681 0
M  V30 10197 C 964.946 1.64106 1.26823 0
M  V30 10198 C 965.371 0.317967 1.85393 0
M  V30 10199 O 964.729 -0.71626 1.66551 0
M  V30 10200 C 964.777 2.72301 2.36399 0
M  V30 10201 O 963.881 2.32469 3.40634 0
M  V30 10202 H 963.222 0.548794 0.373793 0
M  V30 10203 H 965.752 1.96177 0.581017 0
M  V30 10204 H 965.762 2.94906 2.81948 0
M  V30 10205 H 964.437 3.68335 1.93137 0
M  V30 10206 H 963.014 2.20251 3.00905 0
M  V30 10207 N 965.199 -0.738761 1.39212 0
M  V30 10208 C 966.162 -1.83441 1.37412 0
M  V30 10209 C 967.162 -1.58484 0.271908 0
M  V30 10210 O 968.352 -1.65954 0.529609 0
M  V30 10211 C 965.484 -3.21167 1.143 0
M  V30 10212 H 966.677 -1.86441 2.34904 0
M  V30 10213 H 964.23 -0.942023 1.24722 0
M  V30 10214 H 964.965 -3.23829 0.174756 0
M  V30 10215 H 964.75 -3.40678 1.94116 0
M  V30 10216 H 966.24 -4.01231 1.15773 0
M  V30 10217 N 966.677 -1.24326 -0.968545 0
M  V30 10218 C 967.905 -1.10947 -1.74638 0
M  V30 10219 C 968.32 0.338064 -1.85749 0
M  V30 10220 O 967.677 1.23331 -1.3452 0
M  V30 10221 C 967.728 -1.74254 -3.1673 0
M  V30 10222 O 967.449 -3.13347 -3.06178 0
M  V30 10223 C 968.95 -1.66473 -4.10855 0
M  V30 10224 H 966.17 -0.38767 -0.547679 0
M  V30 10225 H 968.714 -1.64415 -1.21605 0
M  V30 10226 H 966.869 -1.2479 -3.66751 0
M  V30 10227 H 967.283 -3.44255 -3.95713 0
M  V30 10228 H 968.757 -2.15452 -5.08217 0
M  V30 10229 H 969.234 -0.625785 -4.34719 0
M  V30 10230 H 969.84 -2.15359 -3.66743 0
M  V30 10231 N 968.156 1.1691 -1.05688 0
M  V30 10232 C 969.381 1.91745 -0.790478 0
M  V30 10233 C 969.806 1.76568 0.648478 0
M  V30 10234 O 969.164 1.08682 1.45114 0
M  V30 10235 C 969.212 3.4067 -1.18222 0
M  V30 10236 O 968.316 4.11177 -0.317341 0
M  V30 10237 H 967.657 0.5976 -0.28943 0
M  V30 10238 H 970.187 1.48157 -1.41105 0
M  V30 10239 H 970.197 3.91424 -1.15114 0
M  V30 10240 H 968.872 3.51036 -2.2304 0
M  V30 10241 H 967.449 3.70645 -0.409459 0
M  V30 10242 N 969.634 0.838594 1.33437 0
M  V30 10243 C 970.859 0.446701 2.02532 0
M  V30 10244 C 971.284 -0.944275 1.62681 0
M  V30 10245 O 970.642 -1.61733 0.81927 0
M  V30 10246 C 970.69 0.574794 3.55989 0
M  V30 10247 O 969.794 -0.399063 4.10465 0
M  V30 10248 H 969.135 0.181637 0.638674 0
M  V30 10249 H 971.665 1.13335 1.70342 0
M  V30 10250 H 971.675 0.456339 4.0544 0
M  V30 10251 H 970.35 1.58921 3.8434 0
M  V30 10252 H 968.927 -0.238187 3.72139 0
M  V30 10253 N 971.112 -1.45937 0.595003 0
M  V30 10254 C 972.523 -1.85908 0.171779 0
M  V30 10255 C 972.874 -1.497 -1.26824 0
M  V30 10256 O 971.999 -0.917688 -1.95978 0
M  V30 10257 C 972.594 -3.37425 0.304976 0
M  V30 10258 C 971.153 -3.76346 -0.0634635 0
M  V30 10259 C 970.3 -2.69926 0.635255 0
M  V30 10260 H 973.251 -1.36916 0.802471 0
M  V30 10261 H 973.272 -3.77632 -0.466313 0
M  V30 10262 H 972.784 -3.63747 1.35314 0
M  V30 10263 H 970.885 -3.55642 -1.11129 0
M  V30 10264 H 970.998 -4.78021 0.321419 0
M  V30 10265 H 969.362 -2.54592 0.0742054 0
M  V30 10266 H 970.145 -2.99086 1.68531 0
M  V30 10267 N 972.59 -0.333456 -1.54032 0
M  V30 10268 C 973.82 0.267425 -2.04862 0
M  V30 10269 C 974.228 1.45559 -1.20869 0
M  V30 10270 O 973.571 1.82197 -0.234478 0
M  V30 10271 C 973.633 0.755759 -3.51466 0
M  V30 10272 C 973.297 -0.311409 -4.55938 0
M  V30 10273 C 974.294 -1.15078 -5.07004 0
M  V30 10274 C 971.979 -0.462439 -5.00167 0
M  V30 10275 C 973.973 -2.12682 -6.0087 0
M  V30 10276 C 971.66 -1.44188 -5.93846 0
M  V30 10277 C 972.658 -2.27253 -6.44085 0
M  V30 10278 O 972.346 -3.23532 -7.35923 0
M  V30 10279 H 972.078 0.0572596 -0.673571 0
M  V30 10280 H 974.632 -0.480646 -1.99697 0
M  V30 10281 H 972.862 1.55491 -3.54062 0
M  V30 10282 H 974.551 1.27607 -3.8532 0
M  V30 10283 H 975.317 -1.04513 -4.73605 0
M  V30 10284 H 971.196 0.17424 -4.60671 0
M  V30 10285 H 974.74 -2.77555 -6.40007 0
M  V30 10286 H 970.637 -1.54813 -6.2666 0
M  V30 10287 H 971.405 -3.18886 -7.53826 0
M  V30 10288 N 974.068 1.57479 -0.061844 0
M  V30 10289 C 975.484 1.56855 0.294753 0
M  V30 10290 C 975.684 1.07042 1.70717 0
M  V30 10291 O 974.74 0.731817 2.41662 0
M  V30 10292 C 976.053 3.00486 0.113484 0
M  V30 10293 C 977.601 3.1246 0.183778 0
M  V30 10294 C 978.076 4.5799 0.0309092 0
M  V30 10295 N 979.567 4.63119 0.0868393 0
M  V30 10296 C 980.302 5.734 -0.00717446 0
M  V30 10297 N 979.798 6.92628 -0.154144 0
M  V30 10298 N 981.591 5.62078 0.0491763 0
M  V30 10299 H 973.742 1.88176 -0.985058 0
M  V30 10300 H 976.005 0.867051 -0.383309 0
M  V30 10301 H 975.711 3.41004 -0.86075 0
M  V30 10302 H 975.585 3.67029 0.870023 0
M  V30 10303 H 977.972 2.71834 1.14849 0
M  V30 10304 H 978.053 2.48574 -0.603697 0
M  V30 10305 H 977.697 4.99303 -0.930526 0
M  V30 10306 H 977.627 5.19895 0.837664 0
M  V30 10307 H 980.118 3.77374 0.199245 0
M  V30 10308 H 980.431 7.72492 -0.218296 0
M  V30 10309 H 978.776 6.94742 -0.189372 0
M  V30 10310 H 981.967 4.67817 0.162626 0
M  V30 10311 H 982.14 6.47994 -0.0275478 0
M  V30 10312 N 975.546 -0.211634 1.56173 0
M  V30 10313 C 976.823 -0.959467 1.70451 0
M  V30 10314 C 977.203 -2.02036 0.611942 0
M  V30 10315 O 976.551 -2.25325 -0.37959 0
M  V30 10316 C 976.761 -1.56092 3.12148 0
M  V30 10317 C 978.109 -2.04939 3.71867 0
M  V30 10318 O 979.133 -1.65966 3.15172 0
M  V30 10319 O 977.992 -2.766 4.71333 0
M  V30 10320 H 975.086 -0.448844 0.6946 0
M  V30 10321 H 977.632 -0.202633 1.68486 0
M  V30 10322 H 976.404 -0.79538 3.83131 0
M  V30 10323 H 976.027 -2.38303 3.18273 0
M  V30 10324 N 977.024 -1.50153 -0.478725 0
M  V30 10325 C 978.252 -1.64505 -1.25482 0
M  V30 10326 C 978.667 -0.325295 -1.85977 0
M  V30 10327 O 978.024 0.691885 -1.68876 0
M  V30 10328 C 978.075 -2.73052 -2.36906 0
M  V30 10329 O 977.796 -3.99911 -1.78894 0
M  V30 10330 C 979.297 -2.98309 -3.27912 0
M  V30 10331 H 976.517 -0.55318 -0.379781 0
M  V30 10332 H 979.061 -1.96329 -0.57229 0
M  V30 10333 H 977.216 -2.43944 -3.00949 0
M  V30 10334 H 977.63 -4.5988 -2.52211 0
M  V30 10335 H 979.104 -3.77942 -4.02323 0
M  V30 10336 H 979.581 -2.09082 -3.8624 0
M  V30 10337 H 980.187 -3.2892 -2.69614 0
M  V30 10338 N 978.502 0.731368 -1.39602 0
M  V30 10339 C 979.434 1.85575 -1.34516 0
M  V30 10340 C 980.447 1.60818 -0.253287 0
M  V30 10341 O 981.636 1.70984 -0.512505 0
M  V30 10342 C 978.736 3.21673 -1.06676 0
M  V30 10343 C 977.909 3.73757 -2.27211 0
M  V30 10344 C 976.968 4.88426 -1.95773 0
M  V30 10345 O 975.994 5.01898 -2.68491 0
M  V30 10346 N 977.196 5.73065 -0.926083 0
M  V30 10347 H 979.961 1.90442 -2.31413 0
M  V30 10348 H 977.522 0.912258 -1.33752 0
M  V30 10349 H 979.514 3.95959 -0.836577 0
M  V30 10350 H 978.084 3.12052 -0.185003 0
M  V30 10351 H 977.304 2.90781 -2.66158 0
M  V30 10352 H 978.592 4.05289 -3.07601 0
M  V30 10353 H 977.99 5.64774 -0.323497 0
M  V30 10354 H 976.547 6.47403 -0.755795 0
M  V30 10355 N 979.98 1.24838 0.961938 0
M  V30 10356 C 981.205 1.11967 1.7458 0
M  V30 10357 C 981.63 -0.323287 1.85301 0
M  V30 10358 O 980.988 -1.23412 1.32812 0
M  V30 10359 C 981.036 1.77066 3.14134 0
M  V30 10360 O 980.14 1.04534 3.98932 0
M  V30 10361 H 979.481 0.391338 0.536424 0
M  V30 10362 H 982.011 1.65259 1.20626 0
M  V30 10363 H 982.021 1.83056 3.64629 0
M  V30 10364 H 980.696 2.82052 3.05646 0
M  V30 10365 H 979.273 1.06372 3.57407 0
M  V30 10366 N 981.458 -1.16348 1.06306 0
M  V30 10367 C 982.874 -1.38873 0.786543 0
M  V30 10368 C 983.074 -1.91915 -0.614061 0
M  V30 10369 O 982.13 -2.11804 -1.3746 0
M  V30 10370 C 983.443 -2.36936 1.85154 0
M  V30 10371 C 984.991 -2.5062 1.87506 0
M  V30 10372 C 985.466 -3.51965 2.9306 0
M  V30 10373 N 986.957 -3.59492 2.92095 0
M  V30 10374 C 987.692 -4.37699 3.70415 0
M  V30 10375 N 987.188 -5.19327 4.58553 0
M  V30 10376 N 988.981 -4.32683 3.58806 0
M  V30 10377 H 981.132 -0.802542 1.96655 0
M  V30 10378 H 983.395 -0.415304 0.852189 0
M  V30 10379 H 983.101 -2.05056 2.85736 0
M  V30 10380 H 982.975 -3.36585 1.70267 0
M  V30 10381 H 985.362 -2.81804 0.875827 0
M  V30 10382 H 985.443 -1.51006 2.06472 0
M  V30 10383 H 985.087 -3.21518 3.93177 0
M  V30 10384 H 985.017 -4.51309 2.71344 0
M  V30 10385 H 987.508 -3.01222 2.28197 0
M  V30 10386 H 987.821 -5.76216 5.1497 0
M  V30 10387 H 986.166 -5.1867 4.62608 0
M  V30 10388 H 989.357 -3.67971 2.89335 0
M  V30 10389 H 989.53 -4.93386 4.20088 0
M  V30 10390 N 982.937 -0.845659 -1.3299 0
M  V30 10391 C 984.165 -0.45835 -2.01759 0
M  V30 10392 C 984.58 0.94239 -1.63598 0
M  V30 10393 O 983.937 1.61353 -0.852738 0
M  V30 10394 C 983.988 -0.577311 -3.5686 0
M  V30 10395 O 983.709 -1.92287 -3.93646 0
M  V30 10396 C 985.21 -0.187839 -4.42902 0
M  V30 10397 H 982.43 -0.181165 -0.646081 0
M  V30 10398 H 984.974 -1.14011 -1.6977 0
M  V30 10399 H 983.129 0.0566146 -3.87359 0
M  V30 10400 H 983.543 -1.91322 -4.88361 0
M  V30 10401 H 985.017 -0.322105 -5.51059 0
M  V30 10402 H 985.494 0.870896 -4.30479 0
M  V30 10403 H 986.1 -0.796473 -4.17776 0
M  V30 10404 N 984.415 1.45619 -0.602734 0
M  V30 10405 C 985.378 2.28941 0.108962 0
M  V30 10406 C 986.378 1.39501 0.799762 0
M  V30 10407 O 987.568 1.61673 0.648663 0
M  V30 10408 C 984.7 3.204 1.16432 0
M  V30 10409 H 985.893 2.93346 -0.623534 0
M  V30 10410 H 983.446 1.52061 -0.361565 0
M  V30 10411 H 984.181 2.60785 1.92774 0
M  V30 10412 H 983.966 3.86277 0.673248 0
M  V30 10413 H 985.456 3.83063 1.6629 0
M  V30 10414 N 985.893 0.34162 1.53853 0
M  V30 10415 C 987.118 -0.259608 2.05769 0
M  V30 10416 C 987.543 -1.43588 1.21507 0
M  V30 10417 O 986.901 -1.79856 0.228364 0
M  V30 10418 C 986.949 -0.654455 3.54611 0
M  V30 10419 O 986.053 -1.75472 3.73207 0
M  V30 10420 H 985.394 -0.0434621 0.662576 0
M  V30 10421 H 987.924 0.495274 1.98515 0
M  V30 10422 H 987.934 -0.932142 3.97209 0
M  V30 10423 H 986.609 0.205779 4.15391 0
M  V30 10424 H 985.186 -1.47444 3.42512 0
M  V30 10425 N 987.371 -1.57444 0.0701946 0
M  V30 10426 C 988.782 -1.80875 -0.462709 0
M  V30 10427 C 989.133 -0.983975 -1.69742 0
M  V30 10428 O 988.258 -0.206027 -2.15417 0
M  V30 10429 C 988.853 -3.28062 -0.84623 0
M  V30 10430 C 987.412 -3.52345 -1.32401 0
M  V30 10431 C 986.559 -2.7558 -0.308399 0
M  V30 10432 H 989.51 -1.55917 0.295907 0
M  V30 10433 H 989.531 -3.40023 -1.70776 0
M  V30 10434 H 989.043 -3.88064 0.0526033 0
M  V30 10435 H 987.144 -2.97645 -2.24139 0
M  V30 10436 H 987.257 -4.6104 -1.30304 0
M  V30 10437 H 985.621 -2.4229 -0.785337 0
M  V30 10438 H 986.404 -3.38319 0.582679 0
M  V30 10439 N 988.849 0.203349 -1.56283 0
M  V30 10440 C 989.797 1.27157 -1.94766 0
M  V30 10441 C 990.791 1.4756 -0.832005 0
M  V30 10442 O 991.997 1.48519 -1.01696 0
M  V30 10443 H 988.372 0.426712 -0.61921 0
M  V30 10444 H 990.343 0.919921 -2.83866 0
M  V30 10445 C 989.092 2.6108 -2.29636 0
M  V30 10446 H 988.415 2.46193 -3.15006 0
M  V30 10447 H 989.855 3.34591 -2.60433 0
M  V30 10448 C 988.314 3.17456 -1.12799 0
M  V30 10449 O 988.844 3.99717 -0.398661 0
M  V30 10450 N 987.05 2.76084 -0.906975 0
M  V30 10451 H 986.597 2.09294 -1.50179 0
M  V30 10452 H 986.555 3.14143 -0.127005 0
M  V30 10453 N 990.327 1.50405 0.470755 0
M  V30 10454 C 991.743 1.37838 0.804534 0
M  V30 10455 C 991.943 0.434743 1.96754 0
M  V30 10456 O 990.999 -0.122507 2.52203 0
M  V30 10457 C 992.312 2.79212 1.11629 0
M  V30 10458 C 993.86 2.88129 1.22272 0
M  V30 10459 C 994.335 4.30337 1.5676 0
M  V30 10460 N 995.826 4.3329 1.63751 0
M  V30 10461 C 996.561 5.4032 1.91942 0
M  V30 10462 N 996.057 6.57558 2.18151 0
M  V30 10463 N 997.85 5.27764 1.93446 0
M  V30 10464 H 990.001 2.10332 -0.295689 0
M  V30 10465 H 992.264 0.945429 -0.0697733 0
M  V30 10466 H 991.97 3.50103 0.334778 0
M  V30 10467 H 991.844 3.16475 2.0524 0
M  V30 10468 H 994.231 2.17457 1.9949 0
M  V30 10469 H 994.312 2.54409 0.2664 0
M  V30 10470 H 993.956 5.01547 0.800817 0
M  V30 10471 H 993.886 4.61545 2.53543 0
M  V30 10472 H 996.377 3.48752 1.45535 0
M  V30 10473 H 996.69 7.34935 2.38936 0
M  V30 10474 H 995.035 6.60732 2.15542 0
M  V30 10475 H 998.226 4.35169 1.72468 0
M  V30 10476 H 998.399 6.11264 2.15081 0
M  V30 10477 N 991.805 -0.723954 1.39988 0
M  V30 10478 C 992.768 -1.81973 1.3935 0
M  V30 10479 C 993.768 -1.58187 0.288702 0
M  V30 10480 O 994.958 -1.65383 0.547181 0
M  V30 10481 C 992.09 -3.19937 1.177 0
M  V30 10482 H 993.283 -1.83939 2.36868 0
M  V30 10483 H 990.836 -0.928742 1.25714 0
M  V30 10484 H 991.571 -3.23625 0.209093 0
M  V30 10485 H 991.356 -3.386 1.97719 0
M  V30 10486 H 992.846 -3.99981 1.20022 0
M  V30 10487 N 993.283 -1.25346 -0.955304 0
M  V30 10488 C 994.531 -1.09837 -1.69647 0
M  V30 10489 C 994.852 0.361425 -1.91621 0
M  V30 10490 O 994.122 1.25666 -1.50283 0
M  V30 10491 H 992.702 -0.403467 -0.628668 0
M  V30 10492 H 995.364 -1.57459 -1.14859 0
M  V30 10493 H 994.46 -1.60616 -2.67598 0
M  V30 10494 N 994.761 1.15782 -1.06922 0
M  V30 10495 C 995.708 2.2038 -0.685659 0
M  V30 10496 C 996.678 1.62972 0.320816 0
M  V30 10497 O 997.863 1.8966 0.208258 0
M  V30 10498 C 995.003 3.44995 -0.084998 0
M  V30 10499 C 994.116 4.16621 -1.14242 0
M  V30 10500 C 993.251 5.28773 -0.507226 0
M  V30 10501 C 992.29 5.92209 -1.54774 0
M  V30 10502 N 991.427 6.9584 -0.935443 0
M  V30 10503 H 996.267 2.5254 -1.58201 0
M  V30 10504 H 993.804 1.24031 -0.790864 0
M  V30 10505 H 995.762 4.16254 0.280845 0
M  V30 10506 H 994.392 3.13365 0.774725 0
M  V30 10507 H 993.444 3.43903 -1.62589 0
M  V30 10508 H 994.756 4.59884 -1.93154 0
M  V30 10509 H 993.91 6.06635 -0.0887719 0
M  V30 10510 H 992.649 4.8669 0.313704 0
M  V30 10511 H 991.654 5.13063 -1.97602 0
M  V30 10512 H 992.879 6.3637 -2.37088 0
M  V30 10513 H 990.825 6.5586 -0.135339 0
M  V30 10514 H 990.742 7.37508 -1.66186 0
M  V30 10515 H 992.01 7.77611 -0.542346 0
M  V30 10516 N 996.239 0.8527 1.3254 0
M  V30 10517 C 997.487 0.454224 1.96929 0
M  V30 10518 C 997.808 -0.993034 1.67821 0
M  V30 10519 O 997.078 -1.69371 0.984393 0
M  V30 10520 H 995.658 0.164977 0.728554 0
M  V30 10521 H 998.32 1.0887 1.61658 0
M  V30 10522 H 997.416 0.597667 3.06324 0
M  V30 10523 N 997.718 -1.45297 0.610449 0
M  V30 10524 C 998.964 -2.02518 0.106917 0
M  V30 10525 C 999.297 -1.47747 -1.26034 0
M  V30 10526 O 998.572 -0.65329 -1.832 0
M  V30 10527 C 998.855 -3.6003 0.0710975 0
M  V30 10528 C 998.708 -4.25128 1.46922 0
M  V30 10529 C 1000.03 -4.35778 -0.61524 0
M  V30 10530 H 997.146 -0.735896 0.040327 0
M  V30 10531 H 999.788 -1.73117 0.782968 0
M  V30 10532 H 997.938 -3.85209 -0.504611 0
M  V30 10533 H 999.61 -4.11125 2.09223 0
M  V30 10534 H 997.853 -3.83418 2.02911 0
M  V30 10535 H 998.524 -5.34046 1.39637 0
M  V30 10536 H 1001 -4.1591 -0.125871 0
M  V30 10537 H 999.876 -5.45506 -0.609419 0
M  V30 10538 H 1000.14 -4.08859 -1.68186 0
M  V30 10539 N 999.196 -0.349774 -1.5367 0
M  V30 10540 C 1000.44 0.245862 -2.00196 0
M  V30 10541 C 1000.76 1.51154 -1.24144 0
M  V30 10542 O 1001.96 2.18481 -1.61178 0
M  V30 10543 C 1000.42 0.488665 -3.56567 0
M  V30 10544 C 1000.03 -0.761475 -4.41481 0
M  V30 10545 C 1001.77 1.04282 -4.11492 0
M  V30 10546 C 999.679 -0.489128 -5.89374 0
M  V30 10547 H 998.609 0.0956493 -0.747909 0
M  V30 10548 H 1001.26 -0.466068 -1.77483 0
M  V30 10549 H 999.642 1.26145 -3.75371 0
M  V30 10550 H 1000.82 -1.53585 -4.34452 0
M  V30 10551 H 999.131 -1.23771 -3.9758 0
M  V30 10552 H 1001.73 1.26164 -5.19603 0
M  V30 10553 H 1002.07 2.00023 -3.65098 0
M  V30 10554 H 1002.6 0.330582 -3.96424 0
M  V30 10555 H 999.343 -1.41643 -6.40014 0
M  V30 10556 H 998.863 0.247039 -5.99291 0
M  V30 10557 H 1000.54 -0.1087 -6.46909 0
M  V30 10558 N 1000.67 1.57404 -0.0785433 0
M  V30 10559 C 1001.58 2.16612 0.900902 0
M  V30 10560 C 1002.6 1.13109 1.32221 0
M  V30 10561 O 1003.78 1.45406 1.39352 0
M  V30 10562 C 1000.84 2.7215 2.14791 0
M  V30 10563 C 999.902 3.90551 1.78237 0
M  V30 10564 C 999.135 4.43431 2.96993 0
M  V30 10565 O 999.358 3.95292 4.11218 0
M  V30 10566 O 998.292 5.34674 2.76418 0
M  V30 10567 H 1002.12 3.0068 0.427227 0
M  V30 10568 H 999.703 1.48696 0.144902 0
M  V30 10569 H 1001.58 3.07718 2.87902 0
M  V30 10570 H 1000.26 1.91139 2.61243 0
M  V30 10571 H 999.167 3.59825 1.02357 0
M  V30 10572 H 1000.5 4.72876 1.36562 0
M  V30 10573 N 1002.15 -0.195058 1.56388 0
M  V30 10574 C 1003.08 -1.26581 1.91076 0
M  V30 10575 C 1004.1 -1.41707 0.801436 0
M  V30 10576 O 1005.29 -1.42132 1.07985 0
M  V30 10577 C 1002.39 -2.63794 2.12758 0
M  V30 10578 C 1001.56 -2.70275 3.43904 0
M  V30 10579 C 1000.62 -3.88685 3.54698 0
M  V30 10580 O 999.644 -3.75786 4.2752 0
M  V30 10581 N 1000.85 -5.04141 2.87789 0
M  V30 10582 H 1003.61 -0.971401 2.83521 0
M  V30 10583 H 1001.17 -0.384976 1.57256 0
M  V30 10584 H 1003.16 -3.41434 2.17267 0
M  V30 10585 H 1001.73 -2.85723 1.26812 0
M  V30 10586 H 1000.95 -1.78909 3.51262 0
M  V30 10587 H 1002.24 -2.71597 4.30247 0
M  V30 10588 H 1001.64 -5.17519 2.28452 0
M  V30 10589 H 1000.2 -5.79727 2.97925 0
M  V30 10590 N 1003.63 -1.50653 -0.462772 0
M  V30 10591 C 1004.86 -1.65826 -1.23731 0
M  V30 10592 C 1005.27 -0.345002 -1.85621 0
M  V30 10593 O 1004.63 0.673935 -1.69601 0
M  V30 10594 C 1004.68 -2.7555 -2.33997 0
M  V30 10595 O 1004.4 -4.01785 -1.74643 0
M  V30 10596 C 1005.9 -3.0177 -3.2473 0
M  V30 10597 H 1003.12 -0.557177 -0.373892 0
M  V30 10598 H 1005.67 -1.96925 -0.551434 0
M  V30 10599 H 1003.82 -2.47122 -2.98345 0
M  V30 10600 H 1004.24 -4.62529 -2.4732 0
M  V30 10601 H 1005.71 -3.82188 -3.98292 0
M  V30 10602 H 1006.19 -2.13167 -3.84001 0
M  V30 10603 H 1006.79 -3.31761 -2.66111 0
M  V30 10604 N 1005.11 0.71652 -1.4037 0
M  V30 10605 C 1006.02 1.86074 -1.42876 0
M  V30 10606 C 1007.03 1.71005 -0.321475 0
M  V30 10607 O 1008.21 1.93286 -0.565909 0
M  V30 10608 C 1005.28 3.21862 -1.28863 0
M  V30 10609 C 1004.34 3.49193 -2.49726 0
M  V30 10610 C 1003.57 4.78502 -2.36372 0
M  V30 10611 O 1003.79 5.53529 -1.37703 0
M  V30 10612 O 1002.73 5.06147 -3.25728 0
M  V30 10613 H 1006.55 1.86916 -2.39366 0
M  V30 10614 H 1004.14 0.866818 -1.21683 0
M  V30 10615 H 1006.02 4.02972 -1.23253 0
M  V30 10616 H 1004.69 3.2175 -0.354783 0
M  V30 10617 H 1003.6 2.68095 -2.60913 0
M  V30 10618 H 1004.93 3.54101 -3.41868 0
M  V30 10619 N 1006.59 1.25851 0.948643 0
M  V30 10620 C 1007.53 1.06759 2.04625 0
M  V30 10621 C 1008.5 -0.0251144 1.66081 0
M  V30 10622 O 1009.69 0.133221 1.90334 0
M  V30 10623 C 1006.83 0.698724 3.37952 0
M  V30 10624 C 1005.94 1.8669 3.89578 0
M  V30 10625 C 1005.08 1.44184 5.11258 0
M  V30 10626 C 1004.12 2.57878 5.55126 0
M  V30 10627 N 1003.25 2.16106 6.68014 0
M  V30 10628 H 1008.09 2.00691 2.20289 0
M  V30 10629 H 1005.63 0.999327 1.07944 0
M  V30 10630 H 1007.59 0.465788 4.14592 0
M  V30 10631 H 1006.22 -0.203618 3.22157 0
M  V30 10632 H 1005.27 2.21298 3.09405 0
M  V30 10633 H 1006.58 2.72051 4.18079 0
M  V30 10634 H 1005.74 1.16891 5.95333 0
M  V30 10635 H 1004.47 0.559035 4.84485 0
M  V30 10636 H 1003.48 2.85909 4.69612 0
M  V30 10637 H 1004.7 3.46747 5.83904 0
M  V30 10638 H 1002.65 1.3025 6.42939 0
M  V30 10639 H 1002.57 2.95012 6.96063 0
M  V30 10640 H 1003.84 1.92005 7.55483 0
M  V30 10641 N 1008.06 -1.15214 1.07534 0
M  V30 10642 C 1009.29 -1.90463 0.820883 0
M  V30 10643 C 1009.71 -1.77578 -0.620305 0
M  V30 10644 O 1009.07 -1.10976 -1.43366 0
M  V30 10645 C 1009.12 -3.38746 1.23627 0
M  V30 10646 O 1008.22 -4.1062 0.382715 0
M  V30 10647 H 1007.57 -0.59292 0.298901 0
M  V30 10648 H 1010.1 -1.45893 1.43445 0
M  V30 10649 H 1010.11 -3.89543 1.21327 0
M  V30 10650 H 1008.78 -3.47443 2.28596 0
M  V30 10651 H 1007.36 -3.69947 0.468374 0
M  V30 10652 N 1009.54 -0.859717 -1.32086 0
M  V30 10653 C 1010.49 -0.279715 -2.26278 0
M  V30 10654 C 1011.48 0.577348 -1.50185 0
M  V30 10655 O 1012.67 0.425903 -1.71799 0
M  V30 10656 C 1009.8 0.526622 -3.39237 0
M  V30 10657 C 1008.88 -0.343112 -4.2271 0
M  V30 10658 N 1009.27 -1.43176 -4.85113 0
M  V30 10659 C 1007.57 -0.133744 -4.45799 0
M  V30 10660 C 1008.27 -1.96725 -5.47425 0
M  V30 10661 N 1007.25 -1.26569 -5.2866 0
M  V30 10662 H 1011.05 -1.11191 -2.72055 0
M  V30 10663 H 1008.57 -0.706372 -1.46233 0
M  V30 10664 H 1010.56 0.958587 -4.0573 0
M  V30 10665 H 1009.22 1.35655 -2.95005 0
M  V30 10666 H 1010.23 -1.81469 -4.85066 0
M  V30 10667 H 1006.91 0.661064 -4.12233 0
M  V30 10668 H 1008.3 -2.88006 -6.07044 0
M  V30 10669 N 1011.02 1.44971 -0.618145 0
M  V30 10670 C 1012.43 1.85611 -0.201334 0
M  V30 10671 C 1012.78 1.51698 1.24427 0
M  V30 10672 O 1011.91 0.94875 1.94493 0
M  V30 10673 C 1012.5 3.36897 -0.358619 0
M  V30 10674 C 1011.06 3.764 0.00358196 0
M  V30 10675 C 1010.21 2.68881 -0.678118 0
M  V30 10676 H 1013.16 1.35622 -0.824152 0
M  V30 10677 H 1013.18 3.78326 0.406176 0
M  V30 10678 H 1012.69 3.61548 -1.41084 0
M  V30 10679 H 1010.79 3.57365 1.05457 0
M  V30 10680 H 1010.91 4.77449 -0.397427 0
M  V30 10681 H 1009.27 2.54442 -0.114699 0
M  V30 10682 H 1010.05 2.96367 -1.73268 0
M  V30 10683 N 1012.5 0.357919 1.53482 0
M  V30 10684 C 1013.91 0.00655107 1.59599 0
M  V30 10685 C 1014.11 -1.47449 1.37336 0
M  V30 10686 O 1013.17 -2.2351 1.17472 0
M  V30 10687 C 1014.48 0.455617 2.97228 0
M  V30 10688 C 1016.03 0.409183 3.10314 0
M  V30 10689 C 1016.51 0.833941 4.50344 0
M  V30 10690 N 1018 0.788695 4.56436 0
M  V30 10691 C 1018.73 1.08914 5.62961 0
M  V30 10692 N 1018.23 1.45847 6.77274 0
M  V30 10693 N 1020.02 1.01243 5.52907 0
M  V30 10694 H 1012.17 1.32248 1.66206 0
M  V30 10695 H 1014.44 0.540047 0.779136 0
M  V30 10696 H 1014.14 1.48881 3.18634 0
M  V30 10697 H 1014.02 -0.161751 3.76853 0
M  V30 10698 H 1016.4 -0.614863 2.88623 0
M  V30 10699 H 1016.48 1.06195 2.32715 0
M  V30 10700 H 1016.13 1.85607 4.72771 0
M  V30 10701 H 1016.06 0.158507 5.26361 0
M  V30 10702 H 1018.55 0.516497 3.74354 0
M  V30 10703 H 1018.86 1.67218 7.54492 0
M  V30 10704 H 1017.21 1.49705 6.78685 0
M  V30 10705 H 1020.4 0.723137 4.62481 0
M  V30 10706 H 1020.57 1.24991 6.35831 0
M  V30 10707 N 1013.98 -1.5736 0.0868897 0
M  V30 10708 C 1015.2 -1.98809 -0.590757 0
M  V30 10709 C 1015.63 -0.965407 -1.61436 0
M  V30 10710 O 1014.98 0.067143 -1.81176 0
M  V30 10711 C 1015.03 -3.39249 -1.22238 0
M  V30 10712 O 1014.14 -3.39706 -2.33824 0
M  V30 10713 H 1013.48 -0.64669 -0.150626 0
M  V30 10714 H 1016.01 -2.03927 0.165873 0
M  V30 10715 H 1016.02 -3.76765 -1.56564 0
M  V30 10716 H 1014.69 -4.13208 -0.472434 0
M  V30 10717 H 1013.27 -3.13977 -2.01178 0
M  V30 10718 N 1015.45 0.186762 -1.56489 0
M  V30 10719 C 1016.87 0.750675 -1.70944 0
M  V30 10720 C 1017.22 1.83483 -0.694858 0
M  V30 10721 O 1016.34 2.159 0.147009 0
M  V30 10722 C 1016.94 1.36843 -3.09934 0
M  V30 10723 C 1015.5 1.87934 -3.26125 0
M  V30 10724 C 1014.64 0.75242 -2.66897 0
M  V30 10725 H 1017.59 -0.0384292 -1.58653 0
M  V30 10726 H 1017.61 2.23795 -3.07727 0
M  V30 10727 H 1017.13 0.579135 -3.83755 0
M  V30 10728 H 1015.23 2.69556 -2.57235 0
M  V30 10729 H 1015.34 2.0354 -4.33715 0
M  V30 10730 H 1013.7 1.16888 -2.26295 0
M  V30 10731 H 1014.49 -0.0247769 -3.43291 0
M  V30 10732 N 1016.93 1.50896 0.454776 0
M  V30 10733 C 1017.88 1.71497 1.57136 0
M  V30 10734 C 1018.87 0.58098 1.59126 0
M  V30 10735 O 1020.08 0.761916 1.63079 0
M  V30 10736 H 1016.46 0.54158 0.521724 0
M  V30 10737 H 1018.43 2.65129 1.36928 0
M  V30 10738 C 1017.18 1.84125 2.94947 0
M  V30 10739 H 1016.5 2.7078 2.9414 0
M  V30 10740 H 1017.94 2.02558 3.72487 0
M  V30 10741 C 1016.4 0.596752 3.31573 0
M  V30 10742 O 1016.93 -0.256632 4.00879 0
M  V30 10743 N 1015.13 0.445958 2.87158 0
M  V30 10744 H 1014.68 1.14146 2.30929 0
M  V30 10745 H 1014.64 -0.385519 3.12027 0
M  V30 10746 N 1018.41 -0.709066 1.40748 0
M  V30 10747 C 1019.66 -1.47119 1.39585 0
M  V30 10748 C 1019.99 -1.942 0.000245323 0
M  V30 10749 O 1019.26 -1.68609 -0.969593 0
M  V30 10750 C 1019.55 -2.69266 2.39099 0
M  V30 10751 C 1019.4 -2.28037 3.8771 0
M  V30 10752 C 1020.72 -3.71438 2.36055 0
M  V30 10753 H 1017.84 -0.533632 0.508336 0
M  V30 10754 H 1020.48 -0.808718 1.7193 0
M  V30 10755 H 1018.63 -3.25788 2.11647 0
M  V30 10756 H 1020.3 -1.76946 4.26014 0
M  V30 10757 H 1018.55 -1.59966 4.03229 0
M  V30 10758 H 1019.22 -3.15621 4.52866 0
M  V30 10759 H 1021.69 -3.24559 2.60385 0
M  V30 10760 H 1020.57 -4.54532 3.07721 0
M  V30 10761 H 1020.83 -4.20193 1.37443 0
M  V30 10762 N 1019.89 -1.26353 -0.941956 0
M  V30 10763 C 1020.82 -1.10341 -2.05784 0
M  V30 10764 C 1021.8 -0.00881565 -1.70098 0
M  V30 10765 O 1022.99 -0.180699 -1.93357 0
M  V30 10766 C 1020.12 -0.734788 -3.39438 0
M  V30 10767 C 1019.07 -1.78103 -3.89183 0
M  V30 10768 C 1018.4 -1.26675 -5.19478 0
M  V30 10769 C 1019.7 -3.1824 -4.14151 0
M  V30 10770 H 1021.39 -2.03684 -2.19438 0
M  V30 10771 H 1018.94 -0.980698 -1.05443 0
M  V30 10772 H 1020.89 -0.609653 -4.16967 0
M  V30 10773 H 1019.61 0.234354 -3.25758 0
M  V30 10774 H 1018.27 -1.89482 -3.13835 0
M  V30 10775 H 1017.92 -0.287472 -5.02178 0
M  V30 10776 H 1017.62 -1.96612 -5.53731 0
M  V30 10777 H 1019.14 -1.15427 -5.99591 0
M  V30 10778 H 1020.56 -3.09942 -4.82296 0
M  V30 10779 H 1018.95 -3.8576 -4.59684 0
M  V30 10780 H 1020.02 -3.64354 -3.19959 0
M  V30 10781 N 1021.37 1.14642 -1.08144 0
M  V30 10782 C 1022.59 1.90025 -0.830972 0
M  V30 10783 C 1023.02 1.77904 0.610879 0
M  V30 10784 O 1022.38 1.11735 1.42776 0
M  V30 10785 C 1022.42 3.38085 -1.25422 0
M  V30 10786 O 1021.53 4.10412 -0.404486 0
M  V30 10787 H 1020.87 0.591327 -0.302041 0
M  V30 10788 H 1023.4 1.4513 -1.44216 0
M  V30 10789 H 1023.41 3.88894 -1.23391 0
M  V30 10790 H 1022.08 3.46226 -2.30435 0
M  V30 10791 H 1020.66 3.69693 -0.487987 0
M  V30 10792 N 1022.85 0.866709 1.31628 0
M  V30 10793 C 1024.09 0.476731 1.97117 0
M  V30 10794 C 1024.42 -0.967813 1.68366 0
M  V30 10795 O 1023.7 -1.68101 0.978377 0
M  V30 10796 C 1023.98 0.730561 3.52611 0
M  V30 10797 C 1023.84 2.2244 3.90948 0
M  V30 10798 C 1025.15 0.19488 4.39668 0
M  V30 10799 H 1022.27 0.174682 0.715999 0
M  V30 10800 H 1024.92 1.08735 1.5581 0
M  V30 10801 H 1023.07 0.210834 3.87927 0
M  V30 10802 H 1024.74 2.81113 3.6575 0
M  V30 10803 H 1022.98 2.69824 3.39673 0
M  V30 10804 H 1023.65 2.35266 4.99353 0
M  V30 10805 H 1026.13 0.639478 4.11157 0
M  V30 10806 H 1025 0.401958 5.47426 0
M  V30 10807 H 1025.26 -0.90302 4.32779 0
M  V30 10808 N 1024.32 -1.44642 0.625825 0
M  V30 10809 C 1025.29 -2.29085 -0.072526 0
M  V30 10810 C 1026.29 -1.40755 -0.777467 0
M  V30 10811 O 1027.48 -1.62684 -0.622861 0
M  V30 10812 C 1024.61 -3.22212 -1.1132 0
M  V30 10813 H 1025.8 -2.92317 0.670124 0
M  V30 10814 H 1023.35 -1.51466 0.38571 0
M  V30 10815 H 1024.09 -2.63819 -1.88601 0
M  V30 10816 H 1023.87 -3.87299 -0.611709 0
M  V30 10817 H 1025.36 -3.8566 -1.60175 0
M  V30 10818 N 1025.8 -0.366053 -1.5329 0
M  V30 10819 C 1026.73 0.47211 -2.28677 0
M  V30 10820 C 1027.71 1.08353 -1.31125 0
M  V30 10821 O 1028.9 1.10069 -1.59995 0
M  V30 10822 C 1026.03 1.61174 -3.07637 0
M  V30 10823 C 1024.98 1.12755 -4.12881 0
M  V30 10824 C 1024.31 2.35745 -4.79925 0
M  V30 10825 C 1025.61 0.211954 -5.2187 0
M  V30 10826 H 1027.3 -0.156838 -2.98989 0
M  V30 10827 H 1024.85 -0.0768709 -1.43795 0
M  V30 10828 H 1026.8 2.20473 -3.59123 0
M  V30 10829 H 1025.52 2.26793 -2.35016 0
M  V30 10830 H 1024.18 0.557234 -3.6234 0
M  V30 10831 H 1023.83 2.99821 -4.03877 0
M  V30 10832 H 1023.53 2.04019 -5.51044 0
M  V30 10833 H 1025.06 2.95729 -5.34207 0
M  V30 10834 H 1026.47 0.71244 -5.68856 0
M  V30 10835 H 1024.87 -0.0144501 -6.00098 0
M  V30 10836 H 1025.94 -0.745753 -4.79131 0
M  V30 10837 N 1027.28 1.57312 -0.0952337 0
M  V30 10838 C 1028.5 1.99119 0.580206 0
M  V30 10839 C 1028.93 0.973955 1.60922 0
M  V30 10840 O 1028.29 -0.0575338 1.81209 0
M  V30 10841 C 1028.34 3.39893 1.20438 0
M  V30 10842 O 1027.44 3.40941 2.32019 0
M  V30 10843 H 1026.78 0.64748 0.147195 0
M  V30 10844 H 1029.31 2.03836 -0.176686 0
M  V30 10845 H 1029.32 3.7759 1.54564 0
M  V30 10846 H 1028 4.13453 0.450514 0
M  V30 10847 H 1026.57 3.1504 1.9951 0
M  V30 10848 N 1028.76 -0.17846 1.56586 0
M  V30 10849 C 1029.69 -1.24547 1.92408 0
M  V30 10850 C 1030.7 -1.40849 0.816421 0
M  V30 10851 O 1031.89 -1.40979 1.09486 0
M  V30 10852 C 1028.99 -2.61523 2.15544 0
M  V30 10853 C 1028.16 -2.66613 3.46751 0
M  V30 10854 C 1027.22 -3.84901 3.588 0
M  V30 10855 O 1026.25 -3.71231 4.31482 0
M  V30 10856 N 1027.45 -5.0106 2.9312 0
M  V30 10857 H 1030.22 -0.941275 2.84535 0
M  V30 10858 H 1027.78 -0.368275 1.57656 0
M  V30 10859 H 1029.77 -3.3911 2.20876 0
M  V30 10860 H 1028.34 -2.84362 1.29835 0
M  V30 10861 H 1027.56 -1.75174 3.5314 0
M  V30 10862 H 1028.85 -2.67018 4.33104 0
M  V30 10863 H 1028.25 -5.15067 2.33928 0
M  V30 10864 H 1026.8 -5.76535 3.04057 0
M  V30 10865 N 1030.24 -1.51135 -0.446768 0
M  V30 10866 C 1031.65 -1.39101 -0.782504 0
M  V30 10867 C 1031.85 -0.46599 -1.96038 0
M  V30 10868 O 1030.91 0.0823679 -2.52366 0
M  V30 10869 C 1032.22 -2.80953 -1.07173 0
M  V30 10870 C 1033.77 -2.90038 -1.17673 0
M  V30 10871 C 1034.24 -4.32777 -1.49894 0
M  V30 10872 N 1035.73 -4.3584 -1.56837 0
M  V30 10873 C 1036.47 -5.43305 -1.83322 0
M  V30 10874 N 1035.97 -6.60945 -2.07662 0
M  V30 10875 N 1037.76 -5.30775 -1.85026 0
M  V30 10876 H 1029.91 -2.09835 0.329114 0
M  V30 10877 H 1032.17 -0.944199 0.0848054 0
M  V30 10878 H 1031.88 -3.50591 -0.279037 0
M  V30 10879 H 1031.75 -3.197 -2.00179 0
M  V30 10880 H 1034.14 -2.20603 -1.96005 0
M  V30 10881 H 1034.22 -2.54801 -0.225892 0
M  V30 10882 H 1033.86 -5.02757 -0.720924 0
M  V30 10883 H 1033.79 -4.6552 -2.46168 0
M  V30 10884 H 1036.29 -3.51023 -1.39968 0
M  V30 10885 H 1036.6 -7.38643 -2.27214 0
M  V30 10886 H 1034.94 -6.64077 -2.05003 0
M  V30 10887 H 1038.13 -4.37858 -1.65523 0
M  V30 10888 H 1038.31 -6.14609 -2.05329 0
M  V30 10889 N 1031.71 0.701592 -1.41122 0
M  V30 10890 C 1032.94 1.49049 -1.43499 0
M  V30 10891 C 1033.36 1.88761 -0.0385684 0
M  V30 10892 O 1032.71 1.56384 0.940755 0
M  V30 10893 C 1032.76 2.7569 -2.33832 0
M  V30 10894 O 1032.49 2.37653 -3.68039 0
M  V30 10895 C 1033.99 3.69479 -2.44949 0
M  V30 10896 H 1031.21 0.459519 -0.488961 0
M  V30 10897 H 1033.75 0.864318 -1.85337 0
M  V30 10898 H 1031.91 3.34559 -1.95318 0
M  V30 10899 H 1032.32 3.19241 -4.16156 0
M  V30 10900 H 1033.79 4.55139 -3.12334 0
M  V30 10901 H 1034.27 4.13553 -1.47887 0
M  V30 10902 H 1034.88 3.16517 -2.84072 0
M  V30 10903 N 1033.19 1.2685 0.935242 0
M  V30 10904 C 1034.42 1.15538 1.71635 0
M  V30 10905 C 1034.83 -0.288698 1.8658 0
M  V30 10906 O 1034.19 -1.19721 1.37743 0
M  V30 10907 C 1034.24 1.8259 3.11999 0
M  V30 10908 O 1033.96 3.21355 2.97763 0
M  V30 10909 C 1035.46 1.77307 4.06297 0
M  V30 10910 H 1032.68 0.402055 0.537208 0
M  V30 10911 H 1035.23 1.67582 1.17203 0
M  V30 10912 H 1033.38 1.3447 3.63313 0
M  V30 10913 H 1033.8 3.54626 3.86446 0
M  V30 10914 H 1035.27 2.28851 5.02326 0
M  V30 10915 H 1035.75 0.740823 4.32907 0
M  V30 10916 H 1036.35 2.25007 3.60904 0
M  V30 10917 N 1034.67 -1.14067 1.0875 0
M  V30 10918 C 1035.92 -1.85459 0.82053 0
M  V30 10919 C 1036.25 -1.82923 -0.65213 0
M  V30 10920 O 1035.52 -1.26241 -1.47965 0
M  V30 10921 C 1035.81 -3.33937 1.34752 0
M  V30 10922 C 1035.66 -3.45026 2.88578 0
M  V30 10923 C 1036.98 -4.2915 0.975636 0
M  V30 10924 H 1034.1 -0.673384 0.299538 0
M  V30 10925 H 1036.74 -1.33927 1.34772 0
M  V30 10926 H 1034.89 -3.77953 0.899086 0
M  V30 10927 H 1036.56 -3.09771 3.41818 0
M  V30 10928 H 1034.81 -2.86124 3.26061 0
M  V30 10929 H 1035.48 -4.49408 3.20526 0
M  V30 10930 H 1037.95 -3.93168 1.36228 0
M  V30 10931 H 1036.83 -5.31489 1.37152 0
M  V30 10932 H 1037.09 -4.41945 -0.116956 0
M  V30 10933 N 1036.15 -0.873678 -1.31166 0
M  V30 10934 C 1037.56 -0.53852 -1.78765 0
M  V30 10935 C 1037.91 0.944765 -1.71955 0
M  V30 10936 O 1037.04 1.73781 -1.28954 0
M  V30 10937 C 1037.63 -0.970749 -3.24595 0
M  V30 10938 C 1036.19 -0.687189 -3.70074 0
M  V30 10939 C 1035.34 -1.16001 -2.51871 0
M  V30 10940 H 1038.29 -1.05903 -1.18196 0
M  V30 10941 H 1038.31 -0.294966 -3.79355 0
M  V30 10942 H 1037.82 -2.05034 -3.29519 0
M  V30 10943 H 1035.92 0.380881 -3.70648 0
M  V30 10944 H 1036.03 -1.26682 -4.62048 0
M  V30 10945 H 1034.4 -0.579663 -2.48016 0
M  V30 10946 H 1035.18 -2.2471 -2.59539 0
M  V30 10947 N 1037.63 1.44308 -0.633487 0
M  V30 10948 C 1038.54 2.34492 0.0711787 0
M  V30 10949 C 1039.55 1.52754 0.8332 0
M  V30 10950 O 1040.73 1.85475 0.784929 0
M  V30 10951 C 1037.79 3.30767 1.03895 0
M  V30 10952 C 1036.85 4.28412 0.276043 0
M  V30 10953 C 1036.09 5.20087 1.19772 0
M  V30 10954 O 1036.31 5.15743 2.4365 0
M  V30 10955 O 1035.24 5.98038 0.680764 0
M  V30 10956 H 1039.07 2.96203 -0.67063 0
M  V30 10957 H 1036.66 1.4412 -0.393678 0
M  V30 10958 H 1038.54 3.90021 1.59566 0
M  V30 10959 H 1037.21 2.71586 1.76133 0
M  V30 10960 H 1036.12 3.72696 -0.32377 0
M  V30 10961 H 1037.45 4.9052 -0.406364 0
M  V30 10962 N 1039.1 0.374177 1.53094 0
M  V30 10963 C 1040.01 -0.475935 2.29722 0
M  V30 10964 C 1041.03 -1.085 1.36029 0
M  V30 10965 O 1042.21 -1.09408 1.69091 0
M  V30 10966 C 1039.27 -1.59572 3.07795 0
M  V30 10967 C 1038.33 -1.01332 4.17169 0
M  V30 10968 C 1037.57 -2.07975 4.9151 0
M  V30 10969 O 1037.79 -3.29232 4.65793 0
M  V30 10970 O 1036.72 -1.7055 5.77232 0
M  V30 10971 H 1040.55 0.147877 3.0334 0
M  V30 10972 H 1038.13 0.138312 1.48758 0
M  V30 10973 H 1040.02 -2.24658 3.5652 0
M  V30 10974 H 1038.69 -2.20478 2.37005 0
M  V30 10975 H 1037.6 -0.326133 3.72676 0
M  V30 10976 H 1038.93 -0.4487 4.90151 0
M  V30 10977 N 1040.58 -1.57259 0.103575 0
M  V30 10978 C 1041.49 -2.18018 -0.866327 0
M  V30 10979 C 1042.51 -1.15198 -1.30404 0
M  V30 10980 O 1043.68 -1.47605 -1.37021 0
M  V30 10981 C 1040.75 -2.75533 -2.10434 0
M  V30 10982 C 1039.81 -3.93337 -1.72002 0
M  V30 10983 C 1039.04 -4.481 -2.89901 0
M  V30 10984 O 1039.27 -4.01784 -4.04877 0
M  V30 10985 O 1038.2 -5.39004 -2.67877 0
M  V30 10986 H 1042.03 -3.01322 -0.379338 0
M  V30 10987 H 1039.61 -1.48907 -0.121228 0
M  V30 10988 H 1041.49 -3.12259 -2.8297 0
M  V30 10989 H 1040.17 -1.9527 -2.58169 0
M  V30 10990 H 1039.08 -3.61408 -0.966193 0
M  V30 10991 H 1040.41 -4.74989 -1.29022 0
M  V30 10992 N 1042.06 0.170153 -1.56679 0
M  V30 10993 C 1042.99 1.21285 -1.9953 0
M  V30 10994 C 1043.97 1.46104 -0.871071 0
M  V30 10995 O 1045.16 1.57419 -1.13724 0
M  V30 10996 C 1042.29 2.5515 -2.35618 0
M  V30 10997 C 1041.24 2.44898 -3.51011 0
M  V30 10998 C 1040.57 3.83263 -3.72845 0
M  V30 10999 C 1041.87 1.95271 -4.84424 0
M  V30 11000 H 1043.56 0.856646 -2.86883 0
M  V30 11001 H 1041.11 0.410634 -1.38021 0
M  V30 11002 H 1043.06 3.28299 -2.64193 0
M  V30 11003 H 1041.78 2.92561 -1.45175 0
M  V30 11004 H 1040.44 1.74203 -3.22566 0
M  V30 11005 H 1040.09 4.18069 -2.79691 0
M  V30 11006 H 1039.79 3.77272 -4.50488 0
M  V30 11007 H 1041.31 4.57996 -4.03822 0
M  V30 11008 H 1042.73 2.58195 -5.11867 0
M  V30 11009 H 1041.13 2.00225 -5.65712 0
M  V30 11010 H 1042.2 0.90709 -4.7634 0
M  V30 11011 N 1043.54 1.5137 0.438746 0
M  V30 11012 C 1044.49 1.73154 1.55308 0
M  V30 11013 C 1045.48 0.597825 1.58501 0
M  V30 11014 O 1046.69 0.77917 1.62262 0
M  V30 11015 H 1043.06 0.547083 0.51595 0
M  V30 11016 H 1045.03 2.66566 1.34108 0
M  V30 11017 C 1043.78 1.87242 2.92977 0
M  V30 11018 H 1043.1 2.73884 2.91252 0
M  V30 11019 H 1044.54 2.06497 3.70317 0
M  V30 11020 C 1043 0.631887 3.30921 0
M  V30 11021 O 1043.53 -0.214099 4.01129 0
M  V30 11022 N 1041.74 0.47639 2.86669 0
M  V30 11023 H 1041.29 1.16589 2.29706 0
M  V30 11024 H 1041.24 -0.352403 3.12419 0
M  V30 11025 N 1045.02 -0.694098 1.41492 0
M  V30 11026 C 1046.43 -1.27407 1.36471 0
M  V30 11027 C 1046.78 -1.9614 0.0485209 0
M  V30 11028 O 1045.9 -1.98871 -0.853188 0
M  V30 11029 C 1046.5 -2.31698 2.47188 0
M  V30 11030 C 1045.06 -2.85268 2.45559 0
M  V30 11031 C 1044.2 -1.59325 2.2696 0
M  V30 11032 H 1047.16 -0.488756 1.50986 0
M  V30 11033 H 1047.18 -3.1302 2.1633 0
M  V30 11034 H 1046.69 -1.81644 3.42968 0
M  V30 11035 H 1044.79 -3.39494 1.5354 0
M  V30 11036 H 1044.9 -3.35598 3.41922 0
M  V30 11037 H 1043.27 -1.85188 1.74864 0
M  V30 11038 H 1044.05 -1.11265 3.24769 0
M  V30 11039 N 1046.49 -1.27344 -0.928501 0
M  V30 11040 C 1047.44 -1.10001 -2.029 0
M  V30 11041 C 1048.41 -0.00131084 -1.661 0
M  V30 11042 O 1049.6 -0.163485 -1.90098 0
M  V30 11043 C 1046.74 -0.7524 -3.36798 0
M  V30 11044 C 1045.85 -1.92865 -3.86558 0
M  V30 11045 C 1044.98 -1.52299 -5.08899 0
M  V30 11046 C 1044.02 -2.66677 -5.50953 0
M  V30 11047 N 1043.16 -2.26706 -6.64491 0
M  V30 11048 H 1048 -2.0417 -2.17068 0
M  V30 11049 H 1045.54 -1.01637 -1.0634 0
M  V30 11050 H 1047.5 -0.531687 -4.13798 0
M  V30 11051 H 1046.13 0.15234 -3.2244 0
M  V30 11052 H 1045.18 -2.26192 -3.05845 0
M  V30 11053 H 1046.49 -2.78668 -4.13698 0
M  V30 11054 H 1045.64 -1.26348 -5.93398 0
M  V30 11055 H 1044.38 -0.636042 -4.83535 0
M  V30 11056 H 1043.39 -2.93344 -4.65004 0
M  V30 11057 H 1044.61 -3.55992 -5.78313 0
M  V30 11058 H 1042.56 -1.40462 -6.40786 0
M  V30 11059 H 1042.48 -3.06049 -6.91281 0
M  V30 11060 H 1043.74 -2.04 -7.52333 0
M  V30 11061 N 1047.97 1.13488 -1.09353 0
M  V30 11062 C 1049.22 1.841 -0.82401 0
M  V30 11063 C 1049.53 1.84393 0.652586 0
M  V30 11064 O 1050.74 2.5089 1.03762 0
M  V30 11065 C 1049.2 3.30523 -1.42418 0
M  V30 11066 C 1048.8 3.38621 -2.93326 0
M  V30 11067 C 1050.55 4.06182 -1.23356 0
M  V30 11068 C 1048.46 4.79311 -3.46432 0
M  V30 11069 H 1047.39 0.68974 -0.304589 0
M  V30 11070 H 1050.04 1.27866 -1.31615 0
M  V30 11071 H 1048.42 3.86555 -0.859727 0
M  V30 11072 H 1049.59 2.92587 -3.5599 0
M  V30 11073 H 1047.91 2.76426 -3.11412 0
M  V30 11074 H 1050.5 5.10047 -1.60488 0
M  V30 11075 H 1050.85 4.15936 -0.174152 0
M  V30 11076 H 1051.38 3.56477 -1.76547 0
M  V30 11077 H 1048.12 4.74748 -4.5199 0
M  V30 11078 H 1047.64 5.25842 -2.8853 0
M  V30 11079 H 1049.32 5.48227 -3.43593 0
M  V30 11080 N 1049.45 0.880621 1.30701 0
M  V30 11081 C 1050.38 0.360251 2.30704 0
M  V30 11082 C 1051.36 -0.554572 1.60806 0
M  V30 11083 O 1052.55 -0.469345 1.88443 0
M  V30 11084 C 1049.68 -0.429888 3.44629 0
M  V30 11085 C 1048.63 0.392786 4.26194 0
M  V30 11086 C 1047.96 -0.52369 5.32129 0
M  V30 11087 C 1049.26 1.63258 4.96129 0
M  V30 11088 H 1050.95 1.19591 2.74478 0
M  V30 11089 H 1048.5 0.576508 1.31956 0
M  V30 11090 H 1050.45 -0.804532 4.13649 0
M  V30 11091 H 1049.17 -1.29916 2.99649 0
M  V30 11092 H 1047.83 0.749514 3.58856 0
M  V30 11093 H 1047.48 -1.39054 4.83397 0
M  V30 11094 H 1047.18 0.0229272 5.87596 0
M  V30 11095 H 1048.71 -0.894946 6.04006 0
M  V30 11096 H 1050.12 1.32877 5.57689 0
M  V30 11097 H 1048.52 2.11906 5.61441 0
M  V30 11098 H 1049.59 2.37944 4.22505 0
M  V30 11099 N 1050.93 -1.4397 0.641131 0
M  V30 11100 C 1051.89 -2.29149 -0.0482243 0
M  V30 11101 C 1052.89 -1.41572 -0.762495 0
M  V30 11102 O 1054.08 -1.63335 -0.605571 0
M  V30 11103 C 1051.21 -3.23375 -1.07896 0
M  V30 11104 H 1052.41 -2.9159 0.70109 0
M  V30 11105 H 1049.96 -1.51048 0.401754 0
M  V30 11106 H 1050.7 -2.65804 -1.85792 0
M  V30 11107 H 1050.48 -3.87926 -0.570597 0
M  V30 11108 H 1051.97 -3.87337 -1.56075 0
M  V30 11109 N 1052.41 -0.382291 -1.52893 0
M  V30 11110 C 1053.34 0.447829 -2.29165 0
M  V30 11111 C 1054.32 1.06956 -1.32267 0
M  V30 11112 O 1055.5 1.08365 -1.61154 0
M  V30 11113 C 1052.63 1.57902 -3.09329 0
M  V30 11114 C 1051.59 1.08369 -4.14053 0
M  V30 11115 C 1050.91 2.30641 -4.82399 0
M  V30 11116 C 1052.21 0.156591 -5.22065 0
M  V30 11117 H 1053.91 -0.188541 -2.98806 0
M  V30 11118 H 1051.45 -0.0921179 -1.43705 0
M  V30 11119 H 1053.41 2.16652 -3.61442 0
M  V30 11120 H 1052.13 2.24287 -2.37409 0
M  V30 11121 H 1050.79 0.518772 -3.62911 0
M  V30 11122 H 1050.44 2.9552 -4.07034 0
M  V30 11123 H 1050.14 1.98163 -5.53177 0
M  V30 11124 H 1051.66 2.90047 -5.37313 0
M  V30 11125 H 1053.08 0.652065 -5.6958 0
M  V30 11126 H 1051.47 -0.0780978 -6.00049 0
M  V30 11127 H 1052.54 -0.796529 -4.78313 0
M  V30 11128 N 1053.89 1.57202 -0.111913 0
M  V30 11129 C 1054.82 2.11995 0.871242 0
M  V30 11130 C 1055.83 1.06102 1.23475 0
M  V30 11131 O 1057.02 1.33497 1.18494 0
M  V30 11132 C 1054.12 2.59874 2.17528 0
M  V30 11133 C 1053.29 3.89788 1.98455 0
M  V30 11134 C 1052.35 4.23339 3.12523 0
M  V30 11135 O 1051.38 4.92277 2.85748 0
M  V30 11136 N 1052.58 3.80089 4.38762 0
M  V30 11137 H 1055.34 2.96976 0.403157 0
M  V30 11138 H 1052.91 1.61737 0.0727159 0
M  V30 11139 H 1054.9 2.79354 2.9282 0
M  V30 11140 H 1053.47 1.79812 2.55707 0
M  V30 11141 H 1052.69 3.79288 1.07396 0
M  V30 11142 H 1053.98 4.74748 1.83007 0
M  V30 11143 H 1053.37 3.24473 4.63394 0
M  V30 11144 H 1051.93 4.04691 5.10949 0
M  V30 11145 N 1055.36 -0.161842 1.56767 0
M  V30 11146 C 1056.31 -1.21948 1.98069 0
M  V30 11147 C 1057.31 -1.45303 0.870835 0
M  V30 11148 O 1058.51 -1.45771 1.05598 0
M  V30 11149 H 1054.89 -0.410145 0.630306 0
M  V30 11150 H 1056.86 -0.844336 2.86205 0
M  V30 11151 C 1055.61 -2.549 2.36477 0
M  V30 11152 H 1054.93 -2.37755 3.21423 0
M  V30 11153 H 1056.37 -3.27568 2.69212 0
M  V30 11154 C 1054.83 -3.14353 1.21176 0
M  V30 11155 O 1055.36 -3.98519 0.504499 0
M  V30 11156 N 1053.56 -2.73582 0.979855 0
M  V30 11157 H 1053.11 -2.05239 1.55675 0
M  V30 11158 H 1053.07 -3.13696 0.21025 0
M  V30 11159 N 1056.84 -1.516 -0.430713 0
M  V30 11160 C 1057.8 -1.72794 -1.50582 0
M  V30 11161 C 1058.8 -0.597903 -1.49271 0
M  V30 11162 O 1059.99 -0.865535 -1.51176 0
M  V30 11163 C 1057.13 -1.79049 -2.90093 0
M  V30 11164 H 1058.32 -2.68751 -1.33091 0
M  V30 11165 H 1055.87 -1.4169 -0.659822 0
M  V30 11166 H 1056.61 -0.849309 -3.12981 0
M  V30 11167 H 1056.39 -2.61181 -2.92449 0
M  V30 11168 H 1057.88 -1.97262 -3.68072 0
M  V30 11169 N 1058.32 0.686584 -1.41858 0
M  V30 11170 C 1059.25 1.81202 -1.40352 0
M  V30 11171 C 1060.26 1.5993 -0.304322 0
M  V30 11172 O 1061.45 1.69267 -0.566643 0
M  V30 11173 C 1058.55 3.18116 -1.16856 0
M  V30 11174 C 1057.73 3.66339 -2.38987 0
M  V30 11175 C 1056.79 4.8195 -2.11212 0
M  V30 11176 O 1055.81 4.93102 -2.84323 0
M  V30 11177 N 1057.01 5.69829 -1.10793 0
M  V30 11178 H 1059.78 1.82983 -2.37355 0
M  V30 11179 H 1057.34 0.869244 -1.36586 0
M  V30 11180 H 1059.33 3.93097 -0.962125 0
M  V30 11181 H 1057.9 3.11306 -0.284186 0
M  V30 11182 H 1057.12 2.82166 -2.75274 0
M  V30 11183 H 1058.41 3.95297 -3.2034 0
M  V30 11184 H 1057.81 5.63459 -0.503012 0
M  V30 11185 H 1056.36 6.44671 -0.961379 0
M  V30 11186 N 1059.8 1.27835 0.921735 0
M  V30 11187 C 1061.21 1.05369 1.19873 0
M  V30 11188 C 1061.41 -0.208997 2.00413 0
M  V30 11189 O 1060.47 -0.912861 2.35421 0
M  V30 11190 C 1061.78 2.29658 1.94108 0
M  V30 11191 C 1063.33 2.34756 2.07023 0
M  V30 11192 C 1063.81 3.5879 2.84664 0
M  V30 11193 N 1065.3 3.59383 2.9223 0
M  V30 11194 C 1066.03 4.52029 3.52785 0
M  V30 11195 N 1065.53 5.54986 4.14683 0
M  V30 11196 N 1067.32 4.39641 3.50246 0
M  V30 11197 H 1059.47 2.08903 0.383819 0
M  V30 11198 H 1061.73 0.919065 0.232429 0
M  V30 11199 H 1061.44 3.21604 1.4235 0
M  V30 11200 H 1061.31 2.35444 2.94696 0
M  V30 11201 H 1063.7 1.43312 2.57965 0
M  V30 11202 H 1063.78 2.32969 1.05636 0
M  V30 11203 H 1063.43 4.50574 2.34404 0
M  V30 11204 H 1063.36 3.57829 3.86349 0
M  V30 11205 H 1065.85 2.84927 2.48244 0
M  V30 11206 H 1066.16 6.21837 4.58845 0
M  V30 11207 H 1064.51 5.58822 4.13211 0
M  V30 11208 H 1067.7 3.58413 3.01094 0
M  V30 11209 H 1067.87 5.12033 3.97148 0
M  V30 11210 N 1061.28 -1.12907 1.09954 0
M  V30 11211 C 1062.22 -2.18485 0.743848 0
M  V30 11212 C 1063.19 -1.63766 -0.277494 0
M  V30 11213 O 1064.38 -1.90146 -0.157899 0
M  V30 11214 C 1061.52 -3.44649 0.176437 0
M  V30 11215 C 1060.63 -4.13445 1.25248 0
M  V30 11216 C 1059.77 -5.27242 0.647242 0
M  V30 11217 C 1058.8 -5.87897 1.70421 0
M  V30 11218 N 1057.94 -6.93116 1.1196 0
M  V30 11219 H 1062.78 -2.48257 1.64841 0
M  V30 11220 H 1060.32 -1.21891 0.823471 0
M  V30 11221 H 1062.28 -4.16852 -0.170384 0
M  V30 11222 H 1060.91 -3.15309 -0.69137 0
M  V30 11223 H 1059.96 -3.39471 1.7165 0
M  V30 11224 H 1061.27 -4.54601 2.05279 0
M  V30 11225 H 1060.42 -6.06186 0.249579 0
M  V30 11226 H 1059.16 -4.87351 -0.184556 0
M  V30 11227 H 1058.17 -5.07643 2.11136 0
M  V30 11228 H 1059.39 -6.2986 2.53877 0
M  V30 11229 H 1057.34 -6.55271 0.309181 0
M  V30 11230 H 1057.26 -7.32843 1.85681 0
M  V30 11231 H 1058.52 -7.759 0.748326 0
M  V30 11232 N 1062.75 -0.88754 -1.30232 0
M  V30 11233 C 1064.17 -0.581904 -1.48614 0
M  V30 11234 C 1064.37 0.879711 -1.81282 0
M  V30 11235 O 1063.43 1.66076 -1.90198 0
M  V30 11236 C 1064.74 -1.49726 -2.60773 0
M  V30 11237 C 1066.29 -1.50117 -2.74653 0
M  V30 11238 C 1066.76 -2.40251 -3.89927 0
M  V30 11239 N 1068.25 -2.38229 -3.97242 0
M  V30 11240 C 1068.99 -3.04682 -4.85754 0
M  V30 11241 N 1068.48 -3.80369 -5.79043 0
M  V30 11242 N 1070.28 -2.93901 -4.79144 0
M  V30 11243 H 1062.43 -1.83304 -1.073 0
M  V30 11244 H 1064.69 -0.78477 -0.531826 0
M  V30 11245 H 1064.4 -2.5381 -2.43462 0
M  V30 11246 H 1064.27 -1.20874 -3.57308 0
M  V30 11247 H 1066.66 -0.467832 -2.91368 0
M  V30 11248 H 1066.74 -1.83001 -1.7873 0
M  V30 11249 H 1066.38 -3.43671 -3.73969 0
M  V30 11250 H 1066.31 -2.04682 -4.85194 0
M  V30 11251 H 1068.8 -1.83229 -3.30508 0
M  V30 11252 H 1069.12 -4.28159 -6.4335 0
M  V30 11253 H 1067.46 -3.84477 -5.78967 0
M  V30 11254 H 1070.65 -2.34296 -4.05245 0
M  V30 11255 H 1070.83 -3.45967 -5.47915 0
M  V30 11256 N 1064.23 1.43628 -0.648757 0
M  V30 11257 C 1065.18 2.30755 0.0455536 0
M  V30 11258 C 1066.15 1.44495 0.819168 0
M  V30 11259 O 1067.33 1.73372 0.79667 0
M  V30 11260 C 1064.47 3.30017 1.00908 0
M  V30 11261 C 1063.59 4.31376 0.232039 0
M  V30 11262 C 1062.72 5.17723 1.18897 0
M  V30 11263 C 1061.76 6.10778 0.402096 0
M  V30 11264 N 1060.9 6.89763 1.31038 0
M  V30 11265 H 1065.74 2.89581 -0.70332 0
M  V30 11266 H 1063.28 1.42662 -0.3586 0
M  V30 11267 H 1065.23 3.86072 1.58128 0
M  V30 11268 H 1063.86 2.72851 1.72488 0
M  V30 11269 H 1062.92 3.77652 -0.456373 0
M  V30 11270 H 1064.23 4.9735 -0.380023 0
M  V30 11271 H 1063.38 5.78381 1.83194 0
M  V30 11272 H 1062.12 4.51864 1.83494 0
M  V30 11273 H 1061.13 5.49212 -0.254255 0
M  V30 11274 H 1062.35 6.78678 -0.239411 0
M  V30 11275 H 1060.3 6.26557 1.94324 0
M  V30 11276 H 1060.21 7.52243 0.752774 0
M  V30 11277 H 1061.48 7.54931 1.94164 0
M  V30 11278 N 1065.71 0.390394 1.52688 0
M  V30 11279 C 1066.64 -0.48838 2.22913 0
M  V30 11280 C 1067.62 -1.06319 1.23025 0
M  V30 11281 O 1068.81 -1.11462 1.52015 0
M  V30 11282 C 1065.93 -1.67612 2.9432 0
M  V30 11283 C 1064.98 -1.22646 4.08485 0
M  V30 11284 S 1065.81 -0.207092 5.35099 0
M  V30 11285 C 1066.97 -1.40058 6.10028 0
M  V30 11286 H 1067.2 0.107949 2.97104 0
M  V30 11287 H 1064.73 0.174588 1.5341 0
M  V30 11288 H 1066.69 -2.35728 3.36069 0
M  V30 11289 H 1065.35 -2.24375 2.19806 0
M  V30 11290 H 1064.55 -2.11331 4.57554 0
M  V30 11291 H 1064.15 -0.624197 3.68754 0
M  V30 11292 H 1066.44 -2.32747 6.36266 0
M  V30 11293 H 1067.38 -0.950804 7.01687 0
M  V30 11294 H 1067.79 -1.61789 5.40818 0
M  V30 11295 N 1067.19 -1.57141 0.120249 0
M  V30 11296 C 1068.1 -2.18925 -0.843155 0
M  V30 11297 C 1069.11 -1.16575 -1.29175 0
M  V30 11298 O 1070.29 -1.4905 -1.35448 0
M  V30 11299 C 1067.36 -2.7775 -2.075 0
M  V30 11300 C 1066.42 -3.95139 -1.6782 0
M  V30 11301 C 1065.65 -4.51149 -2.85132 0
M  V30 11302 O 1065.87 -4.06056 -4.00593 0
M  V30 11303 O 1064.81 -5.41815 -2.62145 0
M  V30 11304 H 1068.63 -3.01707 -0.347357 0
M  V30 11305 H 1066.22 -1.49028 -0.105427 0
M  V30 11306 H 1068.1 -3.15243 -2.79643 0
M  V30 11307 H 1066.77 -1.97998 -2.56083 0
M  V30 11308 H 1065.68 -3.62412 -0.927807 0
M  V30 11309 H 1067.01 -4.7633 -1.23977 0
M  V30 11310 N 1068.67 0.153526 -1.5685 0
M  V30 11311 C 1069.62 1.19478 -1.94188 0
M  V30 11312 C 1070.6 1.38889 -0.812329 0
M  V30 11313 O 1071.79 1.4056 -1.07572 0
M  V30 11314 C 1068.92 2.53 -2.32047 0
M  V30 11315 C 1068.01 2.37209 -3.51557 0
M  V30 11316 N 1068.4 1.91162 -4.68285 0
M  V30 11317 C 1066.7 2.67981 -3.56514 0
M  V30 11318 C 1067.4 1.88259 -5.50394 0
M  V30 11319 N 1066.37 2.31329 -4.91923 0
M  V30 11320 H 1070.18 0.830748 -2.81915 0
M  V30 11321 H 1067.69 0.361643 -1.58322 0
M  V30 11322 H 1069.69 3.28264 -2.56998 0
M  V30 11323 H 1068.35 2.90191 -1.45669 0
M  V30 11324 H 1069.36 1.61227 -4.92165 0
M  V30 11325 H 1066.03 3.0909 -2.80659 0
M  V30 11326 H 1067.42 1.54205 -6.53965 0
M  V30 11327 N 1070.14 1.51827 0.422667 0
M  V30 11328 C 1071.42 1.55772 1.18299 0
M  V30 11329 C 1071.8 0.330657 2.08494 0
M  V30 11330 O 1071.15 -0.683373 2.18042 0
M  V30 11331 C 1071.36 2.87941 1.97208 0
M  V30 11332 C 1072.71 3.4044 2.53744 0
M  V30 11333 O 1073.73 2.8959 2.07403 0
M  V30 11334 O 1072.59 4.29201 3.38303 0
M  V30 11335 H 1069.68 0.626889 0.539388 0
M  V30 11336 H 1072.23 1.64147 0.430545 0
M  V30 11337 H 1071 3.68702 1.31052 0
M  V30 11338 H 1070.63 2.82795 2.79486 0
M  V30 11339 N 1071.62 -0.679052 1.4222 0
M  V30 11340 C 1072.87 -1.43627 1.42182 0
M  V30 11341 C 1073.19 -1.94964 0.0377095 0
M  V30 11342 O 1072.46 -1.72788 -0.923098 0
M  V30 11343 H 1071.04 -0.532972 0.523402 0
M  V30 11344 H 1073.7 -0.802649 1.77605 0
M  V30 11345 H 1072.8 -2.29137 2.11902 0
M  V30 11346 N 1073.1 -1.28322 -0.914942 0
M  V30 11347 C 1074.33 -1.1837 -1.70304 0
M  V30 11348 C 1074.75 0.254291 -1.86373 0
M  V30 11349 O 1074.11 1.18398 -1.37301 0
M  V30 11350 C 1074.16 -1.88603 -3.07346 0
M  V30 11351 O 1073.26 -1.19268 -3.94777 0
M  V30 11352 H 1072.6 -0.410978 -0.52153 0
M  V30 11353 H 1075.13 -1.69622 -1.14409 0
M  V30 11354 H 1075.14 -1.96463 -3.57584 0
M  V30 11355 H 1073.82 -2.93201 -2.94967 0
M  V30 11356 H 1072.39 -1.19563 -3.53212 0
M  V30 11357 N 1074.58 1.12322 -1.10551 0
M  V30 11358 C 1075.51 2.20176 -0.777486 0
M  V30 11359 C 1076.49 1.68252 0.250069 0
M  V30 11360 O 1077.67 1.93856 0.115574 0
M  V30 11361 C 1074.8 3.46666 -0.209822 0
M  V30 11362 C 1073.76 4.11749 -1.1682 0
M  V30 11363 C 1073.08 5.32703 -0.461684 0
M  V30 11364 C 1074.38 4.57746 -2.51527 0
M  V30 11365 H 1076.08 2.47872 -1.67928 0
M  V30 11366 H 1073.62 1.19136 -0.808863 0
M  V30 11367 H 1075.58 4.21388 0.0318068 0
M  V30 11368 H 1074.3 3.18401 0.727226 0
M  V30 11369 H 1072.96 3.39009 -1.3953 0
M  V30 11370 H 1072.61 5.00706 0.479875 0
M  V30 11371 H 1072.31 5.77197 -1.1008 0
M  V30 11372 H 1073.83 6.10172 -0.228629 0
M  V30 11373 H 1075.25 5.23835 -2.32958 0
M  V30 11374 H 1073.64 5.13021 -3.11335 0
M  V30 11375 H 1074.71 3.71667 -3.11435 0
M  V30 11376 N 1076.06 0.894434 1.2976 0
M  V30 11377 C 1077.3 0.517669 1.95771 0
M  V30 11378 C 1077.63 -0.935028 1.70551 0
M  V30 11379 O 1076.89 -1.67722 1.00835 0
M  V30 11380 C 1077.19 0.750307 3.49435 0
M  V30 11381 C 1076.85 2.17955 3.94723 0
M  V30 11382 C 1075.51 2.57036 4.068 0
M  V30 11383 C 1077.87 3.11053 4.18205 0
M  V30 11384 C 1075.19 3.88406 4.39724 0
M  V30 11385 C 1077.55 4.41966 4.52602 0
M  V30 11386 C 1076.21 4.80927 4.62888 0
M  V30 11387 H 1075.48 0.189428 0.716378 0
M  V30 11388 H 1078.13 1.13209 1.54454 0
M  V30 11389 H 1076.43 0.0529242 3.91764 0
M  V30 11390 H 1078.13 0.438251 3.98598 0
M  V30 11391 H 1074.72 1.86622 3.85837 0
M  V30 11392 H 1078.9 2.82076 4.08347 0
M  V30 11393 H 1074.16 4.18321 4.4589 0
M  V30 11394 H 1078.33 5.14134 4.69722 0
M  V30 11395 H 1075.96 5.82759 4.88156 0
M  V30 11396 N 1077.53 -1.43282 0.656365 0
M  V30 11397 C 1078.47 -2.29087 -0.0720378 0
M  V30 11398 C 1079.48 -1.4268 -0.783982 0
M  V30 11399 O 1080.67 -1.66585 -0.641213 0
M  V30 11400 C 1077.77 -3.19676 -1.12519 0
M  V30 11401 C 1076.94 -4.34638 -0.490756 0
M  V30 11402 C 1076 -5.06079 -1.44121 0
M  V30 11403 O 1075.03 -5.6124 -0.948595 0
M  V30 11404 N 1076.23 -5.09872 -2.77509 0
M  V30 11405 H 1078.99 -2.92241 0.664456 0
M  V30 11406 H 1076.55 -1.54006 0.499383 0
M  V30 11407 H 1078.55 -3.64334 -1.76189 0
M  V30 11408 H 1077.12 -2.581 -1.76362 0
M  V30 11409 H 1076.34 -3.92857 0.3251 0
M  V30 11410 H 1077.62 -5.08777 -0.0480061 0
M  V30 11411 H 1077.02 -4.66433 -3.20088 0
M  V30 11412 H 1075.58 -5.58237 -3.36474 0
M  V30 11413 N 1079.01 -0.398486 -1.52479 0
M  V30 11414 C 1079.98 0.420206 -2.25315 0
M  V30 11415 C 1080.98 0.982559 -1.27289 0
M  V30 11416 O 1082.17 0.863113 -1.51314 0
M  V30 11417 C 1079.3 1.59045 -3.01525 0
M  V30 11418 H 1080.49 -0.217599 -2.9911 0
M  V30 11419 H 1078.04 -0.150784 -1.55571 0
M  V30 11420 H 1078.78 2.26542 -2.32054 0
M  V30 11421 H 1078.56 1.19382 -3.73484 0
M  V30 11422 H 1080.05 2.16984 -3.56802 0
M  V30 11423 N 1080.49 1.57075 -0.12858 0
M  V30 11424 C 1081.74 1.9581 0.527868 0
M  V30 11425 C 1082.07 1.01253 1.65715 0
M  V30 11426 O 1081.35 0.0514853 1.94432 0
M  V30 11427 C 1081.63 3.44406 1.05151 0
M  V30 11428 C 1081.48 4.49737 -0.0750113 0
M  V30 11429 C 1082.8 3.95069 1.9393 0
M  V30 11430 H 1079.92 0.711978 0.19041 0
M  V30 11431 H 1082.56 1.88879 -0.206081 0
M  V30 11432 H 1080.71 3.50443 1.67697 0
M  V30 11433 H 1082.38 4.55793 -0.710685 0
M  V30 11434 H 1080.63 4.27497 -0.736809 0
M  V30 11435 H 1081.3 5.50996 0.332779 0
M  V30 11436 H 1083.77 3.91395 1.41241 0
M  V30 11437 H 1082.65 4.99542 2.27484 0
M  V30 11438 H 1082.91 3.36329 2.86941 0
M  V30 11439 N 1081.97 -0.145205 1.5693 0
M  V30 11440 C 1083.22 -0.855822 1.83085 0
M  V30 11441 C 1083.54 -1.81625 0.709747 0
M  V30 11442 O 1082.81 -1.94052 -0.268456 0
M  V30 11443 H 1081.39 -0.319032 0.675446 0
M  V30 11444 H 1084.05 -0.138781 1.94405 0
M  V30 11445 H 1083.15 -1.41698 2.78079 0
M  V30 11446 N 1083.45 -1.52049 -0.414609 0
M  V30 11447 C 1084.7 -1.65067 -1.15912 0
M  V30 11448 C 1085.01 -0.383969 -1.91794 0
M  V30 11449 O 1086.22 -0.393872 -2.68628 0
M  V30 11450 C 1084.67 -2.91611 -2.1093 0
M  V30 11451 C 1084.28 -4.25369 -1.4059 0
M  V30 11452 C 1086.02 -3.13992 -2.85674 0
M  V30 11453 C 1083.93 -5.43041 -2.34223 0
M  V30 11454 H 1082.86 -0.614884 -0.436387 0
M  V30 11455 H 1085.51 -1.78533 -0.424072 0
M  V30 11456 H 1083.89 -2.71831 -2.87965 0
M  V30 11457 H 1085.07 -4.55611 -0.689568 0
M  V30 11458 H 1083.38 -4.09047 -0.779088 0
M  V30 11459 H 1085.98 -3.99082 -3.55861 0
M  V30 11460 H 1086.32 -2.27998 -3.48314 0
M  V30 11461 H 1086.86 -3.34217 -2.1574 0
M  V30 11462 H 1083.59 -6.31364 -1.76238 0
M  V30 11463 H 1083.11 -5.17144 -3.03845 0
M  V30 11464 H 1084.79 -5.75901 -2.94868 0
M  V30 11465 N 1084.93 0.6715 -1.42579 0
M  V30 11466 C 1086.17 1.42871 -1.42941 0
M  V30 11467 C 1086.49 1.94941 -0.0480483 0
M  V30 11468 O 1085.76 1.73275 0.913921 0
M  V30 11469 H 1084.34 0.530189 -0.526221 0
M  V30 11470 H 1087.01 0.793219 -1.78028 0
M  V30 11471 H 1086.1 2.2801 -2.13114 0
M  V30 11472 N 1086.4 1.28806 0.908124 0
M  V30 11473 C 1087.63 1.19153 1.69146 0
M  V30 11474 C 1088.05 -0.249056 1.8715 0
M  V30 11475 O 1087.4 -1.16772 1.40251 0
M  V30 11476 C 1087.45 1.89167 3.08055 0
M  V30 11477 O 1087.18 3.27599 2.90879 0
M  V30 11478 C 1088.68 1.85886 4.02444 0
M  V30 11479 H 1085.9 0.413359 0.528559 0
M  V30 11480 H 1088.44 1.7003 1.13622 0
M  V30 11481 H 1086.6 1.42146 3.60379 0
M  V30 11482 H 1087.01 3.62743 3.78837 0
M  V30 11483 H 1088.48 2.39454 4.97359 0
M  V30 11484 H 1088.96 0.832483 4.31238 0
M  V30 11485 H 1089.57 2.32612 3.5605 0
M  V30 11486 N 1087.88 -1.11734 1.11145 0
M  V30 11487 C 1088.81 -2.1976 0.789152 0
M  V30 11488 C 1089.79 -1.68382 -0.241143 0
M  V30 11489 O 1090.98 -1.93914 -0.105292 0
M  V30 11490 C 1088.11 -3.46549 0.228204 0
M  V30 11491 C 1087.06 -4.11123 1.19002 0
M  V30 11492 C 1086.39 -5.32451 0.489928 0
M  V30 11493 C 1087.69 -4.56406 2.53951 0
M  V30 11494 H 1089.38 -2.46978 1.69241 0
M  V30 11495 H 1086.93 -1.18705 0.81517 0
M  V30 11496 H 1088.88 -4.21399 -0.00945908 0
M  V30 11497 H 1087.6 -3.18782 -0.71033 0
M  V30 11498 H 1086.26 -3.38264 1.41326 0
M  V30 11499 H 1085.91 -5.00953 -0.453315 0
M  V30 11500 H 1085.61 -5.76605 1.1314 0
M  V30 11501 H 1087.14 -6.10042 0.260984 0
M  V30 11502 H 1088.55 -5.22592 2.35733 0
M  V30 11503 H 1086.95 -5.11363 3.14051 0
M  V30 11504 H 1088.02 -3.7001 3.13402 0
M  V30 11505 N 1089.36 -0.901303 -1.29284 0
M  V30 11506 C 1090.29 -0.396909 -2.30102 0
M  V30 11507 C 1091.27 0.528919 -1.61668 0
M  V30 11508 O 1092.46 0.439306 -1.89166 0
M  V30 11509 C 1089.59 0.375006 -3.45269 0
M  V30 11510 C 1088.54 -0.46054 -4.25515 0
M  V30 11511 C 1087.87 0.438967 -5.32895 0
M  V30 11512 C 1089.17 -1.7113 -4.93469 0
M  V30 11513 H 1090.86 -1.23943 -2.72541 0
M  V30 11514 H 1088.41 -0.597428 -1.31022 0
M  V30 11515 H 1090.36 0.738622 -4.14876 0
M  V30 11516 H 1089.08 1.25132 -3.01678 0
M  V30 11517 H 1087.74 -0.80651 -3.57618 0
M  V30 11518 H 1087.39 1.31346 -4.85548 0
M  V30 11519 H 1087.09 -0.116406 -5.87485 0
M  V30 11520 H 1088.61 0.79874 -6.05353 0
M  V30 11521 H 1090.03 -1.41732 -5.55504 0
M  V30 11522 H 1088.42 -2.20811 -5.57999 0
M  V30 11523 H 1089.49 -2.44636 -4.18666 0
M  V30 11524 N 1090.84 1.42931 -0.663954 0
M  V30 11525 C 1091.77 2.29122 0.0598878 0
M  V30 11526 C 1092.78 1.43094 0.776404 0
M  V30 11527 O 1093.97 1.66923 0.63237 0
M  V30 11528 C 1091.07 3.20268 1.10822 0
M  V30 11529 C 1090.24 4.34892 0.4677 0
M  V30 11530 C 1089.3 5.06836 1.41435 0
M  V30 11531 O 1088.33 5.61735 0.918818 0
M  V30 11532 N 1089.53 5.11336 2.74801 0
M  V30 11533 H 1092.3 2.91885 -0.679945 0
M  V30 11534 H 1089.86 1.53739 -0.507543 0
M  V30 11535 H 1091.85 3.65264 1.74255 0
M  V30 11536 H 1090.42 2.59031 1.7499 0
M  V30 11537 H 1089.64 3.92679 -0.34593 0
M  V30 11538 H 1090.93 5.08796 0.0210237 0
M  V30 11539 H 1090.33 4.68124 3.1761 0
M  V30 11540 H 1088.88 5.60013 3.33509 0
M  V30 11541 N 1092.32 0.406567 1.52266 0
M  V30 11542 C 1093.25 -0.45552 2.24628 0
M  V30 11543 C 1094.26 -1.01234 1.27497 0
M  V30 11544 O 1095.45 -0.911718 1.5346 0
M  V30 11545 C 1092.55 -1.64578 2.96256 0
M  V30 11546 C 1091.72 -1.2133 4.20235 0
M  V30 11547 C 1090.78 -2.27018 4.7471 0
M  V30 11548 O 1089.81 -1.87714 5.37357 0
M  V30 11549 N 1091.01 -3.5915 4.56061 0
M  V30 11550 H 1093.77 0.164525 2.99248 0
M  V30 11551 H 1091.34 0.233812 1.60203 0
M  V30 11552 H 1093.33 -2.3484 3.29594 0
M  V30 11553 H 1091.9 -2.1718 2.24837 0
M  V30 11554 H 1091.12 -0.338892 3.92741 0
M  V30 11555 H 1092.41 -0.901268 5.00754 0
M  V30 11556 H 1091.8 -3.93834 4.06092 0
M  V30 11557 H 1090.36 -4.25397 4.93843 0
M  V30 11558 N 1093.79 -1.57004 0.136909 0
M  V30 11559 C 1095.21 -1.82675 -0.385577 0
M  V30 11560 C 1095.56 -1.05508 -1.65416 0
M  V30 11561 O 1094.68 -0.297207 -2.14349 0
M  V30 11562 C 1095.28 -3.31356 -0.706326 0
M  V30 11563 C 1093.84 -3.57644 -1.17337 0
M  V30 11564 C 1092.98 -2.7664 -0.191239 0
M  V30 11565 H 1095.93 -1.54522 0.36177 0
M  V30 11566 H 1095.95 -3.4696 -1.56201 0
M  V30 11567 H 1095.47 -3.87492 0.217147 0
M  V30 11568 H 1093.57 -3.06883 -2.11313 0
M  V30 11569 H 1093.68 -4.66152 -1.10632 0
M  V30 11570 H 1092.04 -2.45403 -0.681867 0
M  V30 11571 H 1092.83 -3.35543 0.725647 0
M  V30 11572 N 1095.27 0.136881 -1.57004 0
M  V30 11573 C 1096.55 0.87705 -1.74835 0
M  V30 11574 C 1096.93 1.98886 -0.707639 0
M  V30 11575 O 1096.28 2.26879 0.271652 0
M  V30 11576 C 1096.49 1.41021 -3.1924 0
M  V30 11577 C 1097.84 1.86963 -3.81222 0
M  V30 11578 O 1098.86 1.5074 -3.22732 0
M  V30 11579 O 1097.72 2.53798 -4.83993 0
M  V30 11580 H 1094.81 0.415192 -0.715223 0
M  V30 11581 H 1097.36 0.122016 -1.69261 0
M  V30 11582 H 1096.13 0.611677 -3.8649 0
M  V30 11583 H 1095.75 2.22846 -3.2928 0
M  V30 11584 N 1096.75 1.52266 0.40654 0
M  V30 11585 C 1098.03 1.57018 1.1664 0
M  V30 11586 C 1098.41 0.352752 2.08132 0
M  V30 11587 O 1097.76 -0.660208 2.18754 0
M  V30 11588 C 1097.97 2.90016 1.94143 0
M  V30 11589 C 1099.31 3.43112 2.50119 0
M  V30 11590 O 1100.34 2.91773 2.0432 0
M  V30 11591 O 1099.2 4.32765 3.33731 0
M  V30 11592 H 1096.29 0.632574 0.532709 0
M  V30 11593 H 1098.84 1.64595 0.413111 0
M  V30 11594 H 1097.61 3.70071 1.27134 0
M  V30 11595 H 1097.23 2.85744 2.76471 0
M  V30 11596 N 1098.23 -0.663929 1.42933 0
M  V30 11597 C 1099.18 -1.77007 1.4371 0
M  V30 11598 C 1100.16 -1.57945 0.306948 0
M  V30 11599 O 1101.35 -1.68239 0.549967 0
M  V30 11600 C 1098.48 -3.15535 1.3525 0
M  V30 11601 C 1097.57 -3.40183 2.53252 0
M  V30 11602 N 1097.96 -3.35357 3.78641 0
M  V30 11603 C 1096.26 -3.70861 2.47746 0
M  V30 11604 C 1096.96 -3.5979 4.57085 0
M  V30 11605 N 1095.94 -3.81084 3.87655 0
M  V30 11606 H 1099.74 -1.71686 2.3854 0
M  V30 11607 H 1097.25 -0.865191 1.37434 0
M  V30 11608 H 1099.25 -3.94816 1.33888 0
M  V30 11609 H 1097.91 -3.22046 0.414308 0
M  V30 11610 H 1098.92 -3.15011 4.11082 0
M  V30 11611 H 1095.6 -3.84552 1.62561 0
M  V30 11612 H 1096.99 -3.61928 5.6609 0
M  V30 11613 N 1099.71 -1.29285 -0.901281 0
M  V30 11614 C 1100.67 -1.14283 -1.98676 0
M  V30 11615 C 1101.67 -0.0787641 -1.60607 0
M  V30 11616 O 1102.86 -0.325574 -1.71131 0
M  V30 11617 C 1099.99 -0.747279 -3.32609 0
M  V30 11618 H 1101.18 -2.10701 -2.13413 0
M  V30 11619 H 1098.74 -1.12449 -1.08558 0
M  V30 11620 H 1099.47 0.217111 -3.23572 0
M  V30 11621 H 1099.26 -1.51608 -3.61604 0
M  V30 11622 H 1100.75 -0.665322 -4.12266 0
M  V30 11623 N 1101.18 1.11143 -1.11736 0
M  V30 11624 C 1102.15 2.15456 -0.78174 0
M  V30 11625 C 1103.15 1.59547 0.200383 0
M  V30 11626 O 1104.34 1.74183 -0.0244893 0
M  V30 11627 C 1101.47 3.40523 -0.160364 0
M  V30 11628 H 1102.66 2.46658 -1.70586 0
M  V30 11629 H 1100.22 1.26381 -0.919644 0
M  V30 11630 H 1100.95 3.14932 0.773835 0
M  V30 11631 H 1100.74 3.82386 -0.867378 0
M  V30 11632 H 1102.23 4.17559 0.0582175 0
M  V30 11633 N 1102.66 0.908147 1.28804 0
M  V30 11634 C 1103.89 0.55409 1.99343 0
M  V30 11635 C 1104.31 -0.863262 1.67908 0
M  V30 11636 O 1103.66 -1.571 0.92875 0
M  V30 11637 C 1103.71 0.746916 3.537 0
M  V30 11638 O 1103.43 2.10849 3.84024 0
M  V30 11639 C 1104.94 0.398939 4.41501 0
M  V30 11640 H 1102.16 0.211784 0.636701 0
M  V30 11641 H 1104.7 1.21981 1.64137 0
M  V30 11642 H 1102.85 0.128264 3.87188 0
M  V30 11643 H 1103.27 2.14404 4.78676 0
M  V30 11644 H 1104.74 0.584656 5.48895 0
M  V30 11645 H 1105.22 -0.664517 4.34144 0
M  V30 11646 H 1105.83 0.994892 4.135 0
M  V30 11647 N 1104.14 -1.42577 0.671525 0
M  V30 11648 C 1105.37 -2.05924 0.200731 0
M  V30 11649 C 1105.78 -1.50434 -1.14083 0
M  V30 11650 O 1105.14 -0.642845 -1.70803 0
M  V30 11651 C 1105.19 -3.61289 0.123505 0
M  V30 11652 O 1104.91 -4.1472 1.41205 0
M  V30 11653 C 1106.41 -4.41743 -0.371178 0
M  V30 11654 H 1103.63 -0.663746 0.0983958 0
M  V30 11655 H 1106.18 -1.82771 0.917338 0
M  V30 11656 H 1104.33 -3.83565 -0.543769 0
M  V30 11657 H 1104.75 -5.0856 1.28325 0
M  V30 11658 H 1106.22 -5.50731 -0.374128 0
M  V30 11659 H 1106.7 -4.16092 -1.40585 0
M  V30 11660 H 1107.3 -4.24478 0.264244 0
M  V30 11661 N 1105.62 -0.414636 -1.52048 0
M  V30 11662 C 1106.84 0.161137 -2.06773 0
M  V30 11663 C 1107.27 1.37628 -1.2822 0
M  V30 11664 O 1106.63 1.78562 -0.313915 0
M  V30 11665 C 1106.67 0.48452 -3.5733 0
M  V30 11666 O 1105.78 1.57466 -3.81154 0
M  V30 11667 H 1105.12 0.0118003 -0.663895 0
M  V30 11668 H 1107.65 -0.589424 -1.95926 0
M  V30 11669 H 1107.66 0.741567 -4.01204 0
M  V30 11670 H 1106.33 -0.403733 -4.13936 0
M  V30 11671 H 1104.91 1.30935 -3.49157 0
M  V30 11672 N 1107.1 1.56929 -0.145233 0
M  V30 11673 C 1108.03 2.19685 0.791263 0
M  V30 11674 C 1109.01 1.14455 1.25833 0
M  V30 11675 O 1110.19 1.42791 1.31622 0
M  V30 11676 C 1107.32 2.81705 2.03124 0
M  V30 11677 C 1106.28 3.92746 1.70101 0
M  V30 11678 C 1105.6 4.41694 3.01347 0
M  V30 11679 C 1106.9 5.13606 0.949025 0
M  V30 11680 H 1108.6 2.98196 0.26825 0
M  V30 11681 H 1106.14 1.43434 0.127584 0
M  V30 11682 H 1108.1 3.24273 2.69119 0
M  V30 11683 H 1106.82 2.00523 2.57795 0
M  V30 11684 H 1105.48 3.50794 1.06486 0
M  V30 11685 H 1105.13 3.57336 3.54006 0
M  V30 11686 H 1104.83 5.1659 2.80016 0
M  V30 11687 H 1106.35 4.86931 3.68416 0
M  V30 11688 H 1107.76 5.53029 1.51102 0
M  V30 11689 H 1106.16 5.94252 0.835711 0
M  V30 11690 H 1107.23 4.84863 -0.0595631 0
M  V30 11691 N 1108.58 -0.128553 1.57075 0
M  V30 11692 C 1109.8 -0.8564 1.88893 0
M  V30 11693 C 1110.23 -1.73095 0.736196 0
M  V30 11694 O 1109.58 -1.78567 -0.313629 0
M  V30 11695 C 1109.63 -1.67368 3.19406 0
M  V30 11696 O 1108.74 -2.77973 3.04639 0
M  V30 11697 H 1108.08 -0.237424 0.620102 0
M  V30 11698 H 1110.61 -0.113821 2.04283 0
M  V30 11699 H 1110.62 -2.0649 3.51889 0
M  V30 11700 H 1109.29 -1.03161 4.02903 0
M  V30 11701 H 1107.87 -2.42123 2.83603 0
M  V30 11702 N 1110.05 -1.5248 -0.398459 0
M  V30 11703 C 1111.3 -1.68262 -1.14277 0
M  V30 11704 C 1111.65 -0.412722 -1.87921 0
M  V30 11705 O 1110.95 0.593257 -1.82184 0
M  V30 11706 C 1111.14 -2.85038 -2.15611 0
M  V30 11707 C 1110.97 -4.23262 -1.51919 0
M  V30 11708 C 1109.74 -4.88627 -1.28732 0
M  V30 11709 C 1111.94 -5.04986 -0.974349 0
M  V30 11710 N 1109.92 -6.10857 -0.610455 0
M  V30 11711 C 1111.29 -6.18542 -0.425008 0
M  V30 11712 C 1113.35 -4.90243 -0.869843 0
M  V30 11713 C 1112.05 -7.18968 0.218609 0
M  V30 11714 C 1114.08 -5.90913 -0.240063 0
M  V30 11715 C 1113.44 -7.03767 0.298552 0
M  V30 11716 H 1109.54 -0.669275 -0.404469 0
M  V30 11717 H 1112.12 -1.8981 -0.433635 0
M  V30 11718 H 1110.29 -2.65087 -2.83872 0
M  V30 11719 H 1112.02 -2.89804 -2.82481 0
M  V30 11720 H 1108.78 -4.47179 -1.55975 0
M  V30 11721 H 1109.2 -6.76386 -0.288338 0
M  V30 11722 H 1113.84 -4.0321 -1.27207 0
M  V30 11723 H 1111.56 -8.05618 0.632874 0
M  V30 11724 H 1115.15 -5.81578 -0.160576 0
M  V30 11725 H 1114.03 -7.80329 0.778185 0
M  V30 11726 N 1111.53 0.65634 -1.43283 0
M  V30 11727 C 1112.48 1.76934 -1.48199 0
M  V30 11728 C 1113.45 1.62748 -0.332023 0
M  V30 11729 O 1114.63 1.83036 -0.538735 0
M  V30 11730 C 1111.77 3.15072 -1.40797 0
M  V30 11731 C 1110.89 3.40414 -2.65974 0
M  V30 11732 C 1110.02 4.68383 -2.50582 0
M  V30 11733 C 1109.06 4.8682 -3.71043 0
M  V30 11734 N 1108.2 6.06043 -3.5448 0
M  V30 11735 H 1113.04 1.72067 -2.43304 0
M  V30 11736 H 1110.57 0.839728 -1.20777 0
M  V30 11737 H 1112.53 3.94925 -1.345 0
M  V30 11738 H 1111.16 3.19017 -0.492754 0
M  V30 11739 H 1110.21 2.54681 -2.82563 0
M  V30 11740 H 1111.53 3.49925 -3.55463 0
M  V30 11741 H 1110.68 5.56357 -2.41975 0
M  V30 11742 H 1109.42 4.61187 -1.58612 0
M  V30 11743 H 1108.42 3.97282 -3.80062 0
M  V30 11744 H 1109.65 4.95847 -4.64017 0
M  V30 11745 H 1107.6 5.99985 -2.65242 0
M  V30 11746 H 1107.51 6.16498 -4.37568 0
M  V30 11747 H 1108.78 6.96647 -3.49719 0
M  V30 11748 N 1113.01 1.29761 0.894412 0
M  V30 11749 C 1114.43 1.07888 1.17611 0
M  V30 11750 C 1114.63 -0.16644 2.00811 0
M  V30 11751 O 1113.68 -0.86272 2.37304 0
M  V30 11752 C 1114.99 2.33723 1.89193 0
M  V30 11753 C 1116.54 2.39095 2.01997 0
M  V30 11754 C 1117.02 3.64747 2.7699 0
M  V30 11755 N 1118.51 3.65501 2.84541 0
M  V30 11756 C 1119.24 4.59411 3.43117 0
M  V30 11757 N 1118.74 5.63657 4.02818 0
M  V30 11758 N 1120.53 4.46971 3.40842 0
M  V30 11759 H 1112.68 2.0967 0.339421 0
M  V30 11760 H 1114.95 0.923788 0.212882 0
M  V30 11761 H 1114.65 3.24551 1.35496 0
M  V30 11762 H 1114.53 2.41642 2.89636 0
M  V30 11763 H 1116.91 1.48751 2.54867 0
M  V30 11764 H 1116.99 2.35158 1.0067 0
M  V30 11765 H 1116.64 4.55445 2.24794 0
M  V30 11766 H 1116.57 3.65944 3.78672 0
M  V30 11767 H 1119.06 2.90129 2.42144 0
M  V30 11768 H 1119.37 6.31429 4.45552 0
M  V30 11769 H 1117.72 5.67461 4.01265 0
M  V30 11770 H 1120.91 3.64719 2.93424 0
M  V30 11771 H 1121.08 5.20341 3.86198 0
M  V30 11772 N 1114.49 -1.10549 1.12324 0
M  V30 11773 C 1115.73 -1.82755 0.879117 0
M  V30 11774 C 1116.07 -1.84905 -0.593604 0
M  V30 11775 O 1115.34 -1.30884 -1.43873 0
M  V30 11776 C 1115.62 -3.29481 1.45308 0
M  V30 11777 C 1115.48 -3.3567 2.99408 0
M  V30 11778 C 1116.8 -4.25828 1.11167 0
M  V30 11779 H 1113.92 -0.663513 0.32081 0
M  V30 11780 H 1116.56 -1.29572 1.38965 0
M  V30 11781 H 1114.71 -3.74902 1.01887 0
M  V30 11782 H 1116.38 -2.98739 3.515 0
M  V30 11783 H 1114.62 -2.75606 3.34998 0
M  V30 11784 H 1115.29 -4.38983 3.34661 0
M  V30 11785 H 1117.77 -3.88635 1.48667 0
M  V30 11786 H 1116.65 -5.26857 1.53991 0
M  V30 11787 H 1116.91 -4.42094 0.0237046 0
M  V30 11788 N 1115.97 -0.914965 -1.28321 0
M  V30 11789 C 1116.91 -0.402792 -2.27258 0
M  V30 11790 C 1117.88 0.523412 -1.57638 0
M  V30 11791 O 1119.07 0.445344 -1.8553 0
M  V30 11792 C 1116.21 0.349956 -3.43321 0
M  V30 11793 C 1115.32 -0.608892 -4.27687 0
M  V30 11794 C 1114.46 0.162425 -5.30952 0
M  V30 11795 C 1113.49 -0.789959 -6.06981 0
M  V30 11796 N 1112.63 -0.0520826 -7.02081 0
M  V30 11797 H 1117.47 -1.25153 -2.70446 0
M  V30 11798 H 1115.01 -0.628444 -1.33 0
M  V30 11799 H 1116.97 0.802589 -4.09407 0
M  V30 11800 H 1115.6 1.16303 -3.01121 0
M  V30 11801 H 1114.65 -1.18005 -3.61634 0
M  V30 11802 H 1115.96 -1.33727 -4.8054 0
M  V30 11803 H 1115.11 0.675563 -6.02927 0
M  V30 11804 H 1113.85 0.923851 -4.7887 0
M  V30 11805 H 1112.86 -1.31446 -5.33856 0
M  V30 11806 H 1114.08 -1.55096 -6.61152 0
M  V30 11807 H 1112.03 0.691331 -6.52347 0
M  V30 11808 H 1111.95 -0.720267 -7.52561 0
M  V30 11809 H 1113.21 0.44082 -7.78253 0
M  V30 11810 N 1117.44 1.42219 -0.679077 0
M  V30 11811 C 1118.69 2.01081 -0.202718 0
M  V30 11812 C 1119.01 1.53986 1.19639 0
M  V30 11813 O 1118.28 0.763359 1.80415 0
M  V30 11814 H 1116.86 0.743526 -0.0719547 0
M  V30 11815 H 1119.52 1.74077 -0.876544 0
M  V30 11816 H 1118.62 3.11411 -0.207314 0
M  V30 11817 N 1118.92 0.422693 1.51826 0
M  V30 11818 C 1120.16 -0.147997 2.03864 0
M  V30 11819 C 1120.53 -1.41224 1.30076 0
M  V30 11820 O 1121.73 -2.06224 1.72409 0
M  V30 11821 C 1120 -0.376248 3.55414 0
M  V30 11822 S 1121.56 -0.912444 4.29208 0
M  V30 11823 H 1118.37 -0.0387084 0.709946 0
M  V30 11824 H 1120.98 0.578733 1.86738 0
M  V30 11825 H 1119.68 0.550451 4.06692 0
M  V30 11826 H 1119.21 -1.13047 3.76807 0
M  V30 11827 H 1121.23 -2.19161 4.45177 0
M  V30 11828 N 1120.4 -1.5685 0.153553 0
M  V30 11829 C 1121.35 -2.1709 -0.783626 0
M  V30 11830 C 1122.32 -1.10567 -1.23952 0
M  V30 11831 O 1123.5 -1.38638 -1.31088 0
M  V30 11832 C 1120.64 -2.80183 -2.01473 0
M  V30 11833 C 1119.75 -4.01117 -1.60403 0
M  V30 11834 C 1118.89 -4.5219 -2.78743 0
M  V30 11835 C 1117.93 -5.65574 -2.34079 0
M  V30 11836 N 1117.07 -6.11235 -3.4545 0
M  V30 11837 H 1121.91 -2.96836 -0.263127 0
M  V30 11838 H 1119.44 -1.46625 -0.11816 0
M  V30 11839 H 1121.4 -3.14912 -2.73654 0
M  V30 11840 H 1120.03 -2.03071 -2.50923 0
M  V30 11841 H 1119.08 -3.72325 -0.779631 0
M  V30 11842 H 1120.39 -4.83243 -1.23605 0
M  V30 11843 H 1119.55 -4.89008 -3.59105 0
M  V30 11844 H 1118.29 -3.69085 -3.18791 0
M  V30 11845 H 1117.29 -5.28326 -1.52158 0
M  V30 11846 H 1118.52 -6.50468 -1.95109 0
M  V30 11847 H 1116.46 -5.31064 -3.85106 0
M  V30 11848 H 1116.38 -6.88304 -3.12687 0
M  V30 11849 H 1117.65 -6.527 -4.26149 0
M  V30 11850 N 1121.88 0.120221 -1.57141 0
M  V30 11851 C 1123.1 0.84637 -1.89344 0
M  V30 11852 C 1123.53 1.72702 -0.745365 0
M  V30 11853 O 1122.89 1.7873 0.304155 0
M  V30 11854 C 1122.93 1.65671 -3.20289 0
M  V30 11855 O 1122.04 2.76353 -3.06109 0
M  V30 11856 H 1121.38 0.234132 -0.621352 0
M  V30 11857 H 1123.91 0.102986 -2.04341 0
M  V30 11858 H 1123.92 2.04621 -3.52979 0
M  V30 11859 H 1122.59 1.01023 -4.03444 0
M  V30 11860 H 1121.17 2.40615 -2.84884 0
M  V30 11861 N 1123.36 1.52689 0.390367 0
M  V30 11862 C 1124.58 1.71839 1.16129 0
M  V30 11863 C 1125.01 0.435226 1.82996 0
M  V30 11864 O 1124.36 -0.60889 1.70769 0
M  V30 11865 C 1124.41 2.86784 2.18603 0
M  V30 11866 O 1123.52 2.53662 3.25161 0
M  V30 11867 H 1122.86 0.571455 0.338135 0
M  V30 11868 H 1125.39 1.99475 0.45508 0
M  V30 11869 H 1125.4 3.12239 2.62622 0
M  V30 11870 H 1124.07 3.79872 1.69322 0
M  V30 11871 H 1122.65 2.38942 2.86289 0
M  V30 11872 N 1124.83 -0.648732 1.43629 0
M  V30 11873 C 1125.74 -1.79046 1.51591 0
M  V30 11874 C 1126.76 -1.69276 0.402697 0
M  V30 11875 O 1127.94 -1.90366 0.657484 0
M  V30 11876 C 1125 -3.15347 1.44073 0
M  V30 11877 C 1124.06 -3.3688 2.66102 0
M  V30 11878 C 1123.3 -4.66679 2.58933 0
M  V30 11879 O 1123.52 -5.46328 1.63956 0
M  V30 11880 O 1122.45 -4.9003 3.49506 0
M  V30 11881 H 1126.28 -1.75283 2.48011 0
M  V30 11882 H 1123.86 -0.807774 1.2568 0
M  V30 11883 H 1125.75 -3.96633 1.42339 0
M  V30 11884 H 1124.42 -3.19691 0.50789 0
M  V30 11885 H 1123.33 -2.55341 2.73407 0
M  V30 11886 H 1124.66 -3.37386 3.58373 0
M  V30 11887 N 1126.31 -1.30234 -0.887518 0
M  V30 11888 C 1127.24 -1.12212 -1.99853 0
M  V30 11889 C 1128.26 -0.0660929 -1.62666 0
M  V30 11890 O 1129.45 -0.311853 -1.75755 0
M  V30 11891 C 1126.55 -0.688591 -3.31831 0
M  V30 11892 C 1125.72 -1.82581 -3.97471 0
M  V30 11893 C 1124.78 -1.38126 -5.07748 0
M  V30 11894 O 1123.8 -2.08805 -5.29518 0
M  V30 11895 N 1125.01 -0.258868 -5.79923 0
M  V30 11896 H 1127.77 -2.07901 -2.15864 0
M  V30 11897 H 1125.33 -1.22336 -1.06045 0
M  V30 11898 H 1127.32 -0.374252 -4.02966 0
M  V30 11899 H 1125.89 0.176185 -3.12103 0
M  V30 11900 H 1125.11 -2.3084 -3.19541 0
M  V30 11901 H 1126.4 -2.58798 -4.38065 0
M  V30 11902 H 1125.8 0.330131 -5.64736 0
M  V30 11903 H 1124.36 -0.00396813 -6.518 0
M  V30 11904 N 1127.79 1.09952 -1.12909 0
M  V30 11905 C 1128.74 2.18525 -0.796849 0
M  V30 11906 C 1129.73 1.67985 0.218483 0
M  V30 11907 O 1130.94 1.79839 0.07618 0
M  V30 11908 H 1127.31 0.712714 -0.239882 0
M  V30 11909 H 1129.28 2.43783 -1.72083 0
M  V30 11910 C 1128.03 3.46625 -0.273237 0
M  V30 11911 H 1127.36 3.85879 -1.04582 0
M  V30 11912 H 1128.8 4.23926 -0.0791355 0
M  V30 11913 C 1127.26 3.2172 0.999903 0
M  V30 11914 O 1127.79 3.43851 2.07676 0
M  V30 11915 N 1125.99 2.75356 0.928833 0
M  V30 11916 H 1125.54 2.57547 0.052379 0
M  V30 11917 H 1125.5 2.5907 1.78129 0
M  V30 11918 N 1129.27 0.921757 1.27833 0
M  V30 11919 C 1130.52 0.557974 1.94245 0
M  V30 11920 C 1130.84 -0.90268 1.72849 0
M  V30 11921 O 1130.11 -1.63915 1.07279 0
M  V30 11922 H 1128.69 0.203364 0.718785 0
M  V30 11923 H 1131.35 1.17286 1.5566 0
M  V30 11924 H 1130.45 0.759202 3.02725 0
M  V30 11925 N 1130.75 -1.41857 0.686609 0
M  V30 11926 C 1131.68 -2.28174 -0.0347358 0
M  V30 11927 C 1132.66 -1.41732 -0.796928 0
M  V30 11928 O 1133.84 -1.71165 -0.789607 0
M  V30 11929 C 1130.97 -3.21801 -1.0565 0
M  V30 11930 C 1130.01 -4.24727 -0.388523 0
M  V30 11931 S 1130.85 -5.28508 0.862546 0
M  V30 11932 C 1132 -6.25701 -0.157849 0
M  V30 11933 H 1132.24 -2.89005 0.697381 0
M  V30 11934 H 1129.77 -1.46861 0.476562 0
M  V30 11935 H 1131.73 -3.76278 -1.64089 0
M  V30 11936 H 1130.39 -2.60082 -1.76114 0
M  V30 11937 H 1129.58 -4.90471 -1.15991 0
M  V30 11938 H 1129.18 -3.73799 0.122567 0
M  V30 11939 H 1131.48 -6.6987 -1.01393 0
M  V30 11940 H 1132.42 -7.06569 0.465437 0
M  V30 11941 H 1132.83 -5.62204 -0.508614 0
M  V30 11942 N 1132.22 -0.430739 -1.51599 0
M  V30 11943 C 1133.13 0.390347 -2.3133 0
M  V30 11944 C 1134.15 1.03376 -1.39962 0
M  V30 11945 O 1135.33 1.03057 -1.73035 0
M  V30 11946 C 1132.39 1.48039 -3.13505 0
M  V30 11947 C 1131.45 0.857792 -4.20643 0
M  V30 11948 C 1130.69 1.89589 -4.9889 0
M  V30 11949 O 1130.91 3.11717 -4.77691 0
M  V30 11950 O 1129.84 1.49009 -5.83164 0
M  V30 11951 H 1133.67 -0.260358 -3.02582 0
M  V30 11952 H 1131.25 -0.193428 -1.48143 0
M  V30 11953 H 1133.14 2.11272 -3.64612 0
M  V30 11954 H 1131.81 2.1153 -2.45024 0
M  V30 11955 H 1130.72 0.187592 -3.73629 0
M  V30 11956 H 1132.05 0.266474 -4.91478 0
M  V30 11957 N 1133.7 1.56767 -0.161869 0
M  V30 11958 C 1134.63 2.1466 0.803356 0
M  V30 11959 C 1135.65 1.09977 1.20037 0
M  V30 11960 O 1136.84 1.37199 1.14187 0
M  V30 11961 C 1133.94 2.66663 2.09151 0
M  V30 11962 C 1133.11 3.95904 1.85953 0
M  V30 11963 C 1132.17 4.33067 2.98897 0
M  V30 11964 O 1131.19 5.01119 2.69942 0
M  V30 11965 N 1132.4 3.93856 4.26448 0
M  V30 11966 H 1135.16 2.98108 0.308472 0
M  V30 11967 H 1132.72 1.61886 0.0212238 0
M  V30 11968 H 1134.71 2.88528 2.83784 0
M  V30 11969 H 1133.28 1.87856 2.49857 0
M  V30 11970 H 1132.5 3.82513 0.952751 0
M  V30 11971 H 1133.79 4.8033 1.67811 0
M  V30 11972 H 1133.19 3.39051 4.52836 0
M  V30 11973 H 1131.75 4.20741 4.97815 0
M  V30 11974 N 1135.18 -0.111886 1.57202 0
M  V30 11975 C 1136.13 -1.13688 2.00858 0
M  V30 11976 C 1137.1 -1.40752 0.881939 0
M  V30 11977 O 1138.28 -1.52498 1.14669 0
M  V30 11978 C 1135.42 -2.45641 2.42393 0
M  V30 11979 C 1134.54 -2.25452 3.68504 0
M  V30 11980 C 1133.67 -3.50686 3.9899 0
M  V30 11981 C 1132.71 -3.25685 5.18262 0
M  V30 11982 N 1131.85 -4.4314 5.44583 0
M  V30 11983 H 1136.69 -0.757611 2.88209 0
M  V30 11984 H 1134.22 -0.362582 1.42561 0
M  V30 11985 H 1136.18 -3.22627 2.64514 0
M  V30 11986 H 1134.81 -2.81447 1.58074 0
M  V30 11987 H 1133.86 -1.39349 3.53958 0
M  V30 11988 H 1135.18 -2.0296 4.55641 0
M  V30 11989 H 1134.33 -4.36087 4.21797 0
M  V30 11990 H 1133.07 -3.76216 3.10343 0
M  V30 11991 H 1132.07 -2.38675 4.95292 0
M  V30 11992 H 1133.3 -3.01518 6.08493 0
M  V30 11993 H 1131.24 -4.68778 4.58893 0
M  V30 11994 H 1131.16 -4.23778 6.26058 0
M  V30 11995 H 1132.43 -5.29654 5.71915 0
M  V30 11996 N 1136.66 -1.52894 -0.382264 0
M  V30 11997 C 1137.89 -1.72152 -1.14766 0
M  V30 11998 C 1138.3 -0.442911 -1.83531 0
M  V30 11999 O 1137.66 0.583085 -1.72935 0
M  V30 12000 C 1137.71 -2.87566 -2.19062 0
M  V30 12001 O 1137.43 -4.10478 -1.53099 0
M  V30 12002 C 1138.93 -3.18559 -3.08277 0
M  V30 12003 H 1136.15 -0.576212 -0.343832 0
M  V30 12004 H 1138.7 -1.99571 -0.446273 0
M  V30 12005 H 1136.85 -2.62589 -2.84826 0
M  V30 12006 H 1137.26 -4.74989 -2.22454 0
M  V30 12007 H 1138.74 -4.02763 -3.77473 0
M  V30 12008 H 1139.22 -2.33222 -3.72161 0
M  V30 12009 H 1139.82 -3.454 -2.48151 0
M  V30 12010 N 1138.14 0.641106 -1.43971 0
M  V30 12011 C 1139.39 1.39676 -1.45511 0
M  V30 12012 C 1139.7 1.95403 -0.0877084 0
M  V30 12013 O 1140.91 2.71493 0.0193965 0
M  V30 12014 C 1139.36 2.52839 -2.56126 0
M  V30 12015 C 1138.97 2.03668 -3.99028 0
M  V30 12016 C 1140.71 3.30118 -2.66875 0
M  V30 12017 C 1138.62 3.14114 -5.01085 0
M  V30 12018 H 1137.55 0.524854 -0.541336 0
M  V30 12019 H 1140.2 0.69075 -1.70003 0
M  V30 12020 H 1138.58 3.25968 -2.24857 0
M  V30 12021 H 1139.76 1.3747 -4.39817 0
M  V30 12022 H 1138.07 1.39233 -3.92432 0
M  V30 12023 H 1140.67 4.12434 -3.40297 0
M  V30 12024 H 1141.01 3.78946 -1.72353 0
M  V30 12025 H 1141.55 2.64075 -2.97505 0
M  V30 12026 H 1138.28 2.70241 -5.97202 0
M  V30 12027 H 1137.8 3.78985 -4.64898 0
M  V30 12028 H 1139.48 3.79051 -5.24337 0
M  V30 12029 N 1139.62 1.30703 0.880598 0
M  V30 12030 C 1140.86 1.19142 1.62752 0
M  V30 12031 C 1141.18 -0.251795 1.93973 0
M  V30 12032 O 1142.38 -0.488971 2.67061 0
M  V30 12033 C 1140.84 2.08503 2.93351 0
M  V30 12034 C 1140.45 3.57758 2.69653 0
M  V30 12035 C 1142.19 2.05715 3.71324 0
M  V30 12036 C 1140.1 4.39161 3.96096 0
M  V30 12037 H 1139.03 0.442332 0.610622 0
M  V30 12038 H 1141.68 1.55483 0.974547 0
M  V30 12039 H 1140.06 1.65049 3.59965 0
M  V30 12040 H 1141.24 4.09388 2.11513 0
M  V30 12041 H 1139.55 3.62414 2.0505 0
M  V30 12042 H 1142.15 2.63783 4.65105 0
M  V30 12043 H 1142.49 1.04168 4.03057 0
M  V30 12044 H 1143.02 2.47313 3.11579 0
M  V30 12045 H 1139.76 5.4142 3.69519 0
M  V30 12046 H 1139.28 3.92293 4.53725 0
M  V30 12047 H 1140.96 4.50823 4.64077 0
M  V30 12048 N 1141.09 -1.09351 1.1349 0
M  V30 12049 C 1142.02 -2.18037 0.835588 0
M  V30 12050 C 1143 -1.68856 -0.205373 0
M  V30 12051 O 1144.19 -1.94094 -0.0641357 0
M  V30 12052 C 1141.32 -3.45987 0.301661 0
M  V30 12053 C 1140.27 -4.08507 1.27696 0
M  V30 12054 C 1139.6 -5.31292 0.602758 0
M  V30 12055 C 1140.9 -4.50916 2.63575 0
M  V30 12056 H 1142.59 -2.43332 1.74441 0
M  V30 12057 H 1140.14 -1.1695 0.840166 0
M  V30 12058 H 1142.09 -4.21324 0.079928 0
M  V30 12059 H 1140.82 -3.20217 -0.642552 0
M  V30 12060 H 1139.48 -3.3519 1.4847 0
M  V30 12061 H 1139.12 -5.01802 -0.346953 0
M  V30 12062 H 1138.82 -5.74075 1.25345 0
M  V30 12063 H 1140.35 -6.09351 0.390325 0
M  V30 12064 H 1141.76 -5.17474 2.46765 0
M  V30 12065 H 1140.16 -5.04586 3.24827 0
M  V30 12066 H 1141.23 -3.63279 3.2118 0
M  V30 12067 N 1142.57 -0.928524 -1.27343 0
M  V30 12068 C 1143.82 -0.565207 -1.93619 0
M  V30 12069 C 1144.13 0.897988 -1.73769 0
M  V30 12070 O 1145.34 1.37012 -2.34393 0
M  V30 12071 C 1143.8 -0.960052 -3.46859 0
M  V30 12072 C 1143.4 -2.44399 -3.75464 0
M  V30 12073 C 1145.15 -0.668026 -4.19211 0
M  V30 12074 C 1143.05 -2.77819 -5.22083 0
M  V30 12075 H 1141.98 -0.207665 -0.724839 0
M  V30 12076 H 1144.64 -1.12945 -1.44623 0
M  V30 12077 H 1143.02 -0.324454 -3.94669 0
M  V30 12078 H 1144.19 -3.12756 -3.38408 0
M  V30 12079 H 1142.51 -2.70799 -3.16317 0
M  V30 12080 H 1145.1 -0.894207 -5.2717 0
M  V30 12081 H 1145.45 0.394788 -4.14424 0
M  V30 12082 H 1145.98 -1.26276 -3.77226 0
M  V30 12083 H 1142.72 -3.83013 -5.3196 0
M  V30 12084 H 1142.24 -2.14112 -5.60282 0
M  V30 12085 H 1143.92 -2.65607 -5.89968 0
M  V30 12086 N 1144.05 1.41491 -0.694123 0
M  V30 12087 C 1145.46 1.84283 -0.299439 0
M  V30 12088 C 1145.81 1.58081 1.16211 0
M  V30 12089 O 1144.94 1.05051 1.89191 0
M  V30 12090 C 1145.53 3.34522 -0.536696 0
M  V30 12091 C 1144.09 3.7589 -0.195944 0
M  V30 12092 C 1143.24 2.64908 -0.819692 0
M  V30 12093 H 1146.19 1.31063 -0.894884 0
M  V30 12094 H 1146.21 3.79947 0.205062 0
M  V30 12095 H 1145.72 3.53561 -1.6005 0
M  V30 12096 H 1143.82 3.62452 0.863655 0
M  V30 12097 H 1143.94 4.74671 -0.649954 0
M  V30 12098 H 1142.3 2.53476 -0.249412 0
M  V30 12099 H 1143.08 2.86765 -1.88734 0
M  V30 12100 N 1145.53 0.438773 1.51369 0
M  V30 12101 C 1146.75 -0.128221 2.07003 0
M  V30 12102 C 1147.18 -1.3557 1.30393 0
M  V30 12103 O 1146.54 -1.7804 0.342283 0
M  V30 12104 C 1146.58 -0.42761 3.58056 0
M  V30 12105 O 1145.69 -1.51382 3.83611 0
M  V30 12106 H 1145.03 -0.00123679 0.663999 0
M  V30 12107 H 1147.56 0.62052 1.94963 0
M  V30 12108 H 1147.57 -0.677645 4.02333 0
M  V30 12109 H 1146.24 0.469535 4.13241 0
M  V30 12110 H 1144.82 -1.25363 3.51196 0
M  V30 12111 N 1147.01 -1.56678 0.170181 0
M  V30 12112 C 1148.28 -1.88524 -0.521362 0
M  V30 12113 C 1148.66 -1.07989 -1.81388 0
M  V30 12114 O 1148.01 -0.17347 -2.27841 0
M  V30 12115 C 1148.22 -3.40527 -0.764367 0
M  V30 12116 C 1149.57 -4.10241 -1.09487 0
M  V30 12117 O 1150.59 -3.45837 -0.852945 0
M  V30 12118 O 1149.45 -5.24022 -1.55124 0
M  V30 12119 H 1146.55 -0.782161 -0.268614 0
M  V30 12120 H 1149.09 -1.68414 0.208531 0
M  V30 12121 H 1147.86 -3.91015 0.149416 0
M  V30 12122 H 1147.49 -3.66244 -1.54762 0
M  V30 12123 N 1148.48 0.103547 -1.57259 0
M  V30 12124 C 1149.41 1.12714 -2.04494 0
M  V30 12125 C 1150.39 1.42278 -0.932255 0
M  V30 12126 O 1151.58 1.52453 -1.20298 0
M  V30 12127 C 1148.71 2.44927 -2.46228 0
M  V30 12128 C 1147.66 2.2979 -3.61082 0
M  V30 12129 C 1146.99 3.67105 -3.88765 0
M  V30 12130 C 1148.29 1.7455 -4.9227 0
M  V30 12131 H 1149.98 0.734198 -2.90258 0
M  V30 12132 H 1147.53 0.351725 -1.39638 0
M  V30 12133 H 1149.48 3.16798 -2.77879 0
M  V30 12134 H 1148.21 2.8614 -1.57453 0
M  V30 12135 H 1146.87 1.60366 -3.29664 0
M  V30 12136 H 1146.51 4.05831 -2.97171 0
M  V30 12137 H 1146.21 3.57825 -4.66084 0
M  V30 12138 H 1147.74 4.40456 -4.22884 0
M  V30 12139 H 1149.15 2.36253 -5.22358 0
M  V30 12140 H 1147.55 1.76051 -5.73695 0
M  V30 12141 H 1148.62 0.704242 -4.79759 0
M  V30 12142 N 1149.96 1.53094 0.37415 0
M  V30 12143 C 1150.92 1.78264 1.44065 0
M  V30 12144 C 1151.92 0.652892 1.46949 0
M  V30 12145 O 1153.11 0.921046 1.47859 0
M  V30 12146 C 1150.25 1.89693 2.83248 0
M  V30 12147 H 1151.44 2.73505 1.23025 0
M  V30 12148 H 1148.99 1.44041 0.60678 0
M  V30 12149 H 1149.73 0.964884 3.09613 0
M  V30 12150 H 1149.51 2.71855 2.82554 0
M  V30 12151 H 1151 2.10787 3.60498 0
M  V30 12152 N 1151.44 -0.633461 1.44309 0
M  V30 12153 C 1152.68 -1.40465 1.48489 0
M  V30 12154 C 1153.04 -1.91664 0.113519 0
M  V30 12155 O 1154.24 -2.68783 0.0299948 0
M  V30 12156 C 1152.52 -2.54041 2.51392 0
M  V30 12157 S 1154.07 -3.42256 2.74602 0
M  V30 12158 H 1150.89 -0.479228 0.525225 0
M  V30 12159 H 1153.49 -0.733561 1.81216 0
M  V30 12160 H 1152.2 -2.14734 3.49739 0
M  V30 12161 H 1151.73 -3.25979 2.2023 0
M  V30 12162 H 1153.74 -4.51409 2.06021 0
M  V30 12163 N 1152.92 -1.31168 -0.873655 0
M  V30 12164 C 1154.33 -1.09745 -1.1588 0
M  V30 12165 C 1154.53 0.134471 -2.01051 0
M  V30 12166 O 1153.59 0.824857 -2.38647 0
M  V30 12167 C 1154.9 -2.36704 -1.85451 0
M  V30 12168 C 1156.45 -2.42278 -1.98167 0
M  V30 12169 C 1156.93 -3.69108 -2.71152 0
M  V30 12170 N 1158.42 -3.69981 -2.7869 0
M  V30 12171 C 1159.15 -4.64811 -3.35765 0
M  V30 12172 N 1158.65 -5.69995 -3.938 0
M  V30 12173 N 1160.44 -4.52337 -3.33688 0
M  V30 12174 H 1152.59 -2.10184 -0.306021 0
M  V30 12175 H 1154.86 -0.927058 -0.198159 0
M  V30 12176 H 1154.56 -3.26666 -1.30316 0
M  V30 12177 H 1154.44 -2.46219 -2.85755 0
M  V30 12178 H 1156.82 -1.52787 -2.52468 0
M  V30 12179 H 1156.9 -2.3673 -0.969164 0
M  V30 12180 H 1156.55 -4.58963 -2.1752 0
M  V30 12181 H 1156.48 -3.71922 -3.72803 0
M  V30 12182 H 1158.97 -2.93944 -2.37498 0
M  V30 12183 H 1159.28 -6.38438 -4.3545 0
M  V30 12184 H 1157.63 -5.73773 -3.92186 0
M  V30 12185 H 1160.82 -3.69341 -2.87584 0
M  V30 12186 H 1160.99 -5.2642 -3.77871 0
M  V30 12187 N 1154.4 1.08748 -1.14068 0
M  V30 12188 C 1155.33 2.17591 -0.84714 0
M  V30 12189 C 1156.31 1.68962 0.196415 0
M  V30 12190 O 1157.49 1.94125 0.0538415 0
M  V30 12191 C 1154.62 3.45823 -0.320005 0
M  V30 12192 C 1153.58 4.07824 -1.2986 0
M  V30 12193 C 1152.9 5.30965 -0.630925 0
M  V30 12194 C 1154.2 4.49512 -2.65963 0
M  V30 12195 H 1155.9 2.42404 -1.75729 0
M  V30 12196 H 1153.44 1.16502 -0.846356 0
M  V30 12197 H 1155.4 4.21276 -0.102271 0
M  V30 12198 H 1154.12 3.20553 0.625561 0
M  V30 12199 H 1152.78 3.34398 -1.50245 0
M  V30 12200 H 1152.43 5.01979 0.320337 0
M  V30 12201 H 1152.13 5.73402 -1.28388 0
M  V30 12202 H 1153.65 6.09136 -0.422635 0
M  V30 12203 H 1155.06 5.16159 -2.49506 0
M  V30 12204 H 1153.46 5.02857 -3.27498 0
M  V30 12205 H 1154.53 3.6157 -3.23102 0
M  V30 12206 N 1155.87 0.935264 1.26849 0
M  V30 12207 C 1156.8 0.457776 2.28969 0
M  V30 12208 C 1157.79 -0.48587 1.63013 0
M  V30 12209 O 1158.97 -0.388998 1.90264 0
M  V30 12210 C 1156.1 -0.283332 3.46142 0
M  V30 12211 C 1155.05 0.573196 4.24144 0
M  V30 12212 C 1154.38 -0.297525 5.33872 0
M  V30 12213 C 1155.68 1.84153 4.88759 0
M  V30 12214 H 1157.37 1.31125 2.69159 0
M  V30 12215 H 1154.92 0.631956 1.29392 0
M  V30 12216 H 1156.87 -0.628366 4.16689 0
M  V30 12217 H 1155.6 -1.1709 3.04889 0
M  V30 12218 H 1154.26 0.901043 3.55354 0
M  V30 12219 H 1153.9 -1.18427 4.8886 0
M  V30 12220 H 1153.6 0.272126 5.8697 0
M  V30 12221 H 1155.13 -0.637961 6.07258 0
M  V30 12222 H 1156.54 1.5641 5.51551 0
M  V30 12223 H 1154.94 2.35528 5.51948 0
M  V30 12224 H 1156.01 2.5565 4.12033 0
M  V30 12225 N 1157.35 -1.41121 0.701616 0
M  V30 12226 C 1158.6 -2.00733 0.234682 0
M  V30 12227 C 1158.92 -1.55869 -1.17174 0
M  V30 12228 O 1158.19 -0.791965 -1.79178 0
M  V30 12229 H 1156.77 -0.742288 0.0837745 0
M  V30 12230 H 1159.43 -1.7266 0.904127 0
M  V30 12231 H 1158.53 -3.11041 0.256831 0
M  V30 12232 N 1158.83 -0.446794 -1.51134 0
M  V30 12233 C 1159.76 0.395804 -2.25757 0
M  V30 12234 C 1160.78 0.978178 -1.30137 0
M  V30 12235 O 1161.96 0.87071 -1.55823 0
M  V30 12236 C 1159.06 1.56665 -3.00515 0
M  V30 12237 C 1158.24 1.10146 -4.23305 0
M  V30 12238 C 1157.3 2.14352 -4.80562 0
M  V30 12239 O 1156.32 1.73401 -5.42145 0
M  V30 12240 N 1157.52 3.46932 -4.65423 0
M  V30 12241 H 1160.29 -0.243808 -2.98707 0
M  V30 12242 H 1157.85 -0.276205 -1.59527 0
M  V30 12243 H 1159.84 2.26019 -3.35704 0
M  V30 12244 H 1158.41 2.11142 -2.30516 0
M  V30 12245 H 1157.63 0.234644 -3.93501 0
M  V30 12246 H 1158.92 0.768185 -5.02968 0
M  V30 12247 H 1158.32 3.82929 -4.16391 0
M  V30 12248 H 1156.88 4.12154 -5.04948 0
M  V30 12249 N 1160.31 1.56586 -0.178487 0
M  V30 12250 C 1161.53 2.01915 0.473841 0
M  V30 12251 C 1161.96 1.05789 1.55533 0
M  V30 12252 O 1161.32 0.0386018 1.81259 0
M  V30 12253 C 1161.36 3.45799 1.02251 0
M  V30 12254 O 1160.47 3.52761 2.1362 0
M  V30 12255 H 1159.81 0.654372 0.112666 0
M  V30 12256 H 1162.34 2.02613 -0.284486 0
M  V30 12257 H 1162.35 3.85252 1.34332 0
M  V30 12258 H 1161.02 4.1526 0.230719 0
M  V30 12259 H 1159.6 3.25172 1.8253 0
M  V30 12260 N 1161.79 -0.095206 1.57312 0
M  V30 12261 C 1162.72 -1.14662 1.97301 0
M  V30 12262 C 1163.7 -1.38845 0.846212 0
M  V30 12263 O 1164.88 -1.52607 1.1065 0
M  V30 12264 C 1162.01 -2.49582 2.28968 0
M  V30 12265 C 1161.05 -2.41681 3.51415 0
M  V30 12266 S 1161.89 -1.83343 5.03136 0
M  V30 12267 C 1163.04 -3.19888 5.3798 0
M  V30 12268 H 1163.28 -0.805726 2.86174 0
M  V30 12269 H 1160.81 -0.302881 1.514 0
M  V30 12270 H 1162.77 -3.27202 2.47889 0
M  V30 12271 H 1161.43 -2.80841 1.40667 0
M  V30 12272 H 1160.62 -3.41122 3.71015 0
M  V30 12273 H 1160.22 -1.7219 3.32004 0
M  V30 12274 H 1162.52 -4.16161 5.34618 0
M  V30 12275 H 1163.46 -3.05093 6.39002 0
M  V30 12276 H 1163.87 -3.19414 4.6544 0
M  V30 12277 N 1163.26 -1.53291 -0.366026 0
M  V30 12278 C 1164.54 -1.60055 -1.12436 0
M  V30 12279 C 1164.92 -0.407811 -2.07123 0
M  V30 12280 O 1164.27 0.601977 -2.20428 0
M  V30 12281 C 1164.48 -2.95062 -1.86385 0
M  V30 12282 C 1165.83 -3.49623 -2.40934 0
M  V30 12283 O 1166.85 -2.97088 -1.96512 0
M  V30 12284 O 1165.71 -4.41461 -3.2214 0
M  V30 12285 H 1162.8 -0.646476 -0.51575 0
M  V30 12286 H 1165.35 -1.65632 -0.369326 0
M  V30 12287 H 1164.12 -3.73312 -1.17277 0
M  V30 12288 H 1163.75 -2.92973 -2.68798 0
M  V30 12289 N 1164.74 0.6258 -1.44643 0
M  V30 12290 C 1165.65 1.76611 -1.5442 0
M  V30 12291 C 1166.67 1.68614 -0.429576 0
M  V30 12292 O 1167.84 1.89296 -0.687686 0
M  V30 12293 C 1164.91 3.13015 -1.49071 0
M  V30 12294 C 1163.97 3.32604 -2.71428 0
M  V30 12295 C 1163.2 4.62501 -2.66325 0
M  V30 12296 O 1163.43 5.43651 -1.72626 0
M  V30 12297 O 1162.36 4.84408 -3.57258 0
M  V30 12298 H 1166.19 1.71315 -2.50769 0
M  V30 12299 H 1163.77 0.787677 -1.26949 0
M  V30 12300 H 1165.65 3.94318 -1.48631 0
M  V30 12301 H 1164.33 3.18842 -0.558686 0
M  V30 12302 H 1163.24 2.50959 -2.77435 0
M  V30 12303 H 1164.57 3.31642 -3.63695 0
M  V30 12304 N 1166.22 1.31629 0.866686 0
M  V30 12305 C 1167.45 1.24609 1.65793 0
M  V30 12306 C 1167.87 -0.184944 1.87189 0
M  V30 12307 O 1167.23 -1.1322 1.41601 0
M  V30 12308 C 1167.28 1.9988 3.00134 0
M  V30 12309 O 1166.38 1.33838 3.90079 0
M  V30 12310 H 1165.72 0.430051 0.505917 0
M  V30 12311 H 1168.25 1.73752 1.08035 0
M  V30 12312 H 1168.26 2.09599 3.50046 0
M  V30 12313 H 1166.94 3.03947 2.83882 0
M  V30 12314 H 1165.51 1.3259 3.48532 0
M  V30 12315 N 1167.7 -1.08142 1.14644 0
M  V30 12316 C 1168.95 -1.80225 0.914517 0
M  V30 12317 C 1169.27 -1.86778 -0.560269 0
M  V30 12318 O 1168.54 -1.36284 -1.40724 0
M  V30 12319 H 1167.12 -0.667492 0.335356 0
M  V30 12320 H 1169.78 -1.30729 1.44554 0
M  V30 12321 H 1168.88 -2.82958 1.31685 0
M  V30 12322 N 1169.18 -0.941978 -1.26351 0
M  V30 12323 C 1170.11 -0.469913 -2.28723 0
M  V30 12324 C 1171.09 0.477218 -1.63269 0
M  V30 12325 O 1172.27 0.378902 -1.90468 0
M  V30 12326 C 1169.4 0.264971 -3.46288 0
M  V30 12327 C 1168.36 -0.595682 -4.23834 0
M  V30 12328 C 1167.68 0.269208 -5.34022 0
M  V30 12329 C 1168.98 -1.86743 -4.87775 0
M  V30 12330 H 1170.68 -1.32551 -2.6846 0
M  V30 12331 H 1168.22 -0.638809 -1.29055 0
M  V30 12332 H 1170.18 0.606259 -4.17016 0
M  V30 12333 H 1168.9 1.15471 -3.05506 0
M  V30 12334 H 1167.56 -0.919875 -3.54872 0
M  V30 12335 H 1167.21 1.15832 -4.89481 0
M  V30 12336 H 1166.91 -0.30325 -5.86817 0
M  V30 12337 H 1168.43 0.605748 -6.07588 0
M  V30 12338 H 1169.85 -1.59333 -5.50714 0
M  V30 12339 H 1168.24 -2.38452 -5.50691 0
M  V30 12340 H 1169.31 -2.57831 -4.10671 0
M  V30 12341 N 1170.66 1.40747 -0.709091 0
M  V30 12342 C 1172.07 1.83955 -0.318968 0
M  V30 12343 C 1172.42 1.59304 1.14527 0
M  V30 12344 O 1171.54 1.07052 1.88066 0
M  V30 12345 C 1172.14 3.33934 -0.572147 0
M  V30 12346 C 1170.7 3.75661 -0.235802 0
M  V30 12347 C 1169.84 2.64024 -0.847743 0
M  V30 12348 H 1172.79 1.30107 -0.908734 0
M  V30 12349 H 1172.82 3.80143 0.164752 0
M  V30 12350 H 1172.33 3.51844 -1.63791 0
M  V30 12351 H 1170.43 3.63348 0.825164 0
M  V30 12352 H 1170.54 4.73955 -0.700263 0
M  V30 12353 H 1168.91 2.53197 -0.276283 0
M  V30 12354 H 1169.69 2.84748 -1.91765 0
M  V30 12355 N 1172.13 0.454803 1.50895 0
M  V30 12356 C 1173.07 -0.383826 2.25963 0
M  V30 12357 C 1174.08 -0.971263 1.30653 0
M  V30 12358 O 1175.27 -0.862434 1.56283 0
M  V30 12359 C 1172.37 -1.55069 3.01342 0
M  V30 12360 C 1171.54 -1.07899 4.23883 0
M  V30 12361 C 1170.6 -2.118 4.81692 0
M  V30 12362 O 1169.63 -1.70523 5.43057 0
M  V30 12363 N 1170.83 -3.44459 4.67256 0
M  V30 12364 H 1173.59 0.259646 2.98573 0
M  V30 12365 H 1171.15 0.284661 1.59378 0
M  V30 12366 H 1173.15 -2.24236 3.36898 0
M  V30 12367 H 1171.72 -2.09917 2.31633 0
M  V30 12368 H 1170.94 -0.213773 3.9362 0
M  V30 12369 H 1172.22 -0.741501 5.03368 0
M  V30 12370 H 1171.62 -3.80716 4.18416 0
M  V30 12371 H 1170.18 -4.0947 5.07127 0
M  V30 12372 N 1173.61 -1.56489 0.186789 0
M  V30 12373 C 1174.54 -2.21705 -0.732739 0
M  V30 12374 C 1175.52 -1.17751 -1.22755 0
M  V30 12375 O 1176.71 -1.46231 -1.27789 0
M  V30 12376 C 1173.84 -2.86992 -1.95584 0
M  V30 12377 C 1172.79 -3.97118 -1.59628 0
M  V30 12378 C 1172.12 -4.49529 -2.89531 0
M  V30 12379 C 1173.42 -5.15941 -0.812518 0
M  V30 12380 H 1175.11 -2.98802 -0.189094 0
M  V30 12381 H 1172.66 -1.43722 -0.0895099 0
M  V30 12382 H 1174.61 -3.31295 -2.60426 0
M  V30 12383 H 1173.33 -2.07287 -2.52388 0
M  V30 12384 H 1171.99 -3.53494 -0.971475 0
M  V30 12385 H 1171.64 -3.66596 -3.44407 0
M  V30 12386 H 1171.34 -5.23832 -2.66221 0
M  V30 12387 H 1172.87 -4.96528 -3.55376 0
M  V30 12388 H 1174.28 -5.56841 -1.36386 0
M  V30 12389 H 1172.68 -5.96259 -0.677862 0
M  V30 12390 H 1173.75 -4.84535 0.188095 0
M  V30 12391 N 1175.09 0.086862 -1.5736 0
M  V30 12392 C 1176.32 0.802167 -1.90717 0
M  V30 12393 C 1176.73 1.71875 -0.781304 0
M  V30 12394 O 1176.09 1.80831 0.246255 0
M  V30 12395 C 1176.14 1.60858 -3.23739 0
M  V30 12396 O 1175.86 0.728851 -4.31995 0
M  V30 12397 C 1177.36 2.42621 -3.71012 0
M  V30 12398 H 1174.58 0.228914 -0.630745 0
M  V30 12399 H 1177.13 0.061634 -2.04407 0
M  V30 12400 H 1175.28 2.30153 -3.11622 0
M  V30 12401 H 1175.7 1.2882 -5.08435 0
M  V30 12402 H 1177.17 2.94683 -4.66761 0
M  V30 12403 H 1177.65 3.21462 -2.99264 0
M  V30 12404 H 1178.25 1.78509 -3.86024 0
M  V30 12405 N 1176.57 1.53483 0.357892 0
M  V30 12406 C 1177.79 1.74264 1.12458 0
M  V30 12407 C 1178.22 0.473944 1.82031 0
M  V30 12408 O 1177.58 -0.57253 1.72023 0
M  V30 12409 C 1177.62 2.91356 2.12471 0
M  V30 12410 O 1176.73 2.60502 3.19707 0
M  V30 12411 H 1176.07 0.578499 0.325937 0
M  V30 12412 H 1178.6 2.00395 0.412666 0
M  V30 12413 H 1178.61 3.1774 2.5594 0
M  V30 12414 H 1177.28 3.83378 1.61226 0
M  V30 12415 H 1175.86 2.44961 2.81156 0
M  V30 12416 N 1178.05 -0.61812 1.44973 0
M  V30 12417 C 1179.28 -1.40225 1.51725 0
M  V30 12418 C 1179.68 -1.88643 0.145098 0
M  V30 12419 O 1179.03 -1.62237 -0.861677 0
M  V30 12420 C 1179.09 -2.64808 2.4314 0
M  V30 12421 C 1178.75 -2.381 3.90073 0
M  V30 12422 C 1179.75 -1.99116 4.80259 0
M  V30 12423 C 1177.43 -2.51338 4.34896 0
M  V30 12424 C 1179.43 -1.73716 6.13271 0
M  V30 12425 C 1177.12 -2.25552 5.67952 0
M  V30 12426 C 1178.11 -1.86801 6.56958 0
M  V30 12427 O 1177.8 -1.6131 7.8755 0
M  V30 12428 H 1177.53 -0.436024 0.516584 0
M  V30 12429 H 1180.09 -0.761929 1.90745 0
M  V30 12430 H 1178.32 -3.31524 1.9907 0
M  V30 12431 H 1180.01 -3.26835 2.40694 0
M  V30 12432 H 1180.77 -1.88435 4.46897 0
M  V30 12433 H 1176.65 -2.80468 3.65867 0
M  V30 12434 H 1180.2 -1.43395 6.82703 0
M  V30 12435 H 1176.09 -2.35847 6.00872 0
M  V30 12436 H 1176.86 -1.75449 7.99475 0
M  V30 12437 N 1179.52 -1.32087 -0.859693 0
M  V30 12438 C 1180.8 -1.12984 -1.59668 0
M  V30 12439 C 1181.18 0.311661 -2.08787 0
M  V30 12440 O 1180.53 1.30746 -1.87397 0
M  V30 12441 C 1180.74 -2.15305 -2.74672 0
M  V30 12442 C 1182.09 -2.48371 -3.44379 0
M  V30 12443 O 1183.11 -2.13811 -2.84891 0
M  V30 12444 O 1181.97 -3.07594 -4.51717 0
M  V30 12445 H 1179.06 -0.435657 -0.702945 0
M  V30 12446 H 1181.61 -1.43601 -0.90426 0
M  V30 12447 H 1180.38 -3.12223 -2.35866 0
M  V30 12448 H 1180 -1.85653 -3.51594 0
M  V30 12449 N 1181 1.07532 -1.15215 0
M  V30 12450 C 1182.24 1.81689 -0.936396 0
M  V30 12451 C 1182.61 1.84622 0.527136 0
M  V30 12452 O 1183.81 2.54632 0.861159 0
M  V30 12453 C 1182.08 3.22919 -1.53161 0
M  V30 12454 S 1183.64 4.13845 -1.4587 0
M  V30 12455 H 1180.45 0.626036 -0.337045 0
M  V30 12456 H 1183.06 1.29191 -1.4673 0
M  V30 12457 H 1181.76 3.18372 -2.58974 0
M  V30 12458 H 1181.29 3.80492 -0.999482 0
M  V30 12459 H 1183.31 4.94152 -0.450317 0
M  V30 12460 N 1182.48 0.948665 1.2585 0
M  V30 12461 C 1183.39 0.470525 2.29833 0
M  V30 12462 C 1184.41 -0.45919 1.67832 0
M  V30 12463 O 1185.58 -0.336893 1.98562 0
M  V30 12464 C 1182.65 -0.249635 3.458 0
M  V30 12465 C 1181.71 0.717559 4.23261 0
M  V30 12466 C 1180.94 0.0316724 5.33691 0
M  V30 12467 O 1181.16 -1.18384 5.5798 0
M  V30 12468 O 1180.1 0.71418 5.97648 0
M  V30 12469 H 1183.92 1.33447 2.72811 0
M  V30 12470 H 1181.51 0.714864 1.31187 0
M  V30 12471 H 1183.39 -0.654993 4.16279 0
M  V30 12472 H 1182.07 -1.08885 3.04837 0
M  V30 12473 H 1180.97 1.17301 3.55234 0
M  V30 12474 H 1182.31 1.52461 4.67992 0
M  V30 12475 N 1183.96 -1.40369 0.716545 0
M  V30 12476 C 1185.2 -2.01167 0.256846 0
M  V30 12477 C 1185.54 -1.56689 -1.14727 0
M  V30 12478 O 1184.81 -0.787384 -1.7785 0
M  V30 12479 C 1185.1 -3.58511 0.337963 0
M  V30 12480 C 1184.95 -4.13059 1.78052 0
M  V30 12481 C 1186.27 -4.39142 -0.290295 0
M  V30 12482 H 1183.39 -0.730877 0.0948028 0
M  V30 12483 H 1186.03 -1.66833 0.909225 0
M  V30 12484 H 1184.18 -3.87891 -0.217482 0
M  V30 12485 H 1185.85 -3.94472 2.39143 0
M  V30 12486 H 1184.09 -3.67311 2.30793 0
M  V30 12487 H 1184.76 -5.22217 1.78867 0
M  V30 12488 H 1187.24 -4.15697 0.182987 0
M  V30 12489 H 1186.12 -5.48524 -0.203097 0
M  V30 12490 H 1186.38 -4.20209 -1.37394 0
M  V30 12491 N 1185.44 -0.462799 -1.50652 0
M  V30 12492 C 1186.38 0.349784 -2.29955 0
M  V30 12493 C 1187.38 0.997947 -1.36885 0
M  V30 12494 O 1188.58 0.93 -1.54114 0
M  V30 12495 H 1184.96 0.131635 -0.740389 0
M  V30 12496 H 1186.93 -0.33958 -2.96461 0
M  V30 12497 C 1185.68 1.42398 -3.17204 0
M  V30 12498 H 1185 0.934611 -3.88722 0
M  V30 12499 H 1186.44 1.96528 -3.75703 0
M  V30 12500 C 1184.9 2.42135 -2.34248 0
M  V30 12501 O 1185.43 3.47229 -2.01978 0
M  V30 12502 N 1183.64 2.13647 -1.96985 0
M  V30 12503 H 1183.18 1.28209 -2.23428 0
M  V30 12504 H 1183.14 2.80615 -1.41783 0
M  V30 12505 N 1186.91 1.56388 -0.195085 0
M  V30 12506 C 1187.88 2.17859 0.712053 0
M  V30 12507 C 1188.88 1.13304 1.141 0
M  V30 12508 O 1190.07 1.38689 1.05409 0
M  V30 12509 C 1187.2 2.78065 1.97213 0
M  V30 12510 H 1188.39 2.9938 0.176529 0
M  V30 12511 H 1185.95 1.56205 0.0545322 0
M  V30 12512 H 1186.68 2.00342 2.55017 0
M  V30 12513 H 1186.47 3.54603 1.67329 0
M  V30 12514 H 1187.96 3.25266 2.619 0
M  V30 12515 N 1188.39 -0.0785156 1.57404 0
M  V30 12516 C 1189.8 -0.631132 1.75709 0
M  V30 12517 C 1190.15 -1.78261 0.819605 0
M  V30 12518 O 1189.28 -2.164 0.00206912 0
M  V30 12519 C 1189.87 -1.15168 3.18625 0
M  V30 12520 C 1188.43 -1.65021 3.38297 0
M  V30 12521 C 1187.58 -0.566773 2.71446 0
M  V30 12522 H 1190.53 0.147631 1.58012 0
M  V30 12523 H 1190.55 -2.02065 3.22413 0
M  V30 12524 H 1190.06 -0.313399 3.86833 0
M  V30 12525 H 1188.17 -2.51196 2.75194 0
M  V30 12526 H 1188.28 -1.73179 4.46706 0
M  V30 12527 H 1186.64 -1.01021 2.33809 0
M  V30 12528 H 1187.43 0.261204 3.42305 0
M  V30 12529 N 1189.87 -1.5367 -0.349747 0
M  V30 12530 C 1191.12 -1.69835 -1.08807 0
M  V30 12531 C 1191.43 -0.46497 -1.89993 0
M  V30 12532 O 1192.64 -0.507452 -2.66716 0
M  V30 12533 C 1191.09 -3.00294 -1.98372 0
M  V30 12534 C 1190.7 -4.30949 -1.22422 0
M  V30 12535 C 1192.45 -3.25826 -2.72099 0
M  V30 12536 C 1190.35 -5.52486 -2.1098 0
M  V30 12537 H 1189.28 -0.63284 -0.409915 0
M  V30 12538 H 1191.93 -1.80171 -0.347968 0
M  V30 12539 H 1190.32 -2.838 -2.76176 0
M  V30 12540 H 1191.49 -4.58126 -0.495707 0
M  V30 12541 H 1189.81 -4.11983 -0.604896 0
M  V30 12542 H 1192.4 -4.13817 -3.38615 0
M  V30 12543 H 1192.75 -2.42566 -3.3833 0
M  V30 12544 H 1193.28 -3.43067 -2.0137 0
M  V30 12545 H 1190.02 -6.38271 -1.49301 0
M  V30 12546 H 1189.54 -5.29566 -2.81638 0
M  V30 12547 H 1191.22 -5.87889 -2.70176 0
M  V30 12548 N 1191.35 0.610423 -1.45298 0
M  V30 12549 C 1192.28 1.73507 -1.4976 0
M  V30 12550 C 1193.29 1.58092 -0.38867 0
M  V30 12551 O 1194.48 1.66026 -0.655571 0
M  V30 12552 C 1191.58 3.11475 -1.33554 0
M  V30 12553 C 1190.76 3.53156 -2.5807 0
M  V30 12554 C 1189.81 4.70076 -2.36463 0
M  V30 12555 O 1188.84 4.77337 -3.10061 0
M  V30 12556 N 1190.04 5.63155 -1.40843 0
M  V30 12557 H 1192.81 1.70144 -2.46721 0
M  V30 12558 H 1190.37 0.79562 -1.41002 0
M  V30 12559 H 1192.36 3.87444 -1.16914 0
M  V30 12560 H 1190.93 3.09361 -0.448803 0
M  V30 12561 H 1190.15 2.67178 -2.89844 0
M  V30 12562 H 1191.44 3.77761 -3.40843 0
M  V30 12563 H 1190.84 5.60001 -0.800982 0
M  V30 12564 H 1189.39 6.38669 -1.30175 0
M  V30 12565 N 1192.83 1.32541 0.852676 0
M  V30 12566 C 1194.07 1.22971 1.60383 0
M  V30 12567 C 1194.4 -0.208009 1.93887 0
M  V30 12568 O 1193.67 -1.13326 1.59794 0
M  V30 12569 H 1192.25 0.452149 0.594618 0
M  V30 12570 H 1194.91 1.66089 1.01983 0
M  V30 12571 H 1194 1.81373 2.53989 0
M  V30 12572 N 1194.3 -1.0692 1.15784 0
M  V30 12573 C 1195.53 -1.83849 0.959903 0
M  V30 12574 C 1195.95 -1.8169 -0.486873 0
M  V30 12575 O 1195.31 -1.21305 -1.34739 0
M  V30 12576 C 1195.36 -3.28642 1.48414 0
M  V30 12577 O 1194.46 -4.0665 0.686249 0
M  V30 12578 H 1193.81 -0.569115 0.342059 0
M  V30 12579 H 1196.34 -1.34851 1.53871 0
M  V30 12580 H 1196.35 -3.7947 1.49888 0
M  V30 12581 H 1195.02 -3.29529 2.53739 0
M  V30 12582 H 1193.6 -3.65453 0.741501 0
M  V30 12583 N 1195.78 -0.955326 -1.25345 0
M  V30 12584 C 1197.2 -0.659863 -1.4532 0
M  V30 12585 C 1197.4 0.78238 -1.85691 0
M  V30 12586 O 1196.45 1.5576 -1.98734 0
M  V30 12587 C 1197.77 -1.63339 -2.5247 0
M  V30 12588 C 1199.32 -1.64464 -2.66309 0
M  V30 12589 C 1199.79 -2.60583 -3.76644 0
M  V30 12590 N 1201.28 -2.58951 -3.84055 0
M  V30 12591 C 1202.02 -3.30002 -4.6892 0
M  V30 12592 N 1201.51 -4.10528 -5.58067 0
M  V30 12593 N 1203.31 -3.18886 -4.62891 0
M  V30 12594 H 1195.46 -1.88734 -0.97433 0
M  V30 12595 H 1197.72 -0.811858 -0.48948 0
M  V30 12596 H 1197.43 -2.66358 -2.29665 0
M  V30 12597 H 1197.3 -1.39644 -3.50399 0
M  V30 12598 H 1199.69 -0.621622 -2.88479 0
M  V30 12599 H 1199.77 -1.92218 -1.68778 0
M  V30 12600 H 1199.41 -3.63011 -3.55226 0
M  V30 12601 H 1199.34 -2.30113 -4.73662 0
M  V30 12602 H 1201.83 -2.00491 -3.20331 0
M  V30 12603 H 1202.15 -4.6166 -6.1975 0
M  V30 12604 H 1200.49 -4.14626 -5.57773 0
M  V30 12605 H 1203.68 -2.55447 -3.92255 0
M  V30 12606 H 1203.85 -3.74524 -5.28806 0
M  V30 12607 N 1197.26 1.39987 -0.723979 0
M  V30 12608 C 1198.21 2.32507 -0.0658033 0
M  V30 12609 C 1199.2 1.52484 0.737908 0
M  V30 12610 O 1200.41 1.68225 0.640332 0
M  V30 12611 H 1196.78 0.751996 -0.00247717 0
M  V30 12612 H 1198.76 2.85657 -0.862696 0
M  V30 12613 C 1197.5 3.37509 0.835628 0
M  V30 12614 H 1196.83 3.99157 0.226589 0
M  V30 12615 H 1198.27 4.04722 1.26396 0
M  V30 12616 C 1196.73 2.73665 1.96492 0
M  V30 12617 O 1197.26 2.60649 3.05655 0
M  V30 12618 N 1195.46 2.3192 1.75104 0
M  V30 12619 H 1195.01 2.42707 0.863204 0
M  V30 12620 H 1194.97 1.89542 2.50841 0
M  V30 12621 N 1198.74 0.470782 1.50404 0
M  V30 12622 C 1199.67 -0.313458 2.31386 0
M  V30 12623 C 1200.65 -0.990623 1.38278 0
M  V30 12624 O 1201.84 -0.987854 1.67198 0
M  V30 12625 C 1198.97 -1.39599 3.18009 0
M  V30 12626 C 1197.92 -0.840443 4.19667 0
M  V30 12627 C 1197.25 -2.02124 4.95025 0
M  V30 12628 C 1198.55 0.148055 5.2209 0
M  V30 12629 H 1200.24 0.362432 2.97198 0
M  V30 12630 H 1197.79 0.175745 1.42924 0
M  V30 12631 H 1199.74 -1.9521 3.73458 0
M  V30 12632 H 1198.46 -2.10064 2.50081 0
M  V30 12633 H 1197.12 -0.306302 3.65318 0
M  V30 12634 H 1196.77 -2.71286 4.23571 0
M  V30 12635 H 1196.47 -1.65574 5.6379 0
M  V30 12636 H 1197.99 -2.58226 5.5331 0
M  V30 12637 H 1199.41 -0.318874 5.72413 0
M  V30 12638 H 1197.8 0.427811 5.98573 0
M  V30 12639 H 1198.87 1.07404 4.72855 0
M  V30 12640 N 1200.22 -1.56282 0.203376 0
M  V30 12641 C 1201.15 -2.2247 -0.709183 0
M  V30 12642 C 1202.13 -1.19046 -1.21499 0
M  V30 12643 O 1203.31 -1.47578 -1.26231 0
M  V30 12644 C 1200.44 -2.8905 -1.92529 0
M  V30 12645 C 1199.4 -3.98789 -1.55407 0
M  V30 12646 C 1198.72 -4.52574 -2.84747 0
M  V30 12647 C 1200.02 -5.16774 -0.75775 0
M  V30 12648 H 1201.72 -2.98986 -0.157392 0
M  V30 12649 H 1199.26 -1.43808 -0.0742613 0
M  V30 12650 H 1201.22 -3.34038 -2.56898 0
M  V30 12651 H 1199.94 -2.09952 -2.50175 0
M  V30 12652 H 1198.6 -3.54504 -0.933928 0
M  V30 12653 H 1198.25 -3.70229 -3.40499 0
M  V30 12654 H 1197.95 -5.26627 -2.6065 0
M  V30 12655 H 1199.47 -5.00269 -3.5009 0
M  V30 12656 H 1200.89 -5.58256 -1.30472 0
M  V30 12657 H 1199.28 -5.96945 -0.614583 0
M  V30 12658 H 1200.35 -4.84308 0.239476 0
M  V30 12659 N 1201.7 0.070167 -1.57444 0
M  V30 12660 C 1202.63 1.10996 -2.0053 0
M  V30 12661 C 1203.64 1.3489 -0.91151 0
M  V30 12662 O 1204.83 1.33102 -1.18938 0
M  V30 12663 C 1201.93 2.46053 -2.33048 0
M  V30 12664 C 1201.1 2.42092 -3.64294 0
M  V30 12665 C 1200.16 3.5927 -3.84463 0
M  V30 12666 O 1199.19 3.40625 -4.5603 0
M  V30 12667 N 1200.39 4.79677 -3.26941 0
M  V30 12668 H 1203.15 0.743029 -2.90343 0
M  V30 12669 H 1200.72 0.258794 -1.59818 0
M  V30 12670 H 1202.71 3.23089 -2.43712 0
M  V30 12671 H 1201.28 2.74742 -1.49116 0
M  V30 12672 H 1200.5 1.5043 -3.64368 0
M  V30 12673 H 1201.79 2.36548 -4.50469 0
M  V30 12674 H 1201.18 4.97729 -2.68855 0
M  V30 12675 H 1199.74 5.54219 -3.43051 0
M  V30 12676 N 1203.17 1.53854 0.341593 0
M  V30 12677 C 1204.42 1.70856 1.07948 0
M  V30 12678 C 1204.74 0.475474 1.89114 0
M  V30 12679 O 1204.01 -0.510592 1.89129 0
M  V30 12680 H 1202.59 0.629914 0.401519 0
M  V30 12681 H 1205.25 1.91112 0.382393 0
M  V30 12682 H 1204.35 2.5803 1.75575 0
M  V30 12683 N 1204.65 -0.602709 1.4562 0
M  V30 12684 C 1205.56 -1.74132 1.5721 0
M  V30 12685 C 1206.58 -1.67909 0.456347 0
M  V30 12686 O 1207.75 -1.88178 0.717714 0
M  V30 12687 C 1204.82 -3.10604 1.54032 0
M  V30 12688 C 1203.88 -3.28244 2.76685 0
M  V30 12689 C 1203.11 -4.58205 2.73649 0
M  V30 12690 O 1203.34 -5.40836 1.81254 0
M  V30 12691 O 1202.27 -4.78663 3.64919 0
M  V30 12692 H 1206.1 -1.67304 2.53462 0
M  V30 12693 H 1203.68 -0.767381 1.28186 0
M  V30 12694 H 1205.56 -3.91904 1.54885 0
M  V30 12695 H 1204.24 -3.17913 0.60934 0
M  V30 12696 H 1203.14 -2.46514 2.81393 0
M  V30 12697 H 1204.48 -3.25814 3.68925 0
M  V30 12698 N 1206.13 -1.32992 -0.845635 0
M  V30 12699 C 1207.04 -1.24701 -1.98713 0
M  V30 12700 C 1208.06 -0.158864 -1.73273 0
M  V30 12701 O 1209.23 -0.381209 -1.97759 0
M  V30 12702 C 1206.3 -0.979524 -3.32575 0
M  V30 12703 C 1205.36 -2.15701 -3.71176 0
M  V30 12704 C 1204.59 -1.90219 -4.98651 0
M  V30 12705 O 1204.81 -0.849171 -5.64044 0
M  V30 12706 O 1203.75 -2.76571 -5.34595 0
M  V30 12707 H 1207.57 -2.20683 -2.08645 0
M  V30 12708 H 1205.16 -1.12971 -0.97765 0
M  V30 12709 H 1207.04 -0.847219 -4.12796 0
M  V30 12710 H 1205.72 -0.0499398 -3.23661 0
M  V30 12711 H 1204.62 -2.34483 -2.91494 0
M  V30 12712 H 1205.96 -3.0697 -3.84747 0
M  V30 12713 N 1207.61 1.06304 -1.1635 0
M  V30 12714 C 1208.54 2.15745 -0.893103 0
M  V30 12715 C 1209.52 1.69341 0.160531 0
M  V30 12716 O 1210.7 1.94196 0.0126526 0
M  V30 12717 C 1207.83 3.45066 -0.393287 0
M  V30 12718 C 1206.79 4.04978 -1.38482 0
M  V30 12719 C 1206.11 5.29507 -0.743409 0
M  V30 12720 C 1207.41 4.4377 -2.75438 0
M  V30 12721 H 1209.11 2.38622 -1.80831 0
M  V30 12722 H 1206.65 1.14681 -0.870878 0
M  V30 12723 H 1208.61 4.20964 -0.191607 0
M  V30 12724 H 1207.33 3.21808 0.557426 0
M  V30 12725 H 1205.99 3.31136 -1.57304 0
M  V30 12726 H 1205.64 5.02545 0.213787 0
M  V30 12727 H 1205.34 5.7055 -1.40521 0
M  V30 12728 H 1206.86 6.08102 -0.551746 0
M  V30 12729 H 1208.28 5.1075 -2.60398 0
M  V30 12730 H 1206.67 4.95797 -3.38091 0
M  V30 12731 H 1207.74 3.54636 -3.30699 0
M  V30 12732 N 1209.09 0.96196 1.24836 0
M  V30 12733 C 1210.02 0.506241 2.27946 0
M  V30 12734 C 1211 -0.451183 1.64007 0
M  V30 12735 O 1212.18 -0.348552 1.91046 0
M  V30 12736 C 1209.31 -0.209846 3.46665 0
M  V30 12737 C 1208.27 0.663035 4.22833 0
M  V30 12738 C 1207.59 -0.184216 5.34383 0
M  V30 12739 C 1208.89 1.94479 4.84742 0
M  V30 12740 H 1210.59 1.36805 2.66317 0
M  V30 12741 H 1208.13 0.65926 1.28023 0
M  V30 12742 H 1210.08 -0.539838 4.17928 0
M  V30 12743 H 1208.81 -1.10596 3.07305 0
M  V30 12744 H 1207.47 0.976216 3.53363 0
M  V30 12745 H 1207.12 -1.08031 4.91262 0
M  V30 12746 H 1206.82 0.39657 5.8626 0
M  V30 12747 H 1208.34 -0.509009 6.08475 0
M  V30 12748 H 1209.75 1.68074 5.48109 0
M  V30 12749 H 1208.15 2.47183 5.46828 0
M  V30 12750 H 1209.22 2.64332 4.06517 0
M  V30 12751 N 1210.56 -1.39601 0.731392 0
M  V30 12752 C 1211.98 -1.54334 0.406594 0
M  V30 12753 C 1212.18 -1.69925 -1.08295 0
M  V30 12754 O 1211.24 -1.69771 -1.86906 0
M  V30 12755 C 1212.55 -2.76303 1.18647 0
M  V30 12756 C 1214.1 -2.90135 1.17433 0
M  V30 12757 C 1214.57 -4.15038 1.93669 0
M  V30 12758 N 1216.06 -4.2207 1.90817 0
M  V30 12759 C 1216.8 -5.17656 2.46616 0
M  V30 12760 N 1216.29 -6.19054 3.11037 0
M  V30 12761 N 1218.09 -5.09847 2.3667 0
M  V30 12762 H 1210.24 -1.27728 1.69703 0
M  V30 12763 H 1212.5 -0.6188 0.718186 0
M  V30 12764 H 1212.21 -2.71113 2.24032 0
M  V30 12765 H 1212.08 -3.68866 0.788514 0
M  V30 12766 H 1214.47 -2.9482 0.128615 0
M  V30 12767 H 1214.55 -1.98646 1.61163 0
M  V30 12768 H 1214.19 -4.11115 2.9824 0
M  V30 12769 H 1214.12 -5.05565 1.47349 0
M  V30 12770 H 1216.61 -3.49437 1.43882 0
M  V30 12771 H 1216.93 -6.88444 3.51091 0
M  V30 12772 H 1215.27 -6.19452 3.15126 0
M  V30 12773 H 1218.46 -4.29566 1.85987 0
M  V30 12774 H 1218.64 -5.84165 2.80455 0
M  V30 12775 N 1212.04 -0.478751 -1.50152 0
M  V30 12776 C 1213.01 0.300181 -2.27226 0
M  V30 12777 C 1214.01 0.913705 -1.32318 0
M  V30 12778 O 1215.2 0.781692 -1.55677 0
M  V30 12779 C 1212.33 1.42838 -3.09532 0
M  V30 12780 H 1213.52 -0.375845 -2.97536 0
M  V30 12781 H 1211.07 -0.233037 -1.54553 0
M  V30 12782 H 1211.81 2.13923 -2.43737 0
M  V30 12783 H 1211.59 0.994161 -3.79287 0
M  V30 12784 H 1213.08 1.97765 -3.67802 0
M  V30 12785 N 1213.52 1.56172 -0.211661 0
M  V30 12786 C 1214.45 2.22843 0.697375 0
M  V30 12787 C 1215.43 1.19689 1.20866 0
M  V30 12788 O 1216.62 1.48245 1.25447 0
M  V30 12789 C 1213.75 2.90067 1.90993 0
M  V30 12790 C 1212.7 3.99608 1.5329 0
M  V30 12791 C 1212.03 4.54078 2.82343 0
M  V30 12792 C 1213.33 5.17169 0.730333 0
M  V30 12793 H 1215.02 2.99065 0.141533 0
M  V30 12794 H 1212.57 1.43846 0.0666337 0
M  V30 12795 H 1214.52 3.35396 2.55123 0
M  V30 12796 H 1213.24 2.11276 2.49058 0
M  V30 12797 H 1211.9 3.54995 0.915115 0
M  V30 12798 H 1211.55 3.72029 3.38531 0
M  V30 12799 H 1211.25 5.28001 2.57853 0
M  V30 12800 H 1212.77 5.02119 3.47432 0
M  V30 12801 H 1214.19 5.5894 1.2751 0
M  V30 12802 H 1212.59 5.97262 0.582916 0
M  V30 12803 H 1213.66 4.84174 -0.265157 0
M  V30 12804 N 1215 -0.0618163 1.57479 0
M  V30 12805 C 1216.28 -0.792636 1.7882 0
M  V30 12806 C 1216.66 -1.95283 0.801724 0
M  V30 12807 O 1216 -2.27917 -0.163095 0
M  V30 12808 C 1216.21 -1.25629 3.25605 0
M  V30 12809 C 1217.56 -1.68561 3.89708 0
M  V30 12810 O 1218.59 -1.35171 3.29556 0
M  V30 12811 O 1217.44 -2.30417 4.95551 0
M  V30 12812 H 1214.54 -0.380595 0.734218 0
M  V30 12813 H 1217.08 -0.0411205 1.6965 0
M  V30 12814 H 1215.86 -0.426582 3.88968 0
M  V30 12815 H 1215.48 -2.06882 3.39537 0
M  V30 12816 N 1216.48 -1.54033 -0.333429 0
M  V30 12817 C 1217.41 -1.79056 -1.43079 0
M  V30 12818 C 1218.42 -0.672176 -1.48276 0
M  V30 12819 O 1219.61 -0.949103 -1.51176 0
M  V30 12820 C 1216.71 -1.88443 -2.81678 0
M  V30 12821 C 1215.88 -3.18493 -2.99802 0
M  V30 12822 C 1214.94 -3.18708 -4.18702 0
M  V30 12823 O 1213.97 -3.92389 -4.12334 0
M  V30 12824 N 1215.17 -2.41792 -5.27747 0
M  V30 12825 H 1217.94 -2.73753 -1.21981 0
M  V30 12826 H 1215.5 -1.53207 -0.523365 0
M  V30 12827 H 1217.49 -1.86027 -3.59411 0
M  V30 12828 H 1216.06 -1.00887 -2.95872 0
M  V30 12829 H 1215.28 -3.33951 -2.09453 0
M  V30 12830 H 1216.57 -4.04376 -3.088 0
M  V30 12831 H 1215.96 -1.81501 -5.35793 0
M  V30 12832 H 1214.52 -2.45163 -6.03936 0
M  V30 12833 N 1217.95 0.594978 -1.45938 0
M  V30 12834 C 1219.2 1.35561 -1.50834 0
M  V30 12835 C 1219.53 1.93584 -0.154566 0
M  V30 12836 O 1218.81 1.75781 0.832541 0
M  V30 12837 C 1219.09 2.49414 -2.5974 0
M  V30 12838 C 1218.94 1.96506 -4.04605 0
M  V30 12839 C 1220.26 3.51505 -2.64825 0
M  V30 12840 H 1217.38 0.491549 -0.549134 0
M  V30 12841 H 1220.02 0.669536 -1.77812 0
M  V30 12842 H 1218.17 3.07939 -2.36866 0
M  V30 12843 H 1219.85 1.42533 -4.38728 0
M  V30 12844 H 1218.09 1.27418 -4.14665 0
M  V30 12845 H 1218.76 2.78636 -4.76515 0
M  V30 12846 H 1221.24 3.02841 -2.85353 0
M  V30 12847 H 1220.11 4.28641 -3.42867 0
M  V30 12848 H 1220.37 4.07942 -1.70399 0
M  V30 12849 N 1219.43 1.33438 0.838571 0
M  V30 12850 C 1220.38 1.23698 1.96981 0
M  V30 12851 C 1221.37 0.138299 1.68835 0
M  V30 12852 O 1222.58 0.302278 1.77444 0
M  V30 12853 H 1218.96 0.383874 0.646641 0
M  V30 12854 H 1220.93 2.19337 2.02321 0
M  V30 12855 C 1219.68 0.993362 3.33208 0
M  V30 12856 H 1219 1.83104 3.55405 0
M  V30 12857 H 1220.44 0.965517 4.1286 0
M  V30 12858 C 1218.9 -0.303701 3.35528 0
M  V30 12859 O 1219.43 -1.3103 3.79729 0
M  V30 12860 N 1217.63 -0.331342 2.88705 0
M  V30 12861 H 1217.18 0.488351 2.52929 0
M  V30 12862 H 1217.14 -1.199 2.9064 0
M  V30 12863 O 1220.95 -0.976435 1.28639 0
M  V30 12864 H 1221.64 -1.60137 1.08976 0
M  V30 END ATOM
M  V30 BEGIN BOND
M  V30 END BOND
M  V30 END CTAB
M  END
$$$$
