drugbank_target|P00505 Aspartate aminotransferase, mitochondrial (DB00114; DB00128; DB00142; DB00151; DB02783)
 OpenBabel12092119303D

  0  0  0     0  0            999 V3000
M  V30 BEGIN CTAB
M  V30 COUNTS 6692 6770 0 0 0
M  V30 BEGIN ATOM
M  V30 1 H -0.908 1.98254 -0.117106 0
M  V30 2 N 0 1.576 0 0
M  V30 3 C 0.933 2.03868 1.02534 0
M  V30 4 C 1.911 0.928543 1.3348 0
M  V30 5 O 3.095 1.19667 1.45644 0
M  V30 6 C 0.222 2.43627 2.35294 0
M  V30 7 C -0.732 3.65373 2.2001 0
M  V30 8 S 0.101 5.13292 1.52614 0
M  V30 9 C 1.257 5.56322 2.86805 0
M  V30 10 H 1.49 2.90518 0.631377 0
M  V30 11 H -0.977 1.52953 0.210867 0
M  V30 12 H 0.981 2.67203 3.11629 0
M  V30 13 H -0.358 1.57376 2.7183 0
M  V30 14 H -1.165 3.90944 3.18086 0
M  V30 15 H -1.563 3.418 1.51819 0
M  V30 16 H 0.729 5.58782 3.83104 0
M  V30 17 H 1.672 6.56266 2.65933 0
M  V30 18 H 2.08 4.83886 2.90714 0
M  V30 19 N 1.4781 -0.272755 1.55222 0
M  V30 20 C 2.4411 -1.32041 1.87344 0
M  V30 21 C 3.4411 -1.42342 0.74803 0
M  V30 22 O 4.6311 -1.41488 1.0162 0
M  V30 23 C 1.7631 -2.70173 2.07893 0
M  V30 24 H 2.9561 -1.04789 2.80997 0
M  V30 25 H 0.5091 -0.51083 1.47717 0
M  V30 26 H 1.2441 -3.02605 1.16622 0
M  V30 27 H 1.0291 -2.64082 2.89833 0
M  V30 28 H 2.5191 -3.45869 2.34017 0
M  V30 29 N 2.9562 -1.48159 -0.537278 0
M  V30 30 C 3.8862 -1.65029 -1.6519 0
M  V30 31 C 4.8672 -0.499281 -1.62607 0
M  V30 32 O 6.0522 -0.730972 -1.79918 0
M  V30 33 C 3.1822 -1.68303 -3.03795 0
M  V30 34 C 2.1362 -2.8283 -3.21234 0
M  V30 35 C 1.4622 -2.71189 -4.60826 0
M  V30 36 C 2.7622 -4.24211 -3.04701 0
M  V30 37 H 4.4562 -2.58341 -1.51328 0
M  V30 38 H 2.0022 -1.24325 -0.726585 0
M  V30 39 H 3.9552 -1.78693 -3.81637 0
M  V30 40 H 2.6792 -0.715635 -3.18663 0
M  V30 41 H 1.3382 -2.71983 -2.45807 0
M  V30 42 H 0.9862 -1.72435 -4.7252 0
M  V30 43 H 0.6862 -3.48035 -4.7344 0
M  V30 44 H 2.2102 -2.83537 -5.40777 0
M  V30 45 H 3.6242 -4.3593 -3.72341 0
M  V30 46 H 2.0212 -5.01998 -3.28813 0
M  V30 47 H 3.0912 -4.41184 -2.01209 0
M  V30 48 N 4.4343 0.785586 -1.36625 0
M  V30 49 C 5.3643 1.91259 -1.33949 0
M  V30 50 C 6.3453 1.68795 -0.210325 0
M  V30 51 O 7.5303 1.89854 -0.408561 0
M  V30 52 C 4.6603 3.28339 -1.13186 0
M  V30 53 C 3.6143 3.65335 -2.22967 0
M  V30 54 C 2.9403 5.00806 -1.87342 0
M  V30 55 C 4.2403 3.7352 -3.65075 0
M  V30 56 H 5.9343 1.93755 -2.28253 0
M  V30 57 H 3.4803 0.930788 -1.09874 0
M  V30 58 H 5.4333 4.06804 -1.09948 0
M  V30 59 H 4.1573 3.2624 -0.153332 0
M  V30 60 H 2.8163 2.89169 -2.25337 0
M  V30 61 H 2.4643 4.95233 -0.880545 0
M  V30 62 H 2.1643 5.26529 -2.60846 0
M  V30 63 H 3.6883 5.81687 -1.85667 0
M  V30 64 H 5.1023 4.42168 -3.64911 0
M  V30 65 H 3.4993 4.10731 -4.37516 0
M  V30 66 H 4.5693 2.74527 -3.99703 0
M  V30 67 N 5.9124 1.20967 1.01018 0
M  V30 68 C 6.8624 0.93182 2.08089 0
M  V30 69 C 7.8464 -0.110898 1.60517 0
M  V30 70 O 9.0384 0.0973392 1.76732 0
M  V30 71 C 6.1674 0.492719 3.39746 0
M  V30 72 C 5.2534 1.56922 3.94 0
M  V30 73 N 5.6444 2.79312 4.21686 0
M  V30 74 C 3.9424 1.43688 4.2222 0
M  V30 75 C 4.6434 3.48797 4.65527 0
M  V30 76 N 3.6194 2.76224 4.68189 0
M  V30 77 H 7.4214 1.86175 2.27412 0
M  V30 78 H 4.9354 1.10463 1.19045 0
M  V30 79 H 6.9324 0.275044 4.15992 0
M  V30 80 H 5.5924 -0.430509 3.21833 0
M  V30 81 H 6.6034 3.15903 4.10397 0
M  V30 82 H 3.2804 0.578548 4.13472 0
M  V30 83 H 4.6704 4.53561 4.95714 0
M  V30 84 N 7.3905 -1.2043 1.01659 0
M  V30 85 C 8.6155 -1.94318 0.724942 0
M  V30 86 C 9.0405 -1.74266 -0.708034 0
M  V30 87 O 8.3985 -1.03694 -1.48719 0
M  V30 88 C 8.4465 -3.44486 1.06591 0
M  V30 89 O 7.5505 -4.12017 0.177599 0
M  V30 90 H 6.8915 -0.60708 0.26898 0
M  V30 91 H 9.4215 -1.52861 1.35995 0
M  V30 92 H 9.4315 -3.95106 1.01762 0
M  V30 93 H 8.1065 -3.58404 2.10997 0
M  V30 94 H 6.6835 -3.71821 0.283421 0
M  V30 95 N 8.8686 -0.792821 -1.36206 0
M  V30 96 C 10.1166 -0.366062 -1.98757 0
M  V30 97 C 10.4376 1.0668 -1.63231 0
M  V30 98 O 9.7076 1.73587 -0.907978 0
M  V30 99 H 8.2876 -0.132364 -0.735179 0
M  V30 100 H 10.9496 -1.01562 -1.66347 0
M  V30 101 H 10.0456 -0.460638 -3.08682 0
M  V30 102 N 10.3467 1.47872 -0.545128 0
M  V30 103 C 11.7627 1.5829 -0.204032 0
M  V30 104 C 11.9627 1.54529 1.29317 0
M  V30 105 O 11.0187 1.44232 2.07252 0
M  V30 106 C 12.3317 2.89304 -0.819987 0
M  V30 107 C 13.8797 3.02864 -0.790105 0
M  V30 108 C 14.3547 4.3656 -1.38491 0
M  V30 109 N 15.8457 4.43165 -1.34755 0
M  V30 110 C 16.5807 5.45153 -1.77753 0
M  V30 111 N 16.0767 6.54016 -2.2855 0
M  V30 112 N 17.8697 5.36125 -1.68897 0
M  V30 113 H 10.0207 1.4856 -1.51802 0
M  V30 114 H 12.2837 0.706305 -0.632327 0
M  V30 115 H 11.9897 2.97757 -1.87173 0
M  V30 116 H 11.8637 3.75957 -0.305915 0
M  V30 117 H 14.2507 2.94014 0.252913 0
M  V30 118 H 14.3317 2.17782 -1.34181 0
M  V30 119 H 13.9757 4.46164 -2.42693 0
M  V30 120 H 13.9057 5.20353 -0.808754 0
M  V30 121 H 16.3967 3.65083 -0.975855 0
M  V30 122 H 16.7097 7.27994 -2.59314 0
M  V30 123 H 15.0547 6.54938 -2.32553 0
M  V30 124 H 18.2457 4.49975 -1.28998 0
M  V30 125 H 18.4187 6.15472 -2.02726 0
M  V30 126 N 11.8248 0.280983 1.55075 0
M  V30 127 C 13.0708 -0.33461 2.00021 0
M  V30 128 C 13.4038 -1.55063 1.16915 0
M  V30 129 O 12.6788 -1.93006 0.240646 0
M  V30 130 C 12.9618 -0.711007 3.53011 0
M  V30 131 C 12.8148 0.512766 4.46868 0
M  V30 132 C 14.1338 -1.54522 4.12081 0
M  V30 133 H 11.2528 -0.120147 0.727141 0
M  V30 134 H 13.8948 0.389097 1.85973 0
M  V30 135 H 12.0448 -1.32761 3.65112 0
M  V30 136 H 13.7168 1.15131 4.46702 0
M  V30 137 H 11.9598 1.14975 4.18286 0
M  V30 138 H 12.6308 0.205556 5.51617 0
M  V30 139 H 15.1068 -1.02442 4.03293 0
M  V30 140 H 13.9828 -1.77739 5.19327 0
M  V30 141 H 14.2438 -2.52813 3.62682 0
M  V30 142 N 13.3029 -1.57598 0.00835791 0
M  V30 143 C 14.2329 -2.1198 -0.979113 0
M  V30 144 C 15.2139 -1.03091 -1.35301 0
M  V30 145 O 16.3989 -1.30818 -1.43528 0
M  V30 146 C 13.5289 -2.62995 -2.26828 0
M  V30 147 C 12.4829 -3.76485 -2.03576 0
M  V30 148 C 11.8089 -4.13846 -3.38579 0
M  V30 149 C 13.1089 -5.0342 -1.39161 0
M  V30 150 H 14.8029 -2.94738 -0.526281 0
M  V30 151 H 12.3489 -1.41783 -0.251704 0
M  V30 152 H 14.3019 -2.99669 -2.96271 0
M  V30 153 H 13.0259 -1.7737 -2.7424 0
M  V30 154 H 11.6849 -3.40217 -1.36557 0
M  V30 155 H 11.3329 -3.25232 -3.83709 0
M  V30 156 H 11.0329 -4.90312 -3.23834 0
M  V30 157 H 12.5569 -4.53086 -4.09323 0
M  V30 158 H 13.9709 -5.37812 -1.98573 0
M  V30 159 H 12.3679 -5.84746 -1.34878 0
M  V30 160 H 13.4379 -4.83548 -0.361868 0
M  V30 161 N 14.781 0.264519 -1.55364 0
M  V30 162 C 16.192 0.834936 -1.6699 0
M  V30 163 C 16.543 1.86718 -0.602552 0
M  V30 164 O 15.668 2.14899 0.254425 0
M  V30 165 C 16.263 1.5212 -3.02729 0
M  V30 166 C 14.822 2.03954 -3.16354 0
M  V30 167 C 13.969 0.884498 -2.62815 0
M  V30 168 H 16.92 0.0406869 -1.58648 0
M  V30 169 H 16.941 2.38853 -2.96191 0
M  V30 170 H 16.453 0.769668 -3.80392 0
M  V30 171 H 14.554 2.82041 -2.43482 0
M  V30 172 H 14.667 2.24902 -4.23032 0
M  V30 173 H 13.031 1.2802 -2.20188 0
M  V30 174 H 13.814 0.14634 -3.42988 0
M  V30 175 N 16.2591 1.48442 0.529413 0
M  V30 176 C 17.5071 1.56179 1.28267 0
M  V30 177 C 17.8281 0.237721 1.93546 0
M  V30 178 O 17.0981 -0.740779 1.81354 0
M  V30 179 H 15.6781 0.575367 0.476405 0
M  V30 180 H 18.3401 1.84909 0.61602 0
M  V30 181 H 17.4361 2.34312 2.06165 0
M  V30 182 N 17.7372 -0.778329 1.37039 0
M  V30 183 C 18.9862 -1.53189 1.3121 0
M  V30 184 C 19.2992 -1.95328 -0.103095 0
M  V30 185 O 20.5052 -2.70012 -0.283826 0
M  V30 186 C 18.9612 -2.76591 2.30272 0
M  V30 187 C 18.5692 -2.41577 3.77286 0
M  V30 188 C 20.3132 -3.5455 2.33441 0
M  V30 189 C 18.2202 -3.61441 4.68096 0
M  V30 190 H 17.1502 -0.5751 0.487622 0
M  V30 191 H 19.8012 -0.853101 1.62464 0
M  V30 192 H 18.1832 -3.46326 1.92027 0
M  V30 193 H 19.3572 -1.79668 4.2433 0
M  V30 194 H 17.6722 -1.76806 3.76999 0
M  V30 195 H 20.2692 -4.43628 2.98493 0
M  V30 196 H 20.6122 -3.93936 1.34611 0
M  V30 197 H 21.1452 -2.91805 2.7036 0
M  V30 198 H 17.8842 -3.27142 5.6803 0
M  V30 199 H 17.4042 -4.22478 4.25761 0
M  V30 200 H 19.0832 -4.28335 4.8491 0
M  V30 201 N 19.2153 -1.21501 -1.00376 0
M  V30 202 C 20.1783 -0.976927 -2.07337 0
M  V30 203 C 21.1783 0.0525322 -1.60714 0
M  V30 204 O 22.3683 -0.184869 -1.73216 0
M  V30 205 C 19.5003 -0.473423 -3.37597 0
M  V30 206 H 20.6933 -1.92587 -2.29892 0
M  V30 207 H 18.2463 -1.03217 -1.17371 0
M  V30 208 H 18.9813 0.480379 -3.20722 0
M  V30 209 H 18.7663 -1.216 -3.72768 0
M  V30 210 H 20.2563 -0.32675 -4.1632 0
M  V30 211 N 20.6934 1.19889 -1.02296 0
M  V30 212 C 21.6564 2.21116 -0.603351 0
M  V30 213 C 22.6564 1.5738 0.329884 0
M  V30 214 O 23.8464 1.73802 0.117702 0
M  V30 215 C 20.9784 3.40696 0.117992 0
M  V30 216 H 22.1714 2.59754 -1.49893 0
M  V30 217 H 19.7244 1.33463 -0.813468 0
M  V30 218 H 20.4594 3.07569 1.0282 0
M  V30 219 H 20.2444 3.88188 -0.552511 0
M  V30 220 H 21.7344 4.15692 0.398696 0
M  V30 221 N 22.1715 0.800033 1.35784 0
M  V30 222 C 23.1345 0.211565 2.28221 0
M  V30 223 C 24.1345 -0.59728 1.49296 0
M  V30 224 O 25.3245 -0.416721 1.69142 0
M  V30 225 C 22.4565 -0.705846 3.33513 0
M  V30 226 H 23.6495 1.02677 2.81776 0
M  V30 227 H 21.2025 0.570211 1.45528 0
M  V30 228 H 21.9375 -1.54498 2.85133 0
M  V30 229 H 21.7225 -0.127655 3.91892 0
M  V30 230 H 23.2125 -1.11211 4.02519 0
M  V30 231 N 23.6496 -1.47581 0.552962 0
M  V30 232 C 24.8966 -2.02482 0.0273243 0
M  V30 233 C 25.2246 -1.42776 -1.32081 0
M  V30 234 O 24.4796 -0.571393 -1.87173 0
M  V30 235 C 24.7786 -3.57199 -0.119728 0
M  V30 236 C 24.4446 -4.35804 1.15697 0
M  V30 237 C 23.1066 -4.57 1.50681 0
M  V30 238 C 25.4586 -4.81167 2.00319 0
M  V30 239 C 22.7866 -5.20807 2.70142 0
M  V30 240 C 25.1386 -5.46293 3.18978 0
M  V30 241 C 23.8026 -5.65722 3.54281 0
M  V30 242 H 23.0726 -0.740933 0.00999866 0
M  V30 243 H 25.7196 -1.77302 0.72362 0
M  V30 244 H 24.0246 -3.81348 -0.89896 0
M  V30 245 H 25.7216 -3.97324 -0.541718 0
M  V30 246 H 22.3116 -4.19582 0.874561 0
M  V30 247 H 26.4956 -4.64574 1.74599 0
M  V30 248 H 21.7516 -5.34045 2.97668 0
M  V30 249 H 25.9256 -5.80407 3.84838 0
M  V30 250 H 23.5526 -6.14936 4.46942 0
M  V30 251 N 25.1277 -0.289203 -1.54924 0
M  V30 252 C 26.0777 0.606939 -2.19773 0
M  V30 253 C 27.0617 1.10783 -1.16687 0
M  V30 254 O 28.2537 1.05057 -1.4245 0
M  V30 255 C 25.3827 1.78398 -2.93307 0
M  V30 256 C 24.4687 1.29961 -4.03697 0
M  V30 257 N 24.8597 0.532377 -5.0299 0
M  V30 258 C 23.1577 1.58136 -4.17024 0
M  V30 259 C 23.8587 0.275912 -5.81045 0
M  V30 260 N 22.8347 0.852365 -5.36876 0
M  V30 261 H 26.6367 0.0130779 -2.93897 0
M  V30 262 H 24.1507 -0.09341 -1.62131 0
M  V30 263 H 26.1477 2.43741 -3.38225 0
M  V30 264 H 24.8077 2.38166 -2.20697 0
M  V30 265 H 25.8187 0.17838 -5.17593 0
M  V30 266 H 22.4957 2.18738 -3.55612 0
M  V30 267 H 23.8857 -0.339502 -6.71042 0
M  V30 268 N 26.6058 1.57591 -0.0167156 0
M  V30 269 C 28.0168 1.79201 0.523834 0
M  V30 270 C 28.3678 0.925796 1.72984 0
M  V30 271 O 27.4928 0.132792 2.15992 0
M  V30 272 C 28.0878 3.25 0.957091 0
M  V30 273 C 26.6468 3.47648 1.44283 0
M  V30 274 C 25.7938 2.74374 0.401757 0
M  V30 275 H 28.7448 1.56831 -0.242816 0
M  V30 276 H 28.7658 3.34031 1.82219 0
M  V30 277 H 28.2778 3.88019 0.0791415 0
M  V30 278 H 26.3788 2.89866 2.34113 0
M  V30 279 H 26.4918 4.56352 1.45877 0
M  V30 280 H 24.8558 2.39485 0.867121 0
M  V30 281 H 25.6388 3.40102 -0.467513 0
M  V30 282 N 28.0839 -0.256276 1.55502 0
M  V30 283 C 29.3319 -0.983672 1.76545 0
M  V30 284 C 29.6529 -1.86206 0.578982 0
M  V30 285 O 28.9229 -1.91656 -0.405577 0
M  V30 286 H 27.5029 -0.366191 0.651086 0
M  V30 287 H 30.1649 -0.276479 1.92929 0
M  V30 288 H 29.2609 -1.61087 2.67315 0
M  V30 289 N 29.562 -1.4872 -0.521534 0
M  V30 290 C 30.492 -1.66771 -1.63431 0
M  V30 291 C 31.473 -0.516499 -1.62069 0
M  V30 292 O 32.658 -0.750013 -1.79132 0
M  V30 293 C 29.788 -1.71515 -3.01993 0
M  V30 294 C 28.742 -2.86222 -3.18216 0
M  V30 295 C 28.068 -2.76061 -4.57924 0
M  V30 296 C 29.368 -4.27419 -3.00184 0
M  V30 297 H 31.062 -2.59932 -1.48579 0
M  V30 298 H 28.608 -1.25089 -0.713358 0
M  V30 299 H 30.561 -1.82731 -3.7972 0
M  V30 300 H 29.285 -0.749393 -3.17886 0
M  V30 301 H 27.944 -2.74575 -2.42908 0
M  V30 302 H 27.592 -1.77437 -4.70665 0
M  V30 303 H 27.292 -3.53037 -4.69722 0
M  V30 304 H 28.816 -2.89256 -5.37739 0
M  V30 305 H 30.23 -4.39855 -3.67697 0
M  V30 306 H 28.627 -5.05458 -3.2347 0
M  V30 307 H 29.697 -4.43293 -1.96518 0
M  V30 308 N 31.0401 0.771051 -1.3745 0
M  V30 309 C 32.0031 1.86598 -1.33093 0
M  V30 310 C 33.0031 1.59076 -0.234845 0
M  V30 311 O 34.1931 1.67145 -0.490732 0
M  V30 312 C 31.3251 3.23747 -1.06773 0
M  V30 313 H 32.5181 1.91873 -2.30488 0
M  V30 314 H 30.0711 0.970876 -1.2249 0
M  V30 315 H 30.8061 3.24148 -0.099129 0
M  V30 316 H 30.5911 3.45115 -1.86112 0
M  V30 317 H 32.0811 4.03824 -1.06377 0
M  V30 318 N 32.5182 1.22032 0.997298 0
M  V30 319 C 33.4812 0.987909 2.06816 0
M  V30 320 C 34.4812 -0.0440084 1.6074 0
M  V30 321 O 35.6712 0.194053 1.73116 0
M  V30 322 C 32.8032 0.49132 3.37341 0
M  V30 323 H 33.9962 1.93803 2.28868 0
M  V30 324 H 31.5492 1.03838 1.16822 0
M  V30 325 H 32.2842 -0.463364 3.20973 0
M  V30 326 H 32.0692 1.23575 3.72118 0
M  V30 327 H 33.5592 0.348824 4.16141 0
M  V30 328 N 33.9963 -1.19345 1.0293 0
M  V30 329 C 34.9593 -2.20793 0.615069 0
M  V30 330 C 35.9593 -1.57553 -0.321533 0
M  V30 331 O 37.1493 -1.73862 -0.108483 0
M  V30 332 C 34.2813 -3.40754 -0.0999222 0
M  V30 333 H 35.4743 -2.58955 1.51269 0
M  V30 334 H 33.0273 -1.3303 0.820534 0
M  V30 335 H 33.7623 -3.0811 -1.01187 0
M  V30 336 H 33.5473 -3.87889 0.57309 0
M  V30 337 H 35.0373 -4.15898 -0.376645 0
M  V30 338 N 35.4744 -0.807222 -1.35358 0
M  V30 339 C 36.4374 -0.223665 -2.28106 0
M  V30 340 C 37.4374 0.589354 -1.4961 0
M  V30 341 O 38.6274 0.407745 -1.69361 0
M  V30 342 C 35.7594 0.688149 -3.33882 0
M  V30 343 H 36.9524 -1.04169 -2.81227 0
M  V30 344 H 34.5054 -0.577921 -1.45223 0
M  V30 345 H 35.2404 1.52984 -2.85948 0
M  V30 346 H 35.0254 0.10687 -3.91954 0
M  V30 347 H 36.5154 1.09075 -4.03104 0
M  V30 348 N 36.9525 1.47285 -0.560781 0
M  V30 349 C 38.1775 2.07359 -0.0410566 0
M  V30 350 C 38.6025 1.41017 1.24483 0
M  V30 351 O 37.9605 0.486368 1.74654 0
M  V30 352 C 38.0085 3.6035 0.134123 0
M  V30 353 O 37.1125 3.94681 1.19587 0
M  V30 354 H 36.4535 0.661887 -0.0529291 0
M  V30 355 H 38.9835 1.89252 -0.777482 0
M  V30 356 H 38.9935 4.0652 0.347207 0
M  V30 357 H 37.6685 4.08034 -0.805047 0
M  V30 358 H 36.2455 3.60251 0.962987 0
M  V30 359 N 38.4306 0.297415 1.54768 0
M  V30 360 C 39.3936 -0.567375 2.22066 0
M  V30 361 C 40.3936 -1.06409 1.20556 0
M  V30 362 O 41.5836 -0.960691 1.45315 0
M  V30 363 C 38.7156 -1.78517 2.90421 0
M  V30 364 H 39.9086 0.0205534 2.99893 0
M  V30 365 H 37.4616 0.0482163 1.56226 0
M  V30 366 H 38.1966 -2.41303 2.16664 0
M  V30 367 H 37.9816 -1.43669 3.64831 0
M  V30 368 H 39.4716 -2.39964 3.41771 0
M  V30 369 N 39.9087 -1.5758 0.0250728 0
M  V30 370 C 41.3247 -1.56124 -0.331282 0
M  V30 371 C 41.5247 -1.03029 -1.73169 0
M  V30 372 O 40.5807 -0.675215 -2.43305 0
M  V30 373 C 41.8937 -3.00139 -0.183584 0
M  V30 374 C 43.4417 -3.11946 -0.256654 0
M  V30 375 C 43.9167 -4.57793 -0.137792 0
M  V30 376 N 45.4077 -4.6279 -0.194904 0
M  V30 377 C 46.1427 -5.7326 -0.126655 0
M  V30 378 N 45.6387 -6.928 -0.00755288 0
M  V30 379 N 47.4317 -5.61811 -0.180348 0
M  V30 380 H 39.5827 -1.90424 0.94087 0
M  V30 381 H 41.8457 -0.875761 0.362968 0
M  V30 382 H 41.5517 -3.4292 0.780927 0
M  V30 383 H 41.4257 -3.64899 -0.955448 0
M  V30 384 H 43.8127 -2.69079 -1.21162 0
M  V30 385 H 43.8937 -2.49915 0.545517 0
M  V30 386 H 43.5377 -5.01339 0.813739 0
M  V30 387 H 43.4677 -5.17798 -0.958775 0
M  V30 388 H 45.9587 -3.76807 -0.287267 0
M  V30 389 H 46.2717 -7.72791 0.0379428 0
M  V30 390 H 44.6167 -6.94995 0.0271731 0
M  V30 391 H 47.8077 -4.6731 -0.271767 0
M  V30 392 H 47.9807 -6.47882 -0.123697 0
M  V30 393 N 41.3868 0.248026 -1.55636 0
M  V30 394 C 42.3498 1.29044 -1.89421 0
M  V30 395 C 43.3498 1.41134 -0.770581 0
M  V30 396 O 44.5398 1.39854 -1.03858 0
M  V30 397 C 41.6718 2.66831 -2.12165 0
M  V30 398 H 42.8648 1.00305 -2.82629 0
M  V30 399 H 40.4178 0.487265 -1.48511 0
M  V30 400 H 41.1528 3.00711 -1.21422 0
M  V30 401 H 40.9378 2.59438 -2.93997 0
M  V30 402 H 42.4278 3.42103 -2.3949 0
M  V30 403 N 42.8649 1.48995 0.513639 0
M  V30 404 C 44.0899 1.61792 1.29762 0
M  V30 405 C 44.5149 0.284475 1.85936 0
M  V30 406 O 43.8729 -0.746185 1.65232 0
M  V30 407 C 43.9209 2.67993 2.41272 0
M  V30 408 O 43.0249 2.26287 3.44772 0
M  V30 409 H 42.3659 0.541963 0.38363 0
M  V30 410 H 44.8959 1.95097 0.616307 0
M  V30 411 H 44.9059 2.89772 2.87221 0
M  V30 412 H 43.5809 3.64791 1.9975 0
M  V30 413 H 42.1579 2.14788 3.04829 0
M  V30 414 N 44.343 -0.763751 1.37857 0
M  V30 415 C 45.568 -1.55805 1.36893 0
M  V30 416 C 45.993 -1.88054 -0.0416135 0
M  V30 417 O 45.351 -1.49825 -1.02089 0
M  V30 418 C 45.399 -2.84012 2.22192 0
M  V30 419 O 44.503 -3.78732 1.63204 0
M  V30 420 H 43.844 -0.471638 0.46739 0
M  V30 421 H 46.374 -0.944657 1.81487 0
M  V30 422 H 46.384 -3.33037 2.35691 0
M  V30 423 H 45.059 -2.59869 3.24716 0
M  V30 424 H 43.636 -3.37402 1.58791 0
M  V30 425 N 45.8211 -1.22559 -0.990812 0
M  V30 426 C 47.0671 -1.06303 -1.73411 0
M  V30 427 C 47.4221 0.397442 -1.8825 0
M  V30 428 O 46.7151 1.29062 -1.41611 0
M  V30 429 C 46.9091 -1.71011 -3.13831 0
M  V30 430 C 46.7381 -3.232 -3.12685 0
M  V30 431 C 45.5081 -3.92314 -3.18461 0
M  V30 432 C 47.7061 -4.20107 -2.96673 0
M  V30 433 N 45.6881 -5.31571 -3.07091 0
M  V30 434 C 47.0591 -5.46208 -2.93354 0
M  V30 435 C 49.1141 -4.10973 -2.8108 0
M  V30 436 C 47.8171 -6.64225 -2.76039 0
M  V30 437 C 49.8431 -5.28642 -2.65126 0
M  V30 438 C 49.2051 -6.53663 -2.62496 0
M  V30 439 H 45.3041 -0.443441 -0.644115 0
M  V30 440 H 47.8881 -1.55131 -1.17654 0
M  V30 441 H 46.0591 -1.2473 -3.67827 0
M  V30 442 H 47.7911 -1.47828 -3.76735 0
M  V30 443 H 44.5461 -3.43326 -3.26227 0
M  V30 444 H 44.9701 -6.0455 -3.0471 0
M  V30 445 H 49.6121 -3.15098 -2.8191 0
M  V30 446 H 47.3301 -7.60246 -2.73954 0
M  V30 447 H 50.9161 -5.23407 -2.54039 0
M  V30 448 H 49.7961 -7.43182 -2.50302 0
M  V30 449 N 47.2992 1.18797 -1.03562 0
M  V30 450 C 48.5452 1.89192 -0.746867 0
M  V30 451 C 48.9002 1.78531 0.717245 0
M  V30 452 O 48.1932 1.17137 1.51622 0
M  V30 453 C 48.3872 3.38692 -1.14117 0
M  V30 454 C 48.2162 3.63902 -2.64207 0
M  V30 455 C 46.9862 3.81553 -3.31279 0
M  V30 456 C 49.1842 3.64903 -3.62423 0
M  V30 457 N 47.1662 3.94455 -4.70402 0
M  V30 458 C 48.5372 3.83458 -4.87196 0
M  V30 459 C 50.5922 3.47965 -3.56125 0
M  V30 460 C 49.2952 3.86829 -6.06429 0
M  V30 461 C 51.3212 3.52616 -4.7478 0
M  V30 462 C 50.6832 3.71663 -5.9837 0
M  V30 463 H 46.7822 0.711141 -0.325273 0
M  V30 464 H 49.3662 1.42727 -1.32428 0
M  V30 465 H 47.5372 3.83864 -0.591889 0
M  V30 466 H 49.2692 3.96634 -0.803966 0
M  V30 467 H 46.0242 3.80723 -2.81686 0
M  V30 468 H 46.4482 4.0474 -5.42692 0
M  V30 469 H 51.0902 3.32189 -2.61553 0
M  V30 470 H 48.8082 4.01395 -7.01362 0
M  V30 471 H 52.3942 3.40791 -4.71543 0
M  V30 472 H 51.2742 3.75145 -6.88648 0
M  V30 473 N 48.7773 0.814389 1.34928 0
M  V30 474 C 50.0053 0.411136 2.02774 0
M  V30 475 C 50.4203 -0.980316 1.61354 0
M  V30 476 O 49.7773 -1.63299 0.814847 0
M  V30 477 C 49.8283 0.493865 3.58111 0
M  V30 478 O 49.5493 1.83047 3.98027 0
M  V30 479 C 51.0503 0.0844174 4.4322 0
M  V30 480 H 48.2703 0.166037 0.650133 0
M  V30 481 H 50.8143 1.10018 1.72384 0
M  V30 482 H 48.9693 -0.147006 3.87121 0
M  V30 483 H 49.3833 1.79872 4.92693 0
M  V30 484 H 50.8573 0.193404 5.51661 0
M  V30 485 H 51.3343 -0.97113 4.28329 0
M  V30 486 H 51.9403 0.69875 4.19521 0
M  V30 487 N 50.2554 -1.46986 0.568584 0
M  V30 488 C 51.2054 -2.27179 -0.193339 0
M  V30 489 C 52.1894 -1.35035 -0.874895 0
M  V30 490 O 53.3814 -1.5931 -0.771322 0
M  V30 491 C 50.5104 -3.21063 -1.21546 0
M  V30 492 C 49.5964 -4.2069 -0.536738 0
M  V30 493 N 49.9874 -5.04218 0.399673 0
M  V30 494 C 48.2854 -4.38961 -0.789254 0
M  V30 495 C 48.9864 -5.76242 0.795017 0
M  V30 496 N 47.9624 -5.434 0.1473 0
M  V30 497 H 51.7644 -2.89146 0.526458 0
M  V30 498 H 49.2784 -1.57664 0.389342 0
M  V30 499 H 51.2754 -3.77209 -1.77536 0
M  V30 500 H 49.9354 -2.60654 -1.93623 0
M  V30 501 H 50.9464 -5.12077 0.774454 0
M  V30 502 H 47.6234 -3.89713 -1.49767 0
M  V30 503 H 49.0134 -6.53417 1.56513 0
M  V30 504 N 51.7335 -0.305618 -1.54608 0
M  V30 505 C 52.9795 0.302746 -2.00528 0
M  V30 506 C 53.3125 1.53184 -1.19367 0
M  V30 507 O 52.5875 1.92598 -0.271321 0
M  V30 508 C 52.8705 0.654756 -3.54097 0
M  V30 509 C 52.7235 -0.583793 -4.45995 0
M  V30 510 C 54.0425 1.47947 -4.14487 0
M  V30 511 H 51.1615 0.108564 -0.72896 0
M  V30 512 H 53.8035 -0.418634 -1.85331 0
M  V30 513 H 51.9535 1.26935 -3.67178 0
M  V30 514 H 53.6255 -1.22224 -4.44814 0
M  V30 515 H 51.8685 -1.21615 -4.16404 0
M  V30 516 H 52.5395 -0.293287 -5.5122 0
M  V30 517 H 55.0155 0.96013 -4.04871 0
M  V30 518 H 53.8915 1.69454 -5.22088 0
M  V30 519 H 54.1525 2.47011 -3.66658 0
M  V30 520 N 53.2116 1.57565 -0.0334293 0
M  V30 521 C 54.1216 2.13943 0.962572 0
M  V30 522 C 55.1376 1.09276 1.35406 0
M  V30 523 O 56.3136 1.41355 1.4346 0
M  V30 524 C 53.3786 2.65887 2.22497 0
M  V30 525 C 52.4396 3.85286 1.8935 0
M  V30 526 C 51.6726 4.34743 3.09571 0
M  V30 527 O 51.8956 3.83352 4.22371 0
M  V30 528 O 50.8296 5.26538 2.91618 0
M  V30 529 H 54.6556 2.99333 0.513169 0
M  V30 530 H 52.2406 1.4822 0.18743 0
M  V30 531 H 54.1226 2.99346 2.96598 0
M  V30 532 H 52.7976 1.83578 2.6661 0
M  V30 533 H 51.7046 3.56746 1.1262 0
M  V30 534 H 53.0376 4.68771 1.5005 0
M  V30 535 N 54.6897 -0.239769 1.55765 0
M  V30 536 C 55.6227 -1.32356 1.85895 0
M  V30 537 C 56.6007 -1.46053 0.714662 0
M  V30 538 O 57.7847 -1.62154 0.961157 0
M  V30 539 C 54.9117 -2.6962 2.04994 0
M  V30 540 C 53.9577 -2.73036 3.27648 0
M  V30 541 S 54.7907 -2.28929 4.84099 0
M  V30 542 C 55.9467 -3.68103 5.06212 0
M  V30 543 H 56.1797 -1.06601 2.77531 0
M  V30 544 H 53.7127 -0.441112 1.47965 0
M  V30 545 H 55.6707 -3.48653 2.16682 0
M  V30 546 H 54.3317 -2.92609 1.14188 0
M  V30 547 H 53.5247 -3.7386 3.38 0
M  V30 548 H 53.1267 -2.02052 3.14723 0
M  V30 549 H 55.4187 -4.63656 4.93993 0
M  V30 550 H 56.3617 -3.6268 6.08168 0
M  V30 551 H 56.7697 -3.60947 4.34025 0
M  V30 552 N 56.1678 -1.49265 -0.50573 0
M  V30 553 C 57.4158 -1.582 -1.25766 0
M  V30 554 C 57.7368 -0.268482 -1.93143 0
M  V30 555 O 57.0068 0.711833 -1.8251 0
M  V30 556 H 55.5868 -0.582873 -0.467191 0
M  V30 557 H 58.2488 -1.85865 -0.586525 0
M  V30 558 H 57.3448 -2.37563 -2.02412 0
M  V30 559 N 57.6459 0.756429 -1.3826 0
M  V30 560 C 59.0569 1.33359 -1.30661 0
M  V30 561 C 59.4079 1.96161 0.0388875 0
M  V30 562 O 58.5329 1.94874 0.940918 0
M  V30 563 C 59.1279 2.42477 -2.36622 0
M  V30 564 C 57.6869 2.95922 -2.3261 0
M  V30 565 C 56.8339 1.69275 -2.19639 0
M  V30 566 H 59.7849 0.55552 -1.4866 0
M  V30 567 H 59.8059 3.22345 -2.02174 0
M  V30 568 H 59.3179 1.96739 -3.34538 0
M  V30 569 H 57.4189 3.45996 -1.38267 0
M  V30 570 H 57.5319 3.50494 -3.26636 0
M  V30 571 H 55.8959 1.92793 -1.66442 0
M  V30 572 H 56.6789 1.25619 -3.19491 0
M  V30 573 N 59.124 1.23083 0.984299 0
M  V30 574 C 60.535 1.05609 1.5396 0
M  V30 575 C 60.886 -0.377793 1.92528 0
M  V30 576 O 60.011 -1.26398 1.75649 0
M  V30 577 C 60.606 1.91087 2.7977 0
M  V30 578 C 59.165 1.77885 3.31713 0
M  V30 579 C 58.312 1.87028 2.04733 0
M  V30 580 H 61.263 1.36802 0.804419 0
M  V30 581 H 61.284 1.43336 3.5247 0
M  V30 582 H 60.796 2.9544 2.51668 0
M  V30 583 H 58.897 0.762995 3.64704 0
M  V30 584 H 59.01 2.61047 4.01735 0
M  V30 585 H 57.374 1.30565 2.18689 0
M  V30 586 H 58.157 2.92929 1.79017 0
M  V30 587 N 60.6021 -1.18246 1.0419 0
M  V30 588 C 61.8791 -1.84121 0.660208 0
M  V30 589 C 62.2591 -1.92778 -0.860221 0
M  V30 590 O 61.6071 -1.45464 -1.76217 0
M  V30 591 C 61.8171 -3.22355 1.33747 0
M  V30 592 C 63.1651 -3.98376 1.46906 0
M  V30 593 O 64.1891 -3.31799 1.29568 0
M  V30 594 O 63.0481 -5.17665 1.75171 0
M  V30 595 H 60.1421 -0.794036 0.231161 0
M  V30 596 H 62.6881 -1.25628 1.14087 0
M  V30 597 H 61.4601 -3.10964 2.37522 0
M  V30 598 H 61.0831 -3.88506 0.845515 0
M  V30 599 N 62.0802 -0.821533 -1.34494 0
M  V30 600 C 63.4912 -0.467956 -1.8074 0
M  V30 601 C 63.8422 1.01151 -1.68116 0
M  V30 602 O 62.9672 1.78707 -1.22036 0
M  V30 603 C 63.5622 -0.842627 -3.28154 0
M  V30 604 C 62.1212 -0.541439 -3.72485 0
M  V30 605 C 61.2682 -1.06028 -2.56229 0
M  V30 606 H 64.2192 -1.01183 -1.22261 0
M  V30 607 H 64.2402 -0.145876 -3.8022 0
M  V30 608 H 63.7522 -1.91945 -3.37311 0
M  V30 609 H 61.8532 0.526034 -3.68868 0
M  V30 610 H 61.9662 -1.08453 -4.66663 0
M  V30 611 H 60.3302 -0.481892 -2.501 0
M  V30 612 H 61.1132 -2.14352 -2.68157 0
M  V30 613 N 63.5583 1.46682 -0.576371 0
M  V30 614 C 64.8073 2.01619 -0.0572825 0
M  V30 615 C 65.1203 1.45417 1.30818 0
M  V30 616 O 66.3263 1.92133 1.91825 0
M  V30 617 C 64.7823 3.59863 -0.0518371 0
M  V30 618 C 64.3903 4.25059 -1.41523 0
M  V30 619 C 66.1343 4.2248 0.413639 0
M  V30 620 C 64.0413 5.75364 -1.36785 0
M  V30 621 H 62.9713 0.753794 -0.0176448 0
M  V30 622 H 65.6223 1.68481 -0.727076 0
M  V30 623 H 64.0043 3.90048 0.683994 0
M  V30 624 H 65.1783 4.06491 -2.17029 0
M  V30 625 H 63.4933 3.7451 -1.8202 0
M  V30 626 H 66.0903 5.3265 0.467779 0
M  V30 627 H 66.4333 3.90976 1.42982 0
M  V30 628 H 66.9663 3.96897 -0.267929 0
M  V30 629 H 63.7053 6.11518 -2.36063 0
M  V30 630 H 63.2253 5.96214 -0.654895 0
M  V30 631 H 64.9043 6.37955 -1.07805 0
M  V30 632 N 65.0364 0.313813 1.54444 0
M  V30 633 C 65.9664 -0.549454 2.26943 0
M  V30 634 C 66.9474 -1.12741 1.27372 0
M  V30 635 O 68.1324 -1.15436 1.56167 0
M  V30 636 C 65.2624 -1.71523 3.01989 0
M  V30 637 C 64.2164 -1.26703 4.08816 0
M  V30 638 C 63.5424 -2.51898 4.71647 0
M  V30 639 C 64.8424 -0.388962 5.2085 0
M  V30 640 H 66.5364 0.0552661 2.99349 0
M  V30 641 H 64.0824 0.0280207 1.43973 0
M  V30 642 H 66.0354 -2.32535 3.51433 0
M  V30 643 H 64.7594 -2.34639 2.27183 0
M  V30 644 H 63.4184 -0.679896 3.6024 0
M  V30 645 H 63.0664 -3.13356 3.93468 0
M  V30 646 H 62.7664 -2.22605 5.43802 0
M  V30 647 H 64.2904 -3.1369 5.23861 0
M  V30 648 H 65.7044 -0.905107 5.6611 0
M  V30 649 H 64.1014 -0.18924 5.99802 0
M  V30 650 H 65.1714 0.582699 4.81386 0
M  V30 651 N 66.5145 -1.57545 0.0417849 0
M  V30 652 C 67.7625 -1.91937 -0.632829 0
M  V30 653 C 68.0835 -0.919978 -1.71934 0
M  V30 654 O 67.3535 0.0366064 -1.95866 0
M  V30 655 H 65.9335 -0.708493 -0.236742 0
M  V30 656 H 68.5955 -1.9468 0.0925745 0
M  V30 657 H 67.6915 -2.92912 -1.07746 0
M  V30 658 N 67.9926 0.231505 -1.5589 0
M  V30 659 C 69.2386 0.95877 -1.78705 0
M  V30 660 C 69.5716 1.8438 -0.609725 0
M  V30 661 O 68.8466 1.90521 0.391426 0
M  V30 662 C 69.1296 1.8062 -3.11526 0
M  V30 663 C 68.9826 0.948328 -4.39689 0
M  V30 664 C 70.3016 2.78585 -3.40703 0
M  V30 665 H 67.4206 0.347129 -0.650131 0
M  V30 666 H 70.0626 0.228259 -1.88624 0
M  V30 667 H 68.2126 2.42902 -3.03201 0
M  V30 668 H 69.8846 0.343016 -4.60023 0
M  V30 669 H 68.1276 0.253314 -4.3306 0
M  V30 670 H 68.7986 1.57543 -5.29041 0
M  V30 671 H 71.2746 2.26439 -3.49091 0
M  V30 672 H 70.1506 3.34988 -4.34826 0
M  V30 673 H 70.4116 3.55825 -2.62375 0
M  V30 674 N 69.4707 1.49531 0.497807 0
M  V30 675 C 70.6987 1.62893 1.27567 0
M  V30 676 C 71.1137 0.301585 1.86376 0
M  V30 677 O 70.4707 -0.713335 1.67982 0
M  V30 678 C 70.5217 2.70013 2.40364 0
M  V30 679 O 70.2427 3.976 1.83972 0
M  V30 680 C 71.7437 2.94109 3.31685 0
M  V30 681 H 68.9637 0.548298 0.386794 0
M  V30 682 H 71.5077 1.95584 0.597245 0
M  V30 683 H 69.6627 2.40092 3.04031 0
M  V30 684 H 70.0767 4.56631 2.58047 0
M  V30 685 H 71.5507 3.72788 4.07104 0
M  V30 686 H 72.0277 2.04147 3.88871 0
M  V30 687 H 72.6337 3.2546 2.73781 0
M  V30 688 N 70.9488 -0.749086 1.3866 0
M  V30 689 C 71.8588 -1.89358 1.38494 0
M  V30 690 C 72.8748 -1.71708 0.281476 0
M  V30 691 O 74.0508 -1.94554 0.520643 0
M  V30 692 C 71.1158 -3.24782 1.21316 0
M  V30 693 C 70.1768 -3.54926 2.41508 0
M  V30 694 C 69.4098 -4.83888 2.2514 0
M  V30 695 O 69.6328 -5.56592 1.24746 0
M  V30 696 O 68.5668 -5.13612 3.13826 0
M  V30 697 H 72.3928 -1.92452 2.34938 0
M  V30 698 H 69.9778 -0.894981 1.19626 0
M  V30 699 H 71.8598 -4.05739 1.13814 0
M  V30 700 H 70.5348 -3.2249 0.279592 0
M  V30 701 H 69.4418 -2.74112 2.54585 0
M  V30 702 H 70.7748 -3.61983 3.3351 0
M  V30 703 N 72.4269 -1.23603 -0.977757 0
M  V30 704 C 73.3899 -1.02069 -2.05218 0
M  V30 705 C 74.3899 0.0184305 -1.60789 0
M  V30 706 O 75.5799 -0.221569 -1.72785 0
M  V30 707 C 72.7119 -0.544926 -3.36517 0
M  V30 708 H 73.9049 -1.9742 -2.25755 0
M  V30 709 H 71.4579 -1.05684 -1.15155 0
M  V30 710 H 72.1929 0.412241 -3.21669 0
M  V30 711 H 71.9779 -1.2948 -3.70105 0
M  V30 712 H 73.4679 -0.414985 -4.15533 0
M  V30 713 N 73.905 1.17692 -1.04816 0
M  V30 714 C 75.152 1.87859 -0.75599 0
M  V30 715 C 75.48 1.80812 0.716752 0
M  V30 716 O 74.735 1.20819 1.53952 0
M  V30 717 C 75.034 3.37462 -1.17703 0
M  V30 718 C 74.7 3.64713 -2.65133 0
M  V30 719 C 73.362 3.71859 -3.05408 0
M  V30 720 C 75.714 3.76492 -3.60421 0
M  V30 721 C 73.042 3.88271 -4.39843 0
M  V30 722 C 75.394 3.94421 -4.94585 0
M  V30 723 C 74.058 3.99806 -5.3452 0
M  V30 724 H 73.328 0.687425 -0.276636 0
M  V30 725 H 75.975 1.39255 -1.31455 0
M  V30 726 H 74.28 3.88097 -0.537395 0
M  V30 727 H 75.977 3.90109 -0.928218 0
M  V30 728 H 72.567 3.59772 -2.32942 0
M  V30 729 H 76.751 3.70295 -3.30447 0
M  V30 730 H 72.007 3.90687 -4.70291 0
M  V30 731 H 76.181 4.02477 -5.68318 0
M  V30 732 H 73.808 4.12276 -6.38696 0
M  V30 733 N 75.3831 0.828654 1.34056 0
M  V30 734 C 76.3301 0.252567 2.29414 0
M  V30 735 C 77.3001 -0.62588 1.53857 0
M  V30 736 O 78.4851 -0.566312 1.82202 0
M  V30 737 C 75.6251 -0.574831 3.40279 0
M  V30 738 C 74.7381 0.326499 4.30764 0
M  V30 739 C 73.8731 -0.511016 5.28736 0
M  V30 740 C 72.9121 0.389342 6.1086 0
M  V30 741 N 72.0491 -0.409439 7.00905 0
M  V30 742 H 76.8891 1.07108 2.78086 0
M  V30 743 H 74.4261 0.539677 1.36843 0
M  V30 744 H 76.3841 -1.06992 4.03248 0
M  V30 745 H 75.0141 -1.35841 2.92826 0
M  V30 746 H 74.0661 0.939837 3.68607 0
M  V30 747 H 75.3781 1.01857 4.88289 0
M  V30 748 H 74.5321 -1.07035 5.97184 0
M  V30 749 H 73.2711 -1.23657 4.71763 0
M  V30 750 H 72.2761 0.960769 5.4134 0
M  V30 751 H 73.5011 1.1131 6.69916 0
M  V30 752 H 71.4471 -1.11856 6.46393 0
M  V30 753 H 71.3641 0.224126 7.55668 0
M  V30 754 H 72.6321 -0.951336 7.73673 0
M  V30 755 N 76.8612 -1.46375 0.584142 0
M  V30 756 C 78.2772 -1.57694 0.245929 0
M  V30 757 C 78.4772 -1.57903 -1.25175 0
M  V30 758 O 77.5332 -1.49676 -2.03355 0
M  V30 759 C 78.8462 -2.87028 0.896402 0
M  V30 760 C 80.3942 -3.00662 0.870127 0
M  V30 761 C 80.8692 -4.32734 1.50017 0
M  V30 762 N 82.3602 -4.39436 1.46458 0
M  V30 763 C 83.0952 -5.40248 1.92144 0
M  V30 764 N 82.5912 -6.47726 2.4581 0
M  V30 765 N 84.3842 -5.31459 1.83052 0
M  V30 766 H 76.5352 -1.44483 1.55687 0
M  V30 767 H 78.7982 -0.689291 0.650831 0
M  V30 768 H 78.5042 -2.9269 1.95002 0
M  V30 769 H 78.3782 -3.75014 0.405486 0
M  V30 770 H 80.7652 -2.94581 -0.174871 0
M  V30 771 H 80.8462 -2.14148 1.39908 0
M  V30 772 H 80.4902 -4.39573 2.54437 0
M  V30 773 H 80.4202 -5.18025 0.946432 0
M  V30 774 H 82.9112 -3.62367 1.07231 0
M  V30 775 H 83.2242 -7.20863 2.78525 0
M  V30 776 H 81.5692 -6.48542 2.49836 0
M  V30 777 H 84.7602 -4.46396 1.40883 0
M  V30 778 H 84.9332 -6.09881 2.18973 0
M  V30 779 N 78.3393 -0.321999 -1.54275 0
M  V30 780 C 79.6163 0.335232 -1.92706 0
M  V30 781 C 79.9963 1.70006 -1.25145 0
M  V30 782 O 79.3443 2.25067 -0.394596 0
M  V30 783 C 79.5543 0.429008 -3.46353 0
M  V30 784 C 80.9023 0.690029 -4.18956 0
M  V30 785 O 81.9263 0.511992 -3.52501 0
M  V30 786 O 80.7853 1.03338 -5.36641 0
M  V30 787 H 77.8793 0.191143 -0.804608 0
M  V30 788 H 80.4253 -0.3716 -1.65581 0
M  V30 789 H 79.1973 -0.529611 -3.87699 0
M  V30 790 H 78.8203 1.18348 -3.79578 0
M  V30 791 N 79.8174 1.5752 -0.0501392 0
M  V30 792 C 81.0454 1.96963 0.633492 0
M  V30 793 C 81.4604 0.927631 1.6444 0
M  V30 794 O 80.8174 -0.0882665 1.82286 0
M  V30 795 C 80.8684 3.36487 1.32132 0
M  V30 796 O 80.5894 4.36693 0.350894 0
M  V30 797 C 82.0904 3.90682 2.09481 0
M  V30 798 H 79.3104 0.648244 0.173266 0
M  V30 799 H 81.8544 2.0417 -0.116134 0
M  V30 800 H 80.0094 3.30434 2.02218 0
M  V30 801 H 80.4234 5.17702 0.841735 0
M  V30 802 H 81.8974 4.90591 2.5303 0
M  V30 803 H 82.3744 3.26053 2.94255 0
M  V30 804 H 82.9804 4.00069 1.44307 0
M  V30 805 N 81.2955 -0.223234 1.56011 0
M  V30 806 C 82.2435 -1.29627 1.93131 0
M  V30 807 C 83.2375 -1.48608 0.813146 0
M  V30 808 O 84.4435 -1.49802 0.997966 0
M  V30 809 H 80.8185 -0.434563 0.613726 0
M  V30 810 H 82.7895 -0.955995 2.82672 0
M  V30 811 C 81.5385 -2.63983 2.26292 0
M  V30 812 H 80.8615 -2.50185 3.11846 0
M  V30 813 H 82.3015 -3.3788 2.56151 0
M  V30 814 C 80.7605 -3.18866 1.08747 0
M  V30 815 O 81.2905 -4.00192 0.347727 0
M  V30 816 N 79.4965 -2.77217 0.871743 0
M  V30 817 H 79.0435 -2.1119 1.47501 0
M  V30 818 H 79.0015 -3.1428 0.0869905 0
M  V30 819 N 82.7736 -1.49793 -0.48987 0
M  V30 820 C 83.9986 -1.63836 -1.27172 0
M  V30 821 C 84.4236 -0.31402 -1.8546 0
M  V30 822 O 83.7816 0.719803 -1.66399 0
M  V30 823 C 83.8296 -2.71797 -2.36978 0
M  V30 824 O 82.9336 -2.31744 -3.41128 0
M  V30 825 H 82.2746 -0.547997 -0.37496 0
M  V30 826 H 84.8046 -1.96053 -0.585191 0
M  V30 827 H 84.8146 -2.94305 -2.82575 0
M  V30 828 H 83.4896 -3.67923 -1.93921 0
M  V30 829 H 82.0666 -2.1961 -3.01373 0
M  V30 830 N 84.2517 0.741722 -1.39055 0
M  V30 831 C 85.1987 1.85566 -1.37237 0
M  V30 832 C 86.1687 1.64457 -0.233072 0
M  V30 833 O 87.3537 1.85957 -0.427147 0
M  V30 834 C 84.4937 3.23004 -1.215 0
M  V30 835 C 83.6067 3.55864 -2.44918 0
M  V30 836 C 82.7417 4.82669 -2.21821 0
M  V30 837 C 81.7807 5.08351 -3.40948 0
M  V30 838 N 80.9177 6.26356 -3.17211 0
M  V30 839 H 85.7577 1.86455 -2.32462 0
M  V30 840 H 83.2947 0.911176 -1.15482 0
M  V30 841 H 85.2527 4.02331 -1.10389 0
M  V30 842 H 83.8827 3.21411 -0.29908 0
M  V30 843 H 82.9347 2.7129 -2.66657 0
M  V30 844 H 84.2467 3.70765 -3.33668 0
M  V30 845 H 83.4007 5.69962 -2.07914 0
M  V30 846 H 82.1397 4.69929 -1.30454 0
M  V30 847 H 81.1447 4.19522 -3.55361 0
M  V30 848 H 82.3697 5.22981 -4.33207 0
M  V30 849 H 80.3157 6.14917 -2.28502 0
M  V30 850 H 80.2327 6.41813 -3.99515 0
M  V30 851 H 81.5007 7.16506 -3.06984 0
M  V30 852 N 85.7298 1.2412 0.971189 0
M  V30 853 C 86.6768 1.0305 2.06517 0
M  V30 854 C 87.6468 -0.0550666 1.66009 0
M  V30 855 O 88.8318 0.0988688 1.90544 0
M  V30 856 C 85.9718 0.637653 3.39158 0
M  V30 857 C 85.0848 1.79633 3.92882 0
M  V30 858 C 84.2198 1.34939 5.13775 0
M  V30 859 C 83.2588 2.47823 5.59687 0
M  V30 860 N 82.3958 2.04022 6.71803 0
M  V30 861 H 87.2358 1.96685 2.23873 0
M  V30 862 H 84.7728 0.979694 1.09729 0
M  V30 863 H 86.7308 0.390931 4.15364 0
M  V30 864 H 85.3608 -0.261693 3.21737 0
M  V30 865 H 84.4128 2.15681 3.13346 0
M  V30 866 H 85.7248 2.64466 4.22918 0
M  V30 867 H 84.8788 1.06134 5.97345 0
M  V30 868 H 83.6178 0.471557 4.85415 0
M  V30 869 H 82.6228 2.77392 4.74693 0
M  V30 870 H 83.8478 3.36158 5.90063 0
M  V30 871 H 81.7938 1.18632 6.45184 0
M  V30 872 H 81.7108 2.82409 7.01271 0
M  V30 873 H 82.9788 1.78347 7.58823 0
M  V30 874 N 87.2079 -1.17134 1.05439 0
M  V30 875 C 88.1409 -2.2012 0.601855 0
M  V30 876 C 89.1189 -1.58314 -0.370854 0
M  V30 877 O 90.3029 -1.8638 -0.281882 0
M  V30 878 C 87.4299 -3.38491 -0.118868 0
M  V30 879 C 86.4759 -4.18752 0.809242 0
M  V30 880 S 87.3089 -4.83602 2.29977 0
M  V30 881 C 88.4649 -6.0536 1.59029 0
M  V30 882 H 88.6979 -2.58165 1.47438 0
M  V30 883 H 86.2309 -1.27788 0.866573 0
M  V30 884 H 88.1889 -4.07084 -0.528495 0
M  V30 885 H 86.8499 -2.98829 -0.967465 0
M  V30 886 H 86.0429 -5.03373 0.251379 0
M  V30 887 H 85.6449 -3.5561 1.15835 0
M  V30 888 H 87.9369 -6.71615 0.891017 0
M  V30 889 H 88.8799 -6.65679 2.41407 0
M  V30 890 H 89.2879 -5.54138 1.07663 0
M  V30 891 N 88.686 -0.835752 -1.33615 0
M  V30 892 C 89.634 -0.255238 -2.31195 0
M  V30 893 C 90.628 0.61107 -1.57995 0
M  V30 894 O 91.834 0.500979 -1.72888 0
M  V30 895 H 88.209 -0.0638085 -0.749288 0
M  V30 896 H 90.18 -1.09283 -2.77669 0
M  V30 897 C 88.929 0.55754 -3.43201 0
M  V30 898 H 88.252 -0.0997553 -3.99676 0
M  V30 899 H 89.692 0.929622 -4.13683 0
M  V30 900 C 88.151 1.73515 -2.88781 0
M  V30 901 O 88.681 2.83376 -2.84712 0
M  V30 902 N 86.887 1.55603 -2.4543 0
M  V30 903 H 86.434 0.662354 -2.48939 0
M  V30 904 H 86.392 2.34545 -2.09371 0
M  V30 905 N 90.1641 1.46063 -0.591896 0
M  V30 906 C 91.0941 2.33172 0.123673 0
M  V30 907 C 92.0751 1.45897 0.87453 0
M  V30 908 O 93.2601 1.74698 0.848181 0
M  V30 909 C 90.3901 3.28336 1.13194 0
M  V30 910 C 89.3441 4.25124 0.495324 0
M  V30 911 C 88.6701 5.09863 1.61071 0
M  V30 912 C 89.9701 5.19143 -0.573425 0
M  V30 913 H 91.6641 2.93252 -0.603646 0
M  V30 914 H 89.2101 1.41014 -0.291741 0
M  V30 915 H 91.1631 3.88137 1.64097 0
M  V30 916 H 89.8871 2.66383 1.88965 0
M  V30 917 H 88.5461 3.66599 0.00729452 0
M  V30 918 H 88.1941 4.44288 2.35832 0
M  V30 919 H 87.8941 5.75417 1.19035 0
M  V30 920 H 89.4181 5.72529 2.12233 0
M  V30 921 H 90.8321 5.73106 -0.1491 0
M  V30 922 H 89.2291 5.93089 -0.914636 0
M  V30 923 H 90.2991 4.62519 -1.45617 0
M  V30 924 N 91.6422 0.330177 1.54103 0
M  V30 925 C 92.8902 -0.269871 2.0029 0
M  V30 926 C 93.2112 -1.52133 1.21986 0
M  V30 927 O 92.4812 -1.93212 0.323438 0
M  V30 928 H 91.0612 -0.10271 0.739905 0
M  V30 929 H 93.7232 0.448249 1.89675 0
M  V30 930 H 92.8192 -0.52166 3.07709 0
M  V30 931 N 93.1203 -1.57491 0.0584922 0
M  V30 932 C 94.3663 -1.93264 -0.614558 0
M  V30 933 C 94.6993 -0.937717 -1.7006 0
M  V30 934 O 93.9743 0.0351652 -1.94468 0
M  V30 935 C 94.2573 -3.3938 -1.20386 0
M  V30 936 C 94.1103 -4.49625 -0.125375 0
M  V30 937 C 95.4293 -3.86039 -2.11334 0
M  V30 938 H 92.5483 -0.702791 -0.221933 0
M  V30 939 H 95.1903 -1.8961 0.12175 0
M  V30 940 H 93.3403 -3.42626 -1.83139 0
M  V30 941 H 95.0123 -4.58506 0.506971 0
M  V30 942 H 93.2553 -4.30354 0.545672 0
M  V30 943 H 93.9263 -5.48967 -0.577861 0
M  V30 944 H 96.4023 -3.84716 -1.58534 0
M  V30 945 H 95.2783 -4.88914 -2.49507 0
M  V30 946 H 95.5393 -3.23215 -3.01636 0
M  V30 947 N 94.5984 0.214957 -1.56127 0
M  V30 948 C 95.8464 0.936518 -1.79091 0
M  V30 949 C 96.1674 1.84606 -0.628148 0
M  V30 950 O 95.4374 1.92664 0.35462 0
M  V30 951 H 94.0174 0.3488 -0.660566 0
M  V30 952 H 96.6794 0.22523 -1.93594 0
M  V30 953 H 95.7754 1.53943 -2.71492 0
M  V30 954 N 96.0765 1.50051 0.48192 0
M  V30 955 C 97.0395 1.67584 1.5636 0
M  V30 956 C 98.0395 0.546894 1.51214 0
M  V30 957 O 99.2295 0.813725 1.54026 0
M  V30 958 C 96.3615 1.691 2.96003 0
M  V30 959 H 97.5545 2.64078 1.42136 0
M  V30 960 H 95.1075 1.39369 0.707533 0
M  V30 961 H 95.8425 0.742589 3.15684 0
M  V30 962 H 95.6275 2.51105 3.01146 0
M  V30 963 H 97.1175 1.84656 3.74556 0
M  V30 964 N 97.5546 -0.734337 1.39446 0
M  V30 965 C 98.7846 -1.52137 1.39778 0
M  V30 966 C 99.1926 -1.89198 -0.00929312 0
M  V30 967 O 98.5356 -1.54666 -0.991168 0
M  V30 968 C 98.5976 -2.83762 2.20724 0
M  V30 969 C 98.2616 -2.69131 3.69347 0
M  V30 970 C 99.2586 -2.37635 4.62413 0
M  V30 971 C 96.9436 -2.85982 4.1294 0
M  V30 972 C 98.9376 -2.23172 5.97054 0
M  V30 973 C 96.6246 -2.71137 5.47657 0
M  V30 974 C 97.6226 -2.39777 6.39528 0
M  V30 975 O 97.3106 -2.25026 7.71763 0
M  V30 976 H 97.0426 -0.476717 0.479288 0
M  V30 977 H 99.5966 -0.915012 1.83893 0
M  V30 978 H 97.8266 -3.4666 1.71359 0
M  V30 979 H 99.5156 -3.45383 2.13226 0
M  V30 980 H 100.282 -2.24267 4.30034 0
M  V30 981 H 96.1606 -3.09383 3.41765 0
M  V30 982 H 99.7046 -1.98617 6.68728 0
M  V30 983 H 95.6016 -2.84083 5.79626 0
M  V30 984 H 96.3696 -2.40091 7.82495 0
M  V30 985 N 99.0327 -1.24633 -0.964593 0
M  V30 986 C 100.449 -1.01239 -1.2338 0
M  V30 987 C 100.649 0.2769 -1.99588 0
M  V30 988 O 99.7047 0.992241 -2.32187 0
M  V30 989 C 101.018 -2.22937 -2.01791 0
M  V30 990 C 102.566 -2.27594 -2.14872 0
M  V30 991 C 103.041 -3.48921 -2.96678 0
M  V30 992 N 104.532 -3.49257 -3.04259 0
M  V30 993 C 105.267 -4.39795 -3.67924 0
M  V30 994 N 104.763 -5.40591 -4.33281 0
M  V30 995 N 106.556 -4.275 -3.64966 0
M  V30 996 H 98.7067 -2.0748 -0.454502 0
M  V30 997 H 100.97 -0.910647 -0.26349 0
M  V30 998 H 100.676 -3.16587 -1.53184 0
M  V30 999 H 100.55 -2.25306 -3.02518 0
M  V30 1000 H 102.937 -1.34473 -2.6268 0
M  V30 1001 H 103.018 -2.2925 -1.13482 0
M  V30 1002 H 102.662 -4.42359 -2.49562 0
M  V30 1003 H 102.592 -3.4451 -3.98272 0
M  V30 1004 H 105.083 -2.76337 -2.57771 0
M  V30 1005 H 105.396 -6.05904 -4.79687 0
M  V30 1006 H 103.741 -5.44475 -4.3194 0
M  V30 1007 H 106.932 -3.47987 -3.13086 0
M  V30 1008 H 107.105 -4.98258 -4.14298 0
M  V30 1009 N 100.511 1.16574 -1.06058 0
M  V30 1010 C 101.788 1.83048 -0.689416 0
M  V30 1011 C 102.168 1.94122 0.829443 0
M  V30 1012 O 101.516 1.48249 1.7388 0
M  V30 1013 C 101.726 3.20186 -1.38859 0
M  V30 1014 C 103.074 3.95989 -1.53226 0
M  V30 1015 O 104.098 3.29696 -1.3483 0
M  V30 1016 O 102.957 5.14813 -1.83384 0
M  V30 1017 H 100.051 0.790258 -0.243764 0
M  V30 1018 H 102.597 1.23797 -1.16071 0
M  V30 1019 H 101.369 3.07146 -2.4244 0
M  V30 1020 H 100.992 3.87112 -0.907216 0
M  V30 1021 N 101.989 0.842826 1.3317 0
M  V30 1022 C 103.266 0.362216 1.92217 0
M  V30 1023 C 103.646 -1.15289 1.76838 0
M  V30 1024 O 102.994 -1.96914 1.15919 0
M  V30 1025 C 103.204 0.813495 3.39387 0
M  V30 1026 C 104.552 0.823804 4.16532 0
M  V30 1027 O 105.576 0.757358 3.48055 0
M  V30 1028 O 104.435 0.915193 5.38782 0
M  V30 1029 H 101.529 0.103317 0.820521 0
M  V30 1030 H 104.075 0.928942 1.42017 0
M  V30 1031 H 102.847 1.85624 3.4447 0
M  V30 1032 H 102.47 0.223561 3.96971 0
M  V30 1033 N 103.467 -1.45747 0.599634 0
M  V30 1034 C 104.415 -2.322 -0.136426 0
M  V30 1035 C 105.409 -1.45497 -0.867583 0
M  V30 1036 O 106.615 -1.62027 -0.78405 0
M  V30 1037 H 102.99 -0.749368 -0.0628588 0
M  V30 1038 H 104.961 -2.92072 0.611281 0
M  V30 1039 C 103.71 -3.28974 -1.12567 0
M  V30 1040 H 103.033 -3.9568 -0.572484 0
M  V30 1041 H 104.473 -3.92212 -1.61077 0
M  V30 1042 C 102.932 -2.55561 -2.19523 0
M  V30 1043 O 103.462 -2.33111 -3.27143 0
M  V30 1044 N 101.668 -2.15832 -1.94589 0
M  V30 1045 H 101.215 -2.3429 -1.07078 0
M  V30 1046 H 101.173 -1.67034 -2.66359 0
M  V30 1047 N 104.945 -0.338344 -1.53925 0
M  V30 1048 C 106.193 0.259245 -2.0043 0
M  V30 1049 C 106.514 1.51484 -1.22791 0
M  V30 1050 O 105.784 1.93037 -0.33368 0
M  V30 1051 H 104.364 0.0987845 -0.740439 0
M  V30 1052 H 107.026 -0.458302 -1.89435 0
M  V30 1053 H 106.122 0.505334 -3.07982 0
M  V30 1054 N 106.423 1.57458 -0.0668435 0
M  V30 1055 C 107.37 2.12439 0.902122 0
M  V30 1056 C 108.34 1.03565 1.2986 0
M  V30 1057 O 109.525 1.312 1.38532 0
M  V30 1058 C 106.665 2.6865 2.16614 0
M  V30 1059 C 105.778 3.91663 1.82274 0
M  V30 1060 C 104.913 4.36134 3.0325 0
M  V30 1061 C 103.952 5.51808 2.64904 0
M  V30 1062 N 103.089 5.9126 3.78624 0
M  V30 1063 H 107.929 2.94934 0.426382 0
M  V30 1064 H 105.466 1.4575 0.198819 0
M  V30 1065 H 107.424 2.99346 2.90599 0
M  V30 1066 H 106.054 1.88928 2.61737 0
M  V30 1067 H 105.106 3.6746 0.983719 0
M  V30 1068 H 106.418 4.75693 1.50059 0
M  V30 1069 H 105.572 4.68465 3.85519 0
M  V30 1070 H 104.311 3.50948 3.38655 0
M  V30 1071 H 103.316 5.19133 1.81055 0
M  V30 1072 H 104.541 6.38722 2.30675 0
M  V30 1073 H 102.487 5.09024 4.138 0
M  V30 1074 H 102.404 6.70018 3.5016 0
M  V30 1075 H 103.672 6.28212 4.61486 0
M  V30 1076 N 107.901 -0.206675 1.56239 0
M  V30 1077 C 109.312 -0.772383 1.69974 0
M  V30 1078 C 109.663 -1.84353 0.671436 0
M  V30 1079 O 108.788 -2.15695 -0.174491 0
M  V30 1080 C 109.383 -1.40779 3.08167 0
M  V30 1081 C 107.942 -1.92072 3.23706 0
M  V30 1082 C 107.089 -0.786347 2.65917 0
M  V30 1083 H 110.04 0.0182223 1.5869 0
M  V30 1084 H 110.061 -2.27696 3.04852 0
M  V30 1085 H 109.573 -0.627958 3.82986 0
M  V30 1086 H 107.674 -2.7281 2.53782 0
M  V30 1087 H 107.787 -2.09046 4.31087 0
M  V30 1088 H 106.151 -1.1976 2.24788 0
M  V30 1089 H 106.934 -0.0189416 3.43295 0
M  V30 1090 N 109.379 -1.50304 -0.473955 0
M  V30 1091 C 110.609 -1.64663 -1.24778 0
M  V30 1092 C 111.017 -0.328174 -1.86332 0
M  V30 1093 O 110.36 0.699536 -1.69859 0
M  V30 1094 C 110.422 -2.6778 -2.39863 0
M  V30 1095 C 110.086 -4.11413 -1.98969 0
M  V30 1096 C 111.083 -4.97372 -1.51385 0
M  V30 1097 C 108.768 -4.57312 -2.07777 0
M  V30 1098 C 110.762 -6.27277 -1.13148 0
M  V30 1099 C 108.449 -5.87223 -1.69152 0
M  V30 1100 C 109.447 -6.72031 -1.21915 0
M  V30 1101 O 109.135 -7.99518 -0.838237 0
M  V30 1102 H 108.867 -0.556602 -0.383627 0
M  V30 1103 H 111.421 -1.9726 -0.572491 0
M  V30 1104 H 109.651 -2.30419 -3.10554 0
M  V30 1105 H 111.34 -2.71388 -3.01833 0
M  V30 1106 H 112.106 -4.63128 -1.44004 0
M  V30 1107 H 107.985 -3.91449 -2.43493 0
M  V30 1108 H 111.529 -6.93425 -0.762077 0
M  V30 1109 H 107.426 -6.20989 -1.76191 0
M  V30 1110 H 108.194 -8.12764 -0.967339 0
M  V30 1111 N 110.857 0.726932 -1.39834 0
M  V30 1112 C 112.103 1.48884 -1.377 0
M  V30 1113 C 112.436 1.94185 0.0244852 0
M  V30 1114 O 111.711 1.67361 0.990986 0
M  V30 1115 C 111.994 2.72288 -2.3565 0
M  V30 1116 C 111.847 2.32956 -3.84775 0
M  V30 1117 C 113.166 3.74414 -2.31306 0
M  V30 1118 H 110.285 0.540062 -0.5015 0
M  V30 1119 H 112.927 0.830547 -1.70886 0
M  V30 1120 H 111.077 3.28457 -2.07481 0
M  V30 1121 H 112.749 1.82356 -4.23726 0
M  V30 1122 H 110.992 1.65088 -4.01159 0
M  V30 1123 H 111.663 3.21362 -4.4881 0
M  V30 1124 H 114.139 3.27849 -2.56231 0
M  V30 1125 H 113.015 4.58414 -3.01907 0
M  V30 1126 H 113.276 4.21909 -1.32081 0
M  V30 1127 N 112.336 1.25143 0.95797 0
M  V30 1128 C 113.266 1.07711 2.07173 0
M  V30 1129 C 114.247 -0.0128462 1.70095 0
M  V30 1130 O 115.432 0.156061 1.93572 0
M  V30 1131 C 112.562 0.691503 3.40346 0
M  V30 1132 C 111.516 1.73132 3.9142 0
M  V30 1133 C 110.842 1.20049 5.21049 0
M  V30 1134 C 112.142 3.1294 4.1817 0
M  V30 1135 H 113.836 2.00873 2.22014 0
M  V30 1136 H 111.382 0.967191 1.06684 0
M  V30 1137 H 113.335 0.556505 4.17709 0
M  V30 1138 H 112.059 -0.275819 3.25433 0
M  V30 1139 H 110.718 1.8547 3.16222 0
M  V30 1140 H 110.366 0.223499 5.02503 0
M  V30 1141 H 110.066 1.89545 5.56189 0
M  V30 1142 H 111.59 1.07782 6.01012 0
M  V30 1143 H 113.004 3.03775 4.86203 0
M  V30 1144 H 111.401 3.79875 4.64559 0
M  V30 1145 H 112.471 3.6025 3.24573 0
M  V30 1146 N 113.814 -1.1601 1.06675 0
M  V30 1147 C 115.225 -1.68235 0.809565 0
M  V30 1148 C 115.576 -1.8454 -0.666303 0
M  V30 1149 O 114.701 -1.54374 -1.5165 0
M  V30 1150 C 115.296 -3.05585 1.46299 0
M  V30 1151 C 113.855 -3.54915 1.25349 0
M  V30 1152 C 113.002 -2.30804 1.53703 0
M  V30 1153 H 115.953 -1.00318 1.22971 0
M  V30 1154 H 115.974 -3.70174 0.880431 0
M  V30 1155 H 115.486 -2.93686 2.53713 0
M  V30 1156 H 113.587 -3.72067 0.199261 0
M  V30 1157 H 113.7 -4.36774 1.9689 0
M  V30 1158 H 112.064 -2.36007 0.957739 0
M  V30 1159 H 112.847 -2.21499 2.62284 0
M  V30 1160 N 115.292 -0.849877 -1.32721 0
M  V30 1161 C 116.517 -0.463856 -2.02146 0
M  V30 1162 C 116.942 0.930449 -1.63476 0
M  V30 1163 O 116.3 1.61033 -0.832952 0
M  V30 1164 C 116.348 -0.604955 -3.55489 0
M  V30 1165 O 115.452 0.36425 -4.10788 0
M  V30 1166 H 114.793 -0.187046 -0.637111 0
M  V30 1167 H 117.323 -1.14775 -1.69375 0
M  V30 1168 H 117.333 -0.490696 -4.05038 0
M  V30 1169 H 116.008 -1.62174 -3.82978 0
M  V30 1170 H 114.585 0.206628 -3.72327 0
M  V30 1171 N 116.77 1.45427 -0.607355 0
M  V30 1172 C 118.016 2.0254 -0.102607 0
M  V30 1173 C 118.349 1.47478 1.26348 0
M  V30 1174 O 117.624 0.64939 1.83339 0
M  V30 1175 C 117.907 3.60044 -0.0634347 0
M  V30 1176 C 117.76 4.2544 -1.46017 0
M  V30 1177 C 119.079 4.35646 0.624514 0
M  V30 1178 H 116.198 0.73598 -0.0387607 0
M  V30 1179 H 118.84 1.73284 -0.779282 0
M  V30 1180 H 116.99 3.85101 0.512808 0
M  V30 1181 H 118.662 4.11569 -2.08347 0
M  V30 1182 H 116.905 3.83849 -2.02094 0
M  V30 1183 H 117.576 5.34342 -1.385 0
M  V30 1184 H 120.052 4.15882 0.134723 0
M  V30 1185 H 118.928 5.45376 0.621028 0
M  V30 1186 H 119.189 4.08501 1.69055 0
M  V30 1187 N 118.248 0.346503 1.53744 0
M  V30 1188 C 119.664 -0.00530975 1.59599 0
M  V30 1189 C 119.864 -1.48465 1.36236 0
M  V30 1190 O 118.92 -2.24376 1.15808 0
M  V30 1191 C 120.233 0.433516 2.97559 0
M  V30 1192 C 121.781 0.386111 3.10609 0
M  V30 1193 C 122.256 0.800451 4.50951 0
M  V30 1194 N 123.747 0.754753 4.5701 0
M  V30 1195 C 124.482 1.04727 5.63755 0
M  V30 1196 N 123.978 1.4081 6.7834 0
M  V30 1197 N 125.771 0.971316 5.53644 0
M  V30 1198 H 117.922 1.31009 1.67184 0
M  V30 1199 H 120.185 0.534242 0.783128 0
M  V30 1200 H 119.891 1.46509 3.19731 0
M  V30 1201 H 119.765 -0.189753 3.76722 0
M  V30 1202 H 122.152 -0.636295 2.88158 0
M  V30 1203 H 122.233 1.04462 2.33498 0
M  V30 1204 H 121.877 1.82088 4.74137 0
M  V30 1205 H 121.807 0.119386 5.26465 0
M  V30 1206 H 124.298 0.488662 3.74727 0
M  V30 1207 H 124.611 1.61607 7.55714 0
M  V30 1208 H 122.956 1.44657 6.79779 0
M  V30 1209 H 126.147 0.688748 4.63005 0
M  V30 1210 H 126.32 1.20263 6.36742 0
M  V30 1211 N 119.726 -1.57421 0.075193 0
M  V30 1212 C 120.673 -2.12915 -0.890843 0
M  V30 1213 C 121.643 -1.04252 -1.29309 0
M  V30 1214 O 122.828 -1.31933 -1.37834 0
M  V30 1215 C 119.968 -2.69795 -2.15186 0
M  V30 1216 C 119.081 -3.92624 -1.80194 0
M  V30 1217 C 118.216 -4.37736 -3.00933 0
M  V30 1218 C 117.255 -5.53205 -2.61974 0
M  V30 1219 N 116.392 -5.9326 -3.75483 0
M  V30 1220 H 121.232 -2.95156 -0.410735 0
M  V30 1221 H 118.769 -1.45854 -0.191086 0
M  V30 1222 H 120.727 -3.00883 -2.89008 0
M  V30 1223 H 119.357 -1.90313 -2.60731 0
M  V30 1224 H 118.409 -3.67977 -0.964218 0
M  V30 1225 H 119.721 -4.76482 -1.47534 0
M  V30 1226 H 118.875 -4.70503 -3.8303 0
M  V30 1227 H 117.614 -3.52739 -3.36789 0
M  V30 1228 H 116.619 -5.20086 -1.783 0
M  V30 1229 H 117.844 -6.39936 -2.27284 0
M  V30 1230 H 115.79 -5.11212 -4.11094 0
M  V30 1231 H 115.707 -6.71865 -3.46602 0
M  V30 1232 H 116.975 -6.30651 -4.58148 0
M  V30 1233 N 121.204 0.198386 -1.56346 0
M  V30 1234 C 122.167 1.22952 -1.93431 0
M  V30 1235 C 123.167 1.38611 -0.815092 0
M  V30 1236 O 124.357 1.36479 -1.08255 0
M  V30 1237 C 121.489 2.59946 -2.20546 0
M  V30 1238 H 122.682 0.912626 -2.85677 0
M  V30 1239 H 120.235 0.43977 -1.49986 0
M  V30 1240 H 120.97 2.96696 -1.30927 0
M  V30 1241 H 120.755 2.49953 -3.02102 0
M  V30 1242 H 122.245 3.3431 -2.50253 0
M  V30 1243 N 122.682 1.50554 0.465978 0
M  V30 1244 C 123.592 1.72585 1.58907 0
M  V30 1245 C 124.608 0.60911 1.6299 0
M  V30 1246 O 125.784 0.88804 1.80765 0
M  V30 1247 C 122.849 1.81995 2.95091 0
M  V30 1248 C 121.91 3.05751 3.01355 0
M  V30 1249 C 121.143 3.14702 4.31043 0
M  V30 1250 O 121.366 2.30313 5.21835 0
M  V30 1251 O 120.3 4.07468 4.43005 0
M  V30 1252 H 124.126 2.67799 1.43239 0
M  V30 1253 H 121.711 1.34711 0.646013 0
M  V30 1254 H 123.593 1.90335 3.75966 0
M  V30 1255 H 122.268 0.899659 3.10947 0
M  V30 1256 H 121.175 3.02908 2.19539 0
M  V30 1257 H 122.508 3.97375 2.90437 0
M  V30 1258 N 124.16 -0.719506 1.40217 0
M  V30 1259 C 125.123 -1.8153 1.39927 0
M  V30 1260 C 126.123 -1.58095 0.293723 0
M  V30 1261 O 127.313 -1.65209 0.552429 0
M  V30 1262 C 124.445 -3.19561 1.18716 0
M  V30 1263 H 125.638 -1.83186 2.37451 0
M  V30 1264 H 123.191 -0.924746 1.26008 0
M  V30 1265 H 123.926 -3.23557 0.219366 0
M  V30 1266 H 123.711 -3.3797 1.98793 0
M  V30 1267 H 125.201 -3.99598 1.21291 0
M  V30 1268 N 125.638 -1.25649 -0.95132 0
M  V30 1269 C 126.57 -1.02112 -2.05197 0
M  V30 1270 C 127.583 0.0150571 -1.62793 0
M  V30 1271 O 128.772 -0.223874 -1.77091 0
M  V30 1272 C 125.872 -0.522361 -3.3485 0
M  V30 1273 C 125.045 -1.62546 -4.06076 0
M  V30 1274 C 124.104 -1.12649 -5.14001 0
M  V30 1275 O 123.13 -1.82156 -5.39266 0
M  V30 1276 N 124.332 0.03047 -5.80492 0
M  V30 1277 H 127.097 -1.96885 -2.25957 0
M  V30 1278 H 124.658 -1.16899 -1.1201 0
M  V30 1279 H 126.65 -0.172961 -4.0433 0
M  V30 1280 H 125.22 0.33151 -3.10837 0
M  V30 1281 H 124.44 -2.14628 -3.30649 0
M  V30 1282 H 125.728 -2.36644 -4.50419 0
M  V30 1283 H 125.126 0.611169 -5.62389 0
M  V30 1284 H 123.683 0.320875 -6.5101 0
M  V30 1285 N 127.117 1.15442 -1.07289 0
M  V30 1286 C 128.366 1.85557 -0.790669 0
M  V30 1287 C 128.679 1.83186 0.685739 0
M  V30 1288 O 129.885 2.48977 1.0827 0
M  V30 1289 C 128.341 3.33038 -1.36433 0
M  V30 1290 C 127.949 3.43856 -2.8717 0
M  V30 1291 C 129.693 4.0834 -1.1601 0
M  V30 1292 C 127.6 4.85482 -3.3773 0
M  V30 1293 H 126.53 0.695122 -0.292098 0
M  V30 1294 H 129.181 1.30219 -1.29287 0
M  V30 1295 H 127.563 3.88043 -0.789864 0
M  V30 1296 H 128.737 2.98961 -3.50655 0
M  V30 1297 H 127.052 2.81998 -3.06376 0
M  V30 1298 H 129.649 5.12859 -1.51262 0
M  V30 1299 H 129.992 4.16182 -0.0991007 0
M  V30 1300 H 130.525 3.59603 -1.70089 0
M  V30 1301 H 127.264 4.82823 -4.43353 0
M  V30 1302 H 126.784 5.30961 -2.78999 0
M  V30 1303 H 128.463 5.54335 -3.33648 0
M  V30 1304 N 128.595 0.856903 1.32268 0
M  V30 1305 C 129.558 0.308171 2.27119 0
M  V30 1306 C 130.558 -0.533421 1.51695 0
M  V30 1307 O 131.748 -0.344607 1.70757 0
M  V30 1308 C 128.88 -0.563757 3.36206 0
M  V30 1309 H 130.073 1.14535 2.77167 0
M  V30 1310 H 127.626 0.631421 1.42978 0
M  V30 1311 H 128.361 -1.42266 2.91429 0
M  V30 1312 H 128.146 0.0386749 3.92081 0
M  V30 1313 H 129.636 -0.940386 4.06874 0
M  V30 1314 N 130.073 -1.45103 0.615059 0
M  V30 1315 C 131.036 -2.29025 -0.0895485 0
M  V30 1316 C 132.036 -1.40174 -0.787906 0
M  V30 1317 O 133.226 -1.62217 -0.634933 0
M  V30 1318 C 130.358 -3.21376 -1.13711 0
M  V30 1319 H 131.551 -2.92807 0.648382 0
M  V30 1320 H 129.104 -1.51749 0.374444 0
M  V30 1321 H 129.839 -2.6241 -1.90556 0
M  V30 1322 H 129.624 -3.86834 -0.640475 0
M  V30 1323 H 131.114 -3.84459 -1.63036 0
M  V30 1324 N 131.551 -0.354651 -1.53558 0
M  V30 1325 C 132.498 0.496968 -2.25386 0
M  V30 1326 C 133.468 1.0865 -1.25636 0
M  V30 1327 O 134.653 1.12104 -1.54394 0
M  V30 1328 C 131.793 1.63637 -3.03837 0
M  V30 1329 C 130.906 1.07307 -4.18461 0
M  V30 1330 C 130.041 2.18068 -4.84376 0
M  V30 1331 C 129.08 1.59147 -5.91049 0
M  V30 1332 N 128.217 2.63695 -6.50699 0
M  V30 1333 H 133.057 -0.122075 -2.9775 0
M  V30 1334 H 130.594 -0.0720154 -1.46924 0
M  V30 1335 H 132.552 2.30734 -3.47589 0
M  V30 1336 H 131.182 2.22623 -2.33749 0
M  V30 1337 H 130.234 0.292708 -3.79272 0
M  V30 1338 H 131.546 0.602193 -4.95152 0
M  V30 1339 H 130.7 2.93007 -5.31255 0
M  V30 1340 H 129.439 2.68504 -4.07133 0
M  V30 1341 H 128.444 0.827175 -5.43542 0
M  V30 1342 H 129.669 1.09549 -6.70206 0
M  V30 1343 H 127.615 3.13365 -5.76315 0
M  V30 1344 H 127.532 2.21263 -7.22896 0
M  V30 1345 H 128.8 3.3837 -7.02229 0
M  V30 1346 N 133.029 1.57378 -0.0835403 0
M  V30 1347 C 133.977 2.14602 0.89714 0
M  V30 1348 C 134.971 1.08589 1.30018 0
M  V30 1349 O 136.177 1.26952 1.27606 0
M  V30 1350 H 132.552 0.686346 0.3073 0
M  V30 1351 H 134.523 2.95845 0.38969 0
M  V30 1352 C 133.272 2.73188 2.15089 0
M  V30 1353 H 132.595 3.54442 1.84962 0
M  V30 1354 H 134.035 3.1681 2.81793 0
M  V30 1355 C 132.494 1.68517 2.91725 0
M  V30 1356 O 133.024 1.11718 3.85852 0
M  V30 1357 N 131.23 1.39277 2.55049 0
M  V30 1358 H 130.777 1.85655 1.78577 0
M  V30 1359 H 130.735 0.694791 3.06627 0
M  V30 1360 N 134.507 -0.190092 1.56449 0
M  V30 1361 C 135.437 -1.23816 1.97969 0
M  V30 1362 C 136.418 -1.47201 0.852395 0
M  V30 1363 O 137.603 -1.58854 1.1171 0
M  V30 1364 C 134.733 -2.5813 2.3235 0
M  V30 1365 C 133.687 -2.49348 3.47864 0
M  V30 1366 C 133.013 -3.8798 3.67934 0
M  V30 1367 C 134.313 -2.01424 4.81898 0
M  V30 1368 H 136.007 -0.89311 2.85769 0
M  V30 1369 H 133.553 -0.428177 1.37487 0
M  V30 1370 H 135.506 -3.31637 2.59991 0
M  V30 1371 H 134.23 -2.94386 1.41438 0
M  V30 1372 H 132.889 -1.78297 3.20321 0
M  V30 1373 H 132.537 -4.21597 2.74344 0
M  V30 1374 H 132.237 -3.82978 4.45648 0
M  V30 1375 H 133.761 -4.63101 3.97957 0
M  V30 1376 H 135.175 -2.64693 5.08538 0
M  V30 1377 H 133.572 -2.07413 5.63116 0
M  V30 1378 H 134.642 -0.967677 4.75146 0
M  V30 1379 N 135.985 -1.50799 -0.457987 0
M  V30 1380 C 137.262 -1.52968 -1.21902 0
M  V30 1381 C 137.642 -0.281906 -2.09209 0
M  V30 1382 O 136.99 0.734076 -2.16388 0
M  V30 1383 C 137.2 -2.8326 -2.03875 0
M  V30 1384 C 138.548 -3.34425 -2.6162 0
M  V30 1385 O 139.572 -2.8467 -2.14106 0
M  V30 1386 O 138.431 -4.21188 -3.48228 0
M  V30 1387 H 135.525 -0.614129 -0.553873 0
M  V30 1388 H 138.071 -1.63098 -0.468739 0
M  V30 1389 H 136.843 -3.65543 -1.39621 0
M  V30 1390 H 136.466 -2.76195 -2.8601 0
M  V30 1391 N 137.463 0.71206 -1.40597 0
M  V30 1392 C 138.41 1.82613 -1.41142 0
M  V30 1393 C 139.38 1.63925 -0.267903 0
M  V30 1394 O 140.565 1.85009 -0.466495 0
M  V30 1395 C 137.705 3.20354 -1.28324 0
M  V30 1396 C 136.818 3.50589 -2.52411 0
M  V30 1397 C 135.953 4.77855 -2.32009 0
M  V30 1398 C 134.992 5.01005 -3.51654 0
M  V30 1399 N 134.129 6.19487 -3.30425 0
M  V30 1400 H 138.969 1.81482 -2.36365 0
M  V30 1401 H 136.506 0.886475 -1.17388 0
M  V30 1402 H 138.464 3.99899 -1.18899 0
M  V30 1403 H 137.094 3.20705 -0.367189 0
M  V30 1404 H 136.146 2.65573 -2.72351 0
M  V30 1405 H 137.458 3.63604 -3.41458 0
M  V30 1406 H 136.612 5.65424 -2.19956 0
M  V30 1407 H 135.351 4.67056 -1.40392 0
M  V30 1408 H 134.356 4.1189 -3.64179 0
M  V30 1409 H 135.581 5.13674 -4.44202 0
M  V30 1410 H 133.527 6.09932 -2.41494 0
M  V30 1411 H 133.444 6.33194 -4.13039 0
M  V30 1412 H 134.712 7.09834 -3.22113 0
M  V30 1413 N 138.941 1.26152 0.944643 0
M  V30 1414 C 139.851 1.09176 2.07648 0
M  V30 1415 C 140.867 0.0261935 1.7398 0
M  V30 1416 O 142.043 0.229208 2.00091 0
M  V30 1417 C 139.108 0.722915 3.39079 0
M  V30 1418 C 138.169 1.86752 3.86552 0
M  V30 1419 C 137.402 1.51617 5.11711 0
M  V30 1420 O 137.625 0.416331 5.68879 0
M  V30 1421 O 136.559 2.34975 5.54139 0
M  V30 1422 H 140.385 2.0412 2.24875 0
M  V30 1423 H 137.97 1.05182 1.061 0
M  V30 1424 H 139.852 0.529787 4.18056 0
M  V30 1425 H 138.527 -0.197159 3.23099 0
M  V30 1426 H 137.434 2.11558 3.08535 0
M  V30 1427 H 138.767 2.76719 4.07047 0
M  V30 1428 N 140.419 -1.14872 1.07899 0
M  V30 1429 C 141.649 -1.89386 0.825631 0
M  V30 1430 C 142.057 -1.78565 -0.625406 0
M  V30 1431 O 141.4 -1.13918 -1.44113 0
M  V30 1432 C 141.462 -3.40206 1.16191 0
M  V30 1433 C 141.126 -3.74812 2.61467 0
M  V30 1434 C 142.123 -3.75367 3.59716 0
M  V30 1435 C 139.808 -4.0495 2.97189 0
M  V30 1436 C 141.802 -4.05574 4.9172 0
M  V30 1437 C 139.489 -4.34821 4.29388 0
M  V30 1438 C 140.487 -4.35116 5.26463 0
M  V30 1439 O 140.175 -4.64267 6.56286 0
M  V30 1440 H 139.907 -0.606894 0.297751 0
M  V30 1441 H 142.461 -1.46438 1.44031 0
M  V30 1442 H 140.691 -3.8358 0.490214 0
M  V30 1443 H 142.38 -3.96018 0.890193 0
M  V30 1444 H 143.146 -3.52176 3.33462 0
M  V30 1445 H 139.025 -4.03876 2.22273 0
M  V30 1446 H 142.569 -4.05719 5.67484 0
M  V30 1447 H 138.466 -4.5748 4.55392 0
M  V30 1448 H 139.234 -4.82007 6.61522 0
M  V30 1449 N 141.898 -0.863906 -1.31812 0
M  V30 1450 C 142.828 -0.330843 -2.31144 0
M  V30 1451 C 143.809 0.575005 -1.60087 0
M  V30 1452 O 144.994 0.493304 -1.8783 0
M  V30 1453 C 142.124 0.47374 -3.44054 0
M  V30 1454 C 141.078 -0.338481 -4.26659 0
M  V30 1455 C 140.404 0.591412 -5.31419 0
M  V30 1456 C 141.704 -1.56926 -4.98168 0
M  V30 1457 H 143.398 -1.16086 -2.75979 0
M  V30 1458 H 140.944 -0.559657 -1.32679 0
M  V30 1459 H 142.897 0.857143 -4.12591 0
M  V30 1460 H 141.621 1.33721 -2.9797 0
M  V30 1461 H 140.28 -0.703754 -3.59782 0
M  V30 1462 H 139.928 1.45199 -4.81587 0
M  V30 1463 H 139.628 0.0519022 -5.87577 0
M  V30 1464 H 141.152 0.97179 -6.02817 0
M  V30 1465 H 142.566 -1.25764 -5.59336 0
M  V30 1466 H 140.963 -2.04739 -5.64094 0
M  V30 1467 H 142.033 -2.32544 -4.25501 0
M  V30 1468 N 143.376 1.44774 -0.622745 0
M  V30 1469 C 144.787 1.85546 -0.207226 0
M  V30 1470 C 145.138 1.52093 1.23944 0
M  V30 1471 O 144.263 0.95492 1.94191 0
M  V30 1472 C 144.858 3.36781 -0.369313 0
M  V30 1473 C 143.417 3.76399 -0.00836847 0
M  V30 1474 C 142.564 2.68664 -0.686651 0
M  V30 1475 H 145.515 1.3536 -0.828454 0
M  V30 1476 H 145.536 3.78453 0.394162 0
M  V30 1477 H 145.048 3.61098 -1.42231 0
M  V30 1478 H 143.149 3.57698 1.04322 0
M  V30 1479 H 143.262 4.7732 -0.412584 0
M  V30 1480 H 141.626 2.54404 -0.122777 0
M  V30 1481 H 142.409 2.95815 -1.74208 0
M  V30 1482 N 144.854 0.36279 1.53368 0
M  V30 1483 C 146.103 -0.22888 2.00397 0
M  V30 1484 C 146.416 -1.50096 1.25421 0
M  V30 1485 O 147.622 -2.17106 1.63025 0
M  V30 1486 C 146.078 -0.458417 3.56969 0
M  V30 1487 C 145.686 0.798877 4.4082 0
M  V30 1488 C 147.43 -1.00789 4.12361 0
M  V30 1489 C 145.337 0.539078 5.88938 0
M  V30 1490 H 144.267 -0.089305 0.748693 0
M  V30 1491 H 146.918 0.481099 1.77081 0
M  V30 1492 H 145.3 -1.22959 3.76427 0
M  V30 1493 H 146.474 1.57262 4.33134 0
M  V30 1494 H 144.789 1.27137 3.96516 0
M  V30 1495 H 147.386 -1.21754 5.20653 0
M  V30 1496 H 147.729 -1.9692 3.66781 0
M  V30 1497 H 148.262 -0.296961 3.9669 0
M  V30 1498 H 145.001 1.47064 6.3879 0
M  V30 1499 H 144.521 -0.196222 5.99479 0
M  V30 1500 H 146.2 0.163542 6.46793 0
M  V30 1501 N 146.332 -1.57332 0.0918853 0
M  V30 1502 C 147.58 -1.93853 -0.571446 0
M  V30 1503 C 147.901 -0.974212 -1.6892 0
M  V30 1504 O 147.171 -0.0257254 -1.95883 0
M  V30 1505 H 145.751 -0.715666 -0.214082 0
M  V30 1506 H 148.413 -1.94287 0.154464 0
M  V30 1507 H 147.509 -2.96191 -0.983729 0
M  V30 1508 N 147.81 0.181792 -1.56548 0
M  V30 1509 C 149.058 0.89832 -1.81038 0
M  V30 1510 C 149.379 1.83232 -0.667164 0
M  V30 1511 O 148.649 1.93372 0.313673 0
M  V30 1512 H 147.229 0.33471 -0.667816 0
M  V30 1513 H 149.891 0.184116 -1.94028 0
M  V30 1514 H 148.987 1.4815 -2.74696 0
M  V30 1515 N 149.288 1.51039 0.449983 0
M  V30 1516 C 150.218 1.74379 1.55288 0
M  V30 1517 C 151.199 0.593236 1.5942 0
M  V30 1518 O 152.384 0.834625 1.7535 0
M  V30 1519 C 149.514 1.85728 2.93466 0
M  V30 1520 C 148.468 3.01078 3.04197 0
M  V30 1521 C 147.794 2.97595 4.44231 0
M  V30 1522 C 149.094 4.41254 2.7945 0
M  V30 1523 H 150.788 2.66725 1.36008 0
M  V30 1524 H 148.334 1.2835 0.652864 0
M  V30 1525 H 150.287 2.0064 3.70569 0
M  V30 1526 H 149.011 0.900207 3.13949 0
M  V30 1527 H 147.67 2.85851 2.29531 0
M  V30 1528 H 147.318 1.99691 4.61663 0
M  V30 1529 H 147.018 3.75046 4.52343 0
M  V30 1530 H 148.542 3.14583 5.23326 0
M  V30 1531 H 149.956 4.56897 3.46292 0
M  V30 1532 H 148.353 5.20315 2.98985 0
M  V30 1533 H 149.423 4.52164 1.75144 0
M  V30 1534 N 150.766 -0.704594 1.40972 0
M  V30 1535 C 151.729 -1.80035 1.41845 0
M  V30 1536 C 152.729 -1.57774 0.310474 0
M  V30 1537 O 153.919 -1.64613 0.56992 0
M  V30 1538 C 151.051 -3.18284 1.22098 0
M  V30 1539 H 152.244 -1.80658 2.3938 0
M  V30 1540 H 149.797 -0.911329 1.26982 0
M  V30 1541 H 150.532 -3.23306 0.253672 0
M  V30 1542 H 150.317 -3.35843 2.02366 0
M  V30 1543 H 151.807 -3.98289 1.25522 0
M  V30 1544 N 152.244 -1.26651 -0.937939 0
M  V30 1545 C 153.154 -1.10276 -2.07066 0
M  V30 1546 C 154.17 -0.0354197 -1.73964 0
M  V30 1547 O 155.346 -0.239816 -1.99967 0
M  V30 1548 C 152.411 -0.740887 -3.38691 0
M  V30 1549 C 151.472 -1.88799 -3.85556 0
M  V30 1550 C 150.705 -1.54329 -5.10899 0
M  V30 1551 O 150.928 -0.446494 -5.6865 0
M  V30 1552 O 149.862 -2.37911 -5.52885 0
M  V30 1553 H 153.688 -2.05309 -2.23789 0
M  V30 1554 H 151.273 -1.05743 -1.0554 0
M  V30 1555 H 153.155 -0.55195 -4.1777 0
M  V30 1556 H 151.83 0.180022 -3.23199 0
M  V30 1557 H 150.737 -2.13191 -3.07409 0
M  V30 1558 H 152.07 -2.78874 -4.05574 0
M  V30 1559 N 153.722 1.14298 -1.08507 0
M  V30 1560 C 154.969 1.85359 -0.815373 0
M  V30 1561 C 155.297 1.83001 0.658865 0
M  V30 1562 O 154.552 1.25655 1.50031 0
M  V30 1563 C 154.851 3.33547 -1.28379 0
M  V30 1564 C 154.517 3.56093 -2.76602 0
M  V30 1565 C 153.179 3.61955 -3.17084 0
M  V30 1566 C 155.531 3.64834 -3.72217 0
M  V30 1567 C 152.859 3.74082 -4.51973 0
M  V30 1568 C 155.211 3.78487 -5.06883 0
M  V30 1569 C 153.875 3.82598 -5.46969 0
M  V30 1570 H 153.145 0.678276 -0.298366 0
M  V30 1571 H 155.792 1.35002 -1.35819 0
M  V30 1572 H 154.097 3.86191 -0.660593 0
M  V30 1573 H 155.794 3.86959 -1.05186 0
M  V30 1574 H 152.384 3.52179 -2.4427 0
M  V30 1575 H 156.568 3.59595 -3.42061 0
M  V30 1576 H 151.824 3.75527 -4.82483 0
M  V30 1577 H 155.998 3.84193 -5.80834 0
M  V30 1578 H 153.625 3.91747 -6.51489 0
M  V30 1579 N 155.201 0.870884 1.31352 0
M  V30 1580 C 156.441 0.488783 1.9847 0
M  V30 1581 C 156.805 -0.941536 1.67329 0
M  V30 1582 O 158.006 -1.42903 2.27667 0
M  V30 1583 C 156.277 0.739688 3.49662 0
M  V30 1584 S 157.836 0.457582 4.36408 0
M  V30 1585 H 154.654 0.18242 0.6872 0
M  V30 1586 H 157.256 1.12711 1.59739 0
M  V30 1587 H 155.96 1.77944 3.69816 0
M  V30 1588 H 155.491 0.0883905 3.93301 0
M  V30 1589 H 157.506 -0.709752 4.91098 0
M  V30 1590 N 156.679 -1.44442 0.630414 0
M  V30 1591 C 157.626 -2.30678 -0.0749355 0
M  V30 1592 C 158.596 -1.4344 -0.837502 0
M  V30 1593 O 159.781 -1.72343 -0.818684 0
M  V30 1594 C 156.921 -3.28706 -1.05103 0
M  V30 1595 C 156.034 -4.31046 -0.286954 0
M  V30 1596 C 155.169 -5.16167 -1.2548 0
M  V30 1597 C 154.208 -6.10216 -0.479843 0
M  V30 1598 N 153.345 -6.88039 -1.39811 0
M  V30 1599 H 158.185 -2.90454 0.666386 0
M  V30 1600 H 155.722 -1.43107 0.340404 0
M  V30 1601 H 157.68 -3.84027 -1.63031 0
M  V30 1602 H 156.31 -2.70632 -1.75949 0
M  V30 1603 H 155.362 -3.78203 0.408243 0
M  V30 1604 H 156.674 -4.97794 0.316657 0
M  V30 1605 H 155.828 -5.76002 -1.90544 0
M  V30 1606 H 154.567 -4.49491 -1.89233 0
M  V30 1607 H 153.572 -5.49491 0.184295 0
M  V30 1608 H 154.797 -6.78928 0.152965 0
M  V30 1609 H 152.743 -6.24032 -2.02287 0
M  V30 1610 H 152.66 -7.51223 -0.848508 0
M  V30 1611 H 153.928 -7.52397 -2.03762 0
M  V30 1612 N 158.157 -0.370918 -1.53173 0
M  V30 1613 C 159.12 0.460778 -2.24521 0
M  V30 1614 C 160.12 1.00536 -1.25496 0
M  V30 1615 O 161.31 0.890266 -1.49733 0
M  V30 1616 C 158.442 1.64457 -2.98608 0
M  V30 1617 H 159.635 -0.163613 -2.99453 0
M  V30 1618 H 157.188 -0.122699 -1.55818 0
M  V30 1619 H 157.923 2.30691 -2.2793 0
M  V30 1620 H 157.708 1.26099 -3.7127 0
M  V30 1621 H 159.198 2.23384 -3.5283 0
M  V30 1622 N 159.635 1.57281 -0.100228 0
M  V30 1623 C 160.86 1.99302 0.573881 0
M  V30 1624 C 161.285 0.979059 1.60611 0
M  V30 1625 O 160.643 -0.0517803 1.81226 0
M  V30 1626 C 160.691 3.40274 1.19358 0
M  V30 1627 O 159.795 3.41676 2.30935 0
M  V30 1628 H 159.136 0.647944 0.145138 0
M  V30 1629 H 161.666 2.03779 -0.183156 0
M  V30 1630 H 161.676 3.78078 1.53365 0
M  V30 1631 H 160.351 4.13594 0.437385 0
M  V30 1632 H 158.928 3.15672 1.98509 0
M  V30 1633 N 161.113 -0.173488 1.56642 0
M  V30 1634 C 162.076 -1.19859 1.95362 0
M  V30 1635 C 163.076 -1.37296 0.83704 0
M  V30 1636 O 164.266 -1.34739 1.10413 0
M  V30 1637 C 161.398 -2.56405 2.24654 0
M  V30 1638 H 162.591 -0.867062 2.87092 0
M  V30 1639 H 160.144 -0.415853 1.50666 0
M  V30 1640 H 160.879 -2.94576 1.35631 0
M  V30 1641 H 160.664 -2.45115 3.06041 0
M  V30 1642 H 162.154 -3.30287 2.5554 0
M  V30 1643 N 162.591 -1.51276 -0.441967 0
M  V30 1644 C 163.501 -1.75092 -1.56141 0
M  V30 1645 C 164.517 -0.634963 -1.62001 0
M  V30 1646 O 165.693 -0.916686 -1.79329 0
M  V30 1647 C 162.758 -1.86666 -2.92158 0
M  V30 1648 C 161.819 -3.10506 -2.96453 0
M  V30 1649 C 161.052 -3.21519 -4.25982 0
M  V30 1650 O 161.275 -2.38586 -5.18105 0
M  V30 1651 O 160.209 -4.14465 -4.36466 0
M  V30 1652 H 164.035 -2.70044 -1.38961 0
M  V30 1653 H 161.62 -1.35722 -0.624499 0
M  V30 1654 H 163.502 -1.96292 -3.72891 0
M  V30 1655 H 162.177 -0.949014 -3.09476 0
M  V30 1656 H 161.084 -3.06363 -2.14692 0
M  V30 1657 H 162.417 -4.01945 -2.84079 0
M  V30 1658 N 164.069 0.697108 -1.41344 0
M  V30 1659 C 164.999 1.82353 -1.45841 0
M  V30 1660 C 165.98 1.67115 -0.317247 0
M  V30 1661 O 167.165 1.86871 -0.528474 0
M  V30 1662 C 164.295 3.20476 -1.33838 0
M  V30 1663 C 163.249 3.50415 -2.4575 0
M  V30 1664 C 162.575 4.87878 -2.18813 0
M  V30 1665 C 163.875 3.49546 -3.88091 0
M  V30 1666 H 165.569 1.78846 -2.40113 0
M  V30 1667 H 163.115 0.859028 -1.15571 0
M  V30 1668 H 165.068 3.98988 -1.35596 0
M  V30 1669 H 163.792 3.24604 -0.360498 0
M  V30 1670 H 162.451 2.74253 -2.43271 0
M  V30 1671 H 162.099 4.8863 -1.19371 0
M  V30 1672 H 161.799 5.08875 -2.93803 0
M  V30 1673 H 163.323 5.68702 -2.22284 0
M  V30 1674 H 164.737 4.18066 -3.92293 0
M  V30 1675 H 163.134 3.82075 -4.62751 0
M  V30 1676 H 164.204 2.48552 -4.16353 0
M  V30 1677 N 165.547 1.27147 0.931209 0
M  V30 1678 C 166.51 1.09615 2.01289 0
M  V30 1679 C 167.51 0.0412581 1.60747 0
M  V30 1680 O 168.7 0.285545 1.71844 0
M  V30 1681 C 165.832 0.669447 3.34262 0
M  V30 1682 H 167.025 2.05662 2.18273 0
M  V30 1683 H 164.578 1.09885 1.11153 0
M  V30 1684 H 165.313 -0.292572 3.22978 0
M  V30 1685 H 165.098 1.43127 3.65044 0
M  V30 1686 H 166.588 0.568921 4.13706 0
M  V30 1687 N 167.025 -1.13721 1.09112 0
M  V30 1688 C 167.955 -2.21148 0.749385 0
M  V30 1689 C 168.936 -1.6792 -0.271475 0
M  V30 1690 O 170.121 -1.93693 -0.140251 0
M  V30 1691 C 167.251 -3.46905 0.165659 0
M  V30 1692 C 166.205 -4.13203 1.11567 0
M  V30 1693 C 165.531 -5.33248 0.393809 0
M  V30 1694 C 166.831 -4.60912 2.45678 0
M  V30 1695 H 168.525 -2.4999 1.64758 0
M  V30 1696 H 166.071 -1.20156 0.793626 0
M  V30 1697 H 168.024 -4.21313 -0.085466 0
M  V30 1698 H 166.748 -3.17449 -0.767714 0
M  V30 1699 H 165.407 -3.40758 1.35202 0
M  V30 1700 H 165.055 -5.00054 -0.543599 0
M  V30 1701 H 164.755 -5.78552 1.02721 0
M  V30 1702 H 166.279 -6.10413 0.150908 0
M  V30 1703 H 167.693 -5.26759 2.26269 0
M  V30 1704 H 166.09 -5.16944 3.04776 0
M  V30 1705 H 167.16 -3.75603 3.06677 0
M  V30 1706 N 168.503 -0.877838 -1.30888 0
M  V30 1707 C 169.751 -0.491723 -1.96027 0
M  V30 1708 C 170.072 0.960827 -1.69685 0
M  V30 1709 O 169.342 1.67462 -1.01654 0
M  V30 1710 H 167.922 -0.17885 -0.725273 0
M  V30 1711 H 170.584 -1.11935 -1.59551 0
M  V30 1712 H 169.68 -0.656016 -3.05128 0
M  V30 1713 N 169.982 1.44106 -0.638065 0
M  V30 1714 C 170.892 2.34513 0.0637334 0
M  V30 1715 C 171.908 1.53018 0.828346 0
M  V30 1716 O 173.084 1.85723 0.779036 0
M  V30 1717 C 170.149 3.31095 1.02844 0
M  V30 1718 C 169.21 4.28497 0.26244 0
M  V30 1719 C 168.443 5.20465 1.1812 0
M  V30 1720 O 168.666 5.16514 2.42011 0
M  V30 1721 O 167.6 5.98251 0.661774 0
M  V30 1722 H 171.426 2.95989 -0.68003 0
M  V30 1723 H 169.011 1.43994 -0.398252 0
M  V30 1724 H 170.893 3.90526 1.58327 0
M  V30 1725 H 169.568 2.72144 1.7527 0
M  V30 1726 H 168.475 3.72592 -0.335602 0
M  V30 1727 H 169.808 4.90388 -0.421936 0
M  V30 1728 N 171.46 0.379036 1.52974 0
M  V30 1729 C 172.408 -0.476033 2.27677 0
M  V30 1730 C 173.402 -1.0719 1.31174 0
M  V30 1731 O 174.608 -1.01355 1.48752 0
M  V30 1732 H 170.983 -0.172255 0.732006 0
M  V30 1733 H 172.954 0.175615 2.97883 0
M  V30 1734 C 171.703 -1.5967 3.0887 0
M  V30 1735 H 171.026 -1.1475 3.82978 0
M  V30 1736 H 172.466 -2.16943 3.64296 0
M  V30 1737 C 170.925 -2.54682 2.20542 0
M  V30 1738 O 171.455 -3.57836 1.82527 0
M  V30 1739 N 169.661 -2.24183 1.84907 0
M  V30 1740 H 169.208 -1.40333 2.1602 0
M  V30 1741 H 169.166 -2.88006 1.26096 0
M  V30 1742 N 172.938 -1.57226 0.108567 0
M  V30 1743 C 174.163 -1.99604 -0.563303 0
M  V30 1744 C 174.588 -0.987563 -1.6009 0
M  V30 1745 O 173.946 0.0421687 -1.81251 0
M  V30 1746 C 173.994 -3.40902 -1.17552 0
M  V30 1747 O 173.098 -3.42896 -2.2912 0
M  V30 1748 H 172.439 -0.648704 -0.1417 0
M  V30 1749 H 174.969 -2.03679 0.193961 0
M  V30 1750 H 174.979 -3.78886 -1.51357 0
M  V30 1751 H 173.654 -4.1382 -0.415445 0
M  V30 1752 H 172.231 -3.1672 -1.96832 0
M  V30 1753 N 174.416 0.165178 -1.56732 0
M  V30 1754 C 175.326 1.22423 -2.00125 0
M  V30 1755 C 176.342 1.48084 -0.913619 0
M  V30 1756 O 177.518 1.60112 -1.22172 0
M  V30 1757 C 174.583 2.54197 -2.35764 0
M  V30 1758 C 173.644 2.36343 -3.58386 0
M  V30 1759 C 172.877 3.61834 -3.92316 0
M  V30 1760 O 173.1 4.67267 -3.27135 0
M  V30 1761 O 172.034 3.55579 -4.85641 0
M  V30 1762 H 175.86 0.885886 -2.90492 0
M  V30 1763 H 173.445 0.372518 -1.44681 0
M  V30 1764 H 175.327 3.3192 -2.59629 0
M  V30 1765 H 174.002 2.87598 -1.48557 0
M  V30 1766 H 172.909 1.56632 -3.39731 0
M  V30 1767 H 174.242 2.07865 -4.46154 0
M  V30 1768 N 175.894 1.51508 0.433938 0
M  V30 1769 C 177.14 1.64588 1.18484 0
M  V30 1770 C 177.473 0.362666 1.90784 0
M  V30 1771 O 176.748 -0.637892 1.83742 0
M  V30 1772 C 177.031 2.85149 2.19913 0
M  V30 1773 C 176.884 4.23456 1.51674 0
M  V30 1774 C 178.203 3.01227 3.20858 0
M  V30 1775 H 175.322 0.598994 0.429389 0
M  V30 1776 H 177.964 1.84002 0.473647 0
M  V30 1777 H 176.114 2.68729 2.80566 0
M  V30 1778 H 177.786 4.51552 0.943322 0
M  V30 1779 H 176.029 4.25998 0.819035 0
M  V30 1780 H 176.7 5.03812 2.2556 0
M  V30 1781 H 179.176 3.16382 2.70263 0
M  V30 1782 H 178.052 3.87141 3.89118 0
M  V30 1783 H 178.313 2.13447 3.8716 0
M  V30 1784 N 177.372 -0.689602 1.41712 0
M  V30 1785 C 178.302 -1.81577 1.46806 0
M  V30 1786 C 179.283 -1.66945 0.326105 0
M  V30 1787 O 180.468 -1.86588 0.538377 0
M  V30 1788 C 177.598 -3.19762 1.35535 0
M  V30 1789 C 176.552 -3.49107 2.47605 0
M  V30 1790 C 175.878 -4.86711 2.21397 0
M  V30 1791 C 177.178 -3.47483 3.89939 0
M  V30 1792 H 178.872 -1.7757 2.41058 0
M  V30 1793 H 176.418 -0.852887 1.16025 0
M  V30 1794 H 178.371 -3.98263 1.3771 0
M  V30 1795 H 177.095 -3.24409 0.377708 0
M  V30 1796 H 175.754 -2.72959 2.44722 0
M  V30 1797 H 175.402 -4.8799 1.21961 0
M  V30 1798 H 175.102 -5.0731 2.96497 0
M  V30 1799 H 176.626 -5.67515 2.25297 0
M  V30 1800 H 178.04 -4.1598 3.94505 0
M  V30 1801 H 176.437 -3.79615 4.64771 0
M  V30 1802 H 177.507 -2.46341 4.17665 0
M  V30 1803 N 178.85 -1.27639 -0.924453 0
M  V30 1804 C 179.797 -1.10644 -2.0255 0
M  V30 1805 C 180.767 -0.00658438 -1.66099 0
M  V30 1806 O 181.952 -0.16952 -1.90045 0
M  V30 1807 C 179.092 -0.76309 -3.36557 0
M  V30 1808 C 178.205 -1.94091 -3.85944 0
M  V30 1809 C 177.34 -1.53914 -5.08413 0
M  V30 1810 C 176.379 -2.68425 -5.50104 0
M  V30 1811 N 175.516 -2.28815 -6.63768 0
M  V30 1812 H 180.356 -2.04858 -2.16419 0
M  V30 1813 H 177.893 -1.01974 -1.06017 0
M  V30 1814 H 179.851 -0.544822 -4.13627 0
M  V30 1815 H 178.481 0.142102 -3.22487 0
M  V30 1816 H 177.533 -2.27162 -3.05125 0
M  V30 1817 H 178.845 -2.7998 -4.12811 0
M  V30 1818 H 177.999 -1.28231 -5.92994 0
M  V30 1819 H 176.738 -0.651391 -4.8333 0
M  V30 1820 H 175.743 -2.94819 -4.64071 0
M  V30 1821 H 176.968 -3.57826 -5.7718 0
M  V30 1822 H 174.914 -1.42495 -6.40337 0
M  V30 1823 H 174.831 -3.08242 -6.90306 0
M  V30 1824 H 176.099 -2.06387 -7.51681 0
M  V30 1825 N 180.328 1.1314 -1.09713 0
M  V30 1826 C 181.553 1.88862 -0.857081 0
M  V30 1827 C 181.978 1.78729 0.586304 0
M  V30 1828 O 181.336 1.13692 1.41222 0
M  V30 1829 C 181.384 3.36325 -1.30069 0
M  V30 1830 O 180.488 4.09815 -0.461007 0
M  V30 1831 H 179.829 0.587108 -0.310162 0
M  V30 1832 H 182.359 1.43129 -1.46203 0
M  V30 1833 H 182.369 3.87157 -1.28738 0
M  V30 1834 H 181.044 3.43017 -2.35185 0
M  V30 1835 H 179.621 3.68986 -0.538888 0
M  V30 1836 N 181.806 0.884767 1.30421 0
M  V30 1837 C 183.054 0.502112 1.95763 0
M  V30 1838 C 183.375 -0.951815 1.70192 0
M  V30 1839 O 182.645 -1.6692 1.0254 0
M  V30 1840 H 181.225 0.182694 0.724315 0
M  V30 1841 H 183.887 1.1278 1.58955 0
M  V30 1842 H 182.983 0.672188 3.04775 0
M  V30 1843 N 183.284 -1.43765 0.645699 0
M  V30 1844 C 184.7 -1.56509 0.312591 0
M  V30 1845 C 184.9 -1.6307 -1.18365 0
M  V30 1846 O 183.956 -1.58167 -1.96824 0
M  V30 1847 C 185.269 -2.82968 1.01733 0
M  V30 1848 C 186.817 -2.96701 0.996865 0
M  V30 1849 C 187.292 -4.25982 1.68236 0
M  V30 1850 N 188.783 -4.32829 1.64964 0
M  V30 1851 C 189.518 -5.31613 2.14885 0
M  V30 1852 N 189.014 -6.36718 2.73061 0
M  V30 1853 N 190.807 -5.23217 2.05428 0
M  V30 1854 H 182.958 -1.3775 1.61675 0
M  V30 1855 H 185.221 -0.661067 0.679481 0
M  V30 1856 H 184.927 -2.84156 2.0724 0
M  V30 1857 H 184.801 -3.72957 0.564177 0
M  V30 1858 H 187.188 -2.95058 -0.0497719 0
M  V30 1859 H 187.269 -2.08022 1.48865 0
M  V30 1860 H 186.913 -4.28386 2.72852 0
M  V30 1861 H 186.843 -5.13545 1.16529 0
M  V30 1862 H 189.334 -3.57493 1.22503 0
M  V30 1863 H 189.647 -7.08401 3.08848 0
M  V30 1864 H 187.992 -6.37362 2.77118 0
M  V30 1865 H 191.183 -4.40019 1.59689 0
M  V30 1866 H 191.356 -6.00045 2.44643 0
M  V30 1867 N 184.763 -0.387143 -1.52771 0
M  V30 1868 C 186.01 0.195735 -2.01552 0
M  V30 1869 C 186.338 1.46995 -1.27369 0
M  V30 1870 O 185.593 1.92325 -0.361879 0
M  V30 1871 C 185.892 0.512209 -3.53711 0
M  V30 1872 C 185.558 -0.670202 -4.45891 0
M  V30 1873 C 184.22 -0.994586 -4.70809 0
M  V30 1874 C 186.572 -1.46134 -5.00294 0
M  V30 1875 C 183.9 -2.11169 -5.4738 0
M  V30 1876 C 186.252 -2.56903 -5.78086 0
M  V30 1877 C 184.916 -2.89852 -6.01284 0
M  V30 1878 H 184.186 0.0716246 -0.73753 0
M  V30 1879 H 186.833 -0.524046 -1.8419 0
M  V30 1880 H 185.138 1.31329 -3.69134 0
M  V30 1881 H 186.835 0.975804 -3.88946 0
M  V30 1882 H 183.425 -0.407366 -4.2666 0
M  V30 1883 H 187.609 -1.22397 -4.80971 0
M  V30 1884 H 182.865 -2.3707 -5.63567 0
M  V30 1885 H 187.039 -3.18608 -6.19243 0
M  V30 1886 H 184.666 -3.76533 -6.60399 0
M  V30 1887 N 186.241 1.57166 -0.116904 0
M  V30 1888 C 187.487 1.95412 0.542405 0
M  V30 1889 C 187.82 1.00019 1.66463 0
M  V30 1890 O 187.095 0.0370346 1.94465 0
M  V30 1891 C 187.378 3.43615 1.07708 0
M  V30 1892 C 187.231 4.49781 -0.0415868 0
M  V30 1893 C 188.55 3.93616 1.96861 0
M  V30 1894 H 185.669 0.710543 0.195696 0
M  V30 1895 H 188.311 1.89027 -0.192038 0
M  V30 1896 H 186.461 3.49187 1.70296 0
M  V30 1897 H 188.133 4.56308 -0.676793 0
M  V30 1898 H 186.376 4.28033 -0.705019 0
M  V30 1899 H 187.047 5.50733 0.373717 0
M  V30 1900 H 189.523 3.90335 1.44146 0
M  V30 1901 H 188.399 4.97838 2.3119 0
M  V30 1902 H 188.66 3.34188 2.89432 0
M  V30 1903 N 187.719 -0.156864 1.56817 0
M  V30 1904 C 188.947 -0.886316 1.86955 0
M  V30 1905 C 189.362 -1.75185 0.703975 0
M  V30 1906 O 188.719 -1.79555 -0.326552 0
M  V30 1907 C 188.77 -1.75117 3.16253 0
M  V30 1908 O 188.491 -0.920537 4.2832 0
M  V30 1909 C 189.992 -2.58905 3.59837 0
M  V30 1910 H 187.212 -0.25678 0.619923 0
M  V30 1911 H 189.756 -0.152615 2.0393 0
M  V30 1912 H 187.911 -2.43805 3.01062 0
M  V30 1913 H 188.325 -1.51337 5.02192 0
M  V30 1914 H 189.799 -3.1518 4.53172 0
M  V30 1915 H 190.276 -3.34472 2.84649 0
M  V30 1916 H 190.882 -1.95526 3.7769 0
M  V30 1917 N 189.197 -1.51736 -0.425897 0
M  V30 1918 C 190.443 -1.65214 -1.1761 0
M  V30 1919 C 190.776 -0.372778 -1.90589 0
M  V30 1920 O 190.051 0.628139 -1.84078 0
M  V30 1921 C 190.334 -2.86312 -2.18398 0
M  V30 1922 C 190.187 -4.24254 -1.49426 0
M  V30 1923 C 191.506 -3.02925 -3.19256 0
M  V30 1924 H 188.625 -0.601263 -0.426206 0
M  V30 1925 H 191.267 -1.8425 -0.463882 0
M  V30 1926 H 189.417 -2.70213 -2.79137 0
M  V30 1927 H 191.089 -4.52046 -0.919362 0
M  V30 1928 H 189.332 -4.26426 -0.796432 0
M  V30 1929 H 190.003 -5.05001 -2.22885 0
M  V30 1930 H 192.479 -3.1781 -2.68581 0
M  V30 1931 H 191.355 -3.89199 -3.8706 0
M  V30 1932 H 191.616 -2.15497 -3.86023 0
M  V30 1933 N 190.675 0.682077 -1.42076 0
M  V30 1934 C 191.607 1.80755 -1.40926 0
M  V30 1935 C 192.62 1.59833 -0.309398 0
M  V30 1936 O 193.809 1.69087 -0.572014 0
M  V30 1937 C 190.909 3.17744 -1.17865 0
M  V30 1938 C 190.082 3.65578 -2.40149 0
M  V30 1939 C 189.141 4.81277 -2.12742 0
M  V30 1940 O 188.167 4.92197 -2.85887 0
M  V30 1941 N 189.369 5.69474 -1.12602 0
M  V30 1942 H 192.134 1.82229 -2.37935 0
M  V30 1943 H 189.695 0.864903 -1.36861 0
M  V30 1944 H 191.687 3.9279 -0.9746 0
M  V30 1945 H 190.257 3.11214 -0.294068 0
M  V30 1946 H 189.477 2.81291 -2.76169 0
M  V30 1947 H 190.765 3.94278 -3.21593 0
M  V30 1948 H 190.163 5.63297 -0.520899 0
M  V30 1949 H 188.72 6.44363 -0.981842 0
M  V30 1950 N 192.153 1.28127 0.917671 0
M  V30 1951 C 193.381 1.17892 1.70026 0
M  V30 1952 C 193.796 -0.262958 1.8696 0
M  V30 1953 O 193.153 -1.17811 1.3938 0
M  V30 1954 C 193.204 1.86872 3.09453 0
M  V30 1955 O 192.925 3.25428 2.93306 0
M  V30 1956 C 194.426 1.8289 4.03815 0
M  V30 1957 H 191.646 0.40942 0.531617 0
M  V30 1958 H 194.19 1.69181 1.14883 0
M  V30 1959 H 192.345 1.39464 3.61426 0
M  V30 1960 H 192.759 3.59918 3.81523 0
M  V30 1961 H 194.233 2.35751 4.99125 0
M  V30 1962 H 194.71 0.800412 4.31845 0
M  V30 1963 H 195.316 2.29959 3.57769 0
M  V30 1964 N 193.631 -1.12557 1.10312 0
M  V30 1965 C 194.88 -1.83395 0.839588 0
M  V30 1966 C 195.193 -1.84939 -0.636929 0
M  V30 1967 O 196.399 -2.51761 -1.01631 0
M  V30 1968 C 194.855 -3.29303 1.45215 0
M  V30 1969 C 194.463 -3.36122 2.96186 0
M  V30 1970 C 196.207 -4.05121 1.26796 0
M  V30 1971 C 194.114 -4.76357 3.50483 0
M  V30 1972 H 193.044 -0.687133 0.310425 0
M  V30 1973 H 195.695 -1.26746 1.32694 0
M  V30 1974 H 194.077 -3.85812 0.892469 0
M  V30 1975 H 195.251 -2.89559 3.58458 0
M  V30 1976 H 193.566 -2.73776 3.13745 0
M  V30 1977 H 196.163 -5.08668 1.64806 0
M  V30 1978 H 196.506 -4.15773 0.209409 0
M  V30 1979 H 197.039 -3.54967 1.79563 0
M  V30 1980 H 193.778 -4.70899 4.55998 0
M  V30 1981 H 193.298 -5.23377 2.92978 0
M  V30 1982 H 194.977 -5.45294 3.48228 0
M  V30 1983 N 195.109 -0.891671 -1.2995 0
M  V30 1984 C 196.334 -0.527932 -2.00568 0
M  V30 1985 C 196.759 0.877969 -1.66353 0
M  V30 1986 O 196.117 1.58301 -0.883762 0
M  V30 1987 C 196.165 -0.717745 -3.53385 0
M  V30 1988 O 195.269 0.233376 -4.11739 0
M  V30 1989 H 194.61 -0.20722 -0.630837 0
M  V30 1990 H 197.14 -1.20105 -1.65638 0
M  V30 1991 H 197.15 -0.619307 -4.03272 0
M  V30 1992 H 195.825 -1.74276 -3.77625 0
M  V30 1993 H 194.402 0.0880706 -3.72796 0
M  V30 1994 N 196.587 1.43421 -0.653314 0
M  V30 1995 C 197.835 2.01414 -0.166415 0
M  V30 1996 C 198.156 1.51803 1.22397 0
M  V30 1997 O 197.426 0.730693 1.81763 0
M  V30 1998 H 196.006 0.744703 -0.0585319 0
M  V30 1999 H 198.668 1.75629 -0.845003 0
M  V30 2000 H 197.764 3.11734 -0.151111 0
M  V30 2001 N 198.065 0.39524 1.52563 0
M  V30 2002 C 199.293 -0.184943 2.06072 0
M  V30 2003 C 199.708 -1.40021 1.26647 0
M  V30 2004 O 199.065 -1.79767 0.314672 0
M  V30 2005 C 199.116 -0.549179 3.57304 0
M  V30 2006 O 198.837 0.617813 4.33722 0
M  V30 2007 C 200.338 -1.18459 4.2718 0
M  V30 2008 H 197.558 -0.0265025 0.670476 0
M  V30 2009 H 200.102 0.562184 1.96621 0
M  V30 2010 H 198.257 -1.2462 3.66809 0
M  V30 2011 H 198.671 0.317091 5.23541 0
M  V30 2012 H 200.145 -1.38976 5.34219 0
M  V30 2013 H 200.622 -2.15368 3.82771 0
M  V30 2014 H 201.228 -0.528163 4.22008 0
M  V30 2015 N 199.544 -1.57102 0.125237 0
M  V30 2016 C 200.792 -1.95021 -0.530198 0
M  V30 2017 C 201.113 -1.00982 -1.66816 0
M  V30 2018 O 200.383 -0.0672693 -1.95784 0
M  V30 2019 H 198.963 -0.720046 -0.198853 0
M  V30 2020 H 201.625 -1.93916 0.19564 0
M  V30 2021 H 200.721 -2.98211 -0.920681 0
M  V30 2022 N 201.022 0.148545 -1.56898 0
M  V30 2023 C 201.985 1.16736 -1.97244 0
M  V30 2024 C 202.985 1.35947 -0.858777 0
M  V30 2025 O 204.175 1.32966 -1.12542 0
M  V30 2026 C 201.307 2.52798 -2.28705 0
M  V30 2027 H 202.5 0.821279 -2.88435 0
M  V30 2028 H 200.053 0.391831 -1.51309 0
M  V30 2029 H 200.788 2.92381 -1.403 0
M  V30 2030 H 200.573 2.40216 -3.09901 0
M  V30 2031 H 202.063 3.26179 -2.60762 0
M  V30 2032 N 202.5 1.5196 0.417844 0
M  V30 2033 C 203.43 1.77634 1.51554 0
M  V30 2034 C 204.411 0.626918 1.58126 0
M  V30 2035 O 205.596 0.871632 1.7354 0
M  V30 2036 C 202.726 1.91911 2.8946 0
M  V30 2037 C 201.68 3.07463 2.97743 0
M  V30 2038 C 201.006 3.06951 4.37819 0
M  V30 2039 C 202.306 4.47082 2.70027 0
M  V30 2040 H 204 2.6955 1.3032 0
M  V30 2041 H 201.546 1.29706 0.625492 0
M  V30 2042 H 203.499 2.08455 3.6623 0
M  V30 2043 H 202.223 0.966598 3.11969 0
M  V30 2044 H 200.882 2.90656 2.23416 0
M  V30 2045 H 200.53 2.09438 4.57323 0
M  V30 2046 H 200.23 3.84556 4.44286 0
M  V30 2047 H 201.754 3.25613 5.16535 0
M  V30 2048 H 203.168 4.6414 3.36522 0
M  V30 2049 H 201.565 5.2654 2.87881 0
M  V30 2050 H 202.635 4.55777 1.65514 0
M  V30 2051 N 203.978 -0.674533 1.42435 0
M  V30 2052 C 205.394 -0.98769 1.25367 0
M  V30 2053 C 205.594 -2.00879 0.158044 0
M  V30 2054 O 204.65 -2.48075 -0.470633 0
M  V30 2055 C 205.963 -1.49224 2.6106 0
M  V30 2056 C 207.511 -1.61 2.68417 0
M  V30 2057 C 207.986 -2.14852 4.04478 0
M  V30 2058 N 209.477 -2.22185 4.06434 0
M  V30 2059 C 210.212 -2.64928 5.08528 0
M  V30 2060 N 209.708 -3.07121 6.21006 0
M  V30 2061 N 211.501 -2.64679 4.95885 0
M  V30 2062 H 203.652 0.00152503 2.124 0
M  V30 2063 H 205.915 -0.0618434 0.945981 0
M  V30 2064 H 205.621 -0.816453 3.42092 0
M  V30 2065 H 205.495 -2.47094 2.84999 0
M  V30 2066 H 207.882 -2.27686 1.87732 0
M  V30 2067 H 207.963 -0.616195 2.48267 0
M  V30 2068 H 207.607 -1.48775 4.85622 0
M  V30 2069 H 207.537 -3.15024 4.2198 0
M  V30 2070 H 210.028 -1.92435 3.25234 0
M  V30 2071 H 210.341 -3.38423 6.94759 0
M  V30 2072 H 208.686 -3.04978 6.24511 0
M  V30 2073 H 211.877 -2.31078 4.07088 0
M  V30 2074 H 212.05 -2.9767 5.75584 0
M  V30 2075 N 205.456 -1.28612 -0.910864 0
M  V30 2076 C 206.705 -1.15311 -1.65488 0
M  V30 2077 C 207.018 0.296999 -1.93332 0
M  V30 2078 O 208.224 0.551168 -2.65847 0
M  V30 2079 C 206.68 -2.01599 -2.98137 0
M  V30 2080 C 206.288 -3.51367 -2.7793 0
M  V30 2081 C 208.032 -1.96993 -3.76024 0
M  V30 2082 C 205.939 -4.29797 -4.06237 0
M  V30 2083 H 204.869 -0.42796 -0.620779 0
M  V30 2084 H 207.52 -1.53166 -1.01057 0
M  V30 2085 H 205.902 -1.56603 -3.63719 0
M  V30 2086 H 207.076 -4.0434 -2.21011 0
M  V30 2087 H 205.391 -3.57529 -2.13452 0
M  V30 2088 H 207.988 -2.52856 -4.71135 0
M  V30 2089 H 208.331 -0.94733 -4.05378 0
M  V30 2090 H 208.864 -2.39973 -3.17266 0
M  V30 2091 H 205.603 -5.32648 -3.82055 0
M  V30 2092 H 205.123 -3.81596 -4.62757 0
M  V30 2093 H 206.802 -4.39869 -4.74473 0
M  V30 2094 N 206.934 1.1197 -1.10907 0
M  V30 2095 C 208.182 1.83225 -0.852819 0
M  V30 2096 C 208.503 1.84769 0.623341 0
M  V30 2097 O 207.773 1.3143 1.45269 0
M  V30 2098 H 206.353 0.67849 -0.312507 0
M  V30 2099 H 209.015 1.3556 -1.40033 0
M  V30 2100 H 208.111 2.87265 -1.22005 0
M  V30 2101 N 208.412 0.89855 1.29475 0
M  V30 2102 C 209.375 0.380272 2.26023 0
M  V30 2103 C 210.375 -0.484891 1.53315 0
M  V30 2104 O 211.565 -0.290108 1.71767 0
M  V30 2105 C 208.697 -0.45651 3.3783 0
M  V30 2106 H 209.89 1.23295 2.73383 0
M  V30 2107 H 207.443 0.676589 1.40897 0
M  V30 2108 H 208.178 -1.32922 2.95808 0
M  V30 2109 H 207.963 0.163393 3.91759 0
M  V30 2110 H 209.453 -0.810466 4.0966 0
M  V30 2111 N 209.89 -1.43072 0.660911 0
M  V30 2112 C 211.115 -2.06584 0.183805 0
M  V30 2113 C 211.54 -1.49257 -1.14472 0
M  V30 2114 O 210.898 -0.605528 -1.70889 0
M  V30 2115 C 210.946 -3.60418 0.114434 0
M  V30 2116 O 210.05 -4.01981 -0.921137 0
M  V30 2117 H 209.391 -0.656669 0.0983994 0
M  V30 2118 H 211.921 -1.83447 0.906006 0
M  V30 2119 H 211.931 -4.07946 -0.0663394 0
M  V30 2120 H 210.606 -4.01519 1.08422 0
M  V30 2121 H 209.183 -3.66029 -0.71253 0
M  V30 2122 N 211.368 -0.403325 -1.52352 0
M  V30 2123 C 212.615 0.174347 -2.01748 0
M  V30 2124 C 212.943 1.45636 -1.2892 0
M  V30 2125 O 212.198 1.9193 -0.382258 0
M  V30 2126 C 212.497 0.474665 -3.54234 0
M  V30 2127 C 212.163 -0.717458 -4.45155 0
M  V30 2128 C 210.825 -1.04447 -4.69728 0
M  V30 2129 C 213.177 -1.51432 -4.98716 0
M  V30 2130 C 210.505 -2.16963 -5.45109 0
M  V30 2131 C 212.857 -2.6302 -5.75329 0
M  V30 2132 C 211.521 -2.96213 -5.98175 0
M  V30 2133 H 210.791 0.0637981 -0.738248 0
M  V30 2134 H 213.438 -0.543553 -1.83624 0
M  V30 2135 H 211.743 1.27406 -3.70506 0
M  V30 2136 H 213.44 0.934496 -3.89959 0
M  V30 2137 H 210.03 -0.452596 -4.26204 0
M  V30 2138 H 214.214 -1.27491 -4.79645 0
M  V30 2139 H 209.47 -2.43034 -5.61021 0
M  V30 2140 H 213.644 -3.25158 -6.15829 0
M  V30 2141 H 211.271 -3.83516 -6.56368 0
M  V30 2142 N 212.846 1.57033 -0.133567 0
M  V30 2143 C 213.776 2.1909 0.807567 0
M  V30 2144 C 214.757 1.13517 1.26681 0
M  V30 2145 O 215.942 1.41809 1.32679 0
M  V30 2146 C 213.072 2.80188 2.05212 0
M  V30 2147 C 212.026 3.91471 1.73015 0
M  V30 2148 C 211.352 4.39443 3.04622 0
M  V30 2149 C 212.652 5.12886 0.987168 0
M  V30 2150 H 214.346 2.97988 0.290403 0
M  V30 2151 H 211.892 1.43335 0.138239 0
M  V30 2152 H 213.845 3.22264 2.71521 0
M  V30 2153 H 212.569 1.98601 2.59278 0
M  V30 2154 H 211.228 3.49993 1.0909 0
M  V30 2155 H 210.876 3.54695 3.56651 0
M  V30 2156 H 210.576 5.14495 2.83847 0
M  V30 2157 H 212.1 4.8418 3.72024 0
M  V30 2158 H 213.514 5.51891 1.55208 0
M  V30 2159 H 211.911 5.93615 0.87985 0
M  V30 2160 H 212.981 4.84894 -0.0235286 0
M  V30 2161 N 214.325 -0.140222 1.56975 0
M  V30 2162 C 215.257 -1.19818 1.95388 0
M  V30 2163 C 216.27 -1.38816 0.850525 0
M  V30 2164 O 217.459 -1.38267 1.12891 0
M  V30 2165 C 214.559 -2.56189 2.21857 0
M  V30 2166 C 213.732 -2.58077 3.5315 0
M  V30 2167 C 212.791 -3.76037 3.6808 0
M  V30 2168 O 211.817 -3.60598 4.40406 0
M  V30 2169 N 213.019 -4.93763 3.05251 0
M  V30 2170 H 215.784 -0.871609 2.86746 0
M  V30 2171 H 213.345 -0.32972 1.58507 0
M  V30 2172 H 215.337 -3.33623 2.2908 0
M  V30 2173 H 213.907 -2.81111 1.36731 0
M  V30 2174 H 213.127 -1.6651 3.57307 0
M  V30 2175 H 214.415 -2.56377 4.39486 0
M  V30 2176 H 213.813 -5.09209 2.46419 0
M  V30 2177 H 212.37 -5.68949 3.18026 0
M  V30 2178 N 215.803 -1.52179 -0.40978 0
M  V30 2179 C 217.219 -1.40968 -0.74835 0
M  V30 2180 C 217.419 -0.513657 -1.94843 0
M  V30 2181 O 216.475 0.0208026 -2.52491 0
M  V30 2182 C 217.788 -2.83483 -1.0029 0
M  V30 2183 C 219.336 -2.92821 -1.10565 0
M  V30 2184 C 219.811 -4.36303 -1.39296 0
M  V30 2185 N 221.302 -4.39535 -1.46162 0
M  V30 2186 C 222.037 -5.47614 -1.70018 0
M  V30 2187 N 221.533 -6.65812 -1.91483 0
M  V30 2188 N 223.326 -5.35129 -1.72027 0
M  V30 2189 H 215.477 -2.0897 0.380186 0
M  V30 2190 H 217.74 -0.94185 0.107805 0
M  V30 2191 H 217.446 -3.51168 -0.193461 0
M  V30 2192 H 217.32 -3.24487 -1.92323 0
M  V30 2193 H 219.707 -2.25318 -1.90568 0
M  V30 2194 H 219.788 -2.55276 -0.16369 0
M  V30 2195 H 219.432 -5.04366 -0.598109 0
M  V30 2196 H 219.362 -4.71385 -2.34743 0
M  V30 2197 H 221.853 -3.54332 -1.31367 0
M  V30 2198 H 222.166 -7.43964 -2.09134 0
M  V30 2199 H 220.511 -6.68879 -1.88749 0
M  V30 2200 H 223.702 -4.41764 -1.54796 0
M  V30 2201 H 223.875 -6.19433 -1.9028 0
M  V30 2202 N 217.281 0.66697 -1.42791 0
M  V30 2203 C 218.528 1.42699 -1.43678 0
M  V30 2204 C 218.856 1.94419 -0.0560425 0
M  V30 2205 O 218.111 1.7182 0.936831 0
M  V30 2206 C 218.41 2.6349 -2.4147 0
M  V30 2207 C 218.076 2.30267 -3.8767 0
M  V30 2208 C 216.738 2.20918 -4.27491 0
M  V30 2209 C 219.09 2.03435 -4.79858 0
M  V30 2210 C 216.418 1.82873 -5.57471 0
M  V30 2211 C 218.77 1.66892 -6.10188 0
M  V30 2212 C 217.434 1.56058 -6.49001 0
M  V30 2213 H 216.704 0.522171 -0.525755 0
M  V30 2214 H 219.351 0.759785 -1.75783 0
M  V30 2215 H 217.656 3.35279 -2.0272 0
M  V30 2216 H 219.353 3.21684 -2.39417 0
M  V30 2217 H 215.943 2.38449 -3.56146 0
M  V30 2218 H 220.127 2.09586 -4.49875 0
M  V30 2219 H 215.383 1.7306 -5.86396 0
M  V30 2220 H 219.557 1.45157 -6.81104 0
M  V30 2221 H 217.184 1.26348 -7.49627 0
M  V30 2222 N 218.759 1.29093 0.90403 0
M  V30 2223 C 220.006 1.16813 1.65411 0
M  V30 2224 C 220.334 -0.28128 1.92455 0
M  V30 2225 O 219.589 -1.22006 1.53013 0
M  V30 2226 C 219.888 1.92224 3.01305 0
M  V30 2227 C 219.554 3.41968 2.93885 0
M  V30 2228 C 218.216 3.82807 2.91569 0
M  V30 2229 C 220.568 4.37409 2.83413 0
M  V30 2230 C 217.896 5.1741 2.76594 0
M  V30 2231 C 220.248 5.72097 2.69977 0
M  V30 2232 C 218.912 6.12199 2.66024 0
M  V30 2233 H 218.182 0.42745 0.605283 0
M  V30 2234 H 220.829 1.59981 1.05254 0
M  V30 2235 H 219.134 1.41635 3.65304 0
M  V30 2236 H 220.831 1.80131 3.58265 0
M  V30 2237 H 217.421 3.09504 2.96488 0
M  V30 2238 H 221.605 4.06813 2.84283 0
M  V30 2239 H 216.861 5.47596 2.71935 0
M  V30 2240 H 221.035 6.45704 2.60844 0
M  V30 2241 H 218.662 7.16448 2.54178 0
M  V30 2242 N 220.237 -1.11381 1.11499 0
M  V30 2243 C 221.184 -2.17439 0.773887 0
M  V30 2244 C 222.154 -1.64132 -0.254899 0
M  V30 2245 O 223.339 -1.90345 -0.13168 0
M  V30 2246 C 220.479 -3.44373 0.223917 0
M  V30 2247 C 219.592 -4.1168 1.30934 0
M  V30 2248 C 218.727 -5.263 0.71984 0
M  V30 2249 C 217.766 -5.85493 1.78507 0
M  V30 2250 N 216.903 -6.91507 1.21502 0
M  V30 2251 H 221.743 -2.45962 1.68246 0
M  V30 2252 H 219.28 -1.20744 0.840191 0
M  V30 2253 H 221.238 -4.17047 -0.112921 0
M  V30 2254 H 219.868 -3.16232 -0.647851 0
M  V30 2255 H 218.92 -3.37073 1.76312 0
M  V30 2256 H 220.232 -4.51729 2.11524 0
M  V30 2257 H 219.386 -6.05785 0.333094 0
M  V30 2258 H 218.125 -4.87559 -0.117377 0
M  V30 2259 H 217.13 -5.04686 2.18111 0
M  V30 2260 H 218.355 -6.26301 2.62533 0
M  V30 2261 H 216.301 -6.54783 0.399455 0
M  V30 2262 H 216.218 -7.30214 1.95763 0
M  V30 2263 H 217.486 -7.74795 0.855181 0
M  V30 2264 N 221.715 -0.905404 -1.28997 0
M  V30 2265 C 222.962 -0.534248 -1.95325 0
M  V30 2266 C 223.29 0.920535 -1.71337 0
M  V30 2267 O 222.545 1.66861 -1.02254 0
M  V30 2268 C 222.844 -0.779906 -3.48787 0
M  V30 2269 C 222.51 -2.21293 -3.92861 0
M  V30 2270 C 221.172 -2.60475 -4.04606 0
M  V30 2271 C 223.524 -3.14587 -4.15553 0
M  V30 2272 C 220.852 -3.9212 -4.36416 0
M  V30 2273 C 223.204 -4.45787 -4.48839 0
M  V30 2274 C 221.868 -4.84834 -4.58794 0
M  V30 2275 H 221.138 -0.195495 -0.714747 0
M  V30 2276 H 223.785 -1.14514 -1.53488 0
M  V30 2277 H 222.09 -0.0861365 -3.91705 0
M  V30 2278 H 223.787 -0.472029 -3.98212 0
M  V30 2279 H 220.377 -1.89887 -3.84241 0
M  V30 2280 H 224.561 -2.85528 -4.0594 0
M  V30 2281 H 219.817 -4.22086 -4.42327 0
M  V30 2282 H 223.991 -5.18098 -4.65346 0
M  V30 2283 H 221.618 -5.86877 -4.83197 0
M  V30 2284 N 223.193 1.4272 -0.668489 0
M  V30 2285 C 224.418 2.06484 -0.194758 0
M  V30 2286 C 224.843 1.49862 1.13679 0
M  V30 2287 O 224.201 0.614582 1.70565 0
M  V30 2288 C 224.249 3.60353 -0.133546 0
M  V30 2289 O 223.353 4.02464 0.899806 0
M  V30 2290 H 222.694 0.656137 -0.10188 0
M  V30 2291 H 225.224 1.82964 -0.915722 0
M  V30 2292 H 225.234 4.07976 0.0447041 0
M  V30 2293 H 223.909 4.00938 -1.1055 0
M  V30 2294 H 222.486 3.66402 0.693109 0
M  V30 2295 N 224.671 0.411399 1.52136 0
M  V30 2296 C 226.087 0.0623865 1.59478 0
M  V30 2297 C 226.287 -1.42554 1.4241 0
M  V30 2298 O 225.343 -2.19263 1.2522 0
M  V30 2299 C 226.656 0.559331 2.95452 0
M  V30 2300 C 228.204 0.517503 3.08692 0
M  V30 2301 C 228.679 0.990994 4.4715 0
M  V30 2302 N 230.17 0.947908 4.53397 0
M  V30 2303 C 230.905 1.28544 5.58806 0
M  V30 2304 N 230.401 1.69454 6.71757 0
M  V30 2305 N 232.194 1.20526 5.49026 0
M  V30 2306 H 224.345 1.37982 1.61477 0
M  V30 2307 H 226.608 0.566977 0.759764 0
M  V30 2308 H 226.314 1.59938 3.1323 0
M  V30 2309 H 226.188 -0.0298014 3.77188 0
M  V30 2310 H 228.575 -0.513505 2.90598 0
M  V30 2311 H 228.656 1.14272 2.28857 0
M  V30 2312 H 228.3 2.02034 4.65988 0
M  V30 2313 H 228.23 0.34257 5.25485 0
M  V30 2314 H 230.721 0.647157 3.72317 0
M  V30 2315 H 231.034 1.93513 7.48179 0
M  V30 2316 H 229.379 1.73359 6.73032 0
M  V30 2317 H 232.57 0.884505 4.59667 0
M  V30 2318 H 232.743 1.47161 6.31069 0
M  V30 2319 N 226.149 -1.5696 0.141893 0
M  V30 2320 C 227.426 -1.87553 -0.555281 0
M  V30 2321 C 227.806 -1.04699 -1.83306 0
M  V30 2322 O 227.154 -0.132346 -2.28116 0
M  V30 2323 C 227.364 -3.39093 -0.825664 0
M  V30 2324 C 228.712 -4.08199 -1.16869 0
M  V30 2325 O 229.736 -3.44242 -0.915185 0
M  V30 2326 O 228.595 -5.21139 -1.6455 0
M  V30 2327 H 225.689 -0.777188 -0.282679 0
M  V30 2328 H 228.235 -1.68763 0.17812 0
M  V30 2329 H 227.007 -3.91221 0.0788633 0
M  V30 2330 H 226.63 -3.63393 -1.61343 0
M  V30 2331 N 227.627 0.131896 -1.57047 0
M  V30 2332 C 228.873 0.843179 -1.84441 0
M  V30 2333 C 229.206 1.80129 -0.725749 0
M  V30 2334 O 228.481 1.92624 0.269469 0
M  V30 2335 C 228.764 1.60442 -3.22382 0
M  V30 2336 C 228.617 0.666782 -4.4483 0
M  V30 2337 C 229.936 2.56354 -3.5773 0
M  V30 2338 H 227.055 0.305081 -0.670891 0
M  V30 2339 H 229.697 0.107839 -1.89694 0
M  V30 2340 H 227.847 2.23128 -3.18035 0
M  V30 2341 H 229.519 0.0497646 -4.61273 0
M  V30 2342 H 227.762 -0.022609 -4.33794 0
M  V30 2343 H 228.433 1.23579 -5.37989 0
M  V30 2344 H 230.909 2.0378 -3.62785 0
M  V30 2345 H 229.785 3.06657 -4.5525 0
M  V30 2346 H 230.046 3.38419 -2.84473 0
M  V30 2347 N 229.106 1.52395 0.401703 0
M  V30 2348 C 230.353 1.66817 1.14796 0
M  V30 2349 C 230.681 0.401772 1.90305 0
M  V30 2350 O 229.936 -0.615487 1.85769 0
M  V30 2351 C 230.235 2.84578 2.16217 0
M  V30 2352 C 229.901 4.22513 1.5746 0
M  V30 2353 C 228.563 4.60029 1.41161 0
M  V30 2354 C 230.915 5.0844 1.14622 0
M  V30 2355 C 228.243 5.81144 0.80552 0
M  V30 2356 C 230.595 6.30167 0.55428 0
M  V30 2357 C 229.259 6.66426 0.378482 0
M  V30 2358 H 228.529 0.610428 0.420069 0
M  V30 2359 H 231.176 1.86512 0.434212 0
M  V30 2360 H 229.481 2.59248 2.93764 0
M  V30 2361 H 231.178 2.92933 2.73845 0
M  V30 2362 H 227.768 3.92953 1.71132 0
M  V30 2363 H 231.952 4.80034 1.26021 0
M  V30 2364 H 227.208 6.07855 0.657399 0
M  V30 2365 H 231.382 6.96071 0.213983 0
M  V30 2366 H 229.009 7.60143 -0.0932606 0
M  V30 2367 N 230.584 -0.659388 1.43143 0
M  V30 2368 C 231.514 -1.78422 1.50625 0
M  V30 2369 C 232.495 -1.66216 0.361443 0
M  V30 2370 O 233.68 -1.85404 0.577834 0
M  V30 2371 C 230.81 -3.16815 1.42287 0
M  V30 2372 C 229.764 -3.43777 2.54954 0
M  V30 2373 C 229.09 -4.81905 2.31671 0
M  V30 2374 C 230.39 -3.39134 3.97222 0
M  V30 2375 H 232.084 -1.72417 2.44771 0
M  V30 2376 H 229.63 -0.828084 1.17808 0
M  V30 2377 H 231.583 -3.95253 1.46127 0
M  V30 2378 H 230.307 -3.23534 0.446435 0
M  V30 2379 H 228.966 -2.67707 2.50457 0
M  V30 2380 H 228.614 -4.85294 1.32284 0
M  V30 2381 H 228.314 -5.00906 3.07192 0
M  V30 2382 H 229.838 -5.62609 2.37284 0
M  V30 2383 H 231.252 -4.07518 4.03239 0
M  V30 2384 H 229.649 -3.69671 4.72719 0
M  V30 2385 H 230.719 -2.37426 4.22797 0
M  V30 2386 N 232.062 -1.29571 -0.897171 0
M  V30 2387 C 233.473 -1.15964 -1.46319 0
M  V30 2388 C 233.824 0.244267 -1.94674 0
M  V30 2389 O 232.949 1.13998 -1.83939 0
M  V30 2390 C 233.544 -2.09906 -2.65942 0
M  V30 2391 C 232.103 -2.00314 -3.18671 0
M  V30 2392 C 231.25 -2.00687 -1.91363 0
M  V30 2393 H 234.201 -1.42019 -0.708268 0
M  V30 2394 H 234.222 -1.67276 -3.41759 0
M  V30 2395 H 233.734 -3.12075 -2.30718 0
M  V30 2396 H 231.835 -1.01242 -3.58582 0
M  V30 2397 H 231.948 -2.88102 -3.82798 0
M  V30 2398 H 230.312 -1.45319 -2.09175 0
M  V30 2399 H 231.095 -3.04566 -1.58413 0
M  V30 2400 N 233.54 1.10788 -1.12088 0
M  V30 2401 C 234.487 2.17025 -0.785407 0
M  V30 2402 C 235.457 1.64265 0.246191 0
M  V30 2403 O 236.642 1.90412 0.121584 0
M  V30 2404 C 233.782 3.44249 -0.242177 0
M  V30 2405 C 232.895 4.1098 -1.33115 0
M  V30 2406 C 232.03 5.25911 -0.747741 0
M  V30 2407 C 231.069 5.84538 -1.81609 0
M  V30 2408 N 230.206 6.90853 -1.25167 0
M  V30 2409 H 235.046 2.45066 -1.69548 0
M  V30 2410 H 232.583 1.20297 -0.846582 0
M  V30 2411 H 234.541 4.17101 0.0908026 0
M  V30 2412 H 233.171 3.16571 0.631072 0
M  V30 2413 H 232.223 3.36133 -1.78097 0
M  V30 2414 H 233.535 4.50601 -2.13917 0
M  V30 2415 H 232.689 6.056 -0.365216 0
M  V30 2416 H 231.428 4.87614 0.0915188 0
M  V30 2417 H 230.433 5.03522 -2.20785 0
M  V30 2418 H 231.658 6.249 -2.6585 0
M  V30 2419 H 229.604 6.54562 -0.434174 0
M  V30 2420 H 229.521 7.29166 -1.99633 0
M  V30 2421 H 230.789 7.7433 -0.896259 0
M  V30 2422 N 235.018 0.912232 1.28515 0
M  V30 2423 C 236.429 0.591352 1.77087 0
M  V30 2424 C 236.78 -0.8933 1.74684 0
M  V30 2425 O 235.905 -1.69876 1.34056 0
M  V30 2426 C 236.5 1.06668 3.2157 0
M  V30 2427 C 235.059 0.79675 3.67871 0
M  V30 2428 C 234.206 1.23427 2.48316 0
M  V30 2429 H 237.157 1.09365 1.15 0
M  V30 2430 H 237.178 0.407455 3.78312 0
M  V30 2431 H 236.69 2.14726 3.23287 0
M  V30 2432 H 234.791 -0.270679 3.71616 0
M  V30 2433 H 234.904 1.40343 4.58084 0
M  V30 2434 H 233.268 0.653036 2.46186 0
M  V30 2435 H 234.051 2.32316 2.52753 0
M  V30 2436 N 236.496 -1.42363 0.676048 0
M  V30 2437 C 237.724 -2.05859 0.207268 0
M  V30 2438 C 238.139 -1.50796 -1.13605 0
M  V30 2439 O 237.496 -0.648265 -1.70598 0
M  V30 2440 C 237.547 -3.61248 0.134975 0
M  V30 2441 O 237.268 -4.1427 1.42521 0
M  V30 2442 C 238.769 -4.41859 -0.357151 0
M  V30 2443 H 235.989 -0.663431 0.100503 0
M  V30 2444 H 238.533 -1.82479 0.923136 0
M  V30 2445 H 236.688 -3.83735 -0.531588 0
M  V30 2446 H 237.102 -5.0815 1.29939 0
M  V30 2447 H 238.576 -5.50847 -0.356641 0
M  V30 2448 H 239.053 -4.16536 -1.39264 0
M  V30 2449 H 239.659 -4.24392 0.27772 0
M  V30 2450 N 237.974 -0.419461 -1.51915 0
M  V30 2451 C 239.22 0.145505 -2.02879 0
M  V30 2452 C 239.575 1.41926 -1.29903 0
M  V30 2453 O 238.868 1.87383 -0.399782 0
M  V30 2454 C 239.062 0.437067 -3.54717 0
M  V30 2455 C 238.891 -0.806877 -4.42402 0
M  V30 2456 C 237.661 -1.33514 -4.87342 0
M  V30 2457 C 239.859 -1.68796 -4.85811 0
M  V30 2458 N 237.841 -2.53349 -5.59185 0
M  V30 2459 C 239.212 -2.73247 -5.56539 0
M  V30 2460 C 241.267 -1.70449 -4.67816 0
M  V30 2461 C 239.97 -3.79276 -6.11181 0
M  V30 2462 C 241.996 -2.75403 -5.23361 0
M  V30 2463 C 241.358 -3.78575 -5.9402 0
M  V30 2464 H 237.457 0.0145424 -0.781865 0
M  V30 2465 H 240.041 -0.576126 -1.85981 0
M  V30 2466 H 238.212 1.12774 -3.71667 0
M  V30 2467 H 239.944 0.99182 -3.92358 0
M  V30 2468 H 236.699 -0.891657 -4.65131 0
M  V30 2469 H 237.123 -3.14066 -5.99743 0
M  V30 2470 H 241.765 -0.920209 -4.12664 0
M  V30 2471 H 239.483 -4.58554 -6.65397 0
M  V30 2472 H 243.069 -2.77603 -5.113 0
M  V30 2473 H 241.949 -4.58453 -6.36231 0
M  V30 2474 N 239.452 1.56882 -0.150215 0
M  V30 2475 C 240.7 1.9584 0.499105 0
M  V30 2476 C 241.021 1.03623 1.65188 0
M  V30 2477 O 240.291 0.0984084 1.95653 0
M  V30 2478 H 238.871 0.723119 0.187373 0
M  V30 2479 H 241.533 1.9358 -0.226466 0
M  V30 2480 H 240.629 2.99638 0.873122 0
M  V30 2481 N 240.93 -0.123565 1.57115 0
M  V30 2482 C 241.878 -1.17082 2.00984 0
M  V30 2483 C 242.872 -1.43136 0.906009 0
M  V30 2484 O 244.078 -1.43152 1.09121 0
M  V30 2485 H 240.453 -0.394653 0.64012 0
M  V30 2486 H 242.424 -0.774292 2.88179 0
M  V30 2487 C 241.173 -2.49057 2.42623 0
M  V30 2488 H 240.496 -2.29846 3.27125 0
M  V30 2489 H 241.936 -3.20906 2.7712 0
M  V30 2490 C 240.395 -3.11305 1.28805 0
M  V30 2491 O 240.925 -3.97171 0.60153 0
M  V30 2492 N 239.131 -2.71111 1.04628 0
M  V30 2493 H 238.678 -2.01382 1.60634 0
M  V30 2494 H 238.636 -3.1309 0.286685 0
M  V30 2495 N 242.408 -1.52605 -0.393616 0
M  V30 2496 C 243.358 -1.73436 -1.48 0
M  V30 2497 C 244.342 -0.588386 -1.49756 0
M  V30 2498 O 245.534 -0.846047 -1.5547 0
M  V30 2499 C 242.663 -1.90247 -2.85764 0
M  V30 2500 C 241.749 -3.10763 -2.88595 0
M  V30 2501 N 242.14 -4.33196 -2.61103 0
M  V30 2502 C 240.438 -3.10914 -3.19763 0
M  V30 2503 C 241.139 -5.1477 -2.70899 0
M  V30 2504 N 240.115 -4.50356 -3.04435 0
M  V30 2505 H 243.917 -2.65727 -1.25563 0
M  V30 2506 H 241.431 -1.5085 -0.601513 0
M  V30 2507 H 243.428 -2.03291 -3.63976 0
M  V30 2508 H 242.088 -0.991663 -3.09186 0
M  V30 2509 H 243.099 -4.61408 -2.35209 0
M  V30 2510 H 239.776 -2.29626 -3.4868 0
M  V30 2511 H 241.166 -6.22355 -2.53227 0
M  V30 2512 N 243.887 0.651787 -1.4349 0
M  V30 2513 C 245.115 1.43937 -1.48626 0
M  V30 2514 C 245.53 1.8851 -0.104587 0
M  V30 2515 O 244.887 1.5958 0.885464 0
M  V30 2516 C 244.938 2.6734 -2.43334 0
M  V30 2517 O 244.659 2.24631 -3.76128 0
M  V30 2518 C 246.16 3.60683 -2.57726 0
M  V30 2519 H 243.38 0.44213 -0.504739 0
M  V30 2520 H 245.924 0.798944 -1.88248 0
M  V30 2521 H 244.079 3.2752 -2.06904 0
M  V30 2522 H 244.493 3.04485 -4.2707 0
M  V30 2523 H 245.967 4.43933 -3.28067 0
M  V30 2524 H 246.444 4.08126 -1.62265 0
M  V30 2525 H 247.05 3.06384 -2.94973 0
M  V30 2526 N 245.365 1.30045 0.890287 0
M  V30 2527 C 246.776 1.16738 1.45702 0
M  V30 2528 C 247.127 -0.233939 1.948 0
M  V30 2529 O 246.252 -1.13021 1.84541 0
M  V30 2530 C 246.847 2.11313 2.64825 0
M  V30 2531 C 245.406 2.02001 3.17604 0
M  V30 2532 C 244.553 2.01699 1.90296 0
M  V30 2533 H 247.504 1.42392 0.700726 0
M  V30 2534 H 247.525 1.69086 3.40867 0
M  V30 2535 H 247.037 3.13294 2.2906 0
M  V30 2536 H 245.138 1.03142 3.5804 0
M  V30 2537 H 245.251 2.90128 3.81264 0
M  V30 2538 H 243.615 1.46427 2.08402 0
M  V30 2539 H 244.398 3.05402 1.56795 0
M  V30 2540 N 246.843 -1.10192 1.12674 0
M  V30 2541 C 248.092 -1.81573 0.8783 0
M  V30 2542 C 248.405 -1.86249 -0.597557 0
M  V30 2543 O 249.611 -2.5386 -0.962681 0
M  V30 2544 C 248.067 -3.26149 1.52167 0
M  V30 2545 C 247.675 -3.29763 3.03249 0
M  V30 2546 C 249.419 -4.0234 1.3536 0
M  V30 2547 C 247.326 -4.68815 3.60508 0
M  V30 2548 H 246.256 -0.680394 0.324931 0
M  V30 2549 H 248.907 -1.23902 1.35353 0
M  V30 2550 H 247.289 -3.83832 0.974104 0
M  V30 2551 H 248.463 -2.8189 3.6452 0
M  V30 2552 H 246.778 -2.67059 3.19481 0
M  V30 2553 H 249.375 -5.05058 1.75559 0
M  V30 2554 H 249.718 -4.15235 0.297554 0
M  V30 2555 H 250.251 -3.51079 1.87052 0
M  V30 2556 H 246.99 -4.61121 4.65884 0
M  V30 2557 H 246.51 -5.17045 3.04014 0
M  V30 2558 H 248.189 -5.37785 3.59717 0
M  V30 2559 N 248.321 -0.919034 -1.28029 0
M  V30 2560 C 249.568 -0.554934 -1.94748 0
M  V30 2561 C 249.896 0.90231 -1.72304 0
M  V30 2562 O 249.151 1.65767 -1.04018 0
M  V30 2563 C 249.45 -0.816855 -3.4794 0
M  V30 2564 C 249.116 -2.25448 -3.90492 0
M  V30 2565 C 247.778 -2.64752 -4.01821 0
M  V30 2566 C 250.13 -3.18977 -4.12193 0
M  V30 2567 C 247.458 -3.96727 -4.32232 0
M  V30 2568 C 249.81 -4.50523 -4.44086 0
M  V30 2569 C 248.474 -4.89673 -4.53626 0
M  V30 2570 H 247.744 -0.203065 -0.712633 0
M  V30 2571 H 250.391 -1.16136 -1.52265 0
M  V30 2572 H 248.696 -0.127677 -3.91592 0
M  V30 2573 H 250.393 -0.514238 -3.97689 0
M  V30 2574 H 246.983 -1.93952 -3.82205 0
M  V30 2575 H 251.167 -2.89817 -4.02889 0
M  V30 2576 H 246.423 -4.26754 -4.37825 0
M  V30 2577 H 250.597 -5.23005 -4.59825 0
M  V30 2578 H 248.224 -5.91969 -4.76946 0
M  V30 2579 N 249.799 1.42003 -0.683588 0
M  V30 2580 C 251.215 1.55625 -0.353976 0
M  V30 2581 C 251.415 1.66151 1.14 0
M  V30 2582 O 250.471 1.63329 1.92561 0
M  V30 2583 C 251.784 2.80171 -1.092 0
M  V30 2584 C 253.332 2.93954 -1.07518 0
M  V30 2585 C 253.807 4.21372 -1.79471 0
M  V30 2586 N 255.298 4.28303 -1.76381 0
M  V30 2587 C 256.033 5.25729 -2.28904 0
M  V30 2588 N 255.529 6.29254 -2.89846 0
M  V30 2589 N 257.322 5.17586 -2.19228 0
M  V30 2590 H 249.473 1.33415 -1.6527 0
M  V30 2591 H 251.736 0.64282 -0.696769 0
M  V30 2592 H 251.442 2.78561 -2.14701 0
M  V30 2593 H 251.316 3.7133 -0.662862 0
M  V30 2594 H 253.703 2.95086 -0.028475 0
M  V30 2595 H 253.784 2.04002 -1.54328 0
M  V30 2596 H 253.428 4.21001 -2.84114 0
M  V30 2597 H 253.358 5.10275 -1.30104 0
M  V30 2598 H 255.849 3.54119 -1.31939 0
M  V30 2599 H 256.162 6.99964 -3.27522 0
M  V30 2600 H 254.507 6.29791 -2.93919 0
M  V30 2601 H 257.698 4.35631 -1.71299 0
M  V30 2602 H 257.871 5.93348 -2.60466 0
M  V30 2603 N 251.277 0.427512 1.51691 0
M  V30 2604 C 252.554 -0.201684 1.94557 0
M  V30 2605 C 252.934 -1.60981 1.36559 0
M  V30 2606 O 252.282 -2.21814 0.548702 0
M  V30 2607 C 252.492 -0.189394 3.48486 0
M  V30 2608 C 253.84 -0.39978 4.22714 0
M  V30 2609 O 254.864 -0.267945 3.55191 0
M  V30 2610 O 253.723 -0.661249 5.42485 0
M  V30 2611 H 250.817 -0.135261 0.815864 0
M  V30 2612 H 253.363 0.484782 1.62628 0
M  V30 2613 H 252.135 0.795431 3.8313 0
M  V30 2614 H 251.758 -0.919187 3.86829 0
M  V30 2615 N 252.755 -1.56801 0.158532 0
M  V30 2616 C 253.718 -2.16138 -0.762705 0
M  V30 2617 C 254.718 -1.1061 -1.16713 0
M  V30 2618 O 255.908 -1.36191 -1.08617 0
M  V30 2619 C 253.04 -2.73386 -2.03649 0
M  V30 2620 H 254.233 -2.98886 -0.246354 0
M  V30 2621 H 251.786 -1.56035 -0.0909744 0
M  V30 2622 H 252.521 -1.94335 -2.59623 0
M  V30 2623 H 252.306 -3.50601 -1.75559 0
M  V30 2624 H 253.796 -3.19065 -2.6942 0
M  V30 2625 N 254.233 0.115231 -1.57178 0
M  V30 2626 C 255.481 0.820727 -1.84685 0
M  V30 2627 C 255.802 1.80237 -0.744279 0
M  V30 2628 O 255.072 1.94529 0.231375 0
M  V30 2629 H 253.652 0.306084 -0.681411 0
M  V30 2630 H 256.314 0.101656 -1.94635 0
M  V30 2631 H 255.41 1.36366 -2.80733 0
M  V30 2632 N 255.711 1.52812 0.385517 0
M  V30 2633 C 256.644 1.72592 1.49289 0
M  V30 2634 C 257.622 0.573819 1.52138 0
M  V30 2635 O 258.806 0.80404 1.70492 0
M  V30 2636 C 255.933 1.78669 2.87741 0
M  V30 2637 C 254.979 3.00455 3.02703 0
M  V30 2638 S 255.812 4.60366 2.73538 0
M  V30 2639 C 256.968 4.69263 4.14177 0
M  V30 2640 H 257.201 2.66248 1.32285 0
M  V30 2641 H 254.734 1.43148 0.578611 0
M  V30 2642 H 256.692 1.82855 3.67524 0
M  V30 2643 H 255.353 0.861 3.02069 0
M  V30 2644 H 254.546 3.01258 4.04054 0
M  V30 2645 H 254.148 2.94278 2.30817 0
M  V30 2646 H 256.44 4.48092 5.08153 0
M  V30 2647 H 257.383 5.71276 4.18388 0
M  V30 2648 H 257.791 3.98072 4.00249 0
M  V30 2649 N 257.189 -0.644168 1.43834 0
M  V30 2650 C 258.121 -1.76955 1.45669 0
M  V30 2651 C 259.134 -1.58956 0.351666 0
M  V30 2652 O 260.323 -1.6751 0.616644 0
M  V30 2653 C 257.423 -3.14507 1.26248 0
M  V30 2654 C 256.596 -3.59083 2.49757 0
M  V30 2655 C 255.655 -4.75467 2.25427 0
M  V30 2656 O 254.681 -4.84444 2.98836 0
M  V30 2657 N 255.883 -5.66289 1.27661 0
M  V30 2658 H 258.648 -1.75856 2.42682 0
M  V30 2659 H 256.209 -0.828312 1.39106 0
M  V30 2660 H 258.201 -3.90067 1.0784 0
M  V30 2661 H 256.771 -3.10325 0.376478 0
M  V30 2662 H 255.991 -2.7387 2.8353 0
M  V30 2663 H 257.279 -3.85613 3.31934 0
M  V30 2664 H 256.677 -5.61718 0.670064 0
M  V30 2665 H 255.234 -6.41533 1.15234 0
M  V30 2666 N 258.668 -1.30515 -0.883378 0
M  V30 2667 C 259.598 -1.19607 -2.00541 0
M  V30 2668 C 260.579 -0.086346 -1.69881 0
M  V30 2669 O 261.764 -0.268654 -1.92333 0
M  V30 2670 C 258.894 -0.888758 -3.35736 0
M  V30 2671 C 257.848 -1.95659 -3.8066 0
M  V30 2672 C 257.174 -1.50224 -5.13164 0
M  V30 2673 C 258.474 -3.36788 -3.99213 0
M  V30 2674 H 260.168 -2.13476 -2.09925 0
M  V30 2675 H 257.714 -1.02775 -1.00863 0
M  V30 2676 H 259.667 -0.799094 -4.13754 0
M  V30 2677 H 258.391 0.0856125 -3.26488 0
M  V30 2678 H 257.05 -2.03591 -3.04871 0
M  V30 2679 H 256.698 -0.516092 -5.00345 0
M  V30 2680 H 256.398 -2.2165 -5.44192 0
M  V30 2681 H 257.922 -1.42639 -5.93706 0
M  V30 2682 H 259.336 -3.31605 -4.67665 0
M  V30 2683 H 257.733 -4.06314 -4.41621 0
M  V30 2684 H 258.803 -3.78561 -3.03017 0
M  V30 2685 N 260.146 1.09593 -1.13257 0
M  V30 2686 C 261.078 2.16015 -0.766167 0
M  V30 2687 C 262.091 1.61423 0.211303 0
M  V30 2688 O 263.28 1.78498 -0.00863946 0
M  V30 2689 C 260.38 3.38706 -0.114662 0
M  V30 2690 C 259.553 4.22717 -1.12379 0
M  V30 2691 C 258.612 5.23835 -0.498301 0
M  V30 2692 O 257.638 5.573 -1.15781 0
M  V30 2693 N 258.84 5.75886 0.730417 0
M  V30 2694 H 261.605 2.48055 -1.68193 0
M  V30 2695 H 259.166 1.25292 -1.02535 0
M  V30 2696 H 261.158 4.03464 0.315991 0
M  V30 2697 H 259.728 3.04569 0.704011 0
M  V30 2698 H 258.948 3.54122 -1.73179 0
M  V30 2699 H 260.236 4.75673 -1.80589 0
M  V30 2700 H 259.634 5.50911 1.28504 0
M  V30 2701 H 258.191 6.42387 1.10376 0
M  V30 2702 N 261.624 0.925811 1.2754 0
M  V30 2703 C 262.872 0.564138 1.94067 0
M  V30 2704 C 263.193 -0.897188 1.73134 0
M  V30 2705 O 262.463 -1.63573 1.07799 0
M  V30 2706 H 261.043 0.205645 0.718136 0
M  V30 2707 H 263.705 1.1778 1.55287 0
M  V30 2708 H 262.801 0.76881 3.02483 0
M  V30 2709 N 263.102 -1.41638 0.69111 0
M  V30 2710 C 264.332 -2.0533 0.228758 0
M  V30 2711 C 264.74 -1.52089 -1.12541 0
M  V30 2712 O 264.083 -0.662145 -1.71351 0
M  V30 2713 C 264.145 -3.59349 0.10407 0
M  V30 2714 C 263.809 -4.35362 1.38956 0
M  V30 2715 C 264.806 -4.64942 2.32648 0
M  V30 2716 C 262.491 -4.74714 1.64169 0
M  V30 2717 C 264.485 -5.32828 3.49818 0
M  V30 2718 C 262.172 -5.42338 2.81625 0
M  V30 2719 C 263.17 -5.71322 3.74273 0
M  V30 2720 O 262.858 -6.37554 4.89673 0
M  V30 2721 H 262.59 -0.667796 0.104997 0
M  V30 2722 H 265.144 -1.82477 0.942938 0
M  V30 2723 H 263.374 -3.80924 -0.665839 0
M  V30 2724 H 265.063 -4.04633 -0.320519 0
M  V30 2725 H 265.829 -4.35025 2.14425 0
M  V30 2726 H 261.708 -4.51538 0.929202 0
M  V30 2727 H 265.252 -5.55368 4.22152 0
M  V30 2728 H 261.149 -5.71673 2.99768 0
M  V30 2729 H 261.917 -6.56049 4.8943 0
M  V30 2730 N 264.58 -0.43555 -1.51462 0
M  V30 2731 C 265.996 -0.0877501 -1.59359 0
M  V30 2732 C 266.196 1.4027 -1.4466 0
M  V30 2733 O 265.252 2.17243 -1.28693 0
M  V30 2734 C 266.565 -0.606264 -2.94525 0
M  V30 2735 C 268.113 -0.566548 -3.0783 0
M  V30 2736 C 268.588 -1.06201 -4.45517 0
M  V30 2737 N 270.079 -1.01992 -4.51832 0
M  V30 2738 C 270.814 -1.37417 -5.5669 0
M  V30 2739 N 270.31 -1.80119 -6.68976 0
M  V30 2740 N 272.103 -1.29245 -5.47039 0
M  V30 2741 H 264.254 -1.40533 -1.59261 0
M  V30 2742 H 266.517 -0.578992 -0.750648 0
M  V30 2743 H 266.223 -1.64901 -3.10645 0
M  V30 2744 H 266.097 -0.0302097 -3.77188 0
M  V30 2745 H 268.484 0.467208 -2.91378 0
M  V30 2746 H 268.565 -1.17898 -2.2701 0
M  V30 2747 H 268.209 -2.09422 -4.62715 0
M  V30 2748 H 268.139 -0.426127 -5.24873 0
M  V30 2749 H 270.63 -0.706308 -3.71241 0
M  V30 2750 H 270.943 -2.05392 -7.45006 0
M  V30 2751 H 269.288 -1.84044 -6.70189 0
M  V30 2752 H 272.479 -0.957522 -4.58202 0
M  V30 2753 H 272.652 -1.57182 -6.28648 0
M  V30 2754 N 266.058 1.56714 -0.166846 0
M  V30 2755 C 267.288 2.00828 0.48494 0
M  V30 2756 C 267.696 1.04612 1.57648 0
M  V30 2757 O 267.039 0.0383201 1.8366 0
M  V30 2758 C 267.101 3.4137 1.12723 0
M  V30 2759 C 266.765 4.56654 0.177886 0
M  V30 2760 C 267.762 5.16402 -0.60207 0
M  V30 2761 C 265.447 5.02244 0.0750139 0
M  V30 2762 C 267.441 6.20167 -1.47215 0
M  V30 2763 C 265.128 6.05859 -0.798649 0
M  V30 2764 C 266.126 6.64691 -1.57082 0
M  V30 2765 O 265.814 7.66297 -2.42989 0
M  V30 2766 H 265.546 0.663587 0.128953 0
M  V30 2767 H 268.1 2.03692 -0.264365 0
M  V30 2768 H 266.33 3.35406 1.92457 0
M  V30 2769 H 268.019 3.69466 1.68076 0
M  V30 2770 H 268.785 4.82065 -0.53274 0
M  V30 2771 H 264.664 4.56167 0.665812 0
M  V30 2772 H 268.208 6.66016 -2.07531 0
M  V30 2773 H 264.105 6.39621 -0.869199 0
M  V30 2774 H 264.873 7.83601 -2.36455 0
M  V30 2775 N 267.536 -0.106894 1.57237 0
M  V30 2776 C 268.766 -0.825191 1.89405 0
M  V30 2777 C 269.174 -1.73374 0.757496 0
M  V30 2778 O 268.517 -1.81552 -0.280115 0
M  V30 2779 C 268.579 -1.70102 3.1671 0
M  V30 2780 C 268.243 -0.965523 4.46684 0
M  V30 2781 C 269.24 -0.300741 5.19029 0
M  V30 2782 C 266.925 -0.943105 4.93367 0
M  V30 2783 C 268.919 0.376622 6.36286 0
M  V30 2784 C 266.606 -0.261949 6.10538 0
M  V30 2785 C 267.604 0.396748 6.81847 0
M  V30 2786 O 267.292 1.06701 7.96787 0
M  V30 2787 H 267.024 -0.241852 0.631255 0
M  V30 2788 H 269.578 -0.0921491 2.05193 0
M  V30 2789 H 267.808 -2.47601 2.97036 0
M  V30 2790 H 269.497 -2.29483 3.34802 0
M  V30 2791 H 270.263 -0.309599 4.84011 0
M  V30 2792 H 266.142 -1.44524 4.3776 0
M  V30 2793 H 269.686 0.891334 6.91882 0
M  V30 2794 H 265.583 -0.250896 6.45012 0
M  V30 2795 H 266.351 0.972707 8.127 0
M  V30 2796 N 269.014 -1.53014 -0.377408 0
M  V30 2797 C 270.291 -1.59215 -1.13622 0
M  V30 2798 C 270.671 -0.392407 -2.07421 0
M  V30 2799 O 270.019 0.618342 -2.19975 0
M  V30 2800 C 270.229 -2.93669 -1.88573 0
M  V30 2801 C 271.577 -3.47822 -2.43526 0
M  V30 2802 O 272.601 -2.9562 -1.98715 0
M  V30 2803 O 271.46 -4.39055 -3.25412 0
M  V30 2804 H 268.554 -0.642625 -0.52054 0
M  V30 2805 H 271.1 -1.65353 -0.381625 0
M  V30 2806 H 269.872 -3.7243 -1.20048 0
M  V30 2807 H 269.495 -2.90968 -2.70968 0
M  V30 2808 N 270.492 0.636531 -1.44174 0
M  V30 2809 C 271.903 1.21806 -1.41493 0
M  V30 2810 C 272.254 1.95785 -0.1275 0
M  V30 2811 O 271.379 2.02147 0.772376 0
M  V30 2812 C 271.974 2.21551 -2.56321 0
M  V30 2813 C 270.533 2.75143 -2.56853 0
M  V30 2814 C 269.68 1.50052 -2.33195 0
M  V30 2815 H 272.631 0.427531 -1.52833 0
M  V30 2816 H 272.652 3.0405 -2.28765 0
M  V30 2817 H 272.164 1.67679 -3.50008 0
M  V30 2818 H 270.265 3.33033 -1.67093 0
M  V30 2819 H 270.378 3.2155 -3.55165 0
M  V30 2820 H 268.742 1.77993 -1.82183 0
M  V30 2821 H 269.525 0.980903 -3.28988 0
M  V30 2822 N 271.97 1.30982 0.876444 0
M  V30 2823 C 272.917 1.18085 1.98304 0
M  V30 2824 C 273.887 0.0682263 1.6596 0
M  V30 2825 O 275.072 0.239937 1.89285 0
M  V30 2826 C 272.212 0.887475 3.33493 0
M  V30 2827 C 271.325 2.08281 3.78475 0
M  V30 2828 C 270.46 1.72678 5.0235 0
M  V30 2829 C 269.499 2.88657 5.39762 0
M  V30 2830 N 268.636 2.53292 6.54819 0
M  V30 2831 H 273.476 2.1275 2.08666 0
M  V30 2832 H 271.013 1.05839 1.02159 0
M  V30 2833 H 272.971 0.697961 4.1132 0
M  V30 2834 H 271.601 -0.022315 3.22792 0
M  V30 2835 H 270.653 2.3833 2.96484 0
M  V30 2836 H 271.965 2.95108 4.02135 0
M  V30 2837 H 271.119 1.50151 5.87826 0
M  V30 2838 H 269.858 0.830327 4.8058 0
M  V30 2839 H 268.863 3.1184 4.52809 0
M  V30 2840 H 270.088 3.79002 5.63502 0
M  V30 2841 H 268.034 1.66163 6.34607 0
M  V30 2842 H 267.951 3.3365 6.7839 0
M  V30 2843 H 269.219 2.34143 7.43503 0
M  V30 2844 N 273.449 -1.08991 1.13837 0
M  V30 2845 C 274.677 -1.85011 0.926202 0
M  V30 2846 C 275.092 -1.8135 -0.525127 0
M  V30 2847 O 274.449 -1.21287 -1.36366 0
M  V30 2848 C 274.5 -3.32802 1.41155 0
M  V30 2849 O 274.221 -3.36444 2.80601 0
M  V30 2850 C 275.722 -4.25649 1.23847 0
M  V30 2851 H 272.942 -0.584249 0.32999 0
M  V30 2852 H 275.486 -1.37688 1.51202 0
M  V30 2853 H 273.641 -3.77536 0.868631 0
M  V30 2854 H 274.055 -4.28657 3.02248 0
M  V30 2855 H 275.529 -5.27485 1.62675 0
M  V30 2856 H 276.006 -4.38828 0.18065 0
M  V30 2857 H 276.612 -3.86735 1.76964 0
M  V30 2858 N 274.927 -0.932562 -1.27047 0
M  V30 2859 C 276.167 -0.582919 -1.95912 0
M  V30 2860 C 276.531 0.860629 -1.71631 0
M  V30 2861 O 277.732 1.31878 -2.34225 0
M  V30 2862 C 276.003 -0.905673 -3.45734 0
M  V30 2863 S 277.562 -0.665277 -4.33727 0
M  V30 2864 H 274.38 -0.215 -0.677714 0
M  V30 2865 H 276.982 -1.20204 -1.54179 0
M  V30 2866 H 275.686 -1.95386 -3.60905 0
M  V30 2867 H 275.217 -0.275939 -3.92431 0
M  V30 2868 H 277.232 0.474635 -4.93925 0
M  V30 2869 N 276.405 1.4127 -0.698611 0
M  V30 2870 C 277.653 2.00782 -0.230409 0
M  V30 2871 C 277.974 1.5562 1.17505 0
M  V30 2872 O 277.244 0.78815 1.79346 0
M  V30 2873 H 275.824 0.742464 -0.0821944 0
M  V30 2874 H 278.486 1.72852 -0.90045 0
M  V30 2875 H 277.582 3.11095 -0.25021 0
M  V30 2876 N 277.883 0.443576 1.51229 0
M  V30 2877 C 279.13 -0.120796 2.02139 0
M  V30 2878 C 279.458 -1.42166 1.32736 0
M  V30 2879 O 278.713 -1.90849 0.43301 0
M  V30 2880 C 279.012 -0.380579 3.55368 0
M  V30 2881 C 278.678 0.83523 4.43097 0
M  V30 2882 C 277.34 1.16864 4.66794 0
M  V30 2883 C 279.692 1.64601 4.94526 0
M  V30 2884 C 277.02 2.31339 5.39165 0
M  V30 2885 C 279.372 2.78181 5.68153 0
M  V30 2886 C 278.036 3.11969 5.90112 0
M  V30 2887 H 277.306 -0.0442023 0.73968 0
M  V30 2888 H 279.953 0.592046 1.82118 0
M  V30 2889 H 278.258 -1.17538 3.73754 0
M  V30 2890 H 279.955 -0.830777 3.923 0
M  V30 2891 H 276.545 0.565437 4.24854 0
M  V30 2892 H 280.729 1.40163 4.76097 0
M  V30 2893 H 275.985 2.57823 5.5438 0
M  V30 2894 H 280.159 3.41371 6.06992 0
M  V30 2895 H 277.786 4.00784 6.45969 0
M  V30 2896 N 279.361 -1.56624 0.175154 0
M  V30 2897 C 280.638 -1.88688 -0.515373 0
M  V30 2898 C 281.018 -1.08564 -1.81044 0
M  V30 2899 O 280.366 -0.180703 -2.27784 0
M  V30 2900 C 280.576 -3.40768 -0.753552 0
M  V30 2901 C 281.924 -4.10587 -1.08184 0
M  V30 2902 O 282.948 -3.46106 -0.841961 0
M  V30 2903 O 281.807 -5.24512 -1.53459 0
M  V30 2904 H 278.901 -0.78301 -0.26613 0
M  V30 2905 H 281.447 -1.68347 0.213877 0
M  V30 2906 H 280.219 -3.90965 0.161829 0
M  V30 2907 H 279.842 -3.66733 -1.53598 0
M  V30 2908 N 280.839 0.0985539 -1.57292 0
M  V30 2909 C 282.086 0.802678 -1.85912 0
M  V30 2910 C 282.414 1.78901 -0.763186 0
M  V30 2911 O 281.669 1.94178 0.243559 0
M  V30 2912 C 281.968 1.56927 -3.21105 0
M  V30 2913 C 281.634 0.725376 -4.45027 0
M  V30 2914 C 280.296 0.492726 -4.78671 0
M  V30 2915 C 282.648 0.138493 -5.21016 0
M  V30 2916 C 279.976 -0.336727 -5.85733 0
M  V30 2917 C 282.328 -0.678264 -6.28953 0
M  V30 2918 C 280.992 -0.921039 -6.61115 0
M  V30 2919 H 280.262 0.293721 -0.680301 0
M  V30 2920 H 282.909 0.0642841 -1.91392 0
M  V30 2921 H 281.214 2.37914 -3.11294 0
M  V30 2922 H 282.911 2.11841 -3.40477 0
M  V30 2923 H 279.501 0.916815 -4.18679 0
M  V30 2924 H 283.685 0.305404 -4.95359 0
M  V30 2925 H 278.941 -0.533836 -6.09065 0
M  V30 2926 H 283.115 -1.1399 -6.87007 0
M  V30 2927 H 280.742 -1.56556 -7.43905 0
M  V30 2928 N 282.317 1.53212 0.369288 0
M  V30 2929 C 283.545 1.73119 1.13303 0
M  V30 2930 C 283.96 0.458455 1.83149 0
M  V30 2931 O 283.317 -0.568403 1.73423 0
M  V30 2932 C 283.368 2.89413 2.16616 0
M  V30 2933 O 283.089 4.11761 1.49614 0
M  V30 2934 C 284.59 3.21161 3.05566 0
M  V30 2935 H 281.81 0.579107 0.338934 0
M  V30 2936 H 284.354 1.99942 0.429338 0
M  V30 2937 H 282.509 2.64994 2.82589 0
M  V30 2938 H 282.923 4.76858 2.18419 0
M  V30 2939 H 284.397 4.05949 3.74045 0
M  V30 2940 H 284.874 2.36369 3.70171 0
M  V30 2941 H 285.48 3.47492 2.45213 0
M  V30 2942 N 283.795 -0.628877 1.44509 0
M  V30 2943 C 285.043 -1.38565 1.4712 0
M  V30 2944 C 285.364 -1.94712 0.105899 0
M  V30 2945 O 284.634 -1.75912 -0.862079 0
M  V30 2946 H 283.214 -0.514333 0.541729 0
M  V30 2947 H 285.876 -0.740018 1.80305 0
M  V30 2948 H 284.972 -2.21583 2.19789 0
M  V30 2949 N 285.273 -1.31445 -0.869486 0
M  V30 2950 C 286.236 -1.19094 -1.9583 0
M  V30 2951 C 287.236 -0.117906 -1.60367 0
M  V30 2952 O 288.426 -0.367208 -1.70286 0
M  V30 2953 C 285.558 -0.828165 -3.30688 0
M  V30 2954 H 286.751 -2.15842 -2.08212 0
M  V30 2955 H 284.304 -1.15063 -1.05784 0
M  V30 2956 H 285.039 0.138142 -3.24006 0
M  V30 2957 H 284.824 -1.6038 -3.578 0
M  V30 2958 H 286.314 -0.765658 -4.10521 0
M  V30 2959 N 286.751 1.08385 -1.14413 0
M  V30 2960 C 287.997 1.81044 -0.913834 0
M  V30 2961 C 288.33 1.86004 0.558209 0
M  V30 2962 O 287.605 1.33606 1.4135 0
M  V30 2963 C 287.888 3.26648 -1.51569 0
M  V30 2964 C 287.741 3.29895 -3.0576 0
M  V30 2965 C 289.06 4.23629 -1.19273 0
M  V30 2966 H 286.179 0.65727 -0.333414 0
M  V30 2967 H 288.821 1.26896 -1.41412 0
M  V30 2968 H 286.971 3.72889 -1.09023 0
M  V30 2969 H 288.643 2.91977 -3.57137 0
M  V30 2970 H 286.886 2.69163 -3.40197 0
M  V30 2971 H 287.557 4.32516 -3.42977 0
M  V30 2972 H 290.033 3.85727 -1.56057 0
M  V30 2973 H 288.909 5.23822 -1.64017 0
M  V30 2974 H 289.17 4.41968 -0.108068 0
M  V30 2975 N 288.23 0.939286 1.26551 0
M  V30 2976 C 289.14 0.453432 2.30176 0
M  V30 2977 C 290.156 -0.471649 1.67486 0
M  V30 2978 O 291.332 -0.35164 1.98306 0
M  V30 2979 C 288.397 -0.275326 3.45605 0
M  V30 2980 C 287.458 0.686084 4.23782 0
M  V30 2981 C 286.691 -0.00798994 5.33699 0
M  V30 2982 O 286.914 -1.22528 5.57085 0
M  V30 2983 O 285.848 0.669746 5.98162 0
M  V30 2984 H 289.674 1.31416 2.73795 0
M  V30 2985 H 287.259 0.705095 1.31715 0
M  V30 2986 H 289.141 -0.685911 4.1578 0
M  V30 2987 H 287.816 -1.11147 3.0402 0
M  V30 2988 H 286.723 1.14658 3.56096 0
M  V30 2989 H 288.056 1.48979 4.69112 0
M  V30 2990 N 289.708 -1.40897 0.706093 0
M  V30 2991 C 290.985 -1.94868 0.169099 0
M  V30 2992 C 291.365 -1.64485 -1.32318 0
M  V30 2993 O 290.713 -0.95744 -2.07474 0
M  V30 2994 C 290.923 -3.45798 0.471654 0
M  V30 2995 C 292.271 -4.22663 0.405127 0
M  V30 2996 O 293.295 -3.53865 0.407168 0
M  V30 2997 O 292.154 -5.45216 0.374383 0
M  V30 2998 H 289.248 -0.82673 0.0211352 0
M  V30 2999 H 291.794 -1.50558 0.782976 0
M  V30 3000 H 290.566 -3.61235 1.50416 0
M  V30 3001 H 290.189 -3.97225 -0.172666 0
M  V30 3002 N 291.186 -0.45159 -1.50991 0
M  V30 3003 C 292.435 0.111653 -2.01391 0
M  V30 3004 C 292.748 1.42529 -1.33959 0
M  V30 3005 O 293.954 2.07232 -1.75405 0
M  V30 3006 C 292.41 0.249514 -3.59034 0
M  V30 3007 C 292.018 -1.05453 -4.35412 0
M  V30 3008 C 293.762 0.765762 -4.17536 0
M  V30 3009 C 291.669 -0.881529 -5.84793 0
M  V30 3010 H 290.599 0.0455022 -0.752626 0
M  V30 3011 H 293.25 -0.583524 -1.73975 0
M  V30 3012 H 291.632 1.00803 -3.82955 0
M  V30 3013 H 292.806 -1.82248 -4.23229 0
M  V30 3014 H 291.121 -1.50039 -3.88429 0
M  V30 3015 H 293.718 0.911913 -5.26866 0
M  V30 3016 H 294.061 1.75201 -3.77638 0
M  V30 3017 H 294.594 0.0651744 -3.97747 0
M  V30 3018 H 291.333 -1.84057 -6.29129 0
M  V30 3019 H 290.853 -0.153625 -5.99603 0
M  V30 3020 H 292.532 -0.540363 -6.4474 0
M  V30 3021 N 292.664 1.56529 -0.183458 0
M  V30 3022 C 293.889 2.02064 0.467428 0
M  V30 3023 C 294.314 1.06282 1.55196 0
M  V30 3024 O 293.672 0.0443565 1.81246 0
M  V30 3025 C 293.72 3.46122 1.01153 0
M  V30 3026 O 292.824 3.53437 2.12499 0
M  V30 3027 H 292.165 0.654726 0.110588 0
M  V30 3028 H 294.695 2.02521 -0.290917 0
M  V30 3029 H 294.705 3.85676 1.33108 0
M  V30 3030 H 293.38 4.15331 0.217533 0
M  V30 3031 H 291.957 3.2575 1.81497 0
M  V30 3032 N 294.142 -0.090211 1.57342 0
M  V30 3033 C 295.089 -1.10909 2.02405 0
M  V30 3034 C 296.059 -1.39523 0.901252 0
M  V30 3035 O 297.244 -1.50903 1.1676 0
M  V30 3036 C 294.384 -2.42277 2.45755 0
M  V30 3037 C 293.497 -2.20352 3.71576 0
M  V30 3038 C 292.632 -3.45154 4.03785 0
M  V30 3039 C 291.671 -3.18512 5.22701 0
M  V30 3040 N 290.808 -4.35593 5.50639 0
M  V30 3041 H 295.648 -0.71782 2.89225 0
M  V30 3042 H 293.185 -0.342901 1.43048 0
M  V30 3043 H 295.143 -3.18951 2.68935 0
M  V30 3044 H 293.773 -2.79242 1.61938 0
M  V30 3045 H 292.825 -1.34458 3.55844 0
M  V30 3046 H 294.137 -1.96661 4.58395 0
M  V30 3047 H 293.291 -4.30233 4.27767 0
M  V30 3048 H 292.03 -3.71904 3.15498 0
M  V30 3049 H 291.035 -2.31827 4.98534 0
M  V30 3050 H 292.26 -2.93103 6.12591 0
M  V30 3051 H 290.206 -4.6241 4.6531 0
M  V30 3052 H 290.123 -4.1511 6.31838 0
M  V30 3053 H 291.391 -5.21723 5.7916 0
M  V30 3054 N 295.62 -1.53406 -0.361157 0
M  V30 3055 C 296.869 -1.69022 -1.10066 0
M  V30 3056 C 297.182 -0.450838 -1.90333 0
M  V30 3057 O 298.388 -0.487617 -2.67085 0
M  V30 3058 C 296.844 -2.98812 -2.00598 0
M  V30 3059 C 296.452 -4.30027 -1.25621 0
M  V30 3060 C 298.196 -3.23795 -2.74513 0
M  V30 3061 C 296.103 -5.50903 -2.1508 0
M  V30 3062 H 295.033 -0.629776 -0.414606 0
M  V30 3063 H 297.684 -1.79907 -0.361348 0
M  V30 3064 H 296.066 -2.8174 -2.78278 0
M  V30 3065 H 297.24 -4.57745 -0.529739 0
M  V30 3066 H 295.555 -4.11522 -0.635496 0
M  V30 3067 H 298.152 -4.11289 -3.41681 0
M  V30 3068 H 298.495 -2.40045 -3.40123 0
M  V30 3069 H 299.028 -3.41561 -2.03914 0
M  V30 3070 H 295.767 -6.37143 -1.54041 0
M  V30 3071 H 295.287 -5.27459 -2.85565 0
M  V30 3072 H 296.966 -5.85865 -2.74538 0
M  V30 3073 N 297.098 0.621204 -1.44841 0
M  V30 3074 C 298.509 1.20298 -1.42777 0
M  V30 3075 C 298.86 1.95639 -0.148259 0
M  V30 3076 O 297.985 2.02955 0.750892 0
M  V30 3077 C 298.58 2.1882 -2.58657 0
M  V30 3078 C 297.139 2.72403 -2.59756 0
M  V30 3079 C 296.286 1.4757 -2.34773 0
M  V30 3080 H 299.237 0.411297 -1.53278 0
M  V30 3081 H 299.258 3.01607 -2.31977 0
M  V30 3082 H 298.77 1.63957 -3.51766 0
M  V30 3083 H 296.871 3.31242 -1.70615 0
M  V30 3084 H 296.984 3.17765 -3.58556 0
M  V30 3085 H 295.348 1.76051 -1.8406 0
M  V30 3086 H 296.131 0.945954 -3.3001 0
M  V30 3087 N 298.576 1.31904 0.862503 0
M  V30 3088 C 299.486 1.22161 2.00285 0
M  V30 3089 C 300.502 0.136785 1.73462 0
M  V30 3090 O 301.678 0.355994 1.98229 0
M  V30 3091 C 298.743 0.937093 3.33796 0
M  V30 3092 C 297.804 2.10957 3.73893 0
M  V30 3093 C 297.037 1.83853 5.01033 0
M  V30 3094 O 297.26 0.777274 5.65079 0
M  V30 3095 O 296.194 2.69741 5.38074 0
M  V30 3096 H 300.02 2.18008 2.11439 0
M  V30 3097 H 297.605 1.11716 0.991957 0
M  V30 3098 H 299.487 0.794583 4.13841 0
M  V30 3099 H 298.162 0.00871894 3.23699 0
M  V30 3100 H 297.069 2.30752 2.94456 0
M  V30 3101 H 298.402 3.02046 3.88625 0
M  V30 3102 N 300.054 -1.07777 1.14986 0
M  V30 3103 C 300.986 -2.14769 0.800436 0
M  V30 3104 C 301.999 -1.61739 -0.185595 0
M  V30 3105 O 303.188 -1.78462 0.0370358 0
M  V30 3106 C 300.288 -3.38481 0.168533 0
M  V30 3107 C 299.461 -4.20876 1.1909 0
M  V30 3108 C 298.52 -5.22976 0.581575 0
M  V30 3109 O 297.546 -5.55388 1.24633 0
M  V30 3110 N 298.748 -5.76976 -0.638706 0
M  V30 3111 H 301.513 -2.45348 1.72118 0
M  V30 3112 H 299.074 -1.23645 1.04515 0
M  V30 3113 H 301.066 -4.03916 -0.251764 0
M  V30 3114 H 299.636 -3.05651 -0.655467 0
M  V30 3115 H 298.856 -3.51322 1.78791 0
M  V30 3116 H 300.144 -4.7274 1.88133 0
M  V30 3117 H 299.542 -5.52886 -1.19723 0
M  V30 3118 H 298.099 -6.44061 -1.00142 0
M  V30 3119 N 301.532 -0.945985 -1.26051 0
M  V30 3120 C 302.757 -0.612525 -1.98149 0
M  V30 3121 C 303.182 0.806623 -1.69927 0
M  V30 3122 O 302.54 1.54411 -0.950108 0
M  V30 3123 C 302.588 -0.866981 -3.50023 0
M  V30 3124 O 301.692 0.0585333 -4.12358 0
M  V30 3125 H 301.033 -0.23379 -0.621481 0
M  V30 3126 H 303.563 -1.27023 -1.60395 0
M  V30 3127 H 303.573 -0.789792 -4.00283 0
M  V30 3128 H 302.248 -1.90135 -3.69894 0
M  V30 3129 H 300.825 -0.0701241 -3.72834 0
M  V30 3130 N 303.011 1.40521 -0.713556 0
M  V30 3131 C 304.257 2.01221 -0.252564 0
M  V30 3132 C 304.59 1.56444 1.1506 0
M  V30 3133 O 303.865 0.783597 1.78017 0
M  V30 3134 C 304.148 3.58582 -0.330332 0
M  V30 3135 C 304.001 4.13437 -1.77173 0
M  V30 3136 C 305.32 4.39079 0.299641 0
M  V30 3137 H 302.439 0.731077 -0.0932471 0
M  V30 3138 H 305.081 1.67026 -0.905673 0
M  V30 3139 H 303.231 3.87844 0.225737 0
M  V30 3140 H 304.903 3.9498 -2.38303 0
M  V30 3141 H 303.146 3.67801 -2.3001 0
M  V30 3142 H 303.817 5.22597 -1.77755 0
M  V30 3143 H 306.293 4.15735 -0.174139 0
M  V30 3144 H 305.169 5.4848 0.214771 0
M  V30 3145 H 305.43 4.19915 1.38288 0
M  V30 3146 N 304.489 0.459591 1.5075 0
M  V30 3147 C 305.419 -0.330644 2.31147 0
M  V30 3148 C 306.4 -1.00087 1.37538 0
M  V30 3149 O 307.585 -1.00025 1.66459 0
M  V30 3150 C 304.715 -1.41958 3.16962 0
M  V30 3151 C 303.669 -0.871608 4.19031 0
M  V30 3152 C 302.995 -2.05797 4.9351 0
M  V30 3153 C 304.295 0.109251 5.22186 0
M  V30 3154 H 305.989 0.340336 2.97459 0
M  V30 3155 H 303.535 0.165119 1.4305 0
M  V30 3156 H 305.488 -1.9798 3.71997 0
M  V30 3157 H 304.212 -2.11917 2.48513 0
M  V30 3158 H 302.871 -0.333442 3.6508 0
M  V30 3159 H 302.519 -2.74427 4.21544 0
M  V30 3160 H 302.219 -1.6976 5.62544 0
M  V30 3161 H 303.743 -2.62331 5.51375 0
M  V30 3162 H 305.157 -0.361405 5.7216 0
M  V30 3163 H 303.554 0.383316 5.98875 0
M  V30 3164 H 304.624 1.03887 4.73641 0
M  V30 3165 N 305.967 -1.56429 0.191757 0
M  V30 3166 C 306.897 -2.21937 -0.725696 0
M  V30 3167 C 307.878 -1.1814 -1.2238 0
M  V30 3168 O 309.063 -1.46636 -1.27325 0
M  V30 3169 C 306.193 -2.87611 -1.94672 0
M  V30 3170 C 305.147 -3.97623 -1.58366 0
M  V30 3171 C 304.473 -4.50446 -2.88102 0
M  V30 3172 C 305.773 -5.16197 -0.796133 0
M  V30 3173 H 307.467 -2.98861 -0.179606 0
M  V30 3174 H 305.013 -1.43749 -0.0849464 0
M  V30 3175 H 306.966 -3.3212 -2.59373 0
M  V30 3176 H 305.69 -2.08087 -2.51728 0
M  V30 3177 H 304.349 -3.53801 -0.960247 0
M  V30 3178 H 303.997 -3.67688 -3.43241 0
M  V30 3179 H 303.697 -5.24675 -2.64556 0
M  V30 3180 H 305.221 -4.97654 -3.53798 0
M  V30 3181 H 306.635 -5.57271 -1.34618 0
M  V30 3182 H 305.032 -5.96471 -0.658928 0
M  V30 3183 H 306.102 -4.84473 0.203478 0
M  V30 3184 N 307.445 0.0818655 -1.57387 0
M  V30 3185 C 308.375 1.09885 -2.06028 0
M  V30 3186 C 309.356 1.4098 -0.951774 0
M  V30 3187 O 310.541 1.50781 -1.22387 0
M  V30 3188 C 307.671 2.4151 -2.4958 0
M  V30 3189 C 306.625 2.24792 -3.64215 0
M  V30 3190 C 305.951 3.61712 -3.93787 0
M  V30 3191 C 307.251 1.67749 -4.94629 0
M  V30 3192 H 308.945 0.694128 -2.91243 0
M  V30 3193 H 306.491 0.332448 -1.4011 0
M  V30 3194 H 308.444 3.12939 -2.82219 0
M  V30 3195 H 307.168 2.83943 -1.61381 0
M  V30 3196 H 305.827 1.55807 -3.31843 0
M  V30 3197 H 305.475 4.01697 -3.02735 0
M  V30 3198 H 305.175 3.51368 -4.70971 0
M  V30 3199 H 306.699 4.34587 -4.28913 0
M  V30 3200 H 308.113 2.29032 -5.25564 0
M  V30 3201 H 306.51 1.68128 -5.76067 0
M  V30 3202 H 307.58 0.638059 -4.80684 0
M  V30 3203 N 308.923 1.53595 0.353017 0
M  V30 3204 C 309.873 1.77299 1.43349 0
M  V30 3205 C 310.857 0.627884 1.48143 0
M  V30 3206 O 312.049 0.88697 1.53173 0
M  V30 3207 C 309.178 1.97757 2.80619 0
M  V30 3208 C 308.264 3.18305 2.80254 0
M  V30 3209 N 308.655 4.39967 2.49526 0
M  V30 3210 C 306.953 3.19283 3.11407 0
M  V30 3211 C 307.654 5.21772 2.57156 0
M  V30 3212 N 306.63 4.58269 2.92388 0
M  V30 3213 H 310.432 2.68963 1.18474 0
M  V30 3214 H 307.946 1.52391 0.561306 0
M  V30 3215 H 309.943 2.1287 3.58458 0
M  V30 3216 H 308.603 1.07329 3.06448 0
M  V30 3217 H 309.614 4.67482 2.22893 0
M  V30 3218 H 306.291 2.3879 3.4247 0
M  V30 3219 H 307.681 6.2885 2.36638 0
M  V30 3220 N 310.401 -0.613514 1.45168 0
M  V30 3221 C 311.364 -1.7065 1.53007 0
M  V30 3222 C 312.364 -1.5548 0.410184 0
M  V30 3223 O 313.554 -1.60656 0.673455 0
M  V30 3224 C 310.686 -3.09875 1.42093 0
M  V30 3225 H 311.879 -1.65068 2.50385 0
M  V30 3226 H 309.432 -0.828728 1.32521 0
M  V30 3227 H 310.167 -3.21039 0.458769 0
M  V30 3228 H 309.952 -3.22293 2.23315 0
M  V30 3229 H 311.442 -3.895 1.50598 0
M  V30 3230 N 311.879 -1.3236 -0.855495 0
M  V30 3231 C 313.119 -1.24187 -1.62348 0
M  V30 3232 C 313.483 0.193597 -1.91021 0
M  V30 3233 O 314.684 0.39904 -2.65822 0
M  V30 3234 C 312.955 -2.07661 -2.90881 0
M  V30 3235 S 314.514 -2.16505 -3.81669 0
M  V30 3236 H 311.332 -0.442076 -0.556857 0
M  V30 3237 H 313.934 -1.67198 -1.01317 0
M  V30 3238 H 312.638 -3.11018 -2.67761 0
M  V30 3239 H 312.169 -1.65425 -3.56929 0
M  V30 3240 H 314.184 -1.31394 -4.78487 0
M  V30 3241 N 313.357 1.07166 -1.15556 0
M  V30 3242 C 314.32 2.12589 -0.856644 0
M  V30 3243 C 315.32 1.6015 0.14444 0
M  V30 3244 O 316.51 1.7399 -0.0854163 0
M  V30 3245 C 313.642 3.39753 -0.279405 0
M  V30 3246 H 314.835 2.40539 -1.79112 0
M  V30 3247 H 312.388 1.23086 -0.963298 0
M  V30 3248 H 313.123 3.17447 0.663174 0
M  V30 3249 H 312.908 3.79117 -1.00063 0
M  V30 3250 H 314.398 4.17507 -0.0879113 0
M  V30 3251 N 314.835 0.952656 1.25548 0
M  V30 3252 C 315.785 0.442033 2.23674 0
M  V30 3253 C 316.769 -0.467632 1.53955 0
M  V30 3254 O 317.961 -0.301006 1.74422 0
M  V30 3255 C 315.09 -0.280816 3.4215 0
M  V30 3256 C 314.176 0.646803 4.19139 0
M  V30 3257 N 314.567 1.77759 4.73535 0
M  V30 3258 C 312.865 0.454617 4.43677 0
M  V30 3259 C 313.566 2.35658 5.31827 0
M  V30 3260 N 312.542 1.64333 5.18166 0
M  V30 3261 H 316.344 1.30505 2.63336 0
M  V30 3262 H 313.858 0.809904 1.40763 0
M  V30 3263 H 315.855 -0.663747 4.11582 0
M  V30 3264 H 314.515 -1.14046 3.04012 0
M  V30 3265 H 315.526 2.15949 4.7073 0
M  V30 3266 H 312.203 -0.362312 4.15925 0
M  V30 3267 H 313.593 3.30998 5.84713 0
M  V30 3268 N 316.313 -1.40141 0.720998 0
M  V30 3269 C 317.261 -2.3252 0.0608547 0
M  V30 3270 C 318.255 -1.52326 -0.741152 0
M  V30 3271 O 319.461 -1.68089 -0.643911 0
M  V30 3272 H 315.836 -0.751999 0.000876664 0
M  V30 3273 H 317.807 -2.8584 0.856614 0
M  V30 3274 C 316.556 -3.37331 -0.842809 0
M  V30 3275 H 315.879 -3.99108 -0.235084 0
M  V30 3276 H 317.319 -4.04452 -1.27257 0
M  V30 3277 C 315.778 -2.73246 -1.97074 0
M  V30 3278 O 316.308 -2.59998 -3.06209 0
M  V30 3279 N 314.514 -2.31547 -1.75597 0
M  V30 3280 H 314.061 -2.42522 -0.868368 0
M  V30 3281 H 314.019 -1.89007 -2.51244 0
M  V30 3282 N 317.792 -0.46758 -1.50504 0
M  V30 3283 C 319.203 -0.0116166 -1.86696 0
M  V30 3284 C 319.554 1.39202 -1.38265 0
M  V30 3285 O 318.679 2.0313 -0.746132 0
M  V30 3286 C 319.274 -0.0143044 -3.38797 0
M  V30 3287 C 317.833 0.386175 -3.74414 0
M  V30 3288 C 316.98 -0.401287 -2.74381 0
M  V30 3289 H 319.931 -0.682022 -1.43297 0
M  V30 3290 H 319.952 0.788641 -3.72237 0
M  V30 3291 H 319.464 -1.03602 -3.74016 0
M  V30 3292 H 317.565 1.41237 -3.44794 0
M  V30 3293 H 317.678 0.0899596 -4.79016 0
M  V30 3294 H 316.042 0.144536 -2.5429 0
M  V30 3295 H 316.825 -1.42244 -3.12444 0
M  V30 3296 N 319.27 1.56325 -0.20005 0
M  V30 3297 C 320.498 2.02105 0.442874 0
M  V30 3298 C 320.913 1.08014 1.5485 0
M  V30 3299 O 320.27 0.0858797 1.82298 0
M  V30 3300 C 320.321 3.47549 0.994583 0
M  V30 3301 O 320.042 4.38049 -0.0669322 0
M  V30 3302 C 321.543 4.0887 1.7129 0
M  V30 3303 H 318.763 0.661807 0.110691 0
M  V30 3304 H 321.307 2.02134 -0.310207 0
M  V30 3305 H 319.462 3.48204 1.69803 0
M  V30 3306 H 319.876 5.23368 0.344462 0
M  V30 3307 H 321.35 5.12475 2.05118 0
M  V30 3308 H 321.827 3.52615 2.61838 0
M  V30 3309 H 322.433 4.12002 1.05518 0
M  V30 3310 N 320.748 -0.0735177 1.57428 0
M  V30 3311 C 321.996 -0.771472 1.86796 0
M  V30 3312 C 322.317 -1.78201 0.791804 0
M  V30 3313 O 321.587 -1.95074 -0.179718 0
M  V30 3314 H 320.167 -0.28791 0.689287 0
M  V30 3315 H 322.829 -0.0500161 1.94836 0
M  V30 3316 H 321.925 -1.28874 2.8425 0
M  V30 3317 N 322.226 -1.5378 -0.344866 0
M  V30 3318 C 323.472 -1.71216 -1.08687 0
M  V30 3319 C 323.805 -0.473281 -1.88345 0
M  V30 3320 O 323.08 0.52968 -1.87149 0
M  V30 3321 C 323.363 -2.97486 -2.02914 0
M  V30 3322 C 323.216 -4.31579 -1.26727 0
M  V30 3323 C 324.535 -3.19422 -3.0275 0
M  V30 3324 H 321.654 -0.62301 -0.393735 0
M  V30 3325 H 324.296 -1.8645 -0.365563 0
M  V30 3326 H 322.446 -2.84629 -2.64421 0
M  V30 3327 H 324.118 -4.56284 -0.67845 0
M  V30 3328 H 322.361 -4.30049 -0.569273 0
M  V30 3329 H 323.032 -5.16106 -1.95803 0
M  V30 3330 H 325.508 -3.316 -2.51357 0
M  V30 3331 H 324.384 -4.09169 -3.65885 0
M  V30 3332 H 324.645 -2.35656 -3.74057 0
M  V30 3333 N 323.704 0.605807 -1.45491 0
M  V30 3334 C 324.981 1.36522 -1.40075 0
M  V30 3335 C 325.361 2.10976 -0.0722744 0
M  V30 3336 O 324.709 2.08007 0.945808 0
M  V30 3337 C 324.919 2.31056 -2.61561 0
M  V30 3338 C 326.267 2.93608 -3.06724 0
M  V30 3339 O 327.291 2.41376 -2.61946 0
M  V30 3340 O 326.15 3.88421 -3.84437 0
M  V30 3341 H 323.244 0.612248 -0.555951 0
M  V30 3342 H 325.79 0.628747 -1.57623 0
M  V30 3343 H 324.562 1.75311 -3.49831 0
M  V30 3344 H 324.185 3.12081 -2.46356 0
M  V30 3345 N 325.182 1.32811 0.848464 0
M  V30 3346 C 326.593 1.21315 1.41914 0
M  V30 3347 C 326.944 -0.171847 1.95446 0
M  V30 3348 O 326.069 -1.07093 1.88043 0
M  V30 3349 C 326.664 2.19631 2.57968 0
M  V30 3350 C 325.223 2.12003 3.11017 0
M  V30 3351 C 324.37 2.07651 1.83783 0
M  V30 3352 H 327.321 1.44549 0.655071 0
M  V30 3353 H 327.342 1.79845 3.35315 0
M  V30 3354 H 326.854 3.20423 2.18976 0
M  V30 3355 H 324.955 1.14481 3.54577 0
M  V30 3356 H 325.068 3.02111 3.71841 0
M  V30 3357 H 323.432 1.52983 2.03638 0
M  V30 3358 H 324.215 3.10235 1.47 0
M  V30 3359 N 326.66 -1.06551 1.16123 0
M  V30 3360 C 328.076 -1.3142 0.905585 0
M  V30 3361 C 328.276 -1.96571 -0.442964 0
M  V30 3362 O 327.332 -2.23068 -1.18308 0
M  V30 3363 C 328.645 -2.19741 2.05267 0
M  V30 3364 C 330.193 -2.33165 2.08813 0
M  V30 3365 C 330.668 -3.24838 3.22868 0
M  V30 3366 N 332.159 -3.32421 3.22568 0
M  V30 3367 C 332.894 -4.0344 4.0746 0
M  V30 3368 N 332.39 -4.77003 5.02434 0
M  V30 3369 N 334.183 -3.99464 3.95456 0
M  V30 3370 H 326.334 -0.626548 2.02949 0
M  V30 3371 H 328.597 -0.338777 0.8854 0
M  V30 3372 H 328.303 -1.79142 3.02657 0
M  V30 3373 H 328.177 -3.20313 1.99198 0
M  V30 3374 H 330.564 -2.73013 1.12018 0
M  V30 3375 H 330.645 -1.3227 2.18948 0
M  V30 3376 H 330.289 -2.85708 4.19921 0
M  V30 3377 H 330.219 -4.25707 3.0997 0
M  V30 3378 H 332.71 -2.79994 2.53795 0
M  V30 3379 H 333.023 -5.28712 5.63634 0
M  V30 3380 H 331.368 -4.75992 5.06415 0
M  V30 3381 H 334.559 -3.4111 3.20564 0
M  V30 3382 H 334.732 -4.54544 4.61837 0
M  V30 3383 N 328.138 -0.959301 -1.25041 0
M  V30 3384 C 329.549 -0.65667 -1.74771 0
M  V30 3385 C 329.9 0.827852 -1.77879 0
M  V30 3386 O 329.025 1.64783 -1.40269 0
M  V30 3387 C 329.62 -1.1853 -3.1739 0
M  V30 3388 C 328.179 -0.932734 -3.6466 0
M  V30 3389 C 327.326 -1.32558 -2.43564 0
M  V30 3390 H 330.277 -1.13558 -1.10862 0
M  V30 3391 H 330.298 -0.547582 -3.76539 0
M  V30 3392 H 329.81 -2.26576 -3.15095 0
M  V30 3393 H 327.911 0.13257 -3.72364 0
M  V30 3394 H 328.024 -1.57248 -4.52559 0
M  V30 3395 H 326.388 -0.743956 -2.43593 0
M  V30 3396 H 327.171 -2.41537 -2.43957 0
M  V30 3397 N 329.616 1.39756 -0.72842 0
M  V30 3398 C 330.526 2.34444 -0.0855374 0
M  V30 3399 C 331.542 1.57976 0.729356 0
M  V30 3400 O 332.718 1.90301 0.659346 0
M  V30 3401 C 329.783 3.36965 0.815798 0
M  V30 3402 C 328.844 4.29299 -0.0105996 0
M  V30 3403 C 328.077 5.26923 0.84781 0
M  V30 3404 O 328.3 5.30859 2.08673 0
M  V30 3405 O 327.234 6.01249 0.279969 0
M  V30 3406 H 331.06 2.91065 -0.866892 0
M  V30 3407 H 328.645 1.4117 -0.48902 0
M  V30 3408 H 330.527 3.99804 1.33171 0
M  V30 3409 H 329.202 2.82739 1.57608 0
M  V30 3410 H 328.109 3.69703 -0.571877 0
M  V30 3411 H 329.442 4.86712 -0.73295 0
M  V30 3412 N 331.094 0.475555 1.50254 0
M  V30 3413 C 332.026 -0.352649 2.26471 0
M  V30 3414 C 333.039 -0.953165 1.3198 0
M  V30 3415 O 334.228 -0.840815 1.57457 0
M  V30 3416 C 331.328 -1.50902 3.0345 0
M  V30 3417 C 330.501 -1.02047 4.25329 0
M  V30 3418 C 329.56 -2.05142 4.84565 0
M  V30 3419 O 328.586 -1.63023 5.45355 0
M  V30 3420 N 329.788 -3.37987 4.71959 0
M  V30 3421 H 332.553 0.300767 2.98187 0
M  V30 3422 H 330.114 0.306598 1.5897 0
M  V30 3423 H 332.106 -2.19572 3.39956 0
M  V30 3424 H 330.676 -2.06705 2.34504 0
M  V30 3425 H 329.896 -0.159507 3.93877 0
M  V30 3426 H 331.184 -0.672061 5.04342 0
M  V30 3427 H 330.582 -3.74913 4.23623 0
M  V30 3428 H 329.139 -4.02443 5.12721 0
M  V30 3429 N 332.573 -1.56217 0.208337 0
M  V30 3430 C 333.819 -1.98998 -0.42086 0
M  V30 3431 C 334.174 -1.09331 -1.58317 0
M  V30 3432 O 333.467 -0.140466 -1.91084 0
M  V30 3433 C 333.661 -3.45441 -0.916797 0
M  V30 3434 C 333.49 -4.49273 0.195925 0
M  V30 3435 C 332.26 -5.00998 0.657956 0
M  V30 3436 C 334.458 -5.04294 1.00956 0
M  V30 3437 N 332.44 -5.88514 1.74712 0
M  V30 3438 C 333.811 -5.88607 1.94785 0
M  V30 3439 C 335.866 -4.86692 1.05049 0
M  V30 3440 C 334.569 -6.572 2.9237 0
M  V30 3441 C 336.595 -5.56034 2.01446 0
M  V30 3442 C 335.957 -6.40105 2.94016 0
M  V30 3443 H 332.056 -0.772574 -0.121048 0
M  V30 3444 H 334.64 -1.92101 0.317075 0
M  V30 3445 H 332.811 -3.52812 -1.62413 0
M  V30 3446 H 334.543 -3.75164 -1.51771 0
M  V30 3447 H 331.298 -4.72945 0.248912 0
M  V30 3448 H 331.722 -6.36975 2.2933 0
M  V30 3449 H 336.364 -4.21359 0.348759 0
M  V30 3450 H 334.082 -7.21723 3.63512 0
M  V30 3451 H 337.668 -5.44385 2.0527 0
M  V30 3452 H 336.548 -6.92816 3.6739 0
M  V30 3453 N 334.051 0.0651679 -1.57465 0
M  V30 3454 C 334.998 1.07675 -2.04144 0
M  V30 3455 C 335.968 1.38071 -0.923335 0
M  V30 3456 O 337.153 1.49026 -1.19146 0
M  V30 3457 C 334.293 2.38337 -2.49579 0
M  V30 3458 C 333.406 2.14413 -3.75035 0
M  V30 3459 C 332.541 3.38686 -4.09225 0
M  V30 3460 C 331.58 3.10156 -5.27702 0
M  V30 3461 N 330.717 4.26778 -5.57499 0
M  V30 3462 H 335.557 0.671716 -2.90331 0
M  V30 3463 H 333.094 0.3201 -1.43575 0
M  V30 3464 H 335.052 3.14632 -2.73975 0
M  V30 3465 H 333.682 2.7663 -1.6636 0
M  V30 3466 H 332.734 1.2878 -3.57939 0
M  V30 3467 H 334.046 1.89344 -4.61466 0
M  V30 3468 H 333.2 4.23373 -4.34558 0
M  V30 3469 H 331.939 3.66837 -3.21374 0
M  V30 3470 H 330.944 2.23866 -5.02159 0
M  V30 3471 H 332.169 2.8332 -6.17176 0
M  V30 3472 H 330.115 4.54948 -4.72608 0
M  V30 3473 H 330.032 4.05005 -6.38362 0
M  V30 3474 H 331.3 5.12443 -5.87386 0
M  V30 3475 N 335.529 1.53961 0.336706 0
M  V30 3476 C 336.439 1.85432 1.43708 0
M  V30 3477 C 337.455 0.745053 1.57242 0
M  V30 3478 O 338.631 1.03804 1.72588 0
M  V30 3479 C 335.696 2.06349 2.78605 0
M  V30 3480 C 334.757 3.30191 2.74358 0
M  V30 3481 C 333.99 3.50101 4.02822 0
M  V30 3482 O 334.213 2.7371 5.00439 0
M  V30 3483 O 333.147 4.43547 4.06878 0
M  V30 3484 H 336.973 2.78975 1.20028 0
M  V30 3485 H 334.558 1.39701 0.52952 0
M  V30 3486 H 336.44 2.21513 3.58483 0
M  V30 3487 H 335.115 1.15995 3.02203 0
M  V30 3488 H 334.022 3.20425 1.93078 0
M  V30 3489 H 335.355 4.2056 2.55715 0
M  V30 3490 N 337.007 -0.598083 1.45811 0
M  V30 3491 C 338.256 -1.35295 1.49594 0
M  V30 3492 C 338.569 -1.95057 0.145679 0
M  V30 3493 O 339.775 -2.71431 0.0612099 0
M  V30 3494 C 338.231 -2.45124 2.63519 0
M  V30 3495 C 337.839 -1.91732 4.04899 0
M  V30 3496 C 339.583 -3.2205 2.76558 0
M  V30 3497 C 337.49 -2.991 5.1019 0
M  V30 3498 H 336.42 -0.508552 0.556679 0
M  V30 3499 H 339.071 -0.639977 1.71978 0
M  V30 3500 H 337.453 -3.19149 2.34435 0
M  V30 3501 H 338.627 -1.24352 4.43704 0
M  V30 3502 H 336.942 -1.27522 3.96393 0
M  V30 3503 H 339.539 -4.0215 3.52391 0
M  V30 3504 H 339.882 -3.73663 1.83526 0
M  V30 3505 H 340.415 -2.55127 3.05213 0
M  V30 3506 H 337.154 -2.52393 6.04961 0
M  V30 3507 H 336.674 -3.65017 4.75944 0
M  V30 3508 H 338.353 -3.63318 5.35359 0
M  V30 3509 N 338.485 -1.33259 -0.841409 0
M  V30 3510 C 339.448 -1.23221 -1.9326 0
M  V30 3511 C 340.448 -0.151895 -1.60081 0
M  V30 3512 O 341.638 -0.403246 -1.69468 0
M  V30 3513 C 338.77 -0.898123 -3.28856 0
M  V30 3514 H 339.963 -2.2021 -2.03587 0
M  V30 3515 H 337.516 -1.17281 -1.03319 0
M  V30 3516 H 338.251 0.0693841 -3.24226 0
M  V30 3517 H 338.036 -1.67934 -3.54317 0
M  V30 3518 H 339.526 -0.852563 -4.08805 0
M  V30 3519 N 339.963 1.05934 -1.16686 0
M  V30 3520 C 341.191 1.8249 -0.974929 0
M  V30 3521 C 341.606 1.82679 0.476861 0
M  V30 3522 O 340.963 1.2486 1.33103 0
M  V30 3523 C 341.014 3.28943 -1.49929 0
M  V30 3524 O 340.735 3.28886 -2.89423 0
M  V30 3525 C 342.236 4.22215 -1.35089 0
M  V30 3526 H 339.456 0.575295 -0.345365 0
M  V30 3527 H 342 1.33631 -1.548 0
M  V30 3528 H 340.155 3.751 -0.968423 0
M  V30 3529 H 340.569 4.20493 -3.13506 0
M  V30 3530 H 342.043 5.22987 -1.76603 0
M  V30 3531 H 342.52 4.38195 -0.296935 0
M  V30 3532 H 343.126 3.81907 -1.87155 0
M  V30 3533 N 341.441 0.965919 1.2453 0
M  V30 3534 C 342.687 0.62776 1.92839 0
M  V30 3535 C 343.02 -0.834694 1.75347 0
M  V30 3536 O 342.295 -1.60031 1.10546 0
M  V30 3537 C 342.578 1.00109 3.45905 0
M  V30 3538 C 342.431 2.52011 3.72573 0
M  V30 3539 C 343.75 0.53435 4.36844 0
M  V30 3540 H 340.869 0.229537 0.700344 0
M  V30 3541 H 343.511 1.2046 1.46933 0
M  V30 3542 H 341.661 0.510238 3.85135 0
M  V30 3543 H 343.333 3.08559 3.42912 0
M  V30 3544 H 341.576 2.95287 3.17786 0
M  V30 3545 H 342.247 2.73183 4.79661 0
M  V30 3546 H 344.723 0.955565 4.04979 0
M  V30 3547 H 343.599 0.824152 5.42678 0
M  V30 3548 H 343.86 -0.565589 4.38467 0
M  V30 3549 N 342.919 -1.39368 0.735821 0
M  V30 3550 C 344.165 -2.00794 0.284544 0
M  V30 3551 C 344.498 -1.58255 -1.12557 0
M  V30 3552 O 343.773 -0.811819 -1.76748 0
M  V30 3553 C 344.056 -3.58011 0.387337 0
M  V30 3554 C 343.909 -4.10566 1.83728 0
M  V30 3555 C 345.228 -4.395 -0.22975 0
M  V30 3556 H 342.347 -0.729501 0.104866 0
M  V30 3557 H 344.989 -1.65564 0.93213 0
M  V30 3558 H 343.139 -3.88154 -0.164006 0
M  V30 3559 H 344.811 -3.91139 2.44556 0
M  V30 3560 H 343.054 -3.64095 2.35833 0
M  V30 3561 H 343.725 -5.19702 1.86047 0
M  V30 3562 H 346.201 -4.15406 0.240257 0
M  V30 3563 H 345.077 -5.48752 -0.127485 0
M  V30 3564 H 345.338 -4.22062 -1.3159 0
M  V30 3565 N 344.397 -0.483516 -1.5 0
M  V30 3566 C 345.344 0.304164 -2.28787 0
M  V30 3567 C 346.314 0.976114 -1.34392 0
M  V30 3568 O 347.499 0.986156 -1.63339 0
M  V30 3569 C 344.639 1.37298 -3.16612 0
M  V30 3570 C 343.752 0.714561 -4.26049 0
M  V30 3571 C 342.887 1.76232 -5.01114 0
M  V30 3572 C 341.926 1.08483 -6.0241 0
M  V30 3573 N 341.063 2.076 -6.70706 0
M  V30 3574 H 345.903 -0.373981 -2.95644 0
M  V30 3575 H 343.44 -0.196275 -1.45785 0
M  V30 3576 H 345.398 2.00445 -3.65893 0
M  V30 3577 H 344.028 2.02012 -2.51776 0
M  V30 3578 H 343.08 -0.0297798 -3.80388 0
M  V30 3579 H 344.392 0.180383 -4.98474 0
M  V30 3580 H 343.546 2.46929 -5.54176 0
M  V30 3581 H 342.285 2.33033 -4.28424 0
M  V30 3582 H 341.29 0.363545 -5.48597 0
M  V30 3583 H 342.515 0.523551 -6.77079 0
M  V30 3584 H 340.461 2.63394 -6.00799 0
M  V30 3585 H 340.378 1.59201 -7.39047 0
M  V30 3586 H 341.646 2.77639 -7.2838 0
M  V30 3587 N 345.875 1.56104 -0.216619 0
M  V30 3588 C 346.822 2.2007 0.695531 0
M  V30 3589 C 347.792 1.15471 1.19397 0
M  V30 3590 O 348.977 1.43807 1.25396 0
M  V30 3591 C 346.117 2.88073 1.90021 0
M  V30 3592 C 345.23 4.07253 1.44113 0
M  V30 3593 C 344.365 4.63052 2.603 0
M  V30 3594 C 343.404 5.74545 2.11103 0
M  V30 3595 N 342.541 6.24656 3.20545 0
M  V30 3596 H 347.381 2.97655 0.143327 0
M  V30 3597 H 344.918 1.46982 0.0589934 0
M  V30 3598 H 346.876 3.25681 2.60745 0
M  V30 3599 H 345.506 2.13015 2.42538 0
M  V30 3600 H 344.558 3.75164 0.628999 0
M  V30 3601 H 345.87 4.8783 1.04036 0
M  V30 3602 H 345.024 5.03078 3.39113 0
M  V30 3603 H 343.763 3.81628 3.03663 0
M  V30 3604 H 342.768 5.34027 1.3075 0
M  V30 3605 H 343.993 6.57801 1.68746 0
M  V30 3606 H 341.939 5.46148 3.63399 0
M  V30 3607 H 341.856 7.00343 2.84704 0
M  V30 3608 H 343.124 6.69338 3.99508 0
M  V30 3609 N 347.353 -0.0568162 1.57498 0
M  V30 3610 C 348.769 -0.411933 1.54192 0
M  V30 3611 C 348.969 -1.78287 0.938942 0
M  V30 3612 O 348.025 -2.46483 0.547919 0
M  V30 3613 C 349.338 -0.339244 2.9878 0
M  V30 3614 C 350.886 -0.418348 3.10192 0
M  V30 3615 C 351.361 -0.375407 4.56459 0
M  V30 3616 N 352.852 -0.435038 4.61153 0
M  V30 3617 C 353.587 -0.424265 5.71828 0
M  V30 3618 N 353.083 -0.367418 6.91825 0
M  V30 3619 N 354.876 -0.471938 5.60115 0
M  V30 3620 H 347.027 0.840684 1.95055 0
M  V30 3621 H 349.29 0.316987 0.893433 0
M  V30 3622 H 348.996 0.601742 3.46514 0
M  V30 3623 H 348.87 -1.14371 3.59443 0
M  V30 3624 H 351.257 -1.34976 2.62422 0
M  V30 3625 H 351.338 0.414962 2.52412 0
M  V30 3626 H 350.982 0.552219 5.04889 0
M  V30 3627 H 350.912 -1.22645 5.12119 0
M  V30 3628 H 353.403 -0.482612 3.74806 0
M  V30 3629 H 353.716 -0.363535 7.71944 0
M  V30 3630 H 352.061 -0.333879 6.94198 0
M  V30 3631 H 355.252 -0.514145 4.65268 0
M  V30 3632 H 355.425 -0.460073 6.46365 0
M  V30 3633 N 348.832 -1.54138 -0.328536 0
M  V30 3634 C 349.78 -1.83894 -1.42428 0
M  V30 3635 C 350.774 -0.710478 -1.53781 0
M  V30 3636 O 351.98 -0.894062 -1.56226 0
M  V30 3637 H 348.355 -0.582837 -0.475189 0
M  V30 3638 H 350.326 -2.75537 -1.14552 0
M  V30 3639 C 349.075 -2.07866 -2.78724 0
M  V30 3640 H 348.398 -2.94158 -2.7076 0
M  V30 3641 H 349.838 -2.32644 -3.54476 0
M  V30 3642 C 348.297 -0.868689 -3.25508 0
M  V30 3643 O 348.827 -0.0754908 -4.01629 0
M  V30 3644 N 347.033 -0.681711 -2.82491 0
M  V30 3645 H 346.58 -1.32838 -2.20708 0
M  V30 3646 H 346.538 0.126374 -3.14146 0
M  V30 3647 N 350.31 0.590341 -1.46126 0
M  V30 3648 C 351.24 1.71032 -1.58966 0
M  V30 3649 C 352.221 1.64302 -0.440335 0
M  V30 3650 O 353.406 1.82436 -0.665634 0
M  V30 3651 C 350.536 3.09665 -1.57241 0
M  V30 3652 C 349.49 3.31221 -2.71066 0
M  V30 3653 C 348.816 4.70303 -2.54399 0
M  V30 3654 C 350.116 3.19796 -4.1295 0
M  V30 3655 H 351.81 1.60543 -2.52718 0
M  V30 3656 H 349.356 0.770933 -1.21625 0
M  V30 3657 H 351.309 3.87831 -1.64819 0
M  V30 3658 H 350.033 3.21036 -0.600289 0
M  V30 3659 H 348.692 2.55452 -2.62944 0
M  V30 3660 H 348.34 4.78429 -1.55288 0
M  V30 3661 H 348.04 4.85679 -3.30741 0
M  V30 3662 H 349.564 5.50647 -2.63857 0
M  V30 3663 H 350.978 3.87815 -4.22223 0
M  V30 3664 H 349.375 3.46696 -4.89818 0
M  V30 3665 H 350.445 2.16983 -4.33643 0
M  V30 3666 N 351.788 1.33704 0.83433 0
M  V30 3667 C 353.035 1.25417 1.58987 0
M  V30 3668 C 353.363 -0.178869 1.93676 0
M  V30 3669 O 352.618 -1.13723 1.59265 0
M  V30 3670 C 352.917 2.07926 2.90692 0
M  V30 3671 C 352.583 3.57066 2.75345 0
M  V30 3672 C 351.245 3.97724 2.70867 0
M  V30 3673 C 353.597 4.51817 2.59828 0
M  V30 3674 C 350.925 5.31344 2.48778 0
M  V30 3675 C 353.277 5.85604 2.39272 0
M  V30 3676 C 351.941 6.25439 2.33199 0
M  V30 3677 H 351.211 0.458934 0.581774 0
M  V30 3678 H 353.858 1.65335 0.966261 0
M  V30 3679 H 352.163 1.608 3.57282 0
M  V30 3680 H 353.86 1.98868 3.48213 0
M  V30 3681 H 350.45 3.24785 2.79665 0
M  V30 3682 H 354.634 4.21311 2.62319 0
M  V30 3683 H 349.89 5.61241 2.42526 0
M  V30 3684 H 354.064 6.58623 2.2625 0
M  V30 3685 H 351.691 7.28914 2.15843 0
M  V30 3686 N 353.266 -1.05314 1.17247 0
M  V30 3687 C 354.229 -2.112 0.890357 0
M  V30 3688 C 355.229 -1.60359 -0.118943 0
M  V30 3689 O 356.419 -1.73833 0.113086 0
M  V30 3690 C 353.551 -3.39266 0.333422 0
M  V30 3691 H 354.744 -2.37659 1.82916 0
M  V30 3692 H 352.297 -1.21538 0.982758 0
M  V30 3693 H 353.032 -3.18462 -0.612587 0
M  V30 3694 H 352.817 -3.77477 1.06082 0
M  V30 3695 H 354.307 -4.17315 0.154322 0
M  V30 3696 N 354.744 -0.972509 -1.24016 0
M  V30 3697 C 355.991 -0.637034 -1.92219 0
M  V30 3698 C 356.319 0.828418 -1.75976 0
M  V30 3699 O 355.574 1.61206 -1.10955 0
M  V30 3700 C 355.873 -0.963694 -3.44162 0
M  V30 3701 C 355.539 -2.41807 -3.80579 0
M  V30 3702 C 354.201 -2.81556 -3.9023 0
M  V30 3703 C 356.553 -3.36172 -3.98293 0
M  V30 3704 C 353.881 -4.14702 -4.15017 0
M  V30 3705 C 356.233 -4.68952 -4.24578 0
M  V30 3706 C 354.897 -5.08472 -4.32449 0
M  V30 3707 H 354.167 -0.233107 -0.703379 0
M  V30 3708 H 356.814 -1.2249 -1.47202 0
M  V30 3709 H 355.119 -0.29365 -3.90698 0
M  V30 3710 H 356.816 -0.682449 -3.9515 0
M  V30 3711 H 353.406 -2.09988 -3.73635 0
M  V30 3712 H 357.59 -3.06644 -3.90234 0
M  V30 3713 H 352.846 -4.4494 -4.19331 0
M  V30 3714 H 357.02 -5.42037 -4.37229 0
M  V30 3715 H 354.647 -6.11665 -4.51409 0
M  V30 3716 N 356.222 1.38976 -0.743202 0
M  V30 3717 C 357.469 2.00343 -0.294752 0
M  V30 3718 C 357.797 1.58983 1.12047 0
M  V30 3719 O 357.052 0.813809 1.77977 0
M  V30 3720 C 357.351 3.55647 -0.353517 0
M  V30 3721 C 357.017 4.16685 -1.72292 0
M  V30 3722 C 355.679 4.3307 -2.09771 0
M  V30 3723 C 358.031 4.50464 -2.62168 0
M  V30 3724 C 355.359 4.80526 -3.36618 0
M  V30 3725 C 357.711 4.99332 -3.88395 0
M  V30 3726 C 356.375 5.13924 -4.25956 0
M  V30 3727 H 355.645 0.733108 -0.107857 0
M  V30 3728 H 358.292 1.6618 -0.951651 0
M  V30 3729 H 356.597 3.89884 0.386954 0
M  V30 3730 H 358.294 4.00998 0.0117269 0
M  V30 3731 H 354.884 4.04339 -1.42155 0
M  V30 3732 H 359.068 4.37416 -2.3448 0
M  V30 3733 H 354.324 4.90008 -3.65653 0
M  V30 3734 H 358.498 5.2444 -4.58187 0
M  V30 3735 H 356.125 5.50457 -5.2431 0
M  V30 3736 N 357.7 0.491464 1.49741 0
M  V30 3737 C 358.977 -0.118984 1.95238 0
M  V30 3738 C 359.357 -1.55044 1.43264 0
M  V30 3739 O 358.705 -2.19287 0.642287 0
M  V30 3740 C 358.915 -0.0414187 3.48975 0
M  V30 3741 C 360.263 -0.220133 4.24029 0
M  V30 3742 O 361.287 -0.117055 3.56008 0
M  V30 3743 O 360.146 -0.430567 5.44801 0
M  V30 3744 H 357.24 -0.100536 0.820866 0
M  V30 3745 H 359.786 0.553322 1.60426 0
M  V30 3746 H 358.558 0.957214 3.79412 0
M  V30 3747 H 358.181 -0.754292 3.9038 0
M  V30 3748 N 359.178 -1.55987 0.224894 0
M  V30 3749 C 360.111 -2.16413 -0.723929 0
M  V30 3750 C 361.089 -1.10952 -1.18863 0
M  V30 3751 O 362.273 -1.39225 -1.27077 0
M  V30 3752 C 359.4 -2.74711 -1.98121 0
M  V30 3753 C 358.446 -3.9303 -1.6562 0
M  V30 3754 S 359.279 -5.29817 -0.778058 0
M  V30 3755 C 360.435 -5.91555 -2.04483 0
M  V30 3756 H 360.668 -2.96555 -0.210347 0
M  V30 3757 H 358.201 -1.54397 0.00955457 0
M  V30 3758 H 360.159 -3.08938 -2.70311 0
M  V30 3759 H 358.82 -1.94555 -2.46591 0
M  V30 3760 H 358.013 -4.32334 -2.59043 0
M  V30 3761 H 357.615 -3.59966 -1.01491 0
M  V30 3762 H 359.907 -6.07732 -2.99446 0
M  V30 3763 H 360.85 -6.87498 -1.69563 0
M  V30 3764 H 361.258 -5.20419 -2.18688 0
M  V30 3765 N 360.656 0.0484629 -1.57525 0
M  V30 3766 C 361.619 1.03956 -2.04269 0
M  V30 3767 C 362.619 1.30211 -0.943496 0
M  V30 3768 O 363.809 1.25539 -1.20771 0
M  V30 3769 C 360.941 2.37742 -2.44319 0
M  V30 3770 H 362.134 0.636182 -2.93075 0
M  V30 3771 H 359.687 0.294811 -1.53494 0
M  V30 3772 H 360.422 2.82866 -1.5861 0
M  V30 3773 H 360.207 2.20021 -3.24551 0
M  V30 3774 H 361.697 3.08936 -2.80978 0
M  V30 3775 N 362.134 1.5431 0.320358 0
M  V30 3776 C 363.364 1.7638 1.07582 0
M  V30 3777 C 363.772 0.513944 1.82086 0
M  V30 3778 O 363.115 -0.525123 1.76035 0
M  V30 3779 C 363.177 2.9055 2.1171 0
M  V30 3780 C 362.841 4.2934 1.56575 0
M  V30 3781 C 363.838 5.10077 1.00586 0
M  V30 3782 C 361.523 4.75893 1.60722 0
M  V30 3783 C 363.517 6.35477 0.494756 0
M  V30 3784 C 361.204 6.0126 1.09224 0
M  V30 3785 C 362.202 6.80886 0.53696 0
M  V30 3786 O 361.89 8.03894 0.0297371 0
M  V30 3787 H 361.622 0.592369 0.325692 0
M  V30 3788 H 364.176 2.02019 0.37116 0
M  V30 3789 H 362.406 2.60489 2.85801 0
M  V30 3790 H 364.095 3.00373 2.73003 0
M  V30 3791 H 364.861 4.75265 0.966869 0
M  V30 3792 H 360.74 4.13957 2.02882 0
M  V30 3793 H 364.284 6.97574 0.0606842 0
M  V30 3794 H 360.181 6.35562 1.12831 0
M  V30 3795 H 360.949 8.18372 0.14486 0
M  V30 3796 N 363.613 -0.582584 1.46437 0
M  V30 3797 C 364.545 -1.70618 1.53043 0
M  V30 3798 C 365.558 -1.57322 0.418769 0
M  V30 3799 O 366.747 -1.64744 0.687136 0
M  V30 3800 C 363.847 -3.08869 1.39474 0
M  V30 3801 C 363.02 -3.48166 2.64762 0
M  V30 3802 C 362.079 -4.65478 2.4539 0
M  V30 3803 O 361.105 -4.71333 3.19114 0
M  V30 3804 N 362.307 -5.60365 1.51564 0
M  V30 3805 H 365.072 -1.65405 2.49923 0
M  V30 3806 H 362.633 -0.768567 1.42494 0
M  V30 3807 H 364.625 -3.85143 1.24287 0
M  V30 3808 H 363.195 -3.08449 0.507758 0
M  V30 3809 H 362.415 -2.61598 2.9489 0
M  V30 3810 H 363.703 -3.71188 3.4799 0
M  V30 3811 H 363.101 -5.5837 0.907705 0
M  V30 3812 H 361.658 -6.36068 1.4234 0
M  V30 3813 N 365.091 -1.34144 -0.827227 0
M  V30 3814 C 366.339 -1.26009 -1.58007 0
M  V30 3815 C 366.66 0.170971 -1.94249 0
M  V30 3816 O 365.93 1.10256 -1.61927 0
M  V30 3817 H 364.51 -0.463414 -0.585881 0
M  V30 3818 H 367.172 -1.68005 -0.987951 0
M  V30 3819 H 366.268 -1.86187 -2.50481 0
M  V30 3820 N 366.569 1.04691 -1.17803 0
M  V30 3821 C 367.816 1.77782 -0.969532 0
M  V30 3822 C 368.144 1.87926 0.501401 0
M  V30 3823 O 367.399 1.37918 1.38842 0
M  V30 3824 C 367.698 3.21467 -1.56186 0
M  V30 3825 C 367.364 3.3137 -3.05786 0
M  V30 3826 C 366.026 3.3378 -3.46619 0
M  V30 3827 C 368.378 3.31976 -4.01797 0
M  V30 3828 C 365.706 3.34431 -4.82051 0
M  V30 3829 C 368.058 3.34167 -5.37136 0
M  V30 3830 C 366.722 3.34866 -5.77426 0
M  V30 3831 H 365.992 0.650549 -0.354777 0
M  V30 3832 H 368.639 1.23006 -1.46772 0
M  V30 3833 H 366.944 3.79203 -0.985515 0
M  V30 3834 H 368.641 3.76652 -1.37602 0
M  V30 3835 H 365.231 3.3021 -2.73238 0
M  V30 3836 H 369.415 3.29311 -3.71306 0
M  V30 3837 H 364.671 3.33285 -5.12573 0
M  V30 3838 H 368.845 3.33585 -6.11305 0
M  V30 3839 H 366.472 3.35124 -6.82346 0
M  V30 3840 N 368.047 0.979072 1.23499 0
M  V30 3841 C 369.01 0.523244 2.23147 0
M  V30 3842 C 370.01 -0.386406 1.56088 0
M  V30 3843 O 371.2 -0.180283 1.73265 0
M  V30 3844 C 368.332 -0.240739 3.40049 0
M  V30 3845 H 369.525 1.40432 2.64989 0
M  V30 3846 H 367.078 0.764824 1.36309 0
M  V30 3847 H 367.813 -1.13841 3.03662 0
M  V30 3848 H 367.598 0.412207 3.89927 0
M  V30 3849 H 369.088 -0.548297 4.13985 0
M  V30 3850 N 369.525 -1.3858 0.750561 0
M  V30 3851 C 370.75 -2.04997 0.314812 0
M  V30 3852 C 371.175 -1.56235 -1.04749 0
M  V30 3853 O 370.533 -0.712981 -1.66692 0
M  V30 3854 C 370.581 -3.58961 0.343415 0
M  V30 3855 O 369.685 -4.07025 -0.663628 0
M  V30 3856 H 369.026 -0.649081 0.139962 0
M  V30 3857 H 371.556 -1.77313 1.02084 0
M  V30 3858 H 371.566 -4.07542 0.193233 0
M  V30 3859 H 370.241 -3.93811 1.33738 0
M  V30 3860 H 368.818 -3.6982 -0.478307 0
M  V30 3861 N 371.003 -0.499398 -1.49478 0
M  V30 3862 C 372.251 0.0455996 -2.02049 0
M  V30 3863 C 372.572 1.37633 -1.38138 0
M  V30 3864 O 371.842 1.8842 -0.536166 0
M  V30 3865 H 370.422 0.0198416 -0.746736 0
M  V30 3866 H 373.084 -0.656274 -1.83519 0
M  V30 3867 H 372.18 0.176445 -3.11601 0
M  V30 3868 N 372.481 1.55866 -0.233164 0
M  V30 3869 C 373.758 1.90471 0.444988 0
M  V30 3870 C 374.138 1.15209 1.7689 0
M  V30 3871 O 373.486 0.265119 2.26957 0
M  V30 3872 C 373.696 3.4333 0.626559 0
M  V30 3873 C 375.044 4.14319 0.92871 0
M  V30 3874 O 376.068 3.48993 0.712926 0
M  V30 3875 O 374.927 5.29846 1.33887 0
M  V30 3876 H 372.021 0.792347 0.236885 0
M  V30 3877 H 374.567 1.67437 -0.276211 0
M  V30 3878 H 373.339 3.90095 -0.306822 0
M  V30 3879 H 372.962 3.72181 1.39881 0
M  V30 3880 N 373.959 -0.0401083 1.57549 0
M  V30 3881 C 375.207 -0.731677 1.8839 0
M  V30 3882 C 375.528 -1.76481 0.829425 0
M  V30 3883 O 374.798 -1.95411 -0.1383 0
M  V30 3884 H 373.378 -0.273225 0.695239 0
M  V30 3885 H 376.04 -0.00867725 1.94898 0
M  V30 3886 H 375.136 -1.22816 2.86919 0
M  V30 3887 N 375.437 -1.54477 -0.31217 0
M  V30 3888 C 376.714 -1.63891 -1.06767 0
M  V30 3889 C 377.094 -0.480028 -2.0557 0
M  V30 3890 O 376.442 0.524487 -2.22399 0
M  V30 3891 C 376.652 -3.01402 -1.75948 0
M  V30 3892 C 378 -3.57838 -2.28554 0
M  V30 3893 O 379.024 -3.03782 -1.85998 0
M  V30 3894 O 377.883 -4.52462 -3.06497 0
M  V30 3895 H 374.977 -0.664125 -0.492816 0
M  V30 3896 H 377.523 -1.66823 -0.311149 0
M  V30 3897 H 376.295 -3.77187 -1.04144 0
M  V30 3898 H 375.918 -3.02199 -2.58383 0
M  V30 3899 N 376.915 0.57481 -1.46744 0
M  V30 3900 C 377.862 1.68329 -1.57905 0
M  V30 3901 C 378.832 1.60625 -0.422927 0
M  V30 3902 O 380.017 1.79721 -0.640711 0
M  V30 3903 C 377.157 3.06665 -1.58274 0
M  V30 3904 C 376.27 3.24935 -2.84678 0
M  V30 3905 C 375.405 4.53566 -2.76499 0
M  V30 3906 C 374.444 4.65207 -3.97806 0
M  V30 3907 N 373.581 5.85172 -3.87967 0
M  V30 3908 H 378.421 1.58127 -2.52587 0
M  V30 3909 H 375.958 0.770552 -1.25303 0
M  V30 3910 H 377.916 3.86745 -1.56473 0
M  V30 3911 H 376.546 3.15745 -0.671194 0
M  V30 3912 H 375.598 2.38405 -2.96424 0
M  V30 3913 H 376.91 3.29403 -3.7456 0
M  V30 3914 H 376.064 5.41885 -2.72848 0
M  V30 3915 H 374.803 4.51548 -1.8427 0
M  V30 3916 H 373.808 3.75304 -4.0178 0
M  V30 3917 H 375.033 4.68997 -4.9114 0
M  V30 3918 H 372.979 5.84137 -2.98529 0
M  V30 3919 H 372.896 5.90943 -4.71511 0
M  V30 3920 H 374.164 6.759 -3.88303 0
M  V30 3921 N 378.394 1.34581 0.820102 0
M  V30 3922 C 379.671 1.17675 1.56244 0
M  V30 3923 C 380.051 -0.249541 2.0962 0
M  V30 3924 O 379.399 -1.25125 1.91196 0
M  V30 3925 C 379.609 2.23364 2.6816 0
M  V30 3926 C 380.957 2.58485 3.36854 0
M  V30 3927 O 381.981 2.22175 2.78418 0
M  V30 3928 O 380.84 3.20868 4.42386 0
M  V30 3929 H 377.934 0.456333 0.689702 0
M  V30 3930 H 380.48 1.46222 0.861231 0
M  V30 3931 H 379.252 3.19087 2.26493 0
M  V30 3932 H 378.875 1.96009 3.45928 0
M  V30 3933 N 379.872 -1.04064 1.18357 0
M  V30 3934 C 380.835 -2.10243 0.912707 0
M  V30 3935 C 381.835 -1.60477 -0.101928 0
M  V30 3936 O 383.025 -1.73703 0.131517 0
M  V30 3937 C 380.157 -3.38893 0.369387 0
M  V30 3938 H 381.35 -2.35706 1.85426 0
M  V30 3939 H 378.903 -1.20489 0.995594 0
M  V30 3940 H 379.638 -3.19094 -0.578776 0
M  V30 3941 H 379.423 -3.76331 1.1008 0
M  V30 3942 H 380.913 -4.17128 0.198575 0
M  V30 3943 N 381.35 -0.985608 -1.22978 0
M  V30 3944 C 382.596 -0.667998 -1.92118 0
M  V30 3945 C 382.951 0.790454 -1.75413 0
M  V30 3946 O 382.244 1.56336 -1.10768 0
M  V30 3947 C 382.438 -1.00014 -3.43121 0
M  V30 3948 C 382.267 -2.48933 -3.74516 0
M  V30 3949 C 381.037 -3.15218 -3.94925 0
M  V30 3950 C 383.235 -3.47024 -3.79577 0
M  V30 3951 N 381.217 -4.53689 -4.13569 0
M  V30 3952 C 382.588 -4.70923 -4.03276 0
M  V30 3953 C 384.643 -3.41432 -3.62393 0
M  V30 3954 C 383.346 -5.89914 -4.11574 0
M  V30 3955 C 385.372 -4.59793 -3.71947 0
M  V30 3956 C 384.734 -5.82489 -3.96088 0
M  V30 3957 H 380.833 -0.295589 -0.723983 0
M  V30 3958 H 383.417 -1.26413 -1.4808 0
M  V30 3959 H 381.588 -0.432655 -3.85983 0
M  V30 3960 H 383.32 -0.63927 -3.99619 0
M  V30 3961 H 380.075 -2.65702 -3.92045 0
M  V30 3962 H 380.499 -5.25492 -4.26834 0
M  V30 3963 H 385.141 -2.47594 -3.4272 0
M  V30 3964 H 382.859 -6.84164 -4.30053 0
M  V30 3965 H 386.445 -4.57048 -3.59998 0
M  V30 3966 H 385.325 -6.72546 -4.033 0
M  V30 3967 N 382.828 1.3818 -0.7579 0
M  V30 3968 C 383.791 2.28764 -0.141286 0
M  V30 3969 C 384.791 1.47388 0.642907 0
M  V30 3970 O 385.981 1.67781 0.468536 0
M  V30 3971 C 383.113 3.31184 0.808069 0
M  V30 3972 H 384.306 2.848 -0.939633 0
M  V30 3973 H 381.859 1.47212 -0.525191 0
M  V30 3974 H 382.594 2.80247 1.63193 0
M  V30 3975 H 382.379 3.91314 0.248104 0
M  V30 3976 H 383.869 3.98909 1.23536 0
M  V30 3977 N 384.306 0.507319 1.49211 0
M  V30 3978 C 385.552 -0.0350047 2.0277 0
M  V30 3979 C 385.885 -1.3606 1.38569 0
M  V30 3980 O 385.16 -1.87321 0.523542 0
M  V30 3981 C 385.443 -0.180916 3.59645 0
M  V30 3982 C 385.296 1.16825 4.34364 0
M  V30 3983 C 386.615 -0.918558 4.30407 0
M  V30 3984 H 383.734 -0.0112473 0.736914 0
M  V30 3985 H 386.376 0.659956 1.7817 0
M  V30 3986 H 384.526 -0.772826 3.80736 0
M  V30 3987 H 386.198 1.79952 4.24753 0
M  V30 3988 H 384.441 1.75594 3.96673 0
M  V30 3989 H 385.112 1.01939 5.42506 0
M  V30 3990 H 387.588 -0.41649 4.1401 0
M  V30 3991 H 386.464 -0.989505 5.39907 0
M  V30 3992 H 386.725 -1.96373 3.96093 0
M  V30 3993 N 385.784 -1.5574 0.241426 0
M  V30 3994 C 387.2 -1.59196 -0.113548 0
M  V30 3995 C 387.4 -1.25852 -1.57364 0
M  V30 3996 O 386.456 -1.00322 -2.31715 0
M  V30 3997 C 387.769 -2.99814 0.230695 0
M  V30 3998 C 389.317 -3.12513 0.174547 0
M  V30 3999 C 389.792 -4.55342 0.492744 0
M  V30 4000 N 391.283 -4.61076 0.443043 0
M  V30 4001 C 392.018 -5.6956 0.662484 0
M  V30 4002 N 391.514 -6.86328 0.944761 0
M  V30 4003 N 393.307 -5.58957 0.593564 0
M  V30 4004 H 385.458 -1.75685 1.19368 0
M  V30 4005 H 387.721 -0.81756 0.479896 0
M  V30 4006 H 387.427 -3.28932 1.24485 0
M  V30 4007 H 387.301 -3.74568 -0.444833 0
M  V30 4008 H 389.688 -2.83179 -0.830277 0
M  V30 4009 H 389.769 -2.40045 0.883845 0
M  V30 4010 H 389.413 -4.85396 1.4951 0
M  V30 4011 H 389.343 -5.26062 -0.23797 0
M  V30 4012 H 391.834 -3.77179 0.233374 0
M  V30 4013 H 392.147 -7.64935 1.09977 0
M  V30 4014 H 390.492 -6.88025 0.982175 0
M  V30 4015 H 393.683 -4.66611 0.373123 0
M  V30 4016 H 393.856 -6.43433 0.767981 0
M  V30 4017 N 387.262 0.0317525 -1.57568 0
M  V30 4018 C 388.212 1.04101 -2.02847 0
M  V30 4019 C 389.196 1.3219 -0.917317 0
M  V30 4020 O 390.388 1.31819 -1.18121 0
M  V30 4021 C 387.517 2.34295 -2.5092 0
M  V30 4022 C 386.603 2.09308 -3.68851 0
M  V30 4023 N 386.994 1.5437 -4.81667 0
M  V30 4024 C 385.292 2.39604 -3.76172 0
M  V30 4025 C 385.993 1.45126 -5.63306 0
M  V30 4026 N 384.969 1.92589 -5.08341 0
M  V30 4027 H 388.771 0.610217 -2.87495 0
M  V30 4028 H 386.285 0.238108 -1.60645 0
M  V30 4029 H 388.282 3.07404 -2.81617 0
M  V30 4030 H 386.942 2.78055 -1.67677 0
M  V30 4031 H 387.953 1.22678 -5.03161 0
M  V30 4032 H 384.63 2.86457 -3.03724 0
M  V30 4033 H 386.02 1.03163 -6.63933 0
M  V30 4034 N 388.74 1.54641 0.303973 0
M  V30 4035 C 389.987 1.7378 1.03955 0
M  V30 4036 C 390.315 0.521986 1.87365 0
M  V30 4037 O 389.57 -0.496099 1.89308 0
M  V30 4038 C 389.869 2.97753 1.97681 0
M  V30 4039 C 389.535 4.31671 1.30271 0
M  V30 4040 C 388.197 4.68075 1.11619 0
M  V30 4041 C 390.549 5.147 0.82055 0
M  V30 4042 C 387.877 5.8509 0.434304 0
M  V30 4043 C 390.229 6.32416 0.152395 0
M  V30 4044 C 388.893 6.67484 -0.0461067 0
M  V30 4045 H 388.163 0.635908 0.380398 0
M  V30 4046 H 390.81 1.88896 0.314718 0
M  V30 4047 H 389.115 2.77406 2.76682 0
M  V30 4048 H 390.812 3.09756 2.54661 0
M  V30 4049 H 387.402 4.03041 1.45795 0
M  V30 4050 H 391.586 4.87077 0.952374 0
M  V30 4051 H 386.842 6.10806 0.269495 0
M  V30 4052 H 391.016 6.96023 -0.229126 0
M  V30 4053 H 388.643 7.58011 -0.576494 0
M  V30 4054 N 390.218 -0.567019 1.47046 0
M  V30 4055 C 391.467 -1.32091 1.5243 0
M  V30 4056 C 391.78 -1.94704 0.187021 0
M  V30 4057 O 392.986 -2.7124 0.118771 0
M  V30 4058 C 391.442 -2.39479 2.68659 0
M  V30 4059 C 391.05 -1.831 4.08874 0
M  V30 4060 C 392.794 -3.16111 2.83327 0
M  V30 4061 C 390.701 -2.8821 5.16419 0
M  V30 4062 H 389.631 -0.496629 0.56734 0
M  V30 4063 H 392.282 -0.603354 1.73297 0
M  V30 4064 H 390.664 -3.14105 2.41152 0
M  V30 4065 H 391.838 -1.14913 4.46242 0
M  V30 4066 H 390.153 -1.19085 3.99008 0
M  V30 4067 H 392.75 -3.94585 3.60842 0
M  V30 4068 H 393.093 -3.69686 1.91411 0
M  V30 4069 H 393.626 -2.48595 3.10556 0
M  V30 4070 H 390.365 -2.39504 6.10179 0
M  V30 4071 H 389.885 -3.54839 4.8358 0
M  V30 4072 H 391.564 -3.51881 5.42945 0
M  V30 4073 N 391.696 -1.35014 -0.812953 0
M  V30 4074 C 392.606 -1.2951 -1.95613 0
M  V30 4075 C 393.622 -0.20107 -1.72834 0
M  V30 4076 O 394.798 -0.42932 -1.96771 0
M  V30 4077 C 391.863 -1.06033 -3.30088 0
M  V30 4078 C 390.924 -2.24688 -3.65805 0
M  V30 4079 C 390.157 -2.02322 -4.93864 0
M  V30 4080 O 390.38 -0.986464 -5.61805 0
M  V30 4081 O 389.314 -2.89525 -5.27692 0
M  V30 4082 H 393.14 -2.25705 -2.03202 0
M  V30 4083 H 390.725 -1.15321 -0.949811 0
M  V30 4084 H 392.607 -0.94763 -4.10607 0
M  V30 4085 H 391.282 -0.128852 -3.23443 0
M  V30 4086 H 390.189 -2.41521 -2.85689 0
M  V30 4087 H 391.522 -3.16261 -3.77147 0
M  V30 4088 N 393.175 1.03435 -1.18907 0
M  V30 4089 C 394.107 2.1165 -0.879595 0
M  V30 4090 C 395.12 1.62316 0.125439 0
M  V30 4091 O 396.309 1.78201 -0.103245 0
M  V30 4092 C 393.409 3.37622 -0.294042 0
M  V30 4093 C 392.582 4.16166 -1.34629 0
M  V30 4094 C 391.641 5.20457 -0.775274 0
M  V30 4095 O 390.667 5.50379 -1.4516 0
M  V30 4096 N 391.869 5.78949 0.424126 0
M  V30 4097 H 394.634 2.38791 -1.81105 0
M  V30 4098 H 392.195 1.19681 -1.09032 0
M  V30 4099 H 394.187 4.04572 0.101679 0
M  V30 4100 H 392.757 3.07873 0.541575 0
M  V30 4101 H 391.977 3.44444 -1.91707 0
M  V30 4102 H 393.265 4.65432 -2.05549 0
M  V30 4103 H 392.663 5.56948 0.991209 0
M  V30 4104 H 391.22 6.47334 0.761691 0
M  V30 4105 N 394.653 0.992116 1.22453 0
M  V30 4106 C 395.901 0.666215 1.90804 0
M  V30 4107 C 396.222 -0.804152 1.77647 0
M  V30 4108 O 395.492 -1.57629 1.16318 0
M  V30 4109 H 394.072 0.243423 0.706225 0
M  V30 4110 H 396.734 1.25845 1.48825 0
M  V30 4111 H 395.83 0.928069 2.97982 0
M  V30 4112 N 396.131 -1.37776 0.765217 0
M  V30 4113 C 397.38 -1.99092 0.323307 0
M  V30 4114 C 397.693 -1.61434 -1.10446 0
M  V30 4115 O 398.899 -2.15805 -1.64743 0
M  V30 4116 C 397.355 -3.56019 0.527098 0
M  V30 4117 C 396.963 -4.0262 1.96471 0
M  V30 4118 C 398.707 -4.2424 0.148483 0
M  V30 4119 C 396.614 -5.52233 2.11644 0
M  V30 4120 H 395.544 -0.744846 0.117137 0
M  V30 4121 H 398.195 -1.57391 0.943417 0
M  V30 4122 H 396.577 -3.95667 -0.162372 0
M  V30 4123 H 397.751 -3.74234 2.68859 0
M  V30 4124 H 396.066 -3.47161 2.29931 0
M  V30 4125 H 398.663 -5.34159 0.240456 0
M  V30 4126 H 399.006 -4.06446 -0.900422 0
M  V30 4127 H 399.539 -3.89872 0.79025 0
M  V30 4128 H 396.278 -5.74945 3.1483 0
M  V30 4129 H 395.798 -5.82324 1.4373 0
M  V30 4130 H 397.477 -6.18106 1.91193 0
M  V30 4131 N 397.609 -0.515225 -1.4894 0
M  V30 4132 C 398.557 0.269115 -2.31038 0
M  V30 4133 C 399.551 0.949443 -1.40292 0
M  V30 4134 O 400.757 0.87551 -1.57273 0
M  V30 4135 H 397.132 0.10565 -0.744542 0
M  V30 4136 H 399.103 -0.443096 -2.95092 0
M  V30 4137 C 397.852 1.31213 -3.21991 0
M  V30 4138 H 397.175 0.798034 -3.91754 0
M  V30 4139 H 398.615 1.83263 -3.82349 0
M  V30 4140 C 397.074 2.33791 -2.42576 0
M  V30 4141 O 397.604 3.3995 -2.14003 0
M  V30 4142 N 395.81 2.06625 -2.0434 0
M  V30 4143 H 395.357 1.20314 -2.27777 0
M  V30 4144 H 395.315 2.75483 -1.51514 0
M  V30 4145 N 399.087 1.5561 -0.249682 0
M  V30 4146 C 400.333 1.99306 0.374841 0
M  V30 4147 C 400.666 1.13767 1.57387 0
M  V30 4148 O 399.941 0.201711 1.93451 0
M  V30 4149 C 400.224 3.51507 0.781986 0
M  V30 4150 C 400.077 4.4781 -0.422629 0
M  V30 4151 C 401.396 4.08884 1.62793 0
M  V30 4152 H 398.515 0.724572 0.134773 0
M  V30 4153 H 401.157 1.86719 -0.351549 0
M  V30 4154 H 399.307 3.62363 1.4009 0
M  V30 4155 H 400.979 4.48931 -1.06108 0
M  V30 4156 H 399.222 4.20518 -1.06524 0
M  V30 4157 H 399.893 5.51919 -0.0943766 0
M  V30 4158 H 402.369 4.01147 1.10547 0
M  V30 4159 H 401.245 5.1564 1.88166 0
M  V30 4160 H 401.506 3.57515 2.60068 0
M  V30 4161 N 400.565 -0.0233959 1.57583 0
M  V30 4162 C 401.805 -0.71784 1.9138 0
M  V30 4163 C 402.169 -1.72216 0.848853 0
M  V30 4164 O 403.37 -2.46527 1.07134 0
M  V30 4165 C 401.641 -1.36489 3.30311 0
M  V30 4166 S 403.2 -2.0877 3.85954 0
M  V30 4167 H 400.018 -0.237676 0.670098 0
M  V30 4168 H 402.62 0.0276709 1.9548 0
M  V30 4169 H 401.324 -0.620782 4.05678 0
M  V30 4170 H 400.855 -2.14883 3.29528 0
M  V30 4171 H 402.87 -3.35988 3.65139 0
M  V30 4172 N 402.043 -1.548 -0.295768 0
M  V30 4173 C 402.973 -1.89115 -1.36959 0
M  V30 4174 C 403.954 -0.75059 -1.52644 0
M  V30 4175 O 405.139 -1.00678 -1.66065 0
M  V30 4176 C 402.269 -2.14307 -2.73295 0
M  V30 4177 C 401.223 -3.30151 -2.72368 0
M  V30 4178 C 400.549 -3.40772 -4.12042 0
M  V30 4179 C 401.849 -4.67126 -2.33646 0
M  V30 4180 H 403.543 -2.79053 -1.08488 0
M  V30 4181 H 401.089 -1.34266 -0.520443 0
M  V30 4182 H 403.042 -2.36898 -3.48507 0
M  V30 4183 H 401.766 -1.21145 -3.03301 0
M  V30 4184 H 400.425 -3.0749 -1.99613 0
M  V30 4185 H 400.073 -2.45117 -4.39234 0
M  V30 4186 H 399.773 -4.18645 -4.12322 0
M  V30 4187 H 401.297 -3.6563 -4.89027 0
M  V30 4188 H 402.711 -4.89414 -2.98575 0
M  V30 4189 H 401.108 -5.47751 -2.45129 0
M  V30 4190 H 402.178 -4.67489 -1.28772 0
M  V30 4191 N 403.521 0.559213 -1.47345 0
M  V30 4192 C 404.761 1.32728 -1.55444 0
M  V30 4193 C 405.125 1.90838 -0.210895 0
M  V30 4194 O 406.326 2.68282 -0.166719 0
M  V30 4195 C 404.597 2.4092 -2.63993 0
M  V30 4196 S 406.156 3.2784 -2.91661 0
M  V30 4197 H 402.974 0.451883 -0.548929 0
M  V30 4198 H 405.576 0.640404 -1.84714 0
M  V30 4199 H 404.28 1.9666 -3.60212 0
M  V30 4200 H 403.811 3.14351 -2.36531 0
M  V30 4201 H 405.826 4.40341 -2.28722 0
M  V30 4202 N 404.999 1.35443 0.805782 0
M  V30 4203 C 405.931 1.24285 1.92577 0
M  V30 4204 C 406.944 0.165962 1.61952 0
M  V30 4205 O 408.133 0.419303 1.73505 0
M  V30 4206 C 405.233 0.891272 3.2697 0
M  V30 4207 C 404.406 2.06669 3.85495 0
M  V30 4208 C 403.465 1.69077 4.98297 0
M  V30 4209 O 402.491 2.4096 5.15681 0
M  V30 4210 N 403.693 0.614869 5.77234 0
M  V30 4211 H 406.458 2.20777 2.02676 0
M  V30 4212 H 404.019 1.28623 0.983243 0
M  V30 4213 H 406.011 0.621256 3.99903 0
M  V30 4214 H 404.581 0.016004 3.12596 0
M  V30 4215 H 403.801 2.50046 3.04747 0
M  V30 4216 H 405.089 2.85237 4.21328 0
M  V30 4217 H 404.487 0.017648 5.65697 0
M  V30 4218 H 403.044 0.404636 6.50543 0
M  V30 4219 N 406.477 -1.02803 1.19454 0
M  V30 4220 C 407.702 -1.80378 1.02364 0
M  V30 4221 C 408.127 -1.83282 -0.423007 0
M  V30 4222 O 407.485 -1.25945 -1.30413 0
M  V30 4223 C 407.533 -3.23248 1.59821 0
M  V30 4224 O 406.637 -4.04 0.828105 0
M  V30 4225 H 405.978 -0.556799 0.361761 0
M  V30 4226 H 408.508 -1.29385 1.58495 0
M  V30 4227 H 408.518 -3.73994 1.63073 0
M  V30 4228 H 407.193 -3.2045 2.65113 0
M  V30 4229 H 405.77 -3.62635 0.86891 0
M  V30 4230 N 407.956 -0.998596 -1.21925 0
M  V30 4231 C 409.186 -0.695276 -1.94549 0
M  V30 4232 C 409.594 0.745079 -1.73911 0
M  V30 4233 O 408.937 1.51507 -1.03881 0
M  V30 4234 C 408.999 -0.928485 -3.47303 0
M  V30 4235 C 408.663 -2.35443 -3.91683 0
M  V30 4236 C 409.66 -3.33428 -3.98901 0
M  V30 4237 C 407.345 -2.69038 -4.24174 0
M  V30 4238 C 409.339 -4.63079 -4.37992 0
M  V30 4239 C 407.026 -3.98906 -4.62944 0
M  V30 4240 C 408.024 -4.95738 -4.69822 0
M  V30 4241 O 407.712 -6.23285 -5.07711 0
M  V30 4242 H 407.444 -0.255902 -0.625692 0
M  V30 4243 H 409.998 -1.33767 -1.5587 0
M  V30 4244 H 408.228 -0.228917 -3.86022 0
M  V30 4245 H 409.917 -0.619539 -4.01144 0
M  V30 4246 H 410.683 -3.08807 -3.73983 0
M  V30 4247 H 406.562 -1.94367 -4.18022 0
M  V30 4248 H 410.106 -5.38658 -4.43275 0
M  V30 4249 H 406.003 -4.23314 -4.87314 0
M  V30 4250 H 406.771 -6.27306 -5.25766 0
M  V30 4251 N 409.434 1.37368 -0.772513 0
M  V30 4252 C 410.397 2.28601 -0.165541 0
M  V30 4253 C 411.397 1.48062 0.627238 0
M  V30 4254 O 412.587 1.68268 0.450715 0
M  V30 4255 C 409.719 3.32023 0.772897 0
M  V30 4256 H 410.912 2.83787 -0.969787 0
M  V30 4257 H 408.465 1.46647 -0.540775 0
M  V30 4258 H 409.2 2.81962 1.60212 0
M  V30 4259 H 408.985 3.91555 0.206585 0
M  V30 4260 H 410.475 4.00197 1.19298 0
M  V30 4261 N 410.912 0.523116 1.48665 0
M  V30 4262 C 411.859 -0.243398 2.29513 0
M  V30 4263 C 412.829 -0.940139 1.36933 0
M  V30 4264 O 414.014 -0.942503 1.65896 0
M  V30 4265 C 411.154 -1.28855 3.20141 0
M  V30 4266 C 410.267 -0.60135 4.27794 0
M  V30 4267 C 409.402 -1.62884 5.05611 0
M  V30 4268 C 408.441 -0.924726 6.05075 0
M  V30 4269 N 407.578 -1.89744 6.75975 0
M  V30 4270 H 412.418 0.452234 2.94549 0
M  V30 4271 H 409.955 0.234858 1.45213 0
M  V30 4272 H 411.913 -1.90674 3.71079 0
M  V30 4273 H 410.543 -1.95266 2.57043 0
M  V30 4274 H 409.595 0.130623 3.80176 0
M  V30 4275 H 410.907 -0.0481585 4.98777 0
M  V30 4276 H 410.061 -2.32149 5.60528 0
M  V30 4277 H 408.8 -2.21592 4.34452 0
M  V30 4278 H 407.805 -0.217966 5.49368 0
M  V30 4279 H 409.03 -0.343851 6.78229 0
M  V30 4280 H 406.976 -2.47373 6.07571 0
M  V30 4281 H 406.893 -1.3955 7.43009 0
M  V30 4282 H 408.161 -2.58229 7.35485 0
M  V30 4283 N 412.39 -1.55475 0.257931 0
M  V30 4284 C 413.338 -2.23244 -0.653076 0
M  V30 4285 C 414.332 -1.22366 -1.17144 0
M  V30 4286 O 415.538 -1.40347 -1.12706 0
M  V30 4287 H 411.913 -0.716247 -0.229117 0
M  V30 4288 H 413.884 -2.98343 -0.0584788 0
M  V30 4289 C 412.633 -2.95401 -1.83395 0
M  V30 4290 H 411.956 -3.72802 -1.44424 0
M  V30 4291 H 413.396 -3.46165 -2.44838 0
M  V30 4292 C 411.855 -1.99895 -2.71189 0
M  V30 4293 O 412.385 -1.53909 -3.71046 0
M  V30 4294 N 410.591 -1.6676 -2.3799 0
M  V30 4295 H 410.138 -2.04352 -1.56837 0
M  V30 4296 H 410.096 -1.03127 -2.97005 0
M  V30 4297 N 413.868 0.0150385 -1.57593 0
M  V30 4298 C 414.801 1.04475 -2.0288 0
M  V30 4299 C 415.779 1.3436 -0.915764 0
M  V30 4300 O 416.963 1.46779 -1.18271 0
M  V30 4301 C 414.09 2.37608 -2.41371 0
M  V30 4302 C 413.136 2.23487 -3.63257 0
M  V30 4303 S 413.969 1.57505 -5.11813 0
M  V30 4304 C 415.125 2.921 -5.5356 0
M  V30 4305 H 415.358 0.65907 -2.89903 0
M  V30 4306 H 412.891 0.225452 -1.52745 0
M  V30 4307 H 414.849 3.14165 -2.64217 0
M  V30 4308 H 413.51 2.7332 -1.54775 0
M  V30 4309 H 412.703 3.21802 -3.87891 0
M  V30 4310 H 412.305 1.55074 -3.40335 0
M  V30 4311 H 414.597 3.88419 -5.55101 0
M  V30 4312 H 415.54 2.72184 -6.53698 0
M  V30 4313 H 415.948 2.95318 -4.8109 0
M  V30 4314 N 415.346 1.54954 0.287554 0
M  V30 4315 C 416.594 1.74528 1.01904 0
M  V30 4316 C 416.915 0.541349 1.87335 0
M  V30 4317 O 416.185 -0.444108 1.908 0
M  V30 4318 H 414.765 0.643576 0.379235 0
M  V30 4319 H 417.427 1.92333 0.315294 0
M  V30 4320 H 416.523 2.64015 1.6644 0
M  V30 4321 N 416.824 -0.551391 1.4764 0
M  V30 4322 C 417.754 -1.66757 1.63445 0
M  V30 4323 C 418.735 -1.63077 0.483742 0
M  V30 4324 O 419.92 -1.80607 0.71377 0
M  V30 4325 C 417.05 -3.05387 1.65396 0
M  V30 4326 C 416.004 -3.23918 2.79752 0
M  V30 4327 C 415.33 -4.63393 2.66779 0
M  V30 4328 C 416.63 -3.08735 4.21284 0
M  V30 4329 H 418.324 -1.53786 2.56886 0
M  V30 4330 H 415.87 -0.738415 1.23626 0
M  V30 4331 H 417.823 -3.83325 1.75043 0
M  V30 4332 H 416.547 -3.19332 0.685195 0
M  V30 4333 H 415.206 -2.48391 2.69625 0
M  V30 4334 H 414.854 -4.74144 1.67918 0
M  V30 4335 H 414.554 -4.7674 3.43501 0
M  V30 4336 H 416.078 -5.43458 2.78364 0
M  V30 4337 H 417.492 -3.76484 4.32357 0
M  V30 4338 H 415.889 -3.33588 4.98838 0
M  V30 4339 H 416.959 -2.0541 4.39243 0
M  V30 4340 N 418.302 -1.35869 -0.798587 0
M  V30 4341 C 419.532 -1.32529 -1.58491 0
M  V30 4342 C 419.94 0.0975405 -1.88948 0
M  V30 4343 O 419.283 1.06224 -1.49874 0
M  V30 4344 C 419.345 -2.07247 -2.9375 0
M  V30 4345 C 419.009 -3.56391 -2.86068 0
M  V30 4346 C 420.006 -4.50824 -2.58947 0
M  V30 4347 C 417.691 -3.9915 -3.04933 0
M  V30 4348 C 419.685 -5.85993 -2.5078 0
M  V30 4349 C 417.372 -5.34413 -2.96389 0
M  V30 4350 C 418.37 -6.27646 -2.69349 0
M  V30 4351 O 418.058 -7.60426 -2.60782 0
M  V30 4352 H 417.79 -0.456529 -0.498556 0
M  V30 4353 H 420.344 -1.79425 -0.999799 0
M  V30 4354 H 418.574 -1.55001 -3.54276 0
M  V30 4355 H 420.263 -1.96883 -3.54954 0
M  V30 4356 H 421.029 -4.19104 -2.44084 0
M  V30 4357 H 416.908 -3.26961 -3.24989 0
M  V30 4358 H 420.452 -6.58735 -2.29595 0
M  V30 4359 H 416.349 -5.65743 -3.10813 0
M  V30 4360 H 417.117 -7.70444 -2.76331 0
M  V30 4361 N 419.78 1.02168 -1.19998 0
M  V30 4362 C 421.028 1.75338 -1.00504 0
M  V30 4363 C 421.349 1.89387 0.464506 0
M  V30 4364 O 420.619 1.43268 1.33608 0
M  V30 4365 H 419.199 0.649564 -0.368885 0
M  V30 4366 H 421.861 1.23205 -1.51018 0
M  V30 4367 H 420.957 2.75892 -1.45912 0
M  V30 4368 N 421.258 1.00505 1.21394 0
M  V30 4369 C 422.168 0.574806 2.27449 0
M  V30 4370 C 423.184 -0.382206 1.6975 0
M  V30 4371 O 424.36 -0.246027 1.99892 0
M  V30 4372 C 421.425 -0.0917414 3.46579 0
M  V30 4373 C 420.486 0.909758 4.1955 0
M  V30 4374 C 419.719 0.274924 5.32991 0
M  V30 4375 O 419.942 -0.928254 5.62796 0
M  V30 4376 O 418.876 0.985877 5.93771 0
M  V30 4377 H 422.702 1.45744 2.66444 0
M  V30 4378 H 420.287 0.773923 1.27792 0
M  V30 4379 H 422.169 -0.464551 4.18832 0
M  V30 4380 H 420.844 -0.948755 3.09484 0
M  V30 4381 H 419.751 1.33372 3.49518 0
M  V30 4382 H 421.084 1.73636 4.60555 0
M  V30 4383 N 422.737 -1.36956 0.779787 0
M  V30 4384 C 424.153 -1.52817 0.460342 0
M  V30 4385 C 424.353 -1.7361 -1.02283 0
M  V30 4386 O 423.409 -1.76207 -1.80852 0
M  V30 4387 C 424.722 -2.71983 1.28241 0
M  V30 4388 C 426.27 -2.85849 1.27512 0
M  V30 4389 C 426.745 -4.08008 2.08072 0
M  V30 4390 N 428.236 -4.15135 2.05467 0
M  V30 4391 C 428.971 -5.08711 2.64577 0
M  V30 4392 N 428.467 -6.07792 3.32506 0
M  V30 4393 N 430.26 -5.01254 2.54363 0
M  V30 4394 H 422.411 -1.21713 1.74068 0
M  V30 4395 H 424.674 -0.593294 0.739396 0
M  V30 4396 H 424.38 -2.63109 2.33381 0
M  V30 4397 H 424.254 -3.65882 0.917088 0
M  V30 4398 H 426.641 -2.94189 0.231686 0
M  V30 4399 H 426.722 -1.92886 1.68014 0
M  V30 4400 H 426.366 -4.00429 3.12441 0
M  V30 4401 H 426.296 -5.001 1.64947 0
M  V30 4402 H 428.787 -3.44189 1.5602 0
M  V30 4403 H 429.1 -6.75739 3.74963 0
M  V30 4404 H 427.445 -6.08047 3.36606 0
M  V30 4405 H 430.636 -4.22795 2.00902 0
M  V30 4406 H 430.809 -5.73995 3.00722 0
M  V30 4407 N 424.215 -0.530993 -1.48385 0
M  V30 4408 C 425.461 0.00274135 -2.028 0
M  V30 4409 C 425.794 1.33838 -1.40716 0
M  V30 4410 O 425.069 1.86465 -0.553277 0
M  V30 4411 C 425.352 0.123676 -3.59888 0
M  V30 4412 C 425.205 -1.2372 -4.3245 0
M  V30 4413 C 426.524 0.849967 -4.31814 0
M  V30 4414 H 423.643 -0.000477758 -0.737 0
M  V30 4415 H 426.285 -0.688217 -1.77098 0
M  V30 4416 H 424.435 0.712157 -3.81917 0
M  V30 4417 H 426.107 -1.86687 -4.21836 0
M  V30 4418 H 424.35 -1.81882 -3.93829 0
M  V30 4419 H 425.021 -1.10557 -5.40815 0
M  V30 4420 H 427.497 0.350572 -4.14621 0
M  V30 4421 H 426.373 0.903486 -5.41413 0
M  V30 4422 H 426.634 1.90047 -3.99167 0
M  V30 4423 N 425.693 1.55336 -0.266172 0
M  V30 4424 C 426.941 1.99003 0.35246 0
M  V30 4425 C 427.262 1.15591 1.57047 0
M  V30 4426 O 426.532 0.243268 1.94384 0
M  V30 4427 H 425.112 0.735025 0.133217 0
M  V30 4428 H 427.774 1.91367 -0.369434 0
M  V30 4429 H 426.87 3.05289 0.648453 0
M  V30 4430 N 427.171 -0.0066808 1.57599 0
M  V30 4431 C 428.134 -0.985035 2.06953 0
M  V30 4432 C 429.134 -1.27663 0.977687 0
M  V30 4433 O 430.324 -1.22293 1.24057 0
M  V30 4434 C 427.456 -2.3118 2.50536 0
M  V30 4435 H 428.649 -0.558255 2.94658 0
M  V30 4436 H 426.202 -0.254011 1.54222 0
M  V30 4437 H 426.937 -2.78561 1.66054 0
M  V30 4438 H 426.722 -2.11338 3.3027 0
M  V30 4439 H 428.212 -3.01377 2.8907 0
M  V30 4440 N 428.649 -1.55105 -0.279332 0
M  V30 4441 C 429.896 -1.75412 -1.01177 0
M  V30 4442 C 430.224 -0.551728 -1.86511 0
M  V30 4443 O 429.479 0.465919 -1.90073 0
M  V30 4444 C 429.778 -3.0086 -1.92919 0
M  V30 4445 C 429.444 -4.33689 -1.23387 0
M  V30 4446 C 428.106 -4.69792 -1.04159 0
M  V30 4447 C 430.458 -5.15941 -0.738562 0
M  V30 4448 C 427.786 -5.85707 -0.341166 0
M  V30 4449 C 430.138 -6.32579 -0.0517636 0
M  V30 4450 C 428.802 -6.67326 0.152292 0
M  V30 4451 H 428.072 -0.641879 -0.370233 0
M  V30 4452 H 430.719 -1.89373 -0.284627 0
M  V30 4453 H 429.024 -2.81773 -2.72234 0
M  V30 4454 H 430.721 -3.13768 -2.49701 0
M  V30 4455 H 427.311 -4.05309 -1.39364 0
M  V30 4456 H 431.495 -4.8853 -0.874764 0
M  V30 4457 H 426.751 -6.11157 -0.172287 0
M  V30 4458 H 430.925 -6.9557 0.339828 0
M  V30 4459 H 428.552 -7.56998 0.697014 0
M  V30 4460 N 430.127 0.543554 -1.4793 0
M  V30 4461 C 431.355 1.32516 -1.58894 0
M  V30 4462 C 431.77 1.87215 -0.244131 0
M  V30 4463 O 431.127 1.65709 0.764652 0
M  V30 4464 C 431.178 2.48554 -2.62494 0
M  V30 4465 O 430.899 1.96112 -3.91755 0
M  V30 4466 C 432.4 3.40572 -2.8377 0
M  V30 4467 H 429.62 0.403472 -0.536145 0
M  V30 4468 H 432.164 0.657106 -1.93655 0
M  V30 4469 H 430.319 3.1127 -2.30629 0
M  V30 4470 H 430.733 2.71967 -4.4848 0
M  V30 4471 H 432.207 4.18375 -3.60093 0
M  V30 4472 H 432.684 3.94965 -1.92092 0
M  V30 4473 H 433.29 2.8366 -3.16887 0
M  V30 4474 N 431.605 1.3629 0.791371 0
M  V30 4475 C 432.538 1.24816 1.9104 0
M  V30 4476 C 433.516 0.132739 1.62057 0
M  V30 4477 O 434.7 0.303527 1.8604 0
M  V30 4478 C 431.827 0.925355 3.25814 0
M  V30 4479 C 430.873 2.05495 3.7373 0
M  V30 4480 S 431.706 3.67255 3.89723 0
M  V30 4481 C 432.862 3.37084 5.27376 0
M  V30 4482 H 433.095 2.19533 2.00481 0
M  V30 4483 H 430.628 1.21684 0.950393 0
M  V30 4484 H 432.586 0.745924 4.03666 0
M  V30 4485 H 431.247 -0.00400098 3.141 0
M  V30 4486 H 430.44 1.7836 4.71385 0
M  V30 4487 H 430.042 2.1935 3.02922 0
M  V30 4488 H 432.334 2.90856 6.1189 0
M  V30 4489 H 433.277 4.33995 5.59512 0
M  V30 4490 H 433.685 2.7248 4.94383 0
M  V30 4491 N 433.083 -1.0153 1.20538 0
M  V30 4492 C 434.329 -1.75408 1.01783 0
M  V30 4493 C 434.662 -1.88943 -0.448814 0
M  V30 4494 O 433.937 -1.4162 -1.33319 0
M  V30 4495 C 434.22 -3.17255 1.70356 0
M  V30 4496 C 434.073 -3.11508 3.24473 0
M  V30 4497 C 435.392 -4.15955 1.43769 0
M  V30 4498 H 432.511 -0.636713 0.371167 0
M  V30 4499 H 435.153 -1.18436 1.4857 0
M  V30 4500 H 433.303 -3.65898 1.30578 0
M  V30 4501 H 434.975 -2.70658 3.73553 0
M  V30 4502 H 433.218 -2.4887 3.55311 0
M  V30 4503 H 433.889 -4.11784 3.67611 0
M  V30 4504 H 436.365 -3.75973 1.7828 0
M  V30 4505 H 435.241 -5.13368 1.94279 0
M  V30 4506 H 435.502 -4.40586 0.365564 0
M  V30 4507 N 434.561 -1.01147 -1.20859 0
M  V30 4508 C 435.801 -0.706331 -1.91808 0
M  V30 4509 C 436.165 0.749736 -1.76757 0
M  V30 4510 O 437.366 1.16716 -2.42138 0
M  V30 4511 C 435.637 -1.12371 -3.39275 0
M  V30 4512 S 437.196 -0.939764 -4.28619 0
M  V30 4513 H 434.014 -0.257665 -0.662669 0
M  V30 4514 H 436.616 -1.29766 -1.46223 0
M  V30 4515 H 435.32 -2.17943 -3.47749 0
M  V30 4516 H 434.851 -0.524952 -3.89882 0
M  V30 4517 H 436.866 0.159556 -4.95943 0
M  V30 4518 N 436.039 1.36541 -0.78704 0
M  V30 4519 C 436.986 2.30082 -0.181901 0
M  V30 4520 C 437.956 1.5186 0.672896 0
M  V30 4521 O 439.141 1.80374 0.622072 0
M  V30 4522 C 436.281 3.3835 0.679197 0
M  V30 4523 C 435.394 4.31565 -0.193882 0
M  V30 4524 C 434.529 5.26915 0.673364 0
M  V30 4525 C 433.568 6.11769 -0.201315 0
M  V30 4526 N 432.705 6.99315 0.624777 0
M  V30 4527 H 437.545 2.81248 -0.985064 0
M  V30 4528 H 435.082 1.38437 -0.497342 0
M  V30 4529 H 437.04 3.99767 1.19341 0
M  V30 4530 H 435.67 2.8851 1.44781 0
M  V30 4531 H 434.722 3.71323 -0.826044 0
M  V30 4532 H 436.034 4.91191 -0.867937 0
M  V30 4533 H 435.188 5.9361 1.25348 0
M  V30 4534 H 433.927 4.67737 1.38105 0
M  V30 4535 H 432.932 5.44039 -0.793849 0
M  V30 4536 H 434.157 6.73022 -0.906568 0
M  V30 4537 H 432.103 6.42648 1.3168 0
M  V30 4538 H 432.02 7.56 0.00835237 0
M  V30 4539 H 433.288 7.70382 1.18879 0
M  V30 4540 N 437.518 0.538854 1.48102 0
M  V30 4541 C 438.795 -0.0568108 1.95517 0
M  V30 4542 C 439.175 -1.50408 1.48124 0
M  V30 4543 O 438.523 -2.17133 0.711727 0
M  V30 4544 C 438.733 0.0696262 3.48931 0
M  V30 4545 C 440.081 -0.0851202 4.24515 0
M  V30 4546 O 441.105 -0.0037347 3.562 0
M  V30 4547 O 439.964 -0.257025 5.45895 0
M  V30 4548 H 437.058 -0.0743695 0.823649 0
M  V30 4549 H 439.604 0.604081 1.58584 0
M  V30 4550 H 438.376 1.07744 3.76174 0
M  V30 4551 H 437.999 -0.629714 3.92582 0
M  V30 4552 N 438.996 -1.55193 0.274407 0
M  V30 4553 C 439.959 -2.212 -0.600279 0
M  V30 4554 C 440.959 -1.18963 -1.08187 0
M  V30 4555 O 442.149 -1.43873 -0.982158 0
M  V30 4556 C 439.281 -2.87739 -1.82809 0
M  V30 4557 H 440.474 -2.9989 -0.0239682 0
M  V30 4558 H 438.027 -1.5628 0.0250192 0
M  V30 4559 H 438.762 -2.13058 -2.44493 0
M  V30 4560 H 438.547 -3.62658 -1.49069 0
M  V30 4561 H 440.037 -3.38171 -2.45011 0
M  V30 4562 N 440.474 -0.00167713 -1.576 0
M  V30 4563 C 441.751 0.719951 -1.81868 0
M  V30 4564 C 442.131 1.91895 -0.879747 0
M  V30 4565 O 441.479 2.28389 0.0711423 0
M  V30 4566 C 441.689 1.12409 -3.30402 0
M  V30 4567 C 443.037 1.52724 -3.96182 0
M  V30 4568 O 444.061 1.21784 -3.34734 0
M  V30 4569 O 442.92 2.10265 -5.04431 0
M  V30 4570 H 440.014 0.350707 -0.748955 0
M  V30 4571 H 442.56 -0.0272597 -1.69678 0
M  V30 4572 H 441.332 0.269532 -3.90371 0
M  V30 4573 H 440.955 1.93035 -3.47596 0
M  V30 4574 N 441.952 1.55251 0.271103 0
M  V30 4575 C 442.862 1.9136 1.35714 0
M  V30 4576 C 443.878 0.811075 1.5394 0
M  V30 4577 O 445.054 1.11031 1.6803 0
M  V30 4578 C 442.119 2.1798 2.69603 0
M  V30 4579 C 441.18 3.4153 2.60107 0
M  V30 4580 C 440.413 3.66871 3.8761 0
M  V30 4581 O 440.636 2.94689 4.8838 0
M  V30 4582 O 439.57 4.60405 3.87699 0
M  V30 4583 H 443.396 2.83815 1.08088 0
M  V30 4584 H 440.981 1.41821 0.469792 0
M  V30 4585 H 442.863 2.36518 3.48765 0
M  V30 4586 H 441.538 1.28708 2.97012 0
M  V30 4587 H 440.445 3.28325 1.79314 0
M  V30 4588 H 441.778 4.31027 2.37647 0
M  V30 4589 N 443.43 -0.535701 1.48216 0
M  V30 4590 C 444.393 -1.623 1.61838 0
M  V30 4591 C 445.393 -1.53087 0.492024 0
M  V30 4592 O 446.583 -1.5686 0.757668 0
M  V30 4593 C 443.715 -3.01907 1.58319 0
M  V30 4594 H 444.908 -1.51564 2.58783 0
M  V30 4595 H 442.461 -0.757317 1.36727 0
M  V30 4596 H 443.196 -3.18155 0.628299 0
M  V30 4597 H 442.981 -3.10003 2.40085 0
M  V30 4598 H 444.471 -3.80969 1.71033 0
M  V30 4599 N 444.908 -1.36708 -0.784132 0
M  V30 4600 C 445.855 -1.31466 -1.89698 0
M  V30 4601 C 446.825 -0.18239 -1.65096 0
M  V30 4602 O 448.01 -0.369762 -1.87183 0
M  V30 4603 C 445.15 -1.1151 -3.26588 0
M  V30 4604 C 444.263 -2.33859 -3.63227 0
M  V30 4605 C 443.398 -2.06873 -4.89262 0
M  V30 4606 C 442.437 -3.25154 -5.18595 0
M  V30 4607 N 441.574 -2.978 -6.35814 0
M  V30 4608 H 446.414 -2.26619 -1.93515 0
M  V30 4609 H 443.951 -1.12625 -0.946256 0
M  V30 4610 H 445.909 -0.979653 -4.05535 0
M  V30 4611 H 444.539 -0.200103 -3.22179 0
M  V30 4612 H 443.591 -2.58188 -2.79362 0
M  V30 4613 H 444.903 -3.22109 -3.8085 0
M  V30 4614 H 444.057 -1.90289 -5.76086 0
M  V30 4615 H 442.796 -1.15942 -4.73718 0
M  V30 4616 H 441.801 -3.42292 -4.30251 0
M  V30 4617 H 443.026 -4.1692 -5.36055 0
M  V30 4618 H 440.972 -2.09485 -6.21653 0
M  V30 4619 H 440.889 -3.7959 -6.53794 0
M  V30 4620 H 442.157 -2.84805 -7.25607 0
M  V30 4621 N 446.386 1.0089 -1.21074 0
M  V30 4622 C 447.802 1.2695 -0.967257 0
M  V30 4623 C 448.002 1.9846 0.348673 0
M  V30 4624 O 447.058 2.28459 1.0753 0
M  V30 4625 C 448.371 2.09697 -2.15517 0
M  V30 4626 C 449.919 2.22937 -2.197 0
M  V30 4627 C 450.394 3.09064 -3.37999 0
M  V30 4628 N 451.885 3.16653 -3.38061 0
M  V30 4629 C 452.62 3.8354 -4.26245 0
M  V30 4630 N 452.116 4.52488 -5.2462 0
M  V30 4631 N 453.909 3.80141 -4.14064 0
M  V30 4632 H 446.06 0.529005 -2.05707 0
M  V30 4633 H 448.323 0.296148 -0.900556 0
M  V30 4634 H 448.029 1.64497 -3.10859 0
M  V30 4635 H 447.903 3.10444 -2.14253 0
M  V30 4636 H 450.29 2.67357 -1.24916 0
M  V30 4637 H 450.371 1.21673 -2.2501 0
M  V30 4638 H 450.015 2.65347 -4.33074 0
M  V30 4639 H 449.945 4.10433 -3.29928 0
M  V30 4640 H 452.436 2.67566 -2.66865 0
M  V30 4641 H 452.749 5.01219 -5.88217 0
M  V30 4642 H 451.094 4.51288 -5.28549 0
M  V30 4643 H 454.285 3.25427 -3.36474 0
M  V30 4644 H 454.458 4.31992 -4.82998 0
M  V30 4645 N 447.864 1.01787 1.20321 0
M  V30 4646 C 449.11 0.708985 1.90003 0
M  V30 4647 C 449.443 -0.759572 1.78729 0
M  V30 4648 O 448.718 -1.55198 1.17234 0
M  V30 4649 C 449.001 1.1469 3.41348 0
M  V30 4650 C 448.854 2.67586 3.61549 0
M  V30 4651 C 450.173 0.71915 4.34185 0
M  V30 4652 H 447.292 0.259034 0.689978 0
M  V30 4653 H 449.934 1.26584 1.41692 0
M  V30 4654 H 448.084 0.673128 3.82624 0
M  V30 4655 H 449.756 3.22826 3.29517 0
M  V30 4656 H 447.999 3.085 3.04976 0
M  V30 4657 H 448.67 2.93281 4.67643 0
M  V30 4658 H 451.146 1.12647 4.00562 0
M  V30 4659 H 450.022 1.05358 5.38694 0
M  V30 4660 H 450.283 -0.379111 4.40472 0
M  V30 4661 N 449.342 -1.36122 0.79427 0
M  V30 4662 C 450.252 -2.33769 0.197296 0
M  V30 4663 C 451.268 -1.61276 -0.653153 0
M  V30 4664 O 452.444 -1.9323 -0.5678 0
M  V30 4665 C 449.509 -3.40474 -0.654098 0
M  V30 4666 C 448.57 -4.28759 0.215411 0
M  V30 4667 C 447.803 -5.30368 -0.595443 0
M  V30 4668 O 448.026 -5.40211 -1.83107 0
M  V30 4669 O 446.96 -6.019 0.00721351 0
M  V30 4670 H 450.786 -2.86597 1.00478 0
M  V30 4671 H 448.371 -1.38676 0.555818 0
M  V30 4672 H 450.253 -4.05703 -1.13944 0
M  V30 4673 H 448.928 -2.89937 -1.43938 0
M  V30 4674 H 447.835 -3.66554 0.747615 0
M  V30 4675 H 449.168 -4.82661 0.964332 0
M  V30 4676 N 450.82 -0.546701 -1.47814 0
M  V30 4677 C 452.045 -0.021268 -2.07389 0
M  V30 4678 C 452.47 1.25822 -1.39822 0
M  V30 4679 O 451.828 1.75111 -0.46968 0
M  V30 4680 C 451.876 0.168502 -3.60206 0
M  V30 4681 O 450.98 1.23347 -3.93522 0
M  V30 4682 H 450.321 -0.0466108 -0.662362 0
M  V30 4683 H 452.851 -0.759387 -1.89985 0
M  V30 4684 H 452.861 0.385982 -4.0617 0
M  V30 4685 H 451.536 -0.766075 -4.08784 0
M  V30 4686 H 450.113 0.997319 -3.59316 0
M  V30 4687 N 452.299 1.55045 -0.282633 0
M  V30 4688 C 453.231 2.2023 0.634924 0
M  V30 4689 C 454.244 1.18931 1.11172 0
M  V30 4690 O 455.433 1.4562 1.03233 0
M  V30 4691 C 452.533 2.82041 1.87899 0
M  V30 4692 C 451.706 4.091 1.54776 0
M  V30 4693 C 450.765 4.54887 2.64507 0
M  V30 4694 O 449.791 5.20496 2.30375 0
M  V30 4695 N 450.993 4.25659 3.94709 0
M  V30 4696 H 453.758 2.99601 0.0769811 0
M  V30 4697 H 451.319 1.61565 -0.104048 0
M  V30 4698 H 453.311 3.09613 2.60619 0
M  V30 4699 H 451.881 2.06618 2.3458 0
M  V30 4700 H 451.101 3.88736 0.654049 0
M  V30 4701 H 452.389 4.9187 1.30158 0
M  V30 4702 H 451.787 3.7306 4.25256 0
M  V30 4703 H 450.344 4.57984 4.63782 0
M  V30 4704 N 453.777 0.010035 1.57597 0
M  V30 4705 C 454.707 -0.976857 2.12084 0
M  V30 4706 C 455.688 -1.35191 1.03235 0
M  V30 4707 O 456.873 -1.43389 1.3097 0
M  V30 4708 C 454.003 -2.26548 2.63236 0
M  V30 4709 C 452.957 -2.03175 3.76701 0
M  V30 4710 C 452.283 -3.38138 4.14206 0
M  V30 4711 C 453.583 -1.38625 5.03568 0
M  V30 4712 H 455.277 -0.523145 2.94794 0
M  V30 4713 H 452.823 -0.250195 1.4181 0
M  V30 4714 H 454.776 -2.95952 2.99984 0
M  V30 4715 H 453.5 -2.74051 1.77661 0
M  V30 4716 H 452.159 -1.36195 3.40362 0
M  V30 4717 H 451.807 -3.83363 3.25641 0
M  V30 4718 H 451.507 -3.23312 4.90656 0
M  V30 4719 H 453.031 -4.08841 4.53521 0
M  V30 4720 H 454.445 -1.98 5.38023 0
M  V30 4721 H 452.842 -1.34256 5.84889 0
M  V30 4722 H 453.912 -0.356722 4.83586 0
M  V30 4723 N 455.255 -1.55392 -0.262866 0
M  V30 4724 C 456.202 -1.88966 -1.32516 0
M  V30 4725 C 457.172 -0.742187 -1.48596 0
M  V30 4726 O 458.357 -0.99439 -1.62839 0
M  V30 4727 C 455.497 -2.17592 -2.67858 0
M  V30 4728 C 454.61 -3.45061 -2.59917 0
M  V30 4729 C 453.745 -3.63336 -3.87505 0
M  V30 4730 C 452.784 -4.84462 -3.74116 0
M  V30 4731 N 451.921 -4.99342 -4.93561 0
M  V30 4732 H 456.761 -2.79566 -1.03184 0
M  V30 4733 H 454.298 -1.38404 -0.498285 0
M  V30 4734 H 456.256 -2.3219 -3.46617 0
M  V30 4735 H 454.886 -1.30215 -2.95371 0
M  V30 4736 H 453.938 -3.38881 -1.72812 0
M  V30 4737 H 455.25 -4.3396 -2.45926 0
M  V30 4738 H 454.404 -3.77807 -4.74707 0
M  V30 4739 H 453.143 -2.72641 -4.04374 0
M  V30 4740 H 452.148 -4.69985 -2.85297 0
M  V30 4741 H 453.373 -5.76603 -3.58757 0
M  V30 4742 H 451.319 -4.1158 -5.10821 0
M  V30 4743 H 451.236 -5.82303 -4.82141 0
M  V30 4744 H 452.504 -5.18208 -5.82306 0
M  V30 4745 N 456.733 0.527833 -1.48498 0
M  V30 4746 C 457.982 1.28003 -1.55878 0
M  V30 4747 C 458.295 1.9414 -0.238577 0
M  V30 4748 O 459.501 2.7083 -0.190643 0
M  V30 4749 C 457.957 2.32272 -2.74914 0
M  V30 4750 C 457.565 1.72196 -4.13585 0
M  V30 4751 C 459.309 3.08488 -2.91608 0
M  V30 4752 C 457.216 2.74417 -5.23879 0
M  V30 4753 H 456.146 0.481413 -0.580308 0
M  V30 4754 H 458.797 0.557195 -1.74836 0
M  V30 4755 H 457.179 3.07601 -2.49395 0
M  V30 4756 H 458.353 1.03041 -4.49132 0
M  V30 4757 H 456.668 1.08464 -4.02025 0
M  V30 4758 H 459.265 3.84879 -3.71177 0
M  V30 4759 H 459.608 3.64481 -2.01145 0
M  V30 4760 H 460.141 2.40274 -3.17038 0
M  V30 4761 H 456.88 2.23242 -6.16314 0
M  V30 4762 H 456.4 3.41893 -4.92818 0
M  V30 4763 H 458.079 3.37362 -5.52083 0
M  V30 4764 N 458.211 1.37122 0.776871 0
M  V30 4765 C 459.141 1.35164 1.90402 0
M  V30 4766 C 460.122 0.221069 1.68657 0
M  V30 4767 O 461.307 0.420642 1.8959 0
M  V30 4768 C 458.437 1.15274 3.27611 0
M  V30 4769 C 457.391 2.25289 3.63908 0
M  V30 4770 C 456.717 1.90527 4.99603 0
M  V30 4771 C 458.017 3.67446 3.71188 0
M  V30 4772 H 459.711 2.29482 1.92297 0
M  V30 4773 H 457.257 1.10465 0.923773 0
M  V30 4774 H 459.21 1.12536 4.06096 0
M  V30 4775 H 457.934 0.174102 3.26136 0
M  V30 4776 H 456.593 2.27174 2.87728 0
M  V30 4777 H 456.241 0.91206 4.94662 0
M  V30 4778 H 455.941 2.64193 5.24858 0
M  V30 4779 H 457.465 1.89367 5.80493 0
M  V30 4780 H 458.879 3.67719 4.39836 0
M  V30 4781 H 457.276 4.40123 4.07936 0
M  V30 4782 H 458.346 4.01443 2.71977 0
M  V30 4783 N 459.689 -1.00246 1.21608 0
M  V30 4784 C 460.938 -1.73476 1.02902 0
M  V30 4785 C 461.251 -1.90643 -0.437561 0
M  V30 4786 O 462.457 -2.61105 -0.74407 0
M  V30 4787 C 460.913 -3.12079 1.79261 0
M  V30 4788 C 460.521 -3.02877 3.30106 0
M  V30 4789 C 462.265 -3.89421 1.68972 0
M  V30 4790 C 460.172 -4.36575 3.98944 0
M  V30 4791 H 459.102 -0.650408 0.381425 0
M  V30 4792 H 461.753 -1.11985 1.45367 0
M  V30 4793 H 460.135 -3.74196 1.2959 0
M  V30 4794 H 461.309 -2.49983 3.87098 0
M  V30 4795 H 459.624 -2.39022 3.40965 0
M  V30 4796 H 462.221 -4.88362 2.17731 0
M  V30 4797 H 462.564 -4.1122 0.648397 0
M  V30 4798 H 463.097 -3.33963 2.16133 0
M  V30 4799 H 459.836 -4.19978 5.03288 0
M  V30 4800 H 459.356 -4.8942 3.4674 0
M  V30 4801 H 461.035 -5.05364 4.04 0
M  V30 4802 N 461.167 -1.02423 -1.1978 0
M  V30 4803 C 462.583 -0.740459 -1.41384 0
M  V30 4804 C 462.783 0.676827 -1.89793 0
M  V30 4805 O 461.839 1.4435 -2.0717 0
M  V30 4806 C 463.152 -1.77264 -2.42895 0
M  V30 4807 C 464.7 -1.79165 -2.56649 0
M  V30 4808 C 465.175 -2.8133 -3.6141 0
M  V30 4809 N 466.666 -2.80118 -3.68901 0
M  V30 4810 C 467.401 -3.55824 -4.49641 0
M  V30 4811 N 466.897 -4.41231 -5.34123 0
M  V30 4812 N 468.69 -3.44387 -4.44246 0
M  V30 4813 H 460.841 -1.9391 -0.866764 0
M  V30 4814 H 463.104 -0.838074 -0.443098 0
M  V30 4815 H 462.81 -2.7884 -2.14339 0
M  V30 4816 H 462.684 -1.59108 -3.42001 0
M  V30 4817 H 465.071 -0.782702 -2.84531 0
M  V30 4818 H 465.152 -2.01396 -1.57713 0
M  V30 4819 H 464.796 -3.82394 -3.34271 0
M  V30 4820 H 464.726 -2.56359 -4.59986 0
M  V30 4821 H 467.217 -2.1817 -3.08562 0
M  V30 4822 H 467.53 -4.95747 -5.92836 0
M  V30 4823 H 465.875 -4.45306 -5.33599 0
M  V30 4824 H 469.066 -2.7708 -3.77285 0
M  V30 4825 H 469.239 -4.0364 -5.06931 0
M  V30 4826 N 462.645 1.35699 -0.801477 0
M  V30 4827 C 464.056 1.81415 -0.441073 0
M  V30 4828 C 464.407 1.66595 1.03636 0
M  V30 4829 O 463.532 1.19369 1.80499 0
M  V30 4830 C 464.127 3.29369 -0.793819 0
M  V30 4831 C 462.686 3.73248 -0.486083 0
M  V30 4832 C 461.833 2.57775 -1.02213 0
M  V30 4833 H 464.784 1.23749 -0.993572 0
M  V30 4834 H 464.805 3.80395 -0.0894158 0
M  V30 4835 H 464.317 3.40123 -1.86917 0
M  V30 4836 H 462.418 3.68046 0.580735 0
M  V30 4837 H 462.531 4.68222 -1.01513 0
M  V30 4838 H 460.895 2.50788 -0.444712 0
M  V30 4839 H 461.678 2.71309 -2.10348 0
M  V30 4840 N 464.123 0.554532 1.47522 0
M  V30 4841 C 465.056 -0.242442 2.26908 0
M  V30 4842 C 466.034 -0.922722 1.33883 0
M  V30 4843 O 467.218 -0.942244 1.63261 0
M  V30 4844 C 464.345 -1.34525 3.10839 0
M  V30 4845 C 463.391 -0.773805 4.19422 0
M  V30 4846 S 464.224 0.377525 5.34168 0
M  V30 4847 C 465.38 -0.727164 6.21662 0
M  V30 4848 H 465.613 0.431218 2.94156 0
M  V30 4849 H 463.146 0.3408 1.50592 0
M  V30 4850 H 465.104 -1.97683 3.59766 0
M  V30 4851 H 463.765 -1.99073 2.42958 0
M  V30 4852 H 462.958 -1.60187 4.77866 0
M  V30 4853 H 462.56 -0.218448 3.73361 0
M  V30 4854 H 464.852 -1.61992 6.57849 0
M  V30 4855 H 465.795 -0.180135 7.07871 0
M  V30 4856 H 466.203 -1.01863 5.55233 0
M  V30 4857 N 465.601 -1.54893 0.290851 0
M  V30 4858 C 466.831 -2.04047 -0.323818 0
M  V30 4859 C 467.239 -1.16809 -1.48837 0
M  V30 4860 O 466.582 -0.184145 -1.82775 0
M  V30 4861 C 466.644 -3.49248 -0.852395 0
M  V30 4862 C 466.308 -4.56623 0.185557 0
M  V30 4863 C 467.305 -5.09985 1.01053 0
M  V30 4864 C 464.99 -5.01252 0.324332 0
M  V30 4865 C 466.984 -6.06507 1.96031 0
M  V30 4866 C 464.671 -5.97596 1.27757 0
M  V30 4867 C 465.669 -6.50107 2.09405 0
M  V30 4868 O 465.357 -7.44565 3.03114 0
M  V30 4869 H 465.089 -0.671735 -0.0758129 0
M  V30 4870 H 467.643 -2.00947 0.425393 0
M  V30 4871 H 465.873 -3.49639 -1.65195 0
M  V30 4872 H 467.562 -3.81654 -1.38185 0
M  V30 4873 H 468.328 -4.76307 0.914129 0
M  V30 4874 H 464.207 -4.60015 -0.301213 0
M  V30 4875 H 467.751 -6.47418 2.598 0
M  V30 4876 H 463.648 -6.30691 1.37473 0
M  V30 4877 H 464.416 -7.62334 2.97976 0
M  V30 4878 N 467.08 -0.0183926 -1.57589 0
M  V30 4879 C 468.305 0.676634 -1.96052 0
M  V30 4880 C 468.73 1.6548 -0.894307 0
M  V30 4881 O 468.088 1.80712 0.145849 0
M  V30 4882 C 468.136 1.36872 -3.33614 0
M  V30 4883 O 467.24 2.48372 -3.29219 0
M  V30 4884 H 466.581 0.1786 -0.63953 0
M  V30 4885 H 469.111 -0.077056 -2.04455 0
M  V30 4886 H 469.121 1.72797 -3.69601 0
M  V30 4887 H 467.796 0.651636 -4.10763 0
M  V30 4888 H 466.373 2.14639 -3.04934 0
M  V30 4889 N 468.558 1.5553 0.254621 0
M  V30 4890 C 469.506 1.9048 1.33492 0
M  V30 4891 C 470.5 0.78304 1.50216 0
M  V30 4892 O 471.706 0.967582 1.51782 0
M  V30 4893 H 468.081 0.604846 0.44684 0
M  V30 4894 H 470.052 2.80688 1.01275 0
M  V30 4895 C 468.801 2.20928 2.68489 0
M  V30 4896 H 468.124 3.06742 2.56417 0
M  V30 4897 H 469.564 2.49291 3.42972 0
M  V30 4898 C 468.023 1.023 3.20993 0
M  V30 4899 O 468.553 0.267027 4.00811 0
M  V30 4900 N 466.759 0.815714 2.78917 0
M  V30 4901 H 466.306 1.43217 2.14119 0
M  V30 4902 H 466.264 0.0236532 3.14391 0
M  V30 4903 N 470.036 -0.519951 1.48776 0
M  V30 4904 C 471.447 -1.10177 1.50725 0
M  V30 4905 C 471.798 -1.94153 0.282678 0
M  V30 4906 O 470.923 -2.07645 -0.609298 0
M  V30 4907 C 471.518 -2.00482 2.73116 0
M  V30 4908 C 470.077 -2.53862 2.77905 0
M  V30 4909 C 469.224 -1.31047 2.44381 0
M  V30 4910 H 472.175 -0.30473 1.55747 0
M  V30 4911 H 472.196 -2.8491 2.52203 0
M  V30 4912 H 471.708 -1.39335 3.62225 0
M  V30 4913 H 469.809 -3.18702 1.93029 0
M  V30 4914 H 469.922 -2.9231 3.79594 0
M  V30 4915 H 468.286 -1.62953 1.95751 0
M  V30 4916 H 469.069 -0.71637 3.35743 0
M  V30 4917 N 471.514 -1.37532 -0.769588 0
M  V30 4918 C 472.925 -1.29382 -1.346 0
M  V30 4919 C 473.276 0.0576039 -1.96115 0
M  V30 4920 O 472.401 0.95947 -1.93967 0
M  V30 4921 C 472.996 -2.34298 -2.44724 0
M  V30 4922 C 471.555 -2.29776 -2.98128 0
M  V30 4923 C 470.702 -2.18013 -1.71364 0
M  V30 4924 H 473.653 -1.48123 -0.56968 0
M  V30 4925 H 473.674 -1.99089 -3.24259 0
M  V30 4926 H 473.186 -3.32645 -1.99922 0
M  V30 4927 H 471.287 -1.34959 -3.47299 0
M  V30 4928 H 471.4 -3.23276 -3.53595 0
M  V30 4929 H 469.764 -1.64595 -1.94372 0
M  V30 4930 H 470.547 -3.18278 -1.28662 0
M  V30 4931 N 472.992 0.995999 -1.22138 0
M  V30 4932 C 473.922 2.10387 -1.01289 0
M  V30 4933 C 474.903 1.69975 0.0651454 0
M  V30 4934 O 476.088 1.9396 -0.0964628 0
M  V30 4935 C 473.218 3.42312 -0.586517 0
M  V30 4936 C 472.172 3.96558 -1.61014 0
M  V30 4937 C 471.498 5.24494 -1.0397 0
M  V30 4938 C 472.798 4.27595 -2.99933 0
M  V30 4939 H 474.492 2.28086 -1.93951 0
M  V30 4940 H 472.038 1.09607 -0.933928 0
M  V30 4941 H 473.991 4.19223 -0.427793 0
M  V30 4942 H 472.715 3.24431 0.375761 0
M  V30 4943 H 471.374 3.21776 -1.75658 0
M  V30 4944 H 471.022 5.02953 -0.0688703 0
M  V30 4945 H 470.722 5.61755 -1.72352 0
M  V30 4946 H 472.246 6.04042 -0.892494 0
M  V30 4947 H 473.66 4.95315 -2.8868 0
M  V30 4948 H 472.057 4.76021 -3.6541 0
M  V30 4949 H 473.127 3.35498 -3.50099 0
M  V30 4950 N 474.47 1.03057 1.19235 0
M  V30 4951 C 475.418 0.606391 2.24557 0
M  V30 4952 C 476.412 -0.361826 1.65491 0
M  V30 4953 O 477.618 -0.23022 1.78522 0
M  V30 4954 H 473.993 0.177838 0.730669 0
M  V30 4955 H 475.964 1.50529 2.5765 0
M  V30 4956 C 474.713 -0.0252127 3.47691 0
M  V30 4957 H 474.036 0.710838 3.9343 0
M  V30 4958 H 475.476 -0.284931 4.23042 0
M  V30 4959 C 473.935 -1.27229 3.11953 0
M  V30 4960 O 474.465 -2.36416 3.24762 0
M  V30 4961 N 472.671 -1.16169 2.6637 0
M  V30 4962 H 472.218 -0.273189 2.56147 0
M  V30 4963 H 472.176 -1.99703 2.42829 0
M  V30 4964 N 475.948 -1.35272 0.808662 0
M  V30 4965 C 477.196 -1.98316 0.389233 0
M  V30 4966 C 477.517 -1.64465 -1.04767 0
M  V30 4967 O 476.787 -0.928175 -1.72516 0
M  V30 4968 H 475.367 -0.733585 0.140935 0
M  V30 4969 H 478.029 -1.6515 1.03496 0
M  V30 4970 H 477.125 -3.08123 0.496631 0
M  V30 4971 N 477.426 -0.562348 -1.47226 0
M  V30 4972 C 478.389 0.172056 -2.28553 0
M  V30 4973 C 479.389 0.837928 -1.37242 0
M  V30 4974 O 480.579 0.693001 -1.59822 0
M  V30 4975 C 477.711 1.25223 -3.17068 0
M  V30 4976 H 478.904 -0.542401 -2.94954 0
M  V30 4977 H 476.457 -0.319493 -1.53 0
M  V30 4978 H 477.192 1.99892 -2.55369 0
M  V30 4979 H 476.977 0.779515 -3.84273 0
M  V30 4980 H 478.467 1.76791 -3.78332 0
M  V30 4981 N 478.904 1.54736 -0.299062 0
M  V30 4982 C 480.32 1.59507 0.0543849 0
M  V30 4983 C 480.52 1.31606 1.52585 0
M  V30 4984 O 479.576 1.08853 2.27832 0
M  V30 4985 C 480.889 2.98751 -0.34181 0
M  V30 4986 C 482.437 3.1165 -0.290414 0
M  V30 4987 C 482.912 4.53199 -0.661402 0
M  V30 4988 N 484.403 4.59114 -0.613863 0
M  V30 4989 C 485.138 5.66709 -0.873417 0
M  V30 4990 N 484.634 6.82349 -1.19884 0
M  V30 4991 N 486.427 5.56369 -0.800608 0
M  V30 4992 H 478.578 1.71133 -1.25806 0
M  V30 4993 H 480.841 0.799186 -0.509908 0
M  V30 4994 H 480.547 3.24085 -1.36608 0
M  V30 4995 H 480.421 3.75961 0.305508 0
M  V30 4996 H 482.808 2.86066 0.724605 0
M  V30 4997 H 482.889 2.366 -0.972327 0
M  V30 4998 H 482.533 4.79513 -1.67422 0
M  V30 4999 H 482.463 5.26583 0.0425612 0
M  V30 5000 H 484.954 3.76053 -0.3732 0
M  V30 5001 H 485.267 7.60326 -1.38291 0
M  V30 5002 H 483.612 6.83906 -1.23685 0
M  V30 5003 H 486.803 4.64904 -0.546045 0
M  V30 5004 H 486.976 6.40139 -1.00626 0
M  V30 5005 N 480.382 0.0267497 1.57577 0
M  V30 5006 C 481.631 -0.651736 1.9088 0
M  V30 5007 C 481.944 -1.73427 0.904576 0
M  V30 5008 O 483.15 -2.46923 1.12877 0
M  V30 5009 C 481.606 -1.21048 3.38933 0
M  V30 5010 C 481.214 -0.161362 4.47709 0
M  V30 5011 C 482.958 -1.86562 3.81307 0
M  V30 5012 C 480.865 -0.731611 5.86857 0
M  V30 5013 H 479.795 -0.247198 0.712326 0
M  V30 5014 H 482.446 0.0916641 1.83271 0
M  V30 5015 H 480.828 -2.00542 3.41466 0
M  V30 5016 H 482.002 0.61094 4.56732 0
M  V30 5017 H 480.317 0.394877 4.14523 0
M  V30 5018 H 482.914 -2.30178 4.8262 0
M  V30 5019 H 483.257 -2.70735 3.16241 0
M  V30 5020 H 483.79 -1.13762 3.81186 0
M  V30 5021 H 480.529 0.0719329 6.55461 0
M  V30 5022 H 480.049 -1.47245 5.81445 0
M  V30 5023 H 481.728 -1.22208 6.35354 0
M  V30 5024 N 481.861 -1.55662 -0.24637 0
M  V30 5025 C 482.824 -1.89558 -1.28842 0
M  V30 5026 C 483.824 -0.772082 -1.41052 0
M  V30 5027 O 485.014 -1.04007 -1.39743 0
M  V30 5028 C 482.146 -2.12449 -2.66605 0
M  V30 5029 H 483.339 -2.82735 -1.00004 0
M  V30 5030 H 480.892 -1.48562 -0.485684 0
M  V30 5031 H 481.627 -1.21742 -3.00582 0
M  V30 5032 H 481.412 -2.94273 -2.59125 0
M  V30 5033 H 482.902 -2.39854 -3.41847 0
M  V30 5034 N 483.339 0.512053 -1.4905 0
M  V30 5035 C 484.302 1.59704 -1.64399 0
M  V30 5036 C 485.302 1.52285 -0.516317 0
M  V30 5037 O 486.492 1.55635 -0.782527 0
M  V30 5038 C 483.624 2.9935 -1.63102 0
M  V30 5039 H 484.817 1.47428 -2.61161 0
M  V30 5040 H 482.37 0.735469 -1.37915 0
M  V30 5041 H 483.105 3.17116 -0.678836 0
M  V30 5042 H 482.89 3.06144 -2.44986 0
M  V30 5043 H 484.38 3.782 -1.77072 0
M  V30 5044 N 484.817 1.37938 0.762283 0
M  V30 5045 C 485.78 1.34279 1.85747 0
M  V30 5046 C 486.78 0.244969 1.58923 0
M  V30 5047 O 487.97 0.501365 1.66829 0
M  V30 5048 C 485.102 1.08833 3.23061 0
M  V30 5049 H 486.295 2.31705 1.90401 0
M  V30 5050 H 483.848 1.23105 0.963057 0
M  V30 5051 H 484.583 0.119767 3.24079 0
M  V30 5052 H 484.368 1.88306 3.43923 0
M  V30 5053 H 485.858 1.08946 4.03138 0
M  V30 5054 N 486.295 -0.989507 1.22664 0
M  V30 5055 C 487.544 -1.72375 1.04737 0
M  V30 5056 C 487.857 -1.91096 -0.417316 0
M  V30 5057 O 489.063 -2.6188 -0.716334 0
M  V30 5058 C 487.519 -3.10161 1.82561 0
M  V30 5059 C 487.127 -2.99358 3.333 0
M  V30 5060 C 488.871 -3.87607 1.73093 0
M  V30 5061 C 486.778 -4.32319 4.03552 0
M  V30 5062 H 485.708 -0.646326 0.388302 0
M  V30 5063 H 488.359 -1.10437 1.46546 0
M  V30 5064 H 486.741 -3.728 1.33552 0
M  V30 5065 H 487.915 -2.45863 3.89728 0
M  V30 5066 H 486.23 -2.35392 3.43481 0
M  V30 5067 H 488.827 -4.86025 2.22899 0
M  V30 5068 H 489.17 -4.10509 0.691976 0
M  V30 5069 H 489.703 -3.31652 2.19663 0
M  V30 5070 H 486.442 -4.14616 5.07714 0
M  V30 5071 H 485.962 -4.85714 3.51911 0
M  V30 5072 H 487.641 -5.01051 4.09337 0
M  V30 5073 N 487.773 -1.03688 -1.18687 0
M  V30 5074 C 488.703 -0.645407 -2.24403 0
M  V30 5075 C 489.684 0.349511 -1.66471 0
M  V30 5076 O 490.869 0.230453 -1.92828 0
M  V30 5077 C 487.999 -0.00365337 -3.473 0
M  V30 5078 C 486.953 -0.921705 -4.17958 0
M  V30 5079 C 486.279 -0.144629 -5.34504 0
M  V30 5080 C 487.579 -2.23909 -4.71871 0
M  V30 5081 H 489.273 -1.52917 -2.57404 0
M  V30 5082 H 486.819 -0.736711 -1.23728 0
M  V30 5083 H 488.772 0.281908 -4.20456 0
M  V30 5084 H 487.496 0.914963 -3.13522 0
M  V30 5085 H 486.155 -1.19159 -3.46694 0
M  V30 5086 H 485.803 0.776274 -4.96974 0
M  V30 5087 H 485.503 -0.756206 -5.82714 0
M  V30 5088 H 487.027 0.134004 -6.10453 0
M  V30 5089 H 488.441 -2.0145 -5.36741 0
M  V30 5090 H 486.838 -2.8033 -5.30599 0
M  V30 5091 H 487.908 -2.88822 -3.895 0
M  V30 5092 N 489.251 1.34841 -0.815825 0
M  V30 5093 C 490.199 2.31549 -0.220888 0
M  V30 5094 C 491.193 1.5707 0.634457 0
M  V30 5095 O 492.399 1.72125 0.526589 0
M  V30 5096 H 488.774 0.750153 -0.0526782 0
M  V30 5097 H 490.745 2.7926 -1.05149 0
M  V30 5098 C 489.494 3.42335 0.608427 0
M  V30 5099 H 488.817 3.9978 -0.0404121 0
M  V30 5100 H 490.257 4.12258 0.990931 0
M  V30 5101 C 488.716 2.86173 1.77782 0
M  V30 5102 O 489.246 2.80474 2.87571 0
M  V30 5103 N 487.452 2.43093 1.59229 0
M  V30 5104 H 486.999 2.47928 0.699237 0
M  V30 5105 H 486.957 2.05866 2.37627 0
M  V30 5106 N 490.729 0.570148 1.46925 0
M  V30 5107 C 491.957 0.0561966 2.06824 0
M  V30 5108 C 492.372 -1.24326 1.42086 0
M  V30 5109 O 491.729 -1.74882 0.521794 0
M  V30 5110 C 491.78 -0.129517 3.61268 0
M  V30 5111 O 491.501 1.1185 4.23581 0
M  V30 5112 C 493.002 -0.679266 4.38065 0
M  V30 5113 H 490.222 0.0517261 0.669003 0
M  V30 5114 H 492.766 0.787243 1.8874 0
M  V30 5115 H 490.921 -0.810739 3.78822 0
M  V30 5116 H 491.335 0.924375 5.1629 0
M  V30 5117 H 492.809 -0.758445 5.46765 0
M  V30 5118 H 493.286 -1.69346 4.05239 0
M  V30 5119 H 493.892 -0.0333237 4.25287 0
M  V30 5120 N 492.207 -1.54576 0.307264 0
M  V30 5121 C 493.618 -1.8579 -0.184121 0
M  V30 5122 C 493.969 -1.22914 -1.52927 0
M  V30 5123 O 493.094 -0.529126 -2.09831 0
M  V30 5124 C 493.689 -3.37081 -0.340862 0
M  V30 5125 C 492.248 -3.68304 -0.776465 0
M  V30 5126 C 491.395 -2.77076 0.111503 0
M  V30 5127 H 494.346 -1.49656 0.528078 0
M  V30 5128 H 494.367 -3.61922 -1.17443 0
M  V30 5129 H 493.879 -3.82815 0.638309 0
M  V30 5130 H 491.98 -3.28092 -1.76596 0
M  V30 5131 H 492.093 -4.75434 -0.591512 0
M  V30 5132 H 490.457 -2.51374 -0.410256 0
M  V30 5133 H 491.24 -3.25632 1.08714 0
M  V30 5134 N 493.685 -0.035106 -1.57561 0
M  V30 5135 C 494.962 0.681212 -1.83354 0
M  V30 5136 C 495.342 1.89986 -0.920252 0
M  V30 5137 O 494.69 2.28489 0.0226815 0
M  V30 5138 C 494.9 1.05376 -3.32712 0
M  V30 5139 C 496.248 1.44286 -3.99333 0
M  V30 5140 O 497.272 1.14656 -3.37242 0
M  V30 5141 O 496.131 1.99518 -5.08778 0
M  V30 5142 H 493.225 0.334741 -0.756226 0
M  V30 5143 H 495.771 -0.0632448 -1.69582 0
M  V30 5144 H 494.543 0.186668 -3.90854 0
M  V30 5145 H 494.166 1.85619 -3.51613 0
M  V30 5146 N 495.163 1.55791 0.238111 0
M  V30 5147 C 496.093 1.94068 1.29846 0
M  V30 5148 C 497.074 0.806726 1.49753 0
M  V30 5149 O 498.259 1.06772 1.62214 0
M  V30 5150 C 495.389 2.24302 2.65153 0
M  V30 5151 C 494.343 3.40032 2.59927 0
M  V30 5152 C 493.669 3.55829 3.99111 0
M  V30 5153 C 494.969 4.75476 2.16148 0
M  V30 5154 H 496.663 2.82887 0.980563 0
M  V30 5155 H 494.209 1.36105 0.470253 0
M  V30 5156 H 496.162 2.4967 3.39475 0
M  V30 5157 H 494.886 1.32318 2.98596 0
M  V30 5158 H 493.545 3.14687 1.88063 0
M  V30 5159 H 493.193 2.6125 4.29834 0
M  V30 5160 H 492.893 4.3366 3.96501 0
M  V30 5161 H 494.417 3.83528 4.7512 0
M  V30 5162 H 495.831 5.00158 2.80205 0
M  V30 5163 H 494.228 5.56472 2.24631 0
M  V30 5164 H 495.298 4.71946 1.11333 0
M  V30 5165 N 496.642 -0.504142 1.49319 0
M  V30 5166 C 498.058 -0.835039 1.36012 0
M  V30 5167 C 498.258 -1.97674 0.390808 0
M  V30 5168 O 497.314 -2.51867 -0.178655 0
M  V30 5169 C 498.627 -1.17821 2.76656 0
M  V30 5170 C 500.175 -1.2866 2.85334 0
M  V30 5171 C 500.65 -1.66307 4.26739 0
M  V30 5172 N 502.141 -1.73362 4.29534 0
M  V30 5173 C 502.876 -2.0393 5.35911 0
M  V30 5174 N 502.372 -2.32744 6.52535 0
M  V30 5175 N 504.165 -2.05155 5.23324 0
M  V30 5176 H 496.316 0.248764 2.10938 0
M  V30 5177 H 498.579 0.0486962 0.946748 0
M  V30 5178 H 498.285 -0.412682 3.4927 0
M  V30 5179 H 498.159 -2.12239 3.11825 0
M  V30 5180 H 500.546 -2.04285 2.1296 0
M  V30 5181 H 500.627 -0.323004 2.53752 0
M  V30 5182 H 500.271 -0.91234 4.99639 0
M  V30 5183 H 500.201 -2.63761 4.55782 0
M  V30 5184 H 502.692 -1.53268 3.45424 0
M  V30 5185 H 503.005 -2.55248 7.2943 0
M  V30 5186 H 501.35 -2.30207 6.55767 0
M  V30 5187 H 504.541 -1.82119 4.3122 0
M  V30 5188 H 504.714 -2.28644 6.06322 0
M  V30 5189 N 498.12 -1.38341 -0.754957 0
M  V30 5190 C 499.067 -1.3546 -1.86867 0
M  V30 5191 C 500.037 -0.217369 -1.64672 0
M  V30 5192 O 501.222 -0.409383 -1.86356 0
M  V30 5193 C 498.362 -1.18413 -3.24149 0
M  V30 5194 C 497.475 -2.41511 -3.58185 0
M  V30 5195 C 496.61 -2.17205 -4.84763 0
M  V30 5196 C 495.649 -3.36081 -5.11582 0
M  V30 5197 N 494.786 -3.11219 -6.29354 0
M  V30 5198 H 499.626 -2.30672 -1.88664 0
M  V30 5199 H 497.163 -1.14607 -0.922154 0
M  V30 5200 H 499.121 -1.06545 -4.03366 0
M  V30 5201 H 497.751 -0.268397 -3.21682 0
M  V30 5202 H 496.803 -2.64056 -2.73822 0
M  V30 5203 H 498.115 -3.30115 -3.73932 0
M  V30 5204 H 497.269 -2.02465 -5.7192 0
M  V30 5205 H 496.008 -1.25964 -4.71152 0
M  V30 5206 H 495.013 -3.51341 -4.22894 0
M  V30 5207 H 496.238 -4.28196 -5.27091 0
M  V30 5208 H 494.184 -2.22624 -6.17069 0
M  V30 5209 H 494.101 -3.93373 -6.45596 0
M  V30 5210 H 495.369 -3.00132 -7.19403 0
M  V30 5211 N 499.598 0.982988 -1.23187 0
M  V30 5212 C 500.53 2.07729 -0.968572 0
M  V30 5213 C 501.543 1.62702 0.0564821 0
M  V30 5214 O 502.732 1.77603 -0.178733 0
M  V30 5215 C 499.832 3.36071 -0.436974 0
M  V30 5216 C 499.005 4.10081 -1.52159 0
M  V30 5217 C 498.064 5.16701 -0.99532 0
M  V30 5218 O 497.09 5.43727 -1.68373 0
M  V30 5219 N 498.292 5.80226 0.178192 0
M  V30 5220 H 501.057 2.30894 -1.9107 0
M  V30 5221 H 498.618 1.14949 -1.1401 0
M  V30 5222 H 500.61 4.04639 -0.0700051 0
M  V30 5223 H 499.18 3.09893 0.410509 0
M  V30 5224 H 498.4 3.36004 -2.06144 0
M  V30 5225 H 499.688 4.56295 -2.25105 0
M  V30 5226 H 499.086 5.60651 0.754096 0
M  V30 5227 H 497.643 6.49982 0.486449 0
M  V30 5228 N 501.076 1.04316 1.18135 0
M  V30 5229 C 502.322 0.758899 1.88712 0
M  V30 5230 C 502.677 -0.705863 1.78984 0
M  V30 5231 O 501.97 -1.50874 1.18101 0
M  V30 5232 C 502.164 1.16271 3.37958 0
M  V30 5233 C 501.993 2.66518 3.62213 0
M  V30 5234 C 500.763 3.33702 3.79436 0
M  V30 5235 C 502.961 3.64739 3.62588 0
M  V30 5236 N 500.943 4.72904 3.91452 0
M  V30 5237 C 502.314 4.89627 3.80348 0
M  V30 5238 C 504.369 3.58333 3.4569 0
M  V30 5239 C 503.072 6.08879 3.8296 0
M  V30 5240 C 505.098 4.77016 3.49586 0
M  V30 5241 C 504.46 6.00724 3.67845 0
M  V30 5242 H 500.559 0.329795 0.709055 0
M  V30 5243 H 503.143 1.33334 1.4188 0
M  V30 5244 H 501.314 0.616319 3.83479 0
M  V30 5245 H 503.046 0.829205 3.96114 0
M  V30 5246 H 499.801 2.84105 3.78921 0
M  V30 5247 H 500.225 5.45258 4.01277 0
M  V30 5248 H 504.867 2.63663 3.30517 0
M  V30 5249 H 502.585 7.03903 3.96921 0
M  V30 5250 H 506.171 4.73703 3.37782 0
M  V30 5251 H 505.051 6.91022 3.70753 0
M  V30 5252 N 502.554 -1.34406 0.822964 0
M  V30 5253 C 503.484 -2.32052 0.259608 0
M  V30 5254 C 504.465 -1.58243 -0.623961 0
M  V30 5255 O 505.65 -1.86224 -0.55083 0
M  V30 5256 C 502.78 -3.42434 -0.579314 0
M  V30 5257 C 501.734 -4.27499 0.20712 0
M  V30 5258 C 501.06 -5.29349 -0.754547 0
M  V30 5259 C 502.36 -5.02758 1.41533 0
M  V30 5260 H 504.054 -2.79418 1.07545 0
M  V30 5261 H 501.6 -1.34338 0.518593 0
M  V30 5262 H 503.553 -4.0976 -0.983612 0
M  V30 5263 H 502.277 -2.93717 -1.4282 0
M  V30 5264 H 500.936 -3.61776 0.592787 0
M  V30 5265 H 500.584 -4.76895 -1.59939 0
M  V30 5266 H 500.284 -5.8714 -0.232561 0
M  V30 5267 H 501.808 -5.99544 -1.1567 0
M  V30 5268 H 503.222 -5.62938 1.08504 0
M  V30 5269 H 501.619 -5.70123 1.87296 0
M  V30 5270 H 502.689 -4.32451 2.1935 0
M  V30 5271 N 504.032 -0.577932 -1.46621 0
M  V30 5272 C 504.964 0.195801 -2.28362 0
M  V30 5273 C 505.977 0.859983 -1.38232 0
M  V30 5274 O 507.166 0.730349 -1.62875 0
M  V30 5275 C 504.266 1.29639 -3.13124 0
M  V30 5276 C 503.439 0.725049 -4.31349 0
M  V30 5277 C 502.498 1.71274 -4.97546 0
M  V30 5278 O 501.524 1.25067 -5.5529 0
M  V30 5279 N 502.726 3.04672 -4.94121 0
M  V30 5280 H 505.491 -0.505468 -2.95407 0
M  V30 5281 H 503.052 -0.415381 -1.56481 0
M  V30 5282 H 505.044 1.95631 -3.54275 0
M  V30 5283 H 503.614 1.90059 -2.48186 0
M  V30 5284 H 502.834 -0.112205 -3.9404 0
M  V30 5285 H 504.122 0.323034 -5.07774 0
M  V30 5286 H 503.52 3.4484 -4.48444 0
M  V30 5287 H 502.077 3.66166 -5.39227 0
M  V30 5288 N 505.51 1.54411 -0.315457 0
M  V30 5289 C 506.42 2.27737 0.56329 0
M  V30 5290 C 507.436 1.31787 1.13614 0
M  V30 5291 O 508.612 1.64791 1.15784 0
M  V30 5292 C 505.677 3.01478 1.71207 0
M  V30 5293 C 504.738 4.12997 1.17185 0
M  V30 5294 C 503.971 4.83212 2.26588 0
M  V30 5295 O 504.194 4.52884 3.46775 0
M  V30 5296 O 503.128 5.70299 1.92463 0
M  V30 5297 H 506.954 3.03683 -0.0319614 0
M  V30 5298 H 504.539 1.49178 -0.0814188 0
M  V30 5299 H 506.421 3.47683 2.38106 0
M  V30 5300 H 505.096 2.28414 2.29366 0
M  V30 5301 H 504.003 3.71159 0.468174 0
M  V30 5302 H 505.336 4.8808 0.635501 0
M  V30 5303 N 506.988 0.0434614 1.5754 0
M  V30 5304 C 508.234 -0.632971 1.92669 0
M  V30 5305 C 508.567 -1.70947 0.921446 0
M  V30 5306 O 507.842 -1.94426 -0.0537202 0
M  V30 5307 C 508.125 -1.23619 3.38216 0
M  V30 5308 C 507.978 -0.168274 4.49485 0
M  V30 5309 C 509.297 -2.15008 3.84005 0
M  V30 5310 H 506.416 -0.228629 0.700641 0
M  V30 5311 H 509.058 0.103651 1.89717 0
M  V30 5312 H 507.208 -1.864 3.40863 0
M  V30 5313 H 508.88 0.463196 4.58969 0
M  V30 5314 H 507.123 0.504581 4.30855 0
M  V30 5315 H 507.794 -0.630218 5.48391 0
M  V30 5316 H 510.27 -1.62198 3.83185 0
M  V30 5317 H 509.146 -2.54161 4.86511 0
M  V30 5318 H 509.407 -3.04707 3.20322 0
M  V30 5319 N 508.466 -1.55915 -0.229846 0
M  V30 5320 C 509.413 -1.91734 -1.28478 0
M  V30 5321 C 510.383 -0.773539 -1.46988 0
M  V30 5322 O 511.568 -1.02871 -1.60693 0
M  V30 5323 C 508.708 -2.23224 -2.63182 0
M  V30 5324 C 507.821 -3.50497 -2.52539 0
M  V30 5325 C 506.956 -3.71474 -3.79711 0
M  V30 5326 C 505.995 -4.92289 -3.63755 0
M  V30 5327 N 505.132 -5.09698 -4.82858 0
M  V30 5328 H 509.972 -2.81692 -0.972308 0
M  V30 5329 H 507.509 -1.39429 -0.468815 0
M  V30 5330 H 509.467 -2.3949 -3.41614 0
M  V30 5331 H 508.097 -1.36451 -2.92542 0
M  V30 5332 H 507.149 -3.4247 -1.65585 0
M  V30 5333 H 508.461 -4.39079 -2.36666 0
M  V30 5334 H 507.615 -3.87791 -4.66586 0
M  V30 5335 H 506.354 -2.81157 -3.985 0
M  V30 5336 H 505.359 -4.7593 -2.75264 0
M  V30 5337 H 506.584 -5.84083 -3.46445 0
M  V30 5338 H 504.53 -4.22322 -5.01976 0
M  V30 5339 H 504.447 -5.92399 -4.69681 0
M  V30 5340 H 505.715 -5.30443 -5.71183 0
M  V30 5341 N 509.944 0.496216 -1.49584 0
M  V30 5342 C 511.19 1.25189 -1.59548 0
M  V30 5343 C 511.523 1.9212 -0.283466 0
M  V30 5344 O 510.798 1.80947 0.713324 0
M  V30 5345 C 511.081 2.31516 -2.75812 0
M  V30 5346 C 510.934 1.69054 -4.16822 0
M  V30 5347 C 512.253 3.3304 -2.87702 0
M  V30 5348 H 509.372 0.45379 -0.580727 0
M  V30 5349 H 512.014 0.549327 -1.81886 0
M  V30 5350 H 510.164 2.91438 -2.56897 0
M  V30 5351 H 511.836 1.12923 -4.47265 0
M  V30 5352 H 510.079 0.994485 -4.22247 0
M  V30 5353 H 510.75 2.462 -4.94054 0
M  V30 5354 H 513.226 2.83114 -3.04936 0
M  V30 5355 H 512.102 4.04794 -3.7072 0
M  V30 5356 H 512.363 3.95655 -1.97255 0
M  V30 5357 N 511.423 1.38739 0.74761 0
M  V30 5358 C 512.356 1.3083 1.86972 0
M  V30 5359 C 513.334 0.184229 1.61553 0
M  V30 5360 O 514.518 0.36256 1.8498 0
M  V30 5361 C 511.645 1.02854 3.22705 0
M  V30 5362 C 510.691 2.17281 3.67003 0
M  V30 5363 S 511.524 3.79468 3.77842 0
M  V30 5364 C 512.68 3.53692 5.16385 0
M  V30 5365 H 512.913 2.258 1.93395 0
M  V30 5366 H 510.446 1.24646 0.911199 0
M  V30 5367 H 512.404 0.87397 4.01089 0
M  V30 5368 H 511.065 0.0959295 3.13953 0
M  V30 5369 H 510.258 1.93267 4.65472 0
M  V30 5370 H 509.86 2.28876 2.9579 0
M  V30 5371 H 512.152 3.10176 6.02327 0
M  V30 5372 H 513.095 4.51576 5.45422 0
M  V30 5373 H 513.503 2.8807 4.85464 0
M  V30 5374 N 512.901 -0.976442 1.23707 0
M  V30 5375 C 513.864 -2.0511 1.02287 0
M  V30 5376 C 514.864 -1.60791 -0.0167195 0
M  V30 5377 O 516.054 -1.72761 0.223408 0
M  V30 5378 C 513.186 -3.36458 0.548507 0
M  V30 5379 H 514.379 -2.25545 1.9766 0
M  V30 5380 H 511.932 -1.15042 1.05806 0
M  V30 5381 H 512.667 -3.21713 -0.408818 0
M  V30 5382 H 512.452 -3.69967 1.29874 0
M  V30 5383 H 513.942 -4.15489 0.419406 0
M  V30 5384 N 514.379 -1.04941 -1.1758 0
M  V30 5385 C 515.656 -0.671918 -1.83697 0
M  V30 5386 C 516.036 0.847929 -1.93322 0
M  V30 5387 O 515.384 1.75287 -1.46583 0
M  V30 5388 C 515.594 -1.35797 -3.21497 0
M  V30 5389 C 516.942 -1.4944 -3.97433 0
M  V30 5390 O 517.966 -1.31678 -3.30967 0
M  V30 5391 O 516.825 -1.78463 -5.1654 0
M  V30 5392 H 513.919 -0.236212 -0.792548 0
M  V30 5393 H 516.465 -1.14884 -1.24899 0
M  V30 5394 H 515.237 -2.39498 -3.09446 0
M  V30 5395 H 514.86 -0.870236 -3.8796 0
M  V30 5396 N 515.857 1.33968 -0.830081 0
M  V30 5397 C 517.273 1.51003 -0.516742 0
M  V30 5398 C 517.473 1.77286 0.957694 0
M  V30 5399 O 516.529 1.82797 1.74188 0
M  V30 5400 C 517.842 2.67036 -1.38247 0
M  V30 5401 C 519.39 2.80919 -1.38034 0
M  V30 5402 C 519.865 4.00004 -2.23071 0
M  V30 5403 N 521.356 4.07224 -2.20733 0
M  V30 5404 C 522.091 4.98541 -2.83275 0
M  V30 5405 N 521.587 5.95033 -3.54835 0
M  V30 5406 N 523.38 4.91469 -2.72791 0
M  V30 5407 H 515.531 1.15168 -1.78466 0
M  V30 5408 H 517.794 0.565443 -0.760906 0
M  V30 5409 H 517.5 2.54266 -2.42985 0
M  V30 5410 H 517.374 3.62226 -1.05225 0
M  V30 5411 H 519.761 2.93127 -0.340713 0
M  V30 5412 H 519.842 1.86517 -1.75057 0
M  V30 5413 H 519.486 3.88557 -3.27087 0
M  V30 5414 H 519.416 4.93634 -1.83394 0
M  V30 5415 H 521.907 3.38162 -1.68687 0
M  V30 5416 H 522.22 6.61357 -3.99784 0
M  V30 5417 H 520.565 5.95135 -3.58942 0
M  V30 5418 H 523.756 4.15048 -2.16456 0
M  V30 5419 H 523.929 5.62439 -3.21818 0
M  V30 5420 N 517.335 0.585699 1.46312 0
M  V30 5421 C 518.584 0.0701192 2.01578 0
M  V30 5422 C 518.897 -1.29889 1.46247 0
M  V30 5423 O 520.103 -1.90598 1.93351 0
M  V30 5424 C 518.559 0.0747499 3.59822 0
M  V30 5425 C 518.167 1.44226 4.24149 0
M  V30 5426 C 519.911 -0.38673 4.22735 0
M  V30 5427 C 517.818 1.40446 5.74481 0
M  V30 5428 H 516.748 0.0224441 0.753666 0
M  V30 5429 H 519.399 0.737789 1.68015 0
M  V30 5430 H 517.781 -0.659144 3.90476 0
M  V30 5431 H 518.955 2.19612 4.05101 0
M  V30 5432 H 517.27 1.84401 3.73343 0
M  V30 5433 H 519.867 -0.433853 5.32937 0
M  V30 5434 H 520.21 -1.40489 3.91878 0
M  V30 5435 H 520.743 0.293195 3.96718 0
M  V30 5436 H 517.482 2.39952 6.10003 0
M  V30 5437 H 517.002 0.692845 5.95785 0
M  V30 5438 H 518.681 1.11865 6.37256 0
M  V30 5439 N 518.813 -1.54241 0.323641 0
M  V30 5440 C 520.062 -1.9975 -0.279806 0
M  V30 5441 C 520.375 -1.2156 -1.5324 0
M  V30 5442 O 521.581 -1.57447 -2.21185 0
M  V30 5443 C 520.037 -3.55686 -0.549115 0
M  V30 5444 C 519.645 -4.4271 0.686432 0
M  V30 5445 C 521.389 -4.09663 -1.11251 0
M  V30 5446 C 519.296 -5.90119 0.389022 0
M  V30 5447 H 518.226 -0.746177 -0.10833 0
M  V30 5448 H 520.877 -1.78248 0.435877 0
M  V30 5449 H 519.259 -3.73176 -1.32499 0
M  V30 5450 H 520.433 -4.36996 1.46188 0
M  V30 5451 H 518.748 -3.99623 1.17005 0
M  V30 5452 H 521.345 -5.17386 -1.34965 0
M  V30 5453 H 521.688 -3.61651 -2.06191 0
M  V30 5454 H 522.221 -3.95806 -0.39782 0
M  V30 5455 H 518.96 -6.42326 1.30759 0
M  V30 5456 H 518.48 -5.98785 -0.348722 0
M  V30 5457 H 520.159 -6.47 -0.0011164 0
M  V30 5458 N 520.291 -0.0518155 -1.57515 0
M  V30 5459 C 521.539 0.620595 -1.92336 0
M  V30 5460 C 521.86 1.71345 -0.930907 0
M  V30 5461 O 521.13 1.95885 0.0241341 0
M  V30 5462 H 519.71 0.232226 -0.709986 0
M  V30 5463 H 522.372 -0.104969 -1.94617 0
M  V30 5464 H 521.468 1.05879 -2.93592 0
M  V30 5465 N 521.769 1.56035 0.221574 0
M  V30 5466 C 522.702 1.87427 1.30178 0
M  V30 5467 C 523.68 0.731658 1.45209 0
M  V30 5468 O 524.864 0.980016 1.61022 0
M  V30 5469 C 521.991 2.08127 2.67209 0
M  V30 5470 C 521.037 3.30813 2.69194 0
M  V30 5471 S 521.87 4.86738 2.23263 0
M  V30 5472 C 523.026 5.10474 3.62171 0
M  V30 5473 H 523.259 2.78756 1.03355 0
M  V30 5474 H 520.792 1.48469 0.423813 0
M  V30 5475 H 522.75 2.20736 3.46101 0
M  V30 5476 H 521.411 1.17595 2.91256 0
M  V30 5477 H 520.604 3.42341 3.6989 0
M  V30 5478 H 520.206 3.1706 1.98366 0
M  V30 5479 H 522.498 4.9937 4.5786 0
M  V30 5480 H 523.441 6.12359 3.55558 0
M  V30 5481 H 523.849 4.38208 3.55857 0
M  V30 5482 N 523.247 -0.488276 1.49845 0
M  V30 5483 C 524.663 -0.820566 1.3689 0
M  V30 5484 C 524.863 -1.97248 0.411752 0
M  V30 5485 O 523.919 -2.52042 -0.151931 0
M  V30 5486 C 525.232 -1.1488 2.77891 0
M  V30 5487 C 526.78 -1.25626 2.86683 0
M  V30 5488 C 527.255 -1.61772 4.28479 0
M  V30 5489 N 528.746 -1.68797 4.31349 0
M  V30 5490 C 529.481 -1.98235 5.38043 0
M  V30 5491 N 528.977 -2.2581 6.54967 0
M  V30 5492 N 530.77 -1.99593 5.2547 0
M  V30 5493 H 522.921 0.271123 2.10662 0
M  V30 5494 H 525.184 0.058735 0.946179 0
M  V30 5495 H 524.89 -0.375614 3.49688 0
M  V30 5496 H 524.764 -2.08919 3.14058 0
M  V30 5497 H 527.151 -2.02014 2.15114 0
M  V30 5498 H 527.232 -0.296072 2.54081 0
M  V30 5499 H 526.876 -0.859295 5.00578 0
M  V30 5500 H 526.806 -2.58912 4.58554 0
M  V30 5501 H 529.297 -1.49595 3.4703 0
M  V30 5502 H 529.61 -2.47497 7.32096 0
M  V30 5503 H 527.955 -2.23239 6.58171 0
M  V30 5504 H 531.146 -1.77535 4.33127 0
M  V30 5505 H 531.319 -2.222 6.08713 0
M  V30 5506 N 524.725 -1.39134 -0.740242 0
M  V30 5507 C 525.953 -1.39334 -1.5295 0
M  V30 5508 C 526.368 0.0135008 -1.88795 0
M  V30 5509 O 525.725 0.983524 -1.5373 0
M  V30 5510 C 525.776 -2.2614 -2.82034 0
M  V30 5511 O 525.497 -3.61345 -2.47712 0
M  V30 5512 C 526.998 -2.34666 -3.76094 0
M  V30 5513 H 524.218 -0.476103 -0.472828 0
M  V30 5514 H 526.762 -1.82883 -0.9151 0
M  V30 5515 H 524.917 -1.86018 -3.39818 0
M  V30 5516 H 525.331 -4.07194 -3.30595 0
M  V30 5517 H 526.805 -2.99663 -4.63579 0
M  V30 5518 H 527.282 -1.36426 -4.17474 0
M  V30 5519 H 527.888 -2.75236 -3.2423 0
M  V30 5520 N 526.204 0.969867 -1.24223 0
M  V30 5521 C 527.136 2.0669 -0.99055 0
M  V30 5522 C 528.149 1.62753 0.0392222 0
M  V30 5523 O 529.338 1.77403 -0.197561 0
M  V30 5524 C 526.438 3.35589 -0.472594 0
M  V30 5525 C 525.611 4.08444 -1.56499 0
M  V30 5526 C 524.67 5.15616 -1.05007 0
M  V30 5527 O 523.696 5.41911 -1.7413 0
M  V30 5528 N 524.898 5.80383 0.116641 0
M  V30 5529 H 527.663 2.28855 -1.93508 0
M  V30 5530 H 525.224 1.13733 -1.15223 0
M  V30 5531 H 527.216 4.04542 -0.112919 0
M  V30 5532 H 525.786 3.10311 0.377617 0
M  V30 5533 H 525.006 3.33798 -2.09696 0
M  V30 5534 H 526.294 4.53882 -2.29932 0
M  V30 5535 H 525.692 5.6142 0.694589 0
M  V30 5536 H 524.249 6.50462 0.417483 0
M  V30 5537 N 527.682 1.05563 1.17022 0
M  V30 5538 C 528.612 0.681026 2.23348 0
M  V30 5539 C 529.593 -0.322983 1.67005 0
M  V30 5540 O 530.778 -0.199746 1.9317 0
M  V30 5541 C 527.908 0.0589053 3.4725 0
M  V30 5542 C 526.862 0.988082 4.16438 0
M  V30 5543 C 526.188 0.229646 5.34207 0
M  V30 5544 C 527.488 2.31388 4.68249 0
M  V30 5545 H 529.182 1.56993 2.54938 0
M  V30 5546 H 526.728 0.756302 1.2254 0
M  V30 5547 H 528.681 -0.214982 4.20851 0
M  V30 5548 H 527.405 -0.864968 3.14938 0
M  V30 5549 H 526.064 1.24659 3.44754 0
M  V30 5550 H 525.712 -0.697111 4.98146 0
M  V30 5551 H 525.412 0.848815 5.81437 0
M  V30 5552 H 526.936 -0.0368694 6.10589 0
M  V30 5553 H 528.35 2.09964 5.33468 0
M  V30 5554 H 526.747 2.88736 5.26072 0
M  V30 5555 H 527.817 2.94982 3.84855 0
M  V30 5556 N 529.16 -1.33526 0.837174 0
M  V30 5557 C 530.406 -1.9813 0.432704 0
M  V30 5558 C 530.739 -1.66168 -1.00508 0
M  V30 5559 O 530.014 -0.94069 -1.70239 0
M  V30 5560 C 530.297 -3.54151 0.651834 0
M  V30 5561 C 530.15 -3.95806 2.13676 0
M  V30 5562 C 531.469 -4.39993 0.0968937 0
M  V30 5563 H 528.588 -0.719713 0.15869 0
M  V30 5564 H 531.23 -1.58193 1.05237 0
M  V30 5565 H 529.38 -3.88301 0.124369 0
M  V30 5566 H 531.052 -3.71921 2.72896 0
M  V30 5567 H 529.295 -3.45599 2.62191 0
M  V30 5568 H 529.966 -5.0447 2.24084 0
M  V30 5569 H 532.442 -4.12479 0.547733 0
M  V30 5570 H 531.318 -5.48186 0.279917 0
M  V30 5571 H 531.579 -4.3066 -0.9992 0
M  V30 5572 N 530.638 -0.59345 -1.46 0
M  V30 5573 C 531.863 -0.0872365 -2.07216 0
M  V30 5574 C 532.288 1.2131 -1.43755 0
M  V30 5575 O 531.646 1.73528 -0.525152 0
M  V30 5576 C 531.694 0.0538197 -3.6056 0
M  V30 5577 O 530.798 1.10765 -3.97247 0
M  V30 5578 H 530.139 -0.0676598 -0.660544 0
M  V30 5579 H 532.669 -0.819445 -1.87473 0
M  V30 5580 H 532.679 0.256567 -4.07193 0
M  V30 5581 H 531.354 -0.895739 -4.0614 0
M  V30 5582 H 529.931 0.882501 -3.62307 0
M  V30 5583 N 532.116 1.54067 -0.331816 0
M  V30 5584 C 533.064 2.26105 0.54582 0
M  V30 5585 C 534.058 1.27816 1.11173 0
M  V30 5586 O 535.264 1.45565 1.05882 0
M  V30 5587 H 531.639 0.726363 0.194683 0
M  V30 5588 H 533.61 2.98282 -0.083931 0
M  V30 5589 C 532.359 3.03814 1.69092 0
M  V30 5590 H 531.682 3.79269 1.26473 0
M  V30 5591 H 533.122 3.57453 2.28043 0
M  V30 5592 C 531.581 2.12606 2.61343 0
M  V30 5593 O 532.111 1.71437 3.6328 0
M  V30 5594 N 530.317 1.77925 2.29763 0
M  V30 5595 H 529.864 2.11602 1.46909 0
M  V30 5596 H 529.822 1.1718 2.91747 0
M  V30 5597 N 533.594 0.0601682 1.57485 0
M  V30 5598 C 534.524 -0.90889 2.15085 0
M  V30 5599 C 535.505 -1.31838 1.07484 0
M  V30 5600 O 536.69 -1.3915 1.35466 0
M  V30 5601 C 533.82 -2.18059 2.7031 0
M  V30 5602 C 532.774 -1.91088 3.82974 0
M  V30 5603 C 532.1 -3.24789 4.24754 0
M  V30 5604 C 533.4 -1.22535 5.07723 0
M  V30 5605 H 535.094 -0.429093 2.96309 0
M  V30 5606 H 532.64 -0.204952 1.42534 0
M  V30 5607 H 534.593 -2.86258 3.09248 0
M  V30 5608 H 533.317 -2.6826 1.8629 0
M  V30 5609 H 531.976 -1.25297 3.44523 0
M  V30 5610 H 531.624 -3.72809 3.37672 0
M  V30 5611 H 531.324 -3.07538 5.00694 0
M  V30 5612 H 532.848 -3.94205 4.66299 0
M  V30 5613 H 534.262 -1.80783 5.4405 0
M  V30 5614 H 532.659 -1.1558 5.88864 0
M  V30 5615 H 533.729 -0.202692 4.84476 0
M  V30 5616 N 535.072 -1.5615 -0.213296 0
M  V30 5617 C 536.019 -1.93086 -1.26437 0
M  V30 5618 C 536.989 -0.789086 -1.4616 0
M  V30 5619 O 538.174 -1.04569 -1.59593 0
M  V30 5620 C 535.314 -2.26003 -2.608 0
M  V30 5621 C 534.427 -3.53156 -2.48807 0
M  V30 5622 C 533.562 -3.7548 -3.7575 0
M  V30 5623 C 532.601 -4.96119 -3.58514 0
M  V30 5624 N 531.738 -5.14791 -4.77425 0
M  V30 5625 H 536.578 -2.82707 -0.942376 0
M  V30 5626 H 534.115 -1.39919 -0.454001 0
M  V30 5627 H 536.073 -2.431 -3.39055 0
M  V30 5628 H 534.703 -1.39546 -2.91079 0
M  V30 5629 H 533.755 -3.44207 -1.61944 0
M  V30 5630 H 535.067 -4.41565 -2.31996 0
M  V30 5631 H 534.221 -3.92718 -4.62447 0
M  V30 5632 H 532.96 -2.85368 -3.95495 0
M  V30 5633 H 531.965 -4.78823 -2.70201 0
M  V30 5634 H 533.19 -5.87724 -3.40231 0
M  V30 5635 H 531.136 -4.27623 -4.97468 0
M  V30 5636 H 531.053 -5.97347 -4.63371 0
M  V30 5637 H 532.321 -5.36471 -5.65525 0
M  V30 5638 N 536.55 0.480323 -1.50102 0
M  V30 5639 C 537.497 1.57946 -1.6829 0
M  V30 5640 C 538.467 1.57611 -0.524223 0
M  V30 5641 O 539.652 1.75282 -0.753709 0
M  V30 5642 C 536.792 2.95978 -1.77457 0
M  V30 5643 C 535.905 3.06173 -3.04766 0
M  V30 5644 C 535.04 4.35063 -3.04784 0
M  V30 5645 C 534.079 4.38966 -4.26586 0
M  V30 5646 N 533.216 5.59314 -4.24396 0
M  V30 5647 H 538.056 1.41743 -2.62131 0
M  V30 5648 H 535.593 0.689304 -1.2995 0
M  V30 5649 H 537.551 3.76011 -1.80752 0
M  V30 5650 H 536.181 3.10837 -0.870637 0
M  V30 5651 H 535.233 2.19071 -3.10986 0
M  V30 5652 H 536.545 3.04916 -3.9475 0
M  V30 5653 H 535.699 5.23436 -3.06757 0
M  V30 5654 H 534.438 4.38915 -2.12614 0
M  V30 5655 H 533.443 3.48992 -4.24835 0
M  V30 5656 H 534.668 4.36813 -5.19972 0
M  V30 5657 H 532.614 5.63969 -3.35074 0
M  V30 5658 H 532.531 5.5976 -5.08138 0
M  V30 5659 H 533.799 6.49837 -4.30502 0
M  V30 5660 N 538.028 1.39524 0.732853 0
M  V30 5661 C 538.938 1.40695 1.87729 0
M  V30 5662 C 539.954 0.301496 1.71368 0
M  V30 5663 O 541.13 0.543313 1.93933 0
M  V30 5664 C 538.195 1.25098 3.23344 0
M  V30 5665 C 537.256 2.45634 3.52083 0
M  V30 5666 C 536.489 2.30772 4.81228 0
M  V30 5667 O 536.712 1.31233 5.55098 0
M  V30 5668 O 535.646 3.19799 5.09914 0
M  V30 5669 H 539.472 2.37168 1.89697 0
M  V30 5670 H 537.057 1.20663 0.880959 0
M  V30 5671 H 538.939 1.18541 4.04383 0
M  V30 5672 H 537.614 0.317209 3.22142 0
M  V30 5673 H 536.521 2.57767 2.71122 0
M  V30 5674 H 537.854 3.37712 3.58066 0
M  V30 5675 N 539.506 -0.963266 1.24736 0
M  V30 5676 C 540.754 -1.70343 1.08755 0
M  V30 5677 C 541.075 -1.91387 -0.373619 0
M  V30 5678 O 540.345 -1.4948 -1.2662 0
M  V30 5679 H 538.925 -0.631224 0.399456 0
M  V30 5680 H 541.587 -1.15859 1.56725 0
M  V30 5681 H 540.683 -2.68616 1.58909 0
M  V30 5682 N 540.985 -1.06182 -1.16461 0
M  V30 5683 C 542.21 -0.798599 -1.91408 0
M  V30 5684 C 542.635 0.640987 -1.76842 0
M  V30 5685 O 541.993 1.44652 -1.09296 0
M  V30 5686 C 542.041 -1.19665 -3.40165 0
M  V30 5687 O 541.145 -0.334768 -4.11039 0
M  V30 5688 H 540.486 -0.291961 -0.596368 0
M  V30 5689 H 543.016 -1.41732 -1.47557 0
M  V30 5690 H 543.026 -1.16772 -3.90933 0
M  V30 5691 H 541.701 -2.24526 -3.50087 0
M  V30 5692 H 540.278 -0.425168 -3.70468 0
M  V30 5693 N 542.463 1.3308 -0.844243 0
M  V30 5694 C 543.691 2.01808 -0.456203 0
M  V30 5695 C 544.106 1.63498 0.944131 0
M  V30 5696 O 543.463 0.85102 1.61443 0
M  V30 5697 C 543.514 3.56922 -0.573513 0
M  V30 5698 O 543.235 3.93851 -1.91868 0
M  V30 5699 C 544.736 4.42922 -0.183125 0
M  V30 5700 H 541.956 0.646273 -0.180477 0
M  V30 5701 H 544.5 1.69891 -1.1383 0
M  V30 5702 H 542.655 3.87352 0.0607367 0
M  V30 5703 H 543.069 4.88564 -1.90802 0
M  V30 5704 H 544.543 5.51093 -0.316241 0
M  V30 5705 H 545.02 4.30386 0.875477 0
M  V30 5706 H 545.626 4.1786 -0.792027 0
M  V30 5707 N 543.941 0.601185 1.45683 0
M  V30 5708 C 544.891 -0.142686 2.27553 0
M  V30 5709 C 545.875 -0.844598 1.3695 0
M  V30 5710 O 547.067 -0.735644 1.60988 0
M  V30 5711 C 544.196 -1.14364 3.23691 0
M  V30 5712 C 543.282 -0.442894 4.21781 0
M  V30 5713 N 543.673 0.51189 5.03203 0
M  V30 5714 C 541.971 -0.691277 4.4061 0
M  V30 5715 C 542.672 0.92318 5.74328 0
M  V30 5716 N 541.648 0.268308 5.42937 0
M  V30 5717 H 545.45 0.590736 2.87902 0
M  V30 5718 H 542.964 0.424365 1.56757 0
M  V30 5719 H 544.961 -1.6909 3.8107 0
M  V30 5720 H 543.621 -1.87768 2.64902 0
M  V30 5721 H 544.632 0.888329 5.10225 0
M  V30 5722 H 541.309 -1.41049 3.92952 0
M  V30 5723 H 542.699 1.71029 6.49768 0
M  V30 5724 N 545.419 -1.53889 0.339982 0
M  V30 5725 C 546.367 -2.26391 -0.533822 0
M  V30 5726 C 547.361 -1.28404 -1.10493 0
M  V30 5727 O 548.567 -1.46124 -1.05108 0
M  V30 5728 H 544.942 -0.727385 -0.190828 0
M  V30 5729 H 546.913 -2.98233 0.0997484 0
M  V30 5730 C 545.662 -3.04707 -1.67479 0
M  V30 5731 H 544.985 -3.79934 -1.2446 0
M  V30 5732 H 546.425 -3.58657 -2.26144 0
M  V30 5733 C 544.884 -2.13989 -2.60212 0
M  V30 5734 O 545.414 -1.73361 -3.62366 0
M  V30 5735 N 543.62 -1.79141 -2.28816 0
M  V30 5736 H 543.167 -2.12378 -1.45785 0
M  V30 5737 H 543.125 -1.18725 -2.91121 0
M  V30 5738 N 546.897 -0.0685191 -1.57451 0
M  V30 5739 C 548.143 0.596247 -1.94465 0
M  V30 5740 C 548.498 1.67417 -0.948117 0
M  V30 5741 O 547.791 1.91576 0.0301056 0
M  V30 5742 C 547.985 1.22051 -3.35914 0
M  V30 5743 C 547.814 0.204586 -4.49234 0
M  V30 5744 C 546.584 -0.20959 -5.04865 0
M  V30 5745 C 548.782 -0.556872 -5.11276 0
M  V30 5746 N 546.764 -1.21656 -6.01725 0
M  V30 5747 C 548.135 -1.41642 -6.03604 0
M  V30 5748 C 550.19 -0.613297 -4.94108 0
M  V30 5749 C 548.893 -2.32737 -6.80607 0
M  V30 5750 C 550.919 -1.51174 -5.71752 0
M  V30 5751 C 550.281 -2.35898 -6.63726 0
M  V30 5752 H 546.38 0.189307 -0.75874 0
M  V30 5753 H 548.964 -0.144899 -1.9416 0
M  V30 5754 H 547.135 1.9316 -3.36963 0
M  V30 5755 H 548.867 1.84548 -3.60172 0
M  V30 5756 H 545.622 0.172871 -4.73284 0
M  V30 5757 H 546.046 -1.71746 -6.54853 0
M  V30 5758 H 550.688 0.0275228 -4.22791 0
M  V30 5759 H 548.406 -2.97856 -7.51204 0
M  V30 5760 H 551.992 -1.5602 -5.6049 0
M  V30 5761 H 550.872 -3.04291 -7.22756 0
M  V30 5762 N 548.375 1.56261 0.205012 0
M  V30 5763 C 549.307 1.90266 1.27795 0
M  V30 5764 C 550.32 0.792397 1.42214 0
M  V30 5765 O 551.509 1.07077 1.42817 0
M  V30 5766 C 548.609 2.11074 2.65143 0
M  V30 5767 C 547.782 3.42176 2.7246 0
M  V30 5768 C 546.841 3.52216 3.90936 0
M  V30 5769 O 545.867 4.25119 3.78501 0
M  V30 5770 N 547.069 2.84573 5.05963 0
M  V30 5771 H 549.834 2.82896 0.989434 0
M  V30 5772 H 547.395 1.57008 0.394981 0
M  V30 5773 H 549.387 2.15089 3.4281 0
M  V30 5774 H 547.957 1.2499 2.86524 0
M  V30 5775 H 547.177 3.50116 1.81142 0
M  V30 5776 H 548.465 4.28509 2.74331 0
M  V30 5777 H 547.863 2.25152 5.18963 0
M  V30 5778 H 546.42 2.94228 5.81613 0
M  V30 5779 N 549.853 -0.472356 1.50355 0
M  V30 5780 C 550.803 -1.56809 1.65514 0
M  V30 5781 C 551.787 -1.5261 0.509801 0
M  V30 5782 O 552.979 -1.59655 0.764145 0
M  V30 5783 C 550.108 -2.9526 1.75146 0
M  V30 5784 C 549.194 -3.04348 2.95353 0
M  V30 5785 N 549.585 -2.83253 4.19048 0
M  V30 5786 C 547.883 -3.35482 2.93884 0
M  V30 5787 C 548.584 -2.97273 5.00003 0
M  V30 5788 N 547.56 -3.27418 4.33934 0
M  V30 5789 H 551.362 -1.39197 2.58846 0
M  V30 5790 H 548.876 -0.67906 1.47521 0
M  V30 5791 H 550.873 -3.74044 1.8411 0
M  V30 5792 H 549.533 -3.1392 0.829717 0
M  V30 5793 H 550.544 -2.5886 4.48567 0
M  V30 5794 H 547.221 -3.60138 2.11204 0
M  V30 5795 H 548.611 -2.85214 6.08361 0
M  V30 5796 N 551.331 -1.39911 -0.725443 0
M  V30 5797 C 552.58 -1.36963 -1.48068 0
M  V30 5798 C 552.893 0.0284478 -1.95579 0
M  V30 5799 O 554.099 0.180535 -2.70899 0
M  V30 5800 C 552.555 -2.40664 -2.67598 0
M  V30 5801 C 552.163 -3.86234 -2.26997 0
M  V30 5802 C 553.907 -2.46807 -3.45379 0
M  V30 5803 C 551.814 -4.81554 -3.43307 0
M  V30 5804 H 550.744 -0.509223 -0.556065 0
M  V30 5805 H 553.395 -1.65602 -0.790454 0
M  V30 5806 H 551.777 -2.05109 -3.38742 0
M  V30 5807 H 552.951 -4.3088 -1.63337 0
M  V30 5808 H 551.266 -3.83475 -1.62284 0
M  V30 5809 H 553.863 -3.15213 -4.31909 0
M  V30 5810 H 554.206 -1.49552 -3.8851 0
M  V30 5811 H 554.739 -2.81303 -2.81271 0
M  V30 5812 H 551.478 -5.80106 -3.05217 0
M  V30 5813 H 550.998 -4.4158 -4.05915 0
M  V30 5814 H 552.677 -5.0091 -4.0951 0
M  V30 5815 N 552.809 0.956637 -1.25245 0
M  V30 5816 C 554.037 1.73571 -1.12608 0
M  V30 5817 C 554.452 1.86063 0.320324 0
M  V30 5818 O 553.809 1.35691 1.22042 0
M  V30 5819 C 553.86 3.15053 -1.77268 0
M  V30 5820 O 553.581 3.03174 -3.16255 0
M  V30 5821 C 555.082 4.09248 -1.70386 0
M  V30 5822 H 552.302 0.543955 -0.392879 0
M  V30 5823 H 554.846 1.20031 -1.65568 0
M  V30 5824 H 553.001 3.65543 -1.28284 0
M  V30 5825 H 553.415 3.9241 -3.48015 0
M  V30 5826 H 554.889 5.06138 -2.20291 0
M  V30 5827 H 555.366 4.34102 -0.667239 0
M  V30 5828 H 555.972 3.64672 -2.18849 0
M  V30 5829 N 554.287 1.06798 1.15896 0
M  V30 5830 C 555.564 0.701057 1.82605 0
M  V30 5831 C 555.944 -0.817066 1.94646 0
M  V30 5832 O 555.292 -1.72933 1.49353 0
M  V30 5833 C 555.502 1.40895 3.19296 0
M  V30 5834 C 556.85 1.55744 3.95005 0
M  V30 5835 O 557.874 1.36927 3.28831 0
M  V30 5836 O 556.733 1.86658 5.13635 0
M  V30 5837 H 553.827 0.248791 0.78869 0
M  V30 5838 H 556.373 1.16857 1.23055 0
M  V30 5839 H 555.145 2.4439 3.05596 0
M  V30 5840 H 554.768 0.931847 3.86526 0
M  V30 5841 N 555.766 -1.3263 0.851289 0
M  V30 5842 C 556.698 -2.27824 0.250757 0
M  V30 5843 C 557.711 -1.52285 -0.575598 0
M  V30 5844 O 558.9 -1.73946 -0.400638 0
M  V30 5845 C 556 -3.3232 -0.664571 0
M  V30 5846 C 555.173 -4.37221 0.125187 0
M  V30 5847 C 554.232 -5.21314 -0.715385 0
M  V30 5848 O 553.258 -5.69002 -0.150111 0
M  V30 5849 N 554.46 -5.43823 -2.03069 0
M  V30 5850 H 557.225 -2.79997 1.06873 0
M  V30 5851 H 554.786 -1.45455 0.710943 0
M  V30 5852 H 556.778 -3.85486 -1.23216 0
M  V30 5853 H 555.348 -2.80331 -1.38323 0
M  V30 5854 H 554.568 -3.84384 0.874199 0
M  V30 5855 H 555.856 -5.04399 0.667774 0
M  V30 5856 H 555.254 -5.06803 -2.51332 0
M  V30 5857 H 553.811 -5.99998 -2.54648 0
M  V30 5858 N 557.244 -0.608902 -1.45362 0
M  V30 5859 C 558.493 -0.10218 -2.01441 0
M  V30 5860 C 558.806 1.27546 -1.48295 0
M  V30 5861 O 560.012 1.87498 -1.96359 0
M  V30 5862 C 558.468 -0.131985 -3.59658 0
M  V30 5863 C 558.076 -1.50956 -4.21801 0
M  V30 5864 C 559.82 0.319427 -4.23296 0
M  V30 5865 C 557.727 -1.49568 -5.72174 0
M  V30 5866 H 556.657 -0.0344314 -0.753213 0
M  V30 5867 H 559.308 -0.764426 -1.6682 0
M  V30 5868 H 557.69 0.596939 -3.91475 0
M  V30 5869 H 558.864 -2.26029 -4.01556 0
M  V30 5870 H 557.179 -1.90318 -3.70362 0
M  V30 5871 H 559.776 0.349013 -5.3356 0
M  V30 5872 H 560.119 1.34237 -3.94064 0
M  V30 5873 H 560.652 -0.356273 -3.96201 0
M  V30 5874 H 557.391 -2.49626 -6.06108 0
M  V30 5875 H 556.911 -0.787542 -5.94607 0
M  V30 5876 H 558.59 -1.21989 -6.35396 0
M  V30 5877 N 558.722 1.53707 -0.348139 0
M  V30 5878 C 559.97 2.00591 0.246478 0
M  V30 5879 C 560.291 1.23753 1.50699 0
M  V30 5880 O 559.561 0.345964 1.92821 0
M  V30 5881 H 558.141 0.741053 0.0940679 0
M  V30 5882 H 560.803 1.89139 -0.470354 0
M  V30 5883 H 559.899 3.08297 0.485714 0
M  V30 5884 N 560.2 0.0768682 1.57412 0
M  V30 5885 C 561.133 -0.924685 2.08626 0
M  V30 5886 C 562.111 -1.28792 0.992542 0
M  V30 5887 O 563.295 -1.39634 1.26628 0
M  V30 5888 C 560.422 -2.23131 2.54814 0
M  V30 5889 C 559.468 -2.01928 3.75669 0
M  V30 5890 S 560.301 -1.27397 5.20125 0
M  V30 5891 C 561.457 -2.59329 5.69648 0
M  V30 5892 H 561.69 -0.488928 2.93252 0
M  V30 5893 H 559.223 -0.136014 1.538 0
M  V30 5894 H 561.181 -2.98226 2.82084 0
M  V30 5895 H 559.842 -2.63831 1.70447 0
M  V30 5896 H 559.035 -2.98639 4.05993 0
M  V30 5897 H 558.637 -1.34967 3.48798 0
M  V30 5898 H 560.929 -3.55394 5.76803 0
M  V30 5899 H 561.872 -2.33608 6.68456 0
M  V30 5900 H 562.28 -2.66767 4.9749 0
M  V30 5901 N 561.678 -1.56367 -0.196722 0
M  V30 5902 C 562.925 -1.80529 -0.917366 0
M  V30 5903 C 563.253 -0.649817 -1.83324 0
M  V30 5904 O 562.508 0.36451 -1.92275 0
M  V30 5905 C 562.807 -3.10663 -1.767 0
M  V30 5906 C 562.473 -4.3962 -1.00225 0
M  V30 5907 C 561.135 -4.74653 -0.791095 0
M  V30 5908 C 563.487 -5.1913 -0.464035 0
M  V30 5909 C 560.815 -5.86692 -0.0302155 0
M  V30 5910 C 563.167 -6.31964 0.283625 0
M  V30 5911 C 561.831 -6.65581 0.505813 0
M  V30 5912 H 561.101 -0.660602 -0.335688 0
M  V30 5913 H 563.748 -1.90615 -0.183844 0
M  V30 5914 H 562.053 -2.95807 -2.56915 0
M  V30 5915 H 563.75 -3.26563 -2.32718 0
M  V30 5916 H 560.34 -4.12127 -1.17684 0
M  V30 5917 H 564.524 -4.9248 -0.614575 0
M  V30 5918 H 559.78 -6.11211 0.151917 0
M  V30 5919 H 563.954 -6.92791 0.708057 0
M  V30 5920 H 561.581 -7.52239 1.0973 0
M  V30 5921 N 563.156 0.464375 -1.50603 0
M  V30 5922 C 564.396 1.22573 -1.6357 0
M  V30 5923 C 564.76 1.89111 -0.331834 0
M  V30 5924 O 565.961 2.66679 -0.336999 0
M  V30 5925 C 564.232 2.23643 -2.7878 0
M  V30 5926 S 565.791 3.08628 -3.1192 0
M  V30 5927 H 562.609 0.416058 -0.576556 0
M  V30 5928 H 565.211 0.521637 -1.88412 0
M  V30 5929 H 563.915 1.73354 -3.7199 0
M  V30 5930 H 563.446 2.98672 -2.56044 0
M  V30 5931 H 565.461 4.24904 -2.56264 0
M  V30 5932 N 564.634 1.40294 0.718013 0
M  V30 5933 C 565.881 1.3844 1.47786 0
M  V30 5934 C 566.209 -0.0140838 1.94495 0
M  V30 5935 O 565.464 -0.998165 1.68331 0
M  V30 5936 C 565.763 2.31814 2.72024 0
M  V30 5937 C 565.429 3.79117 2.44093 0
M  V30 5938 C 564.091 4.19249 2.36185 0
M  V30 5939 C 566.443 4.72212 2.20602 0
M  V30 5940 C 563.771 5.50516 2.02851 0
M  V30 5941 C 566.123 6.03775 1.88781 0
M  V30 5942 C 564.787 6.42953 1.79354 0
M  V30 5943 H 564.057 0.506588 0.540786 0
M  V30 5944 H 566.704 1.72929 0.822663 0
M  V30 5945 H 565.009 1.90501 3.42369 0
M  V30 5946 H 566.706 2.27664 3.30106 0
M  V30 5947 H 563.296 3.47318 2.51133 0
M  V30 5948 H 567.48 4.42026 2.25669 0
M  V30 5949 H 562.736 5.79776 1.94088 0
M  V30 5950 H 566.91 6.75428 1.69617 0
M  V30 5951 H 564.537 7.44584 1.53291 0
M  V30 5952 N 566.112 -0.949982 1.2575 0
M  V30 5953 C 567.34 -1.72972 1.13527 0
M  V30 5954 C 567.755 -1.8623 -0.310453 0
M  V30 5955 O 567.112 -1.36336 -1.2132 0
M  V30 5956 C 567.163 -3.14108 1.78936 0
M  V30 5957 O 566.884 -3.01493 3.17858 0
M  V30 5958 C 568.385 -4.08338 1.72554 0
M  V30 5959 H 565.605 -0.541864 0.395758 0
M  V30 5960 H 568.149 -1.19151 1.66202 0
M  V30 5961 H 566.304 -3.64858 1.30221 0
M  V30 5962 H 566.718 -3.90559 3.50092 0
M  V30 5963 H 568.192 -5.04963 2.22973 0
M  V30 5964 H 568.669 -4.33742 0.690251 0
M  V30 5965 H 569.275 -3.63506 2.2078 0
M  V30 5966 N 567.59 -1.07411 -1.15328 0
M  V30 5967 C 568.838 -0.796073 -1.85761 0
M  V30 5968 C 569.159 0.679864 -1.82764 0
M  V30 5969 O 568.429 1.49242 -1.269 0
M  V30 5970 H 567.009 -0.291495 -0.687779 0
M  V30 5971 H 569.671 -1.35799 -1.39802 0
M  V30 5972 H 568.767 -1.13114 -2.90881 0
M  V30 5973 N 569.068 1.32177 -0.85831 0
M  V30 5974 C 569.998 2.31282 -0.321041 0
M  V30 5975 C 570.979 1.59841 0.581786 0
M  V30 5976 O 572.164 1.87619 0.501262 0
M  V30 5977 C 569.294 3.4385 0.48832 0
M  V30 5978 C 568.248 4.26799 -0.320391 0
M  V30 5979 C 567.574 5.31164 0.613934 0
M  V30 5980 C 568.874 4.98829 -1.54813 0
M  V30 5981 H 570.568 2.76469 -1.14915 0
M  V30 5982 H 568.114 1.32916 -0.554028 0
M  V30 5983 H 570.067 4.12224 0.874626 0
M  V30 5984 H 568.791 2.97401 1.34983 0
M  V30 5985 H 567.45 3.60077 -0.688497 0
M  V30 5986 H 567.098 4.80967 1.47239 0
M  V30 5987 H 566.798 5.8755 0.0768097 0
M  V30 5988 H 568.322 6.024 0.997336 0
M  V30 5989 H 569.736 5.59864 -1.23392 0
M  V30 5990 H 568.133 5.64957 -2.02346 0
M  V30 5991 H 569.203 4.26483 -2.30739 0
M  V30 5992 N 570.547 0.616602 1.45037 0
M  V30 5993 C 571.494 -0.0969439 2.30596 0
M  V30 5994 C 572.464 -0.851151 1.42635 0
M  V30 5995 O 573.649 -0.835092 1.71554 0
M  V30 5996 C 570.789 -1.08234 3.27688 0
M  V30 5997 C 569.902 -0.328072 4.30752 0
M  V30 5998 C 569.037 -1.30399 5.14946 0
M  V30 5999 C 568.076 -0.538049 6.09731 0
M  V30 6000 N 567.213 -1.46371 6.86673 0
M  V30 6001 H 572.053 0.63864 2.91076 0
M  V30 6002 H 569.59 0.326733 1.43425 0
M  V30 6003 H 571.548 -1.66688 3.82454 0
M  V30 6004 H 570.178 -1.78523 2.68941 0
M  V30 6005 H 569.23 0.372136 3.78575 0
M  V30 6006 H 570.542 0.269142 4.98073 0
M  V30 6007 H 569.696 -1.96032 5.74157 0
M  V30 6008 H 568.435 -1.93514 4.47665 0
M  V30 6009 H 567.44 0.131852 5.49642 0
M  V30 6010 H 568.665 0.0881732 6.79043 0
M  V30 6011 H 566.611 -2.08233 6.22073 0
M  V30 6012 H 566.528 -0.920152 7.50379 0
M  V30 6013 H 567.796 -2.10932 7.50418 0
M  V30 6014 N 572.025 -1.5352 0.356285 0
M  V30 6015 C 573.436 -1.86282 -0.12492 0
M  V30 6016 C 573.787 -1.27717 -1.48939 0
M  V30 6017 O 572.912 -0.595614 -2.08042 0
M  V30 6018 C 573.507 -3.37995 -0.23345 0
M  V30 6019 C 572.066 -3.70588 -0.658899 0
M  V30 6020 C 571.213 -2.76581 0.199596 0
M  V30 6021 H 574.164 -1.47901 0.575423 0
M  V30 6022 H 574.185 -3.65475 -1.0587 0
M  V30 6023 H 573.697 -3.8059 0.759776 0
M  V30 6024 H 571.798 -3.33544 -1.66069 0
M  V30 6025 H 571.911 -4.77076 -0.439957 0
M  V30 6026 H 570.275 -2.52552 -0.330076 0
M  V30 6027 H 571.058 -3.22008 1.19019 0
M  V30 6028 N 573.503 -0.0852151 -1.57369 0
M  V30 6029 C 574.413 0.891712 -2.16992 0
M  V30 6030 C 575.429 1.3174 -1.13669 0
M  V30 6031 O 576.605 1.38735 -1.45995 0
M  V30 6032 C 573.67 2.13635 -2.73059 0
M  V30 6033 C 572.731 1.7658 -3.91303 0
M  V30 6034 C 571.964 2.95111 -4.44686 0
M  V30 6035 O 572.187 4.09539 -3.97032 0
M  V30 6036 O 571.121 2.74149 -5.35841 0
M  V30 6037 H 574.947 0.414477 -3.00858 0
M  V30 6038 H 572.532 0.138598 -1.48756 0
M  V30 6039 H 574.414 2.86595 -3.08935 0
M  V30 6040 H 573.089 2.6043 -1.92244 0
M  V30 6041 H 571.996 1.00831 -3.60255 0
M  V30 6042 H 573.329 1.34557 -4.7345 0
M  V30 6043 N 574.981 1.5647 0.188427 0
M  V30 6044 C 575.913 1.91611 1.25769 0
M  V30 6045 C 576.926 0.807436 1.41366 0
M  V30 6046 O 578.115 1.08586 1.41673 0
M  V30 6047 C 575.215 2.13874 2.6289 0
M  V30 6048 C 574.388 3.45047 2.68815 0
M  V30 6049 C 573.447 3.56342 3.87178 0
M  V30 6050 O 572.473 4.29109 3.73971 0
M  V30 6051 N 573.675 2.89924 5.02916 0
M  V30 6052 H 576.44 2.8393 0.959373 0
M  V30 6053 H 574.001 1.57418 0.378306 0
M  V30 6054 H 575.993 2.18713 3.4051 0
M  V30 6055 H 574.563 1.28022 2.85183 0
M  V30 6056 H 573.783 3.52017 1.77419 0
M  V30 6057 H 575.071 4.31395 2.6977 0
M  V30 6058 H 574.469 2.30644 5.16546 0
M  V30 6059 H 573.026 3.0038 5.78459 0
M  V30 6060 N 576.459 -0.456382 1.50847 0
M  V30 6061 C 577.705 -1.20914 1.62811 0
M  V30 6062 C 578.038 -1.91301 0.334304 0
M  V30 6063 O 577.313 -1.82775 -0.665098 0
M  V30 6064 C 577.596 -2.24122 2.81853 0
M  V30 6065 C 577.449 -1.57944 4.21158 0
M  V30 6066 C 578.768 -3.25295 2.96431 0
M  V30 6067 H 575.887 -0.438233 0.592554 0
M  V30 6068 H 578.529 -0.50091 1.83278 0
M  V30 6069 H 576.679 -2.84524 2.64534 0
M  V30 6070 H 578.351 -1.01025 4.50102 0
M  V30 6071 H 576.594 -0.882185 4.24735 0
M  V30 6072 H 577.265 -2.33014 5.00408 0
M  V30 6073 H 579.741 -2.7493 3.12335 0
M  V30 6074 H 578.617 -3.94822 3.81322 0
M  V30 6075 H 578.878 -3.90286 2.07676 0
M  V30 6076 N 577.937 -1.40673 -0.710563 0
M  V30 6077 C 578.847 -1.43663 -1.85467 0
M  V30 6078 C 579.863 -0.328721 -1.70867 0
M  V30 6079 O 581.039 -0.574098 -1.93044 0
M  V30 6080 C 578.104 -1.30226 -3.21313 0
M  V30 6081 C 577.165 -2.51204 -3.48131 0
M  V30 6082 C 576.398 -2.38398 -4.77495 0
M  V30 6083 O 576.621 -1.40048 -5.5294 0
M  V30 6084 O 575.555 -3.2787 -5.04762 0
M  V30 6085 H 579.381 -2.40156 -1.859 0
M  V30 6086 H 576.966 -1.22049 -0.861652 0
M  V30 6087 H 578.848 -1.2496 -4.02446 0
M  V30 6088 H 577.523 -0.368419 -3.21597 0
M  V30 6089 H 576.43 -2.62048 -2.66987 0
M  V30 6090 H 577.763 -3.43366 -3.52648 0
M  V30 6091 N 579.415 0.9433 -1.26252 0
M  V30 6092 C 580.831 1.21644 -1.03319 0
M  V30 6093 C 581.031 2.0003 0.242983 0
M  V30 6094 O 580.087 2.33838 0.952688 0
M  V30 6095 C 581.4 1.97978 -2.2633 0
M  V30 6096 C 582.948 2.10978 -2.31209 0
M  V30 6097 C 583.423 2.90713 -3.53907 0
M  V30 6098 N 584.914 2.98287 -3.54371 0
M  V30 6099 C 585.649 3.60406 -4.45976 0
M  V30 6100 N 585.145 4.24043 -5.47868 0
M  V30 6101 N 586.938 3.57658 -4.33633 0
M  V30 6102 H 579.089 0.419221 -2.08222 0
M  V30 6103 H 581.352 0.247995 -0.914988 0
M  V30 6104 H 581.058 1.47788 -3.19142 0
M  V30 6105 H 580.932 2.9865 -2.30408 0
M  V30 6106 H 583.319 2.6036 -1.38913 0
M  V30 6107 H 583.4 1.09575 -2.31143 0
M  V30 6108 H 583.044 2.42018 -4.46531 0
M  V30 6109 H 582.974 3.92367 -3.5122 0
M  V30 6110 H 585.465 2.53044 -2.80673 0
M  V30 6111 H 585.778 4.69334 -6.13959 0
M  V30 6112 H 584.123 4.22637 -5.51728 0
M  V30 6113 H 587.314 3.07134 -3.53251 0
M  V30 6114 H 587.487 4.05782 -5.05218 0
M  V30 6115 N 580.893 1.08022 1.14757 0
M  V30 6116 C 581.823 0.728248 2.21853 0
M  V30 6117 C 582.804 -0.287486 1.67653 0
M  V30 6118 O 583.989 -0.158727 1.9355 0
M  V30 6119 C 581.119 0.132549 3.47047 0
M  V30 6120 C 580.073 1.07619 4.14249 0
M  V30 6121 C 579.399 0.342907 5.33599 0
M  V30 6122 C 580.699 2.41268 4.63235 0
M  V30 6123 H 582.393 1.62365 2.51551 0
M  V30 6124 H 579.939 0.782125 1.20908 0
M  V30 6125 H 581.892 -0.125665 4.21213 0
M  V30 6126 H 580.616 -0.797971 3.16702 0
M  V30 6127 H 579.275 1.31944 3.42033 0
M  V30 6128 H 578.923 -0.59129 4.99513 0
M  V30 6129 H 578.623 0.971955 5.79506 0
M  V30 6130 H 580.147 0.0926538 6.1053 0
M  V30 6131 H 581.561 2.21232 5.28894 0
M  V30 6132 H 579.958 2.9983 5.19829 0
M  V30 6133 H 581.028 3.03079 3.78512 0
M  V30 6134 N 582.371 -1.3172 0.865308 0
M  V30 6135 C 583.62 -1.96145 0.470098 0
M  V30 6136 C 583.933 -1.69182 -0.981674 0
M  V30 6137 O 585.139 -2.27431 -1.48281 0
M  V30 6138 C 583.595 -3.51129 0.789732 0
M  V30 6139 C 583.203 -3.86938 2.25795 0
M  V30 6140 C 584.947 -4.2197 0.462765 0
M  V30 6141 C 582.854 -5.35012 2.52024 0
M  V30 6142 H 581.784 -0.734105 0.172065 0
M  V30 6143 H 584.435 -1.49959 1.05757 0
M  V30 6144 H 582.817 -3.95781 0.131571 0
M  V30 6145 H 583.991 -3.5326 2.95879 0
M  V30 6146 H 582.306 -3.29149 2.55049 0
M  V30 6147 H 584.903 -5.30904 0.636019 0
M  V30 6148 H 585.246 -4.12005 -0.59645 0
M  V30 6149 H 585.779 -3.82936 1.07727 0
M  V30 6150 H 582.518 -5.50008 3.56611 0
M  V30 6151 H 582.038 -5.70058 1.8653 0
M  V30 6152 H 583.717 -6.0222 2.36515 0
M  V30 6153 N 583.85 -0.624285 -1.44708 0
M  V30 6154 C 584.797 0.0847135 -2.30644 0
M  V30 6155 C 585.767 0.843575 -1.43084 0
M  V30 6156 O 586.952 0.825982 -1.71995 0
M  V30 6157 C 584.091 1.06495 -3.28257 0
M  V30 6158 C 583.205 0.305224 -4.3092 0
M  V30 6159 C 582.34 1.27667 -5.1563 0
M  V30 6160 C 581.379 0.505706 -6.10007 0
M  V30 6161 N 580.516 1.42727 -6.8744 0
M  V30 6162 H 585.356 -0.654068 -2.90733 0
M  V30 6163 H 582.893 -0.334334 -1.4325 0
M  V30 6164 H 584.851 1.64658 -3.83332 0
M  V30 6165 H 583.481 1.77094 -2.69884 0
M  V30 6166 H 582.533 -0.392207 -3.78373 0
M  V30 6167 H 583.845 -0.295553 -4.97924 0
M  V30 6168 H 582.999 1.92984 -5.75189 0
M  V30 6169 H 581.738 1.91137 -4.48685 0
M  V30 6170 H 580.743 -0.160999 -5.49564 0
M  V30 6171 H 581.968 -0.124183 -6.78986 0
M  V30 6172 H 579.913 2.04931 -6.23169 0
M  V30 6173 H 579.831 0.880345 -7.50857 0
M  V30 6174 H 581.099 2.0695 -7.51526 0
M  V30 6175 N 585.328 1.53329 -0.364422 0
M  V30 6176 C 586.238 2.29414 0.490552 0
M  V30 6177 C 587.254 1.35335 1.09363 0
M  V30 6178 O 588.43 1.68391 1.10483 0
M  V30 6179 C 585.495 3.06772 1.61529 0
M  V30 6180 C 584.556 4.16516 1.03986 0
M  V30 6181 C 583.789 4.90176 2.111 0
M  V30 6182 O 584.012 4.63687 3.32191 0
M  V30 6183 O 582.946 5.76134 1.74222 0
M  V30 6184 H 586.772 3.03428 -0.12856 0
M  V30 6185 H 584.357 1.48843 -0.128837 0
M  V30 6186 H 586.239 3.55082 2.26924 0
M  V30 6187 H 584.914 2.35596 2.21983 0
M  V30 6188 H 583.821 3.7246 0.349856 0
M  V30 6189 H 585.154 4.89855 0.4799 0
M  V30 6190 N 586.806 0.0935595 1.57322 0
M  V30 6191 C 588.053 -0.570509 1.94297 0
M  V30 6192 C 588.381 -1.68286 0.97519 0
M  V30 6193 O 587.636 -1.95699 -0.00548655 0
M  V30 6194 C 587.935 -1.16692 3.37813 0
M  V30 6195 C 587.601 -0.178509 4.50547 0
M  V30 6196 C 586.263 0.0933475 4.81109 0
M  V30 6197 C 588.615 0.496472 5.1883 0
M  V30 6198 C 585.943 1.0469 5.77284 0
M  V30 6199 C 588.295 1.43849 6.16028 0
M  V30 6200 C 586.959 1.71859 6.44997 0
M  V30 6201 H 586.229 -0.208764 0.710984 0
M  V30 6202 H 588.876 0.169066 1.90752 0
M  V30 6203 H 587.181 -1.98271 3.37929 0
M  V30 6204 H 588.878 -1.6884 3.63722 0
M  V30 6205 H 585.468 -0.400584 4.26724 0
M  V30 6206 H 589.652 0.299584 4.95395 0
M  V30 6207 H 584.908 1.27094 5.98044 0
M  V30 6208 H 589.082 1.96734 6.68034 0
M  V30 6209 H 586.709 2.45906 7.19329 0
M  V30 6210 N 588.284 -1.56567 -0.180126 0
M  V30 6211 C 589.509 -1.85975 -0.918041 0
M  V30 6212 C 589.934 -0.678888 -1.75422 0
M  V30 6213 O 589.292 0.372168 -1.77439 0
M  V30 6214 C 589.34 -3.13731 -1.77779 0
M  V30 6215 O 588.444 -2.95335 -2.87838 0
M  V30 6216 H 587.785 -0.61196 -0.257683 0
M  V30 6217 H 590.315 -2.03798 -0.180923 0
M  V30 6218 H 590.325 -3.4491 -2.17948 0
M  V30 6219 H 589 -3.99293 -1.16352 0
M  V30 6220 H 587.577 -2.7549 -2.51316 0
M  V30 6221 N 589.762 0.448376 -1.51087 0
M  V30 6222 C 591.011 1.19561 -1.62444 0
M  V30 6223 C 591.324 1.92602 -0.341151 0
M  V30 6224 O 592.53 2.69439 -0.333936 0
M  V30 6225 C 590.986 2.17373 -2.8684 0
M  V30 6226 C 590.594 1.5003 -4.22131 0
M  V30 6227 C 592.338 2.92597 -3.0755 0
M  V30 6228 C 590.245 2.46262 -5.37689 0
M  V30 6229 H 589.175 0.449975 -0.605011 0
M  V30 6230 H 591.826 0.463735 -1.77544 0
M  V30 6231 H 590.208 2.93948 -2.65349 0
M  V30 6232 H 591.382 0.790886 -4.53962 0
M  V30 6233 H 589.697 0.870011 -4.0721 0
M  V30 6234 H 592.294 3.64663 -3.91056 0
M  V30 6235 H 592.637 3.53306 -2.20183 0
M  V30 6236 H 593.17 2.23131 -3.29329 0
M  V30 6237 H 589.909 1.90258 -6.27281 0
M  V30 6238 H 589.429 3.15289 -5.10248 0
M  V30 6239 H 591.108 3.07623 -5.6919 0
M  V30 6240 N 591.24 1.41047 0.703093 0
M  V30 6241 C 592.47 1.43133 1.48985 0
M  V30 6242 C 592.878 0.0328537 1.89171 0
M  V30 6243 O 592.221 -0.956469 1.56835 0
M  V30 6244 C 592.283 2.26991 2.78775 0
M  V30 6245 C 591.947 3.7525 2.60837 0
M  V30 6246 C 592.944 4.67591 2.27276 0
M  V30 6247 C 590.629 4.19208 2.76712 0
M  V30 6248 C 592.623 6.01877 2.09817 0
M  V30 6249 C 590.31 5.53561 2.5887 0
M  V30 6250 C 591.308 6.4471 2.25472 0
M  V30 6251 O 590.996 7.76584 2.07778 0
M  V30 6252 H 590.728 0.489788 0.465922 0
M  V30 6253 H 593.282 1.85886 0.873822 0
M  V30 6254 H 591.512 1.79038 3.42757 0
M  V30 6255 H 593.201 2.20867 3.40547 0
M  V30 6256 H 593.967 4.34923 2.14633 0
M  V30 6257 H 589.846 3.48572 3.01693 0
M  V30 6258 H 593.39 6.72986 1.83671 0
M  V30 6259 H 589.287 5.85811 2.71102 0
M  V30 6260 H 590.055 7.87649 2.22601 0
M  V30 6261 N 592.718 -0.936591 1.26751 0
M  V30 6262 C 593.651 -2.03619 1.03027 0
M  V30 6263 C 594.629 -1.62534 -0.0464619 0
M  V30 6264 O 595.813 -1.88251 0.0968873 0
M  V30 6265 C 592.94 -3.3402 0.561072 0
M  V30 6266 C 591.986 -3.9408 1.63105 0
M  V30 6267 S 592.819 -4.27782 3.22122 0
M  V30 6268 C 593.975 -5.61277 2.76982 0
M  V30 6269 H 594.208 -2.23429 1.96129 0
M  V30 6270 H 591.741 -1.07857 1.10482 0
M  V30 6271 H 593.699 -4.09424 0.297031 0
M  V30 6272 H 592.36 -3.12147 -0.349741 0
M  V30 6273 H 591.553 -4.88154 1.25386 0
M  V30 6274 H 591.155 -3.25227 1.84671 0
M  V30 6275 H 593.447 -6.40189 2.21731 0
M  V30 6276 H 594.39 -6.03887 3.69766 0
M  V30 6277 H 594.798 -5.21374 2.16402 0
M  V30 6278 N 594.196 -1.08629 -1.14182 0
M  V30 6279 C 595.424 -0.838889 -1.8913 0
M  V30 6280 C 595.839 0.609153 -1.78703 0
M  V30 6281 O 595.196 1.41876 -1.14794 0
M  V30 6282 C 595.247 -1.25477 -3.39025 0
M  V30 6283 O 594.968 -2.64601 -3.49167 0
M  V30 6284 C 596.469 -1.03856 -4.30963 0
M  V30 6285 H 593.689 -0.302377 -0.599007 0
M  V30 6286 H 596.233 -1.44615 -1.44592 0
M  V30 6287 H 594.388 -0.691571 -3.81177 0
M  V30 6288 H 594.802 -2.81922 -4.42289 0
M  V30 6289 H 596.276 -1.37892 -5.345 0
M  V30 6290 H 596.753 0.0242522 -4.39193 0
M  V30 6291 H 597.359 -1.58731 -3.94569 0
M  V30 6292 N 595.674 1.31259 -0.872281 0
M  V30 6293 C 596.621 2.28459 -0.327857 0
M  V30 6294 C 597.591 1.55831 0.574957 0
M  V30 6295 O 598.776 1.83965 0.506101 0
M  V30 6296 C 595.916 3.41985 0.462644 0
M  V30 6297 C 595.029 4.29458 -0.467949 0
M  V30 6298 C 594.164 5.30131 0.336903 0
M  V30 6299 C 593.203 6.0925 -0.58997 0
M  V30 6300 N 592.34 7.01872 0.178775 0
M  V30 6301 H 597.18 2.74414 -1.16193 0
M  V30 6302 H 594.717 1.34994 -0.584376 0
M  V30 6303 H 596.675 4.06547 0.936759 0
M  V30 6304 H 595.305 2.97134 1.2614 0
M  V30 6305 H 594.357 3.65318 -1.06052 0
M  V30 6306 H 595.669 4.84677 -1.17856 0
M  V30 6307 H 594.823 6.0038 0.873427 0
M  V30 6308 H 593.562 4.75573 1.08079 0
M  V30 6309 H 592.567 5.37889 -1.13823 0
M  V30 6310 H 593.792 6.65894 -1.33275 0
M  V30 6311 H 591.738 6.49721 0.905435 0
M  V30 6312 H 591.655 7.54522 -0.472452 0
M  V30 6313 H 592.923 7.76382 0.696454 0
M  V30 6314 N 597.152 0.631951 1.44375 0
M  V30 6315 C 598.429 0.067646 1.95483 0
M  V30 6316 C 598.809 -1.40683 1.57389 0
M  V30 6317 O 598.157 -2.12167 0.848375 0
M  V30 6318 C 598.367 0.291392 3.47781 0
M  V30 6319 C 599.715 0.185028 4.24197 0
M  V30 6320 O 600.739 0.222803 3.55503 0
M  V30 6321 O 599.598 0.0906642 5.46425 0
M  V30 6322 H 596.692 -0.0218379 0.826712 0
M  V30 6323 H 599.238 0.703711 1.54421 0
M  V30 6324 H 598.01 1.31449 3.68561 0
M  V30 6325 H 597.633 -0.378772 3.95792 0
M  V30 6326 N 598.631 -1.53133 0.372548 0
M  V30 6327 C 599.879 -2.00958 -0.214534 0
M  V30 6328 C 600.2 -1.26135 -1.48711 0
M  V30 6329 O 599.47 -0.376597 -1.92246 0
M  V30 6330 H 598.05 -0.742456 -0.0822664 0
M  V30 6331 H 600.712 -1.88367 0.500385 0
M  V30 6332 H 599.808 -3.09031 -0.436605 0
M  V30 6333 N 600.109 -0.101901 -1.5727 0
M  V30 6334 C 601.525 0.254739 -1.57554 0
M  V30 6335 C 601.725 1.67937 -1.11352 0
M  V30 6336 O 600.781 2.39722 -0.793081 0
M  V30 6337 C 602.094 0.036975 -3.00677 0
M  V30 6338 C 603.642 0.104199 -3.12827 0
M  V30 6339 C 604.117 -0.0856565 -4.5792 0
M  V30 6340 N 605.608 -0.0310498 -4.6319 0
M  V30 6341 C 606.343 -0.153099 -5.73196 0
M  V30 6342 N 605.839 -0.330364 -6.92012 0
M  V30 6343 N 607.632 -0.0938854 -5.62022 0
M  V30 6344 H 599.783 -1.03263 -1.85609 0
M  V30 6345 H 602.046 -0.405251 -0.857016 0
M  V30 6346 H 601.752 -0.947254 -3.38703 0
M  V30 6347 H 601.626 0.776335 -3.69124 0
M  V30 6348 H 604.013 1.07894 -2.74669 0
M  V30 6349 H 604.094 -0.666762 -2.46957 0
M  V30 6350 H 603.738 -1.05729 -4.96773 0
M  V30 6351 H 603.668 0.705082 -5.21858 0
M  V30 6352 H 606.159 0.103141 -3.77759 0
M  V30 6353 H 606.472 -0.41482 -7.71686 0
M  V30 6354 H 604.817 -0.366119 -6.94035 0
M  V30 6355 H 608.008 0.0435168 -4.6808 0
M  V30 6356 H 608.181 -0.19245 -6.47714 0
M  V30 6357 N 601.587 1.56661 0.17182 0
M  V30 6358 C 602.836 1.81158 0.886831 0
M  V30 6359 C 603.149 0.679072 1.83434 0
M  V30 6360 O 604.355 0.808964 2.59168 0
M  V30 6361 C 602.811 3.20999 1.6275 0
M  V30 6362 C 602.419 4.42117 0.723652 0
M  V30 6363 C 604.163 3.5479 2.33076 0
M  V30 6364 C 602.07 5.7298 1.46452 0
M  V30 6365 H 601 0.675543 0.334899 0
M  V30 6366 H 603.651 1.82967 0.139765 0
M  V30 6367 H 602.033 3.13506 2.4193 0
M  V30 6368 H 603.207 4.60789 -0.0311485 0
M  V30 6369 H 601.522 4.16197 0.130063 0
M  V30 6370 H 604.119 4.49806 2.89099 0
M  V30 6371 H 604.462 2.79646 3.08389 0
M  V30 6372 H 604.995 3.63834 1.6084 0
M  V30 6373 H 601.734 6.51152 0.753729 0
M  V30 6374 H 601.254 5.58285 2.19266 0
M  V30 6375 H 602.933 6.14916 2.01214 0
M  V30 6376 N 603.065 -0.440357 1.51323 0
M  V30 6377 C 604.29 -1.21716 1.67928 0
M  V30 6378 C 604.715 -1.84328 0.374826 0
M  V30 6379 O 604.073 -1.68675 -0.664706 0
M  V30 6380 C 604.121 -2.27914 2.79442 0
M  V30 6381 O 603.225 -3.33325 2.42834 0
M  V30 6382 H 602.566 -0.35674 0.560029 0
M  V30 6383 H 605.096 -0.520417 1.97871 0
M  V30 6384 H 605.106 -2.72746 3.03436 0
M  V30 6385 H 603.781 -1.8172 3.741 0
M  V30 6386 H 602.358 -2.9399 2.294 0
M  V30 6387 N 604.543 -1.41418 -0.695603 0
M  V30 6388 C 605.789 -1.40982 -1.4578 0
M  V30 6389 C 606.122 -0.0187763 -1.94191 0
M  V30 6390 O 605.397 0.95346 -1.69527 0
M  V30 6391 C 605.68 -2.41657 -2.66972 0
M  V30 6392 C 605.533 -3.89869 -2.24327 0
M  V30 6393 C 606.852 -2.39589 -3.69168 0
M  V30 6394 H 603.971 -0.513405 -0.528757 0
M  V30 6395 H 606.613 -1.72693 -0.792275 0
M  V30 6396 H 604.763 -2.14746 -3.23754 0
M  V30 6397 H 606.435 -4.27683 -1.72872 0
M  V30 6398 H 604.678 -4.04737 -1.56111 0
M  V30 6399 H 605.349 -4.55857 -3.11285 0
M  V30 6400 H 607.825 -2.63471 -3.2206 0
M  V30 6401 H 606.701 -3.12044 -4.51575 0
M  V30 6402 H 606.962 -1.41447 -4.18862 0
M  V30 6403 N 606.021 0.929856 -1.27246 0
M  V30 6404 C 606.984 2.01172 -1.09829 0
M  V30 6405 C 607.984 1.60743 -0.0429687 0
M  V30 6406 O 609.174 1.71813 -0.287373 0
M  V30 6407 C 606.306 3.34191 -0.673003 0
M  V30 6408 H 607.499 2.18054 -2.05895 0
M  V30 6409 H 605.052 1.11036 -1.10003 0
M  V30 6410 H 605.787 3.23009 0.289134 0
M  V30 6411 H 605.572 3.64892 -1.43515 0
M  V30 6412 H 607.062 4.13646 -0.573323 0
M  V30 6413 N 607.499 1.09233 1.13605 0
M  V30 6414 C 608.747 0.825525 1.84471 0
M  V30 6415 C 609.068 -0.650702 1.83823 0
M  V30 6416 O 608.338 -1.47204 1.29259 0
M  V30 6417 H 606.918 0.3024 0.683054 0
M  V30 6418 H 609.58 1.38006 1.37624 0
M  V30 6419 H 608.676 1.17727 2.89045 0
M  V30 6420 N 608.977 -1.30795 0.87923 0
M  V30 6421 C 610.223 -1.96653 0.495519 0
M  V30 6422 C 610.556 -1.69282 -0.951703 0
M  V30 6423 O 609.831 -0.994374 -1.6716 0
M  V30 6424 C 610.114 -3.51898 0.764174 0
M  V30 6425 C 609.967 -3.88808 2.2616 0
M  V30 6426 C 611.286 -4.39462 0.236825 0
M  V30 6427 H 608.405 -0.7143 0.181507 0
M  V30 6428 H 611.047 -1.54765 1.10217 0
M  V30 6429 H 609.197 -3.87709 0.247841 0
M  V30 6430 H 610.869 -3.63051 2.8459 0
M  V30 6431 H 609.112 -3.37082 2.73053 0
M  V30 6432 H 609.783 -4.97086 2.4002 0
M  V30 6433 H 612.259 -4.10528 0.678683 0
M  V30 6434 H 611.135 -5.47018 0.454176 0
M  V30 6435 H 611.396 -4.33621 -0.861683 0
M  V30 6436 N 610.455 -0.639598 -1.44038 0
M  V30 6437 C 611.683 -0.154811 -2.0632 0
M  V30 6438 C 612.098 1.17406 -1.47856 0
M  V30 6439 O 611.455 1.72193 -0.604638 0
M  V30 6440 C 611.506 -0.0429958 -3.61474 0
M  V30 6441 O 611.227 -1.31932 -4.17763 0
M  V30 6442 C 612.728 0.469486 -4.40807 0
M  V30 6443 H 609.948 -0.0835862 -0.665773 0
M  V30 6444 H 612.492 -0.876397 -1.84769 0
M  V30 6445 H 610.647 0.629075 -3.82258 0
M  V30 6446 H 611.061 -1.16965 -5.11292 0
M  V30 6447 H 612.535 0.496712 -5.49761 0
M  V30 6448 H 613.012 1.49819 -4.12857 0
M  V30 6449 H 613.618 -0.169624 -4.24962 0
M  V30 6450 N 611.933 1.52934 -0.380664 0
M  V30 6451 C 613.158 2.06363 0.207157 0
M  V30 6452 C 613.583 1.25122 1.4045 0
M  V30 6453 O 612.941 0.274062 1.79217 0
M  V30 6454 C 612.989 3.56162 0.563996 0
M  V30 6455 O 612.093 3.77552 1.65917 0
M  V30 6456 H 611.434 0.663468 0.0265859 0
M  V30 6457 H 613.964 1.9719 -0.545635 0
M  V30 6458 H 613.974 3.99453 0.830752 0
M  V30 6459 H 612.649 4.14732 -0.311427 0
M  V30 6460 H 611.226 3.46154 1.3868 0
M  V30 6461 N 613.412 0.11024 1.57214 0
M  V30 6462 C 614.637 -0.561179 1.99664 0
M  V30 6463 C 615.062 -1.59985 0.989266 0
M  V30 6464 O 614.42 -1.81255 -0.0402399 0
M  V30 6465 C 614.468 -1.17189 3.41027 0
M  V30 6466 O 613.572 -2.28755 3.4314 0
M  V30 6467 H 612.913 -0.14101 0.648855 0
M  V30 6468 H 615.443 0.196128 2.03658 0
M  V30 6469 H 615.453 -1.50954 3.79047 0
M  V30 6470 H 614.128 -0.411041 4.13864 0
M  V30 6471 H 612.705 -1.96495 3.16929 0
M  V30 6472 N 614.89 -1.56749 -0.16351 0
M  V30 6473 C 615.838 -1.97939 -1.22159 0
M  V30 6474 C 616.832 -0.869288 -1.45395 0
M  V30 6475 O 618.038 -1.05443 -1.45883 0
M  V30 6476 H 614.413 -0.629869 -0.410815 0
M  V30 6477 H 616.384 -2.86115 -0.847381 0
M  V30 6478 C 615.133 -2.36206 -2.55151 0
M  V30 6479 H 614.456 -3.2117 -2.38097 0
M  V30 6480 H 615.896 -2.68863 -3.27854 0
M  V30 6481 C 614.355 -1.20841 -3.14482 0
M  V30 6482 O 614.885 -0.500258 -3.98573 0
M  V30 6483 N 613.091 -0.976943 -2.73686 0
M  V30 6484 H 612.638 -1.55457 -2.05404 0
M  V30 6485 H 612.596 -0.206912 -3.13718 0
M  V30 6486 N 616.368 0.432326 -1.51554 0
M  V30 6487 C 617.614 1.18309 -1.64714 0
M  V30 6488 C 617.947 1.90745 -0.364696 0
M  V30 6489 O 617.222 1.8381 0.635936 0
M  V30 6490 C 617.505 2.1961 -2.85383 0
M  V30 6491 C 617.358 1.51223 -4.23617 0
M  V30 6492 C 618.677 3.20538 -3.01569 0
M  V30 6493 H 615.796 0.428751 -0.599451 0
M  V30 6494 H 618.438 0.471689 -1.84052 0
M  V30 6495 H 616.588 2.8028 -2.69027 0
M  V30 6496 H 618.26 0.938516 -4.51652 0
M  V30 6497 H 616.503 0.814501 -4.26085 0
M  V30 6498 H 617.174 2.25024 -5.04052 0
M  V30 6499 H 619.65 2.69926 -3.16669 0
M  V30 6500 H 618.526 3.88706 -3.87555 0
M  V30 6501 H 618.787 3.86933 -2.13859 0
M  V30 6502 N 617.846 1.41785 0.688094 0
M  V30 6503 C 619.094 1.41264 1.4453 0
M  V30 6504 C 619.415 0.0252946 1.94984 0
M  V30 6505 O 618.685 -0.934081 1.72197 0
M  V30 6506 H 617.265 0.519998 0.536294 0
M  V30 6507 H 619.927 1.7709 0.813941 0
M  V30 6508 H 619.023 2.10439 2.30482 0
M  V30 6509 N 619.324 -0.923095 1.27737 0
M  V30 6510 C 620.554 -1.70277 1.17001 0
M  V30 6511 C 620.962 -1.87188 -0.275199 0
M  V30 6512 O 620.305 -1.39195 -1.19877 0
M  V30 6513 C 620.367 -3.11976 1.78637 0
M  V30 6514 C 620.031 -3.18386 3.27841 0
M  V30 6515 C 621.028 -3.00287 4.2441 0
M  V30 6516 C 618.713 -3.41198 3.68632 0
M  V30 6517 C 620.707 -3.04896 5.59747 0
M  V30 6518 C 618.394 -3.4544 5.04097 0
M  V30 6519 C 619.392 -3.27309 5.99465 0
M  V30 6520 O 619.08 -3.31295 7.32461 0
M  V30 6521 H 618.812 -0.539366 0.407505 0
M  V30 6522 H 621.366 -1.16446 1.69202 0
M  V30 6523 H 619.596 -3.67308 1.20919 0
M  V30 6524 H 621.285 -3.7193 1.6255 0
M  V30 6525 H 622.051 -2.825 3.94232 0
M  V30 6526 H 617.93 -3.54359 2.94873 0
M  V30 6527 H 621.474 -2.90662 6.34162 0
M  V30 6528 H 617.371 -3.62753 5.33929 0
M  V30 6529 H 618.139 -3.47719 7.40968 0
M  V30 6530 N 620.802 -1.09834 -1.13024 0
M  V30 6531 C 621.732 -0.763451 -2.20666 0
M  V30 6532 C 622.713 0.260778 -1.68089 0
M  V30 6533 O 623.898 0.127915 -1.93778 0
M  V30 6534 C 621.028 -0.187744 -3.46792 0
M  V30 6535 C 619.982 -1.14196 -4.12484 0
M  V30 6536 C 619.308 -0.427755 -5.32986 0
M  V30 6537 C 620.608 -2.48607 -4.59338 0
M  V30 6538 H 622.302 -1.66347 -2.48936 0
M  V30 6539 H 619.848 -0.801261 -1.19649 0
M  V30 6540 H 621.801 0.0586375 -4.21359 0
M  V30 6541 H 620.525 0.747485 -3.17931 0
M  V30 6542 H 619.184 -1.37369 -3.3989 0
M  V30 6543 H 618.832 0.511747 -5.0039 0
M  V30 6544 H 618.532 -1.06403 -5.77886 0
M  V30 6545 H 620.056 -0.189772 -6.10305 0
M  V30 6546 H 621.47 -2.29618 -5.25308 0
M  V30 6547 H 619.867 -3.08062 -5.14993 0
M  V30 6548 H 620.937 -3.09062 -3.73642 0
M  V30 6549 N 622.28 1.30327 -0.886154 0
M  V30 6550 C 623.243 2.26376 -0.358687 0
M  V30 6551 C 624.243 1.52845 0.499498 0
M  V30 6552 O 625.433 1.71483 0.306485 0
M  V30 6553 C 622.565 3.37379 0.488726 0
M  V30 6554 H 623.758 2.74547 -1.20681 0
M  V30 6555 H 621.311 1.41536 -0.663113 0
M  V30 6556 H 622.046 2.94526 1.35739 0
M  V30 6557 H 621.831 3.91897 -0.126003 0
M  V30 6558 H 623.321 4.08868 0.84952 0
M  V30 6559 N 623.758 0.647228 1.43697 0
M  V30 6560 C 624.708 -0.0702191 2.27892 0
M  V30 6561 C 625.692 -0.800601 1.39568 0
M  V30 6562 O 626.884 -0.684055 1.63247 0
M  V30 6563 C 624.013 -1.04008 3.27165 0
M  V30 6564 C 623.099 -0.308484 4.22977 0
M  V30 6565 N 623.49 0.671721 5.0132 0
M  V30 6566 C 621.788 -0.550751 4.42586 0
M  V30 6567 C 622.489 1.10543 5.711 0
M  V30 6568 N 621.465 0.440903 5.41809 0
M  V30 6569 H 625.267 0.682031 2.85877 0
M  V30 6570 H 622.781 0.474022 1.55328 0
M  V30 6571 H 624.778 -1.56881 3.86256 0
M  V30 6572 H 623.438 -1.79246 2.70742 0
M  V30 6573 H 624.449 1.0502 5.0714 0
M  V30 6574 H 621.126 -1.28476 3.97241 0
M  V30 6575 H 622.516 1.91614 6.43998 0
M  V30 6576 N 625.236 -1.5273 0.388769 0
M  V30 6577 C 626.199 -2.25043 -0.434544 0
M  V30 6578 C 627.199 -1.26661 -0.990644 0
M  V30 6579 O 628.389 -1.50762 -0.872731 0
M  V30 6580 C 625.521 -3.00507 -1.60961 0
M  V30 6581 H 626.714 -2.99242 0.198549 0
M  V30 6582 H 624.267 -1.55664 0.140875 0
M  V30 6583 H 625.002 -2.30607 -2.28015 0
M  V30 6584 H 624.787 -3.72716 -1.21757 0
M  V30 6585 H 626.277 -3.55413 -2.19251 0
M  V30 6586 N 626.714 -0.118576 -1.57153 0
M  V30 6587 C 627.963 0.539339 -1.94355 0
M  V30 6588 C 628.276 1.67858 -1.00415 0
M  V30 6589 O 629.482 2.39922 -1.27081 0
M  V30 6590 C 627.938 1.01082 -3.45414 0
M  V30 6591 C 627.546 -0.0999402 -4.47889 0
M  V30 6592 C 629.29 1.64013 -3.91535 0
M  V30 6593 C 627.197 0.388212 -5.90124 0
M  V30 6594 H 626.127 0.205247 -0.725527 0
M  V30 6595 H 628.778 -0.19836 -1.82425 0
M  V30 6596 H 627.16 1.80292 -3.52577 0
M  V30 6597 H 628.334 -0.876189 -4.52393 0
M  V30 6598 H 626.649 -0.635885 -4.11516 0
M  V30 6599 H 629.246 2.01649 -4.95219 0
M  V30 6600 H 629.589 2.51836 -3.31488 0
M  V30 6601 H 630.122 0.913439 -3.87171 0
M  V30 6602 H 626.861 -0.453963 -6.53926 0
M  V30 6603 H 626.381 1.13095 -5.89041 0
M  V30 6604 H 628.06 0.849574 -6.41398 0
M  V30 6605 N 628.193 1.56834 0.155195 0
M  V30 6606 C 629.143 1.94061 1.19684 0
M  V30 6607 C 630.127 0.810851 1.38975 0
M  V30 6608 O 631.319 1.07422 1.40675 0
M  V30 6609 C 628.448 2.31778 2.53247 0
M  V30 6610 C 627.534 3.51305 2.37583 0
M  V30 6611 N 627.925 4.68081 1.9166 0
M  V30 6612 C 626.223 3.56228 2.6836 0
M  V30 6613 C 626.924 5.50193 1.88845 0
M  V30 6614 N 625.9 4.91676 2.31852 0
M  V30 6615 H 629.702 2.81826 0.833747 0
M  V30 6616 H 627.216 1.58284 0.363328 0
M  V30 6617 H 629.213 2.56649 3.28538 0
M  V30 6618 H 627.873 1.4536 2.90346 0
M  V30 6619 H 628.884 4.91993 1.6175 0
M  V30 6620 H 625.561 2.8033 3.09389 0
M  V30 6621 H 626.951 6.53801 1.54901 0
M  V30 6622 N 629.671 -0.424282 1.51781 0
M  V30 6623 C 630.603 -1.53457 1.70246 0
M  V30 6624 C 631.616 -1.52004 0.582967 0
M  V30 6625 O 632.805 -1.56544 0.857683 0
M  V30 6626 C 629.905 -2.92368 1.71389 0
M  V30 6627 C 629.078 -3.1818 3.00133 0
M  V30 6628 C 628.137 -4.36884 2.9329 0
M  V30 6629 O 627.163 -4.34901 3.67219 0
M  V30 6630 N 628.365 -5.4117 2.10036 0
M  V30 6631 H 631.13 -1.38017 2.66029 0
M  V30 6632 H 628.691 -0.613394 1.4983 0
M  V30 6633 H 630.683 -3.6982 1.64362 0
M  V30 6634 H 629.253 -3.0134 0.831449 0
M  V30 6635 H 628.473 -2.28908 3.20928 0
M  V30 6636 H 629.761 -3.32261 3.85331 0
M  V30 6637 H 629.159 -5.45623 1.49373 0
M  V30 6638 H 627.716 -6.17425 2.08878 0
M  V30 6639 N 631.149 -1.42148 -0.680565 0
M  V30 6640 C 632.395 -1.42521 -1.44277 0
M  V30 6641 C 632.728 -0.0393718 -1.9416 0
M  V30 6642 O 632.003 0.935425 -1.70529 0
M  V30 6643 C 632.286 -2.44475 -2.64394 0
M  V30 6644 C 632.139 -3.92226 -2.20179 0
M  V30 6645 C 633.458 -2.43491 -3.66606 0
M  V30 6646 H 630.577 -0.518985 -0.523282 0
M  V30 6647 H 633.219 -1.73524 -0.773914 0
M  V30 6648 H 631.369 -2.18168 -3.21458 0
M  V30 6649 H 633.041 -4.29493 -1.68327 0
M  V30 6650 H 631.284 -4.0637 -1.5181 0
M  V30 6651 H 631.955 -4.59133 -3.06433 0
M  V30 6652 H 634.431 -2.66872 -3.19247 0
M  V30 6653 H 633.307 -3.16816 -4.4824 0
M  V30 6654 H 633.568 -1.45881 -4.17338 0
M  V30 6655 N 632.627 0.916307 -1.28225 0
M  V30 6656 C 633.855 1.69901 -1.18073 0
M  V30 6657 C 634.27 1.86988 0.260968 0
M  V30 6658 O 633.627 1.39505 1.17663 0
M  V30 6659 C 633.678 3.09254 -1.87201 0
M  V30 6660 O 633.399 2.92959 -3.2574 0
M  V30 6661 C 634.9 4.0362 -1.83319 0
M  V30 6662 H 632.12 0.531181 -0.409985 0
M  V30 6663 H 634.664 1.14703 -1.69303 0
M  V30 6664 H 632.819 3.61277 -1.39848 0
M  V30 6665 H 633.233 3.81139 -3.60324 0
M  V30 6666 H 634.707 4.98873 -2.36282 0
M  V30 6667 H 635.184 4.3176 -0.805007 0
M  V30 6668 H 635.79 3.57524 -2.3034 0
M  V30 6669 N 634.105 1.10431 1.1244 0
M  V30 6670 C 635.052 0.753103 2.18167 0
M  V30 6671 C 636.022 -0.270549 1.63882 0
M  V30 6672 O 637.207 -0.149837 1.90211 0
M  V30 6673 C 634.347 0.191046 3.44571 0
M  V30 6674 C 633.46 1.26999 4.12911 0
M  V30 6675 C 632.595 0.669586 5.26963 0
M  V30 6676 C 631.634 1.72912 5.87169 0
M  V30 6677 N 630.771 1.14898 6.92635 0
M  V30 6678 H 635.611 1.65892 2.47556 0
M  V30 6679 H 633.148 0.828631 1.21541 0
M  V30 6680 H 635.106 -0.152712 4.1692 0
M  V30 6681 H 633.736 -0.677997 3.15599 0
M  V30 6682 H 632.788 1.73087 3.3874 0
M  V30 6683 H 634.1 2.07204 4.53727 0
M  V30 6684 H 633.254 0.275274 6.06075 0
M  V30 6685 H 631.993 -0.163895 4.87425 0
M  V30 6686 H 630.998 2.13286 5.06744 0
M  V30 6687 H 632.223 2.56544 6.28778 0
M  V30 6688 H 630.169 0.336956 6.55134 0
M  V30 6689 H 630.086 1.88786 7.32049 0
M  V30 6690 H 631.354 0.78121 7.75576 0
M  V30 6691 O 635.622 -1.24743 1.02574 0
M  V30 6692 H 636.313 -1.80996 0.689934 0
M  V30 END ATOM
M  V30 BEGIN BOND
M  V30 END BOND
M  V30 END CTAB
M  END
$$$$
