drugbank_target|P06730 Eukaryotic translation initiation factor 4E (DB01649; DB01960; DB02716; DB05165; DB08217)
 OpenBabel12092119443D

  0  0  0     0  0            999 V3000
M  V30 BEGIN CTAB
M  V30 COUNTS 3489 3534 0 0 0
M  V30 BEGIN ATOM
M  V30 1 H -0.908 1.98254 -0.117106 0
M  V30 2 N 0 1.576 0 0
M  V30 3 C 0.933 2.03868 1.02534 0
M  V30 4 C 1.911 0.928543 1.3348 0
M  V30 5 O 3.095 1.19667 1.45644 0
M  V30 6 C 0.222 2.43627 2.35294 0
M  V30 7 C -0.732 3.65373 2.2001 0
M  V30 8 S 0.101 5.13292 1.52614 0
M  V30 9 C 1.257 5.56322 2.86805 0
M  V30 10 H 1.49 2.90518 0.631377 0
M  V30 11 H -0.977 1.52953 0.210867 0
M  V30 12 H 0.981 2.67203 3.11629 0
M  V30 13 H -0.358 1.57376 2.7183 0
M  V30 14 H -1.165 3.90944 3.18086 0
M  V30 15 H -1.563 3.418 1.51819 0
M  V30 16 H 0.729 5.58782 3.83104 0
M  V30 17 H 1.672 6.56266 2.65933 0
M  V30 18 H 2.08 4.83886 2.90714 0
M  V30 19 N 1.4781 -0.272755 1.55222 0
M  V30 20 C 2.4411 -1.32041 1.87344 0
M  V30 21 C 3.4411 -1.42342 0.74803 0
M  V30 22 O 4.6311 -1.41488 1.0162 0
M  V30 23 C 1.7631 -2.70173 2.07893 0
M  V30 24 H 2.9561 -1.04789 2.80997 0
M  V30 25 H 0.5091 -0.51083 1.47717 0
M  V30 26 H 1.2441 -3.02605 1.16622 0
M  V30 27 H 1.0291 -2.64082 2.89833 0
M  V30 28 H 2.5191 -3.45869 2.34017 0
M  V30 29 N 2.9562 -1.48159 -0.537278 0
M  V30 30 C 4.1842 -1.59454 -1.31841 0
M  V30 31 C 4.5992 -0.252065 -1.8711 0
M  V30 32 O 3.9562 0.757621 -1.66031 0
M  V30 33 C 4.0072 -2.63546 -2.47439 0
M  V30 34 O 3.7282 -3.92583 -1.94449 0
M  V30 35 C 5.2292 -2.85212 -3.39366 0
M  V30 36 H 2.4492 -0.53785 -0.401196 0
M  V30 37 H 4.9932 -1.93932 -0.648891 0
M  V30 38 H 3.1482 -2.31946 -3.1029 0
M  V30 39 H 3.5622 -4.49629 -2.70063 0
M  V30 40 H 5.0362 -3.61863 -4.16844 0
M  V30 41 H 5.5132 -1.93765 -3.94147 0
M  V30 42 H 6.1192 -3.18086 -2.82314 0
M  V30 43 N 4.4343 0.785586 -1.36625 0
M  V30 44 C 5.6803 1.54591 -1.31261 0
M  V30 45 C 6.0133 1.93906 0.106823 0
M  V30 46 O 5.2883 1.63007 1.06108 0
M  V30 47 C 5.5713 2.82038 -2.23889 0
M  V30 48 C 5.4243 2.49066 -3.74548 0
M  V30 49 C 6.7433 3.83887 -2.15217 0
M  V30 50 H 3.8623 0.560846 -0.478143 0
M  V30 51 H 6.5043 0.902278 -1.67209 0
M  V30 52 H 4.6543 3.36961 -1.93363 0
M  V30 53 H 6.3263 2.00164 -4.15611 0
M  V30 54 H 4.5693 1.81954 -3.93796 0
M  V30 55 H 5.2403 3.40109 -4.34776 0
M  V30 56 H 7.7163 3.38421 -2.42096 0
M  V30 57 H 6.5923 4.70806 -2.82193 0
M  V30 58 H 6.8533 4.27131 -1.14068 0
M  V30 59 N 5.9124 1.20967 1.01018 0
M  V30 60 C 6.8224 0.980157 2.13143 0
M  V30 61 C 7.8384 -0.0660665 1.73875 0
M  V30 62 O 9.0144 0.122821 2.01025 0
M  V30 63 C 6.0794 0.54216 3.42435 0
M  V30 64 C 5.1404 1.65999 3.95908 0
M  V30 65 C 4.3734 1.2428 5.19028 0
M  V30 66 O 4.5964 0.114196 5.70286 0
M  V30 67 O 3.5304 2.05271 5.65816 0
M  V30 68 H 7.3564 1.91913 2.35379 0
M  V30 69 H 4.9414 0.994099 1.11526 0
M  V30 70 H 6.8234 0.30744 4.20277 0
M  V30 71 H 5.4984 -0.36815 3.216 0
M  V30 72 H 4.4054 1.94906 3.19316 0
M  V30 73 H 5.7384 2.54753 4.21143 0
M  V30 74 N 7.3905 -1.2043 1.01659 0
M  V30 75 C 8.8015 -1.71517 0.737482 0
M  V30 76 C 9.1525 -1.81547 -0.743973 0
M  V30 77 O 8.2775 -1.47803 -1.58061 0
M  V30 78 C 8.8725 -3.11515 1.33206 0
M  V30 79 C 7.4315 -3.59912 1.10183 0
M  V30 80 C 6.5785 -2.37116 1.43776 0
M  V30 81 H 9.5295 -1.05444 1.18606 0
M  V30 82 H 9.5505 -3.73575 0.722636 0
M  V30 83 H 9.0625 -3.04182 2.41028 0
M  V30 84 H 7.1635 -3.72577 0.0412756 0
M  V30 85 H 7.2765 -4.44731 1.78188 0
M  V30 86 H 5.6405 -2.39857 0.856778 0
M  V30 87 H 6.4235 -2.32424 2.52654 0
M  V30 88 N 8.8686 -0.792821 -1.36206 0
M  V30 89 C 9.7786 -0.194808 -2.3379 0
M  V30 90 C 10.7946 0.654869 -1.61206 0
M  V30 91 O 11.9706 0.569856 -1.9317 0
M  V30 92 C 9.0356 0.657721 -3.40404 0
M  V30 93 C 8.0966 -0.210849 -4.28782 0
M  V30 94 C 7.3296 0.601086 -5.30304 0
M  V30 95 O 7.5526 1.83682 -5.40016 0
M  V30 96 O 6.4866 -0.000808277 -6.019 0
M  V30 97 H 10.3126 -1.00172 -2.86704 0
M  V30 98 H 7.8976 -0.554341 -1.38735 0
M  V30 99 H 9.7796 1.14375 -4.05581 0
M  V30 100 H 8.4546 1.44247 -2.89784 0
M  V30 101 H 7.3616 -0.743714 -3.66633 0
M  V30 102 H 8.6946 -0.959195 -4.82763 0
M  V30 103 N 10.3467 1.47872 -0.545128 0
M  V30 104 C 11.5747 2.06889 -0.021084 0
M  V30 105 C 11.9897 1.39955 1.2672 0
M  V30 106 O 11.3467 0.492036 1.75742 0
M  V30 107 C 11.3977 3.60996 0.190817 0
M  V30 108 O 11.1187 4.25419 -1.04644 0
M  V30 109 C 12.6197 4.36849 0.753521 0
M  V30 110 H 9.8397 0.669785 -0.0403635 0
M  V30 111 H 12.3837 1.90049 -0.755095 0
M  V30 112 H 10.5387 3.77391 0.87492 0
M  V30 113 H 10.9527 5.17785 -0.836611 0
M  V30 114 H 12.4267 5.45399 0.851139 0
M  V30 115 H 12.9037 4.02306 1.762 0
M  V30 116 H 13.5097 4.25169 0.105503 0
M  V30 117 N 11.8248 0.280983 1.55075 0
M  V30 118 C 13.0528 -0.337293 2.04132 0
M  V30 119 C 13.4678 -1.4903 1.15912 0
M  V30 120 O 12.8248 -1.81606 0.180459 0
M  V30 121 C 12.8758 -0.812706 3.52246 0
M  V30 122 O 12.5968 0.294387 4.3711 0
M  V30 123 C 14.0978 -1.4982 4.17216 0
M  V30 124 H 11.3178 -0.0761638 0.666663 0
M  V30 125 H 13.8618 0.414787 2.00249 0
M  V30 126 H 12.0168 -1.51486 3.56554 0
M  V30 127 H 12.4308 -0.0721325 5.2445 0
M  V30 128 H 13.9048 -1.7822 5.22438 0
M  V30 129 H 14.3818 -2.43168 3.65741 0
M  V30 130 H 14.9878 -0.839742 4.16927 0
M  V30 131 N 13.3029 -1.57598 0.00835791 0
M  V30 132 C 14.7139 -1.7892 -0.53333 0
M  V30 133 C 15.0649 -0.916609 -1.73473 0
M  V30 134 O 14.1899 -0.121336 -2.1606 0
M  V30 135 C 14.7849 -3.24488 -0.974313 0
M  V30 136 C 13.3439 -3.46878 -1.46125 0
M  V30 137 C 12.4909 -2.74157 -0.416302 0
M  V30 138 H 15.4419 -1.56958 0.234495 0
M  V30 139 H 15.4629 -3.3306 -1.83988 0
M  V30 140 H 14.9749 -3.87972 -0.099718 0
M  V30 141 H 13.0759 -2.8862 -2.35646 0
M  V30 142 H 13.1889 -4.55572 -1.48295 0
M  V30 143 H 11.5529 -2.39022 -0.87981 0
M  V30 144 H 12.3359 -3.40345 0.44947 0
M  V30 145 N 14.781 0.264519 -1.55364 0
M  V30 146 C 16.009 1.013 -1.80405 0
M  V30 147 C 16.424 1.79618 -0.581622 0
M  V30 148 O 15.781 1.76879 0.449468 0
M  V30 149 C 15.832 1.96487 -3.03439 0
M  V30 150 O 15.553 1.21341 -4.20961 0
M  V30 151 C 17.054 2.83079 -3.41147 0
M  V30 152 H 14.274 0.298875 -0.600762 0
M  V30 153 H 16.818 0.292736 -2.02394 0
M  V30 154 H 14.973 2.63965 -2.83551 0
M  V30 155 H 15.387 1.85573 -4.90574 0
M  V30 156 H 16.861 3.4565 -4.30384 0
M  V30 157 H 17.338 3.53286 -2.60932 0
M  V30 158 H 17.944 2.2108 -3.63323 0
M  V30 159 N 16.2591 1.48442 0.529413 0
M  V30 160 C 17.6701 1.5002 1.11134 0
M  V30 161 C 18.0211 0.27031 1.94329 0
M  V30 162 O 17.1461 -0.622507 2.07253 0
M  V30 163 C 17.7411 2.71834 2.02217 0
M  V30 164 C 16.3001 2.76283 2.55627 0
M  V30 165 C 15.4471 2.43542 1.326 0
M  V30 166 H 18.3981 1.5555 0.314641 0
M  V30 167 H 18.4191 2.50384 2.8651 0
M  V30 168 H 17.9311 3.61331 1.41639 0
M  V30 169 H 16.0321 1.90995 3.19924 0
M  V30 170 H 16.1451 3.77725 2.94721 0
M  V30 171 H 14.5091 1.94709 1.64196 0
M  V30 172 H 15.2921 3.3528 0.737734 0
M  V30 173 N 17.7372 -0.778329 1.37039 0
M  V30 174 C 18.6852 -1.91278 1.32345 0
M  V30 175 C 19.6792 -1.68051 0.213331 0
M  V30 176 O 20.8852 -1.75922 0.38098 0
M  V30 177 H 17.2602 -0.628909 0.412283 0
M  V30 178 H 19.2312 -1.92355 2.28127 0
M  V30 179 C 17.9802 -3.28455 1.14073 0
M  V30 180 H 17.3032 -3.46901 1.98746 0
M  V30 181 H 18.7432 -4.08152 1.14837 0
M  V30 182 C 17.2022 -3.36548 -0.154015 0
M  V30 183 O 17.7322 -3.85186 -1.13993 0
M  V30 184 N 15.9382 -2.89894 -0.202475 0
M  V30 185 H 15.4852 -2.50504 0.600476 0
M  V30 186 H 15.4432 -2.9569 -1.06841 0
M  V30 187 N 19.2153 -1.21501 -1.00376 0
M  V30 188 C 20.6263 -1.03146 -1.55621 0
M  V30 189 C 20.9773 0.408375 -1.91903 0
M  V30 190 O 20.1023 1.29177 -1.73616 0
M  V30 191 C 20.6973 -1.86612 -2.82775 0
M  V30 192 C 19.2563 -1.72586 -3.34501 0
M  V30 193 C 18.4033 -1.83747 -2.07683 0
M  V30 194 H 21.3543 -1.35505 -0.826081 0
M  V30 195 H 21.3753 -1.3771 -3.54706 0
M  V30 196 H 20.8873 -2.91399 -2.56336 0
M  V30 197 H 18.9883 -0.704877 -3.65872 0
M  V30 198 H 19.1013 -2.54623 -4.05837 0
M  V30 199 H 17.4653 -1.27069 -2.20739 0
M  V30 200 H 18.2483 -2.90044 -1.83655 0
M  V30 201 N 20.6934 1.19889 -1.02296 0
M  V30 202 C 22.1044 1.71124 -0.746568 0
M  V30 203 C 22.4554 1.81939 0.734335 0
M  V30 204 O 21.5804 1.48639 1.57275 0
M  V30 205 C 22.1754 3.10804 -1.34857 0
M  V30 206 C 20.7344 3.59323 -1.1209 0
M  V30 207 C 19.8814 2.3635 -1.45031 0
M  V30 208 H 22.8324 1.04813 -1.19163 0
M  V30 209 H 22.8534 3.73186 -0.742437 0
M  V30 210 H 22.3654 3.029 -2.42638 0
M  V30 211 H 20.4664 3.7255 -0.0610337 0
M  V30 212 H 20.5794 4.4378 -1.80544 0
M  V30 213 H 18.9434 2.39399 -0.869487 0
M  V30 214 H 19.7264 2.31081 -2.53883 0
M  V30 215 N 22.1715 0.800033 1.35784 0
M  V30 216 C 23.3995 0.389606 2.03199 0
M  V30 217 C 23.8145 -0.997375 1.60306 0
M  V30 218 O 23.1715 -1.64154 0.797481 0
M  V30 219 C 23.2225 0.455855 3.58614 0
M  V30 220 O 22.9435 1.78815 3.99946 0
M  V30 221 C 24.4445 0.0374032 4.43284 0
M  V30 222 H 21.6645 0.159132 0.651857 0
M  V30 223 H 24.2085 1.08183 1.73541 0
M  V30 224 H 22.3635 -0.188057 3.86943 0
M  V30 225 H 22.7775 1.74636 4.94573 0
M  V30 226 H 24.2515 0.134882 5.51835 0
M  V30 227 H 24.7285 -1.01651 4.27275 0
M  V30 228 H 25.3345 0.654215 4.20238 0
M  V30 229 N 23.6496 -1.47581 0.552962 0
M  V30 230 C 24.8776 -2.06875 0.0320556 0
M  V30 231 C 25.2926 -1.40625 -1.25976 0
M  V30 232 O 24.6496 -0.501349 -1.75479 0
M  V30 233 C 24.7006 -3.61092 -0.17167 0
M  V30 234 O 24.4216 -4.24858 1.06899 0
M  V30 235 C 25.9226 -4.37242 -0.730344 0
M  V30 236 H 23.1426 -0.669561 0.043915 0
M  V30 237 H 25.6866 -1.89646 0.765163 0
M  V30 238 H 23.8416 -3.7785 -0.854894 0
M  V30 239 H 24.2556 -5.17334 0.864059 0
M  V30 240 H 25.7296 -5.45842 -0.822203 0
M  V30 241 H 26.2066 -4.03235 -1.74064 0
M  V30 242 H 26.8126 -4.25219 -0.0829543 0
M  V30 243 N 25.1277 -0.289203 -1.54924 0
M  V30 244 C 26.0377 0.601863 -2.26748 0
M  V30 245 C 27.0537 1.15834 -1.2984 0
M  V30 246 O 28.2297 1.18564 -1.62802 0
M  V30 247 C 25.2947 1.76299 -2.98529 0
M  V30 248 C 24.3557 1.24178 -4.10948 0
M  V30 249 C 23.5887 2.34757 -4.79296 0
M  V30 250 O 23.8117 3.54411 -4.46933 0
M  V30 251 O 22.7457 2.02115 -5.66951 0
M  V30 252 H 26.5717 0.0195879 -3.03694 0
M  V30 253 H 24.1567 -0.0560868 -1.49295 0
M  V30 254 H 26.0387 2.43973 -3.43592 0
M  V30 255 H 24.7137 2.33209 -2.24488 0
M  V30 256 H 23.6207 0.531104 -3.70311 0
M  V30 257 H 24.9537 0.718252 -4.86931 0
M  V30 258 N 26.6058 1.57591 -0.0167156 0
M  V30 259 C 27.5158 2.1291 0.98521 0
M  V30 260 C 28.5318 1.07834 1.36557 0
M  V30 261 O 29.7078 1.39826 1.44951 0
M  V30 262 C 26.7728 2.63512 2.25305 0
M  V30 263 C 25.8338 3.83256 1.93426 0
M  V30 264 C 25.0668 4.31435 3.14165 0
M  V30 265 O 25.2898 3.78851 4.26413 0
M  V30 266 O 24.2238 5.23416 2.97186 0
M  V30 267 H 28.0498 2.98772 0.544888 0
M  V30 268 H 25.6348 1.48012 0.203141 0
M  V30 269 H 27.5168 2.96183 2.99756 0
M  V30 270 H 26.1918 1.8074 2.68542 0
M  V30 271 H 25.0988 3.55531 1.16398 0
M  V30 272 H 26.4318 4.67153 1.55013 0
M  V30 273 N 28.0839 -0.256276 1.55502 0
M  V30 274 C 28.9939 -1.33882 1.92647 0
M  V30 275 C 30.0099 -1.53159 0.825727 0
M  V30 276 O 31.1859 -1.66963 1.12629 0
M  V30 277 C 28.2509 -2.6751 2.20543 0
M  V30 278 C 27.3119 -2.56836 3.43997 0
M  V30 279 C 26.5449 -3.84092 3.70553 0
M  V30 280 O 26.7679 -4.85545 2.99336 0
M  V30 281 O 25.7019 -3.83288 4.64084 0
M  V30 282 H 29.5279 -1.05374 2.84833 0
M  V30 283 H 27.1129 -0.456237 1.42263 0
M  V30 284 H 28.9949 -3.46492 2.39835 0
M  V30 285 H 27.6699 -2.9577 1.31536 0
M  V30 286 H 26.5769 -1.76172 3.30021 0
M  V30 287 H 27.9099 -2.33523 4.33275 0
M  V30 288 N 29.562 -1.4872 -0.521534 0
M  V30 289 C 30.509 -1.63871 -1.62527 0
M  V30 290 C 31.479 -0.480559 -1.58996 0
M  V30 291 O 32.664 -0.705085 -1.77294 0
M  V30 292 C 29.804 -1.69227 -3.00759 0
M  V30 293 C 28.917 -2.96207 -3.14461 0
M  V30 294 C 28.052 -2.92671 -4.43303 0
M  V30 295 C 27.091 -4.14318 -4.50563 0
M  V30 296 N 26.228 -4.0881 -5.70805 0
M  V30 297 H 31.068 -2.58123 -1.48918 0
M  V30 298 H 28.605 -1.28 -0.724878 0
M  V30 299 H 30.563 -1.70314 -3.80853 0
M  V30 300 H 29.193 -0.784586 -3.1312 0
M  V30 301 H 28.245 -3.04826 -2.27564 0
M  V30 302 H 29.557 -3.86192 -3.15686 0
M  V30 303 H 28.711 -2.92206 -5.31696 0
M  V30 304 H 27.45 -2.00429 -4.44612 0
M  V30 305 H 26.455 -4.15049 -3.60575 0
M  V30 306 H 27.68 -5.07729 -4.50986 0
M  V30 307 H 25.626 -3.19394 -5.72995 0
M  V30 308 H 25.543 -4.92509 -5.7356 0
M  V30 309 H 26.811 -4.12418 -6.61462 0
M  V30 310 N 31.0401 0.771051 -1.3745 0
M  V30 311 C 32.2681 1.56015 -1.35893 0
M  V30 312 C 32.6831 1.88718 0.0555523 0
M  V30 313 O 32.0401 1.51502 1.01752 0
M  V30 314 C 32.0911 2.87001 -2.19801 0
M  V30 315 O 31.8121 2.557 -3.55738 0
M  V30 316 C 33.3131 3.81228 -2.26231 0
M  V30 317 H 30.5331 0.483317 -0.465453 0
M  V30 318 H 33.0771 0.955611 -1.80799 0
M  V30 319 H 31.2321 3.43877 -1.78402 0
M  V30 320 H 31.6461 3.39584 -3.99729 0
M  V30 321 H 33.1201 4.70139 -2.89263 0
M  V30 322 H 33.5971 4.20409 -1.27093 0
M  V30 323 H 34.2031 3.30281 -2.67945 0
M  V30 324 N 32.5182 1.22032 0.997298 0
M  V30 325 C 33.4282 1.00271 2.12092 0
M  V30 326 C 34.4442 -0.047621 1.73935 0
M  V30 327 O 35.6202 0.144136 2.00884 0
M  V30 328 C 32.6852 0.578449 3.4184 0
M  V30 329 C 31.7462 1.70189 3.94125 0
M  V30 330 C 30.9792 1.29778 5.17681 0
M  V30 331 O 31.2022 0.174676 5.70132 0
M  V30 332 O 30.1362 2.11261 5.63607 0
M  V30 333 H 33.9622 1.94398 2.3333 0
M  V30 334 H 31.5472 1.00587 1.10465 0
M  V30 335 H 33.4292 0.351998 4.19927 0
M  V30 336 H 32.1042 -0.334019 3.21972 0
M  V30 337 H 31.0112 1.98282 3.1723 0
M  V30 338 H 32.3442 2.59206 4.18417 0
M  V30 339 N 33.9963 -1.19345 1.0293 0
M  V30 340 C 35.2213 -1.93538 0.745511 0
M  V30 341 C 35.6463 -1.75007 -0.689511 0
M  V30 342 O 35.0043 -1.05265 -1.47611 0
M  V30 343 C 35.0523 -3.43336 1.10239 0
M  V30 344 O 34.1563 -4.11806 0.221289 0
M  V30 345 H 33.4973 -0.604193 0.275404 0
M  V30 346 H 36.0273 -1.5141 1.37609 0
M  V30 347 H 36.0373 -3.94004 1.05947 0
M  V30 348 H 34.7123 -3.56146 2.14786 0
M  V30 349 H 33.2893 -3.715 0.322842 0
M  V30 350 N 35.4744 -0.807222 -1.35358 0
M  V30 351 C 36.4224 -0.20614 -2.31685 0
M  V30 352 C 37.4164 0.644445 -1.56663 0
M  V30 353 O 38.6224 0.537538 -1.71786 0
M  V30 354 H 34.9974 -0.0479006 -0.750473 0
M  V30 355 H 36.9684 -1.03369 -2.79924 0
M  V30 356 C 35.7174 0.630212 -3.41941 0
M  V30 357 H 35.0404 -0.0149558 -3.99797 0
M  V30 358 H 36.4804 1.01716 -4.11619 0
M  V30 359 C 34.9394 1.79601 -2.85035 0
M  V30 360 O 35.4694 2.89351 -2.78637 0
M  V30 361 N 33.6754 1.60774 -2.42074 0
M  V30 362 H 33.2224 0.715009 -2.47478 0
M  V30 363 H 33.1804 2.38933 -2.04349 0
M  V30 364 N 36.9525 1.47285 -0.560781 0
M  V30 365 C 37.8845 2.28118 0.222438 0
M  V30 366 C 38.8975 1.37219 0.876056 0
M  V30 367 O 40.0865 1.62011 0.749307 0
M  V30 368 C 37.1865 3.1159 1.33285 0
M  V30 369 C 36.3595 4.30473 0.77534 0
M  V30 370 C 35.4185 4.95513 1.77069 0
M  V30 371 O 34.4445 5.53792 1.31539 0
M  V30 372 N 35.6465 4.90531 3.10418 0
M  V30 373 H 38.4115 2.95976 -0.470958 0
M  V30 374 H 35.9725 1.56955 -0.39709 0
M  V30 375 H 37.9645 3.51967 1.99752 0
M  V30 376 H 36.5345 2.45951 1.92943 0
M  V30 377 H 35.7545 3.94144 -0.0662113 0
M  V30 378 H 37.0425 5.07362 0.382272 0
M  V30 379 H 36.4405 4.44389 3.5005 0
M  V30 380 H 34.9975 5.34917 3.72434 0
M  V30 381 N 38.4306 0.297415 1.54768 0
M  V30 382 C 39.3406 -0.58983 2.27064 0
M  V30 383 C 40.3566 -1.15144 1.30453 0
M  V30 384 O 41.5326 -1.17699 1.63428 0
M  V30 385 C 38.5976 -1.74714 2.9946 0
M  V30 386 C 37.6586 -1.21997 4.11601 0
M  V30 387 C 36.8916 -2.32212 4.80535 0
M  V30 388 O 37.1146 -3.52036 4.48806 0
M  V30 389 O 36.0486 -1.99106 5.68014 0
M  V30 390 H 39.8746 -0.00348199 3.037 0
M  V30 391 H 37.4596 0.0640035 1.49263 0
M  V30 392 H 39.3416 -2.42147 3.44881 0
M  V30 393 H 38.0166 -2.32016 2.25722 0
M  V30 394 H 36.9236 -0.511458 3.70587 0
M  V30 395 H 38.2566 -0.692419 4.87305 0
M  V30 396 N 39.9087 -1.5758 0.0250728 0
M  V30 397 C 41.1547 -1.91917 -0.655413 0
M  V30 398 C 41.4877 -0.901433 -1.72011 0
M  V30 399 O 40.7627 0.0764069 -1.9435 0
M  V30 400 C 41.0457 -3.36751 -1.27558 0
M  V30 401 C 40.8987 -4.49258 -0.220719 0
M  V30 402 C 42.2177 -3.81469 -2.19475 0
M  V30 403 H 39.3367 -0.697925 -0.23679 0
M  V30 404 H 41.9787 -1.89825 0.0815036 0
M  V30 405 H 40.1287 -3.38664 -1.90365 0
M  V30 406 H 41.8007 -4.59478 0.409601 0
M  V30 407 H 40.0437 -4.31415 0.454264 0
M  V30 408 H 40.7147 -5.47618 -0.694175 0
M  V30 409 H 43.1907 -3.81266 -1.66659 0
M  V30 410 H 42.0667 -4.83512 -2.59822 0
M  V30 411 H 42.3277 -3.16744 -3.08424 0
M  V30 412 N 41.3868 0.248026 -1.55636 0
M  V30 413 C 42.3498 1.29044 -1.89421 0
M  V30 414 C 43.3498 1.41134 -0.770581 0
M  V30 415 O 44.5398 1.39854 -1.03858 0
M  V30 416 C 41.6718 2.66831 -2.12165 0
M  V30 417 H 42.8648 1.00305 -2.82629 0
M  V30 418 H 40.4178 0.487265 -1.48511 0
M  V30 419 H 41.1528 3.00711 -1.21422 0
M  V30 420 H 40.9378 2.59438 -2.93997 0
M  V30 421 H 42.4278 3.42103 -2.3949 0
M  V30 422 N 42.8649 1.48995 0.513639 0
M  V30 423 C 43.8129 1.65199 1.63744 0
M  V30 424 C 44.8069 0.51809 1.61283 0
M  V30 425 O 46.0129 0.697335 1.65943 0
M  V30 426 H 42.3879 0.52069 0.542574 0
M  V30 427 H 44.3589 2.59552 1.47226 0
M  V30 428 C 43.1079 1.72409 3.01945 0
M  V30 429 H 42.4309 2.59029 3.04539 0
M  V30 430 H 43.8709 1.87785 3.80148 0
M  V30 431 C 42.3299 0.46618 3.33659 0
M  V30 432 O 42.8599 -0.413744 3.99564 0
M  V30 433 N 41.0659 0.332931 2.88687 0
M  V30 434 H 40.6129 1.04996 2.35231 0
M  V30 435 H 40.5709 -0.507665 3.10274 0
M  V30 436 N 44.343 -0.763751 1.37857 0
M  V30 437 C 45.754 -1.3405 1.29952 0
M  V30 438 C 46.105 -1.96138 -0.0492898 0
M  V30 439 O 45.23 -1.94372 -0.951239 0
M  V30 440 C 45.825 -2.43729 2.35333 0
M  V30 441 C 44.384 -2.97151 2.31037 0
M  V30 442 C 43.531 -1.70438 2.18738 0
M  V30 443 H 46.482 -0.563396 1.48363 0
M  V30 444 H 46.503 -3.23412 2.00462 0
M  V30 445 H 46.015 -1.9851 3.33489 0
M  V30 446 H 44.116 -3.46724 1.3643 0
M  V30 447 H 44.229 -3.52221 3.24772 0
M  V30 448 H 42.593 -1.93673 1.65418 0
M  V30 449 H 43.376 -1.27312 3.18821 0
M  V30 450 N 45.8211 -1.22559 -0.990812 0
M  V30 451 C 46.7311 -1.01394 -2.11557 0
M  V30 452 C 47.7471 0.0383962 -1.73958 0
M  V30 453 O 48.9231 -0.154787 -2.00804 0
M  V30 454 C 45.9881 -0.596569 -3.41529 0
M  V30 455 C 45.0491 -1.72276 -3.93217 0
M  V30 456 C 44.2821 -1.32521 -5.16985 0
M  V30 457 O 44.5051 -0.204909 -5.70032 0
M  V30 458 O 43.4391 -2.14247 -5.62478 0
M  V30 459 H 47.2651 -1.95633 -2.32296 0
M  V30 460 H 44.8501 -1.01172 -1.0993 0
M  V30 461 H 46.7321 -0.374263 -4.19735 0
M  V30 462 H 45.4071 0.316939 -3.22145 0
M  V30 463 H 44.3141 -1.99961 -3.16174 0
M  V30 464 H 45.6471 -2.61421 -4.17037 0
M  V30 465 N 47.2992 1.18797 -1.03562 0
M  V30 466 C 48.2492 2.20161 -0.592724 0
M  V30 467 C 49.2332 1.56772 0.362133 0
M  V30 468 O 50.4252 1.76062 0.182009 0
M  V30 469 C 47.5542 3.43266 0.0481024 0
M  V30 470 C 46.6402 4.13786 -0.9296 0
M  V30 471 N 47.0312 4.60388 -2.09467 0
M  V30 472 C 45.3292 4.39572 -0.754499 0
M  V30 473 C 46.0302 5.14619 -2.71187 0
M  V30 474 N 45.0062 5.05826 -1.991 0
M  V30 475 H 48.8082 2.53877 -1.48066 0
M  V30 476 H 46.3222 1.34946 -0.903514 0
M  V30 477 H 48.3192 4.15136 0.383058 0
M  V30 478 H 46.9792 3.11048 0.931636 0
M  V30 479 H 47.9902 4.54999 -2.47379 0
M  V30 480 H 44.6672 4.17425 0.0793713 0
M  V30 481 H 46.0572 5.60917 -3.69895 0
M  V30 482 N 48.7773 0.814389 1.34928 0
M  V30 483 C 50.0073 0.41054 2.0248 0
M  V30 484 C 50.4153 -0.985625 1.61499 0
M  V30 485 O 49.7583 -1.64781 0.811976 0
M  V30 486 C 49.8203 0.423384 3.56998 0
M  V30 487 C 49.4843 1.77141 4.21272 0
M  V30 488 C 50.4813 2.73093 4.42398 0
M  V30 489 C 48.1663 2.05755 4.58225 0
M  V30 490 C 50.1603 3.95838 4.9959 0
M  V30 491 C 47.8473 3.28762 5.1513 0
M  V30 492 C 48.8453 4.23621 5.35755 0
M  V30 493 O 48.5333 5.44456 5.91458 0
M  V30 494 H 48.2653 0.163997 0.655806 0
M  V30 495 H 50.8193 1.10155 1.73364 0
M  V30 496 H 49.0493 -0.324276 3.85338 0
M  V30 497 H 50.7383 0.0407683 4.0588 0
M  V30 498 H 51.5043 2.5228 4.14222 0
M  V30 499 H 47.3833 1.32727 4.4148 0
M  V30 500 H 50.9273 4.69891 5.15605 0
M  V30 501 H 46.8243 3.49443 5.42734 0
M  V30 502 H 47.5923 5.4586 6.09901 0
M  V30 503 N 50.2554 -1.46986 0.568584 0
M  V30 504 C 51.5044 -2.01646 0.0465894 0
M  V30 505 C 51.8174 -1.44721 -1.31587 0
M  V30 506 O 53.0234 -1.91113 -1.92842 0
M  V30 507 C 51.4794 -3.59885 0.032752 0
M  V30 508 C 51.0874 -4.25804 1.39266 0
M  V30 509 C 52.8314 -4.22255 -0.436038 0
M  V30 510 C 50.7384 -5.76081 1.33732 0
M  V30 511 H 49.6684 -0.753876 0.013647 0
M  V30 512 H 52.3194 -1.68864 0.718131 0
M  V30 513 H 50.7014 -3.8968 -0.704669 0
M  V30 514 H 51.8754 -4.07637 2.1487 0
M  V30 515 H 50.1904 -3.7547 1.80032 0
M  V30 516 H 52.7874 -5.32394 -0.49602 0
M  V30 517 H 53.1304 -3.90212 -1.45053 0
M  V30 518 H 53.6634 -3.97033 0.246877 0
M  V30 519 H 50.4024 -6.12761 2.32817 0
M  V30 520 H 49.9224 -5.96553 0.623267 0
M  V30 521 H 51.6014 -6.38518 1.0442 0
M  V30 522 N 51.7335 -0.305618 -1.54608 0
M  V30 523 C 52.6805 0.568421 -2.23691 0
M  V30 524 C 53.6505 1.12592 -1.22116 0
M  V30 525 O 54.8355 1.16959 -1.50749 0
M  V30 526 C 51.9755 1.7322 -2.98477 0
M  V30 527 C 51.0885 1.20566 -4.14835 0
M  V30 528 C 50.2235 2.33368 -4.77193 0
M  V30 529 C 49.2625 1.7787 -5.85686 0
M  V30 530 N 48.3995 2.84263 -6.4198 0
M  V30 531 H 53.2395 -0.0272867 -2.97988 0
M  V30 532 H 50.7765 -0.0252363 -1.47078 0
M  V30 533 H 52.7345 2.41675 -3.40072 0
M  V30 534 H 51.3645 2.29947 -2.26548 0
M  V30 535 H 50.4165 0.413223 -3.78149 0
M  V30 536 H 51.7285 0.759417 -4.92985 0
M  V30 537 H 50.8825 3.09761 -5.21664 0
M  V30 538 H 49.6215 2.8132 -3.98385 0
M  V30 539 H 48.6265 0.99968 -5.40635 0
M  V30 540 H 49.8515 1.30816 -6.66381 0
M  V30 541 H 47.7975 3.31541 -5.66053 0
M  V30 542 H 47.7145 2.44149 -7.15491 0
M  V30 543 H 48.9825 3.6054 -6.91109 0
M  V30 544 N 53.2116 1.57565 -0.0334293 0
M  V30 545 C 54.1616 2.06978 0.956237 0
M  V30 546 C 55.1456 0.971193 1.28283 0
M  V30 547 O 56.3376 1.23471 1.26822 0
M  V30 548 C 53.4666 2.60393 2.23719 0
M  V30 549 C 52.5526 3.7719 1.93877 0
M  V30 550 N 52.9436 4.87639 1.34321 0
M  V30 551 C 51.2416 3.85758 2.23845 0
M  V30 552 C 51.9426 5.68825 1.21709 0
M  V30 553 N 50.9186 5.1587 1.71404 0
M  V30 554 H 54.7206 2.89773 0.490815 0
M  V30 555 H 52.2346 1.61492 0.171478 0
M  V30 556 H 54.2316 2.94088 2.95496 0
M  V30 557 H 52.8916 1.79031 2.70884 0
M  V30 558 H 53.9026 5.07803 1.01767 0
M  V30 559 H 50.5796 3.1531 2.73653 0
M  V30 560 H 51.9696 6.67631 0.75621 0
M  V30 561 N 54.6897 -0.239769 1.55765 0
M  V30 562 C 56.1007 -0.808263 1.68297 0
M  V30 563 C 56.4517 -1.85736 0.632181 0
M  V30 564 O 55.5767 -2.15277 -0.220204 0
M  V30 565 C 56.1717 -1.47284 3.05111 0
M  V30 566 C 54.7307 -1.98895 3.19559 0
M  V30 567 C 53.8777 -0.842575 2.64189 0
M  V30 568 H 56.8287 -0.0154422 1.58692 0
M  V30 569 H 56.8497 -2.34111 2.99954 0
M  V30 570 H 56.3617 -0.709053 3.81568 0
M  V30 571 H 54.4627 -2.78132 2.47938 0
M  V30 572 H 54.5757 -2.18143 4.26556 0
M  V30 573 H 52.9397 -1.24501 2.22197 0
M  V30 574 H 53.7227 -0.0917552 3.43177 0
M  V30 575 N 56.1678 -1.49265 -0.50573 0
M  V30 576 C 57.0978 -1.68495 -1.61653 0
M  V30 577 C 58.0788 -0.53366 -1.61512 0
M  V30 578 O 59.2638 -0.76897 -1.78327 0
M  V30 579 C 56.3938 -1.74709 -3.00157 0
M  V30 580 C 55.3478 -2.89581 -3.15162 0
M  V30 581 C 54.6738 -2.80903 -4.5497 0
M  V30 582 C 55.9738 -4.30578 -2.95634 0
M  V30 583 H 57.6678 -2.61493 -1.45814 0
M  V30 584 H 55.2138 -1.25838 -0.70005 0
M  V30 585 H 57.1668 -1.86748 -3.77761 0
M  V30 586 H 55.8908 -0.783067 -3.17074 0
M  V30 587 H 54.5498 -2.77136 -2.39982 0
M  V30 588 H 54.1978 -1.82419 -4.68756 0
M  V30 589 H 53.8978 -3.57999 -4.65951 0
M  V30 590 H 55.4218 -2.94944 -5.34641 0
M  V30 591 H 56.8358 -4.4373 -3.63011 0
M  V30 592 H 55.2328 -5.0886 -3.18091 0
M  V30 593 H 56.3028 -4.45352 -1.91806 0
M  V30 594 N 57.6459 0.756429 -1.3826 0
M  V30 595 C 58.5779 1.87971 -1.31147 0
M  V30 596 C 59.5909 1.61248 -0.224239 0
M  V30 597 O 60.7799 1.71881 -0.481581 0
M  V30 598 C 57.8799 3.23545 -1.00857 0
M  V30 599 C 57.0529 3.77794 -2.20432 0
M  V30 600 C 56.1119 4.91877 -1.86931 0
M  V30 601 O 55.1379 5.06659 -2.59395 0
M  V30 602 N 56.3399 5.74643 -0.822568 0
M  V30 603 H 59.1049 1.94585 -2.2794 0
M  V30 604 H 56.6659 0.936234 -1.32084 0
M  V30 605 H 58.6579 3.97403 -0.765021 0
M  V30 606 H 57.2279 3.12335 -0.128687 0
M  V30 607 H 56.4479 2.95534 -2.6087 0
M  V30 608 H 57.7359 4.10771 -3.00241 0
M  V30 609 H 57.1339 5.65266 -0.221575 0
M  V30 610 H 55.6909 6.48661 -0.638899 0
M  V30 611 N 59.124 1.23083 0.984299 0
M  V30 612 C 60.072 1.00593 2.09723 0
M  V30 613 C 61.066 -0.0538014 1.69315 0
M  V30 614 O 62.272 0.0993719 1.79725 0
M  V30 615 H 58.647 0.30817 0.685956 0
M  V30 616 H 60.618 1.95012 2.2586 0
M  V30 617 C 59.367 0.609601 3.42314 0
M  V30 618 H 58.69 1.41675 3.73856 0
M  V30 619 H 60.13 0.491726 4.21139 0
M  V30 620 C 58.589 -0.681745 3.2993 0
M  V30 621 O 59.119 -1.73192 3.62446 0
M  V30 622 N 57.325 -0.656178 2.83095 0
M  V30 623 H 56.872 0.198759 2.56832 0
M  V30 624 H 56.83 -1.52044 2.75191 0
M  V30 625 N 60.6021 -1.18246 1.0419 0
M  V30 626 C 62.0181 -1.40269 0.761366 0
M  V30 627 C 62.2181 -1.90777 -0.648578 0
M  V30 628 O 61.2741 -2.0929 -1.41258 0
M  V30 629 C 62.5871 -2.40237 1.8085 0
M  V30 630 C 64.1351 -2.53961 1.82955 0
M  V30 631 C 64.6101 -3.57194 2.86664 0
M  V30 632 N 66.1011 -3.64702 2.85563 0
M  V30 633 C 66.8361 -4.44309 3.6246 0
M  V30 634 N 66.3321 -5.27514 4.49111 0
M  V30 635 N 68.1251 -4.39084 3.50944 0
M  V30 636 H 60.2761 -0.837882 1.95175 0
M  V30 637 H 62.5391 -0.430608 0.84456 0
M  V30 638 H 62.2451 -2.10176 2.81991 0
M  V30 639 H 62.1191 -3.39601 1.64168 0
M  V30 640 H 64.5061 -2.83338 0.824855 0
M  V30 641 H 64.5871 -1.54706 2.03715 0
M  V30 642 H 64.2311 -3.28558 3.87314 0
M  V30 643 H 64.1611 -4.5613 2.6316 0
M  V30 644 H 66.6521 -3.05289 2.22727 0
M  V30 645 H 66.9651 -5.85411 5.04493 0
M  V30 646 H 65.3101 -5.2693 4.53178 0
M  V30 647 H 68.5011 -3.7313 2.82651 0
M  V30 648 H 68.6741 -5.00883 4.11121 0
M  V30 649 N 62.0802 -0.821533 -1.34494 0
M  V30 650 C 63.3262 -0.418729 -1.99043 0
M  V30 651 C 63.6812 1.00672 -1.6396 0
M  V30 652 O 62.9742 1.69132 -0.900271 0
M  V30 653 C 63.1682 -0.556512 -3.53041 0
M  V30 654 C 62.9972 -1.9938 -4.03085 0
M  V30 655 C 61.7672 -2.62539 -4.31742 0
M  V30 656 C 63.9652 -2.96035 -4.20556 0
M  V30 657 N 61.9472 -3.97523 -4.67813 0
M  V30 658 C 63.3182 -4.15924 -4.59791 0
M  V30 659 C 65.3732 -2.9267 -4.02801 0
M  V30 660 C 64.0762 -5.32899 -4.83126 0
M  V30 661 C 66.1022 -4.08861 -4.27302 0
M  V30 662 C 65.4642 -5.275 -4.66822 0
M  V30 663 H 61.5632 -0.201299 -0.755647 0
M  V30 664 H 64.1472 -1.06594 -1.62929 0
M  V30 665 H 62.3182 0.0607924 -3.88352 0
M  V30 666 H 64.0502 -0.126842 -4.04501 0
M  V30 667 H 60.8052 -2.13789 -4.22601 0
M  V30 668 H 61.2292 -4.67061 -4.90085 0
M  V30 669 H 65.8712 -2.02088 -3.71376 0
M  V30 670 H 63.5892 -6.24041 -5.13418 0
M  V30 671 H 67.1752 -4.07654 -4.15101 0
M  V30 672 H 66.0552 -6.15913 -4.85408 0
M  V30 673 N 63.5583 1.46682 -0.576371 0
M  V30 674 C 64.5213 2.28707 0.150239 0
M  V30 675 C 65.5213 1.38035 0.824794 0
M  V30 676 O 66.7113 1.60476 0.677719 0
M  V30 677 C 63.8433 3.18248 1.22192 0
M  V30 678 H 65.0363 2.94423 -0.570521 0
M  V30 679 H 62.5893 1.52688 -0.334078 0
M  V30 680 H 63.3243 2.57265 1.97447 0
M  V30 681 H 63.1093 3.85 0.742812 0
M  V30 682 H 64.5993 3.80001 1.73172 0
M  V30 683 N 65.0364 0.313813 1.54444 0
M  V30 684 C 65.9664 -0.549454 2.26943 0
M  V30 685 C 66.9474 -1.12741 1.27372 0
M  V30 686 O 68.1324 -1.15436 1.56167 0
M  V30 687 C 65.2624 -1.71523 3.01989 0
M  V30 688 C 64.2164 -1.26703 4.08816 0
M  V30 689 C 63.5424 -2.51898 4.71647 0
M  V30 690 C 64.8424 -0.388962 5.2085 0
M  V30 691 H 66.5364 0.0552661 2.99349 0
M  V30 692 H 64.0824 0.0280207 1.43973 0
M  V30 693 H 66.0354 -2.32535 3.51433 0
M  V30 694 H 64.7594 -2.34639 2.27183 0
M  V30 695 H 63.4184 -0.679896 3.6024 0
M  V30 696 H 63.0664 -3.13356 3.93468 0
M  V30 697 H 62.7664 -2.22605 5.43802 0
M  V30 698 H 64.2904 -3.1369 5.23861 0
M  V30 699 H 65.7044 -0.905107 5.6611 0
M  V30 700 H 64.1014 -0.18924 5.99802 0
M  V30 701 H 65.1714 0.582699 4.81386 0
M  V30 702 N 66.5145 -1.57545 0.0417849 0
M  V30 703 C 67.7605 -1.93424 -0.629168 0
M  V30 704 C 68.1155 -0.919564 -1.69002 0
M  V30 705 O 67.4085 0.0626178 -1.91498 0
M  V30 706 C 67.6025 -3.33794 -1.27735 0
M  V30 707 C 67.4315 -4.48822 -0.280806 0
M  V30 708 C 66.2015 -5.05148 0.123869 0
M  V30 709 C 68.3995 -5.12148 0.470012 0
M  V30 710 N 66.3815 -6.03703 1.11426 0
M  V30 711 C 67.7525 -6.05921 1.31377 0
M  V30 712 C 69.8075 -4.95078 0.529343 0
M  V30 713 C 68.5105 -6.84459 2.21152 0
M  V30 714 C 70.5365 -5.74235 1.41448 0
M  V30 715 C 69.8985 -6.67634 2.24598 0
M  V30 716 H 65.9975 -0.755418 -0.202158 0
M  V30 717 H 68.5815 -1.94378 0.111923 0
M  V30 718 H 66.7525 -3.33635 -1.98852 0
M  V30 719 H 68.4845 -3.56988 -1.90635 0
M  V30 720 H 65.2395 -4.72923 -0.253178 0
M  V30 721 H 65.6635 -6.57674 1.60607 0
M  V30 722 H 70.3055 -4.22683 -0.0992798 0
M  V30 723 H 68.0235 -7.56151 2.85063 0
M  V30 724 H 71.6095 -5.63057 1.46484 0
M  V30 725 H 70.4895 -7.27817 2.9198 0
M  V30 726 N 67.9926 0.231505 -1.5589 0
M  V30 727 C 69.2396 0.957352 -1.78441 0
M  V30 728 C 69.5676 1.84726 -0.60882 0
M  V30 729 O 68.8226 1.91416 0.40725 0
M  V30 730 C 69.1216 1.83577 -3.0665 0
M  V30 731 C 68.7876 1.09993 -4.37278 0
M  V30 732 C 67.4496 0.896629 -4.72773 0
M  V30 733 C 69.8016 0.579558 -5.17968 0
M  V30 734 C 67.1296 0.160896 -5.86479 0
M  V30 735 C 69.4816 -0.142783 -6.32439 0
M  V30 736 C 68.1456 -0.357427 -6.66542 0
M  V30 737 H 67.4156 0.35032 -0.65296 0
M  V30 738 H 70.0626 0.226259 -1.90159 0
M  V30 739 H 68.3676 2.63441 -2.90011 0
M  V30 740 H 70.0646 2.39934 -3.21298 0
M  V30 741 H 66.6546 1.26835 -4.09403 0
M  V30 742 H 70.8386 0.724125 -4.90989 0
M  V30 743 H 66.0946 -0.0157293 -6.11398 0
M  V30 744 H 70.2686 -0.553559 -6.94196 0
M  V30 745 H 67.8956 -0.929466 -7.54497 0
M  V30 746 N 69.4707 1.49531 0.497807 0
M  V30 747 C 70.7177 1.59179 1.25173 0
M  V30 748 C 71.0457 0.279932 1.92475 0
M  V30 749 O 70.3007 -0.732383 1.81479 0
M  V30 750 C 70.5997 2.70252 2.33878 0
M  V30 751 C 70.2657 4.11644 1.84012 0
M  V30 752 C 68.9277 4.50121 1.70132 0
M  V30 753 C 71.2797 5.00121 1.46725 0
M  V30 754 C 68.6077 5.74845 1.17348 0
M  V30 755 C 70.9597 6.25366 0.95392 0
M  V30 756 C 69.6237 6.6267 0.801538 0
M  V30 757 H 68.8937 0.582478 0.45804 0
M  V30 758 H 71.5407 1.83373 0.551948 0
M  V30 759 H 69.8457 2.40041 3.09657 0
M  V30 760 H 71.5427 2.74925 2.9192 0
M  V30 761 H 68.1327 3.81274 1.95775 0
M  V30 762 H 72.3167 4.71048 1.56294 0
M  V30 763 H 67.5727 6.02444 1.04264 0
M  V30 764 H 71.7467 6.93301 0.656225 0
M  V30 765 H 69.3737 7.59197 0.390351 0
M  V30 766 N 70.9488 -0.749086 1.3866 0
M  V30 767 C 71.8958 -1.86291 1.36251 0
M  V30 768 C 72.8658 -1.64578 0.224347 0
M  V30 769 O 74.0508 -1.86181 0.417279 0
M  V30 770 C 71.1908 -3.23644 1.19786 0
M  V30 771 C 70.3038 -3.57158 2.43027 0
M  V30 772 C 69.4388 -4.83838 2.19258 0
M  V30 773 C 68.4778 -5.10152 3.38247 0
M  V30 774 N 67.6148 -6.28029 3.13884 0
M  V30 775 H 72.4548 -1.87685 2.3147 0
M  V30 776 H 69.9918 -0.917287 1.14997 0
M  V30 777 H 71.9498 -4.0291 1.08254 0
M  V30 778 H 70.5798 -3.21566 0.282031 0
M  V30 779 H 69.6318 -2.72701 2.65214 0
M  V30 780 H 70.9438 -3.7253 3.31697 0
M  V30 781 H 70.0978 -5.71057 2.04888 0
M  V30 782 H 68.8368 -4.70614 1.2796 0
M  V30 783 H 67.8418 -4.21401 3.53131 0
M  V30 784 H 69.0668 -5.25271 4.30427 0
M  V30 785 H 67.0128 -6.1612 2.25238 0
M  V30 786 H 66.9298 -6.43922 3.96106 0
M  V30 787 H 68.1978 -7.18124 3.03179 0
M  V30 788 N 72.4269 -1.23603 -0.977757 0
M  V30 789 C 73.3749 -1.01704 -2.09187 0
M  V30 790 C 74.3689 0.0448214 -1.69341 0
M  V30 791 O 75.5749 -0.108902 -1.7967 0
M  V30 792 H 71.9499 -0.311803 -0.684312 0
M  V30 793 H 73.9209 -1.96207 -2.24823 0
M  V30 794 C 72.6699 -0.627746 -3.41986 0
M  V30 795 H 71.9929 -1.43656 -3.73099 0
M  V30 796 H 73.4329 -0.514053 -4.20872 0
M  V30 797 C 71.8919 0.664238 -3.30287 0
M  V30 798 O 72.4219 1.71268 -3.6336 0
M  V30 799 N 70.6279 0.641156 -2.83439 0
M  V30 800 H 70.1749 -0.212376 -2.56723 0
M  V30 801 H 70.1329 1.50583 -2.75993 0
M  V30 802 N 73.905 1.17692 -1.04816 0
M  V30 803 C 75.182 1.83768 -0.669963 0
M  V30 804 C 75.562 1.93232 0.849986 0
M  V30 805 O 74.91 1.46397 1.75443 0
M  V30 806 C 75.12 3.21641 -1.35455 0
M  V30 807 C 76.468 3.97592 -1.49017 0
M  V30 808 O 77.492 3.31107 -1.31326 0
M  V30 809 O 76.351 5.16729 -1.77914 0
M  V30 810 H 73.445 0.792799 -0.235368 0
M  V30 811 H 75.991 1.25021 -1.14751 0
M  V30 812 H 74.763 3.097 -2.39168 0
M  V30 813 H 74.386 3.88052 -0.866107 0
M  V30 814 N 75.3831 0.828654 1.34056 0
M  V30 815 C 76.3301 0.252567 2.29414 0
M  V30 816 C 77.3001 -0.62588 1.53857 0
M  V30 817 O 78.4851 -0.566312 1.82202 0
M  V30 818 C 75.6251 -0.574831 3.40279 0
M  V30 819 C 74.7381 0.326499 4.30764 0
M  V30 820 C 73.8731 -0.511016 5.28736 0
M  V30 821 C 72.9121 0.389342 6.1086 0
M  V30 822 N 72.0491 -0.409439 7.00905 0
M  V30 823 H 76.8891 1.07108 2.78086 0
M  V30 824 H 74.4261 0.539677 1.36843 0
M  V30 825 H 76.3841 -1.06992 4.03248 0
M  V30 826 H 75.0141 -1.35841 2.92826 0
M  V30 827 H 74.0661 0.939837 3.68607 0
M  V30 828 H 75.3781 1.01857 4.88289 0
M  V30 829 H 74.5321 -1.07035 5.97184 0
M  V30 830 H 73.2711 -1.23657 4.71763 0
M  V30 831 H 72.2761 0.960769 5.4134 0
M  V30 832 H 73.5011 1.1131 6.69916 0
M  V30 833 H 71.4471 -1.11856 6.46393 0
M  V30 834 H 71.3641 0.224126 7.55668 0
M  V30 835 H 72.6321 -0.951336 7.73673 0
M  V30 836 N 76.8612 -1.46375 0.584142 0
M  V30 837 C 78.0862 -2.07268 0.0740405 0
M  V30 838 C 78.5112 -1.42979 -1.22223 0
M  V30 839 O 77.8692 -0.514092 -1.73859 0
M  V30 840 C 77.9172 -3.60518 -0.0767769 0
M  V30 841 O 77.0212 -3.96533 -1.13292 0
M  V30 842 H 76.3622 -0.660961 0.0634524 0
M  V30 843 H 78.8922 -1.87991 0.807492 0
M  V30 844 H 78.9022 -4.07021 -0.282489 0
M  V30 845 H 77.5772 -4.06702 0.86986 0
M  V30 846 H 76.1542 -3.61738 -0.905553 0
M  V30 847 N 78.3393 -0.321999 -1.54275 0
M  V30 848 C 79.2863 0.544664 -2.24281 0
M  V30 849 C 80.2563 1.1129 -1.23303 0
M  V30 850 O 81.4413 1.15354 -1.51981 0
M  V30 851 C 78.5813 1.70045 -3.00298 0
M  V30 852 C 77.6943 1.16159 -4.1609 0
M  V30 853 C 76.8293 2.28293 -4.79641 0
M  V30 854 C 75.8683 1.71648 -5.8754 0
M  V30 855 N 75.0053 2.77438 -6.44959 0
M  V30 856 H 79.8453 -0.0588907 -2.97942 0
M  V30 857 H 77.3823 -0.0408345 -1.47043 0
M  V30 858 H 79.3403 2.38054 -3.42616 0
M  V30 859 H 77.9703 2.27531 -2.28975 0
M  V30 860 H 77.0223 0.373092 -3.78566 0
M  V30 861 H 78.3343 0.707087 -4.93763 0
M  V30 862 H 77.4883 3.0421 -5.2492 0
M  V30 863 H 76.2273 2.77079 -4.01346 0
M  V30 864 H 75.2323 0.942282 -5.41665 0
M  V30 865 H 76.4573 1.23741 -6.67731 0
M  V30 866 H 74.4033 3.25519 -5.69538 0
M  V30 867 H 74.3203 2.36547 -7.1804 0
M  V30 868 H 75.5883 3.53189 -6.94894 0
M  V30 869 N 79.8174 1.5752 -0.0501392 0
M  V30 870 C 81.0454 1.96963 0.633492 0
M  V30 871 C 81.4604 0.927631 1.6444 0
M  V30 872 O 80.8174 -0.0882665 1.82286 0
M  V30 873 C 80.8684 3.36487 1.32132 0
M  V30 874 O 80.5894 4.36693 0.350894 0
M  V30 875 C 82.0904 3.90682 2.09481 0
M  V30 876 H 79.3104 0.648244 0.173266 0
M  V30 877 H 81.8544 2.0417 -0.116134 0
M  V30 878 H 80.0094 3.30434 2.02218 0
M  V30 879 H 80.4234 5.17702 0.841735 0
M  V30 880 H 81.8974 4.90591 2.5303 0
M  V30 881 H 82.3744 3.26053 2.94255 0
M  V30 882 H 82.9804 4.00069 1.44307 0
M  V30 883 N 81.2955 -0.223234 1.56011 0
M  V30 884 C 82.5415 -0.944891 1.8012 0
M  V30 885 C 82.8965 -1.82039 0.622862 0
M  V30 886 O 82.1895 -1.8773 -0.383143 0
M  V30 887 C 82.3835 -1.81948 3.0762 0
M  V30 888 C 82.2125 -1.03014 4.37742 0
M  V30 889 C 80.9825 -0.72574 5.00061 0
M  V30 890 C 83.1805 -0.396256 5.12771 0
M  V30 891 N 81.1625 0.0851816 6.13841 0
M  V30 892 C 82.5335 0.278137 6.19376 0
M  V30 893 C 84.5885 -0.309117 4.9694 0
M  V30 894 C 83.2915 1.03133 7.11868 0
M  V30 895 C 85.3175 0.430607 5.8983 0
M  V30 896 C 84.6795 1.09355 6.9586 0
M  V30 897 H 80.7785 -0.326081 0.710771 0
M  V30 898 H 83.3625 -0.215914 1.93499 0
M  V30 899 H 81.5335 -2.52029 2.95527 0
M  V30 900 H 83.2655 -2.47848 3.19927 0
M  V30 901 H 80.0205 -1.04335 4.61964 0
M  V30 902 H 80.4445 0.479428 6.753 0
M  V30 903 H 85.0865 -0.807313 4.15021 0
M  V30 904 H 82.8045 1.54105 7.9327 0
M  V30 905 H 86.3905 0.499012 5.79656 0
M  V30 906 H 85.2705 1.65679 7.66499 0
M  V30 907 N 82.7736 -1.49793 -0.48987 0
M  V30 908 C 83.7056 -1.63413 -1.60713 0
M  V30 909 C 84.7186 -0.516329 -1.54395 0
M  V30 910 O 85.9076 -0.788812 -1.60125 0
M  V30 911 C 83.0076 -1.58516 -2.99543 0
M  V30 912 C 82.1806 -2.86016 -3.30928 0
M  V30 913 C 81.2396 -2.74018 -4.49222 0
M  V30 914 O 80.2656 -3.47964 -4.50455 0
M  V30 915 N 81.4676 -1.86309 -5.4979 0
M  V30 916 H 84.2326 -2.59777 -1.49452 0
M  V30 917 H 81.7936 -1.47022 -0.677955 0
M  V30 918 H 83.7856 -1.48128 -3.76617 0
M  V30 919 H 82.3556 -0.69965 -3.0467 0
M  V30 920 H 81.5756 -3.10672 -2.42645 0
M  V30 921 H 82.8636 -3.70521 -3.487 0
M  V30 922 H 82.2616 -1.2551 -5.51601 0
M  V30 923 H 80.8186 -1.81837 -6.25922 0
M  V30 924 N 84.2517 0.741722 -1.39055 0
M  V30 925 C 85.2147 1.83733 -1.37021 0
M  V30 926 C 86.2147 1.58542 -0.268534 0
M  V30 927 O 87.4047 1.66067 -0.526076 0
M  V30 928 C 84.5367 3.2141 -1.13617 0
M  V30 929 H 85.7297 1.86941 -2.34506 0
M  V30 930 H 83.2827 0.944676 -1.24521 0
M  V30 931 H 84.0177 3.23865 -0.167863 0
M  V30 932 H 83.8027 3.4109 -1.93391 0
M  V30 933 H 85.2927 4.01477 -1.14918 0
M  V30 934 N 85.7298 1.2412 0.971189 0
M  V30 935 C 86.6778 1.02812 2.08644 0
M  V30 936 C 87.6718 -0.0358403 1.69362 0
M  V30 937 O 88.8778 0.118429 1.7961 0
M  V30 938 H 85.2528 0.315428 0.682649 0
M  V30 939 H 87.2238 1.97397 2.23779 0
M  V30 940 C 85.9728 0.645874 3.41649 0
M  V30 941 H 85.2958 1.45632 3.72332 0
M  V30 942 H 86.7358 0.536366 4.20594 0
M  V30 943 C 85.1948 -0.646713 3.30635 0
M  V30 944 O 85.7248 -1.69338 3.64263 0
M  V30 945 N 83.9308 -0.626115 2.83775 0
M  V30 946 H 83.4778 0.225988 2.56607 0
M  V30 947 H 83.4358 -1.49117 2.76788 0
M  V30 948 N 87.2079 -1.17134 1.05439 0
M  V30 949 C 88.1379 -2.2342 0.678649 0
M  V30 950 C 89.1189 -1.66971 -0.32476 0
M  V30 951 O 90.3039 -1.93149 -0.201802 0
M  V30 952 C 87.4339 -3.47256 0.0552099 0
M  V30 953 C 86.3879 -4.16543 0.98365 0
M  V30 954 C 85.7139 -5.34231 0.223961 0
M  V30 955 C 87.0139 -4.68495 2.3089 0
M  V30 956 H 88.7079 -2.55105 1.56722 0
M  V30 957 H 86.2539 -1.2262 0.754998 0
M  V30 958 H 88.2069 -4.20828 -0.21946 0
M  V30 959 H 86.9309 -3.14846 -0.868319 0
M  V30 960 H 85.5899 -3.44887 1.24293 0
M  V30 961 H 85.2379 -4.98071 -0.702412 0
M  V30 962 H 84.9379 -5.81527 0.842627 0
M  V30 963 H 86.4619 -6.10585 -0.0433671 0
M  V30 964 H 87.8759 -5.33691 2.09396 0
M  V30 965 H 86.2729 -5.26379 2.88176 0
M  V30 966 H 87.3429 -3.85169 2.94572 0
M  V30 967 N 88.686 -0.835752 -1.33615 0
M  V30 968 C 90.102 -0.523139 -1.50783 0
M  V30 969 C 90.302 0.950171 -1.77691 0
M  V30 970 O 89.358 1.73411 -1.83534 0
M  V30 971 C 90.671 -1.39378 -2.66448 0
M  V30 972 C 92.219 -1.39223 -2.80332 0
M  V30 973 C 92.694 -2.24765 -3.99055 0
M  V30 974 N 94.185 -2.22458 -4.06284 0
M  V30 975 C 94.92 -2.85386 -4.97336 0
M  V30 976 N 94.416 -3.57354 -5.93523 0
M  V30 977 N 96.209 -2.74872 -4.90308 0
M  V30 978 H 88.36 -1.78952 -1.14411 0
M  V30 979 H 90.623 -0.763297 -0.562212 0
M  V30 980 H 90.329 -2.44061 -2.53234 0
M  V30 981 H 90.203 -1.0676 -3.61776 0
M  V30 982 H 92.59 -0.353136 -2.92979 0
M  V30 983 H 92.671 -1.75846 -1.85773 0
M  V30 984 H 92.315 -3.28732 -3.87167 0
M  V30 985 H 92.245 -1.85485 -4.92852 0
M  V30 986 H 94.736 -1.70119 -3.37443 0
M  V30 987 H 95.049 -4.02584 -6.59656 0
M  V30 988 H 93.394 -3.61461 -5.93608 0
M  V30 989 H 96.585 -2.18213 -4.14126 0
M  V30 990 H 96.758 -3.24199 -5.61069 0
M  V30 991 N 90.1641 1.46063 -0.591896 0
M  V30 992 C 91.0941 2.33172 0.123673 0
M  V30 993 C 92.0751 1.45897 0.87453 0
M  V30 994 O 93.2601 1.74698 0.848181 0
M  V30 995 C 90.3901 3.28336 1.13194 0
M  V30 996 C 89.3441 4.25124 0.495324 0
M  V30 997 C 88.6701 5.09863 1.61071 0
M  V30 998 C 89.9701 5.19143 -0.573425 0
M  V30 999 H 91.6641 2.93252 -0.603646 0
M  V30 1000 H 89.2101 1.41014 -0.291741 0
M  V30 1001 H 91.1631 3.88137 1.64097 0
M  V30 1002 H 89.8871 2.66383 1.88965 0
M  V30 1003 H 88.5461 3.66599 0.00729452 0
M  V30 1004 H 88.1941 4.44288 2.35832 0
M  V30 1005 H 87.8941 5.75417 1.19035 0
M  V30 1006 H 89.4181 5.72529 2.12233 0
M  V30 1007 H 90.8321 5.73106 -0.1491 0
M  V30 1008 H 89.2291 5.93089 -0.914636 0
M  V30 1009 H 90.2991 4.62519 -1.45617 0
M  V30 1010 N 91.6422 0.330177 1.54103 0
M  V30 1011 C 92.8912 -0.271336 1.99867 0
M  V30 1012 C 93.2042 -1.52723 1.22209 0
M  V30 1013 O 94.4102 -2.20515 1.58383 0
M  V30 1014 C 92.8662 -0.534032 3.55916 0
M  V30 1015 C 92.4742 0.705193 4.42415 0
M  V30 1016 C 94.2182 -1.09514 4.1013 0
M  V30 1017 C 92.1252 0.414035 5.89949 0
M  V30 1018 H 91.0552 -0.105166 0.74663 0
M  V30 1019 H 93.7062 0.443429 1.78062 0
M  V30 1020 H 92.0882 -1.30915 3.73734 0
M  V30 1021 H 93.2622 1.4804 4.36372 0
M  V30 1022 H 91.5772 1.18698 3.99124 0
M  V30 1023 H 94.1742 -1.3277 5.17954 0
M  V30 1024 H 94.5172 -2.04656 3.62521 0
M  V30 1025 H 95.0502 -0.381038 3.95971 0
M  V30 1026 H 91.7892 1.33481 6.41766 0
M  V30 1027 H 91.3092 -0.323336 5.98928 0
M  V30 1028 H 92.9882 0.0263105 6.46995 0
M  V30 1029 N 93.1203 -1.57491 0.0584922 0
M  V30 1030 C 94.3453 -1.97711 -0.62652 0
M  V30 1031 C 94.7703 -0.936132 -1.63151 0
M  V30 1032 O 94.1283 0.099811 -1.81025 0
M  V30 1033 C 94.1763 -3.36989 -1.28338 0
M  V30 1034 O 93.2803 -3.35433 -2.39913 0
M  V30 1035 H 92.6213 -0.643868 -0.162266 0
M  V30 1036 H 95.1513 -2.04193 0.129064 0
M  V30 1037 H 95.1613 -3.73879 -1.63335 0
M  V30 1038 H 93.8363 -4.12289 -0.546889 0
M  V30 1039 H 92.4133 -3.10298 -2.06809 0
M  V30 1040 N 94.5984 0.214957 -1.56127 0
M  V30 1041 C 95.5454 1.26642 -1.92952 0
M  V30 1042 C 96.5154 1.46244 -0.78753 0
M  V30 1043 O 97.7004 1.59704 -1.04399 0
M  V30 1044 C 94.8404 2.6104 -2.25726 0
M  V30 1045 C 93.9534 2.49183 -3.52891 0
M  V30 1046 C 93.0884 3.76149 -3.7508 0
M  V30 1047 C 92.1274 3.59041 -4.95738 0
M  V30 1048 N 91.2644 4.77972 -5.14283 0
M  V30 1049 H 96.1044 0.945384 -2.82607 0
M  V30 1050 H 93.6414 0.455489 -1.3987 0
M  V30 1051 H 95.5994 3.39313 -2.42739 0
M  V30 1052 H 94.2294 2.91227 -1.39236 0
M  V30 1053 H 93.2814 1.6231 -3.44034 0
M  V30 1054 H 94.5934 2.32466 -4.41318 0
M  V30 1055 H 93.7474 4.62865 -3.92226 0
M  V30 1056 H 92.4864 3.95799 -2.84947 0
M  V30 1057 H 91.4914 2.7071 -4.78535 0
M  V30 1058 H 92.7164 3.40856 -5.87362 0
M  V30 1059 H 90.6624 4.97923 -4.27093 0
M  V30 1060 H 90.5794 4.64006 -5.96853 0
M  V30 1061 H 91.8474 5.66096 -5.35869 0
M  V30 1062 N 96.0765 1.50051 0.48192 0
M  V30 1063 C 97.3235 1.60498 1.23477 0
M  V30 1064 C 97.6515 0.300331 1.92167 0
M  V30 1065 O 96.9065 -0.713094 1.82246 0
M  V30 1066 C 97.2055 2.72717 2.30998 0
M  V30 1067 C 96.8715 4.13572 1.79636 0
M  V30 1068 C 95.5335 4.519 1.65348 0
M  V30 1069 C 97.8855 5.01649 1.41412 0
M  V30 1070 C 95.2135 5.76057 1.11244 0
M  V30 1071 C 97.5655 6.26343 0.887538 0
M  V30 1072 C 96.2295 6.63483 0.731207 0
M  V30 1073 H 95.4995 0.587303 0.451836 0
M  V30 1074 H 98.1465 1.83948 0.532468 0
M  V30 1075 H 96.4515 2.43312 3.07094 0
M  V30 1076 H 98.1485 2.78006 2.88988 0
M  V30 1077 H 94.7385 3.83329 1.91721 0
M  V30 1078 H 98.9225 4.72679 1.51289 0
M  V30 1079 H 94.1785 6.03516 0.978686 0
M  V30 1080 H 98.3525 6.93958 0.582654 0
M  V30 1081 H 95.9795 7.59568 0.309806 0
M  V30 1082 N 97.5546 -0.734337 1.39446 0
M  V30 1083 C 98.8316 -1.48579 1.27215 0
M  V30 1084 C 99.2116 -2.1077 -0.117968 0
M  V30 1085 O 98.5596 -1.98646 -1.12924 0
M  V30 1086 C 98.7696 -2.53667 2.39696 0
M  V30 1087 C 100.118 -3.20031 2.79044 0
M  V30 1088 O 101.142 -2.6398 2.39151 0
M  V30 1089 O 100.001 -4.21455 3.47905 0
M  V30 1090 H 97.0946 -0.659816 0.49857 0
M  V30 1091 H 99.6406 -0.768106 1.51322 0
M  V30 1092 H 98.4126 -2.06096 3.32626 0
M  V30 1093 H 98.0356 -3.32994 2.17258 0
M  V30 1094 N 99.0327 -1.24633 -0.964593 0
M  V30 1095 C 100.261 -1.11501 -1.74285 0
M  V30 1096 C 100.676 0.332165 -1.85855 0
M  V30 1097 O 100.033 1.22903 -1.34911 0
M  V30 1098 C 100.084 -1.75258 -3.16175 0
M  V30 1099 O 99.8047 -3.14318 -3.05182 0
M  V30 1100 C 101.306 -1.67776 -4.10324 0
M  V30 1101 H 98.5257 -0.389407 -0.546446 0
M  V30 1102 H 101.07 -1.64801 -1.21083 0
M  V30 1103 H 99.2247 -1.25954 -3.66353 0
M  V30 1104 H 99.6387 -3.4551 -3.94618 0
M  V30 1105 H 101.113 -2.17064 -5.0753 0
M  V30 1106 H 101.59 -0.639584 -4.34518 0
M  V30 1107 H 102.196 -2.16522 -3.66058 0
M  V30 1108 N 100.511 1.16574 -1.06058 0
M  V30 1109 C 101.757 1.87324 -0.777022 0
M  V30 1110 C 102.09 1.81351 0.694645 0
M  V30 1111 O 101.365 1.22753 1.50871 0
M  V30 1112 C 101.648 3.36991 -1.26922 0
M  V30 1113 C 101.501 3.51667 -2.80447 0
M  V30 1114 C 102.82 4.3131 -0.87521 0
M  V30 1115 H 99.9388 0.680191 -0.28374 0
M  V30 1116 H 102.581 1.37036 -1.3161 0
M  V30 1117 H 100.731 3.79949 -0.81063 0
M  V30 1118 H 102.403 3.17664 -3.34495 0
M  V30 1119 H 100.646 2.93656 -3.19294 0
M  V30 1120 H 101.317 4.56766 -3.0995 0
M  V30 1121 H 103.793 3.9624 -1.27014 0
M  V30 1122 H 102.669 5.34545 -1.2471 0
M  V30 1123 H 102.93 4.41552 0.220071 0
M  V30 1124 N 101.989 0.842826 1.3317 0
M  V30 1125 C 102.899 0.281444 2.32906 0
M  V30 1126 C 103.915 -0.594587 1.63526 0
M  V30 1127 O 105.091 -0.49777 1.95152 0
M  V30 1128 C 102.156 -0.530929 3.42611 0
M  V30 1129 C 101.217 0.369843 4.27704 0
M  V30 1130 C 100.45 -0.403853 5.3217 0
M  V30 1131 O 100.673 -1.63513 5.46461 0
M  V30 1132 O 99.6069 0.224199 6.01482 0
M  V30 1133 H 103.433 1.10744 2.82789 0
M  V30 1134 H 101.018 0.60545 1.36582 0
M  V30 1135 H 102.9 -0.992437 4.09547 0
M  V30 1136 H 101.575 -1.33392 2.94938 0
M  V30 1137 H 100.482 0.879275 3.6362 0
M  V30 1138 H 101.815 1.13771 4.78871 0
M  V30 1139 N 103.467 -1.45747 0.599634 0
M  V30 1140 C 104.744 -1.95585 0.0240846 0
M  V30 1141 C 105.124 -1.54217 -1.44154 0
M  V30 1142 O 104.472 -0.800903 -2.14004 0
M  V30 1143 C 104.682 -3.48344 0.21385 0
M  V30 1144 C 106.03 -4.24504 0.0904902 0
M  V30 1145 O 107.054 -3.55911 0.143558 0
M  V30 1146 O 105.913 -5.46491 -0.0310766 0
M  V30 1147 H 103.007 -0.82602 -0.0402478 0
M  V30 1148 H 105.553 -1.55951 0.669139 0
M  V30 1149 H 104.325 -3.71397 1.23206 0
M  V30 1150 H 103.948 -3.9485 -0.466842 0
M  V30 1151 N 104.945 -0.338344 -1.53925 0
M  V30 1152 C 106.192 0.259758 -2.00827 0
M  V30 1153 C 106.52 1.50973 -1.22628 0
M  V30 1154 O 105.775 1.93379 -0.300509 0
M  V30 1155 C 106.074 0.62448 -3.51902 0
M  V30 1156 C 105.74 -0.528006 -4.47798 0
M  V30 1157 C 104.402 -0.844298 -4.73735 0
M  V30 1158 C 106.754 -1.30143 -5.0469 0
M  V30 1159 C 104.082 -1.93648 -5.53821 0
M  V30 1160 C 106.434 -2.38382 -5.85967 0
M  V30 1161 C 105.098 -2.70576 -6.10201 0
M  V30 1162 H 104.368 0.0950523 -0.734878 0
M  V30 1163 H 107.015 -0.465182 -1.85764 0
M  V30 1164 H 105.32 1.43006 -3.64769 0
M  V30 1165 H 107.017 1.09905 -3.85645 0
M  V30 1166 H 103.607 -0.271421 -4.2774 0
M  V30 1167 H 107.791 -1.07033 -4.84621 0
M  V30 1168 H 103.047 -2.19021 -5.70824 0
M  V30 1169 H 107.221 -2.98746 -6.29066 0
M  V30 1170 H 104.848 -3.55333 -6.72044 0
M  V30 1171 N 106.423 1.57458 -0.0668435 0
M  V30 1172 C 107.669 1.94401 0.598316 0
M  V30 1173 C 108.024 0.946335 1.67518 0
M  V30 1174 O 107.317 -0.0321442 1.91573 0
M  V30 1175 C 107.511 3.35784 1.22409 0
M  V30 1176 C 107.34 4.49212 0.209367 0
M  V30 1177 C 106.11 5.04887 -0.204218 0
M  V30 1178 C 108.308 5.11335 -0.551431 0
M  V30 1179 N 106.29 6.01854 -1.21016 0
M  V30 1180 C 107.661 6.03754 -1.41 0
M  V30 1181 C 109.716 4.94173 -0.608038 0
M  V30 1182 C 108.419 6.80854 -2.32013 0
M  V30 1183 C 110.445 5.71912 -1.50566 0
M  V30 1184 C 109.807 6.63976 -2.35191 0
M  V30 1185 H 105.906 0.758538 0.190114 0
M  V30 1186 H 108.49 1.94175 -0.142832 0
M  V30 1187 H 106.661 3.36757 1.93518 0
M  V30 1188 H 108.393 3.59976 1.84931 0
M  V30 1189 H 105.148 4.73266 0.177908 0
M  V30 1190 H 105.572 6.55035 -1.71049 0
M  V30 1191 H 110.214 4.22788 0.032022 0
M  V30 1192 H 107.932 7.5152 -2.97057 0
M  V30 1193 H 111.518 5.60656 -1.55423 0
M  V30 1194 H 110.398 7.2308 -3.03522 0
M  V30 1195 N 107.901 -0.206675 1.56239 0
M  V30 1196 C 108.864 -1.23976 1.92776 0
M  V30 1197 C 109.864 -1.39041 0.807729 0
M  V30 1198 O 111.054 -1.37051 1.0753 0
M  V30 1199 C 108.186 -2.61112 2.19165 0
M  V30 1200 H 109.379 -0.927764 2.85189 0
M  V30 1201 H 106.932 -0.447718 1.4975 0
M  V30 1202 H 107.667 -2.97386 1.29352 0
M  V30 1203 H 107.452 -2.51552 3.00772 0
M  V30 1204 H 108.942 -3.35633 2.48476 0
M  V30 1205 N 109.379 -1.50304 -0.473955 0
M  V30 1206 C 110.309 -1.71886 -1.58042 0
M  V30 1207 C 111.29 -0.567799 -1.60344 0
M  V30 1208 O 112.475 -0.806623 -1.76656 0
M  V30 1209 C 109.605 -1.81036 -2.96384 0
M  V30 1210 C 108.559 -2.962 -3.08949 0
M  V30 1211 C 107.885 -2.9049 -4.48909 0
M  V30 1212 C 109.185 -4.36752 -2.86434 0
M  V30 1213 H 110.879 -2.64527 -1.40234 0
M  V30 1214 H 108.425 -1.27295 -0.673201 0
M  V30 1215 H 110.378 -1.94719 -3.73714 0
M  V30 1216 H 109.102 -0.850147 -3.15341 0
M  V30 1217 H 107.761 -2.82164 -2.3405 0
M  V30 1218 H 107.409 -1.92321 -4.64781 0
M  V30 1219 H 107.109 -3.67802 -4.58253 0
M  V30 1220 H 108.633 -3.06218 -5.28264 0
M  V30 1221 H 110.047 -4.5133 -3.53517 0
M  V30 1222 H 108.444 -5.15493 -3.07225 0
M  V30 1223 H 109.514 -4.49321 -1.82316 0
M  V30 1224 N 110.857 0.726932 -1.39834 0
M  V30 1225 C 112.087 1.51393 -1.40583 0
M  V30 1226 C 112.495 1.892 -0.000740625 0
M  V30 1227 O 111.838 1.55189 0.982951 0
M  V30 1228 C 111.9 2.82588 -2.22226 0
M  V30 1229 C 111.564 2.67169 -3.70769 0
M  V30 1230 C 112.561 2.3518 -4.63666 0
M  V30 1231 C 110.246 2.83788 -4.14451 0
M  V30 1232 C 112.24 2.20002 -5.98229 0
M  V30 1233 C 109.927 2.68229 -5.49087 0
M  V30 1234 C 110.925 2.36382 -6.4079 0
M  V30 1235 O 110.613 2.2093 -7.72946 0
M  V30 1236 H 110.345 0.474168 -0.48181 0
M  V30 1237 H 112.899 0.905247 -1.84376 0
M  V30 1238 H 111.129 3.45746 -1.73195 0
M  V30 1239 H 112.818 3.44247 -2.15055 0
M  V30 1240 H 113.584 2.21984 -4.31217 0
M  V30 1241 H 109.463 3.07566 -3.43401 0
M  V30 1242 H 113.007 1.95067 -6.69772 0
M  V30 1243 H 108.904 2.81006 -5.81125 0
M  V30 1244 H 109.672 2.35937 -7.83757 0
M  V30 1245 N 112.336 1.25143 0.95797 0
M  V30 1246 C 113.284 1.05019 2.07542 0
M  V30 1247 C 114.278 -0.0178751 1.69391 0
M  V30 1248 O 115.484 0.137472 1.79474 0
M  V30 1249 H 111.859 0.32265 0.679265 0
M  V30 1250 H 113.83 1.99759 2.21673 0
M  V30 1251 C 112.579 0.682074 3.40944 0
M  V30 1252 H 111.902 1.49573 3.70767 0
M  V30 1253 H 113.342 0.580945 4.20001 0
M  V30 1254 C 111.801 -0.611608 3.31302 0
M  V30 1255 O 112.331 -1.65465 3.66038 0
M  V30 1256 N 110.537 -0.595982 2.84423 0
M  V30 1257 H 110.084 0.253192 2.56353 0
M  V30 1258 H 110.042 -1.46173 2.78354 0
M  V30 1259 N 113.814 -1.1601 1.06675 0
M  V30 1260 C 114.764 -2.18512 0.650888 0
M  V30 1261 C 115.748 -1.57677 -0.320441 0
M  V30 1262 O 116.94 -1.76482 -0.135266 0
M  V30 1263 C 114.069 -3.43273 0.0429255 0
M  V30 1264 C 113.155 -4.11176 1.03898 0
M  V30 1265 N 113.546 -4.54672 2.216 0
M  V30 1266 C 111.844 -4.37417 0.870779 0
M  V30 1267 C 112.545 -5.07248 2.84736 0
M  V30 1268 N 111.521 -5.0037 2.12441 0
M  V30 1269 H 115.323 -2.49863 1.54745 0
M  V30 1270 H 112.837 -1.32503 0.938975 0
M  V30 1271 H 114.834 -4.16006 -0.272857 0
M  V30 1272 H 113.494 -3.13408 -0.84884 0
M  V30 1273 H 114.505 -4.4828 2.59356 0
M  V30 1274 H 111.182 -4.17488 0.0313293 0
M  V30 1275 H 112.572 -5.50912 3.84636 0
M  V30 1276 N 115.292 -0.849877 -1.32721 0
M  V30 1277 C 116.541 -0.447175 -1.96681 0
M  V30 1278 C 116.854 1.00135 -1.68025 0
M  V30 1279 O 118.06 1.50926 -2.25685 0
M  V30 1280 C 116.516 -0.7487 -3.52026 0
M  V30 1281 C 116.124 -2.21264 -3.89546 0
M  V30 1282 C 117.868 -0.413487 -4.22481 0
M  V30 1283 C 115.775 -2.45763 -5.37917 0
M  V30 1284 H 114.705 -0.163486 -0.736063 0
M  V30 1285 H 117.356 -1.03999 -1.51183 0
M  V30 1286 H 115.738 -0.0853727 -3.95908 0
M  V30 1287 H 116.912 -2.91736 -3.56689 0
M  V30 1288 H 115.227 -2.5119 -3.32103 0
M  V30 1289 H 117.824 -0.574017 -5.3161 0
M  V30 1290 H 118.167 0.644492 -4.11281 0
M  V30 1291 H 118.7 -1.03251 -3.84167 0
M  V30 1292 H 115.439 -3.50168 -5.54132 0
M  V30 1293 H 114.959 -1.79864 -5.72197 0
M  V30 1294 H 116.638 -2.29471 -6.0494 0
M  V30 1295 N 116.77 1.45427 -0.607355 0
M  V30 1296 C 117.702 2.2871 0.149752 0
M  V30 1297 C 118.715 1.39937 0.831958 0
M  V30 1298 O 119.904 1.64313 0.697385 0
M  V30 1299 C 117.004 3.15673 1.23304 0
M  V30 1300 C 116.177 4.32722 0.637996 0
M  V30 1301 C 115.236 5.00895 1.61215 0
M  V30 1302 O 114.262 5.57697 1.13854 0
M  V30 1303 N 115.464 5.00159 2.94655 0
M  V30 1304 H 118.229 2.94328 -0.564882 0
M  V30 1305 H 115.79 1.55612 -0.446823 0
M  V30 1306 H 117.782 3.58144 1.88454 0
M  V30 1307 H 116.352 2.51965 1.8502 0
M  V30 1308 H 115.572 3.93734 -0.191572 0
M  V30 1309 H 116.86 5.08321 0.220665 0
M  V30 1310 H 116.258 4.553 3.35735 0
M  V30 1311 H 114.815 5.46495 3.55228 0
M  V30 1312 N 118.248 0.346503 1.53744 0
M  V30 1313 C 119.178 -0.501193 2.28058 0
M  V30 1314 C 120.159 -1.10014 1.29734 0
M  V30 1315 O 121.344 -1.12097 1.58581 0
M  V30 1316 C 118.474 -1.65078 3.05559 0
M  V30 1317 C 117.428 -1.18003 4.11411 0
M  V30 1318 C 116.754 -2.41837 4.76884 0
M  V30 1319 C 118.054 -0.278394 5.21558 0
M  V30 1320 H 119.748 0.11875 2.99164 0
M  V30 1321 H 117.294 0.0585531 1.43881 0
M  V30 1322 H 119.247 -2.25028 3.56287 0
M  V30 1323 H 117.971 -2.29767 2.32109 0
M  V30 1324 H 116.63 -0.603331 3.61601 0
M  V30 1325 H 116.278 -3.0494 4.00026 0
M  V30 1326 H 115.978 -2.1102 5.48402 0
M  V30 1327 H 117.502 -3.02508 5.30397 0
M  V30 1328 H 118.916 -0.784823 5.67903 0
M  V30 1329 H 117.313 -0.0619707 6.00068 0
M  V30 1330 H 118.383 0.684677 4.80042 0
M  V30 1331 N 119.726 -1.57421 0.075193 0
M  V30 1332 C 120.951 -1.98364 -0.605515 0
M  V30 1333 C 121.376 -0.953383 -1.62149 0
M  V30 1334 O 120.734 0.0806053 -1.81121 0
M  V30 1335 C 120.782 -3.38332 -1.24756 0
M  V30 1336 O 119.886 -3.37959 -2.36342 0
M  V30 1337 H 119.227 -0.645553 -0.155428 0
M  V30 1338 H 121.757 -2.04044 0.150714 0
M  V30 1339 H 121.767 -3.75591 -1.5936 0
M  V30 1340 H 120.442 -4.12846 -0.503129 0
M  V30 1341 H 119.019 -3.12474 -2.03506 0
M  V30 1342 N 121.204 0.198386 -1.56346 0
M  V30 1343 C 122.429 0.939682 -1.84891 0
M  V30 1344 C 122.854 1.76202 -0.658369 0
M  V30 1345 O 122.212 1.76993 0.392851 0
M  V30 1346 C 122.26 1.81428 -3.11635 0
M  V30 1347 O 121.364 2.91265 -2.91956 0
M  V30 1348 H 120.705 0.264807 -0.608912 0
M  V30 1349 H 123.235 0.204695 -2.03573 0
M  V30 1350 H 123.245 2.21958 -3.42343 0
M  V30 1351 H 121.92 1.21004 -3.97908 0
M  V30 1352 H 120.497 2.54514 -2.72538 0
M  V30 1353 N 122.682 1.50554 0.465978 0
M  V30 1354 C 123.63 1.70324 1.58406 0
M  V30 1355 C 124.624 0.569139 1.59553 0
M  V30 1356 O 125.83 0.749776 1.63641 0
M  V30 1357 H 122.205 0.537688 0.525734 0
M  V30 1358 H 124.176 2.64104 1.38894 0
M  V30 1359 C 122.925 1.81928 2.96307 0
M  V30 1360 H 122.248 2.68586 2.96144 0
M  V30 1361 H 123.688 1.99784 3.73982 0
M  V30 1362 C 122.147 0.572095 3.32007 0
M  V30 1363 O 122.677 -0.286416 4.00678 0
M  V30 1364 N 120.883 0.424606 2.87481 0
M  V30 1365 H 120.43 1.12427 2.31771 0
M  V30 1366 H 120.388 -0.408697 3.11732 0
M  V30 1367 N 124.16 -0.719506 1.40217 0
M  V30 1368 C 125.09 -1.8465 1.42922 0
M  V30 1369 C 126.071 -1.67599 0.29062 0
M  V30 1370 O 127.256 -1.87688 0.498677 0
M  V30 1371 C 124.386 -3.22565 1.28722 0
M  V30 1372 C 123.34 -3.54281 2.40144 0
M  V30 1373 C 122.666 -4.91298 2.11023 0
M  V30 1374 C 123.966 -3.55676 3.82481 0
M  V30 1375 H 125.66 -1.82644 2.37237 0
M  V30 1376 H 123.206 -0.877305 1.1419 0
M  V30 1377 H 125.159 -4.01095 1.29232 0
M  V30 1378 H 123.883 -3.25137 0.308811 0
M  V30 1379 H 122.542 -2.78088 2.38877 0
M  V30 1380 H 122.19 -4.90468 1.11582 0
M  V30 1381 H 121.89 -5.13485 2.8567 0
M  V30 1382 H 123.414 -5.72166 2.13209 0
M  V30 1383 H 124.828 -4.24254 3.85592 0
M  V30 1384 H 123.225 -3.89388 4.56614 0
M  V30 1385 H 124.295 -2.55144 4.12346 0
M  V30 1386 N 125.638 -1.25649 -0.95132 0
M  V30 1387 C 126.571 -1.00644 -2.04807 0
M  V30 1388 C 127.549 0.0654271 -1.62468 0
M  V30 1389 O 128.733 -0.074911 -1.88351 0
M  V30 1390 C 125.86 -0.522052 -3.34653 0
M  V30 1391 C 124.906 -1.58495 -3.95957 0
M  V30 1392 S 125.739 -3.17108 -4.31512 0
M  V30 1393 C 126.895 -2.70412 -5.64471 0
M  V30 1394 H 127.128 -1.93508 -2.25703 0
M  V30 1395 H 124.661 -1.09216 -1.09139 0
M  V30 1396 H 126.619 -0.24923 -4.09743 0
M  V30 1397 H 125.28 0.386146 -3.11717 0
M  V30 1398 H 124.473 -1.1968 -4.89584 0
M  V30 1399 H 124.075 -1.80862 -3.2736 0
M  V30 1400 H 126.367 -2.14245 -6.42733 0
M  V30 1401 H 127.31 -3.62693 -6.08161 0
M  V30 1402 H 127.718 -2.10302 -5.23864 0
M  V30 1403 N 127.117 1.15442 -1.07289 0
M  V30 1404 C 128.528 1.67803 -0.818475 0
M  V30 1405 C 128.879 1.8489 0.656507 0
M  V30 1406 O 128.004 1.55176 1.50829 0
M  V30 1407 C 128.599 3.04805 -1.47917 0
M  V30 1408 C 127.158 3.54245 -1.27229 0
M  V30 1409 C 126.305 2.29986 -1.54925 0
M  V30 1410 H 129.256 0.996646 -1.23502 0
M  V30 1411 H 129.277 3.69702 -0.90005 0
M  V30 1412 H 128.789 2.92336 -2.55267 0
M  V30 1413 H 126.89 3.71956 -0.21899 0
M  V30 1414 H 127.003 4.35723 -1.99203 0
M  V30 1415 H 125.367 2.35496 -0.970242 0
M  V30 1416 H 126.15 2.20105 -2.63455 0
M  V30 1417 N 128.595 0.856903 1.32268 0
M  V30 1418 C 129.843 0.460474 1.96784 0
M  V30 1419 C 130.164 -0.987701 1.68135 0
M  V30 1420 O 129.434 -1.69058 0.989765 0
M  V30 1421 H 128.014 0.167289 0.728027 0
M  V30 1422 H 130.676 1.09383 1.61312 0
M  V30 1423 H 129.772 0.60739 3.06133 0
M  V30 1424 N 130.073 -1.45103 0.615059 0
M  V30 1425 C 131.313 -2.04069 0.116282 0
M  V30 1426 C 131.677 -1.4721 -1.2326 0
M  V30 1427 O 132.878 -1.97577 -1.82255 0
M  V30 1428 C 131.149 -3.57298 0.085482 0
M  V30 1429 S 132.708 -4.37394 -0.351015 0
M  V30 1430 H 129.526 -0.709006 0.0532183 0
M  V30 1431 H 132.128 -1.77709 0.81484 0
M  V30 1432 H 130.832 -3.9619 1.0706 0
M  V30 1433 H 130.363 -3.88244 -0.634835 0
M  V30 1434 H 132.378 -4.69734 -1.59889 0
M  V30 1435 N 131.551 -0.354651 -1.53558 0
M  V30 1436 C 132.828 0.294281 -1.93374 0
M  V30 1437 C 133.208 1.67313 -1.28723 0
M  V30 1438 O 132.556 2.24179 -0.442247 0
M  V30 1439 C 132.766 0.355445 -3.47185 0
M  V30 1440 C 134.114 0.601007 -4.20325 0
M  V30 1441 O 135.138 0.437106 -3.53508 0
M  V30 1442 O 133.997 0.919322 -5.38712 0
M  V30 1443 H 131.091 0.174033 -0.808481 0
M  V30 1444 H 133.637 -0.406638 -1.64756 0
M  V30 1445 H 132.409 -0.611729 -3.86489 0
M  V30 1446 H 132.032 1.1027 -3.82003 0
M  V30 1447 N 133.029 1.57378 -0.0835403 0
M  V30 1448 C 134.259 1.97975 0.590713 0
M  V30 1449 C 134.667 0.961083 1.62972 0
M  V30 1450 O 134.01 -0.0590879 1.83605 0
M  V30 1451 C 134.072 3.34915 1.3066 0
M  V30 1452 C 133.736 4.55069 0.419698 0
M  V30 1453 C 134.733 5.18868 -0.32749 0
M  V30 1454 C 132.418 5.0114 0.341137 0
M  V30 1455 C 134.412 6.27098 -1.14134 0
M  V30 1456 C 132.099 6.0924 -0.476374 0
M  V30 1457 C 133.097 6.72083 -1.21627 0
M  V30 1458 O 132.785 7.781 -2.02028 0
M  V30 1459 H 132.517 0.655818 0.163947 0
M  V30 1460 H 135.071 2.04807 -0.156021 0
M  V30 1461 H 133.301 3.24733 2.09966 0
M  V30 1462 H 134.99 3.60037 1.87424 0
M  V30 1463 H 135.756 4.84211 -0.276459 0
M  V30 1464 H 131.635 4.51996 0.90668 0
M  V30 1465 H 135.179 6.7608 -1.71935 0
M  V30 1466 H 131.076 6.43329 -0.528927 0
M  V30 1467 H 131.844 7.95034 -1.94586 0
M  V30 1468 N 134.507 -0.190092 1.56449 0
M  V30 1469 C 135.732 -0.929864 1.85387 0
M  V30 1470 C 136.157 -1.7585 0.667704 0
M  V30 1471 O 135.515 -1.77198 -0.383459 0
M  V30 1472 C 135.563 -1.79773 3.12593 0
M  V30 1473 O 134.667 -2.89713 2.93496 0
M  V30 1474 H 134.008 -0.261574 0.610307 0
M  V30 1475 H 136.538 -0.193896 2.03679 0
M  V30 1476 H 136.548 -2.20139 3.43515 0
M  V30 1477 H 135.223 -1.18892 3.98544 0
M  V30 1478 H 133.8 -2.53065 2.73884 0
M  V30 1479 N 135.985 -1.50799 -0.457987 0
M  V30 1480 C 136.915 -1.73553 -1.5621 0
M  V30 1481 C 137.896 -0.584774 -1.59732 0
M  V30 1482 O 139.081 -0.825314 -1.7579 0
M  V30 1483 C 136.211 -1.84169 -2.94447 0
M  V30 1484 C 135.165 -2.99461 -3.0579 0
M  V30 1485 C 134.491 -2.95235 -4.45803 0
M  V30 1486 C 135.791 -4.39766 -2.81786 0
M  V30 1487 H 137.485 -2.66 -1.37421 0
M  V30 1488 H 135.031 -1.28002 -0.659662 0
M  V30 1489 H 136.984 -1.98672 -3.71628 0
M  V30 1490 H 135.708 -0.883545 -3.14422 0
M  V30 1491 H 134.367 -2.8463 -2.31044 0
M  V30 1492 H 134.015 -1.97239 -4.62715 0
M  V30 1493 H 133.715 -3.72642 -4.54326 0
M  V30 1494 H 135.239 -3.11803 -5.24987 0
M  V30 1495 H 136.653 -4.55054 -3.4871 0
M  V30 1496 H 135.05 -5.18722 -3.0174 0
M  V30 1497 H 136.12 -4.51229 -1.7754 0
M  V30 1498 N 137.463 0.71206 -1.40597 0
M  V30 1499 C 138.71 1.47197 -1.39065 0
M  V30 1500 C 139.038 1.94499 0.00583891 0
M  V30 1501 O 138.293 1.68752 0.99102 0
M  V30 1502 C 138.592 2.71039 -2.32965 0
M  V30 1503 C 138.258 2.42484 -3.80148 0
M  V30 1504 C 136.92 2.34406 -4.20247 0
M  V30 1505 C 139.272 2.18598 -4.73143 0
M  V30 1506 C 136.6 2.00516 -5.51371 0
M  V30 1507 C 138.952 1.8622 -6.0457 0
M  V30 1508 C 137.616 1.76626 -6.43708 0
M  V30 1509 H 136.886 0.538634 -0.508876 0
M  V30 1510 H 139.533 0.815325 -1.73276 0
M  V30 1511 H 137.838 3.41558 -1.91951 0
M  V30 1512 H 139.535 3.29138 -2.29061 0
M  V30 1513 H 136.125 2.49659 -3.4838 0
M  V30 1514 H 140.309 2.23793 -4.42979 0
M  V30 1515 H 135.565 1.91628 -5.80593 0
M  V30 1516 H 139.739 1.66752 -6.76141 0
M  V30 1517 H 137.366 1.50133 -7.45228 0
M  V30 1518 N 138.941 1.26152 0.944643 0
M  V30 1519 C 139.888 1.07408 2.04285 0
M  V30 1520 C 140.858 -0.0198413 1.66088 0
M  V30 1521 O 142.043 0.139264 1.90291 0
M  V30 1522 C 139.183 0.70945 3.37729 0
M  V30 1523 C 138.296 1.87926 3.88983 0
M  V30 1524 C 137.431 1.45807 5.10797 0
M  V30 1525 C 136.47 2.5964 5.54305 0
M  V30 1526 N 135.607 2.18226 6.67324 0
M  V30 1527 H 140.447 2.01389 2.1965 0
M  V30 1528 H 137.984 1.00275 1.07626 0
M  V30 1529 H 139.942 0.478948 4.14442 0
M  V30 1530 H 138.572 -0.193389 3.2222 0
M  V30 1531 H 137.624 2.22279 3.08701 0
M  V30 1532 H 138.936 2.73377 4.17213 0
M  V30 1533 H 138.09 1.18781 5.94959 0
M  V30 1534 H 136.829 0.574414 4.84305 0
M  V30 1535 H 135.834 2.87399 4.68702 0
M  V30 1536 H 137.059 3.48599 5.828 0
M  V30 1537 H 135.005 1.3229 6.42523 0
M  V30 1538 H 134.922 2.97221 6.95123 0
M  V30 1539 H 136.19 1.94403 7.54869 0
M  V30 1540 N 140.419 -1.14872 1.07899 0
M  V30 1541 C 141.696 -1.81928 0.71845 0
M  V30 1542 C 142.076 -1.95417 -0.798455 0
M  V30 1543 O 141.424 -1.50997 -1.715 0
M  V30 1544 C 141.634 -3.17937 1.43935 0
M  V30 1545 C 142.982 -3.93501 1.59506 0
M  V30 1546 O 144.006 -3.27509 1.40058 0
M  V30 1547 O 142.865 -5.1183 1.91551 0
M  V30 1548 H 139.959 -0.78628 0.256305 0
M  V30 1549 H 142.505 -1.21934 1.18026 0
M  V30 1550 H 141.277 -3.0325 2.47295 0
M  V30 1551 H 140.9 -3.85619 0.968687 0
M  V30 1552 N 141.898 -0.863906 -1.31812 0
M  V30 1553 C 143.146 -0.470904 -1.96537 0
M  V30 1554 C 143.467 0.978771 -1.68657 0
M  V30 1555 O 142.737 1.6853 -0.998717 0
M  V30 1556 H 141.317 -0.171148 -0.72713 0
M  V30 1557 H 143.979 -1.10236 -1.60729 0
M  V30 1558 H 143.075 -0.623616 -3.05806 0
M  V30 1559 N 143.376 1.44774 -0.622745 0
M  V30 1560 C 144.625 2.01334 -0.121397 0
M  V30 1561 C 144.938 1.49505 1.26125 0
M  V30 1562 O 146.144 1.98139 1.85616 0
M  V30 1563 C 144.6 3.59516 -0.166298 0
M  V30 1564 C 144.208 4.20342 -1.54974 0
M  V30 1565 C 145.952 4.23582 0.279021 0
M  V30 1566 C 143.859 5.70721 -1.55021 0
M  V30 1567 H 142.789 0.752851 -0.0416172 0
M  V30 1568 H 145.44 1.66083 -0.780309 0
M  V30 1569 H 143.822 3.92027 0.559557 0
M  V30 1570 H 144.996 3.99381 -2.29851 0
M  V30 1571 H 143.311 3.68529 -1.93843 0
M  V30 1572 H 145.908 5.33868 0.298083 0
M  V30 1573 H 146.251 3.95327 1.30471 0
M  V30 1574 H 146.784 3.95843 -0.394063 0
M  V30 1575 H 143.523 6.03698 -2.55399 0
M  V30 1576 H 143.043 5.93829 -0.844245 0
M  V30 1577 H 144.722 6.34203 -1.28047 0
M  V30 1578 N 144.854 0.36279 1.53368 0
M  V30 1579 C 145.764 -0.492994 2.29362 0
M  V30 1580 C 146.78 -1.09507 1.35219 0
M  V30 1581 O 147.956 -1.10662 1.68273 0
M  V30 1582 C 145.021 -1.61855 3.066 0
M  V30 1583 C 144.082 -1.04429 4.16405 0
M  V30 1584 C 143.315 -2.11621 4.89951 0
M  V30 1585 O 143.538 -3.32684 4.63333 0
M  V30 1586 O 142.472 -1.74835 5.75948 0
M  V30 1587 H 146.298 0.125331 3.03441 0
M  V30 1588 H 143.883 0.127253 1.48857 0
M  V30 1589 H 145.765 -2.27302 3.54841 0
M  V30 1590 H 144.44 -2.22233 2.3536 0
M  V30 1591 H 143.347 -0.353819 3.72423 0
M  V30 1592 H 144.68 -0.485113 4.89804 0
M  V30 1593 N 146.332 -1.57332 0.0918853 0
M  V30 1594 C 147.743 -1.81496 -0.437739 0
M  V30 1595 C 148.094 -1.00727 -1.6837 0
M  V30 1596 O 147.219 -0.235694 -2.15113 0
M  V30 1597 C 147.814 -3.29197 -0.800939 0
M  V30 1598 C 146.373 -3.54136 -1.27532 0
M  V30 1599 C 145.52 -2.75979 -0.270392 0
M  V30 1600 H 148.471 -1.55494 0.317366 0
M  V30 1601 H 148.492 -3.42344 -1.66074 0
M  V30 1602 H 148.004 -3.87955 0.106078 0
M  V30 1603 H 146.105 -3.00705 -2.20016 0
M  V30 1604 H 146.218 -4.62792 -1.23938 0
M  V30 1605 H 144.582 -2.43349 -0.751872 0
M  V30 1606 H 145.365 -3.37484 0.629248 0
M  V30 1607 N 147.81 0.181792 -1.56548 0
M  V30 1608 C 148.743 1.25366 -1.90679 0
M  V30 1609 C 149.721 1.43299 -0.768376 0
M  V30 1610 O 150.905 1.58475 -1.02068 0
M  V30 1611 C 148.032 2.61826 -2.1486 0
M  V30 1612 C 147.078 2.60688 -3.37556 0
M  V30 1613 S 147.911 2.10804 -4.92262 0
M  V30 1614 C 149.067 3.49062 -5.19525 0
M  V30 1615 H 149.3 0.962277 -2.81296 0
M  V30 1616 H 146.833 0.385892 -1.495 0
M  V30 1617 H 148.791 3.40371 -2.29473 0
M  V30 1618 H 147.452 2.88169 -1.24969 0
M  V30 1619 H 146.645 3.61058 -3.51643 0
M  V30 1620 H 146.247 1.90232 -3.22006 0
M  V30 1621 H 148.539 4.45003 -5.10861 0
M  V30 1622 H 149.482 3.39859 -6.2121 0
M  V30 1623 H 149.89 3.4459 -4.47122 0
M  V30 1624 N 149.288 1.51039 0.449983 0
M  V30 1625 C 150.534 1.64287 1.19923 0
M  V30 1626 C 150.889 0.348701 1.89214 0
M  V30 1627 O 150.182 -0.654751 1.80065 0
M  V30 1628 C 150.376 2.77556 2.25161 0
M  V30 1629 C 150.205 4.17862 1.66198 0
M  V30 1630 C 148.975 4.83976 1.45243 0
M  V30 1631 C 151.173 5.01388 1.14519 0
M  V30 1632 N 149.155 6.08433 0.817437 0
M  V30 1633 C 150.526 6.16743 0.634705 0
M  V30 1634 C 152.581 4.87008 1.03574 0
M  V30 1635 C 151.284 7.19295 0.0255452 0
M  V30 1636 C 153.31 5.89757 0.440489 0
M  V30 1637 C 152.672 7.04375 -0.0595112 0
M  V30 1638 H 148.771 0.655161 0.426952 0
M  V30 1639 H 151.355 1.88228 0.49781 0
M  V30 1640 H 149.526 2.553 2.92706 0
M  V30 1641 H 151.258 2.80049 2.92155 0
M  V30 1642 H 148.013 4.41627 1.71063 0
M  V30 1643 H 148.437 6.75017 0.517747 0
M  V30 1644 H 153.079 3.9866 1.4082 0
M  V30 1645 H 150.797 8.07302 -0.359071 0
M  V30 1646 H 154.383 5.80698 0.35788 0
M  V30 1647 H 153.263 7.82521 -0.512882 0
M  V30 1648 N 150.766 -0.704594 1.40972 0
M  V30 1649 C 151.676 -1.84856 1.44448 0
M  V30 1650 C 152.692 -1.70726 0.335961 0
M  V30 1651 O 153.868 -1.92799 0.582276 0
M  V30 1652 C 150.933 -3.20758 1.31587 0
M  V30 1653 C 149.994 -3.47063 2.52677 0
M  V30 1654 C 149.227 -4.76481 2.4042 0
M  V30 1655 O 149.45 -5.52341 1.42391 0
M  V30 1656 O 148.384 -5.03367 3.30007 0
M  V30 1657 H 152.21 -1.8488 2.40942 0
M  V30 1658 H 149.795 -0.85647 1.22413 0
M  V30 1659 H 151.677 -4.01913 1.26665 0
M  V30 1660 H 150.352 -3.21438 0.382049 0
M  V30 1661 H 149.259 -2.65873 2.63177 0
M  V30 1662 H 150.592 -3.5119 3.44858 0
M  V30 1663 N 152.244 -1.26651 -0.937939 0
M  V30 1664 C 153.521 -1.0313 -1.66204 0
M  V30 1665 C 153.901 0.437256 -2.06522 0
M  V30 1666 O 153.249 1.41831 -1.79154 0
M  V30 1667 C 153.459 -1.98314 -2.87181 0
M  V30 1668 C 154.807 -2.27107 -3.58758 0
M  V30 1669 O 155.831 -1.96205 -2.97291 0
M  V30 1670 O 154.69 -2.79736 -4.69479 0
M  V30 1671 H 151.784 -0.392384 -0.727986 0
M  V30 1672 H 154.33 -1.37874 -0.989382 0
M  V30 1673 H 153.102 -2.97399 -2.54302 0
M  V30 1674 H 152.725 -1.64068 -3.6217 0
M  V30 1675 N 153.722 1.14298 -1.08507 0
M  V30 1676 C 154.632 2.23027 -0.727753 0
M  V30 1677 C 155.648 1.71952 0.26619 0
M  V30 1678 O 156.824 2.011 0.109882 0
M  V30 1679 C 153.889 3.46403 -0.143541 0
M  V30 1680 C 152.95 4.12413 -1.19223 0
M  V30 1681 C 152.183 5.29899 -0.635798 0
M  V30 1682 O 152.406 5.67796 0.544393 0
M  V30 1683 O 151.34 5.85717 -1.38634 0
M  V30 1684 H 155.166 2.55945 -1.63481 0
M  V30 1685 H 152.751 1.22248 -0.858817 0
M  V30 1686 H 154.633 4.21018 0.179404 0
M  V30 1687 H 153.308 3.15206 0.736659 0
M  V30 1688 H 152.215 3.39667 -1.56772 0
M  V30 1689 H 153.548 4.47718 -2.04474 0
M  V30 1690 N 155.201 0.870884 1.31352 0
M  V30 1691 C 156.148 0.325425 2.28494 0
M  V30 1692 C 157.118 -0.576615 1.5577 0
M  V30 1693 O 158.303 -0.508059 1.83911 0
M  V30 1694 C 155.443 -0.466283 3.41935 0
M  V30 1695 C 154.556 0.463378 4.29508 0
M  V30 1696 C 153.691 -0.342544 5.30094 0
M  V30 1697 C 152.73 0.583486 6.09313 0
M  V30 1698 N 151.867 -0.186244 7.01853 0
M  V30 1699 H 156.707 1.15901 2.74538 0
M  V30 1700 H 154.244 0.58294 1.35056 0
M  V30 1701 H 156.202 -0.941085 4.06447 0
M  V30 1702 H 154.832 -1.26456 2.97 0
M  V30 1703 H 153.884 1.05663 3.65431 0
M  V30 1704 H 155.196 1.1734 4.84802 0
M  V30 1705 H 154.35 -0.879816 6.00287 0
M  V30 1706 H 153.089 -1.08585 4.75458 0
M  V30 1707 H 152.094 1.13251 5.3801 0
M  V30 1708 H 153.319 1.32566 6.66035 0
M  V30 1709 H 151.265 -0.912348 6.49625 0
M  V30 1710 H 151.182 0.464422 7.54572 0
M  V30 1711 H 152.45 -0.704716 7.76308 0
M  V30 1712 N 156.679 -1.44442 0.630414 0
M  V30 1713 C 157.627 -2.32437 -0.0871428 0
M  V30 1714 C 158.621 -1.47304 -0.836525 0
M  V30 1715 O 159.827 -1.63653 -0.749506 0
M  V30 1716 H 156.202 -0.750533 -0.0469495 0
M  V30 1717 H 158.173 -2.90709 0.673096 0
M  V30 1718 C 156.922 -3.31288 -1.05563 0
M  V30 1719 H 156.245 -3.96805 -0.488426 0
M  V30 1720 H 157.685 -3.9554 -1.52721 0
M  V30 1721 C 156.144 -2.6016 -2.14052 0
M  V30 1722 O 156.674 -2.39997 -3.22124 0
M  V30 1723 N 154.88 -2.19911 -1.89967 0
M  V30 1724 H 154.427 -2.36509 -1.02085 0
M  V30 1725 H 154.385 -1.72646 -2.62756 0
M  V30 1726 N 158.157 -0.370918 -1.53173 0
M  V30 1727 C 159.104 0.473035 -2.259 0
M  V30 1728 C 160.074 1.07311 -1.26781 0
M  V30 1729 O 161.259 1.1046 -1.55574 0
M  V30 1730 C 158.399 1.60405 -3.05556 0
M  V30 1731 C 157.512 1.02863 -4.19575 0
M  V30 1732 C 156.647 2.12918 -4.86661 0
M  V30 1733 C 155.686 1.52869 -5.92704 0
M  V30 1734 N 154.823 2.56779 -6.53459 0
M  V30 1735 H 159.663 -0.153649 -2.97604 0
M  V30 1736 H 157.2 -0.0875946 -1.46839 0
M  V30 1737 H 159.158 2.27034 -3.50016 0
M  V30 1738 H 157.788 2.20131 -2.36097 0
M  V30 1739 H 156.84 0.252465 -3.79561 0
M  V30 1740 H 158.152 0.549642 -4.95762 0
M  V30 1741 H 157.306 2.87356 -5.34333 0
M  V30 1742 H 156.045 2.6417 -4.09958 0
M  V30 1743 H 155.05 0.769479 -5.44389 0
M  V30 1744 H 156.275 1.02435 -6.7133 0
M  V30 1745 H 154.221 3.07235 -5.79606 0
M  V30 1746 H 154.138 2.13583 -7.25202 0
M  V30 1747 H 155.406 3.30903 -7.05779 0
M  V30 1748 N 159.635 1.57281 -0.100228 0
M  V30 1749 C 161.051 1.57527 0.256416 0
M  V30 1750 C 161.251 1.11173 1.68056 0
M  V30 1751 O 160.307 0.79053 2.39806 0
M  V30 1752 C 161.62 3.00673 0.0401747 0
M  V30 1753 C 163.168 3.12815 0.107528 0
M  V30 1754 C 163.643 4.57929 -0.0807834 0
M  V30 1755 N 165.134 4.63193 -0.0261207 0
M  V30 1756 C 165.869 5.73212 -0.146999 0
M  V30 1757 N 165.365 6.92047 -0.322999 0
M  V30 1758 N 167.158 5.62031 -0.0879044 0
M  V30 1759 H 159.309 1.85718 -1.03065 0
M  V30 1760 H 161.572 0.857446 -0.404339 0
M  V30 1761 H 161.278 3.38804 -0.943649 0
M  V30 1762 H 161.152 3.69042 0.780262 0
M  V30 1763 H 163.539 2.74554 1.08186 0
M  V30 1764 H 163.62 2.47028 -0.664134 0
M  V30 1765 H 163.264 4.96886 -1.05201 0
M  V30 1766 H 163.194 5.21783 0.710635 0
M  V30 1767 H 165.685 3.77748 0.107161 0
M  V30 1768 H 165.998 7.7173 -0.406608 0
M  V30 1769 H 164.343 6.94074 -0.358733 0
M  V30 1770 H 167.534 4.68075 0.048498 0
M  V30 1771 H 167.707 6.47734 -0.185557 0
M  V30 1772 N 161.113 -0.173488 1.56642 0
M  V30 1773 C 162.361 -0.888706 1.81512 0
M  V30 1774 C 162.682 -1.82875 0.676872 0
M  V30 1775 O 161.952 -1.93536 -0.303414 0
M  V30 1776 H 160.532 -0.331164 0.669582 0
M  V30 1777 H 163.194 -0.173823 1.94123 0
M  V30 1778 H 162.29 -1.46691 2.75478 0
M  V30 1779 N 162.591 -1.51276 -0.441967 0
M  V30 1780 C 163.839 -1.63392 -1.18943 0
M  V30 1781 C 164.16 -0.350159 -1.9183 0
M  V30 1782 O 163.43 0.633784 -1.85364 0
M  V30 1783 H 162.01 -0.602164 -0.442049 0
M  V30 1784 H 164.672 -1.88186 -0.507165 0
M  V30 1785 H 163.768 -2.45934 -1.92154 0
M  V30 1786 N 164.069 0.697108 -1.41344 0
M  V30 1787 C 165.485 1.00751 -1.2378 0
M  V30 1788 C 165.685 2.01105 -0.126066 0
M  V30 1789 O 164.741 2.47295 0.51004 0
M  V30 1790 C 166.054 1.53359 -2.58653 0
M  V30 1791 C 167.602 1.6525 -2.65822 0
M  V30 1792 C 168.077 2.2126 -4.01009 0
M  V30 1793 N 169.568 2.28622 -4.02847 0
M  V30 1794 C 170.303 2.72984 -5.04249 0
M  V30 1795 N 169.799 3.16962 -6.16041 0
M  V30 1796 N 171.592 2.72534 -4.91611 0
M  V30 1797 H 163.743 0.0322662 -2.12375 0
M  V30 1798 H 166.006 0.0768853 -0.944877 0
M  V30 1799 H 165.712 0.870773 -3.4075 0
M  V30 1800 H 165.586 2.51597 -2.81032 0
M  V30 1801 H 167.973 2.30644 -1.84086 0
M  V30 1802 H 168.054 0.655614 -2.47256 0
M  V30 1803 H 167.698 1.56482 -4.83193 0
M  V30 1804 H 167.628 3.21698 -4.16915 0
M  V30 1805 H 170.119 1.97585 -3.22131 0
M  V30 1806 H 170.432 3.49434 -6.89287 0
M  V30 1807 H 168.777 3.14875 -6.1958 0
M  V30 1808 H 171.968 2.37525 -4.0336 0
M  V30 1809 H 172.141 3.06789 -5.70775 0
M  V30 1810 N 165.547 1.27147 0.931209 0
M  V30 1811 C 166.793 1.14455 1.68141 0
M  V30 1812 C 167.148 -0.307172 1.89932 0
M  V30 1813 O 166.441 -1.22158 1.47607 0
M  V30 1814 C 166.635 1.8579 3.05314 0
M  V30 1815 C 166.464 3.3775 2.96909 0
M  V30 1816 C 165.234 4.07062 2.99381 0
M  V30 1817 C 167.432 4.33783 2.76291 0
M  V30 1818 N 165.414 5.45618 2.8138 0
M  V30 1819 C 166.785 5.59582 2.6696 0
M  V30 1820 C 168.84 4.23915 2.61152 0
M  V30 1821 C 167.543 6.76639 2.44033 0
M  V30 1822 C 169.569 5.40689 2.39602 0
M  V30 1823 C 168.931 6.65443 2.3101 0
M  V30 1824 H 165.03 0.473667 0.622225 0
M  V30 1825 H 167.614 1.60568 1.10118 0
M  V30 1826 H 165.785 1.42138 3.61457 0
M  V30 1827 H 167.517 1.65634 3.69253 0
M  V30 1828 H 164.272 3.585 3.09475 0
M  V30 1829 H 164.696 6.184 2.75519 0
M  V30 1830 H 169.338 3.28189 2.66555 0
M  V30 1831 H 167.056 7.72451 2.3737 0
M  V30 1832 H 170.642 5.34932 2.28778 0
M  V30 1833 H 169.522 7.54277 2.14558 0
M  V30 1834 N 167.025 -1.13721 1.09112 0
M  V30 1835 C 167.955 -2.21148 0.749385 0
M  V30 1836 C 168.936 -1.6792 -0.271475 0
M  V30 1837 O 170.121 -1.93693 -0.140251 0
M  V30 1838 C 167.251 -3.46905 0.165659 0
M  V30 1839 C 166.205 -4.13203 1.11567 0
M  V30 1840 C 165.531 -5.33248 0.393809 0
M  V30 1841 C 166.831 -4.60912 2.45678 0
M  V30 1842 H 168.525 -2.4999 1.64758 0
M  V30 1843 H 166.071 -1.20156 0.793626 0
M  V30 1844 H 168.024 -4.21313 -0.085466 0
M  V30 1845 H 166.748 -3.17449 -0.767714 0
M  V30 1846 H 165.407 -3.40758 1.35202 0
M  V30 1847 H 165.055 -5.00054 -0.543599 0
M  V30 1848 H 164.755 -5.78552 1.02721 0
M  V30 1849 H 166.279 -6.10413 0.150908 0
M  V30 1850 H 167.693 -5.26759 2.26269 0
M  V30 1851 H 166.09 -5.16944 3.04776 0
M  V30 1852 H 167.16 -3.75603 3.06677 0
M  V30 1853 N 168.503 -0.877838 -1.30888 0
M  V30 1854 C 169.752 -0.488793 -1.95688 0
M  V30 1855 C 170.065 0.965485 -1.70111 0
M  V30 1856 O 171.271 1.46104 -2.28836 0
M  V30 1857 C 169.727 -0.823201 -3.50359 0
M  V30 1858 C 169.335 -2.29477 -3.84765 0
M  V30 1859 C 171.079 -0.503009 -4.21509 0
M  V30 1860 C 168.986 -2.57118 -5.32583 0
M  V30 1861 H 167.916 -0.179062 -0.732429 0
M  V30 1862 H 170.567 -1.07183 -1.48943 0
M  V30 1863 H 168.949 -0.169331 -3.95638 0
M  V30 1864 H 170.123 -2.99236 -3.5042 0
M  V30 1865 H 168.438 -2.58178 -3.267 0
M  V30 1866 H 171.035 -0.68665 -5.30273 0
M  V30 1867 H 171.378 0.557109 -4.12555 0
M  V30 1868 H 171.911 -1.11376 -3.8189 0
M  V30 1869 H 168.65 -3.61843 -5.4658 0
M  V30 1870 H 168.17 -1.91961 -5.68253 0
M  V30 1871 H 169.849 -2.42251 -5.99936 0
M  V30 1872 N 169.982 1.44106 -0.638065 0
M  V30 1873 C 171.21 2.06336 -0.152615 0
M  V30 1874 C 171.625 1.47731 1.17563 0
M  V30 1875 O 170.982 0.602806 1.72257 0
M  V30 1876 C 171.033 3.61479 -0.0391491 0
M  V30 1877 O 170.754 4.17903 -1.31487 0
M  V30 1878 C 172.255 4.40757 0.474176 0
M  V30 1879 H 169.475 0.665862 -0.0828776 0
M  V30 1880 H 172.019 1.84862 -0.87443 0
M  V30 1881 H 170.174 3.82191 0.633142 0
M  V30 1882 H 170.588 5.11416 -1.16421 0
M  V30 1883 H 172.062 5.49707 0.502562 0
M  V30 1884 H 172.539 4.12697 1.50258 0
M  V30 1885 H 173.145 4.24979 -0.165102 0
M  V30 1886 N 171.46 0.379036 1.52974 0
M  V30 1887 C 172.39 -0.452706 2.29069 0
M  V30 1888 C 173.371 -1.07237 1.32039 0
M  V30 1889 O 174.556 -1.08708 1.60923 0
M  V30 1890 C 171.686 -1.5856 3.08992 0
M  V30 1891 C 170.64 -1.0925 4.13822 0
M  V30 1892 C 169.966 -2.31668 4.81907 0
M  V30 1893 C 171.266 -0.167702 5.22031 0
M  V30 1894 H 172.96 0.182181 2.98845 0
M  V30 1895 H 170.506 0.0890592 1.43724 0
M  V30 1896 H 172.459 -2.1742 3.6098 0
M  V30 1897 H 171.183 -2.24792 2.36931 0
M  V30 1898 H 169.842 -0.526494 3.628 0
M  V30 1899 H 169.49 -2.96386 4.06404 0
M  V30 1900 H 169.19 -1.9934 5.52754 0
M  V30 1901 H 170.714 -2.91189 5.36695 0
M  V30 1902 H 172.128 -0.664186 5.6944 0
M  V30 1903 H 170.525 0.0653265 6.00064 0
M  V30 1904 H 171.595 0.786347 4.78482 0
M  V30 1905 N 172.938 -1.57226 0.108567 0
M  V30 1906 C 173.886 -2.16002 -0.862885 0
M  V30 1907 C 174.88 -1.10644 -1.28274 0
M  V30 1908 O 176.086 -1.28966 -1.2557 0
M  V30 1909 H 172.461 -0.691148 -0.296342 0
M  V30 1910 H 174.432 -2.96427 -0.342575 0
M  V30 1911 C 173.181 -2.76576 -2.10716 0
M  V30 1912 H 172.504 -3.5734 -1.793 0
M  V30 1913 H 173.944 -3.21253 -2.76717 0
M  V30 1914 C 172.403 -1.73137 -2.89007 0
M  V30 1915 O 172.933 -1.17842 -3.84026 0
M  V30 1916 N 171.139 -1.43317 -2.52801 0
M  V30 1917 H 170.686 -1.88473 -1.75601 0
M  V30 1918 H 170.644 -0.743485 -3.05483 0
M  V30 1919 N 174.416 0.165178 -1.56732 0
M  V30 1920 C 175.363 1.2044 -1.96883 0
M  V30 1921 C 176.333 1.43664 -0.833657 0
M  V30 1922 O 177.518 1.56302 -1.09427 0
M  V30 1923 C 174.658 2.53727 -2.33916 0
M  V30 1924 C 173.771 2.3783 -3.6064 0
M  V30 1925 C 172.906 3.64026 -3.86857 0
M  V30 1926 C 171.945 3.43088 -5.06909 0
M  V30 1927 N 171.082 4.61369 -5.29229 0
M  V30 1928 H 175.922 0.854996 -2.85471 0
M  V30 1929 H 173.459 0.41076 -1.41249 0
M  V30 1930 H 175.417 3.31419 -2.53411 0
M  V30 1931 H 174.047 2.8665 -1.48431 0
M  V30 1932 H 173.099 1.51282 -3.49024 0
M  V30 1933 H 174.411 2.18308 -4.4849 0
M  V30 1934 H 173.565 4.50152 -4.06753 0
M  V30 1935 H 172.304 3.86533 -2.97394 0
M  V30 1936 H 171.309 2.55349 -4.86906 0
M  V30 1937 H 172.534 3.21997 -5.97909 0
M  V30 1938 H 170.48 4.84084 -4.42718 0
M  V30 1939 H 170.397 4.44783 -6.11313 0
M  V30 1940 H 171.665 5.48761 -5.53608 0
M  V30 1941 N 175.894 1.51508 0.433938 0
M  V30 1942 C 176.826 1.69266 1.54537 0
M  V30 1943 C 177.839 0.573276 1.52373 0
M  V30 1944 O 179.028 0.847698 1.57087 0
M  V30 1945 C 176.128 1.69524 2.93453 0
M  V30 1946 C 175.301 2.98101 3.20085 0
M  V30 1947 C 174.36 2.90502 4.38742 0
M  V30 1948 O 173.386 3.64442 4.3723 0
M  V30 1949 N 174.588 2.06586 5.42496 0
M  V30 1950 H 177.353 2.65145 1.39708 0
M  V30 1951 H 174.914 1.49437 0.622922 0
M  V30 1952 H 176.906 1.62004 3.70859 0
M  V30 1953 H 175.476 0.812245 3.01863 0
M  V30 1954 H 174.696 3.19464 2.30947 0
M  V30 1955 H 175.984 3.83207 3.34708 0
M  V30 1956 H 175.382 1.45896 5.46563 0
M  V30 1957 H 173.939 2.04943 6.18742 0
M  V30 1958 N 177.372 -0.689602 1.41712 0
M  V30 1959 C 178.304 -1.815 1.39966 0
M  V30 1960 C 179.317 -1.59995 0.300917 0
M  V30 1961 O 180.506 -1.69387 0.563039 0
M  V30 1962 C 177.606 -3.18364 1.16179 0
M  V30 1963 C 176.779 -3.66847 2.38206 0
M  V30 1964 C 175.838 -4.82398 2.10186 0
M  V30 1965 O 174.864 -4.93706 2.83272 0
M  V30 1966 N 176.066 -5.70064 1.0958 0
M  V30 1967 H 178.831 -1.83488 2.36965 0
M  V30 1968 H 176.392 -0.872149 1.36401 0
M  V30 1969 H 178.384 -3.93301 0.953756 0
M  V30 1970 H 176.954 -3.11365 0.27756 0
M  V30 1971 H 176.174 -2.82751 2.74673 0
M  V30 1972 H 177.462 -3.95978 3.19498 0
M  V30 1973 H 176.86 -5.63565 0.491019 0
M  V30 1974 H 175.417 -6.44874 0.947656 0
M  V30 1975 N 178.85 -1.27639 -0.924453 0
M  V30 1976 C 180.266 -1.05113 -1.20097 0
M  V30 1977 C 180.466 0.213262 -2.00368 0
M  V30 1978 O 179.522 0.91787 -2.35226 0
M  V30 1979 C 180.835 -2.29244 -1.94596 0
M  V30 1980 C 182.383 -2.34315 -2.07522 0
M  V30 1981 C 182.858 -3.58183 -2.85427 0
M  V30 1982 N 184.349 -3.5876 -2.92994 0
M  V30 1983 C 185.084 -4.51277 -3.53746 0
M  V30 1984 N 184.58 -5.54102 -4.15863 0
M  V30 1985 N 186.373 -4.38894 -3.51181 0
M  V30 1986 H 178.524 -2.08821 -0.388264 0
M  V30 1987 H 180.787 -0.918568 -0.234385 0
M  V30 1988 H 180.493 -3.21301 -1.43034 0
M  V30 1989 H 180.367 -2.34816 -2.95197 0
M  V30 1990 H 182.754 -1.42762 -2.58269 0
M  V30 1991 H 182.835 -2.32744 -1.06131 0
M  V30 1992 H 182.479 -4.50074 -2.35363 0
M  V30 1993 H 182.409 -3.57006 -3.8711 0
M  V30 1994 H 184.9 -2.84398 -2.4885 0
M  V30 1995 H 185.213 -6.20859 -4.60168 0
M  V30 1996 H 183.558 -5.57941 -4.144 0
M  V30 1997 H 186.749 -3.57772 -3.01856 0
M  V30 1998 H 186.922 -5.11186 -3.98237 0
M  V30 1999 N 180.328 1.1314 -1.09713 0
M  V30 2000 C 181.744 1.36477 -0.827423 0
M  V30 2001 C 181.944 1.93654 0.556817 0
M  V30 2002 O 181 2.15791 1.31112 0
M  V30 2003 C 182.313 2.31334 -1.92106 0
M  V30 2004 C 183.861 2.44943 -1.94864 0
M  V30 2005 C 184.336 3.4311 -3.0338 0
M  V30 2006 N 185.827 3.50662 -3.02639 0
M  V30 2007 C 186.562 4.2651 -3.83246 0
M  V30 2008 N 186.058 5.05485 -4.73768 0
M  V30 2009 N 187.851 4.2184 -3.71493 0
M  V30 2010 H 180.002 0.743807 -1.9895 0
M  V30 2011 H 182.265 0.389823 -0.864143 0
M  V30 2012 H 181.971 1.96483 -2.91698 0
M  V30 2013 H 181.845 3.31381 -1.80184 0
M  V30 2014 H 184.232 2.79079 -0.959099 0
M  V30 2015 H 184.313 1.4481 -2.10864 0
M  V30 2016 H 183.957 3.09704 -4.02549 0
M  V30 2017 H 183.887 4.43055 -2.84622 0
M  V30 2018 H 186.378 2.94315 -2.37039 0
M  V30 2019 H 186.691 5.60675 -5.3185 0
M  V30 2020 H 185.036 5.04708 -4.77802 0
M  V30 2021 H 188.227 3.5922 -3.00131 0
M  V30 2022 H 188.4 4.80697 -4.3455 0
M  V30 2023 N 181.806 0.884767 1.30421 0
M  V30 2024 C 183.031 0.517288 2.00845 0
M  V30 2025 C 183.456 -0.886779 1.65885 0
M  V30 2026 O 182.814 -1.58768 0.875354 0
M  V30 2027 C 182.862 0.698994 3.5376 0
M  V30 2028 O 181.966 -0.255208 4.1161 0
M  V30 2029 H 181.307 0.203872 0.631927 0
M  V30 2030 H 183.837 1.19225 1.66272 0
M  V30 2031 H 183.847 0.597912 4.03595 0
M  V30 2032 H 182.522 1.72271 3.78544 0
M  V30 2033 H 181.099 -0.10784 3.72744 0
M  V30 2034 N 183.284 -1.43765 0.645699 0
M  V30 2035 C 184.561 -1.9541 0.0862963 0
M  V30 2036 C 184.941 -1.58725 -1.39175 0
M  V30 2037 O 184.289 -0.868581 -2.11348 0
M  V30 2038 C 184.499 -3.47488 0.324565 0
M  V30 2039 C 185.847 -4.24001 0.225497 0
M  V30 2040 O 186.871 -3.55274 0.256715 0
M  V30 2041 O 185.73 -5.46313 0.142801 0
M  V30 2042 H 182.824 -0.826882 -0.0139483 0
M  V30 2043 H 185.37 -1.53743 0.718415 0
M  V30 2044 H 184.142 -3.67289 1.3496 0
M  V30 2045 H 183.765 -3.96135 -0.340987 0
M  V30 2046 N 184.763 -0.387143 -1.52771 0
M  V30 2047 C 185.693 0.440551 -2.29306 0
M  V30 2048 C 186.674 1.06535 -1.32606 0
M  V30 2049 O 187.859 1.07853 -1.61497 0
M  V30 2050 C 184.989 1.56919 -3.09829 0
M  V30 2051 C 183.943 1.07054 -4.14395 0
M  V30 2052 C 183.269 2.29109 -4.83129 0
M  V30 2053 C 184.569 0.140015 -5.22112 0
M  V30 2054 H 186.263 -0.198026 -2.98744 0
M  V30 2055 H 183.809 -0.09668 -1.43675 0
M  V30 2056 H 185.762 2.15503 -3.62128 0
M  V30 2057 H 184.486 2.23532 -2.3812 0
M  V30 2058 H 183.145 0.507247 -3.63074 0
M  V30 2059 H 182.793 2.94227 -4.0797 0
M  V30 2060 H 182.493 1.96406 -5.53804 0
M  V30 2061 H 184.017 2.88339 -5.38231 0
M  V30 2062 H 185.431 0.633978 -5.69784 0
M  V30 2063 H 183.828 -0.0971485 -6.00021 0
M  V30 2064 H 184.898 -0.811711 -4.78058 0
M  V30 2065 N 186.241 1.57166 -0.116904 0
M  V30 2066 C 187.518 1.86645 0.585049 0
M  V30 2067 C 187.898 1.0177 1.84949 0
M  V30 2068 O 187.246 0.0960379 2.28298 0
M  V30 2069 C 187.456 3.37736 0.879507 0
M  V30 2070 C 188.804 4.06289 1.23348 0
M  V30 2071 O 189.828 3.42743 0.969836 0
M  V30 2072 O 188.687 5.18455 1.7282 0
M  V30 2073 H 185.781 0.772593 0.295007 0
M  V30 2074 H 188.327 1.69025 -0.151249 0
M  V30 2075 H 187.099 3.91296 -0.0166136 0
M  V30 2076 H 186.722 3.6078 1.67103 0
M  V30 2077 N 187.719 -0.156864 1.56817 0
M  V30 2078 C 189.135 -0.50916 1.5126 0
M  V30 2079 C 189.335 -1.83897 0.823658 0
M  V30 2080 O 188.391 -2.49469 0.390055 0
M  V30 2081 C 189.704 -0.52857 2.96018 0
M  V30 2082 C 191.252 -0.614771 3.06903 0
M  V30 2083 C 191.727 -0.664938 4.53147 0
M  V30 2084 N 193.218 -0.727433 4.57452 0
M  V30 2085 C 193.953 -0.787067 5.67973 0
M  V30 2086 N 193.449 -0.806649 6.88088 0
M  V30 2087 N 195.242 -0.827195 5.5598 0
M  V30 2088 H 187.393 0.714935 2.00006 0
M  V30 2089 H 189.656 0.259526 0.911784 0
M  V30 2090 H 189.362 0.380154 3.49639 0
M  V30 2091 H 189.236 -1.36998 3.51442 0
M  V30 2092 H 191.623 -1.51392 2.53307 0
M  V30 2093 H 191.704 0.253597 2.5454 0
M  V30 2094 H 191.348 0.230011 5.07379 0
M  V30 2095 H 191.278 -1.54966 5.03282 0
M  V30 2096 H 193.769 -0.719998 3.70978 0
M  V30 2097 H 194.082 -0.853727 7.6807 0
M  V30 2098 H 192.427 -0.774687 6.90669 0
M  V30 2099 H 195.618 -0.808998 4.61056 0
M  V30 2100 H 195.791 -0.870206 6.4213 0
M  V30 2101 N 189.197 -1.51736 -0.425897 0
M  V30 2102 C 190.444 -1.6497 -1.17436 0
M  V30 2103 C 190.772 -0.371445 -1.9092 0
M  V30 2104 O 190.027 0.644963 -1.84767 0
M  V30 2105 C 190.326 -2.81103 -2.20717 0
M  V30 2106 C 189.992 -4.19954 -1.64162 0
M  V30 2107 C 188.654 -4.57725 -1.48462 0
M  V30 2108 C 191.006 -5.06552 -1.22696 0
M  V30 2109 C 188.334 -5.79789 -0.897873 0
M  V30 2110 C 190.686 -6.29205 -0.654464 0
M  V30 2111 C 189.35 -6.6574 -0.484456 0
M  V30 2112 H 188.62 -0.603668 -0.429727 0
M  V30 2113 H 191.267 -1.85798 -0.463829 0
M  V30 2114 H 189.572 -2.54542 -2.97852 0
M  V30 2115 H 191.269 -2.8854 -2.78471 0
M  V30 2116 H 187.859 -3.90181 -1.77361 0
M  V30 2117 H 192.043 -4.77968 -1.33642 0
M  V30 2118 H 187.299 -6.06733 -0.75402 0
M  V30 2119 H 191.473 -6.95643 -0.324694 0
M  V30 2120 H 189.1 -7.60195 -0.0276833 0
M  V30 2121 N 190.675 0.682077 -1.42076 0
M  V30 2122 C 191.921 1.44283 -1.43366 0
M  V30 2123 C 192.276 1.92344 -0.0465775 0
M  V30 2124 O 191.569 1.67517 0.929973 0
M  V30 2125 C 191.763 2.66036 -2.38662 0
M  V30 2126 C 191.592 2.29889 -3.86499 0
M  V30 2127 C 190.362 2.19599 -4.55087 0
M  V30 2128 C 192.56 1.91999 -4.77117 0
M  V30 2129 N 190.542 1.76478 -5.87987 0
M  V30 2130 C 191.913 1.59741 -5.99068 0
M  V30 2131 C 193.968 1.78927 -4.64639 0
M  V30 2132 C 192.671 1.15723 -7.0993 0
M  V30 2133 C 194.697 1.36314 -5.75476 0
M  V30 2134 C 194.059 1.04975 -6.96534 0
M  V30 2135 H 190.158 0.524739 -0.579805 0
M  V30 2136 H 192.742 0.787834 -1.78048 0
M  V30 2137 H 190.913 3.29237 -2.06053 0
M  V30 2138 H 192.645 3.32588 -2.30581 0
M  V30 2139 H 189.4 2.38433 -4.09202 0
M  V30 2140 H 189.824 1.57362 -6.58458 0
M  V30 2141 H 194.466 2.01805 -3.7153 0
M  V30 2142 H 192.184 0.91591 -8.02893 0
M  V30 2143 H 195.77 1.26731 -5.6783 0
M  V30 2144 H 194.65 0.725017 -7.80841 0
M  V30 2145 N 192.153 1.28127 0.917671 0
M  V30 2146 C 193.083 1.14248 2.03641 0
M  V30 2147 C 194.064 0.0412748 1.7005 0
M  V30 2148 O 195.249 0.217566 1.92977 0
M  V30 2149 C 192.379 0.799431 3.37974 0
M  V30 2150 C 191.333 1.85497 3.85713 0
M  V30 2151 C 190.659 1.36565 5.16966 0
M  V30 2152 C 191.959 3.26085 4.08002 0
M  V30 2153 H 193.653 2.07835 2.15511 0
M  V30 2154 H 191.199 1.00064 1.03553 0
M  V30 2155 H 193.152 0.689114 4.15727 0
M  V30 2156 H 191.876 -0.172145 3.26146 0
M  V30 2157 H 190.535 1.95437 3.10161 0
M  V30 2158 H 190.183 0.383253 5.01538 0
M  V30 2159 H 189.883 2.07143 5.49878 0
M  V30 2160 H 191.407 1.26848 5.97279 0
M  V30 2161 H 192.821 3.19089 4.76293 0
M  V30 2162 H 191.218 3.94462 4.52238 0
M  V30 2163 H 192.288 3.70394 3.12948 0
M  V30 2164 N 193.631 -1.12557 1.10312 0
M  V30 2165 C 194.541 -2.21841 0.763142 0
M  V30 2166 C 195.557 -1.72354 -0.238801 0
M  V30 2167 O 196.733 -2.01249 -0.0778746 0
M  V30 2168 C 193.798 -3.46131 0.198632 0
M  V30 2169 C 192.859 -4.10464 1.25769 0
M  V30 2170 C 192.092 -5.28821 0.72002 0
M  V30 2171 O 192.315 -5.6859 -0.453993 0
M  V30 2172 O 191.249 -5.83437 1.47935 0
M  V30 2173 H 195.075 -2.53312 1.67532 0
M  V30 2174 H 192.66 -1.20867 0.878157 0
M  V30 2175 H 194.542 -4.2125 -0.112401 0
M  V30 2176 H 193.217 -3.16338 -0.686419 0
M  V30 2177 H 192.124 -3.3713 1.62156 0
M  V30 2178 H 193.457 -4.44408 2.11571 0
M  V30 2179 N 195.109 -0.891671 -1.2995 0
M  V30 2180 C 196.337 -0.52866 -2.00032 0
M  V30 2181 C 196.752 0.884574 -1.66795 0
M  V30 2182 O 196.109 1.5827 -0.908669 0
M  V30 2183 C 196.16 -0.701814 -3.54622 0
M  V30 2184 O 195.881 -2.05942 -3.86678 0
M  V30 2185 C 197.382 -0.342683 -4.41973 0
M  V30 2186 H 194.602 -0.203659 -0.639347 0
M  V30 2187 H 197.146 -1.19881 -1.65677 0
M  V30 2188 H 195.301 -0.0789468 -3.8732 0
M  V30 2189 H 195.715 -2.08291 -4.81368 0
M  V30 2190 H 197.189 -0.514709 -5.49595 0
M  V30 2191 H 197.666 0.71975 -4.33262 0
M  V30 2192 H 198.272 -0.942154 -4.14733 0
M  V30 2193 N 196.587 1.43421 -0.653314 0
M  V30 2194 C 197.517 2.33487 0.0246656 0
M  V30 2195 C 198.498 1.49475 0.811863 0
M  V30 2196 O 199.683 1.78139 0.773322 0
M  V30 2197 C 196.813 3.32841 0.99166 0
M  V30 2198 C 195.767 4.26842 0.314568 0
M  V30 2199 C 195.093 5.16236 1.39302 0
M  V30 2200 C 196.393 5.16243 -0.793095 0
M  V30 2201 H 198.087 2.90427 -0.727481 0
M  V30 2202 H 195.633 1.39649 -0.351287 0
M  V30 2203 H 197.586 3.94747 1.47487 0
M  V30 2204 H 196.31 2.74158 1.77497 0
M  V30 2205 H 194.969 3.663 -0.148199 0
M  V30 2206 H 194.617 4.53891 2.16776 0
M  V30 2207 H 194.317 5.79948 0.945223 0
M  V30 2208 H 195.841 5.81015 1.87759 0
M  V30 2209 H 197.255 5.71958 -0.392039 0
M  V30 2210 H 195.652 5.88676 -1.16536 0
M  V30 2211 H 196.722 4.55927 -1.65103 0
M  V30 2212 N 198.065 0.39524 1.52563 0
M  V30 2213 C 198.995 -0.428384 2.29537 0
M  V30 2214 C 199.976 -1.05831 1.33169 0
M  V30 2215 O 201.161 -1.06995 1.62067 0
M  V30 2216 C 198.291 -1.55274 3.10656 0
M  V30 2217 C 197.245 -1.04855 4.14957 0
M  V30 2218 C 196.571 -2.26543 4.84337 0
M  V30 2219 C 197.871 -0.112324 5.22179 0
M  V30 2220 H 199.565 0.213867 2.98635 0
M  V30 2221 H 197.111 0.104298 1.43622 0
M  V30 2222 H 199.064 -2.1358 3.63265 0
M  V30 2223 H 197.788 -2.22266 2.39302 0
M  V30 2224 H 196.447 -0.487985 3.63338 0
M  V30 2225 H 196.095 -2.92059 4.09525 0
M  V30 2226 H 195.795 -1.93466 5.54837 0
M  V30 2227 H 197.319 -2.85481 5.39753 0
M  V30 2228 H 198.733 -0.603752 5.70112 0
M  V30 2229 H 197.13 0.128968 5.99961 0
M  V30 2230 H 198.2 0.837052 4.77621 0
M  V30 2231 N 199.544 -1.57102 0.125237 0
M  V30 2232 C 200.784 -1.97294 -0.534259 0
M  V30 2233 C 201.148 -1.0074 -1.63449 0
M  V30 2234 O 202.349 -1.29893 -2.35332 0
M  V30 2235 C 200.62 -3.41705 -1.04748 0
M  V30 2236 S 202.179 -4.03913 -1.71463 0
M  V30 2237 H 198.997 -0.689517 -0.173458 0
M  V30 2238 H 201.599 -1.94349 0.211797 0
M  V30 2239 H 200.303 -4.09723 -0.235649 0
M  V30 2240 H 199.834 -3.48315 -1.82867 0
M  V30 2241 H 201.849 -3.95182 -3.00077 0
M  V30 2242 N 201.022 0.148545 -1.56898 0
M  V30 2243 C 201.952 1.18524 -2.01182 0
M  V30 2244 C 202.933 1.4489 -0.891123 0
M  V30 2245 O 204.118 1.55836 -1.15882 0
M  V30 2246 C 201.248 2.51879 -2.39112 0
M  V30 2247 C 200.202 2.40038 -3.54353 0
M  V30 2248 C 199.528 3.78089 -3.78091 0
M  V30 2249 C 200.828 1.88577 -4.87069 0
M  V30 2250 H 202.522 0.817029 -2.88036 0
M  V30 2251 H 200.068 0.391575 -1.38574 0
M  V30 2252 H 202.021 3.24627 -2.68692 0
M  V30 2253 H 200.745 2.90532 -1.49193 0
M  V30 2254 H 199.404 1.69742 -3.24936 0
M  V30 2255 H 199.052 4.14175 -2.85426 0
M  V30 2256 H 198.752 3.71028 -4.55645 0
M  V30 2257 H 200.276 4.52387 -4.10095 0
M  V30 2258 H 201.69 2.51117 -5.15377 0
M  V30 2259 H 200.087 1.9241 -5.68417 0
M  V30 2260 H 201.157 0.84136 -4.77545 0
M  V30 2261 N 202.5 1.5196 0.417844 0
M  V30 2262 C 203.749 1.6482 1.16264 0
M  V30 2263 C 204.062 0.379886 1.91876 0
M  V30 2264 O 205.268 0.388154 2.68711 0
M  V30 2265 C 203.724 2.91161 2.1155 0
M  V30 2266 C 203.332 4.25068 1.41495 0
M  V30 2267 C 205.076 3.13383 2.86341 0
M  V30 2268 C 202.983 5.42541 2.35379 0
M  V30 2269 H 201.913 0.613954 0.437694 0
M  V30 2270 H 204.564 1.78442 0.427871 0
M  V30 2271 H 202.946 2.71218 2.88543 0
M  V30 2272 H 204.12 4.55463 0.699263 0
M  V30 2273 H 202.435 4.0888 0.787792 0
M  V30 2274 H 205.032 3.98324 3.5671 0
M  V30 2275 H 205.375 2.27256 3.48798 0
M  V30 2276 H 205.908 3.33757 2.1645 0
M  V30 2277 H 202.647 6.30987 1.77582 0
M  V30 2278 H 202.167 5.16497 3.04945 0
M  V30 2279 H 203.846 5.75272 2.96093 0
M  V30 2280 N 203.978 -0.674533 1.42435 0
M  V30 2281 C 205.226 -1.43175 1.42637 0
M  V30 2282 C 205.547 -1.94951 0.0438992 0
M  V30 2283 O 204.817 -1.7308 -0.917607 0
M  V30 2284 H 203.397 -0.531307 0.525092 0
M  V30 2285 H 206.059 -0.797006 1.77859 0
M  V30 2286 H 205.155 -2.28463 2.12629 0
M  V30 2287 N 205.456 -1.28612 -0.910864 0
M  V30 2288 C 206.366 -1.14643 -2.0468 0
M  V30 2289 C 207.382 -0.0723121 -1.7385 0
M  V30 2290 O 208.558 -0.282178 -1.99413 0
M  V30 2291 C 205.623 -0.812561 -3.37044 0
M  V30 2292 C 204.684 -1.96935 -3.81465 0
M  V30 2293 C 203.917 -1.65131 -5.07511 0
M  V30 2294 O 204.14 -0.567013 -5.67575 0
M  V30 2295 O 203.074 -2.49585 -5.47714 0
M  V30 2296 H 206.9 -2.1001 -2.19384 0
M  V30 2297 H 204.485 -1.07958 -1.03274 0
M  V30 2298 H 206.367 -0.640441 -4.16505 0
M  V30 2299 H 205.042 0.111426 -3.23508 0
M  V30 2300 H 203.949 -2.19664 -3.02818 0
M  V30 2301 H 205.282 -2.87414 -3.99567 0
M  V30 2302 N 206.934 1.1197 -1.10907 0
M  V30 2303 C 208.159 1.87942 -0.877064 0
M  V30 2304 C 208.584 1.79341 0.567314 0
M  V30 2305 O 207.942 1.15184 1.40009 0
M  V30 2306 C 207.99 3.34926 -1.33629 0
M  V30 2307 O 207.094 4.09303 -0.504447 0
M  V30 2308 H 206.435 0.583785 -0.316371 0
M  V30 2309 H 208.965 1.4157 -1.47712 0
M  V30 2310 H 208.975 3.8577 -1.32837 0
M  V30 2311 H 207.65 3.40504 -2.3881 0
M  V30 2312 H 206.227 3.68393 -0.577993 0
M  V30 2313 N 208.412 0.89855 1.29475 0
M  V30 2314 C 209.659 0.523882 1.95606 0
M  V30 2315 C 209.987 -0.929608 1.70847 0
M  V30 2316 O 209.242 -1.67401 1.01367 0
M  V30 2317 C 209.541 0.761398 3.49195 0
M  V30 2318 C 209.207 2.19207 3.94029 0
M  V30 2319 C 207.869 2.58326 4.05982 0
M  V30 2320 C 210.221 3.12379 4.17216 0
M  V30 2321 C 207.549 3.898 4.38489 0
M  V30 2322 C 209.901 4.43401 4.51197 0
M  V30 2323 C 208.565 4.82394 4.61359 0
M  V30 2324 H 207.835 0.191702 0.715773 0
M  V30 2325 H 210.482 1.13699 1.54094 0
M  V30 2326 H 208.787 0.0653622 3.91745 0
M  V30 2327 H 210.484 0.450904 3.98457 0
M  V30 2328 H 207.074 1.87846 3.85242 0
M  V30 2329 H 211.258 2.83371 4.07449 0
M  V30 2330 H 206.514 4.19734 4.44559 0
M  V30 2331 H 210.688 5.15623 4.68087 0
M  V30 2332 H 208.315 5.84306 4.86303 0
M  V30 2333 N 209.89 -1.43072 0.660911 0
M  V30 2334 C 211.167 -1.95307 0.107017 0
M  V30 2335 C 211.547 -1.60192 -1.37484 0
M  V30 2336 O 210.895 -0.890949 -2.10415 0
M  V30 2337 C 211.105 -3.47124 0.361402 0
M  V30 2338 C 212.453 -4.23738 0.270455 0
M  V30 2339 O 213.477 -3.54981 0.294382 0
M  V30 2340 O 212.336 -5.46131 0.200737 0
M  V30 2341 H 209.43 -0.826984 -0.00517729 0
M  V30 2342 H 211.976 -1.52972 0.734681 0
M  V30 2343 H 210.748 -3.65837 1.38848 0
M  V30 2344 H 210.371 -3.96475 -0.298953 0
M  V30 2345 N 211.368 -0.403325 -1.52352 0
M  V30 2346 C 212.645 0.232611 -1.94212 0
M  V30 2347 C 213.025 1.63133 -1.33981 0
M  V30 2348 O 212.373 2.22659 -0.513344 0
M  V30 2349 C 212.583 0.244811 -3.4814 0
M  V30 2350 C 213.931 0.46698 -4.22024 0
M  V30 2351 O 214.955 0.324419 -3.5472 0
M  V30 2352 O 213.814 0.74747 -5.41364 0
M  V30 2353 H 210.908 0.148223 -0.813609 0
M  V30 2354 H 213.454 -0.458848 -1.63379 0
M  V30 2355 H 212.226 -0.734378 -3.84347 0
M  V30 2356 H 211.849 0.980611 -3.85318 0
M  V30 2357 N 212.846 1.57033 -0.133567 0
M  V30 2358 C 214.076 1.99754 0.527429 0
M  V30 2359 C 214.484 1.01245 1.59832 0
M  V30 2360 O 213.827 -0.000645496 1.837 0
M  V30 2361 C 213.889 3.38903 1.19939 0
M  V30 2362 C 213.553 4.56174 0.274709 0
M  V30 2363 C 214.55 5.17563 -0.492398 0
M  V30 2364 C 212.235 5.01972 0.18153 0
M  V30 2365 C 214.229 6.2315 -1.34027 0
M  V30 2366 C 211.916 6.07416 -0.669958 0
M  V30 2367 C 212.914 6.67874 -1.42947 0
M  V30 2368 O 212.602 7.71279 -2.2668 0
M  V30 2369 H 212.334 0.660702 0.142999 0
M  V30 2370 H 214.888 2.04207 -0.221099 0
M  V30 2371 H 213.118 3.31248 1.99528 0
M  V30 2372 H 214.807 3.65818 1.75875 0
M  V30 2373 H 215.573 4.83087 -0.430367 0
M  V30 2374 H 211.452 4.54652 0.762422 0
M  V30 2375 H 214.996 6.70268 -1.93357 0
M  V30 2376 H 210.893 6.41321 -0.73333 0
M  V30 2377 H 211.661 7.88441 -2.1978 0
M  V30 2378 N 214.325 -0.140222 1.56975 0
M  V30 2379 C 215.55 -0.870414 1.88251 0
M  V30 2380 C 215.975 -1.73637 0.723312 0
M  V30 2381 O 215.333 -1.78329 -0.32689 0
M  V30 2382 C 215.381 -1.69737 3.18154 0
M  V30 2383 O 214.485 -2.80229 3.02565 0
M  V30 2384 H 213.826 -0.242025 0.61832 0
M  V30 2385 H 216.356 -0.128999 2.04193 0
M  V30 2386 H 216.366 -2.09099 3.50345 0
M  V30 2387 H 215.041 -1.06152 4.02125 0
M  V30 2388 H 213.618 -2.44224 2.81796 0
M  V30 2389 N 215.803 -1.52179 -0.40978 0
M  V30 2390 C 217.08 -1.56769 -1.16974 0
M  V30 2391 C 217.46 -0.348322 -2.08206 0
M  V30 2392 O 216.808 0.664862 -2.18613 0
M  V30 2393 C 217.018 -2.89603 -1.9476 0
M  V30 2394 C 218.366 -3.42579 -2.50849 0
M  V30 2395 O 219.39 -2.91338 -2.04941 0
M  V30 2396 O 218.249 -4.32054 -3.34652 0
M  V30 2397 H 215.343 -0.631439 -0.534054 0
M  V30 2398 H 217.889 -1.64507 -0.416613 0
M  V30 2399 H 216.661 -3.698 -1.27921 0
M  V30 2400 H 216.284 -2.85155 -2.77079 0
M  V30 2401 N 217.281 0.66697 -1.42791 0
M  V30 2402 C 218.558 1.4234 -1.34159 0
M  V30 2403 C 218.938 2.11093 0.0172729 0
M  V30 2404 O 218.286 2.03808 1.03318 0
M  V30 2405 C 218.496 2.41942 -2.51526 0
M  V30 2406 C 219.844 3.06353 -2.93995 0
M  V30 2407 O 220.868 2.52269 -2.51473 0
M  V30 2408 O 219.727 4.04376 -3.67617 0
M  V30 2409 H 216.821 0.635277 -0.529483 0
M  V30 2410 H 219.367 0.695034 -1.54814 0
M  V30 2411 H 218.139 1.89991 -3.42081 0
M  V30 2412 H 217.762 3.22249 -2.32898 0
M  V30 2413 N 218.759 1.29093 0.90403 0
M  V30 2414 C 220.005 1.16986 1.65656 0
M  V30 2415 C 220.338 -0.278925 1.92186 0
M  V30 2416 O 219.613 -1.2019 1.5292 0
M  V30 2417 C 219.896 1.97908 3.0084 0
M  V30 2418 C 219.749 3.50903 2.81403 0
M  V30 2419 C 221.068 1.80208 4.01513 0
M  V30 2420 H 218.187 0.426346 0.601164 0
M  V30 2421 H 220.829 1.58518 1.04747 0
M  V30 2422 H 218.979 1.62616 3.52829 0
M  V30 2423 H 220.651 3.96153 2.36348 0
M  V30 2424 H 218.894 3.76045 2.1627 0
M  V30 2425 H 219.565 4.02791 3.77443 0
M  V30 2426 H 222.041 2.11025 3.58619 0
M  V30 2427 H 220.917 2.39184 4.94047 0
M  V30 2428 H 221.178 0.756119 4.35586 0
M  V30 2429 N 220.237 -1.11381 1.11499 0
M  V30 2430 C 221.477 -1.84763 0.874188 0
M  V30 2431 C 221.841 -1.82726 -0.589496 0
M  V30 2432 O 223.042 -2.51562 -0.947089 0
M  V30 2433 C 221.313 -3.27931 1.42112 0
M  V30 2434 S 222.872 -4.18557 1.31739 0
M  V30 2435 H 219.69 -0.637115 0.315603 0
M  V30 2436 H 222.292 -1.34097 1.42261 0
M  V30 2437 H 220.996 -3.26978 2.48019 0
M  V30 2438 H 220.527 -3.83665 0.869761 0
M  V30 2439 H 222.542 -4.95396 0.282335 0
M  V30 2440 N 221.715 -0.905404 -1.28997 0
M  V30 2441 C 222.963 -0.533192 -1.9494 0
M  V30 2442 C 223.284 0.924618 -1.71685 0
M  V30 2443 O 222.554 1.65268 -1.05183 0
M  V30 2444 H 221.134 -0.194194 -0.721317 0
M  V30 2445 H 223.796 -1.15294 -1.57141 0
M  V30 2446 H 222.892 -0.72059 -3.03667 0
M  V30 2447 N 223.193 1.4272 -0.668489 0
M  V30 2448 C 224.156 2.292 0.00448567 0
M  V30 2449 C 225.156 1.43001 0.735339 0
M  V30 2450 O 226.346 1.64461 0.57429 0
M  V30 2451 C 223.478 3.25375 1.01705 0
M  V30 2452 H 224.671 2.90199 -0.756608 0
M  V30 2453 H 222.224 1.50254 -0.430506 0
M  V30 2454 H 222.959 2.69301 1.80686 0
M  V30 2455 H 222.744 3.88944 0.496463 0
M  V30 2456 H 224.234 3.90245 1.48655 0
M  V30 2457 N 224.671 0.411399 1.52136 0
M  V30 2458 C 225.917 -0.163888 2.02137 0
M  V30 2459 C 226.25 -1.44597 1.29636 0
M  V30 2460 O 225.525 -1.90272 0.403353 0
M  V30 2461 C 225.808 -0.40927 3.57767 0
M  V30 2462 C 225.661 0.889643 4.40914 0
M  V30 2463 C 226.98 -1.19042 4.23694 0
M  V30 2464 H 224.099 -0.0580896 0.734707 0
M  V30 2465 H 226.741 0.54531 1.82007 0
M  V30 2466 H 224.891 -1.0134 3.7505 0
M  V30 2467 H 226.563 1.52575 4.35337 0
M  V30 2468 H 224.806 1.50011 4.07037 0
M  V30 2469 H 225.477 0.672314 5.4789 0
M  V30 2470 H 227.953 -0.678942 4.10524 0
M  V30 2471 H 226.829 -1.33086 5.32522 0
M  V30 2472 H 227.09 -2.21166 3.82803 0
M  V30 2473 N 226.149 -1.5696 0.141893 0
M  V30 2474 C 227.395 -1.9625 -0.511248 0
M  V30 2475 C 227.728 -1.02654 -1.64851 0
M  V30 2476 O 227.003 -0.0679676 -1.94381 0
M  V30 2477 C 227.286 -3.45285 -1.02227 0
M  V30 2478 C 227.139 -4.49658 0.113138 0
M  V30 2479 C 228.458 -3.96698 -1.90574 0
M  V30 2480 H 225.577 -0.713567 -0.184367 0
M  V30 2481 H 228.219 -1.88698 0.222087 0
M  V30 2482 H 226.369 -3.51852 -1.64719 0
M  V30 2483 H 228.041 -4.55174 0.749302 0
M  V30 2484 H 226.284 -4.26857 0.773026 0
M  V30 2485 H 226.955 -5.51258 -0.286053 0
M  V30 2486 H 229.431 -3.92578 -1.37918 0
M  V30 2487 H 228.307 -5.01453 -2.2324 0
M  V30 2488 H 228.568 -3.3875 -2.84079 0
M  V30 2489 N 227.627 0.131896 -1.57047 0
M  V30 2490 C 228.575 1.18146 -2.0036 0
M  V30 2491 C 229.569 1.43614 -0.898406 0
M  V30 2492 O 230.775 1.43729 -1.08361 0
M  V30 2493 H 227.15 0.398042 -0.638018 0
M  V30 2494 H 229.121 0.789564 -2.87765 0
M  V30 2495 C 227.87 2.50341 -2.41298 0
M  V30 2496 H 227.193 2.31578 -3.25902 0
M  V30 2497 H 228.633 3.22371 -2.75414 0
M  V30 2498 C 227.092 3.11984 -1.27153 0
M  V30 2499 O 227.622 3.97484 -0.580459 0
M  V30 2500 N 225.828 2.71662 -1.03189 0
M  V30 2501 H 225.375 2.02231 -1.59564 0
M  V30 2502 H 225.333 3.13238 -0.270077 0
M  V30 2503 N 229.106 1.52395 0.401703 0
M  V30 2504 C 230.352 1.67065 1.14966 0
M  V30 2505 C 230.685 0.403052 1.89971 0
M  V30 2506 O 229.96 -0.598774 1.85054 0
M  V30 2507 C 230.243 2.8975 2.13815 0
M  V30 2508 C 230.096 4.26578 1.42658 0
M  V30 2509 C 231.415 3.07965 3.14397 0
M  V30 2510 H 228.534 0.607968 0.416587 0
M  V30 2511 H 231.176 1.84965 0.434511 0
M  V30 2512 H 229.326 2.74619 2.74803 0
M  V30 2513 H 230.998 4.53451 0.847329 0
M  V30 2514 H 229.241 4.27639 0.72849 0
M  V30 2515 H 229.912 5.08483 2.14823 0
M  V30 2516 H 232.388 3.22043 2.63491 0
M  V30 2517 H 231.264 3.95308 3.80819 0
M  V30 2518 H 231.525 2.21611 3.82545 0
M  V30 2519 N 230.584 -0.659388 1.43143 0
M  V30 2520 C 232 -0.974337 1.26407 0
M  V30 2521 C 232.2 -2.007 0.179341 0
M  V30 2522 O 231.256 -2.4856 -0.444295 0
M  V30 2523 C 232.569 -1.46447 2.62628 0
M  V30 2524 C 234.117 -1.58144 2.7011 0
M  V30 2525 C 234.592 -2.1055 4.06734 0
M  V30 2526 N 236.083 -2.17861 4.08767 0
M  V30 2527 C 236.818 -2.59519 5.1131 0
M  V30 2528 N 236.314 -3.00518 6.24228 0
M  V30 2529 N 238.107 -2.59404 4.98664 0
M  V30 2530 H 230.258 0.0240528 2.12386 0
M  V30 2531 H 232.521 -0.0518065 0.946583 0
M  V30 2532 H 232.227 -0.780123 3.42939 0
M  V30 2533 H 232.101 -2.44058 2.87603 0
M  V30 2534 H 234.488 -2.25682 1.90136 0
M  V30 2535 H 234.569 -0.589828 2.48907 0
M  V30 2536 H 234.213 -1.43616 4.87172 0
M  V30 2537 H 234.143 -3.10531 4.25298 0
M  V30 2538 H 236.634 -1.88975 3.27257 0
M  V30 2539 H 236.947 -3.31036 6.98309 0
M  V30 2540 H 235.292 -2.98337 6.2771 0
M  V30 2541 H 238.483 -2.26747 4.09516 0
M  V30 2542 H 238.656 -2.91548 5.78709 0
M  V30 2543 N 232.062 -1.29571 -0.897171 0
M  V30 2544 C 233.025 -1.14913 -1.98312 0
M  V30 2545 C 234.025 -0.0838629 -1.60581 0
M  V30 2546 O 235.215 -0.331006 -1.71026 0
M  V30 2547 C 232.347 -0.757835 -3.3237 0
M  V30 2548 H 233.54 -2.11377 -2.12743 0
M  V30 2549 H 231.093 -1.12793 -1.08201 0
M  V30 2550 H 231.828 0.206837 -3.2364 0
M  V30 2551 H 231.613 -1.52755 -3.61121 0
M  V30 2552 H 233.103 -0.678408 -4.12053 0
M  V30 2553 N 233.54 1.10788 -1.12088 0
M  V30 2554 C 234.487 2.17025 -0.785407 0
M  V30 2555 C 235.457 1.64265 0.246191 0
M  V30 2556 O 236.642 1.90412 0.121584 0
M  V30 2557 C 233.782 3.44249 -0.242177 0
M  V30 2558 C 232.895 4.1098 -1.33115 0
M  V30 2559 C 232.03 5.25911 -0.747741 0
M  V30 2560 C 231.069 5.84538 -1.81609 0
M  V30 2561 N 230.206 6.90853 -1.25167 0
M  V30 2562 H 235.046 2.45066 -1.69548 0
M  V30 2563 H 232.583 1.20297 -0.846582 0
M  V30 2564 H 234.541 4.17101 0.0908026 0
M  V30 2565 H 233.171 3.16571 0.631072 0
M  V30 2566 H 232.223 3.36133 -1.78097 0
M  V30 2567 H 233.535 4.50601 -2.13917 0
M  V30 2568 H 232.689 6.056 -0.365216 0
M  V30 2569 H 231.428 4.87614 0.0915188 0
M  V30 2570 H 230.433 5.03522 -2.20785 0
M  V30 2571 H 231.658 6.249 -2.6585 0
M  V30 2572 H 229.604 6.54562 -0.434174 0
M  V30 2573 H 229.521 7.29166 -1.99633 0
M  V30 2574 H 230.789 7.7433 -0.896259 0
M  V30 2575 N 235.018 0.912232 1.28515 0
M  V30 2576 C 236.266 0.543523 1.94654 0
M  V30 2577 C 236.587 -0.9155 1.72173 0
M  V30 2578 O 235.857 -1.64708 1.06058 0
M  V30 2579 H 234.437 0.198017 0.720277 0
M  V30 2580 H 237.099 1.16126 1.56527 0
M  V30 2581 H 236.195 0.736684 3.03281 0
M  V30 2582 N 236.496 -1.42363 0.676048 0
M  V30 2583 C 237.773 -1.95183 0.127726 0
M  V30 2584 C 238.153 -1.61641 -1.35777 0
M  V30 2585 O 237.501 -0.913216 -2.09458 0
M  V30 2586 C 237.711 -3.46721 0.398199 0
M  V30 2587 C 239.059 -4.23427 0.315383 0
M  V30 2588 O 240.083 -3.54649 0.332016 0
M  V30 2589 O 238.942 -5.45888 0.25865 0
M  V30 2590 H 236.036 -0.826992 0.00359427 0
M  V30 2591 H 238.582 -1.52184 0.750864 0
M  V30 2592 H 237.354 -3.64344 1.4272 0
M  V30 2593 H 236.977 -3.96769 -0.256885 0
M  V30 2594 N 237.974 -0.419461 -1.51915 0
M  V30 2595 C 238.921 0.400927 -2.27291 0
M  V30 2596 C 239.891 1.03224 -1.30131 0
M  V30 2597 O 241.076 1.05455 -1.59009 0
M  V30 2598 C 238.216 1.50603 -3.10504 0
M  V30 2599 C 237.329 0.89462 -4.22635 0
M  V30 2600 C 236.464 1.97328 -4.93189 0
M  V30 2601 C 235.503 1.33935 -5.97267 0
M  V30 2602 N 234.64 2.3586 -6.61298 0
M  V30 2603 H 239.48 -0.248251 -2.96964 0
M  V30 2604 H 237.017 -0.134266 -1.46486 0
M  V30 2605 H 238.975 2.15783 -3.57062 0
M  V30 2606 H 237.605 2.12509 -2.42981 0
M  V30 2607 H 236.657 0.131583 -3.80172 0
M  V30 2608 H 237.969 0.391641 -4.9726 0
M  V30 2609 H 237.123 2.70211 -5.43204 0
M  V30 2610 H 235.862 2.50994 -4.18155 0
M  V30 2611 H 234.867 0.595896 -5.46561 0
M  V30 2612 H 236.092 0.810252 -6.74249 0
M  V30 2613 H 234.038 2.88639 -5.89087 0
M  V30 2614 H 233.955 1.90403 -7.3163 0
M  V30 2615 H 235.223 3.08282 -7.15949 0
M  V30 2616 N 239.452 1.56882 -0.150215 0
M  V30 2617 C 240.701 1.95403 0.500071 0
M  V30 2618 C 241.014 1.03777 1.658 0
M  V30 2619 O 242.22 1.31889 2.37313 0
M  V30 2620 C 240.676 3.4738 0.941018 0
M  V30 2621 C 240.284 4.47596 -0.190158 0
M  V30 2622 C 242.028 3.9476 1.56091 0
M  V30 2623 C 239.935 5.90787 0.269237 0
M  V30 2624 H 238.865 0.729515 0.190588 0
M  V30 2625 H 241.516 1.81988 -0.235074 0
M  V30 2626 H 239.898 3.56138 1.73152 0
M  V30 2627 H 241.072 4.50536 -0.967157 0
M  V30 2628 H 239.387 4.10151 -0.718666 0
M  V30 2629 H 241.984 4.99181 1.9163 0
M  V30 2630 H 242.327 3.36494 2.45107 0
M  V30 2631 H 242.86 3.88932 0.835249 0
M  V30 2632 H 239.599 6.52879 -0.585621 0
M  V30 2633 H 239.119 5.912 1.01204 0
M  V30 2634 H 240.798 6.42979 0.720176 0
M  V30 2635 N 240.93 -0.123565 1.57115 0
M  V30 2636 C 241.893 -1.13583 1.99076 0
M  V30 2637 C 242.893 -1.34564 0.880296 0
M  V30 2638 O 244.083 -1.31158 1.14644 0
M  V30 2639 C 241.215 -2.49128 2.32698 0
M  V30 2640 H 242.408 -0.775287 2.89706 0
M  V30 2641 H 239.961 -0.36771 1.51913 0
M  V30 2642 H 240.696 -2.90111 1.44934 0
M  V30 2643 H 240.481 -2.35255 3.13684 0
M  V30 2644 H 241.971 -3.2199 2.65918 0
M  V30 2645 N 242.408 -1.52605 -0.393616 0
M  V30 2646 C 243.657 -1.66649 -1.13627 0
M  V30 2647 C 243.97 -0.410364 -1.91247 0
M  V30 2648 O 245.176 -0.430854 -2.68059 0
M  V30 2649 C 243.632 -2.9449 -2.06891 0
M  V30 2650 C 243.24 -4.27266 -1.34714 0
M  V30 2651 C 244.984 -3.17899 -2.81319 0
M  V30 2652 C 242.891 -5.46217 -2.26717 0
M  V30 2653 H 241.821 -0.62084 -0.427871 0
M  V30 2654 H 244.472 -1.791 -0.399428 0
M  V30 2655 H 242.854 -2.75774 -2.84191 0
M  V30 2656 H 244.028 -4.56518 -0.626714 0
M  V30 2657 H 242.343 -4.10081 -0.722643 0
M  V30 2658 H 244.94 -4.03949 -3.50328 0
M  V30 2659 H 245.283 -2.32777 -3.45139 0
M  V30 2660 H 245.816 -3.37159 -2.11113 0
M  V30 2661 H 242.555 -6.33733 -1.67521 0
M  V30 2662 H 242.075 -5.21283 -2.96689 0
M  V30 2663 H 243.754 -5.7991 -2.86903 0
M  V30 2664 N 243.887 0.651787 -1.4349 0
M  V30 2665 C 245.133 1.4121 -1.46395 0
M  V30 2666 C 245.488 1.92202 -0.087366 0
M  V30 2667 O 244.781 1.69452 0.894231 0
M  V30 2668 C 244.975 2.60914 -2.44251 0
M  V30 2669 C 244.804 2.21639 -3.91288 0
M  V30 2670 C 243.574 2.09897 -4.59643 0
M  V30 2671 C 245.772 1.81835 -4.81083 0
M  V30 2672 N 243.754 1.63967 -5.91598 0
M  V30 2673 C 245.125 1.46998 -6.02322 0
M  V30 2674 C 247.18 1.69031 -4.6833 0
M  V30 2675 C 245.883 1.00638 -7.12225 0
M  V30 2676 C 247.909 1.24077 -5.78238 0
M  V30 2677 C 247.271 0.901772 -6.98604 0
M  V30 2678 H 243.37 0.512322 -0.590805 0
M  V30 2679 H 245.954 0.74989 -1.7968 0
M  V30 2680 H 244.125 3.24792 -2.1299 0
M  V30 2681 H 245.857 3.27622 -2.37584 0
M  V30 2682 H 242.612 2.297 -4.14168 0
M  V30 2683 H 243.036 1.43359 -6.61647 0
M  V30 2684 H 247.678 1.93878 -3.75727 0
M  V30 2685 H 245.396 0.745399 -8.04655 0
M  V30 2686 H 248.982 1.14657 -5.7039 0
M  V30 2687 H 247.862 0.559226 -7.82203 0
M  V30 2688 N 245.365 1.30045 0.890287 0
M  V30 2689 C 246.593 1.21472 1.67487 0
M  V30 2690 C 247.008 -0.223241 1.87476 0
M  V30 2691 O 246.365 -1.14828 1.41847 0
M  V30 2692 C 246.416 1.93394 3.05419 0
M  V30 2693 O 246.137 3.31576 2.86337 0
M  V30 2694 C 247.638 1.91414 3.99844 0
M  V30 2695 H 244.858 0.420604 0.522813 0
M  V30 2696 H 247.402 1.7158 1.11268 0
M  V30 2697 H 245.557 1.47099 3.58386 0
M  V30 2698 H 245.971 3.67929 3.73802 0
M  V30 2699 H 247.445 2.46285 4.94012 0
M  V30 2700 H 247.922 0.891833 4.3005 0
M  V30 2701 H 248.528 2.37496 3.52811 0
M  V30 2702 N 246.843 -1.10192 1.12674 0
M  V30 2703 C 248.071 -1.85983 0.906527 0
M  V30 2704 C 248.486 -1.80783 -0.544333 0
M  V30 2705 O 247.843 -1.19834 -1.37645 0
M  V30 2706 C 247.894 -3.34281 1.37618 0
M  V30 2707 O 247.615 -3.39401 2.77017 0
M  V30 2708 C 249.116 -4.26938 1.19325 0
M  V30 2709 H 246.336 -0.587716 0.323775 0
M  V30 2710 H 248.88 -1.39284 1.49734 0
M  V30 2711 H 247.035 -3.78436 0.828539 0
M  V30 2712 H 247.449 -4.31838 2.97684 0
M  V30 2713 H 248.923 -5.29181 1.57071 0
M  V30 2714 H 249.4 -4.38995 0.134097 0
M  V30 2715 H 250.006 -3.8859 1.72852 0
M  V30 2716 N 248.321 -0.919034 -1.28029 0
M  V30 2717 C 249.231 -0.416756 -2.30869 0
M  V30 2718 C 250.247 0.498235 -1.66714 0
M  V30 2719 O 251.423 0.383144 -1.97722 0
M  V30 2720 C 248.488 0.330274 -3.45123 0
M  V30 2721 C 247.549 -0.618578 -4.2482 0
M  V30 2722 C 246.782 0.0928959 -5.33619 0
M  V30 2723 O 247.005 1.31375 -5.55065 0
M  V30 2724 O 245.939 -0.574499 -5.99152 0
M  V30 2725 H 249.765 -1.27043 -2.75851 0
M  V30 2726 H 247.35 -0.684052 -1.3282 0
M  V30 2727 H 249.232 0.751972 -4.14636 0
M  V30 2728 H 247.907 1.1597 -3.02213 0
M  V30 2729 H 246.814 -1.08978 -3.57875 0
M  V30 2730 H 248.147 -1.41497 -4.71423 0
M  V30 2731 N 249.799 1.42003 -0.683588 0
M  V30 2732 C 251.039 2.03282 -0.213513 0
M  V30 2733 C 251.403 1.52924 1.16097 0
M  V30 2734 O 252.604 2.06048 1.7262 0
M  V30 2735 C 250.875 3.56483 -0.255856 0
M  V30 2736 S 252.434 4.3857 0.14193 0
M  V30 2737 H 249.252 0.705659 -0.0869853 0
M  V30 2738 H 251.854 1.73619 -0.8987 0
M  V30 2739 H 250.558 3.90631 -1.25841 0
M  V30 2740 H 250.089 3.90831 0.448875 0
M  V30 2741 H 252.104 4.76828 1.37295 0
M  V30 2742 N 251.277 0.427512 1.51691 0
M  V30 2743 C 252.187 -0.39527 2.31246 0
M  V30 2744 C 253.203 -1.03674 1.39742 0
M  V30 2745 O 254.379 -1.03425 1.72816 0
M  V30 2746 C 251.444 -1.48706 3.13189 0
M  V30 2747 C 250.505 -0.866743 4.20459 0
M  V30 2748 C 249.738 -1.90651 4.98486 0
M  V30 2749 O 249.961 -3.12733 4.77026 0
M  V30 2750 O 248.895 -1.5025 5.82845 0
M  V30 2751 H 252.721 0.253918 3.02637 0
M  V30 2752 H 250.306 0.190274 1.48183 0
M  V30 2753 H 252.188 -2.12047 3.64162 0
M  V30 2754 H 250.863 -2.12051 2.44573 0
M  V30 2755 H 249.77 -0.195544 3.73589 0
M  V30 2756 H 251.103 -0.276934 4.9142 0
M  V30 2757 N 252.755 -1.56801 0.158532 0
M  V30 2758 C 253.703 -2.18638 -0.793729 0
M  V30 2759 C 254.697 -1.14669 -1.24689 0
M  V30 2760 O 255.903 -1.32895 -1.21403 0
M  V30 2761 H 252.278 -0.700226 -0.274204 0
M  V30 2762 H 254.249 -2.97367 -0.248095 0
M  V30 2763 C 252.998 -2.83139 -2.0181 0
M  V30 2764 H 252.321 -3.62863 -1.67841 0
M  V30 2765 H 253.761 -3.29894 -2.66357 0
M  V30 2766 C 252.22 -1.82244 -2.83353 0
M  V30 2767 O 252.75 -1.3 -3.80083 0
M  V30 2768 N 250.956 -1.51288 -2.48114 0
M  V30 2769 H 250.503 -1.93964 -1.69516 0
M  V30 2770 H 250.461 -0.840296 -3.02963 0
M  V30 2771 N 254.233 0.115231 -1.57178 0
M  V30 2772 C 255.649 0.468877 -1.52557 0
M  V30 2773 C 255.849 1.81649 -0.872125 0
M  V30 2774 O 254.905 2.48347 -0.45606 0
M  V30 2775 C 256.218 0.4499 -2.97315 0
M  V30 2776 C 257.766 0.533185 -3.08425 0
M  V30 2777 C 258.241 0.54456 -4.54751 0
M  V30 2778 N 259.732 0.605892 -4.5922 0
M  V30 2779 C 260.467 0.636203 -5.6986 0
M  V30 2780 N 259.963 0.623931 -6.89985 0
M  V30 2781 N 261.756 0.679496 -5.57978 0
M  V30 2782 H 253.907 -0.767712 -1.9804 0
M  V30 2783 H 256.17 -0.283609 -0.904583 0
M  V30 2784 H 255.876 -0.472721 -3.48509 0
M  V30 2785 H 255.75 1.27632 -3.5495 0
M  V30 2786 H 258.137 1.44623 -2.57232 0
M  V30 2787 H 258.218 -0.320995 -2.53778 0
M  V30 2788 H 257.862 -0.364452 -5.06591 0
M  V30 2789 H 257.792 1.41568 -5.07214 0
M  V30 2790 H 260.283 0.621386 -3.72756 0
M  V30 2791 H 260.596 0.649787 -7.70063 0
M  V30 2792 H 258.941 0.591296 -6.9248 0
M  V30 2793 H 262.132 0.686472 -4.63039 0
M  V30 2794 H 262.305 0.69965 -6.44212 0
M  V30 2795 N 255.711 1.52812 0.385517 0
M  V30 2796 C 256.621 1.80766 1.49535 0
M  V30 2797 C 257.637 0.694651 1.59532 0
M  V30 2798 O 258.813 0.982611 1.75803 0
M  V30 2799 C 255.878 1.97381 2.85029 0
M  V30 2800 C 254.939 3.21295 2.84724 0
M  V30 2801 C 254.172 3.37108 4.13756 0
M  V30 2802 O 254.395 2.5765 5.08893 0
M  V30 2803 O 253.329 4.30378 4.20783 0
M  V30 2804 H 257.155 2.75015 1.28842 0
M  V30 2805 H 254.74 1.37946 0.573697 0
M  V30 2806 H 256.622 2.09996 3.65349 0
M  V30 2807 H 255.297 1.06322 3.05741 0
M  V30 2808 H 254.204 3.1412 2.03174 0
M  V30 2809 H 255.537 4.12212 2.68965 0
M  V30 2810 N 257.189 -0.644168 1.43834 0
M  V30 2811 C 258.152 -1.73857 1.49353 0
M  V30 2812 C 259.152 -1.56315 0.377112 0
M  V30 2813 O 260.342 -1.62048 0.639226 0
M  V30 2814 C 257.474 -3.12819 1.35488 0
M  V30 2815 H 258.667 -1.70342 2.46827 0
M  V30 2816 H 256.22 -0.856652 1.30733 0
M  V30 2817 H 256.955 -3.2194 0.390569 0
M  V30 2818 H 256.74 -3.26958 2.16428 0
M  V30 2819 H 258.23 -3.92606 1.42302 0
M  V30 2820 N 258.668 -1.30515 -0.883378 0
M  V30 2821 C 259.914 -1.19607 -1.63774 0
M  V30 2822 C 260.247 0.248314 -1.92606 0
M  V30 2823 O 259.522 1.17742 -1.54813 0
M  V30 2824 C 259.805 -2.02669 -2.97653 0
M  V30 2825 C 259.658 -3.55335 -2.75784 0
M  V30 2826 C 260.977 -1.86573 -3.98596 0
M  V30 2827 H 258.096 -0.435856 -0.594305 0
M  V30 2828 H 260.738 -1.60165 -1.02212 0
M  V30 2829 H 258.888 -1.68208 -3.50197 0
M  V30 2830 H 260.56 -3.99863 -2.30016 0
M  V30 2831 H 258.803 -3.79438 -2.1026 0
M  V30 2832 H 259.474 -4.08745 -3.70988 0
M  V30 2833 H 261.95 -2.16703 -3.55217 0
M  V30 2834 H 260.826 -2.47014 -4.90179 0
M  V30 2835 H 261.087 -0.825321 -4.34328 0
M  V30 2836 N 260.146 1.09593 -1.13257 0
M  V30 2837 C 261.374 1.855 -0.916378 0
M  V30 2838 C 261.789 1.81069 0.534738 0
M  V30 2839 O 261.146 1.20562 1.37007 0
M  V30 2840 C 261.197 3.33546 -1.39388 0
M  V30 2841 O 260.918 3.37927 -2.78813 0
M  V30 2842 C 262.419 4.26299 -1.21588 0
M  V30 2843 H 259.639 0.585991 -0.326887 0
M  V30 2844 H 262.183 1.38488 -1.5047 0
M  V30 2845 H 260.338 3.77992 -0.848597 0
M  V30 2846 H 260.752 4.30254 -2.9997 0
M  V30 2847 H 262.226 5.28341 -1.59876 0
M  V30 2848 H 262.703 4.38918 -0.157376 0
M  V30 2849 H 263.309 3.87668 -1.7491 0
M  V30 2850 N 261.624 0.925811 1.2754 0
M  V30 2851 C 262.574 0.394488 2.24561 0
M  V30 2852 C 263.558 -0.500183 1.52928 0
M  V30 2853 O 264.75 -0.337936 1.73744 0
M  V30 2854 C 261.879 -0.353328 3.41477 0
M  V30 2855 C 260.965 0.557752 4.20416 0
M  V30 2856 N 261.356 1.67674 4.77199 0
M  V30 2857 C 259.654 0.360404 4.44541 0
M  V30 2858 C 260.355 2.24324 5.36706 0
M  V30 2859 N 259.331 1.53305 5.21535 0
M  V30 2860 H 263.133 1.2489 2.66045 0
M  V30 2861 H 260.647 0.779864 1.4245 0
M  V30 2862 H 262.644 -0.7509 4.10082 0
M  V30 2863 H 261.304 -1.20469 3.01525 0
M  V30 2864 H 262.315 2.05915 4.75204 0
M  V30 2865 H 258.992 -0.450454 4.15063 0
M  V30 2866 H 260.382 3.18521 5.91603 0
M  V30 2867 N 263.102 -1.41638 0.69111 0
M  V30 2868 C 264.351 -2.00526 0.217318 0
M  V30 2869 C 264.664 -1.55353 -1.18848 0
M  V30 2870 O 265.87 -2.06769 -1.75951 0
M  V30 2871 C 264.326 -3.58313 0.337639 0
M  V30 2872 C 263.934 -4.12469 1.74852 0
M  V30 2873 C 265.678 -4.24431 -0.0766066 0
M  V30 2874 C 263.585 -5.62675 1.82074 0
M  V30 2875 H 262.515 -0.750008 0.0774893 0
M  V30 2876 H 265.166 -1.6217 0.858661 0
M  V30 2877 H 263.548 -3.9425 -0.371879 0
M  V30 2878 H 264.722 -3.8796 2.48644 0
M  V30 2879 H 263.037 -3.58861 2.11205 0
M  V30 2880 H 265.634 -5.34683 -0.0430284 0
M  V30 2881 H 265.977 -4.01101 -1.1146 0
M  V30 2882 H 266.51 -3.93512 0.582476 0
M  V30 2883 H 263.249 -5.90826 2.83911 0
M  V30 2884 H 262.769 -5.89124 1.12661 0
M  V30 2885 H 264.448 -6.27371 1.58159 0
M  V30 2886 N 264.58 -0.43555 -1.51462 0
M  V30 2887 C 265.828 0.131254 -2.01673 0
M  V30 2888 C 266.149 1.43368 -1.32177 0
M  V30 2889 O 265.419 1.90524 -0.455769 0
M  V30 2890 H 263.999 0.0514954 -0.745223 0
M  V30 2891 H 266.661 -0.577847 -1.86137 0
M  V30 2892 H 265.757 0.308446 -3.10572 0
M  V30 2893 N 266.058 1.56714 -0.166846 0
M  V30 2894 C 267.474 1.58473 0.189372 0
M  V30 2895 C 267.674 1.18201 1.63189 0
M  V30 2896 O 266.73 0.891528 2.36237 0
M  V30 2897 C 268.043 3.00573 -0.0873872 0
M  V30 2898 C 269.591 3.1299 -0.0252443 0
M  V30 2899 C 270.066 4.57174 -0.274934 0
M  V30 2900 N 271.557 4.62665 -0.222553 0
M  V30 2901 C 272.292 5.72072 -0.389985 0
M  V30 2902 N 271.788 6.90054 -0.616229 0
M  V30 2903 N 273.581 5.61153 -0.326202 0
M  V30 2904 H 265.732 1.8118 -1.10849 0
M  V30 2905 H 267.995 0.839525 -0.440342 0
M  V30 2906 H 267.701 3.34497 -1.0865 0
M  V30 2907 H 267.575 3.72019 0.623037 0
M  V30 2908 H 269.962 2.78895 0.96444 0
M  V30 2909 H 270.043 2.43989 -0.768309 0
M  V30 2910 H 269.687 4.91976 -1.26181 0
M  V30 2911 H 269.617 5.24328 0.48869 0
M  V30 2912 H 272.108 3.77863 -0.0531512 0
M  V30 2913 H 272.421 7.69311 -0.733559 0
M  V30 2914 H 270.766 6.91927 -0.652791 0
M  V30 2915 H 273.957 4.67859 -0.150072 0
M  V30 2916 H 274.13 6.46364 -0.460116 0
M  V30 2917 N 267.536 -0.106894 1.57237 0
M  V30 2918 C 268.782 -0.81373 1.85759 0
M  V30 2919 C 269.115 -1.78952 0.754315 0
M  V30 2920 O 268.39 -1.93029 -0.23879 0
M  V30 2921 C 268.673 -1.55293 3.24894 0
M  V30 2922 C 268.526 -0.595929 4.45835 0
M  V30 2923 C 269.845 -2.5063 3.61763 0
M  V30 2924 H 266.964 -0.294369 0.67566 0
M  V30 2925 H 269.606 -0.0776472 1.89841 0
M  V30 2926 H 267.756 -2.1804 3.21544 0
M  V30 2927 H 269.428 0.0236262 4.61294 0
M  V30 2928 H 267.671 0.0916191 4.33703 0
M  V30 2929 H 268.342 -1.15004 5.39887 0
M  V30 2930 H 270.818 -1.97982 3.65981 0
M  V30 2931 H 269.694 -2.99376 4.60071 0
M  V30 2932 H 269.955 -3.3385 2.89821 0
M  V30 2933 N 269.014 -1.53014 -0.377408 0
M  V30 2934 C 270.244 -1.72265 -1.14054 0
M  V30 2935 C 270.652 -0.44601 -1.83868 0
M  V30 2936 O 269.995 0.590095 -1.73964 0
M  V30 2937 C 270.057 -2.82492 -2.22348 0
M  V30 2938 C 269.721 -4.23233 -1.72402 0
M  V30 2939 C 270.718 -5.05992 -1.19448 0
M  V30 2940 C 268.403 -4.696 -1.78273 0
M  V30 2941 C 270.397 -6.33203 -0.730268 0
M  V30 2942 C 268.084 -5.96792 -1.31464 0
M  V30 2943 C 269.082 -6.78424 -0.789297 0
M  V30 2944 O 268.77 -8.0323 -0.328077 0
M  V30 2945 H 268.502 -0.579873 -0.347453 0
M  V30 2946 H 271.056 -2.00502 -0.445882 0
M  V30 2947 H 269.286 -2.49702 -2.95272 0
M  V30 2948 H 270.975 -2.90034 -2.83963 0
M  V30 2949 H 271.741 -4.71349 -1.14259 0
M  V30 2950 H 267.62 -4.06142 -2.18106 0
M  V30 2951 H 271.164 -6.96868 -0.319542 0
M  V30 2952 H 267.061 -6.30937 -1.36342 0
M  V30 2953 H 267.829 -8.1727 -0.448493 0
M  V30 2954 N 270.492 0.636531 -1.44174 0
M  V30 2955 C 271.439 1.74875 -1.50624 0
M  V30 2956 C 272.409 1.62275 -0.35442 0
M  V30 2957 O 273.594 1.82276 -0.563908 0
M  V30 2958 C 270.734 3.13102 -1.45125 0
M  V30 2959 C 269.847 3.36717 -2.7064 0
M  V30 2960 C 268.982 4.64885 -2.57013 0
M  V30 2961 C 268.021 4.8166 -3.77717 0
M  V30 2962 N 267.158 6.01101 -3.62798 0
M  V30 2963 H 271.998 1.68697 -2.45653 0
M  V30 2964 H 269.535 0.823004 -1.21922 0
M  V30 2965 H 271.493 3.93034 -1.39929 0
M  V30 2966 H 270.123 3.18308 -0.536671 0
M  V30 2967 H 269.175 2.50763 -2.86046 0
M  V30 2968 H 270.487 3.44993 -3.60252 0
M  V30 2969 H 269.641 5.52969 -2.49619 0
M  V30 2970 H 268.38 4.58957 -1.64953 0
M  V30 2971 H 267.385 3.92007 -3.85501 0
M  V30 2972 H 268.61 4.89406 -4.70807 0
M  V30 2973 H 266.556 5.96273 -2.73486 0
M  V30 2974 H 266.473 6.10409 -4.46023 0
M  V30 2975 H 267.741 6.91761 -3.59286 0
M  V30 2976 N 271.97 1.30982 0.876444 0
M  V30 2977 C 272.88 1.2003 2.01569 0
M  V30 2978 C 273.896 0.11838 1.73597 0
M  V30 2979 O 275.072 0.33495 1.98595 0
M  V30 2980 C 272.137 0.901637 3.34771 0
M  V30 2981 C 271.198 2.06979 3.76109 0
M  V30 2982 C 270.431 1.78529 5.02954 0
M  V30 2983 O 270.654 0.717296 5.65872 0
M  V30 2984 O 269.588 2.64019 5.40905 0
M  V30 2985 H 273.414 2.15753 2.13739 0
M  V30 2986 H 270.999 1.10658 1.00375 0
M  V30 2987 H 272.881 0.750645 4.1466 0
M  V30 2988 H 271.556 -0.0256141 3.2369 0
M  V30 2989 H 270.463 2.27616 2.96887 0
M  V30 2990 H 271.796 2.97907 3.91807 0
M  V30 2991 N 273.449 -1.08991 1.13837 0
M  V30 2992 C 274.865 -1.33312 0.877506 0
M  V30 2993 C 275.065 -1.95587 -0.48456 0
M  V30 2994 O 274.121 -2.20509 -1.23013 0
M  V30 2995 C 275.434 -2.24045 2.0056 0
M  V30 2996 C 276.982 -2.37542 2.03821 0
M  V30 2997 C 277.457 -3.31614 3.15905 0
M  V30 2998 N 278.948 -3.39189 3.15445 0
M  V30 2999 C 279.683 -4.11992 3.98811 0
M  V30 3000 N 279.179 -4.87553 4.92203 0
M  V30 3001 N 280.972 -4.07762 3.86894 0
M  V30 3002 H 273.123 -0.669456 2.01574 0
M  V30 3003 H 275.386 -0.357482 0.878015 0
M  V30 3004 H 275.092 -1.85521 2.98789 0
M  V30 3005 H 274.966 -3.24466 1.92359 0
M  V30 3006 H 277.353 -2.75327 1.06202 0
M  V30 3007 H 277.434 -1.36884 2.16093 0
M  V30 3008 H 277.078 -2.94551 4.13766 0
M  V30 3009 H 277.008 -4.32186 3.0087 0
M  V30 3010 H 279.499 -2.85314 2.47799 0
M  V30 3011 H 279.812 -5.40549 5.52292 0
M  V30 3012 H 278.157 -4.86627 4.96205 0
M  V30 3013 H 281.348 -3.47833 3.13257 0
M  V30 3014 H 281.521 -4.64238 4.52092 0
M  V30 3015 N 274.927 -0.932562 -1.27047 0
M  V30 3016 C 275.857 -0.452902 -2.29066 0
M  V30 3017 C 276.838 0.489338 -1.62909 0
M  V30 3018 O 278.023 0.393046 -1.90181 0
M  V30 3019 C 275.153 0.290698 -3.46081 0
M  V30 3020 C 274.107 -0.564168 -4.24265 0
M  V30 3021 C 273.433 0.308886 -5.33807 0
M  V30 3022 C 274.733 -1.83112 -4.89149 0
M  V30 3023 H 276.427 -1.30552 -2.69437 0
M  V30 3024 H 273.973 -0.629201 -1.29526 0
M  V30 3025 H 275.926 0.637233 -4.16554 0
M  V30 3026 H 274.65 1.17738 -3.0464 0
M  V30 3027 H 273.309 -0.893477 -3.55545 0
M  V30 3028 H 272.957 1.19467 -4.88607 0
M  V30 3029 H 272.657 -0.259633 -5.87026 0
M  V30 3030 H 274.181 0.650884 -6.07121 0
M  V30 3031 H 275.595 -1.55236 -5.51883 0
M  V30 3032 H 273.992 -2.34353 -5.52448 0
M  V30 3033 H 275.062 -2.54772 -4.12576 0
M  V30 3034 N 276.405 1.4127 -0.698611 0
M  V30 3035 C 277.653 2.00782 -0.230409 0
M  V30 3036 C 277.974 1.5562 1.17505 0
M  V30 3037 O 277.244 0.78815 1.79346 0
M  V30 3038 H 275.824 0.742464 -0.0821944 0
M  V30 3039 H 278.486 1.72852 -0.90045 0
M  V30 3040 H 277.582 3.11095 -0.25021 0
M  V30 3041 N 277.883 0.443576 1.51229 0
M  V30 3042 C 278.813 -0.355142 2.30783 0
M  V30 3043 C 279.794 -1.0154 1.36468 0
M  V30 3044 O 280.979 -1.01785 1.65389 0
M  V30 3045 C 278.109 -1.45312 3.15439 0
M  V30 3046 C 277.063 -0.916002 4.18083 0
M  V30 3047 C 276.389 -2.1102 4.91299 0
M  V30 3048 C 277.689 0.0538602 5.22272 0
M  V30 3049 H 279.383 0.308767 2.97804 0
M  V30 3050 H 276.929 0.149937 1.43217 0
M  V30 3051 H 278.882 -2.01914 3.69876 0
M  V30 3052 H 277.606 -2.14541 2.46252 0
M  V30 3053 H 276.265 -0.372145 3.64706 0
M  V30 3054 H 275.913 -2.78882 4.18609 0
M  V30 3055 H 275.613 -1.75717 5.60712 0
M  V30 3056 H 277.137 -2.68164 5.48562 0
M  V30 3057 H 278.551 -0.422069 5.71744 0
M  V30 3058 H 276.948 0.319776 5.99247 0
M  V30 3059 H 278.018 0.98858 4.74716 0
M  V30 3060 N 279.361 -1.56624 0.175154 0
M  V30 3061 C 280.772 -1.83561 -0.340916 0
M  V30 3062 C 281.123 -1.09511 -1.62794 0
M  V30 3063 O 280.248 -0.349389 -2.13561 0
M  V30 3064 C 280.843 -3.32979 -0.625313 0
M  V30 3065 C 279.402 -3.60399 -1.08581 0
M  V30 3066 C 278.549 -2.77024 -0.123722 0
M  V30 3067 H 281.5 -1.53593 0.399344 0
M  V30 3068 H 281.521 -3.50666 -1.47694 0
M  V30 3069 H 281.033 -3.86847 0.311575 0
M  V30 3070 H 279.134 -3.11945 -2.03767 0
M  V30 3071 H 279.247 -4.68711 -0.992317 0
M  V30 3072 H 277.611 -2.46993 -0.621821 0
M  V30 3073 H 278.394 -3.33674 0.807256 0
M  V30 3074 N 280.839 0.0985539 -1.57292 0
M  V30 3075 C 282.25 0.653457 -1.74891 0
M  V30 3076 C 282.601 1.7929 -0.796838 0
M  V30 3077 O 281.726 2.16385 0.0254886 0
M  V30 3078 C 282.321 1.19216 -3.17133 0
M  V30 3079 C 280.88 1.69316 -3.36168 0
M  V30 3080 C 280.027 0.601294 -2.70702 0
M  V30 3081 H 282.978 -0.127497 -1.58187 0
M  V30 3082 H 282.999 2.06154 -3.19814 0
M  V30 3083 H 282.511 0.362635 -3.86402 0
M  V30 3084 H 280.612 2.5468 -2.71972 0
M  V30 3085 H 280.725 1.78853 -4.44464 0
M  V30 3086 H 279.089 1.0399 -2.32504 0
M  V30 3087 H 279.872 -0.217592 -3.4261 0
M  V30 3088 N 282.317 1.53212 0.369288 0
M  V30 3089 C 283.264 1.79388 1.45219 0
M  V30 3090 C 284.234 0.638059 1.53356 0
M  V30 3091 O 285.419 0.879852 1.69302 0
M  V30 3092 C 282.559 1.98623 2.82211 0
M  V30 3093 C 281.672 3.26337 2.8307 0
M  V30 3094 C 280.807 3.35779 4.11614 0
M  V30 3095 C 279.846 4.5754 4.06601 0
M  V30 3096 N 278.983 4.64155 5.26787 0
M  V30 3097 H 283.823 2.71794 1.22198 0
M  V30 3098 H 281.36 1.34642 0.592444 0
M  V30 3099 H 283.318 2.07761 3.61789 0
M  V30 3100 H 281.948 1.09558 3.03639 0
M  V30 3101 H 281 3.26171 1.95747 0
M  V30 3102 H 282.312 4.15988 2.75237 0
M  V30 3103 H 281.466 3.44208 4.99606 0
M  V30 3104 H 280.205 2.44137 4.22195 0
M  V30 3105 H 279.21 4.49215 3.16996 0
M  V30 3106 H 280.435 5.50519 3.97625 0
M  V30 3107 H 278.381 3.75413 5.3796 0
M  V30 3108 H 278.298 5.47706 5.21109 0
M  V30 3109 H 279.566 4.76863 6.16621 0
M  V30 3110 N 283.795 -0.628877 1.44509 0
M  V30 3111 C 285.044 -1.38437 1.4669 0
M  V30 3112 C 285.357 -1.95322 0.104272 0
M  V30 3113 O 286.563 -2.715 0.00362163 0
M  V30 3114 C 285.019 -2.50659 2.5826 0
M  V30 3115 C 284.627 -2.00277 4.0074 0
M  V30 3116 C 286.371 -3.27844 2.69664 0
M  V30 3117 C 284.278 -3.09854 5.0373 0
M  V30 3118 H 283.208 -0.520245 0.545766 0
M  V30 3119 H 285.859 -0.676313 1.70582 0
M  V30 3120 H 284.241 -3.2405 2.27612 0
M  V30 3121 H 285.415 -1.33736 4.40966 0
M  V30 3122 H 283.73 -1.35901 3.93599 0
M  V30 3123 H 286.327 -4.09534 3.43781 0
M  V30 3124 H 286.67 -3.77471 1.75559 0
M  V30 3125 H 287.203 -2.61543 2.99733 0
M  V30 3126 H 283.942 -2.65168 5.99472 0
M  V30 3127 H 283.462 -3.7503 4.68095 0
M  V30 3128 H 285.141 -3.74592 5.27532 0
M  V30 3129 N 285.273 -1.31445 -0.869486 0
M  V30 3130 C 286.519 -1.21337 -1.62496 0
M  V30 3131 C 286.852 0.227872 -1.92858 0
M  V30 3132 O 286.127 1.16094 -1.56053 0
M  V30 3133 C 286.41 -2.05814 -2.95487 0
M  V30 3134 C 286.263 -3.5824 -2.72 0
M  V30 3135 C 287.582 -1.9079 -3.96594 0
M  V30 3136 H 284.701 -0.442135 -0.589649 0
M  V30 3137 H 287.343 -1.6124 -1.00507 0
M  V30 3138 H 285.493 -1.71913 -3.48394 0
M  V30 3139 H 287.165 -4.0228 -2.25762 0
M  V30 3140 H 285.408 -3.81647 -2.06224 0
M  V30 3141 H 286.079 -4.12657 -3.66631 0
M  V30 3142 H 288.555 -2.20459 -3.52898 0
M  V30 3143 H 287.431 -2.52199 -4.87531 0
M  V30 3144 H 287.692 -0.871341 -4.33428 0
M  V30 3145 N 286.751 1.08385 -1.14413 0
M  V30 3146 C 288 1.80153 -0.907076 0
M  V30 3147 C 288.313 1.87176 0.567851 0
M  V30 3148 O 289.519 2.55359 0.922172 0
M  V30 3149 C 287.975 3.23687 -1.57336 0
M  V30 3150 C 287.583 3.24897 -3.08457 0
M  V30 3151 C 289.327 4.00136 -1.41744 0
M  V30 3152 C 287.234 4.6302 -3.67921 0
M  V30 3153 H 286.164 0.675139 -0.335714 0
M  V30 3154 H 288.815 1.21733 -1.37307 0
M  V30 3155 H 287.197 3.82234 -1.03505 0
M  V30 3156 H 288.371 2.76055 -3.68958 0
M  V30 3157 H 286.686 2.61943 -3.2369 0
M  V30 3158 H 289.283 5.02201 -1.83572 0
M  V30 3159 H 289.626 4.14709 -0.363576 0
M  V30 3160 H 290.159 3.48058 -1.92614 0
M  V30 3161 H 286.898 4.5365 -4.73161 0
M  V30 3162 H 286.418 5.12143 -3.12201 0
M  V30 3163 H 288.097 5.31994 -3.68227 0
M  V30 3164 N 288.23 0.939286 1.26551 0
M  V30 3165 C 289.478 0.58469 1.93457 0
M  V30 3166 C 289.799 -0.878774 1.74076 0
M  V30 3167 O 289.069 -1.62421 1.09528 0
M  V30 3168 H 287.649 0.21325 0.715914 0
M  V30 3169 H 290.311 1.1942 1.54029 0
M  V30 3170 H 289.407 0.800849 3.0165 0
M  V30 3171 N 289.708 -1.40897 0.706093 0
M  V30 3172 C 290.938 -2.05075 0.250523 0
M  V30 3173 C 291.346 -1.53275 -1.10921 0
M  V30 3174 O 290.689 -0.680281 -1.7064 0
M  V30 3175 C 290.751 -3.59219 0.142178 0
M  V30 3176 C 290.415 -4.33864 1.43566 0
M  V30 3177 C 291.412 -4.62448 2.37566 0
M  V30 3178 C 289.097 -4.72946 1.69195 0
M  V30 3179 C 291.091 -5.29088 3.5545 0
M  V30 3180 C 288.778 -5.3932 2.87362 0
M  V30 3181 C 289.776 -5.6732 3.80312 0
M  V30 3182 O 289.464 -6.32325 4.96408 0
M  V30 3183 H 289.196 -0.666645 0.112074 0
M  V30 3184 H 291.75 -1.81467 0.962239 0
M  V30 3185 H 289.98 -3.81609 -0.6254 0
M  V30 3186 H 291.669 -4.0495 -0.277584 0
M  V30 3187 H 292.435 -4.32727 2.19027 0
M  V30 3188 H 288.314 -4.50527 0.977042 0
M  V30 3189 H 291.858 -5.50859 4.28018 0
M  V30 3190 H 287.755 -5.68461 3.05814 0
M  V30 3191 H 288.523 -6.50821 4.9636 0
M  V30 3192 N 291.186 -0.45159 -1.50991 0
M  V30 3193 C 292.118 0.388634 -2.25881 0
M  V30 3194 C 293.131 0.974041 -1.30446 0
M  V30 3195 O 294.32 0.865758 -1.56099 0
M  V30 3196 C 291.42 1.5571 -3.01011 0
M  V30 3197 C 290.593 1.08801 -4.23652 0
M  V30 3198 C 289.652 2.12825 -4.8124 0
M  V30 3199 O 288.678 1.71678 -5.42693 0
M  V30 3200 N 289.88 3.45453 -4.66522 0
M  V30 3201 H 292.645 -0.25329 -2.98628 0
M  V30 3202 H 290.206 -0.281268 -1.59438 0
M  V30 3203 H 292.198 2.24952 -3.3642 0
M  V30 3204 H 290.768 2.10409 -2.31186 0
M  V30 3205 H 289.988 0.22215 -3.93574 0
M  V30 3206 H 291.276 0.752213 -5.03209 0
M  V30 3207 H 290.674 3.81605 -4.17605 0
M  V30 3208 H 289.231 4.10549 -5.06254 0
M  V30 3209 N 292.664 1.56529 -0.183458 0
M  V30 3210 C 293.889 2.02064 0.467428 0
M  V30 3211 C 294.314 1.06282 1.55196 0
M  V30 3212 O 293.672 0.0443565 1.81246 0
M  V30 3213 C 293.72 3.46122 1.01153 0
M  V30 3214 O 292.824 3.53437 2.12499 0
M  V30 3215 H 292.165 0.654726 0.110588 0
M  V30 3216 H 294.695 2.02521 -0.290917 0
M  V30 3217 H 294.705 3.85676 1.33108 0
M  V30 3218 H 293.38 4.15331 0.217533 0
M  V30 3219 H 291.957 3.2575 1.81497 0
M  V30 3220 N 294.142 -0.090211 1.57342 0
M  V30 3221 C 295.092 -1.11557 1.98844 0
M  V30 3222 C 296.076 -1.35503 0.867624 0
M  V30 3223 O 297.268 -1.36113 1.13148 0
M  V30 3224 C 294.397 -2.43446 2.42051 0
M  V30 3225 C 293.483 -2.22853 3.60828 0
M  V30 3226 N 293.874 -1.72141 4.75606 0
M  V30 3227 C 292.172 -2.53401 3.67021 0
M  V30 3228 C 292.873 -1.65932 5.57531 0
M  V30 3229 N 291.849 -2.11323 5.00843 0
M  V30 3230 H 295.651 -0.716499 2.85032 0
M  V30 3231 H 293.165 -0.297567 1.59651 0
M  V30 3232 H 295.162 -3.17644 2.70014 0
M  V30 3233 H 293.822 -2.84087 1.57241 0
M  V30 3234 H 294.833 -1.41268 4.98261 0
M  V30 3235 H 291.51 -2.97532 2.92884 0
M  V30 3236 H 292.9 -1.27733 6.59647 0
M  V30 3237 N 295.62 -1.53406 -0.361157 0
M  V30 3238 C 296.583 -1.79479 -1.42548 0
M  V30 3239 C 297.583 -0.665327 -1.4639 0
M  V30 3240 O 298.773 -0.933549 -1.47073 0
M  V30 3241 C 295.905 -1.92087 -2.8163 0
M  V30 3242 H 297.098 -2.74538 -1.20701 0
M  V30 3243 H 294.651 -1.4455 -0.594546 0
M  V30 3244 H 295.386 -0.991099 -3.08784 0
M  V30 3245 H 295.171 -2.74241 -2.80239 0
M  V30 3246 H 296.661 -2.13836 -3.58697 0
M  V30 3247 N 297.098 0.621204 -1.44841 0
M  V30 3248 C 298.375 1.38 -1.38619 0
M  V30 3249 C 298.755 2.11041 -0.0498935 0
M  V30 3250 O 298.103 2.06992 0.967816 0
M  V30 3251 C 298.313 2.33817 -2.59096 0
M  V30 3252 C 299.661 2.96844 -3.03593 0
M  V30 3253 O 300.685 2.44141 -2.59371 0
M  V30 3254 O 299.544 3.92476 -3.80296 0
M  V30 3255 H 296.638 0.61811 -0.549426 0
M  V30 3256 H 299.184 0.645429 -1.56947 0
M  V30 3257 H 297.956 1.79012 -3.47952 0
M  V30 3258 H 297.579 3.14676 -2.43032 0
M  V30 3259 N 298.576 1.31904 0.862503 0
M  V30 3260 C 299.804 1.24998 1.64873 0
M  V30 3261 C 300.219 -0.183425 1.87907 0
M  V30 3262 O 299.576 -1.11794 1.44251 0
M  V30 3263 C 299.627 1.99829 3.01248 0
M  V30 3264 O 299.348 3.37575 2.79239 0
M  V30 3265 C 300.849 1.99852 3.95694 0
M  V30 3266 H 298.069 0.431599 0.513773 0
M  V30 3267 H 300.613 1.73901 1.07604 0
M  V30 3268 H 298.768 1.54668 3.55185 0
M  V30 3269 H 299.182 3.75776 3.65914 0
M  V30 3270 H 300.656 2.56709 4.88676 0
M  V30 3271 H 301.133 0.982852 4.28062 0
M  V30 3272 H 301.739 2.44926 3.47694 0
M  V30 3273 N 300.054 -1.07777 1.14986 0
M  V30 3274 C 301.017 -2.13041 0.845358 0
M  V30 3275 C 302.017 -1.60071 -0.152931 0
M  V30 3276 O 303.207 -1.74033 0.0761879 0
M  V30 3277 C 300.339 -3.39896 0.261383 0
M  V30 3278 H 301.532 -2.41485 1.77834 0
M  V30 3279 H 299.085 -1.23595 0.956757 0
M  V30 3280 H 299.82 -3.17091 -0.68 0
M  V30 3281 H 299.605 -3.79642 0.980514 0
M  V30 3282 H 301.095 -4.17548 0.0657687 0
M  V30 3283 N 301.532 -0.945985 -1.26051 0
M  V30 3284 C 302.76 -0.613025 -1.9761 0
M  V30 3285 C 303.175 0.813035 -1.70397 0
M  V30 3286 O 302.532 1.54274 -0.974979 0
M  V30 3287 C 302.583 -0.85159 -3.51326 0
M  V30 3288 O 302.304 -2.22157 -3.77595 0
M  V30 3289 C 303.805 -0.529831 -4.40122 0
M  V30 3290 H 301.025 -0.230593 -0.630133 0
M  V30 3291 H 303.569 -1.268 -1.60443 0
M  V30 3292 H 301.724 -0.243151 -3.86636 0
M  V30 3293 H 302.138 -2.2852 -4.721 0
M  V30 3294 H 303.612 -0.747348 -5.46917 0
M  V30 3295 H 304.089 0.535341 -4.35925 0
M  V30 3296 H 304.695 -1.11721 -4.10364 0
M  V30 3297 N 303.011 1.40521 -0.713556 0
M  V30 3298 C 303.958 2.30723 -0.059684 0
M  V30 3299 C 304.928 1.48079 0.752448 0
M  V30 3300 O 306.113 1.76823 0.71681 0
M  V30 3301 C 303.253 3.34274 0.857594 0
M  V30 3302 C 302.366 4.31986 0.0351536 0
M  V30 3303 C 301.501 5.22605 0.951724 0
M  V30 3304 C 300.54 6.11976 0.123253 0
M  V30 3305 N 299.677 6.9502 0.99459 0
M  V30 3306 H 304.517 2.86074 -0.834596 0
M  V30 3307 H 302.054 1.40879 -0.42326 0
M  V30 3308 H 304.012 3.92879 1.40364 0
M  V30 3309 H 302.642 2.8043 1.59871 0
M  V30 3310 H 301.694 3.7518 -0.628052 0
M  V30 3311 H 303.006 4.95101 -0.606347 0
M  V30 3312 H 302.16 5.86131 1.56638 0
M  V30 3313 H 300.899 4.59759 1.62705 0
M  V30 3314 H 299.904 5.47482 -0.50435 0
M  V30 3315 H 301.129 6.76881 -0.548539 0
M  V30 3316 H 299.075 6.34764 1.6556 0
M  V30 3317 H 298.992 7.54892 0.40908 0
M  V30 3318 H 300.26 7.62997 1.59549 0
M  V30 3319 N 304.489 0.459591 1.5075 0
M  V30 3320 C 305.714 -0.0996819 2.0716 0
M  V30 3321 C 306.139 -1.33761 1.32249 0
M  V30 3322 O 305.497 -1.77551 0.366786 0
M  V30 3323 C 305.545 -0.378226 3.58611 0
M  V30 3324 O 304.649 -1.46081 3.85661 0
M  V30 3325 H 303.99 0.00791392 0.663953 0
M  V30 3326 H 306.52 0.647329 1.9409 0
M  V30 3327 H 306.53 -0.622135 4.03229 0
M  V30 3328 H 305.205 0.526439 4.12555 0
M  V30 3329 H 303.782 -1.20511 3.5289 0
M  V30 3330 N 305.967 -1.56429 0.191757 0
M  V30 3331 C 307.215 -1.97095 -0.447006 0
M  V30 3332 C 307.536 -1.07967 -1.62383 0
M  V30 3333 O 306.806 -0.150248 -1.95323 0
M  V30 3334 H 305.386 -0.727832 -0.168135 0
M  V30 3335 H 308.048 -1.92911 0.27771 0
M  V30 3336 H 307.144 -3.01848 -0.793371 0
M  V30 3337 N 307.445 0.0818655 -1.57387 0
M  V30 3338 C 308.67 0.799946 -1.91352 0
M  V30 3339 C 309.095 1.70833 -0.787258 0
M  V30 3340 O 308.453 1.79419 0.26048 0
M  V30 3341 C 308.501 1.57812 -3.24234 0
M  V30 3342 O 307.605 2.68806 -3.12757 0
M  V30 3343 H 306.946 0.21891 -0.626877 0
M  V30 3344 H 309.476 0.0531256 -2.04531 0
M  V30 3345 H 309.486 1.95952 -3.57864 0
M  V30 3346 H 308.161 0.911548 -4.05788 0
M  V30 3347 H 306.738 2.33597 -2.90666 0
M  V30 3348 N 308.923 1.53595 0.353017 0
M  V30 3349 C 310.151 1.74311 1.1146 0
M  V30 3350 C 310.566 0.477854 1.82653 0
M  V30 3351 O 309.923 -0.549977 1.74016 0
M  V30 3352 C 309.974 2.91694 2.13534 0
M  V30 3353 O 309.695 4.13325 1.45238 0
M  V30 3354 C 311.196 3.24384 3.02142 0
M  V30 3355 H 308.416 0.582669 0.332773 0
M  V30 3356 H 310.96 2.00386 0.408107 0
M  V30 3357 H 309.115 2.67977 2.79763 0
M  V30 3358 H 309.529 4.79148 2.13349 0
M  V30 3359 H 311.003 4.09893 3.69718 0
M  V30 3360 H 311.48 2.40282 3.67643 0
M  V30 3361 H 312.086 3.50073 2.41514 0
M  V30 3362 N 310.401 -0.613514 1.45168 0
M  V30 3363 C 311.629 -1.39946 1.5239 0
M  V30 3364 C 312.044 -1.88167 0.154531 0
M  V30 3365 O 311.401 -1.61872 -0.842843 0
M  V30 3366 C 311.452 -2.60795 2.50337 0
M  V30 3367 O 311.173 -2.1458 3.81952 0
M  V30 3368 C 312.674 -3.53723 2.67198 0
M  V30 3369 H 309.894 -0.428593 0.516284 0
M  V30 3370 H 312.438 -0.748753 1.903 0
M  V30 3371 H 310.593 -3.21919 2.15515 0
M  V30 3372 H 311.007 -2.93055 4.34993 0
M  V30 3373 H 312.481 -4.35079 3.39721 0
M  V30 3374 H 312.958 -4.0368 1.73029 0
M  V30 3375 H 313.564 -2.98456 3.02992 0
M  V30 3376 N 311.879 -1.3236 -0.855495 0
M  V30 3377 C 312.826 -1.21225 -1.964 0
M  V30 3378 C 313.796 -0.0946204 -1.6583 0
M  V30 3379 O 314.981 -0.27002 -1.8888 0
M  V30 3380 C 312.121 -0.940419 -3.32039 0
M  V30 3381 C 311.234 -2.14276 -3.75113 0
M  V30 3382 C 310.369 -1.80648 -4.9954 0
M  V30 3383 C 309.408 -2.97208 -5.35102 0
M  V30 3384 N 308.545 -2.63678 -6.50706 0
M  V30 3385 H 313.385 -2.16042 -2.05255 0
M  V30 3386 H 310.922 -1.07451 -1.00463 0
M  V30 3387 H 312.88 -0.763311 -4.10158 0
M  V30 3388 H 311.51 -0.0290413 -3.22787 0
M  V30 3389 H 310.562 -2.43017 -2.92655 0
M  V30 3390 H 311.874 -3.01468 -3.97389 0
M  V30 3391 H 311.028 -1.59484 -5.85363 0
M  V30 3392 H 309.767 -0.906678 -4.79198 0
M  V30 3393 H 308.772 -3.19004 -4.47791 0
M  V30 3394 H 309.997 -3.87918 -5.57401 0
M  V30 3395 H 307.943 -1.76238 -6.31883 0
M  V30 3396 H 307.86 -3.444 -6.72997 0
M  V30 3397 H 309.128 -2.45942 -7.39684 0
M  V30 3398 N 313.357 1.07166 -1.15556 0
M  V30 3399 C 314.305 2.16517 -0.8499 0
M  V30 3400 C 315.299 1.68468 0.177454 0
M  V30 3401 O 316.505 1.79971 0.0323026 0
M  V30 3402 H 312.88 0.706652 -0.25719 0
M  V30 3403 H 314.851 2.39514 -1.77976 0
M  V30 3404 C 313.6 3.45855 -0.357682 0
M  V30 3405 H 312.923 3.83214 -1.13961 0
M  V30 3406 H 314.363 4.23607 -0.182489 0
M  V30 3407 C 312.822 3.24062 0.921152 0
M  V30 3408 O 313.352 3.48813 1.9923 0
M  V30 3409 N 311.558 2.77539 0.86141 0
M  V30 3410 H 311.105 2.57598 -0.0104408 0
M  V30 3411 H 311.063 2.63337 1.71758 0
M  V30 3412 N 314.835 0.952656 1.25548 0
M  V30 3413 C 316.251 0.656769 1.4546 0
M  V30 3414 C 316.451 -0.78633 1.85524 0
M  V30 3415 O 315.507 -1.56183 1.98402 0
M  V30 3416 C 316.82 1.62801 2.52817 0
M  V30 3417 C 318.368 1.63897 2.66659 0
M  V30 3418 C 318.843 2.5978 3.77198 0
M  V30 3419 N 320.334 2.58133 3.84606 0
M  V30 3420 C 321.069 3.29003 4.69621 0
M  V30 3421 N 320.565 4.09339 5.58939 0
M  V30 3422 N 322.358 3.179 4.63569 0
M  V30 3423 H 314.509 1.88526 0.978344 0
M  V30 3424 H 316.772 0.810815 0.491206 0
M  V30 3425 H 316.478 2.65869 2.30232 0
M  V30 3426 H 316.352 1.38898 3.50695 0
M  V30 3427 H 318.739 0.615481 2.8861 0
M  V30 3428 H 318.82 1.91858 1.69187 0
M  V30 3429 H 318.464 3.62254 3.55997 0
M  V30 3430 H 318.394 2.29105 4.7415 0
M  V30 3431 H 320.885 1.99809 3.20757 0
M  V30 3432 H 321.198 4.6034 6.20731 0
M  V30 3433 H 319.543 4.13438 5.58654 0
M  V30 3434 H 322.734 2.54612 3.92798 0
M  V30 3435 H 322.907 3.73398 5.29602 0
M  V30 3436 N 316.313 -1.40141 0.720998 0
M  V30 3437 C 317.56 -2.00787 0.262842 0
M  V30 3438 C 317.888 -1.5718 -1.14563 0
M  V30 3439 O 317.143 -0.785391 -1.79249 0
M  V30 3440 C 317.442 -3.56165 0.296892 0
M  V30 3441 C 317.108 -4.19373 1.65641 0
M  V30 3442 C 315.77 -4.36352 2.02855 0
M  V30 3443 C 318.122 -4.54578 2.54968 0
M  V30 3444 C 315.45 -4.8582 3.28931 0
M  V30 3445 C 317.802 -5.05447 3.80402 0
M  V30 3446 C 316.466 -5.20635 4.17726 0
M  V30 3447 H 315.736 -0.734731 0.0961807 0
M  V30 3448 H 318.383 -1.67673 0.925093 0
M  V30 3449 H 316.688 -3.8922 -0.448932 0
M  V30 3450 H 318.385 -4.00929 -0.0755208 0
M  V30 3451 H 314.975 -4.06549 1.35704 0
M  V30 3452 H 319.159 -4.41091 2.27491 0
M  V30 3453 H 314.415 -4.95764 3.57811 0
M  V30 3454 H 318.589 -5.31663 4.49786 0
M  V30 3455 H 316.216 -5.58728 5.15487 0
M  V30 3456 N 317.792 -0.46758 -1.50504 0
M  V30 3457 C 319.038 0.0887532 -2.02606 0
M  V30 3458 C 319.371 1.39686 -1.34913 0
M  V30 3459 O 318.646 1.88644 -0.473694 0
M  V30 3460 C 318.929 0.276206 -3.59039 0
M  V30 3461 C 318.782 -1.05267 -4.37309 0
M  V30 3462 C 320.101 1.03235 -4.27821 0
M  V30 3463 H 317.22 0.0307814 -0.736357 0
M  V30 3464 H 319.862 -0.612485 -1.79857 0
M  V30 3465 H 318.012 0.8735 -3.78553 0
M  V30 3466 H 319.684 -1.68628 -4.29374 0
M  V30 3467 H 317.927 -1.65015 -4.01189 0
M  V30 3468 H 318.598 -0.875197 -5.45018 0
M  V30 3469 H 321.074 0.526111 -4.12761 0
M  V30 3470 H 319.95 1.1323 -5.37094 0
M  V30 3471 H 320.211 2.06806 -3.90748 0
M  V30 3472 N 319.27 1.56325 -0.20005 0
M  V30 3473 C 320.516 1.98012 0.438059 0
M  V30 3474 C 320.849 1.08702 1.60927 0
M  V30 3475 O 320.124 0.140064 1.93995 0
M  V30 3476 C 320.407 3.48841 0.893419 0
M  V30 3477 C 320.26 4.48928 -0.279947 0
M  V30 3478 C 321.579 4.03498 1.75719 0
M  V30 3479 H 318.698 0.719918 0.157757 0
M  V30 3480 H 321.34 1.87743 -0.291968 0
M  V30 3481 H 319.49 3.57723 1.51547 0
M  V30 3482 H 321.162 4.52079 -0.91772 0
M  V30 3483 H 319.405 4.23694 -0.930919 0
M  V30 3484 H 320.076 5.5194 0.0812601 0
M  V30 3485 H 322.552 3.97427 1.23253 0
M  V30 3486 H 321.428 5.09393 2.04476 0
M  V30 3487 H 321.689 3.4906 2.71311 0
M  V30 3488 O 320.787 0.0630897 1.61377 0
M  V30 3489 H 321.478 -0.544463 1.85891 0
M  V30 END ATOM
M  V30 BEGIN BOND
M  V30 END BOND
M  V30 END CTAB
M  END
$$$$
