drugbank_target|P34896 Serine hydroxymethyltransferase, cytosolic (DB00114; DB00116; DB00145; DB01055; DB02067; DB02800; DB02824)
 OpenBabel12092119293D

  0  0  0     0  0            999 V3000
M  V30 BEGIN CTAB
M  V30 COUNTS 7455 7532 0 0 0
M  V30 BEGIN ATOM
M  V30 1 H -0.908 1.98254 -0.117106 0
M  V30 2 N 0 1.576 0 0
M  V30 3 C 0.933 2.03868 1.02534 0
M  V30 4 C 1.911 0.928543 1.3348 0
M  V30 5 O 3.095 1.19667 1.45644 0
M  V30 6 C 0.222 2.43627 2.35294 0
M  V30 7 C -0.732 3.65373 2.2001 0
M  V30 8 S 0.101 5.13292 1.52614 0
M  V30 9 C 1.257 5.56322 2.86805 0
M  V30 10 H 1.49 2.90518 0.631377 0
M  V30 11 H -0.977 1.52953 0.210867 0
M  V30 12 H 0.981 2.67203 3.11629 0
M  V30 13 H -0.358 1.57376 2.7183 0
M  V30 14 H -1.165 3.90944 3.18086 0
M  V30 15 H -1.563 3.418 1.51819 0
M  V30 16 H 0.729 5.58782 3.83104 0
M  V30 17 H 1.672 6.56266 2.65933 0
M  V30 18 H 2.08 4.83886 2.90714 0
M  V30 19 N 1.4781 -0.272755 1.55222 0
M  V30 20 C 2.7061 -1.02255 1.79865 0
M  V30 21 C 3.1211 -1.79924 0.572088 0
M  V30 22 O 2.4781 -1.76638 -0.458842 0
M  V30 23 C 2.5291 -1.98094 3.02392 0
M  V30 24 O 2.2501 -1.23572 4.20311 0
M  V30 25 C 3.7511 -2.84884 3.39641 0
M  V30 26 H 0.9711 -0.302057 0.599168 0
M  V30 27 H 3.5151 -0.303465 2.02236 0
M  V30 28 H 1.6701 -2.65465 2.82147 0
M  V30 29 H 2.0841 -1.88172 4.89583 0
M  V30 30 H 3.5581 -3.47927 4.28545 0
M  V30 31 H 4.0351 -3.54665 2.59055 0
M  V30 32 H 4.6411 -2.23003 3.62146 0
M  V30 33 N 2.9562 -1.48159 -0.537278 0
M  V30 34 C 3.8892 -1.567 -1.65893 0
M  V30 35 C 4.8672 -0.41787 -1.57139 0
M  V30 36 O 6.0512 -0.628461 -1.77715 0
M  V30 37 C 3.1782 -1.48818 -3.04255 0
M  V30 38 C 2.2242 -2.68482 -3.31391 0
M  V30 39 S 3.0572 -4.30516 -3.1846 0
M  V30 40 C 4.2132 -4.2522 -4.59281 0
M  V30 41 H 4.4462 -2.5159 -1.58397 0
M  V30 42 H 1.9792 -1.36602 -0.719672 0
M  V30 43 H 3.9372 -1.44958 -3.84054 0
M  V30 44 H 2.5982 -0.552777 -3.09198 0
M  V30 45 H 1.7912 -2.59085 -4.32309 0
M  V30 46 H 1.3932 -2.69567 -2.59248 0
M  V30 47 H 3.6852 -3.94703 -5.5065 0
M  V30 48 H 4.6282 -5.26292 -4.73732 0
M  V30 49 H 5.0362 -3.55791 -4.38261 0
M  V30 50 N 4.4343 0.785586 -1.36625 0
M  V30 51 C 5.8453 1.36101 -1.27803 0
M  V30 52 C 6.1963 1.96035 0.0804875 0
M  V30 53 O 5.3213 1.92834 0.982042 0
M  V30 54 C 5.9163 2.47442 -2.31426 0
M  V30 55 C 4.4753 3.00789 -2.26281 0
M  V30 56 C 3.6223 1.73896 -2.15999 0
M  V30 57 H 6.5733 0.586928 -1.47448 0
M  V30 58 H 6.5943 3.2656 -1.95291 0
M  V30 59 H 6.1063 2.03791 -3.30289 0
M  V30 60 H 4.2073 3.48851 -1.30896 0
M  V30 61 H 4.3203 3.57343 -3.19128 0
M  V30 62 H 2.6843 1.9628 -1.62316 0
M  V30 63 H 3.4673 1.32368 -3.16755 0
M  V30 64 N 5.9124 1.20967 1.01018 0
M  V30 65 C 7.1584 1.02526 1.74975 0
M  V30 66 C 7.4914 -0.4408 1.89131 0
M  V30 67 O 6.7664 -1.32718 1.42184 0
M  V30 68 C 7.0494 1.71699 3.1653 0
M  V30 69 C 6.9024 3.25791 3.10129 0
M  V30 70 C 8.2214 1.45531 4.15342 0
M  V30 71 H 5.3404 0.373863 0.635134 0
M  V30 72 H 7.9824 1.49071 1.17805 0
M  V30 73 H 6.1324 1.32128 3.65341 0
M  V30 74 H 7.8044 3.74697 2.69072 0
M  V30 75 H 6.0474 3.56363 2.47362 0
M  V30 76 H 6.7184 3.69353 4.10222 0
M  V30 77 H 9.1944 1.79872 3.75213 0
M  V30 78 H 8.0704 1.96453 5.1254 0
M  V30 79 H 8.3314 0.384237 4.40427 0
M  V30 80 N 7.3905 -1.2043 1.01659 0
M  V30 81 C 8.3385 -2.25249 0.580143 0
M  V30 82 C 9.3325 -1.65057 -0.381115 0
M  V30 83 O 10.5385 -1.78241 -0.251039 0
M  V30 84 H 6.9135 -0.732695 0.169299 0
M  V30 85 H 8.8845 -2.59389 1.47512 0
M  V30 86 C 7.6335 -3.47638 -0.065788 0
M  V30 87 H 6.9565 -3.94233 0.664874 0
M  V30 88 H 8.3965 -4.2268 -0.334282 0
M  V30 89 C 6.8555 -3.10447 -1.3086 0
M  V30 90 O 7.3855 -3.21981 -2.4019 0
M  V30 91 N 5.5915 -2.64996 -1.1927 0
M  V30 92 H 5.1385 -2.55811 -0.303064 0
M  V30 93 H 5.0965 -2.40482 -2.02523 0
M  V30 94 N 8.8686 -0.792821 -1.36206 0
M  V30 95 C 10.1166 -0.366062 -1.98757 0
M  V30 96 C 10.4376 1.0668 -1.63231 0
M  V30 97 O 9.7076 1.73587 -0.907978 0
M  V30 98 H 8.2876 -0.132364 -0.735179 0
M  V30 99 H 10.9496 -1.01562 -1.66347 0
M  V30 100 H 10.0456 -0.460638 -3.08682 0
M  V30 101 N 10.3467 1.47872 -0.545128 0
M  V30 102 C 11.3097 2.28337 0.198717 0
M  V30 103 C 12.3097 1.36255 0.853888 0
M  V30 104 O 13.4997 1.59003 0.711606 0
M  V30 105 C 10.6317 3.15585 1.28915 0
M  V30 106 H 11.8247 2.95567 -0.507941 0
M  V30 107 H 9.3777 1.53362 -0.301616 0
M  V30 108 H 10.1127 2.53019 2.02859 0
M  V30 109 H 9.8977 3.83337 0.824309 0
M  V30 110 H 11.3877 3.76243 1.81194 0
M  V30 111 N 11.8248 0.280983 1.55075 0
M  V30 112 C 12.7748 -0.618585 2.19448 0
M  V30 113 C 13.7588 -1.11401 1.16098 0
M  V30 114 O 14.9508 -1.0581 1.41891 0
M  V30 115 C 12.0798 -1.79951 2.92357 0
M  V30 116 C 11.1658 -1.321 4.03002 0
M  V30 117 N 11.5568 -0.559044 5.02701 0
M  V30 118 C 9.8548 -1.60346 4.16179 0
M  V30 119 C 10.5558 -0.306722 5.80891 0
M  V30 120 N 9.5318 -0.880825 5.36416 0
M  V30 121 H 13.3338 -0.0286638 2.93886 0
M  V30 122 H 10.8478 0.0848104 1.62178 0
M  V30 123 H 12.8448 -2.45531 3.36927 0
M  V30 124 H 11.5048 -2.39333 2.19431 0
M  V30 125 H 12.5158 -0.205827 5.17491 0
M  V30 126 H 9.1928 -2.20621 3.54447 0
M  V30 127 H 10.5828 0.30391 6.71212 0
M  V30 128 N 13.3029 -1.57598 0.00835791 0
M  V30 129 C 14.2499 -2.08945 -0.980346 0
M  V30 130 C 15.2199 -0.986738 -1.33614 0
M  V30 131 O 16.4049 -1.25968 -1.43306 0
M  V30 132 C 13.5449 -2.60425 -2.26435 0
M  V30 133 C 12.6579 -3.84628 -1.96685 0
M  V30 134 C 11.7929 -4.24579 -3.19228 0
M  V30 135 C 10.8319 -5.41596 -2.85202 0
M  V30 136 N 9.9689 -5.768 -4.00307 0
M  V30 137 H 14.8089 -2.93148 -0.535551 0
M  V30 138 H 12.3459 -1.44912 -0.252776 0
M  V30 139 H 14.3039 -2.88354 -3.01509 0
M  V30 140 H 12.9339 -1.79083 -2.68568 0
M  V30 141 H 11.9859 -3.63556 -1.11942 0
M  V30 142 H 13.2979 -4.69796 -1.67611 0
M  V30 143 H 12.4519 -4.53834 -4.02641 0
M  V30 144 H 11.1909 -3.38137 -3.51447 0
M  V30 145 H 10.1959 -5.12056 -2.00198 0
M  V30 146 H 11.4209 -6.29721 -2.54222 0
M  V30 147 H 9.3669 -4.93316 -4.32407 0
M  V30 148 H 9.2839 -6.5656 -3.74786 0
M  V30 149 H 10.5519 -6.10652 -4.84484 0
M  V30 150 N 14.781 0.264519 -1.55364 0
M  V30 151 C 16.058 1.01677 -1.67096 0
M  V30 152 C 16.438 2.03996 -0.543015 0
M  V30 153 O 15.786 2.23907 0.45585 0
M  V30 154 C 15.996 1.66596 -3.0667 0
M  V30 155 C 17.344 2.17442 -3.64697 0
M  V30 156 O 18.368 1.76568 -3.09358 0
M  V30 157 O 17.227 2.92439 -4.61673 0
M  V30 158 H 14.321 0.472161 -0.678965 0
M  V30 159 H 16.867 0.259703 -1.67701 0
M  V30 160 H 15.639 0.924962 -3.80211 0
M  V30 161 H 15.262 2.48968 -3.10001 0
M  V30 162 N 16.2591 1.48442 0.529413 0
M  V30 163 C 17.2221 1.62524 1.61612 0
M  V30 164 C 18.2221 0.498509 1.52877 0
M  V30 165 O 19.4121 0.76431 1.56537 0
M  V30 166 C 16.5441 1.59597 3.01233 0
M  V30 167 H 17.7371 2.59423 1.50465 0
M  V30 168 H 15.2901 1.37047 0.751514 0
M  V30 169 H 16.0251 0.641781 3.17886 0
M  V30 170 H 15.8101 2.41397 3.08982 0
M  V30 171 H 17.3001 1.72646 3.80241 0
M  V30 172 N 17.7372 -0.778329 1.37039 0
M  V30 173 C 19.0142 -1.52551 1.22424 0
M  V30 174 C 19.3942 -2.10288 -0.184964 0
M  V30 175 O 18.7422 -1.94953 -1.19187 0
M  V30 176 C 18.9522 -2.61164 2.31504 0
M  V30 177 C 20.3002 -3.28746 2.68721 0
M  V30 178 O 21.3242 -2.71455 2.30631 0
M  V30 179 O 20.1832 -4.3231 3.3432 0
M  V30 180 H 17.2772 -0.675343 0.477326 0
M  V30 181 H 19.8232 -0.815859 1.48801 0
M  V30 182 H 18.5952 -2.16574 3.25901 0
M  V30 183 H 18.2182 -3.39737 2.06554 0
M  V30 184 N 19.2153 -1.21501 -1.00376 0
M  V30 185 C 20.1453 -0.999478 -2.11028 0
M  V30 186 C 21.1263 0.0759671 -1.6993 0
M  V30 187 O 22.3113 -0.0841106 -1.94018 0
M  V30 188 C 19.4413 -0.564709 -3.42678 0
M  V30 189 C 18.3953 -1.58486 -3.97576 0
M  V30 190 C 17.7213 -1.00628 -5.25146 0
M  V30 191 C 19.0213 -2.97204 -4.29496 0
M  V30 192 H 20.7153 -1.92495 -2.29317 0
M  V30 193 H 18.2613 -0.92693 -1.102 0
M  V30 194 H 20.2143 -0.401091 -4.19487 0
M  V30 195 H 18.9383 0.396411 -3.24185 0
M  V30 196 H 17.5973 -1.73606 -3.22888 0
M  V30 197 H 17.2453 -0.0368439 -5.02987 0
M  V30 198 H 16.9453 -1.68771 -5.62841 0
M  V30 199 H 18.4693 -0.854015 -6.04598 0
M  V30 200 H 19.8833 -2.8552 -4.97143 0
M  V30 201 H 18.2803 -3.62372 -4.78338 0
M  V30 202 H 19.3503 -3.47956 -3.3772 0
M  V30 203 N 20.6934 1.19889 -1.02296 0
M  V30 204 C 21.9394 1.89973 -0.726759 0
M  V30 205 C 22.2944 1.7776 0.73614 0
M  V30 206 O 21.5874 1.15523 1.52856 0
M  V30 207 C 21.7814 3.39883 -1.10518 0
M  V30 208 C 21.6104 3.66684 -2.60332 0
M  V30 209 C 20.3804 3.85045 -3.27213 0
M  V30 210 C 22.5784 3.68727 -3.58532 0
M  V30 211 N 20.5604 3.99422 -4.66192 0
M  V30 212 C 21.9314 3.88604 -4.83101 0
M  V30 213 C 23.9864 3.51722 -3.52414 0
M  V30 214 C 22.6894 3.9324 -6.02292 0
M  V30 215 C 24.7154 3.57632 -4.71013 0
M  V30 216 C 24.0774 3.77988 -5.94394 0
M  V30 217 H 20.1764 0.714551 -0.317712 0
M  V30 218 H 22.7604 1.44123 -1.30907 0
M  V30 219 H 20.9314 3.8447 -0.551142 0
M  V30 220 H 22.6634 3.97464 -0.761853 0
M  V30 221 H 19.4184 3.83689 -2.77632 0
M  V30 222 H 19.8424 4.10473 -5.38368 0
M  V30 223 H 24.4844 3.34945 -2.58015 0
M  V30 224 H 22.2024 4.08811 -6.97065 0
M  V30 225 H 25.7884 3.45773 -4.67902 0
M  V30 226 H 24.6684 3.82428 -6.8463 0
M  V30 227 N 22.1715 0.800033 1.35784 0
M  V30 228 C 23.3965 0.388511 2.03729 0
M  V30 229 C 23.8215 -0.990481 1.5991 0
M  V30 230 O 23.1795 -1.64013 0.772612 0
M  V30 231 C 23.2275 0.4726 3.5749 0
M  V30 232 O 22.3315 -0.51646 4.09153 0
M  V30 233 H 21.6725 0.163271 0.643614 0
M  V30 234 H 24.2025 1.0841 1.73518 0
M  V30 235 H 24.2125 0.34003 4.06581 0
M  V30 236 H 22.8875 1.47848 3.88734 0
M  V30 237 H 21.4645 -0.344673 3.71304 0
M  V30 238 N 23.6496 -1.47581 0.552962 0
M  V30 239 C 24.8746 -2.07378 0.0300593 0
M  V30 240 C 25.2996 -1.40355 -1.25229 0
M  V30 241 O 24.6576 -0.477099 -1.7491 0
M  V30 242 C 24.7056 -3.60274 -0.153231 0
M  V30 243 O 23.8096 -3.94041 -1.21678 0
M  V30 244 H 23.1506 -0.662158 0.0494182 0
M  V30 245 H 25.6806 -1.89662 0.767434 0
M  V30 246 H 25.6906 -4.0633 -0.368761 0
M  V30 247 H 24.3656 -4.08455 0.783397 0
M  V30 248 H 22.9426 -3.59735 -0.982079 0
M  V30 249 N 25.1277 -0.289203 -1.54924 0
M  V30 250 C 26.0777 0.606939 -2.19773 0
M  V30 251 C 27.0617 1.10783 -1.16687 0
M  V30 252 O 28.2537 1.05057 -1.4245 0
M  V30 253 C 25.3827 1.78398 -2.93307 0
M  V30 254 C 24.4687 1.29961 -4.03697 0
M  V30 255 N 24.8597 0.532377 -5.0299 0
M  V30 256 C 23.1577 1.58136 -4.17024 0
M  V30 257 C 23.8587 0.275912 -5.81045 0
M  V30 258 N 22.8347 0.852365 -5.36876 0
M  V30 259 H 26.6367 0.0130779 -2.93897 0
M  V30 260 H 24.1507 -0.09341 -1.62131 0
M  V30 261 H 26.1477 2.43741 -3.38225 0
M  V30 262 H 24.8077 2.38166 -2.20697 0
M  V30 263 H 25.8187 0.17838 -5.17593 0
M  V30 264 H 22.4957 2.18738 -3.55612 0
M  V30 265 H 23.8857 -0.339502 -6.71042 0
M  V30 266 N 26.6058 1.57591 -0.0167156 0
M  V30 267 C 27.8828 1.82547 0.702564 0
M  V30 268 C 28.2628 0.898018 1.91047 0
M  V30 269 O 27.6108 -0.0493456 2.28447 0
M  V30 270 C 27.8208 3.31459 1.09251 0
M  V30 271 C 29.1688 3.97622 1.48937 0
M  V30 272 O 30.1928 3.35881 1.18584 0
M  V30 273 O 29.0518 5.06415 2.05442 0
M  V30 274 H 26.1458 0.752268 0.343544 0
M  V30 275 H 28.6918 1.69644 -0.0434495 0
M  V30 276 H 27.4638 3.9061 0.23227 0
M  V30 277 H 27.0868 3.49422 1.89709 0
M  V30 278 N 28.0839 -0.256276 1.55502 0
M  V30 279 C 29.0309 -1.31714 1.89526 0
M  V30 280 C 30.0009 -1.4828 0.748479 0
M  V30 281 O 31.1859 -1.62416 1.00128 0
M  V30 282 C 28.3259 -2.66933 2.18725 0
M  V30 283 C 27.4389 -2.58452 3.4616 0
M  V30 284 C 26.5739 -3.85961 3.64976 0
M  V30 285 C 25.6129 -3.72059 4.86044 0
M  V30 286 N 24.7499 -4.9144 5.01429 0
M  V30 287 H 29.5899 -1.01998 2.80001 0
M  V30 288 H 27.1269 -0.492413 1.38613 0
M  V30 289 H 29.0849 -3.4563 2.33657 0
M  V30 290 H 27.7149 -2.94816 1.31466 0
M  V30 291 H 26.7669 -1.71374 3.3961 0
M  V30 292 H 28.0789 -2.44085 4.34999 0
M  V30 293 H 27.2329 -4.73101 3.79816 0
M  V30 294 H 25.9719 -4.03215 2.74353 0
M  V30 295 H 24.9769 -2.83302 4.7119 0
M  V30 296 H 26.2019 -3.56309 5.78118 0
M  V30 297 H 24.1479 -5.09072 4.13741 0
M  V30 298 H 24.0649 -4.79668 5.84341 0
M  V30 299 H 25.3329 -5.80104 5.20672 0
M  V30 300 N 29.562 -1.4872 -0.521534 0
M  V30 301 C 30.495 -1.58451 -1.64221 0
M  V30 302 C 31.473 -0.434513 -1.56687 0
M  V30 303 O 32.657 -0.647275 -1.77038 0
M  V30 304 C 29.784 -1.52037 -3.02659 0
M  V30 305 C 28.83 -2.71981 -3.28525 0
M  V30 306 S 29.663 -4.33869 -3.13876 0
M  V30 307 C 30.819 -4.30067 -4.54745 0
M  V30 308 H 31.052 -2.53256 -1.55719 0
M  V30 309 H 28.585 -1.37358 -0.705143 0
M  V30 310 H 30.543 -1.49023 -3.82495 0
M  V30 311 H 29.204 -0.585541 -3.08594 0
M  V30 312 H 28.397 -2.63656 -4.29536 0
M  V30 313 H 27.999 -2.72302 -2.56374 0
M  V30 314 H 30.291 -4.00521 -5.46433 0
M  V30 315 H 31.234 -5.31287 -4.68123 0
M  V30 316 H 31.642 -3.60419 -4.34463 0
M  V30 317 N 31.0401 0.771051 -1.3745 0
M  V30 318 C 31.9701 1.89827 -1.3597 0
M  V30 319 C 32.9511 1.68562 -0.228216 0
M  V30 320 O 34.1361 1.8941 -0.428675 0
M  V30 321 C 31.2661 3.2712 -1.16662 0
M  V30 322 C 30.2201 3.6295 -2.2683 0
M  V30 323 C 29.5461 4.98791 -1.92644 0
M  V30 324 C 30.8461 3.69627 -3.69017 0
M  V30 325 H 32.5401 1.91323 -2.30295 0
M  V30 326 H 30.0861 0.919082 -1.10855 0
M  V30 327 H 32.0391 4.05615 -1.14256 0
M  V30 328 H 30.7631 3.26059 -0.187926 0
M  V30 329 H 29.4221 2.86763 -2.28392 0
M  V30 330 H 29.0701 4.94271 -0.933021 0
M  V30 331 H 28.7701 5.23733 -2.66416 0
M  V30 332 H 30.2941 5.79685 -1.91826 0
M  V30 333 H 31.7081 4.38273 -3.69581 0
M  V30 334 H 30.1051 4.06067 -4.41848 0
M  V30 335 H 31.1751 2.70273 -4.02592 0
M  V30 336 N 32.5182 1.22032 0.997298 0
M  V30 337 C 33.4812 0.987909 2.06816 0
M  V30 338 C 34.4812 -0.0440084 1.6074 0
M  V30 339 O 35.6712 0.194053 1.73116 0
M  V30 340 C 32.8032 0.49132 3.37341 0
M  V30 341 H 33.9962 1.93803 2.28868 0
M  V30 342 H 31.5492 1.03838 1.16822 0
M  V30 343 H 32.2842 -0.463364 3.20973 0
M  V30 344 H 32.0692 1.23575 3.72118 0
M  V30 345 H 33.5592 0.348824 4.16141 0
M  V30 346 N 33.9963 -1.19345 1.0293 0
M  V30 347 C 34.9283 -2.22036 0.56857 0
M  V30 348 C 35.9413 -1.58865 -0.355779 0
M  V30 349 O 37.1303 -1.77851 -0.152103 0
M  V30 350 C 34.2303 -3.38363 -0.190752 0
M  V30 351 C 33.4033 -4.31118 0.738643 0
M  V30 352 C 32.4623 -5.26194 0.0246497 0
M  V30 353 O 31.4883 -5.65461 0.651354 0
M  V30 354 N 32.6903 -5.66971 -1.24594 0
M  V30 355 H 35.4553 -2.6219 1.45177 0
M  V30 356 H 33.0163 -1.34015 0.908381 0
M  V30 357 H 35.0083 -3.98981 -0.677961 0
M  V30 358 H 33.5783 -2.96994 -0.975366 0
M  V30 359 H 32.7983 -3.68276 1.40593 0
M  V30 360 H 34.0863 -4.90001 1.37029 0
M  V30 361 H 33.4843 -5.37104 -1.77583 0
M  V30 362 H 32.0413 -6.2984 -1.67764 0
M  V30 363 N 35.4744 -0.807222 -1.35358 0
M  V30 364 C 36.8854 -0.44876 -1.81226 0
M  V30 365 C 37.2364 1.02929 -1.67033 0
M  V30 366 O 36.3614 1.79991 -1.20133 0
M  V30 367 C 36.9564 -0.807774 -3.2903 0
M  V30 368 C 35.5154 -0.501901 -3.73039 0
M  V30 369 C 34.6624 -1.03304 -2.57339 0
M  V30 370 H 37.6134 -0.998808 -1.23327 0
M  V30 371 H 37.6344 -0.10554 -3.80354 0
M  V30 372 H 37.1464 -1.88357 -3.39328 0
M  V30 373 H 35.2474 0.565128 -3.68289 0
M  V30 374 H 35.3604 -1.03497 -4.67787 0
M  V30 375 H 33.7244 -0.455339 -2.50597 0
M  V30 376 H 34.5074 -2.11496 -2.70415 0
M  V30 377 N 36.9525 1.47285 -0.560781 0
M  V30 378 C 37.8825 2.32857 0.173105 0
M  V30 379 C 38.8635 1.44009 0.905281 0
M  V30 380 O 40.0485 1.7286 0.885046 0
M  V30 381 C 37.1785 3.25861 1.20133 0
M  V30 382 C 36.1325 4.23978 0.585388 0
M  V30 383 C 35.4585 5.06332 1.7185 0
M  V30 384 C 36.7585 5.20242 -0.463178 0
M  V30 385 H 38.4525 2.94466 -0.541307 0
M  V30 386 H 35.9985 1.41601 -0.261764 0
M  V30 387 H 37.9515 3.84569 1.72293 0
M  V30 388 H 36.6755 2.62315 1.94573 0
M  V30 389 H 35.3345 3.66501 0.085054 0
M  V30 390 H 34.9825 4.39186 2.45203 0
M  V30 391 H 34.6825 5.72762 1.31213 0
M  V30 392 H 36.2065 5.67899 2.24329 0
M  V30 393 H 37.6205 5.73293 -0.027502 0
M  V30 394 H 36.0175 5.94896 -0.788627 0
M  V30 395 H 37.0875 4.65504 -1.35773 0
M  V30 396 N 38.4306 0.297415 1.54768 0
M  V30 397 C 39.3776 -0.580276 2.23386 0
M  V30 398 C 40.3476 -1.13238 1.21517 0
M  V30 399 O 41.5326 -1.17757 1.50126 0
M  V30 400 C 38.6726 -1.74801 2.97555 0
M  V30 401 C 37.7856 -1.22764 4.1419 0
M  V30 402 C 36.9206 -2.35895 4.75949 0
M  V30 403 C 35.9596 -1.80974 5.84735 0
M  V30 404 N 35.0966 -2.87664 6.40464 0
M  V30 405 H 39.9366 0.0114833 2.97998 0
M  V30 406 H 37.4736 0.0174361 1.4709 0
M  V30 407 H 39.4316 -2.43475 3.38786 0
M  V30 408 H 38.0616 -2.31145 2.25326 0
M  V30 409 H 37.1136 -0.433271 3.77924 0
M  V30 410 H 38.4256 -0.785551 4.92575 0
M  V30 411 H 37.5796 -3.12523 5.20014 0
M  V30 412 H 36.3186 -2.83429 3.96887 0
M  V30 413 H 35.3236 -1.02834 5.40097 0
M  V30 414 H 36.5486 -1.34348 6.65678 0
M  V30 415 H 34.4946 -3.34538 5.64287 0
M  V30 416 H 34.4116 -2.4794 7.14186 0
M  V30 417 H 35.6796 -3.642 6.89187 0
M  V30 418 N 39.9087 -1.5758 0.0250728 0
M  V30 419 C 41.1857 -1.82917 -0.692873 0
M  V30 420 C 41.5657 -0.908137 -1.90568 0
M  V30 421 O 40.9137 0.0372298 -2.2847 0
M  V30 422 C 41.1237 -3.32034 -1.07492 0
M  V30 423 C 42.4717 -3.98406 -1.46826 0
M  V30 424 O 43.4957 -3.36505 -1.16801 0
M  V30 425 O 42.3547 -5.07497 -2.02754 0
M  V30 426 H 39.4487 -0.754079 -0.33955 0
M  V30 427 H 41.9947 -1.69619 0.0524456 0
M  V30 428 H 40.7667 -3.90728 -0.211552 0
M  V30 429 H 40.3897 -3.50424 -1.87854 0
M  V30 430 N 41.3868 0.248026 -1.55636 0
M  V30 431 C 42.6118 0.998028 -1.81808 0
M  V30 432 C 43.0368 1.78207 -0.601979 0
M  V30 433 O 42.3948 1.75653 0.448961 0
M  V30 434 C 42.4428 1.9125 -3.05705 0
M  V30 435 O 41.5468 3.00406 -2.82542 0
M  V30 436 H 40.8878 0.284045 -0.600179 0
M  V30 437 H 43.4178 0.269357 -2.02819 0
M  V30 438 H 43.4278 2.32737 -3.35108 0
M  V30 439 H 42.1028 1.33602 -3.93857 0
M  V30 440 H 40.6798 2.63056 -2.64303 0
M  V30 441 N 42.8649 1.48995 0.513639 0
M  V30 442 C 44.1419 1.48338 1.27495 0
M  V30 443 C 44.5219 0.204065 2.10111 0
M  V30 444 O 43.8699 -0.813881 2.13514 0
M  V30 445 C 44.0799 2.75498 2.14247 0
M  V30 446 C 45.4279 3.24484 2.73852 0
M  V30 447 O 46.4519 2.76528 2.24523 0
M  V30 448 O 45.3109 4.07974 3.6362 0
M  V30 449 H 42.4049 0.593149 0.576284 0
M  V30 450 H 44.9509 1.61246 0.528948 0
M  V30 451 H 43.7229 3.60109 1.53092 0
M  V30 452 H 43.3459 2.6539 2.96064 0
M  V30 453 N 44.343 -0.763751 1.37857 0
M  V30 454 C 45.589 -1.52483 1.33704 0
M  V30 455 C 45.922 -1.94051 -0.0759612 0
M  V30 456 O 45.197 -1.64675 -1.03501 0
M  V30 457 C 45.48 -2.78441 2.28348 0
M  V30 458 C 45.333 -2.43075 3.78463 0
M  V30 459 C 46.652 -3.80415 2.21298 0
M  V30 460 H 43.771 -0.553169 0.487005 0
M  V30 461 H 46.413 -0.875562 1.68624 0
M  V30 462 H 44.563 -3.33842 1.987 0
M  V30 463 H 46.235 -1.93527 4.18742 0
M  V30 464 H 44.478 -1.75666 3.96641 0
M  V30 465 H 45.149 -3.33149 4.40132 0
M  V30 466 H 47.625 -3.34527 2.47449 0
M  V30 467 H 46.501 -4.66257 2.89647 0
M  V30 468 H 46.762 -4.25262 1.20849 0
M  V30 469 N 45.8211 -1.22559 -0.990812 0
M  V30 470 C 46.7311 -1.01394 -2.11557 0
M  V30 471 C 47.7471 0.0383962 -1.73958 0
M  V30 472 O 48.9231 -0.154787 -2.00804 0
M  V30 473 C 45.9881 -0.596569 -3.41529 0
M  V30 474 C 45.0491 -1.72276 -3.93217 0
M  V30 475 C 44.2821 -1.32521 -5.16985 0
M  V30 476 O 44.5051 -0.204909 -5.70032 0
M  V30 477 O 43.4391 -2.14247 -5.62478 0
M  V30 478 H 47.2651 -1.95633 -2.32296 0
M  V30 479 H 44.8501 -1.01172 -1.0993 0
M  V30 480 H 46.7321 -0.374263 -4.19735 0
M  V30 481 H 45.4071 0.316939 -3.22145 0
M  V30 482 H 44.3141 -1.99961 -3.16174 0
M  V30 483 H 45.6471 -2.61421 -4.17037 0
M  V30 484 N 47.2992 1.18797 -1.03562 0
M  V30 485 C 48.5452 1.8893 -0.737113 0
M  V30 486 C 48.8782 1.79837 0.732956 0
M  V30 487 O 48.1532 1.19525 1.5344 0
M  V30 488 C 48.4362 3.39607 -1.19745 0
M  V30 489 C 48.2892 3.57537 -2.72924 0
M  V30 490 C 49.6082 4.33069 -0.783526 0
M  V30 491 H 46.7272 0.686057 -0.269249 0
M  V30 492 H 49.3692 1.39797 -1.28673 0
M  V30 493 H 47.5192 3.81583 -0.729855 0
M  V30 494 H 49.1912 3.24688 -3.27682 0
M  V30 495 H 47.4342 3.00363 -3.12993 0
M  V30 496 H 48.1052 4.63238 -3.00191 0
M  V30 497 H 50.5812 3.98846 -1.18581 0
M  V30 498 H 49.4572 5.3707 -1.13343 0
M  V30 499 H 49.7182 4.40986 0.313681 0
M  V30 500 N 48.7773 0.814389 1.34928 0
M  V30 501 C 50.0073 0.41054 2.0248 0
M  V30 502 C 50.4153 -0.985625 1.61499 0
M  V30 503 O 49.7583 -1.64781 0.811976 0
M  V30 504 C 49.8203 0.423384 3.56998 0
M  V30 505 C 49.4843 1.77141 4.21272 0
M  V30 506 C 50.4813 2.73093 4.42398 0
M  V30 507 C 48.1663 2.05755 4.58225 0
M  V30 508 C 50.1603 3.95838 4.9959 0
M  V30 509 C 47.8473 3.28762 5.1513 0
M  V30 510 C 48.8453 4.23621 5.35755 0
M  V30 511 O 48.5333 5.44456 5.91458 0
M  V30 512 H 48.2653 0.163997 0.655806 0
M  V30 513 H 50.8193 1.10155 1.73364 0
M  V30 514 H 49.0493 -0.324276 3.85338 0
M  V30 515 H 50.7383 0.0407683 4.0588 0
M  V30 516 H 51.5043 2.5228 4.14222 0
M  V30 517 H 47.3833 1.32727 4.4148 0
M  V30 518 H 50.9273 4.69891 5.15605 0
M  V30 519 H 46.8243 3.49443 5.42734 0
M  V30 520 H 47.5923 5.4586 6.09901 0
M  V30 521 N 50.2554 -1.46986 0.568584 0
M  V30 522 C 51.2034 -2.31858 -0.185649 0
M  V30 523 C 52.1974 -1.43624 -0.898249 0
M  V30 524 O 53.4034 -1.60327 -0.818242 0
M  V30 525 H 49.7784 -0.747866 -0.0787399 0
M  V30 526 H 51.7494 -2.93303 0.549191 0
M  V30 527 C 50.4984 -3.26513 -1.19519 0
M  V30 528 H 49.8214 -3.94377 -0.656285 0
M  V30 529 H 51.2614 -3.88707 -1.6936 0
M  V30 530 C 49.7204 -2.50847 -2.24894 0
M  V30 531 O 50.2504 -2.26119 -3.32014 0
M  V30 532 N 48.4564 -2.11656 -1.99124 0
M  V30 533 H 48.0034 -2.31966 -1.12024 0
M  V30 534 H 47.9614 -1.61347 -2.69842 0
M  V30 535 N 51.7335 -0.305618 -1.54608 0
M  V30 536 C 52.9825 0.303098 -1.9941 0
M  V30 537 C 53.2955 1.54648 -1.19764 0
M  V30 538 O 54.5015 2.23007 -1.54855 0
M  V30 539 C 52.9575 0.590588 -3.55021 0
M  V30 540 C 52.5655 -0.634719 -4.43481 0
M  V30 541 C 54.3095 1.16025 -4.08336 0
M  V30 542 C 52.2165 -0.320126 -5.90533 0
M  V30 543 H 51.1465 0.117031 -0.744862 0
M  V30 544 H 53.7975 -0.415045 -1.78745 0
M  V30 545 H 52.1795 1.36845 -3.71604 0
M  V30 546 H 53.3535 -1.41079 -4.38672 0
M  V30 547 H 51.6685 -1.12333 -4.00962 0
M  V30 548 H 54.2655 1.40994 -5.15776 0
M  V30 549 H 54.6085 2.10397 -3.5922 0
M  V30 550 H 55.1415 0.443985 -3.95315 0
M  V30 551 H 51.8805 -1.23254 -6.43808 0
M  V30 552 H 51.4005 0.418579 -5.98338 0
M  V30 553 H 53.0795 0.0766241 -6.46955 0
M  V30 554 N 53.2116 1.57565 -0.0334293 0
M  V30 555 C 54.4606 1.91155 0.643639 0
M  V30 556 C 54.7736 0.91192 1.73042 0
M  V30 557 O 55.9796 1.13923 2.46442 0
M  V30 558 C 54.4356 3.39443 1.1961 0
M  V30 559 C 54.0436 4.47774 0.142381 0
M  V30 560 C 55.7876 3.82094 1.84944 0
M  V30 561 C 53.6946 5.87162 0.706727 0
M  V30 562 H 52.6246 0.713368 0.244176 0
M  V30 563 H 55.2756 1.8323 -0.0994323 0
M  V30 564 H 53.6576 3.42313 1.99092 0
M  V30 565 H 54.8316 4.56469 -0.630296 0
M  V30 566 H 53.1466 4.14352 -0.412446 0
M  V30 567 H 55.7436 4.83591 2.2813 0
M  V30 568 H 56.0866 3.17386 2.69392 0
M  V30 569 H 56.6196 3.81665 1.12145 0
M  V30 570 H 53.3586 6.55424 -0.0997178 0
M  V30 571 H 52.8786 5.82064 1.44779 0
M  V30 572 H 54.5576 6.35866 1.19514 0
M  V30 573 N 54.6897 -0.239769 1.55765 0
M  V30 574 C 55.6367 -1.29696 1.90913 0
M  V30 575 C 56.6067 -1.47478 0.764164 0
M  V30 576 O 57.7917 -1.61345 1.01845 0
M  V30 577 C 54.9317 -2.64598 2.21544 0
M  V30 578 C 54.0447 -2.54765 3.48882 0
M  V30 579 C 53.1797 -3.82069 3.69049 0
M  V30 580 C 52.2187 -3.66883 4.89963 0
M  V30 581 N 51.3557 -4.86094 5.06614 0
M  V30 582 H 56.1957 -0.990224 2.81067 0
M  V30 583 H 53.7327 -0.477684 1.39128 0
M  V30 584 H 55.6907 -3.43132 2.3731 0
M  V30 585 H 54.3207 -2.93405 1.34585 0
M  V30 586 H 53.3727 -1.67763 3.41409 0
M  V30 587 H 54.6847 -2.39457 4.37563 0
M  V30 588 H 53.8387 -4.69046 3.84812 0
M  V30 589 H 52.5777 -4.00282 2.78614 0
M  V30 590 H 51.5827 -2.78289 4.74168 0
M  V30 591 H 52.8077 -3.50157 5.81865 0
M  V30 592 H 50.7537 -5.04655 4.19117 0
M  V30 593 H 50.6707 -4.73443 5.89396 0
M  V30 594 H 51.9387 -5.74549 5.26795 0
M  V30 595 N 56.1678 -1.49265 -0.50573 0
M  V30 596 C 57.1148 -1.65585 -1.6078 0
M  V30 597 C 58.0848 -0.497396 -1.58478 0
M  V30 598 O 59.2698 -0.72385 -1.76536 0
M  V30 599 C 56.4098 -1.72408 -2.98948 0
M  V30 600 C 55.5228 -2.99525 -3.11301 0
M  V30 601 C 54.6578 -2.97356 -4.40174 0
M  V30 602 C 53.6968 -4.19074 -4.46143 0
M  V30 603 N 52.8338 -4.14841 -5.66437 0
M  V30 604 H 57.6738 -2.59688 -1.46172 0
M  V30 605 H 55.2108 -1.28761 -0.711261 0
M  V30 606 H 57.1688 -1.74344 -3.79025 0
M  V30 607 H 55.7988 -0.817753 -3.1227 0
M  V30 608 H 54.8508 -3.07222 -2.24318 0
M  V30 609 H 56.1628 -3.89518 -3.11572 0
M  V30 610 H 55.3168 -2.97829 -5.28567 0
M  V30 611 H 54.0558 -2.05133 -4.42461 0
M  V30 612 H 53.0608 -4.1885 -3.56153 0
M  V30 613 H 54.2858 -5.12483 -4.45575 0
M  V30 614 H 52.2318 -3.25453 -5.69575 0
M  V30 615 H 52.1488 -4.98564 -5.68304 0
M  V30 616 H 53.4168 -4.1941 -6.57051 0
M  V30 617 N 57.6459 0.756429 -1.3826 0
M  V30 618 C 58.5559 1.9009 -1.37488 0
M  V30 619 C 59.5719 1.71855 -0.272366 0
M  V30 620 O 60.7479 1.94827 -0.510318 0
M  V30 621 C 57.8129 3.25421 -1.19592 0
M  V30 622 C 56.8739 3.56202 -2.39622 0
M  V30 623 C 56.1069 4.85075 -2.2257 0
M  V30 624 O 56.3299 5.57246 -1.21793 0
M  V30 625 O 55.2639 5.15269 -3.11098 0
M  V30 626 H 59.0899 1.93695 -2.33914 0
M  V30 627 H 56.6749 0.901313 -1.1915 0
M  V30 628 H 58.5569 4.06337 -1.11661 0
M  V30 629 H 57.2319 3.22634 -0.262486 0
M  V30 630 H 56.1389 2.75458 -2.53128 0
M  V30 631 H 57.4719 3.63747 -3.31586 0
M  V30 632 N 59.124 1.23083 0.984299 0
M  V30 633 C 60.349 1.088 1.76571 0
M  V30 634 C 60.774 -0.356657 1.84688 0
M  V30 635 O 60.132 -1.25788 1.30565 0
M  V30 636 C 60.18 1.71371 3.17277 0
M  V30 637 O 59.284 0.973213 4.00752 0
M  V30 638 H 58.625 0.381599 0.543395 0
M  V30 639 H 61.155 1.63057 1.23587 0
M  V30 640 H 61.165 1.76449 3.67872 0
M  V30 641 H 59.84 2.76493 3.10684 0
M  V30 642 H 58.417 0.999078 3.59267 0
M  V30 643 N 60.6021 -1.18246 1.0419 0
M  V30 644 C 61.5501 -2.23968 0.627792 0
M  V30 645 C 62.5441 -1.65828 -0.346019 0
M  V30 646 O 63.7501 -1.78733 -0.213175 0
M  V30 647 H 60.1251 -0.728939 0.184802 0
M  V30 648 H 62.0961 -2.56202 1.52981 0
M  V30 649 C 60.8451 -3.47699 0.00796591 0
M  V30 650 H 60.1681 -3.92734 0.748347 0
M  V30 651 H 61.6081 -4.23294 -0.24455 0
M  V30 652 C 60.0671 -3.13153 -1.24246 0
M  V30 653 O 60.5971 -3.27003 -2.33307 0
M  V30 654 N 58.8031 -2.67467 -1.13622 0
M  V30 655 H 58.3501 -2.56396 -0.248734 0
M  V30 656 H 58.3081 -2.44724 -1.97377 0
M  V30 657 N 62.0802 -0.821533 -1.34494 0
M  V30 658 C 63.4962 -0.507117 -1.51329 0
M  V30 659 C 63.6962 0.968964 -1.76673 0
M  V30 660 O 62.7522 1.75348 -1.81685 0
M  V30 661 C 64.0652 -1.36544 -2.67911 0
M  V30 662 C 65.6132 -1.36242 -2.81793 0
M  V30 663 C 66.0882 -2.2052 -4.01416 0
M  V30 664 N 67.5792 -2.18136 -4.08621 0
M  V30 665 C 68.3142 -2.80095 -5.00334 0
M  V30 666 N 67.8102 -3.51039 -5.9728 0
M  V30 667 N 69.6032 -2.69656 -4.93196 0
M  V30 668 H 61.7542 -1.77729 -1.16302 0
M  V30 669 H 64.0172 -0.757291 -0.570276 0
M  V30 670 H 63.7232 -2.41361 -2.55808 0
M  V30 671 H 63.5972 -1.02917 -3.62888 0
M  V30 672 H 65.9842 -0.322041 -2.93338 0
M  V30 673 H 66.0652 -1.73866 -1.87628 0
M  V30 674 H 65.7092 -3.24607 -3.90631 0
M  V30 675 H 65.6392 -1.80247 -4.94791 0
M  V30 676 H 68.1302 -1.6653 -3.39229 0
M  V30 677 H 68.4432 -3.95565 -6.63889 0
M  V30 678 H 66.7882 -3.55145 -5.97409 0
M  V30 679 H 69.9792 -2.13808 -4.16418 0
M  V30 680 H 70.1522 -3.1823 -5.64476 0
M  V30 681 N 63.5583 1.46682 -0.576371 0
M  V30 682 C 64.4903 2.28341 0.198231 0
M  V30 683 C 65.5033 1.38141 0.861453 0
M  V30 684 O 66.6923 1.62797 0.732082 0
M  V30 685 C 63.7923 3.12986 1.29972 0
M  V30 686 C 62.9653 4.31271 0.729639 0
M  V30 687 C 62.0243 4.97363 1.71803 0
M  V30 688 O 61.0503 5.55156 1.25658 0
M  V30 689 N 62.2523 4.93796 3.05198 0
M  V30 690 H 65.0173 2.9546 -0.502324 0
M  V30 691 H 62.5783 1.56525 -0.413715 0
M  V30 692 H 64.5703 3.54066 1.96008 0
M  V30 693 H 63.1403 2.47984 1.90323 0
M  V30 694 H 62.3603 3.94052 -0.108012 0
M  V30 695 H 63.6483 5.07739 0.328438 0
M  V30 696 H 63.0463 4.48077 3.45317 0
M  V30 697 H 61.6033 5.38837 3.6674 0
M  V30 698 N 65.0364 0.313813 1.54444 0
M  V30 699 C 66.4524 -0.0391619 1.59552 0
M  V30 700 C 66.6524 -1.51322 1.33056 0
M  V30 701 O 65.7084 -2.26782 1.11022 0
M  V30 702 C 67.0214 0.370302 2.98411 0
M  V30 703 C 68.5694 0.320139 3.11358 0
M  V30 704 C 69.0444 0.704617 4.52547 0
M  V30 705 N 70.5354 0.657645 4.58508 0
M  V30 706 C 71.2704 0.927453 5.6585 0
M  V30 707 N 70.7664 1.26389 6.81174 0
M  V30 708 N 72.5594 0.853662 5.5558 0
M  V30 709 H 64.7104 1.27433 1.69925 0
M  V30 710 H 66.9734 0.517511 0.794284 0
M  V30 711 H 66.6794 1.39694 3.22767 0
M  V30 712 H 66.5534 -0.269619 3.76235 0
M  V30 713 H 68.9404 -0.697275 2.86744 0
M  V30 714 H 69.0214 0.99486 2.35661 0
M  V30 715 H 68.6654 1.7199 4.77893 0
M  V30 716 H 68.5954 0.00768843 5.26599 0
M  V30 717 H 71.0864 0.409067 3.75679 0
M  V30 718 H 71.3994 1.4554 7.58972 0
M  V30 719 H 69.7444 1.30206 6.82694 0
M  V30 720 H 72.9354 0.590383 4.64362 0
M  V30 721 H 73.1084 1.0673 6.3915 0
M  V30 722 N 66.5145 -1.57545 0.0417849 0
M  V30 723 C 67.7605 -1.92601 -0.635021 0
M  V30 724 C 68.0935 -0.919627 -1.71045 0
M  V30 725 O 67.3685 0.0557892 -1.9442 0
M  V30 726 C 67.6515 -3.38085 -1.23979 0
M  V30 727 C 67.5045 -4.49467 -0.173057 0
M  V30 728 C 68.8235 -3.83776 -2.15416 0
M  V30 729 H 65.9425 -0.700397 -0.229374 0
M  V30 730 H 68.5845 -1.89728 0.101633 0
M  V30 731 H 66.7345 -3.40664 -1.86762 0
M  V30 732 H 68.4065 -4.59018 0.458312 0
M  V30 733 H 66.6495 -4.30909 0.499996 0
M  V30 734 H 67.3205 -5.48323 -0.636054 0
M  V30 735 H 69.7965 -3.83013 -1.62605 0
M  V30 736 H 68.6725 -4.8624 -2.54679 0
M  V30 737 H 68.9335 -3.19998 -3.05047 0
M  V30 738 N 67.9926 0.231505 -1.5589 0
M  V30 739 C 69.2406 0.955461 -1.78088 0
M  V30 740 C 69.5616 1.85262 -0.608533 0
M  V30 741 O 68.8316 1.92277 0.375035 0
M  V30 742 H 67.4116 0.355787 -0.656829 0
M  V30 743 H 70.0736 0.245751 -1.93344 0
M  V30 744 H 69.1696 1.56814 -2.69844 0
M  V30 745 N 69.4707 1.49531 0.497807 0
M  V30 746 C 70.4007 1.6935 1.60757 0
M  V30 747 C 71.3817 0.542218 1.61227 0
M  V30 748 O 72.5667 0.778417 1.77917 0
M  V30 749 C 69.6967 1.76298 2.99226 0
M  V30 750 C 68.6507 2.91248 3.13622 0
M  V30 751 C 67.9767 2.83312 4.53474 0
M  V30 752 C 69.2767 4.3214 2.93346 0
M  V30 753 H 70.9707 2.62263 1.44425 0
M  V30 754 H 68.5167 1.26208 0.693367 0
M  V30 755 H 70.4697 1.88749 3.76765 0
M  V30 756 H 69.1937 0.799871 3.16654 0
M  V30 757 H 67.8527 2.78404 2.38509 0
M  V30 758 H 67.5007 1.84902 4.67782 0
M  V30 759 H 67.2007 3.60465 4.64046 0
M  V30 760 H 68.7247 2.97775 5.33069 0
M  V30 761 H 70.1387 4.45649 3.60652 0
M  V30 762 H 68.5357 5.1054 3.15387 0
M  V30 763 H 69.6057 4.46363 1.89441 0
M  V30 764 N 70.9488 -0.749086 1.3866 0
M  V30 765 C 71.8588 -1.89358 1.38494 0
M  V30 766 C 72.8748 -1.71708 0.281476 0
M  V30 767 O 74.0508 -1.94554 0.520643 0
M  V30 768 C 71.1158 -3.24782 1.21316 0
M  V30 769 C 70.1768 -3.54926 2.41508 0
M  V30 770 C 69.4098 -4.83888 2.2514 0
M  V30 771 O 69.6328 -5.56592 1.24746 0
M  V30 772 O 68.5668 -5.13612 3.13826 0
M  V30 773 H 72.3928 -1.92452 2.34938 0
M  V30 774 H 69.9778 -0.894981 1.19626 0
M  V30 775 H 71.8598 -4.05739 1.13814 0
M  V30 776 H 70.5348 -3.2249 0.279592 0
M  V30 777 H 69.4418 -2.74112 2.54585 0
M  V30 778 H 70.7748 -3.61983 3.3351 0
M  V30 779 N 72.4269 -1.23603 -0.977757 0
M  V30 780 C 73.3569 -1.04401 -2.0886 0
M  V30 781 C 74.3379 0.0399052 -1.70053 0
M  V30 782 O 75.5229 -0.125246 -1.93796 0
M  V30 783 C 72.6529 -0.637269 -3.41403 0
M  V30 784 C 71.6069 -1.66883 -3.94124 0
M  V30 785 C 70.9329 -1.11745 -5.22893 0
M  V30 786 C 72.2329 -3.06247 -4.23096 0
M  V30 787 H 73.9269 -1.97316 -2.25182 0
M  V30 788 H 71.4729 -0.950096 -1.08209 0
M  V30 789 H 73.4259 -0.48998 -4.18542 0
M  V30 790 H 72.1499 0.327557 -3.24953 0
M  V30 791 H 70.8089 -1.80416 -3.19133 0
M  V30 792 H 70.4569 -0.143527 -5.02795 0
M  V30 793 H 70.1569 -1.80672 -5.59134 0
M  V30 794 H 71.6809 -0.982067 -6.02651 0
M  V30 795 H 73.0949 -2.96001 -4.90975 0
M  V30 796 H 71.4919 -3.72436 -4.70544 0
M  V30 797 H 72.5619 -3.55041 -3.30263 0
M  V30 798 N 73.905 1.17692 -1.04816 0
M  V30 799 C 75.154 1.87192 -0.751132 0
M  V30 800 C 75.467 1.8169 0.724441 0
M  V30 801 O 76.673 2.46625 1.13527 0
M  V30 802 C 75.129 3.35857 -1.29338 0
M  V30 803 C 74.737 3.4987 -2.79812 0
M  V30 804 C 76.481 4.10709 -1.07322 0
M  V30 805 C 74.388 4.92536 -3.27356 0
M  V30 806 H 73.318 0.701162 -0.277288 0
M  V30 807 H 75.969 1.32932 -1.26496 0
M  V30 808 H 74.351 3.89631 -0.707376 0
M  V30 809 H 75.525 3.06332 -3.44235 0
M  V30 810 H 73.84 2.88433 -3.00325 0
M  V30 811 H 76.437 5.15952 -1.4035 0
M  V30 812 H 76.78 4.16299 -0.0108001 0
M  V30 813 H 77.313 3.6313 -1.62423 0
M  V30 814 H 74.052 4.92119 -4.33012 0
M  V30 815 H 73.572 5.3676 -2.67673 0
M  V30 816 H 75.251 5.61288 -3.21815 0
M  V30 817 N 75.3831 0.828654 1.34056 0
M  V30 818 C 76.3461 0.259927 2.27721 0
M  V30 819 C 77.3461 -0.565478 1.50529 0
M  V30 820 O 78.5361 -0.38075 1.69988 0
M  V30 821 C 75.6681 -0.634944 3.34935 0
M  V30 822 H 76.8611 1.0863 2.79534 0
M  V30 823 H 74.4141 0.600951 1.44285 0
M  V30 824 H 75.1491 -1.48416 2.88346 0
M  V30 825 H 74.9341 -0.0444999 3.92075 0
M  V30 826 H 76.4241 -1.02648 4.04788 0
M  V30 827 N 76.8612 -1.46375 0.584142 0
M  V30 828 C 78.0862 -2.07268 0.0740405 0
M  V30 829 C 78.5112 -1.42979 -1.22223 0
M  V30 830 O 77.8692 -0.514092 -1.73859 0
M  V30 831 C 77.9172 -3.60518 -0.0767769 0
M  V30 832 O 77.0212 -3.96533 -1.13292 0
M  V30 833 H 76.3622 -0.660961 0.0634524 0
M  V30 834 H 78.8922 -1.87991 0.807492 0
M  V30 835 H 78.9022 -4.07021 -0.282489 0
M  V30 836 H 77.5772 -4.06702 0.86986 0
M  V30 837 H 76.1542 -3.61738 -0.905553 0
M  V30 838 N 78.3393 -0.321999 -1.54275 0
M  V30 839 C 79.2493 0.553631 -2.27974 0
M  V30 840 C 80.2653 1.13054 -1.32268 0
M  V30 841 O 81.4413 1.15084 -1.6528 0
M  V30 842 C 78.5063 1.69927 -3.02201 0
M  V30 843 C 77.5673 1.15433 -4.1349 0
M  V30 844 C 76.8003 2.24537 -4.84168 0
M  V30 845 O 77.0233 3.44852 -4.5435 0
M  V30 846 O 75.9573 1.90044 -5.7111 0
M  V30 847 H 79.7833 -0.0448345 -3.03667 0
M  V30 848 H 77.3683 -0.0877418 -1.49142 0
M  V30 849 H 79.2503 2.3663 -3.48689 0
M  V30 850 H 77.9253 2.28395 -2.29385 0
M  V30 851 H 76.8323 0.452436 -3.71354 0
M  V30 852 H 78.1653 0.614805 -4.88345 0
M  V30 853 N 79.8174 1.5752 -0.0501392 0
M  V30 854 C 80.7654 2.12651 0.942459 0
M  V30 855 C 81.7594 1.05807 1.32292 0
M  V30 856 O 82.9654 1.24217 1.3027 0
M  V30 857 H 79.3404 0.679673 0.321789 0
M  V30 858 H 81.3114 2.94951 0.452356 0
M  V30 859 C 80.0604 2.68565 2.20836 0
M  V30 860 H 79.3834 3.50439 1.92439 0
M  V30 861 H 80.8234 3.10761 2.8845 0
M  V30 862 C 79.2824 1.62291 2.95234 0
M  V30 863 O 79.8124 1.03508 3.88135 0
M  V30 864 N 78.0184 1.33836 2.57946 0
M  V30 865 H 77.5654 1.81826 1.82475 0
M  V30 866 H 77.5234 0.629595 3.08032 0
M  V30 867 N 81.2955 -0.223234 1.56011 0
M  V30 868 C 82.5425 -0.947875 1.78946 0
M  V30 869 C 82.8705 -1.844 0.618608 0
M  V30 870 O 82.1255 -1.91629 -0.397093 0
M  V30 871 C 82.4245 -1.81948 3.0762 0
M  V30 872 C 82.0905 -1.07672 4.37856 0
M  V30 873 C 80.7525 -0.871544 4.73242 0
M  V30 874 C 83.1045 -0.552081 5.18268 0
M  V30 875 C 80.4325 -0.129791 5.86556 0
M  V30 876 C 82.7845 0.17632 6.32354 0
M  V30 877 C 81.4485 0.39277 6.66343 0
M  V30 878 H 80.7185 -0.346852 0.654809 0
M  V30 879 H 83.3655 -0.216171 1.90276 0
M  V30 880 H 81.6705 -2.61899 2.91404 0
M  V30 881 H 83.3675 -2.38227 3.22566 0
M  V30 882 H 79.9575 -1.24662 4.1007 0
M  V30 883 H 84.1415 -0.698076 4.91366 0
M  V30 884 H 79.3975 0.048153 6.11381 0
M  V30 885 H 83.5715 0.590367 6.93893 0
M  V30 886 H 81.1985 0.969466 7.53993 0
M  V30 887 N 82.7736 -1.49793 -0.48987 0
M  V30 888 C 83.7366 -1.66752 -1.57246 0
M  V30 889 C 84.7366 -0.538867 -1.51502 0
M  V30 890 O 85.9266 -0.805545 -1.54456 0
M  V30 891 C 83.0586 -1.67528 -2.96896 0
M  V30 892 H 84.2516 -2.63321 -1.43534 0
M  V30 893 H 81.8046 -1.38992 -0.714914 0
M  V30 894 H 82.5396 -0.725837 -3.16073 0
M  V30 895 H 82.3246 -2.49504 -3.02473 0
M  V30 896 H 83.8146 -1.82667 -3.7553 0
M  V30 897 N 84.2517 0.741722 -1.39055 0
M  V30 898 C 85.4767 1.53607 -1.39354 0
M  V30 899 C 85.9017 1.88096 0.0116905 0
M  V30 900 O 85.2597 1.5143 0.996924 0
M  V30 901 C 85.3077 2.80441 -2.26682 0
M  V30 902 O 84.4117 3.76088 -1.69208 0
M  V30 903 H 83.7527 0.464142 -0.474835 0
M  V30 904 H 86.2827 0.915665 -1.82967 0
M  V30 905 H 86.2927 3.29246 -2.40959 0
M  V30 906 H 84.9677 2.5467 -3.2881 0
M  V30 907 H 83.5447 3.34833 -1.64138 0
M  V30 908 N 85.7298 1.2412 0.971189 0
M  V30 909 C 87.1458 1.00584 1.23916 0
M  V30 910 C 87.3458 -0.287481 1.99439 0
M  V30 911 O 86.4018 -1.00454 2.31658 0
M  V30 912 C 87.7148 2.21864 2.0297 0
M  V30 913 C 89.2628 2.26452 2.16076 0
M  V30 914 C 89.7378 3.47343 2.98524 0
M  V30 915 N 91.2288 3.47639 3.06107 0
M  V30 916 C 91.9638 4.37837 3.70251 0
M  V30 917 N 91.4598 5.38286 4.36142 0
M  V30 918 N 93.2528 4.25558 3.67228 0
M  V30 919 H 85.4038 2.07236 0.465499 0
M  V30 920 H 87.6668 0.909236 0.268315 0
M  V30 921 H 87.3728 3.15771 1.54861 0
M  V30 922 H 87.2468 2.23698 3.03709 0
M  V30 923 H 89.6338 1.33078 2.6339 0
M  V30 924 H 89.7148 2.28645 1.14696 0
M  V30 925 H 89.3588 4.41029 2.51905 0
M  V30 926 H 89.2888 3.42393 4.00093 0
M  V30 927 H 91.7798 2.74966 2.59233 0
M  V30 928 H 92.0928 6.03352 4.82894 0
M  V30 929 H 90.4378 5.42176 4.34822 0
M  V30 930 H 93.6288 3.46322 3.14927 0
M  V30 931 H 93.8018 4.96054 4.16935 0
M  V30 932 N 87.2079 -1.17134 1.05439 0
M  V30 933 C 88.1709 -2.19439 0.661764 0
M  V30 934 C 89.1709 -1.58199 -0.288042 0
M  V30 935 O 90.3609 -1.74053 -0.0715803 0
M  V30 936 C 87.4929 -3.40889 -0.0276209 0
M  V30 937 H 88.6859 -2.55688 1.56728 0
M  V30 938 H 86.2389 -1.31259 0.848567 0
M  V30 939 H 86.9739 -3.10187 -0.94629 0
M  V30 940 H 86.7589 -3.86586 0.655238 0
M  V30 941 H 88.2489 -4.16603 -0.288342 0
M  V30 942 N 88.686 -0.835752 -1.33615 0
M  V30 943 C 89.932 -0.430596 -1.98176 0
M  V30 944 C 90.265 1.00684 -1.66061 0
M  V30 945 O 89.54 1.70339 -0.938877 0
M  V30 946 C 89.823 -0.648065 -3.5422 0
M  V30 947 C 89.676 -2.13255 -3.96033 0
M  V30 948 C 90.995 -0.0922113 -4.40003 0
M  V30 949 H 88.114 -0.157924 -0.719881 0
M  V30 950 H 90.756 -1.05069 -1.58305 0
M  V30 951 H 88.906 -0.120237 -3.88314 0
M  V30 952 H 90.578 -2.725 -3.72211 0
M  V30 953 H 88.821 -2.61823 -3.45878 0
M  V30 954 H 89.492 -2.23547 -5.04708 0
M  V30 955 H 91.968 -0.543343 -4.12537 0
M  V30 956 H 90.844 -0.274083 -5.48215 0
M  V30 957 H 91.105 1.00378 -4.30554 0
M  V30 958 N 90.1641 1.46063 -0.591896 0
M  V30 959 C 91.0941 2.33172 0.123673 0
M  V30 960 C 92.0751 1.45897 0.87453 0
M  V30 961 O 93.2601 1.74698 0.848181 0
M  V30 962 C 90.3901 3.28336 1.13194 0
M  V30 963 C 89.3441 4.25124 0.495324 0
M  V30 964 C 88.6701 5.09863 1.61071 0
M  V30 965 C 89.9701 5.19143 -0.573425 0
M  V30 966 H 91.6641 2.93252 -0.603646 0
M  V30 967 H 89.2101 1.41014 -0.291741 0
M  V30 968 H 91.1631 3.88137 1.64097 0
M  V30 969 H 89.8871 2.66383 1.88965 0
M  V30 970 H 88.5461 3.66599 0.00729452 0
M  V30 971 H 88.1941 4.44288 2.35832 0
M  V30 972 H 87.8941 5.75417 1.19035 0
M  V30 973 H 89.4181 5.72529 2.12233 0
M  V30 974 H 90.8321 5.73106 -0.1491 0
M  V30 975 H 89.2291 5.93089 -0.914636 0
M  V30 976 H 90.2991 4.62519 -1.45617 0
M  V30 977 N 91.6422 0.330177 1.54103 0
M  V30 978 C 92.5522 -0.541534 2.28264 0
M  V30 979 C 93.5682 -1.12351 1.32866 0
M  V30 980 O 94.7442 -1.14206 1.65888 0
M  V30 981 C 91.8092 -1.68322 3.03098 0
M  V30 982 C 90.8702 -1.13238 4.14096 0
M  V30 983 C 90.1032 -2.21966 4.85352 0
M  V30 984 O 90.3262 -3.42437 4.56172 0
M  V30 985 O 89.2602 -1.87013 5.7211 0
M  V30 986 H 93.0862 0.060938 3.03639 0
M  V30 987 H 90.6712 0.09565 1.49093 0
M  V30 988 H 92.5532 -2.34777 3.49939 0
M  V30 989 H 91.2282 -2.27176 2.30593 0
M  V30 990 H 90.1352 -0.432736 3.71589 0
M  V30 991 H 91.4682 -0.588898 4.88664 0
M  V30 992 N 93.1203 -1.57491 0.0584922 0
M  V30 993 C 94.0833 -2.1085 -0.898617 0
M  V30 994 C 95.0833 -1.02964 -1.23511 0
M  V30 995 O 96.2733 -1.29007 -1.17059 0
M  V30 996 C 93.4053 -2.59881 -2.20623 0
M  V30 997 H 94.5983 -2.96715 -0.435936 0
M  V30 998 H 92.1513 -1.55141 -0.190023 0
M  V30 999 H 92.8863 -1.77431 -2.71457 0
M  V30 1000 H 92.6713 -3.38727 -1.97501 0
M  V30 1001 H 94.1613 -3.01285 -2.89166 0
M  V30 1002 N 94.5984 0.214957 -1.56127 0
M  V30 1003 C 95.5284 1.2695 -1.95974 0
M  V30 1004 C 96.5094 1.48539 -0.828868 0
M  V30 1005 O 97.6944 1.60611 -1.09168 0
M  V30 1006 C 94.8244 2.61794 -2.28214 0
M  V30 1007 C 93.7784 2.54851 -3.43853 0
M  V30 1008 C 93.1044 3.93785 -3.61715 0
M  V30 1009 C 94.4044 2.09065 -4.78632 0
M  V30 1010 H 96.0984 0.93846 -2.84312 0
M  V30 1011 H 93.6444 0.449996 -1.36788 0
M  V30 1012 H 95.5974 3.35731 -2.54682 0
M  V30 1013 H 94.3214 2.96599 -1.36736 0
M  V30 1014 H 92.9804 1.8337 -3.17444 0
M  V30 1015 H 92.6284 4.25908 -2.67602 0
M  V30 1016 H 92.3284 3.90019 -4.39498 0
M  V30 1017 H 93.8524 4.69374 -3.90539 0
M  V30 1018 H 95.2664 2.7275 -5.04262 0
M  V30 1019 H 93.6634 2.16346 -5.59745 0
M  V30 1020 H 94.7334 1.04315 -4.73547 0
M  V30 1021 N 96.0765 1.50051 0.48192 0
M  V30 1022 C 97.3245 1.60181 1.23234 0
M  V30 1023 C 97.6455 0.299176 1.92691 0
M  V30 1024 O 96.9155 -0.682708 1.83619 0
M  V30 1025 H 95.4955 0.590232 0.457859 0
M  V30 1026 H 98.1575 1.86775 0.556881 0
M  V30 1027 H 97.2535 2.40753 1.98607 0
M  V30 1028 N 97.5546 -0.734337 1.39446 0
M  V30 1029 C 98.7796 -1.52866 1.40167 0
M  V30 1030 C 99.2046 -1.881 -0.00171513 0
M  V30 1031 O 98.5626 -1.51957 -0.988879 0
M  V30 1032 C 98.6106 -2.79235 2.28167 0
M  V30 1033 O 97.7146 -3.75185 1.71201 0
M  V30 1034 H 97.0556 -0.461618 0.477289 0
M  V30 1035 H 99.5856 -0.905949 1.8345 0
M  V30 1036 H 99.5956 -3.27963 2.42702 0
M  V30 1037 H 98.2706 -2.52923 3.30156 0
M  V30 1038 H 96.8476 -3.33958 1.65912 0
M  V30 1039 N 99.0327 -1.24633 -0.964593 0
M  V30 1040 C 100.273 -1.09981 -1.72289 0
M  V30 1041 C 100.637 0.354792 -1.88693 0
M  V30 1042 O 101.838 0.62289 -2.61483 0
M  V30 1043 C 100.109 -1.82262 -3.07434 0
M  V30 1044 S 101.668 -1.83379 -3.98645 0
M  V30 1045 H 98.4857 -0.393292 -0.59232 0
M  V30 1046 H 101.088 -1.58009 -1.15123 0
M  V30 1047 H 99.7917 -2.87206 -2.93157 0
M  V30 1048 H 99.3227 -1.3458 -3.69664 0
M  V30 1049 H 101.338 -0.903691 -4.87901 0
M  V30 1050 N 100.511 1.16574 -1.06058 0
M  V30 1051 C 101.441 2.23057 -0.690488 0
M  V30 1052 C 102.422 1.67141 0.315901 0
M  V30 1053 O 103.607 1.93253 0.191556 0
M  V30 1054 C 100.737 3.47222 -0.073625 0
M  V30 1055 C 99.6908 4.16016 -1.00573 0
M  V30 1056 C 99.0168 5.34104 -0.252289 0
M  V30 1057 C 100.317 4.67264 -2.33371 0
M  V30 1058 H 102.011 2.54271 -1.58072 0
M  V30 1059 H 99.5568 1.22218 -0.76149 0
M  V30 1060 H 101.51 4.20939 0.19714 0
M  V30 1061 H 100.234 3.15302 0.85161 0
M  V30 1062 H 98.8928 3.44223 -1.2612 0
M  V30 1063 H 98.5408 4.98437 0.675988 0
M  V30 1064 H 98.2408 5.81072 -0.873455 0
M  V30 1065 H 99.7648 6.10599 0.0109857 0
M  V30 1066 H 101.179 5.32573 -2.12223 0
M  V30 1067 H 99.5758 5.24843 -2.90963 0
M  V30 1068 H 100.646 3.83602 -2.96611 0
M  V30 1069 N 101.989 0.842826 1.3317 0
M  V30 1070 C 102.937 0.267495 2.31057 0
M  V30 1071 C 103.931 -0.602682 1.58316 0
M  V30 1072 O 105.137 -0.491803 1.73151 0
M  V30 1073 H 101.512 0.0677813 0.748939 0
M  V30 1074 H 103.483 1.10754 2.77085 0
M  V30 1075 C 102.232 -0.539331 3.43492 0
M  V30 1076 H 101.555 0.12095 3.99617 0
M  V30 1077 H 102.995 -0.90767 4.14171 0
M  V30 1078 C 101.454 -1.71981 2.89697 0
M  V30 1079 O 101.984 -2.81862 2.86211 0
M  V30 1080 N 100.19 -1.54299 2.46252 0
M  V30 1081 H 99.7369 -0.649143 2.49287 0
M  V30 1082 H 99.6949 -2.33431 2.10612 0
M  V30 1083 N 103.467 -1.45747 0.599634 0
M  V30 1084 C 104.415 -2.322 -0.136426 0
M  V30 1085 C 105.409 -1.45497 -0.867583 0
M  V30 1086 O 106.615 -1.62027 -0.78405 0
M  V30 1087 H 102.99 -0.749368 -0.0628588 0
M  V30 1088 H 104.961 -2.92072 0.611281 0
M  V30 1089 C 103.71 -3.28974 -1.12567 0
M  V30 1090 H 103.033 -3.9568 -0.572484 0
M  V30 1091 H 104.473 -3.92212 -1.61077 0
M  V30 1092 C 102.932 -2.55561 -2.19523 0
M  V30 1093 O 103.462 -2.33111 -3.27143 0
M  V30 1094 N 101.668 -2.15832 -1.94589 0
M  V30 1095 H 101.215 -2.3429 -1.07078 0
M  V30 1096 H 101.173 -1.67034 -2.66359 0
M  V30 1097 N 104.945 -0.338344 -1.53925 0
M  V30 1098 C 105.892 0.520845 -2.24846 0
M  V30 1099 C 106.862 1.09976 -1.24477 0
M  V30 1100 O 108.047 1.13735 -1.53196 0
M  V30 1101 C 105.187 1.6685 -3.02084 0
M  V30 1102 C 104.3 1.11739 -4.17299 0
M  V30 1103 C 103.435 2.23193 -4.82036 0
M  V30 1104 C 102.474 1.65407 -5.89328 0
M  V30 1105 N 101.611 2.70582 -6.47866 0
M  V30 1106 H 106.451 -0.0904881 -2.97863 0
M  V30 1107 H 103.988 -0.0564282 -1.46992 0
M  V30 1108 H 105.946 2.34407 -3.45122 0
M  V30 1109 H 104.576 2.2509 -2.31375 0
M  V30 1110 H 103.628 0.332919 -3.7894 0
M  V30 1111 H 104.94 0.654677 -4.94485 0
M  V30 1112 H 104.094 2.98626 -5.28117 0
M  V30 1113 H 102.833 2.72807 -4.04262 0
M  V30 1114 H 101.838 0.884779 -5.42634 0
M  V30 1115 H 103.063 1.16652 -6.69006 0
M  V30 1116 H 101.009 3.1946 -5.72959 0
M  V30 1117 H 100.926 2.28917 -7.20509 0
M  V30 1118 H 102.194 3.45799 -6.98601 0
M  V30 1119 N 106.423 1.57458 -0.0668435 0
M  V30 1120 C 107.653 1.97337 0.611677 0
M  V30 1121 C 108.061 0.943744 1.63982 0
M  V30 1122 O 107.404 -0.0785584 1.83532 0
M  V30 1123 C 107.466 3.33511 1.34205 0
M  V30 1124 C 107.13 4.54598 0.467941 0
M  V30 1125 C 108.127 5.19186 -0.272439 0
M  V30 1126 C 105.812 5.0075 0.39427 0
M  V30 1127 C 107.806 6.28274 -1.07476 0
M  V30 1128 C 105.493 6.09711 -0.411729 0
M  V30 1129 C 106.491 6.73335 -1.14492 0
M  V30 1130 O 106.179 7.80199 -1.93763 0
M  V30 1131 H 105.911 0.654042 0.170893 0
M  V30 1132 H 108.465 2.04961 -0.134289 0
M  V30 1133 H 106.695 3.22487 2.13398 0
M  V30 1134 H 108.384 3.58029 1.91233 0
M  V30 1135 H 109.15 4.84477 -0.225086 0
M  V30 1136 H 105.029 4.51009 0.954569 0
M  V30 1137 H 108.573 6.77866 -1.64755 0
M  V30 1138 H 104.47 6.43854 -0.460664 0
M  V30 1139 H 105.238 7.97053 -1.86142 0
M  V30 1140 N 107.901 -0.206675 1.56239 0
M  V30 1141 C 109.126 -0.949474 1.8439 0
M  V30 1142 C 109.551 -1.76549 0.649016 0
M  V30 1143 O 108.909 -1.76782 -0.402231 0
M  V30 1144 C 108.957 -1.83078 3.10668 0
M  V30 1145 O 108.061 -2.9281 2.90407 0
M  V30 1146 H 107.402 -0.268033 0.607499 0
M  V30 1147 H 109.932 -0.215488 2.03462 0
M  V30 1148 H 109.942 -2.2377 3.41161 0
M  V30 1149 H 108.617 -1.23112 3.97261 0
M  V30 1150 H 107.194 -2.55956 2.71184 0
M  V30 1151 N 109.379 -1.50304 -0.473955 0
M  V30 1152 C 110.289 -1.7174 -1.5982 0
M  V30 1153 C 111.305 -0.600457 -1.63311 0
M  V30 1154 O 112.481 -0.878441 -1.81233 0
M  V30 1155 C 109.546 -1.80427 -2.96052 0
M  V30 1156 C 108.607 -3.04148 -3.02972 0
M  V30 1157 C 107.84 -3.12411 -4.32706 0
M  V30 1158 O 108.063 -2.27542 -5.23049 0
M  V30 1159 O 106.997 -4.05113 -4.45159 0
M  V30 1160 H 110.823 -2.67035 -1.44657 0
M  V30 1161 H 108.408 -1.34366 -0.653148 0
M  V30 1162 H 110.29 -1.88338 -3.7697 0
M  V30 1163 H 108.965 -0.883156 -3.11419 0
M  V30 1164 H 107.872 -3.0174 -2.21142 0
M  V30 1165 H 109.205 -3.95829 -2.92541 0
M  V30 1166 N 110.857 0.726932 -1.39834 0
M  V30 1167 C 112.105 1.4837 -1.37225 0
M  V30 1168 C 112.426 1.94979 0.0284857 0
M  V30 1169 O 111.696 1.69555 0.981213 0
M  V30 1170 H 110.276 0.55043 -0.505011 0
M  V30 1171 H 112.938 0.862468 -1.74778 0
M  V30 1172 H 112.034 2.36198 -2.04003 0
M  V30 1173 N 112.336 1.25143 0.95797 0
M  V30 1174 C 113.566 1.12261 1.73439 0
M  V30 1175 C 113.974 -0.326715 1.86358 0
M  V30 1176 O 113.317 -1.2367 1.35836 0
M  V30 1177 C 113.379 1.69966 3.16784 0
M  V30 1178 C 113.043 3.18936 3.27305 0
M  V30 1179 C 114.04 4.15968 3.11877 0
M  V30 1180 C 111.725 3.59083 3.51234 0
M  V30 1181 C 113.719 5.51126 3.20217 0
M  V30 1182 C 111.406 4.9438 3.5921 0
M  V30 1183 C 112.404 5.90211 3.43716 0
M  V30 1184 O 112.092 7.23046 3.51368 0
M  V30 1185 H 111.824 0.392476 0.550399 0
M  V30 1186 H 114.378 1.65927 1.21068 0
M  V30 1187 H 112.608 1.10744 3.70503 0
M  V30 1188 H 114.297 1.52232 3.76272 0
M  V30 1189 H 115.063 3.86292 2.93264 0
M  V30 1190 H 110.942 2.84989 3.62356 0
M  V30 1191 H 114.486 6.25905 3.0804 0
M  V30 1192 H 110.383 5.23723 3.77339 0
M  V30 1193 H 111.151 7.31097 3.6802 0
M  V30 1194 N 113.814 -1.1601 1.06675 0
M  V30 1195 C 115.225 -1.68235 0.809565 0
M  V30 1196 C 115.576 -1.8454 -0.666303 0
M  V30 1197 O 114.701 -1.54374 -1.5165 0
M  V30 1198 C 115.296 -3.05585 1.46299 0
M  V30 1199 C 113.855 -3.54915 1.25349 0
M  V30 1200 C 113.002 -2.30804 1.53703 0
M  V30 1201 H 115.953 -1.00318 1.22971 0
M  V30 1202 H 115.974 -3.70174 0.880431 0
M  V30 1203 H 115.486 -2.93686 2.53713 0
M  V30 1204 H 113.587 -3.72067 0.199261 0
M  V30 1205 H 113.7 -4.36774 1.9689 0
M  V30 1206 H 112.064 -2.36007 0.957739 0
M  V30 1207 H 112.847 -2.21499 2.62284 0
M  V30 1208 N 115.292 -0.849877 -1.32721 0
M  V30 1209 C 116.54 -0.450032 -1.97026 0
M  V30 1210 C 116.861 0.996604 -1.67609 0
M  V30 1211 O 116.131 1.6958 -0.980786 0
M  V30 1212 H 114.711 -0.163426 -0.728904 0
M  V30 1213 H 117.373 -1.08526 -1.6189 0
M  V30 1214 H 116.469 -0.591146 -3.0645 0
M  V30 1215 N 116.77 1.45427 -0.607355 0
M  V30 1216 C 117.702 2.2871 0.149752 0
M  V30 1217 C 118.715 1.39937 0.831958 0
M  V30 1218 O 119.904 1.64313 0.697385 0
M  V30 1219 C 117.004 3.15673 1.23304 0
M  V30 1220 C 116.177 4.32722 0.637996 0
M  V30 1221 C 115.236 5.00895 1.61215 0
M  V30 1222 O 114.262 5.57697 1.13854 0
M  V30 1223 N 115.464 5.00159 2.94655 0
M  V30 1224 H 118.229 2.94328 -0.564882 0
M  V30 1225 H 115.79 1.55612 -0.446823 0
M  V30 1226 H 117.782 3.58144 1.88454 0
M  V30 1227 H 116.352 2.51965 1.8502 0
M  V30 1228 H 115.572 3.93734 -0.191572 0
M  V30 1229 H 116.86 5.08321 0.220665 0
M  V30 1230 H 116.258 4.553 3.35735 0
M  V30 1231 H 114.815 5.46495 3.55228 0
M  V30 1232 N 118.248 0.346503 1.53744 0
M  V30 1233 C 119.664 -0.00530975 1.59599 0
M  V30 1234 C 119.864 -1.48465 1.36236 0
M  V30 1235 O 118.92 -2.24376 1.15808 0
M  V30 1236 C 120.233 0.433516 2.97559 0
M  V30 1237 C 121.781 0.386111 3.10609 0
M  V30 1238 C 122.256 0.800451 4.50951 0
M  V30 1239 N 123.747 0.754753 4.5701 0
M  V30 1240 C 124.482 1.04727 5.63755 0
M  V30 1241 N 123.978 1.4081 6.7834 0
M  V30 1242 N 125.771 0.971316 5.53644 0
M  V30 1243 H 117.922 1.31009 1.67184 0
M  V30 1244 H 120.185 0.534242 0.783128 0
M  V30 1245 H 119.891 1.46509 3.19731 0
M  V30 1246 H 119.765 -0.189753 3.76722 0
M  V30 1247 H 122.152 -0.636295 2.88158 0
M  V30 1248 H 122.233 1.04462 2.33498 0
M  V30 1249 H 121.877 1.82088 4.74137 0
M  V30 1250 H 121.807 0.119386 5.26465 0
M  V30 1251 H 124.298 0.488662 3.74727 0
M  V30 1252 H 124.611 1.61607 7.55714 0
M  V30 1253 H 122.956 1.44657 6.79779 0
M  V30 1254 H 126.147 0.688748 4.63005 0
M  V30 1255 H 126.32 1.20263 6.36742 0
M  V30 1256 N 119.726 -1.57421 0.075193 0
M  V30 1257 C 120.956 -1.97659 -0.601203 0
M  V30 1258 C 121.364 -0.952427 -1.63479 0
M  V30 1259 O 120.707 0.0688241 -1.83571 0
M  V30 1260 C 120.769 -3.34218 -1.32434 0
M  V30 1261 C 120.433 -4.5484 -0.443826 0
M  V30 1262 C 121.43 -5.19034 0.299969 0
M  V30 1263 C 119.115 -5.00952 -0.367709 0
M  V30 1264 C 121.109 -6.27695 1.10807 0
M  V30 1265 C 118.796 -6.09484 0.444058 0
M  V30 1266 C 119.794 -6.72719 1.18061 0
M  V30 1267 O 119.482 -7.79161 1.97898 0
M  V30 1268 H 119.214 -0.65494 -0.167422 0
M  V30 1269 H 121.768 -2.04886 0.145157 0
M  V30 1270 H 119.998 -3.23615 -2.11685 0
M  V30 1271 H 121.687 -3.59038 -1.89331 0
M  V30 1272 H 122.453 -4.84351 0.250776 0
M  V30 1273 H 118.332 -4.51509 -0.930638 0
M  V30 1274 H 121.876 -6.76982 1.68347 0
M  V30 1275 H 117.773 -6.43601 0.494803 0
M  V30 1276 H 118.541 -7.96055 1.90367 0
M  V30 1277 N 121.204 0.198386 -1.56346 0
M  V30 1278 C 122.434 0.934215 -1.84271 0
M  V30 1279 C 122.842 1.77496 -0.655125 0
M  V30 1280 O 122.185 1.7961 0.385488 0
M  V30 1281 C 122.247 1.88278 -3.06254 0
M  V30 1282 C 121.911 1.22431 -4.40295 0
M  V30 1283 C 122.908 0.602839 -5.16393 0
M  V30 1284 C 120.593 1.22915 -4.87029 0
M  V30 1285 C 122.587 -0.0050083 -6.374 0
M  V30 1286 C 120.274 0.617465 -6.07973 0
M  V30 1287 C 121.272 0.00146341 -6.83 0
M  V30 1288 O 120.96 -0.600642 -8.01653 0
M  V30 1289 H 120.692 0.278245 -0.616081 0
M  V30 1290 H 123.246 0.211626 -2.04307 0
M  V30 1291 H 121.476 2.64498 -2.82095 0
M  V30 1292 H 123.165 2.48612 -3.20853 0
M  V30 1293 H 123.931 0.591265 -4.81382 0
M  V30 1294 H 119.81 1.69801 -4.28589 0
M  V30 1295 H 123.354 -0.48643 -6.95902 0
M  V30 1296 H 119.251 0.62653 -6.42452 0
M  V30 1297 H 120.019 -0.497225 -8.16988 0
M  V30 1298 N 122.682 1.50554 0.465978 0
M  V30 1299 C 123.93 1.61479 1.21528 0
M  V30 1300 C 124.251 0.319596 1.92363 0
M  V30 1301 O 123.521 -0.663194 1.84333 0
M  V30 1302 H 122.101 0.595055 0.451573 0
M  V30 1303 H 124.763 1.87355 0.53704 0
M  V30 1304 H 123.859 2.42846 1.96042 0
M  V30 1305 N 124.16 -0.719506 1.40217 0
M  V30 1306 C 125.408 -1.47641 1.3801 0
M  V30 1307 C 125.729 -1.94992 -0.018145 0
M  V30 1308 O 124.999 -1.70073 -0.972207 0
M  V30 1309 H 123.579 -0.547744 0.507923 0
M  V30 1310 H 126.241 -0.853187 1.75233 0
M  V30 1311 H 125.337 -2.35112 2.05253 0
M  V30 1312 N 125.638 -1.25649 -0.95132 0
M  V30 1313 C 126.866 -1.13343 -1.73092 0
M  V30 1314 C 127.281 0.312434 -1.86197 0
M  V30 1315 O 126.638 1.21465 -1.36207 0
M  V30 1316 C 126.689 -1.78602 -3.14299 0
M  V30 1317 O 126.41 -3.17537 -3.01831 0
M  V30 1318 C 127.911 -1.72119 -4.08522 0
M  V30 1319 H 125.131 -0.395181 -0.542285 0
M  V30 1320 H 127.675 -1.66076 -1.19328 0
M  V30 1321 H 125.83 -1.29832 -3.64996 0
M  V30 1322 H 126.244 -3.49676 -3.90931 0
M  V30 1323 H 127.718 -2.22435 -5.052 0
M  V30 1324 H 128.195 -0.685635 -4.33815 0
M  V30 1325 H 128.801 -2.20393 -3.63741 0
M  V30 1326 N 127.117 1.15442 -1.07289 0
M  V30 1327 C 128.027 2.23786 -0.704057 0
M  V30 1328 C 129.043 1.7166 0.284413 0
M  V30 1329 O 130.219 2.00972 0.131205 0
M  V30 1330 C 127.284 3.46535 -0.106792 0
M  V30 1331 C 126.345 4.13654 -1.14842 0
M  V30 1332 C 125.578 5.30544 -0.57956 0
M  V30 1333 O 125.801 5.67187 0.604585 0
M  V30 1334 O 124.735 5.87154 -1.32414 0
M  V30 1335 H 128.561 2.57664 -1.60757 0
M  V30 1336 H 126.146 1.23152 -0.845803 0
M  V30 1337 H 128.028 4.20804 0.224048 0
M  V30 1338 H 126.703 3.14407 0.770049 0
M  V30 1339 H 125.61 3.4131 -1.5316 0
M  V30 1340 H 126.943 4.49861 -1.99714 0
M  V30 1341 N 128.595 0.856903 1.32268 0
M  V30 1342 C 129.842 0.461386 1.97174 0
M  V30 1343 C 130.17 -0.983491 1.67803 0
M  V30 1344 O 129.425 -1.70541 0.959903 0
M  V30 1345 C 129.724 0.649919 3.51441 0
M  V30 1346 C 129.39 2.0656 4.00804 0
M  V30 1347 C 128.052 2.45279 4.13995 0
M  V30 1348 C 130.404 2.98947 4.26943 0
M  V30 1349 C 127.732 3.75653 4.50668 0
M  V30 1350 C 130.084 4.28822 4.65075 0
M  V30 1351 C 128.748 4.67472 4.76472 0
M  V30 1352 H 128.018 0.168833 0.72151 0
M  V30 1353 H 130.665 1.08739 1.57633 0
M  V30 1354 H 128.97 -0.0593018 3.91755 0
M  V30 1355 H 130.667 0.32391 3.9969 0
M  V30 1356 H 127.257 1.75495 3.91024 0
M  V30 1357 H 131.441 2.70265 4.16258 0
M  V30 1358 H 126.697 4.05379 4.57688 0
M  V30 1359 H 130.871 5.0047 4.84255 0
M  V30 1360 H 128.498 5.68539 5.04646 0
M  V30 1361 N 130.073 -1.45103 0.615059 0
M  V30 1362 C 131.322 -2.01396 0.110718 0
M  V30 1363 C 131.635 -1.48834 -1.26916 0
M  V30 1364 O 132.841 -1.97152 -1.86664 0
M  V30 1365 C 131.297 -3.59599 0.14723 0
M  V30 1366 C 130.905 -4.21158 1.52743 0
M  V30 1367 C 132.649 -4.23428 -0.30148 0
M  V30 1368 C 130.556 -5.71535 1.51992 0
M  V30 1369 H 129.486 -0.753061 0.0376241 0
M  V30 1370 H 132.137 -1.66494 0.77149 0
M  V30 1371 H 130.519 -3.91724 -0.580339 0
M  V30 1372 H 131.693 -4.00594 2.2773 0
M  V30 1373 H 130.008 -3.69552 1.91886 0
M  V30 1374 H 132.605 -5.33703 -0.326392 0
M  V30 1375 H 132.948 -3.94629 -1.32565 0
M  V30 1376 H 133.481 -3.96047 0.373065 0
M  V30 1377 H 130.22 -6.05044 2.52193 0
M  V30 1378 H 129.74 -5.94268 0.81274 0
M  V30 1379 H 131.419 -6.34873 1.24681 0
M  V30 1380 N 131.551 -0.354651 -1.53558 0
M  V30 1381 C 132.828 0.294281 -1.93374 0
M  V30 1382 C 133.208 1.67313 -1.28723 0
M  V30 1383 O 132.556 2.24179 -0.442247 0
M  V30 1384 C 132.766 0.355445 -3.47185 0
M  V30 1385 C 134.114 0.601007 -4.20325 0
M  V30 1386 O 135.138 0.437106 -3.53508 0
M  V30 1387 O 133.997 0.919322 -5.38712 0
M  V30 1388 H 131.091 0.174033 -0.808481 0
M  V30 1389 H 133.637 -0.406638 -1.64756 0
M  V30 1390 H 132.409 -0.611729 -3.86489 0
M  V30 1391 H 132.032 1.1027 -3.82003 0
M  V30 1392 N 133.029 1.57378 -0.0835403 0
M  V30 1393 C 133.939 2.16897 0.894021 0
M  V30 1394 C 134.955 1.13528 1.31861 0
M  V30 1395 O 136.131 1.45848 1.3889 0
M  V30 1396 C 133.196 2.72831 2.13925 0
M  V30 1397 C 132.257 3.91115 1.76997 0
M  V30 1398 C 131.49 4.44371 2.95584 0
M  V30 1399 O 131.713 3.96596 4.09961 0
M  V30 1400 O 130.647 5.35549 2.74719 0
M  V30 1401 H 134.473 3.00814 0.417679 0
M  V30 1402 H 132.058 1.48741 0.140181 0
M  V30 1403 H 133.94 3.0863 2.86924 0
M  V30 1404 H 132.615 1.91967 2.60635 0
M  V30 1405 H 131.522 3.60148 1.01214 0
M  V30 1406 H 132.855 4.73307 1.3506 0
M  V30 1407 N 134.507 -0.190092 1.56449 0
M  V30 1408 C 135.437 -1.23816 1.97969 0
M  V30 1409 C 136.418 -1.47201 0.852395 0
M  V30 1410 O 137.603 -1.58854 1.1171 0
M  V30 1411 C 134.733 -2.5813 2.3235 0
M  V30 1412 C 133.687 -2.49348 3.47864 0
M  V30 1413 C 133.013 -3.8798 3.67934 0
M  V30 1414 C 134.313 -2.01424 4.81898 0
M  V30 1415 H 136.007 -0.89311 2.85769 0
M  V30 1416 H 133.553 -0.428177 1.37487 0
M  V30 1417 H 135.506 -3.31637 2.59991 0
M  V30 1418 H 134.23 -2.94386 1.41438 0
M  V30 1419 H 132.889 -1.78297 3.20321 0
M  V30 1420 H 132.537 -4.21597 2.74344 0
M  V30 1421 H 132.237 -3.82978 4.45648 0
M  V30 1422 H 133.761 -4.63101 3.97957 0
M  V30 1423 H 135.175 -2.64693 5.08538 0
M  V30 1424 H 133.572 -2.07413 5.63116 0
M  V30 1425 H 134.642 -0.967677 4.75146 0
M  V30 1426 N 135.985 -1.50799 -0.457987 0
M  V30 1427 C 136.895 -1.73426 -1.57989 0
M  V30 1428 C 137.911 -0.617745 -1.62665 0
M  V30 1429 O 139.087 -0.897614 -1.80291 0
M  V30 1430 C 136.152 -1.83557 -2.94122 0
M  V30 1431 C 135.213 -3.07345 -2.99729 0
M  V30 1432 C 134.446 -3.16983 -4.29368 0
M  V30 1433 O 134.669 -2.33077 -5.20607 0
M  V30 1434 O 133.603 -4.09812 -4.40837 0
M  V30 1435 H 137.429 -2.68555 -1.41817 0
M  V30 1436 H 135.014 -1.35052 -0.638859 0
M  V30 1437 H 136.896 -1.92326 -3.74952 0
M  V30 1438 H 135.571 -0.916137 -3.10465 0
M  V30 1439 H 134.478 -3.04068 -2.1793 0
M  V30 1440 H 135.811 -3.9891 -2.88326 0
M  V30 1441 N 137.463 0.71206 -1.40597 0
M  V30 1442 C 138.691 1.50111 -1.42388 0
M  V30 1443 C 139.106 1.88784 -0.0245395 0
M  V30 1444 O 138.463 1.55681 0.952351 0
M  V30 1445 C 138.514 2.7742 -2.31776 0
M  V30 1446 O 138.235 2.40382 -3.66262 0
M  V30 1447 C 139.736 3.7129 -2.42196 0
M  V30 1448 H 136.956 0.46314 -0.485533 0
M  V30 1449 H 139.5 0.878068 -1.8469 0
M  V30 1450 H 137.655 3.36001 -1.92827 0
M  V30 1451 H 138.069 3.22324 -4.13772 0
M  V30 1452 H 139.543 4.57448 -3.08943 0
M  V30 1453 H 140.02 4.14641 -1.44809 0
M  V30 1454 H 140.626 3.18619 -2.81712 0
M  V30 1455 N 138.941 1.26152 0.944643 0
M  V30 1456 C 139.871 1.09902 2.06019 0
M  V30 1457 C 140.852 0.00519538 1.70099 0
M  V30 1458 O 142.037 0.176583 1.93396 0
M  V30 1459 C 139.167 0.727562 3.39594 0
M  V30 1460 C 138.121 1.77274 3.89561 0
M  V30 1461 C 137.447 1.25569 5.19747 0
M  V30 1462 C 138.747 3.17357 4.14827 0
M  V30 1463 H 140.441 2.03217 2.19871 0
M  V30 1464 H 137.987 0.978452 1.05652 0
M  V30 1465 H 139.94 0.600777 4.17095 0
M  V30 1466 H 138.664 -0.241287 3.25707 0
M  V30 1467 H 137.323 1.88814 3.14237 0
M  V30 1468 H 136.971 0.276783 5.02238 0
M  V30 1469 H 136.671 1.95433 5.54148 0
M  V30 1470 H 138.195 1.1415 5.99835 0
M  V30 1471 H 139.609 3.08914 4.82954 0
M  V30 1472 H 138.006 3.84781 4.60504 0
M  V30 1473 H 139.076 3.63673 3.20734 0
M  V30 1474 N 140.419 -1.14872 1.07899 0
M  V30 1475 C 141.659 -1.8745 0.814965 0
M  V30 1476 C 142.023 -1.80758 -0.64733 0
M  V30 1477 O 143.224 -2.48422 -1.02664 0
M  V30 1478 C 141.495 -3.32286 1.31607 0
M  V30 1479 S 143.054 -4.22537 1.18357 0
M  V30 1480 H 139.872 -0.646833 0.295174 0
M  V30 1481 H 142.474 -1.38555 1.37923 0
M  V30 1482 H 141.178 -3.34703 2.37491 0
M  V30 1483 H 140.709 -3.86238 0.747261 0
M  V30 1484 H 142.724 -4.96044 0.124586 0
M  V30 1485 N 141.898 -0.863906 -1.31812 0
M  V30 1486 C 142.83 -0.272485 -2.27575 0
M  V30 1487 C 143.843 0.56104 -1.52827 0
M  V30 1488 O 145.032 0.384021 -1.7432 0
M  V30 1489 C 142.132 0.63283 -3.32939 0
M  V30 1490 C 141.305 -0.166902 -4.37081 0
M  V30 1491 C 140.364 0.665608 -5.21973 0
M  V30 1492 O 139.39 0.0958091 -5.69119 0
M  V30 1493 N 140.592 1.9787 -5.45736 0
M  V30 1494 H 143.357 -1.0954 -2.78964 0
M  V30 1495 H 140.918 -0.724791 -1.4477 0
M  V30 1496 H 142.91 1.19532 -3.86645 0
M  V30 1497 H 141.48 1.35642 -2.81638 0
M  V30 1498 H 140.7 -0.910838 -3.83533 0
M  V30 1499 H 141.988 -0.715874 -5.03739 0
M  V30 1500 H 141.386 2.46484 -5.09178 0
M  V30 1501 H 139.943 2.48911 -6.024 0
M  V30 1502 N 143.376 1.44774 -0.622745 0
M  V30 1503 C 144.323 2.30635 0.0871679 0
M  V30 1504 C 145.293 1.42994 0.845097 0
M  V30 1505 O 146.478 1.71907 0.827812 0
M  V30 1506 C 143.618 3.28144 1.06844 0
M  V30 1507 C 142.731 4.30888 0.309809 0
M  V30 1508 C 141.866 5.15494 1.28215 0
M  V30 1509 C 140.905 6.09953 0.512198 0
M  V30 1510 N 140.042 6.87287 1.43458 0
M  V30 1511 H 144.882 2.90803 -0.650974 0
M  V30 1512 H 142.419 1.43286 -0.33281 0
M  V30 1513 H 144.377 3.83157 1.65066 0
M  V30 1514 H 143.007 2.69695 1.77382 0
M  V30 1515 H 142.059 3.78414 -0.388181 0
M  V30 1516 H 143.371 4.97955 -0.290254 0
M  V30 1517 H 142.525 5.74983 1.93596 0
M  V30 1518 H 141.264 4.48481 1.91614 0
M  V30 1519 H 140.269 5.49581 -0.155151 0
M  V30 1520 H 141.494 6.78999 -0.116958 0
M  V30 1521 H 139.44 6.2295 2.05594 0
M  V30 1522 H 139.357 7.50763 0.888335 0
M  V30 1523 H 140.625 7.51306 2.07749 0
M  V30 1524 N 144.854 0.36279 1.53368 0
M  V30 1525 C 146.27 0.0116182 1.59596 0
M  V30 1526 C 146.47 -1.47012 1.37803 0
M  V30 1527 O 145.526 -2.23136 1.18181 0
M  V30 1528 C 146.839 0.465052 2.97082 0
M  V30 1529 C 148.387 0.419033 3.10182 0
M  V30 1530 C 148.862 0.848235 4.50077 0
M  V30 1531 N 150.353 0.803183 4.56183 0
M  V30 1532 C 151.088 1.107 5.62613 0
M  V30 1533 N 150.584 1.47996 6.76808 0
M  V30 1534 N 152.377 1.02998 5.52583 0
M  V30 1535 H 144.528 1.32775 1.65785 0
M  V30 1536 H 146.791 0.542518 0.777417 0
M  V30 1537 H 146.497 1.49892 3.18159 0
M  V30 1538 H 146.371 -0.149786 3.76902 0
M  V30 1539 H 148.758 -0.605696 2.88817 0
M  V30 1540 H 148.839 1.06933 2.32377 0
M  V30 1541 H 148.483 1.87107 4.7218 0
M  V30 1542 H 148.413 0.175218 5.26308 0
M  V30 1543 H 150.904 0.52838 3.74188 0
M  V30 1544 H 151.217 1.69613 7.53957 0
M  V30 1545 H 149.562 1.51859 6.78206 0
M  V30 1546 H 152.753 0.737817 4.62249 0
M  V30 1547 H 152.926 1.2701 6.35431 0
M  V30 1548 N 146.332 -1.57332 0.0918853 0
M  V30 1549 C 147.295 -2.12708 -0.85369 0
M  V30 1550 C 148.295 -1.05561 -1.213 0
M  V30 1551 O 149.485 -1.31461 -1.14296 0
M  V30 1552 C 146.617 -2.64503 -2.15061 0
M  V30 1553 H 147.81 -2.97573 -0.3729 0
M  V30 1554 H 145.363 -1.55509 -0.157072 0
M  V30 1555 H 146.098 -1.83149 -2.67632 0
M  V30 1556 H 145.883 -3.4284 -1.90272 0
M  V30 1557 H 147.373 -3.07351 -2.82711 0
M  V30 1558 N 147.81 0.181792 -1.56548 0
M  V30 1559 C 148.74 1.22765 -1.98623 0
M  V30 1560 C 149.721 1.46747 -0.860189 0
M  V30 1561 O 150.906 1.58259 -1.12551 0
M  V30 1562 C 148.036 2.56894 -2.33715 0
M  V30 1563 C 146.99 2.475 -3.49182 0
M  V30 1564 C 146.316 3.86023 -3.69986 0
M  V30 1565 C 147.616 1.98866 -4.82959 0
M  V30 1566 H 149.31 0.877942 -2.86239 0
M  V30 1567 H 146.856 0.42088 -1.37712 0
M  V30 1568 H 148.809 3.30253 -2.61746 0
M  V30 1569 H 147.533 2.93632 -1.42997 0
M  V30 1570 H 146.192 1.76596 -3.21262 0
M  V30 1571 H 145.84 4.20136 -2.76576 0
M  V30 1572 H 145.54 3.80609 -4.47672 0
M  V30 1573 H 147.064 4.60984 -4.00407 0
M  V30 1574 H 148.478 2.61992 -5.09934 0
M  V30 1575 H 146.875 2.04424 -5.64208 0
M  V30 1576 H 147.945 0.942465 -4.75653 0
M  V30 1577 N 149.288 1.51039 0.449983 0
M  V30 1578 C 150.22 1.67617 1.56324 0
M  V30 1579 C 151.233 0.557083 1.52972 0
M  V30 1580 O 152.422 0.830989 1.57977 0
M  V30 1581 C 149.522 1.66402 2.95235 0
M  V30 1582 C 148.695 2.9469 3.23229 0
M  V30 1583 C 147.754 2.85832 4.41799 0
M  V30 1584 O 146.78 3.59785 4.41071 0
M  V30 1585 N 147.982 2.00821 5.44657 0
M  V30 1586 H 150.747 2.63648 1.42512 0
M  V30 1587 H 148.308 1.48767 0.638737 0
M  V30 1588 H 150.3 1.58062 3.72557 0
M  V30 1589 H 148.87 0.780182 3.02708 0
M  V30 1590 H 148.09 3.16996 2.34323 0
M  V30 1591 H 149.378 3.79636 3.38754 0
M  V30 1592 H 148.776 1.40091 5.48079 0
M  V30 1593 H 147.333 1.98368 6.20881 0
M  V30 1594 N 150.766 -0.704594 1.40972 0
M  V30 1595 C 151.729 -1.80035 1.41845 0
M  V30 1596 C 152.729 -1.57774 0.310474 0
M  V30 1597 O 153.919 -1.64613 0.56992 0
M  V30 1598 C 151.051 -3.18284 1.22098 0
M  V30 1599 H 152.244 -1.80658 2.3938 0
M  V30 1600 H 149.797 -0.911329 1.26982 0
M  V30 1601 H 150.532 -3.23306 0.253672 0
M  V30 1602 H 150.317 -3.35843 2.02366 0
M  V30 1603 H 151.807 -3.98289 1.25522 0
M  V30 1604 N 152.244 -1.26651 -0.937939 0
M  V30 1605 C 153.474 -1.15006 -1.71631 0
M  V30 1606 C 153.882 0.297026 -1.86854 0
M  V30 1607 O 153.225 1.21493 -1.37786 0
M  V30 1608 C 153.287 -1.74984 -3.14039 0
M  V30 1609 C 152.951 -3.24103 -3.2219 0
M  V30 1610 C 153.948 -4.20877 -3.05219 0
M  V30 1611 C 151.633 -3.64625 -3.45476 0
M  V30 1612 C 153.627 -5.56151 -3.11408 0
M  V30 1613 C 151.314 -5.00032 -3.513 0
M  V30 1614 C 152.312 -5.95604 -3.34282 0
M  V30 1615 O 152 -7.28545 -3.3982 0
M  V30 1616 H 151.732 -0.401183 -0.544085 0
M  V30 1617 H 154.286 -1.67832 -1.18413 0
M  V30 1618 H 152.516 -1.16624 -3.68695 0
M  V30 1619 H 154.205 -1.58199 -3.73802 0
M  V30 1620 H 154.971 -3.90908 -2.87081 0
M  V30 1621 H 150.85 -2.90718 -3.57777 0
M  V30 1622 H 154.394 -6.30727 -2.98043 0
M  V30 1623 H 150.291 -5.29659 -3.68959 0
M  V30 1624 H 151.059 -7.3686 -3.56343 0
M  V30 1625 N 153.722 1.14298 -1.08507 0
M  V30 1626 C 154.669 2.19414 -0.715965 0
M  V30 1627 C 155.639 1.63399 0.298326 0
M  V30 1628 O 156.824 1.89929 0.182101 0
M  V30 1629 C 153.964 3.44845 -0.132534 0
M  V30 1630 C 153.077 4.15007 -1.19973 0
M  V30 1631 C 152.212 5.28024 -0.580048 0
M  V30 1632 C 151.251 5.9002 -1.62921 0
M  V30 1633 N 150.388 6.94485 -1.03125 0
M  V30 1634 H 155.228 2.50336 -1.61666 0
M  V30 1635 H 152.765 1.2293 -0.807882 0
M  V30 1636 H 154.723 4.16601 0.223454 0
M  V30 1637 H 153.353 3.14403 0.731467 0
M  V30 1638 H 152.405 3.41629 -1.67313 0
M  V30 1639 H 153.717 4.57178 -1.99473 0
M  V30 1640 H 152.871 6.06455 -0.172364 0
M  V30 1641 H 151.61 4.87076 0.246603 0
M  V30 1642 H 150.615 5.10291 -2.04654 0
M  V30 1643 H 151.84 6.33042 -2.45835 0
M  V30 1644 H 149.786 6.55612 -0.225711 0
M  V30 1645 H 149.703 7.35148 -1.76334 0
M  V30 1646 H 150.971 7.7679 -0.649458 0
M  V30 1647 N 155.201 0.870884 1.31352 0
M  V30 1648 C 156.131 0.343096 2.30966 0
M  V30 1649 C 157.112 -0.566507 1.60389 0
M  V30 1650 O 158.297 -0.483336 1.88089 0
M  V30 1651 C 155.427 -0.455487 3.443 0
M  V30 1652 C 154.381 0.361103 4.26474 0
M  V30 1653 C 153.707 -0.563221 5.31725 0
M  V30 1654 C 155.007 1.59566 4.97329 0
M  V30 1655 H 156.701 1.17548 2.75359 0
M  V30 1656 H 154.247 0.566686 1.32381 0
M  V30 1657 H 156.2 -0.83525 4.13039 0
M  V30 1658 H 154.924 -1.32139 2.98675 0
M  V30 1659 H 153.583 0.722825 3.59403 0
M  V30 1660 H 153.231 -1.42643 4.82351 0
M  V30 1661 H 152.931 -0.0207409 5.87596 0
M  V30 1662 H 154.455 -0.939808 6.03324 0
M  V30 1663 H 155.869 1.28728 5.58661 0
M  V30 1664 H 154.266 2.07728 5.63 0
M  V30 1665 H 155.336 2.34798 4.24262 0
M  V30 1666 N 156.679 -1.44442 0.630414 0
M  V30 1667 C 157.956 -1.9549 0.0655657 0
M  V30 1668 C 158.336 -1.5724 -1.40851 0
M  V30 1669 O 157.684 -0.846116 -2.12257 0
M  V30 1670 C 157.894 -3.47812 0.287691 0
M  V30 1671 C 159.242 -4.24216 0.180513 0
M  V30 1672 O 160.266 -3.55526 0.219019 0
M  V30 1673 O 159.125 -5.46434 0.0848493 0
M  V30 1674 H 156.219 -0.826688 -0.0227177 0
M  V30 1675 H 158.765 -1.54496 0.702068 0
M  V30 1676 H 157.537 -3.687 1.31056 0
M  V30 1677 H 157.16 -3.95751 -0.382984 0
M  V30 1678 N 158.157 -0.370918 -1.53173 0
M  V30 1679 C 159.568 0.107139 -1.86392 0
M  V30 1680 C 159.919 1.47714 -1.29132 0
M  V30 1681 O 159.044 2.07464 -0.615439 0
M  V30 1682 C 159.639 0.201187 -3.38202 0
M  V30 1683 C 158.198 0.623507 -3.712 0
M  V30 1684 C 157.345 -0.225978 -2.76378 0
M  V30 1685 H 160.296 -0.58951 -1.47345 0
M  V30 1686 H 160.317 1.02377 -3.66468 0
M  V30 1687 H 159.829 -0.796058 -3.79848 0
M  V30 1688 H 157.93 1.62879 -3.35114 0
M  V30 1689 H 158.043 0.394414 -4.77474 0
M  V30 1690 H 156.407 0.305962 -2.52856 0
M  V30 1691 H 157.19 -1.22086 -3.20858 0
M  V30 1692 N 159.635 1.57281 -0.100228 0
M  V30 1693 C 160.567 2.11342 0.886972 0
M  V30 1694 C 161.58 1.05182 1.24261 0
M  V30 1695 O 162.769 1.32613 1.19483 0
M  V30 1696 C 159.869 2.5825 2.19454 0
M  V30 1697 C 159.042 3.88302 2.01346 0
M  V30 1698 C 158.101 4.21004 3.15661 0
M  V30 1699 O 157.127 4.9014 2.89398 0
M  V30 1700 N 158.329 3.76818 4.41575 0
M  V30 1701 H 161.094 2.96668 0.425216 0
M  V30 1702 H 158.655 1.61678 0.0847334 0
M  V30 1703 H 160.647 2.7717 2.94888 0
M  V30 1704 H 159.217 1.77907 2.57037 0
M  V30 1705 H 158.437 3.7848 1.10212 0
M  V30 1706 H 159.725 4.73375 1.8653 0
M  V30 1707 H 159.123 3.2102 4.65792 0
M  V30 1708 H 157.68 4.00882 5.13942 0
M  V30 1709 N 161.113 -0.173488 1.56642 0
M  V30 1710 C 162.353 -0.896984 1.83667 0
M  V30 1711 C 162.717 -1.79523 0.680842 0
M  V30 1712 O 163.918 -2.55616 0.831488 0
M  V30 1713 C 162.189 -1.67351 3.15798 0
M  V30 1714 S 163.748 -2.44607 3.64298 0
M  V30 1715 H 160.566 -0.300464 0.644393 0
M  V30 1716 H 163.168 -0.158775 1.94854 0
M  V30 1717 H 161.872 -1.00462 3.97914 0
M  V30 1718 H 161.403 -2.45313 3.07546 0
M  V30 1719 H 163.418 -3.69261 3.31452 0
M  V30 1720 N 162.591 -1.51276 -0.441967 0
M  V30 1721 C 163.837 -1.6492 -1.1905 0
M  V30 1722 C 164.192 -0.358731 -1.89026 0
M  V30 1723 O 163.485 0.645193 -1.8041 0
M  V30 1724 C 163.679 -2.78746 -2.23686 0
M  V30 1725 C 163.508 -4.18737 -1.63979 0
M  V30 1726 C 162.278 -4.84739 -1.42674 0
M  V30 1727 C 164.476 -5.01988 -1.11858 0
M  V30 1728 N 162.458 -6.08858 -0.785159 0
M  V30 1729 C 163.829 -6.17071 -0.601989 0
M  V30 1730 C 165.884 -4.87551 -1.0099 0
M  V30 1731 C 164.587 -7.19299 0.0126012 0
M  V30 1732 C 166.613 -5.89983 -0.409206 0
M  V30 1733 C 165.975 -7.04333 0.0968651 0
M  V30 1734 H 162.074 -0.657416 -0.423471 0
M  V30 1735 H 164.658 -1.8849 -0.48782 0
M  V30 1736 H 162.829 -2.56848 -2.91348 0
M  V30 1737 H 164.561 -2.81595 -2.90666 0
M  V30 1738 H 161.316 -4.42528 -1.68719 0
M  V30 1739 H 161.74 -6.75282 -0.481942 0
M  V30 1740 H 166.382 -3.99401 -1.38703 0
M  V30 1741 H 164.1 -8.071 0.401879 0
M  V30 1742 H 167.686 -5.8088 -0.327079 0
M  V30 1743 H 166.566 -7.82238 0.554373 0
M  V30 1744 N 164.069 0.697108 -1.41344 0
M  V30 1745 C 165.317 1.45426 -1.40341 0
M  V30 1746 C 165.638 1.94996 -0.0128787 0
M  V30 1747 O 164.908 1.71599 0.945027 0
M  V30 1748 H 163.488 0.539594 -0.516573 0
M  V30 1749 H 166.15 0.825201 -1.76569 0
M  V30 1750 H 165.246 2.31817 -2.08967 0
M  V30 1751 N 165.547 1.27147 0.931209 0
M  V30 1752 C 166.793 1.13446 1.68101 0
M  V30 1753 C 167.126 -0.319628 1.91552 0
M  V30 1754 O 166.401 -1.23407 1.50336 0
M  V30 1755 C 166.684 1.91482 3.0497 0
M  V30 1756 C 166.537 3.44855 2.88782 0
M  V30 1757 C 167.856 1.71651 4.05246 0
M  V30 1758 H 164.975 0.413498 0.610072 0
M  V30 1759 H 167.617 1.56261 1.08086 0
M  V30 1760 H 165.767 1.55095 3.56199 0
M  V30 1761 H 167.439 3.9105 2.44698 0
M  V30 1762 H 165.682 3.71373 2.24198 0
M  V30 1763 H 166.353 3.94694 3.85902 0
M  V30 1764 H 168.829 2.0337 3.63015 0
M  V30 1765 H 167.705 2.28651 4.99009 0
M  V30 1766 H 167.966 0.663555 4.37092 0
M  V30 1767 N 167.025 -1.13721 1.09112 0
M  V30 1768 C 167.973 -2.21103 0.722219 0
M  V30 1769 C 168.967 -1.67147 -0.275374 0
M  V30 1770 O 170.173 -1.79477 -0.137176 0
M  V30 1771 H 166.548 -0.720445 0.215553 0
M  V30 1772 H 168.519 -2.49483 1.63709 0
M  V30 1773 C 167.268 -3.47352 0.15543 0
M  V30 1774 H 166.591 -3.89206 0.914246 0
M  V30 1775 H 168.031 -4.2395 -0.0647967 0
M  V30 1776 C 166.49 -3.1814 -1.10852 0
M  V30 1777 O 167.02 -3.36604 -2.19227 0
M  V30 1778 N 165.226 -2.72045 -1.02176 0
M  V30 1779 H 164.773 -2.57221 -0.139764 0
M  V30 1780 H 164.731 -2.52875 -1.8682 0
M  V30 1781 N 168.503 -0.877838 -1.30888 0
M  V30 1782 C 169.749 -0.493426 -1.96706 0
M  V30 1783 C 170.082 0.953504 -1.6918 0
M  V30 1784 O 169.357 1.67266 -0.992594 0
M  V30 1785 C 169.64 -0.760429 -3.51979 0
M  V30 1786 C 169.493 -2.25747 -3.89048 0
M  V30 1787 C 170.812 -0.232148 -4.39487 0
M  V30 1788 H 167.931 -0.180746 -0.714493 0
M  V30 1789 H 170.573 -1.10052 -1.54882 0
M  V30 1790 H 168.723 -0.243715 -3.87735 0
M  V30 1791 H 170.395 -2.84204 -3.63354 0
M  V30 1792 H 168.638 -2.72694 -3.37373 0
M  V30 1793 H 169.309 -2.39491 -4.97341 0
M  V30 1794 H 171.785 -0.674314 -4.106 0
M  V30 1795 H 170.661 -0.448355 -5.47066 0
M  V30 1796 H 170.922 0.866297 -4.33529 0
M  V30 1797 N 169.982 1.44106 -0.638065 0
M  V30 1798 C 170.914 2.28976 0.101205 0
M  V30 1799 C 171.927 1.4167 0.802088 0
M  V30 1800 O 173.116 1.65755 0.662375 0
M  V30 1801 C 170.216 3.18217 1.16581 0
M  V30 1802 C 169.389 4.33978 0.546066 0
M  V30 1803 C 168.448 5.04202 1.50554 0
M  V30 1804 O 167.474 5.59986 1.01999 0
M  V30 1805 N 168.676 5.06296 2.8398 0
M  V30 1806 H 171.441 2.93064 -0.627186 0
M  V30 1807 H 169.002 1.54629 -0.479731 0
M  V30 1808 H 170.994 3.62061 1.80815 0
M  V30 1809 H 169.564 2.55833 1.79634 0
M  V30 1810 H 168.784 3.93239 -0.275046 0
M  V30 1811 H 170.072 5.08675 0.112793 0
M  V30 1812 H 169.47 4.62319 3.26002 0
M  V30 1813 H 168.027 5.53907 3.43556 0
M  V30 1814 N 171.46 0.379036 1.52974 0
M  V30 1815 C 172.871 -0.0972525 1.86447 0
M  V30 1816 C 173.222 -1.47027 1.29914 0
M  V30 1817 O 172.347 -2.07135 0.626433 0
M  V30 1818 C 172.942 -0.183248 3.38304 0
M  V30 1819 C 171.501 -0.603812 3.71525 0
M  V30 1820 C 170.648 0.240632 2.76254 0
M  V30 1821 H 173.599 0.597316 1.4703 0
M  V30 1822 H 173.62 -1.00432 3.67006 0
M  V30 1823 H 173.132 0.816191 3.79421 0
M  V30 1824 H 171.233 -1.61099 3.35973 0
M  V30 1825 H 171.346 -0.369086 4.77676 0
M  V30 1826 H 169.71 -0.292548 2.53014 0
M  V30 1827 H 170.493 1.23786 3.20206 0
M  V30 1828 N 172.938 -1.57226 0.108567 0
M  V30 1829 C 174.168 -1.9889 -0.559142 0
M  V30 1830 C 174.576 -0.986889 -1.61422 0
M  V30 1831 O 173.919 0.0298705 -1.83676 0
M  V30 1832 C 173.981 -3.36952 -1.25315 0
M  V30 1833 C 173.645 -4.55679 -0.347248 0
M  V30 1834 C 174.642 -5.18281 0.409996 0
M  V30 1835 C 172.327 -5.0162 -0.261367 0
M  V30 1836 C 174.321 -6.25203 1.24096 0
M  V30 1837 C 172.008 -6.08405 0.573238 0
M  V30 1838 C 173.006 -6.70063 1.32304 0
M  V30 1839 O 172.694 -7.74788 2.14381 0
M  V30 1840 H 172.426 -0.658343 -0.153492 0
M  V30 1841 H 174.98 -2.04532 0.188584 0
M  V30 1842 H 173.21 -3.28032 -2.04773 0
M  V30 1843 H 174.899 -3.62974 -1.81673 0
M  V30 1844 H 175.665 -4.8371 0.353457 0
M  V30 1845 H 171.544 -4.53381 -0.834656 0
M  V30 1846 H 175.088 -6.73259 1.82669 0
M  V30 1847 H 170.985 -6.42406 0.631208 0
M  V30 1848 H 171.753 -7.91837 2.07209 0
M  V30 1849 N 174.416 0.165178 -1.56732 0
M  V30 1850 C 175.641 0.900253 -1.86843 0
M  V30 1851 C 176.066 1.74766 -0.695596 0
M  V30 1852 O 175.424 1.77786 0.35522 0
M  V30 1853 C 175.472 1.74777 -3.15413 0
M  V30 1854 O 174.576 2.85007 -2.98068 0
M  V30 1855 H 173.917 0.251832 -0.614391 0
M  V30 1856 H 176.447 0.161468 -2.03962 0
M  V30 1857 H 176.457 2.14646 -3.46974 0
M  V30 1858 H 175.132 1.12537 -4.00385 0
M  V30 1859 H 173.709 2.48676 -2.77875 0
M  V30 1860 N 175.894 1.51508 0.433938 0
M  V30 1861 C 177.142 1.6402 1.18075 0
M  V30 1862 C 177.463 0.360328 1.91642 0
M  V30 1863 O 176.733 -0.623945 1.85698 0
M  V30 1864 H 175.313 0.6045 0.43885 0
M  V30 1865 H 177.975 1.88452 0.497178 0
M  V30 1866 H 177.071 2.46949 1.90847 0
M  V30 1867 N 177.372 -0.689602 1.41712 0
M  V30 1868 C 178.597 -1.48329 1.44959 0
M  V30 1869 C 179.022 -1.8801 0.0581283 0
M  V30 1870 O 178.38 -1.55026 -0.940035 0
M  V30 1871 C 178.428 -2.71835 2.36935 0
M  V30 1872 O 177.532 -3.69549 1.8305 0
M  V30 1873 H 176.873 -0.446199 0.491734 0
M  V30 1874 H 179.403 -0.847127 1.86239 0
M  V30 1875 H 179.413 -3.20076 2.53013 0
M  V30 1876 H 178.088 -2.42291 3.38035 0
M  V30 1877 H 176.665 -3.2851 1.76452 0
M  V30 1878 N 178.85 -1.27639 -0.924453 0
M  V30 1879 C 180.261 -1.12834 -1.48746 0
M  V30 1880 C 180.612 0.285505 -1.94112 0
M  V30 1881 O 179.737 1.17874 -1.81479 0
M  V30 1882 C 180.332 -2.04217 -2.70334 0
M  V30 1883 C 178.891 -1.93509 -3.22848 0
M  V30 1884 C 178.038 -1.96583 -1.95577 0
M  V30 1885 H 180.989 -1.40484 -0.738233 0
M  V30 1886 H 181.01 -1.59989 -3.4523 0
M  V30 1887 H 180.522 -3.07111 -2.37285 0
M  V30 1888 H 178.623 -0.936131 -3.60649 0
M  V30 1889 H 178.736 -2.79917 -3.88823 0
M  V30 1890 H 177.1 -1.4085 -2.12211 0
M  V30 1891 H 177.883 -3.01137 -1.64837 0
M  V30 1892 N 180.328 1.1314 -1.09713 0
M  V30 1893 C 181.291 2.16831 -0.742751 0
M  V30 1894 C 182.291 1.59159 0.229129 0
M  V30 1895 O 183.481 1.74199 0.00693237 0
M  V30 1896 C 180.613 3.40756 -0.0989168 0
M  V30 1897 H 181.806 2.49695 -1.66109 0
M  V30 1898 H 179.359 1.2802 -0.896699 0
M  V30 1899 H 180.094 3.13485 0.830514 0
M  V30 1900 H 179.879 3.83888 -0.798265 0
M  V30 1901 H 181.369 4.17386 0.133524 0
M  V30 1902 N 181.806 0.884767 1.30421 0
M  V30 1903 C 182.754 0.340869 2.30089 0
M  V30 1904 C 183.748 -0.55201 1.60154 0
M  V30 1905 O 184.954 -0.436467 1.74628 0
M  V30 1906 H 181.329 0.0915739 0.746404 0
M  V30 1907 H 183.3 1.19513 2.73421 0
M  V30 1908 C 182.049 -0.429779 3.45034 0
M  V30 1909 H 181.372 0.248024 3.9903 0
M  V30 1910 H 182.812 -0.775445 4.16849 0
M  V30 1911 C 181.271 -1.62677 2.95022 0
M  V30 1912 O 181.801 -2.72614 2.95033 0
M  V30 1913 N 180.007 -1.46387 2.51036 0
M  V30 1914 H 179.554 -0.569506 2.51226 0
M  V30 1915 H 179.512 -2.26612 2.17932 0
M  V30 1916 N 183.284 -1.43765 0.645699 0
M  V30 1917 C 184.531 -2.01898 0.15604 0
M  V30 1918 C 184.859 -1.50887 -1.22733 0
M  V30 1919 O 184.114 -0.689271 -1.8316 0
M  V30 1920 C 184.413 -3.57238 0.107679 0
M  V30 1921 C 184.079 -4.27564 1.43178 0
M  V30 1922 C 182.741 -4.46492 1.7944 0
M  V30 1923 C 185.093 -4.67454 2.30513 0
M  V30 1924 C 182.421 -5.02573 3.02716 0
M  V30 1925 C 184.773 -5.24901 3.53074 0
M  V30 1926 C 183.437 -5.42046 3.89541 0
M  V30 1927 H 182.707 -0.738797 0.057099 0
M  V30 1928 H 185.354 -1.72341 0.834912 0
M  V30 1929 H 183.659 -3.86293 -0.654618 0
M  V30 1930 H 185.356 -3.99965 -0.287938 0
M  V30 1931 H 181.946 -4.13171 1.13963 0
M  V30 1932 H 186.13 -4.5253 2.0379 0
M  V30 1933 H 181.386 -5.14033 3.31028 0
M  V30 1934 H 185.56 -5.54758 4.20971 0
M  V30 1935 H 183.187 -5.85268 4.85145 0
M  V30 1936 N 184.763 -0.387143 -1.52771 0
M  V30 1937 C 185.726 0.436939 -2.24997 0
M  V30 1938 C 186.726 0.991991 -1.26555 0
M  V30 1939 O 187.916 0.874335 -1.50669 0
M  V30 1940 C 185.048 1.61281 -3.00335 0
M  V30 1941 H 186.241 -0.195365 -2.99263 0
M  V30 1942 H 183.794 -0.139218 -1.55679 0
M  V30 1943 H 184.529 2.2826 -2.30364 0
M  V30 1944 H 184.314 1.22154 -3.72587 0
M  V30 1945 H 185.804 2.19629 -3.5518 0
M  V30 1946 N 186.241 1.57166 -0.116904 0
M  V30 1947 C 187.487 1.95412 0.542405 0
M  V30 1948 C 187.82 1.00019 1.66463 0
M  V30 1949 O 187.095 0.0370346 1.94465 0
M  V30 1950 C 187.378 3.43615 1.07708 0
M  V30 1951 C 187.231 4.49781 -0.0415868 0
M  V30 1952 C 188.55 3.93616 1.96861 0
M  V30 1953 H 185.669 0.710543 0.195696 0
M  V30 1954 H 188.311 1.89027 -0.192038 0
M  V30 1955 H 186.461 3.49187 1.70296 0
M  V30 1956 H 188.133 4.56308 -0.676793 0
M  V30 1957 H 186.376 4.28033 -0.705019 0
M  V30 1958 H 187.047 5.50733 0.373717 0
M  V30 1959 H 189.523 3.90335 1.44146 0
M  V30 1960 H 188.399 4.97838 2.3119 0
M  V30 1961 H 188.66 3.34188 2.89432 0
M  V30 1962 N 187.719 -0.156864 1.56817 0
M  V30 1963 C 188.949 -0.885031 1.86684 0
M  V30 1964 C 189.357 -1.75696 0.701954 0
M  V30 1965 O 188.7 -1.80569 -0.337732 0
M  V30 1966 C 188.762 -1.80092 3.11138 0
M  V30 1967 C 188.426 -1.10714 4.43386 0
M  V30 1968 C 189.423 -0.465714 5.1781 0
M  V30 1969 C 187.108 -1.09959 4.90117 0
M  V30 1970 C 189.102 0.174002 6.37162 0
M  V30 1971 C 186.789 -0.456055 6.09396 0
M  V30 1972 C 187.787 0.179622 6.82764 0
M  V30 1973 O 187.475 0.812975 7.99779 0
M  V30 1974 H 187.207 -0.261813 0.623242 0
M  V30 1975 H 189.761 -0.157383 2.04796 0
M  V30 1976 H 187.991 -2.56926 2.89009 0
M  V30 1977 H 189.68 -2.40018 3.27332 0
M  V30 1978 H 190.446 -0.463427 4.82781 0
M  V30 1979 H 186.325 -1.58378 4.3294 0
M  V30 1980 H 189.869 0.670765 6.94368 0
M  V30 1981 H 185.766 -0.455975 6.43888 0
M  V30 1982 H 186.534 0.71366 8.15383 0
M  V30 1983 N 189.197 -1.51736 -0.425897 0
M  V30 1984 C 190.425 -1.68794 -1.1965 0
M  V30 1985 C 190.84 -0.390164 -1.84725 0
M  V30 1986 O 190.197 0.632376 -1.71194 0
M  V30 1987 C 190.248 -2.81174 -2.27208 0
M  V30 1988 O 189.969 -4.05925 -1.64793 0
M  V30 1989 C 191.47 -3.09599 -3.17275 0
M  V30 1990 H 188.69 -0.566128 -0.360194 0
M  V30 1991 H 191.234 -1.98211 -0.503249 0
M  V30 1992 H 189.389 -2.54324 -2.9223 0
M  V30 1993 H 189.803 -4.68423 -2.35967 0
M  V30 1994 H 191.277 -3.91786 -3.88854 0
M  V30 1995 H 191.754 -2.22468 -3.78688 0
M  V30 1996 H 192.36 -3.38151 -2.57941 0
M  V30 1997 N 190.675 0.682077 -1.42076 0
M  V30 1998 C 191.638 1.77756 -1.44691 0
M  V30 1999 C 192.638 1.5726 -0.335535 0
M  V30 2000 O 193.828 1.63686 -0.596037 0
M  V30 2001 C 190.96 3.16301 -1.27146 0
M  V30 2002 H 192.153 1.76826 -2.42224 0
M  V30 2003 H 189.706 0.891012 -1.28416 0
M  V30 2004 H 190.441 3.22862 -0.305075 0
M  V30 2005 H 190.226 3.32581 -2.07683 0
M  V30 2006 H 191.716 3.96241 -1.31843 0
M  V30 2007 N 192.153 1.28127 0.917671 0
M  V30 2008 C 193.083 1.14248 2.03641 0
M  V30 2009 C 194.064 0.0412748 1.7005 0
M  V30 2010 O 195.249 0.217566 1.92977 0
M  V30 2011 C 192.379 0.799431 3.37974 0
M  V30 2012 C 191.333 1.85497 3.85713 0
M  V30 2013 C 190.659 1.36565 5.16966 0
M  V30 2014 C 191.959 3.26085 4.08002 0
M  V30 2015 H 193.653 2.07835 2.15511 0
M  V30 2016 H 191.199 1.00064 1.03553 0
M  V30 2017 H 193.152 0.689114 4.15727 0
M  V30 2018 H 191.876 -0.172145 3.26146 0
M  V30 2019 H 190.535 1.95437 3.10161 0
M  V30 2020 H 190.183 0.383253 5.01538 0
M  V30 2021 H 189.883 2.07143 5.49878 0
M  V30 2022 H 191.407 1.26848 5.97279 0
M  V30 2023 H 192.821 3.19089 4.76293 0
M  V30 2024 H 191.218 3.94462 4.52238 0
M  V30 2025 H 192.288 3.70394 3.12948 0
M  V30 2026 N 193.631 -1.12557 1.10312 0
M  V30 2027 C 194.877 -1.84311 0.846011 0
M  V30 2028 C 195.21 -1.83805 -0.626859 0
M  V30 2029 O 194.485 -1.28268 -1.46211 0
M  V30 2030 C 194.768 -3.32048 1.39341 0
M  V30 2031 C 194.621 -3.41016 2.93305 0
M  V30 2032 C 195.94 -4.27764 1.03468 0
M  V30 2033 H 193.059 -0.669192 0.30879 0
M  V30 2034 H 195.701 -1.32057 1.36605 0
M  V30 2035 H 193.851 -3.76678 0.951087 0
M  V30 2036 H 195.523 -3.05031 3.46055 0
M  V30 2037 H 193.766 -2.81603 3.29973 0
M  V30 2038 H 194.437 -4.44948 3.26689 0
M  V30 2039 H 196.913 -3.91253 1.41633 0
M  V30 2040 H 195.789 -5.29549 1.44463 0
M  V30 2041 H 196.05 -4.42064 -0.0560404 0
M  V30 2042 N 195.109 -0.891671 -1.2995 0
M  V30 2043 C 196.019 -0.367691 -2.31701 0
M  V30 2044 C 197.035 0.533486 -1.6562 0
M  V30 2045 O 198.211 0.424997 -1.96865 0
M  V30 2046 C 195.276 0.403406 -3.44345 0
M  V30 2047 C 194.337 -0.528328 -4.26037 0
M  V30 2048 C 193.57 0.206063 -5.33302 0
M  V30 2049 O 193.793 1.43119 -5.52153 0
M  V30 2050 O 192.727 -0.447281 -6.00236 0
M  V30 2051 H 196.553 -1.21163 -2.78484 0
M  V30 2052 H 194.138 -0.655725 -1.34241 0
M  V30 2053 H 196.02 0.839753 -4.12948 0
M  V30 2054 H 194.695 1.22354 -2.99685 0
M  V30 2055 H 193.602 -1.01362 -3.60106 0
M  V30 2056 H 194.935 -1.31465 -4.74318 0
M  V30 2057 N 196.587 1.43421 -0.653314 0
M  V30 2058 C 197.998 1.85065 -0.246537 0
M  V30 2059 C 198.349 1.54688 1.2069 0
M  V30 2060 O 197.474 0.995896 1.92122 0
M  V30 2061 C 198.069 3.35922 -0.440666 0
M  V30 2062 C 196.628 3.76297 -0.0882064 0
M  V30 2063 C 195.775 2.67147 -0.743484 0
M  V30 2064 H 198.726 1.33572 -0.856979 0
M  V30 2065 H 198.747 3.79204 0.313798 0
M  V30 2066 H 198.259 3.58 -1.49858 0
M  V30 2067 H 196.36 3.5983 0.96711 0
M  V30 2068 H 196.473 4.76338 -0.513738 0
M  V30 2069 H 194.837 2.54086 -0.176712 0
M  V30 2070 H 195.62 2.92053 -1.80443 0
M  V30 2071 N 198.065 0.39524 1.52563 0
M  V30 2072 C 199.015 -0.4541 2.23432 0
M  V30 2073 C 199.999 -1.02482 1.24042 0
M  V30 2074 O 201.191 -0.949938 1.49349 0
M  V30 2075 C 198.32 -1.57769 3.049 0
M  V30 2076 C 197.406 -1.01842 4.1169 0
M  V30 2077 N 197.797 -0.184613 5.05463 0
M  V30 2078 C 196.095 -1.29033 4.26927 0
M  V30 2079 C 196.796 0.125013 5.81566 0
M  V30 2080 N 195.772 -0.480498 5.41472 0
M  V30 2081 H 199.574 0.189413 2.93289 0
M  V30 2082 H 197.088 0.204877 1.61102 0
M  V30 2083 H 199.085 -2.19862 3.54212 0
M  V30 2084 H 197.745 -2.22397 2.36579 0
M  V30 2085 H 198.756 0.178602 5.17592 0
M  V30 2086 H 195.433 -1.93721 3.69836 0
M  V30 2087 H 196.823 0.800962 6.67109 0
M  V30 2088 N 199.544 -1.57102 0.125237 0
M  V30 2089 C 200.792 -1.95021 -0.530198 0
M  V30 2090 C 201.113 -1.00982 -1.66816 0
M  V30 2091 O 200.383 -0.0672693 -1.95784 0
M  V30 2092 H 198.963 -0.720046 -0.198853 0
M  V30 2093 H 201.625 -1.93916 0.19564 0
M  V30 2094 H 200.721 -2.98211 -0.920681 0
M  V30 2095 N 201.022 0.148545 -1.56898 0
M  V30 2096 C 202.438 0.501131 -1.51528 0
M  V30 2097 C 202.638 1.83458 -0.833399 0
M  V30 2098 O 201.694 2.49259 -0.40328 0
M  V30 2099 C 203.007 0.512864 -2.96294 0
M  V30 2100 C 204.555 0.598487 -3.07225 0
M  V30 2101 C 205.03 0.640897 -4.53494 0
M  V30 2102 N 206.521 0.703163 -4.57832 0
M  V30 2103 C 207.256 0.756935 -5.68382 0
M  V30 2104 N 206.752 0.770147 -6.88506 0
M  V30 2105 N 208.545 0.797698 -5.56411 0
M  V30 2106 H 200.696 -0.725532 -1.99624 0
M  V30 2107 H 202.959 -0.264358 -0.910395 0
M  V30 2108 H 202.665 -0.398691 -3.49433 0
M  V30 2109 H 202.539 1.35133 -3.52163 0
M  V30 2110 H 204.926 1.50046 -2.54106 0
M  V30 2111 H 205.007 -0.267093 -2.54402 0
M  V30 2112 H 204.651 -0.256915 -5.0725 0
M  V30 2113 H 204.581 1.52295 -5.04097 0
M  V30 2114 H 207.072 0.700314 -3.71354 0
M  V30 2115 H 207.385 0.812983 -7.68512 0
M  V30 2116 H 205.73 0.738049 -6.9107 0
M  V30 2117 H 208.921 0.784535 -4.61479 0
M  V30 2118 H 209.094 0.83614 -6.42583 0
M  V30 2119 N 202.5 1.5196 0.417844 0
M  V30 2120 C 203.749 1.6482 1.16264 0
M  V30 2121 C 204.062 0.379886 1.91876 0
M  V30 2122 O 205.268 0.388154 2.68711 0
M  V30 2123 C 203.724 2.91161 2.1155 0
M  V30 2124 C 203.332 4.25068 1.41495 0
M  V30 2125 C 205.076 3.13383 2.86341 0
M  V30 2126 C 202.983 5.42541 2.35379 0
M  V30 2127 H 201.913 0.613954 0.437694 0
M  V30 2128 H 204.564 1.78442 0.427871 0
M  V30 2129 H 202.946 2.71218 2.88543 0
M  V30 2130 H 204.12 4.55463 0.699263 0
M  V30 2131 H 202.435 4.0888 0.787792 0
M  V30 2132 H 205.032 3.98324 3.5671 0
M  V30 2133 H 205.375 2.27256 3.48798 0
M  V30 2134 H 205.908 3.33757 2.1645 0
M  V30 2135 H 202.647 6.30987 1.77582 0
M  V30 2136 H 202.167 5.16497 3.04945 0
M  V30 2137 H 203.846 5.75272 2.96093 0
M  V30 2138 N 203.978 -0.674533 1.42435 0
M  V30 2139 C 204.911 -1.79924 1.40366 0
M  V30 2140 C 205.889 -1.60378 0.267899 0
M  V30 2141 O 207.073 -1.82847 0.458159 0
M  V30 2142 C 204.2 -3.16927 1.19478 0
M  V30 2143 C 203.246 -3.55221 2.36051 0
M  V30 2144 S 204.079 -3.5762 3.98583 0
M  V30 2145 C 205.235 -4.97315 3.80038 0
M  V30 2146 H 205.468 -1.81405 2.35541 0
M  V30 2147 H 203.001 -0.845221 1.29211 0
M  V30 2148 H 204.959 -3.96007 1.08114 0
M  V30 2149 H 203.62 -3.13031 0.258883 0
M  V30 2150 H 202.813 -4.54804 2.17185 0
M  V30 2151 H 202.415 -2.83502 2.43932 0
M  V30 2152 H 204.707 -5.85401 3.41045 0
M  V30 2153 H 205.65 -5.21228 4.79298 0
M  V30 2154 H 206.058 -4.69845 3.12899 0
M  V30 2155 N 205.456 -1.28612 -0.910864 0
M  V30 2156 C 206.704 -1.15705 -1.65701 0
M  V30 2157 C 207.025 0.29416 -1.92769 0
M  V30 2158 O 206.295 1.20331 -1.54588 0
M  V30 2159 H 204.875 -0.425216 -0.614167 0
M  V30 2160 H 207.537 -1.61381 -1.0928 0
M  V30 2161 H 206.633 -1.6988 -2.61815 0
M  V30 2162 N 206.934 1.1197 -1.10907 0
M  V30 2163 C 207.864 2.19928 -0.784473 0
M  V30 2164 C 208.845 1.6833 0.244726 0
M  V30 2165 O 210.03 1.93892 0.109418 0
M  V30 2166 C 207.16 3.46597 -0.220827 0
M  V30 2167 C 206.114 4.11376 -1.18127 0
M  V30 2168 C 205.44 5.32554 -0.478594 0
M  V30 2169 C 206.74 4.56945 -2.52979 0
M  V30 2170 H 208.434 2.47337 -1.68715 0
M  V30 2171 H 205.98 1.18879 -0.812642 0
M  V30 2172 H 207.933 4.21396 0.0184278 0
M  V30 2173 H 206.657 3.1863 0.717113 0
M  V30 2174 H 205.316 3.38564 -1.40606 0
M  V30 2175 H 204.964 5.00856 0.463976 0
M  V30 2176 H 204.664 5.76844 -1.11912 0
M  V30 2177 H 206.188 6.10096 -0.248 0
M  V30 2178 H 207.602 5.23093 -2.3462 0
M  V30 2179 H 205.999 5.1203 -3.12962 0
M  V30 2180 H 207.069 3.70676 -3.12614 0
M  V30 2181 N 208.412 0.89855 1.29475 0
M  V30 2182 C 209.689 0.443416 1.90508 0
M  V30 2183 C 210.069 -1.07685 1.81569 0
M  V30 2184 O 209.417 -1.9182 1.24166 0
M  V30 2185 C 209.627 0.956708 3.35631 0
M  V30 2186 C 210.975 0.999728 4.12663 0
M  V30 2187 O 211.999 0.904299 3.4453 0
M  V30 2188 O 210.858 1.14289 5.34416 0
M  V30 2189 H 207.952 0.138025 0.815401 0
M  V30 2190 H 210.498 0.98834 1.37949 0
M  V30 2191 H 209.27 2.00067 3.36287 0
M  V30 2192 H 208.893 0.391728 3.95666 0
M  V30 2193 N 209.89 -1.43072 0.660911 0
M  V30 2194 C 210.82 -2.33497 -0.0122829 0
M  V30 2195 C 211.801 -1.49903 -0.803925 0
M  V30 2196 O 212.986 -1.78546 -0.763864 0
M  V30 2197 C 210.116 -3.33363 -0.973994 0
M  V30 2198 C 209.07 -4.27003 -0.291928 0
M  V30 2199 C 208.396 -5.16967 -1.36562 0
M  V30 2200 C 209.696 -5.15816 0.820462 0
M  V30 2201 H 211.39 -2.90038 0.742873 0
M  V30 2202 H 208.936 -1.39461 0.358688 0
M  V30 2203 H 210.889 -3.95524 -1.45392 0
M  V30 2204 H 209.613 -2.75095 -1.7604 0
M  V30 2205 H 208.272 -3.66217 0.167623 0
M  V30 2206 H 207.92 -4.55034 -2.14366 0
M  V30 2207 H 207.62 -5.80441 -0.914454 0
M  V30 2208 H 209.144 -5.82003 -1.84675 0
M  V30 2209 H 210.558 -5.71742 0.422366 0
M  V30 2210 H 208.955 -5.8805 1.19656 0
M  V30 2211 H 210.025 -4.55045 1.67518 0
M  V30 2212 N 211.368 -0.403325 -1.52352 0
M  V30 2213 C 212.779 0.0675782 -1.86578 0
M  V30 2214 C 213.13 1.44941 -1.32236 0
M  V30 2215 O 212.255 2.06112 -0.659307 0
M  V30 2216 C 212.85 0.129404 -3.38553 0
M  V30 2217 C 211.409 0.544629 -3.72439 0
M  V30 2218 C 210.556 -0.284551 -2.75836 0
M  V30 2219 H 213.507 -0.620631 -1.46061 0
M  V30 2220 H 213.528 0.94581 -3.68558 0
M  V30 2221 H 213.04 -0.87645 -3.78074 0
M  V30 2222 H 211.141 1.55734 -3.38493 0
M  V30 2223 H 211.254 0.293046 -4.78203 0
M  V30 2224 H 209.618 0.252258 -2.53448 0
M  V30 2225 H 210.401 -1.28865 -3.18196 0
M  V30 2226 N 212.846 1.57033 -0.133567 0
M  V30 2227 C 214.123 1.87256 0.56522 0
M  V30 2228 C 214.503 1.03726 1.83859 0
M  V30 2229 O 213.851 0.120247 2.28183 0
M  V30 2230 C 214.061 3.3865 0.843636 0
M  V30 2231 C 215.409 4.07574 1.19032 0
M  V30 2232 O 216.433 3.43752 0.933429 0
M  V30 2233 O 215.292 5.20259 1.67312 0
M  V30 2234 H 212.386 0.775678 0.286796 0
M  V30 2235 H 214.932 1.68855 -0.169168 0
M  V30 2236 H 213.704 3.91257 -0.0581149 0
M  V30 2237 H 213.327 3.62532 1.63268 0
M  V30 2238 N 214.325 -0.140222 1.56975 0
M  V30 2239 C 215.573 -0.850005 1.83356 0
M  V30 2240 C 215.894 -1.81399 0.71551 0
M  V30 2241 O 215.164 -1.94136 -0.262294 0
M  V30 2242 H 213.744 -0.316886 0.676456 0
M  V30 2243 H 216.406 -0.132608 1.94448 0
M  V30 2244 H 215.502 -1.40814 2.78528 0
M  V30 2245 N 215.803 -1.52179 -0.40978 0
M  V30 2246 C 217.051 -1.65878 -1.15451 0
M  V30 2247 C 217.372 -0.390771 -1.91044 0
M  V30 2248 O 216.642 0.594323 -1.86667 0
M  V30 2249 H 215.222 -0.611405 -0.429177 0
M  V30 2250 H 217.884 -1.89219 -0.467134 0
M  V30 2251 H 216.98 -2.49954 -1.86894 0
M  V30 2252 N 217.281 0.66697 -1.42791 0
M  V30 2253 C 218.231 1.77313 -1.43332 0
M  V30 2254 C 219.215 1.5801 -0.303586 0
M  V30 2255 O 220.407 1.68356 -0.546385 0
M  V30 2256 C 217.536 3.15822 -1.34578 0
M  V30 2257 C 216.622 3.40721 -2.52528 0
M  V30 2258 N 217.013 3.36162 -3.77927 0
M  V30 2259 C 215.311 3.71387 -2.46956 0
M  V30 2260 C 216.012 3.60762 -4.56318 0
M  V30 2261 N 214.988 3.81908 -3.86843 0
M  V30 2262 H 218.79 1.72193 -2.38174 0
M  V30 2263 H 216.304 0.868114 -1.3725 0
M  V30 2264 H 218.301 3.951 -1.33048 0
M  V30 2265 H 216.961 3.22133 -0.407453 0
M  V30 2266 H 217.972 3.15885 -4.10411 0
M  V30 2267 H 214.649 3.84897 -1.61743 0
M  V30 2268 H 216.039 3.63132 -5.65318 0
M  V30 2269 N 218.759 1.29093 0.90403 0
M  V30 2270 C 219.689 1.16401 2.02418 0
M  V30 2271 C 220.67 0.0593085 1.69997 0
M  V30 2272 O 221.855 0.238021 1.92736 0
M  V30 2273 C 218.985 0.835233 3.37107 0
M  V30 2274 C 217.939 1.89578 3.83724 0
M  V30 2275 C 217.265 1.42041 5.15489 0
M  V30 2276 C 218.565 3.30394 4.04521 0
M  V30 2277 H 220.259 2.10109 2.13295 0
M  V30 2278 H 217.805 1.01157 1.02486 0
M  V30 2279 H 219.758 0.733169 4.14973 0
M  V30 2280 H 218.482 -0.137543 3.2631 0
M  V30 2281 H 217.141 1.98715 3.08071 0
M  V30 2282 H 216.789 0.436426 5.01103 0
M  V30 2283 H 216.489 2.12964 5.4765 0
M  V30 2284 H 218.013 1.33176 5.959 0
M  V30 2285 H 219.427 3.24123 4.72882 0
M  V30 2286 H 217.824 3.99237 4.48029 0
M  V30 2287 H 218.894 3.73692 3.09002 0
M  V30 2288 N 220.237 -1.11381 1.11499 0
M  V30 2289 C 221.465 -1.86934 0.88675 0
M  V30 2290 C 221.88 -1.80195 -0.563476 0
M  V30 2291 O 221.237 -1.18367 -1.38908 0
M  V30 2292 C 221.288 -3.35722 1.34064 0
M  V30 2293 O 221.009 -3.4232 2.73401 0
M  V30 2294 C 222.51 -4.2818 1.14791 0
M  V30 2295 H 219.73 -0.591117 0.317523 0
M  V30 2296 H 222.274 -1.40865 1.48248 0
M  V30 2297 H 220.429 -3.79294 0.788355 0
M  V30 2298 H 220.843 -4.34971 2.93087 0
M  V30 2299 H 222.317 -5.30817 1.5145 0
M  V30 2300 H 222.794 -4.39113 0.0875279 0
M  V30 2301 H 223.4 -3.90402 1.68721 0
M  V30 2302 N 221.715 -0.905404 -1.28997 0
M  V30 2303 C 222.665 -0.358713 -2.25161 0
M  V30 2304 C 223.649 0.524449 -1.52113 0
M  V30 2305 O 224.841 0.365534 -1.73184 0
M  V30 2306 C 221.97 0.407609 -3.40872 0
M  V30 2307 C 221.056 -0.490797 -4.21251 0
M  V30 2308 N 221.447 -1.60061 -4.79806 0
M  V30 2309 C 219.745 -0.289636 -4.45059 0
M  V30 2310 C 220.446 -2.15757 -5.40207 0
M  V30 2311 N 219.422 -1.44988 -5.23908 0
M  V30 2312 H 223.224 -1.20642 -2.67998 0
M  V30 2313 H 220.738 -0.757103 -1.43672 0
M  V30 2314 H 222.735 0.816046 -4.08835 0
M  V30 2315 H 221.395 1.25251 -2.9957 0
M  V30 2316 H 222.406 -1.98329 -4.7842 0
M  V30 2317 H 219.083 0.51643 -4.14294 0
M  V30 2318 H 220.473 -3.09069 -5.96595 0
M  V30 2319 N 223.193 1.4272 -0.668489 0
M  V30 2320 C 224.441 2.01226 -0.187769 0
M  V30 2321 C 224.762 1.53092 1.2078 0
M  V30 2322 O 224.032 0.74993 1.80977 0
M  V30 2323 H 222.612 0.744041 -0.0664272 0
M  V30 2324 H 225.274 1.74723 -0.863583 0
M  V30 2325 H 224.37 3.11556 -0.184166 0
M  V30 2326 N 224.671 0.411399 1.52136 0
M  V30 2327 C 225.918 -0.163645 2.01838 0
M  V30 2328 C 226.246 -1.4495 1.29691 0
M  V30 2329 O 225.501 -1.91725 0.392431 0
M  V30 2330 C 225.8 -0.455872 3.54481 0
M  V30 2331 C 225.466 0.741055 4.44769 0
M  V30 2332 C 224.128 1.06936 4.69167 0
M  V30 2333 C 226.48 1.54075 4.97906 0
M  V30 2334 C 223.808 2.19851 5.43951 0
M  V30 2335 C 226.16 2.66067 5.73926 0
M  V30 2336 C 224.824 2.99381 5.96596 0
M  V30 2337 H 224.094 -0.0598821 0.738576 0
M  V30 2338 H 226.741 0.553283 1.83333 0
M  V30 2339 H 225.046 -1.2544 3.71177 0
M  V30 2340 H 226.743 -0.913802 3.90449 0
M  V30 2341 H 223.333 0.475192 4.25958 0
M  V30 2342 H 227.517 1.30033 4.78963 0
M  V30 2343 H 222.773 2.46006 5.59724 0
M  V30 2344 H 226.947 3.28419 6.14096 0
M  V30 2345 H 224.574 3.86992 6.54325 0
M  V30 2346 N 226.149 -1.5696 0.141893 0
M  V30 2347 C 227.082 -2.12271 -0.837627 0
M  V30 2348 C 228.06 -1.04495 -1.24578 0
M  V30 2349 O 229.244 -1.32293 -1.34278 0
M  V30 2350 C 226.371 -2.63822 -2.12404 0
M  V30 2351 C 225.417 -3.83698 -1.86221 0
M  V30 2352 S 226.25 -5.24948 -1.05781 0
M  V30 2353 C 227.406 -5.79884 -2.35552 0
M  V30 2354 H 227.639 -2.95023 -0.367249 0
M  V30 2355 H 225.172 -1.54231 -0.0723014 0
M  V30 2356 H 227.13 -2.94175 -2.86307 0
M  V30 2357 H 225.791 -1.8121 -2.56557 0
M  V30 2358 H 224.984 -4.17995 -2.81596 0
M  V30 2359 H 224.586 -3.5408 -1.20429 0
M  V30 2360 H 226.878 -5.91005 -3.31239 0
M  V30 2361 H 227.821 -6.77544 -2.05767 0
M  V30 2362 H 228.229 -5.08095 -2.45967 0
M  V30 2363 N 227.627 0.131896 -1.57047 0
M  V30 2364 C 228.855 0.856461 -1.88341 0
M  V30 2365 C 229.27 1.74042 -0.731757 0
M  V30 2366 O 228.627 1.80051 0.297945 0
M  V30 2367 C 228.678 1.70064 -3.18999 0
M  V30 2368 O 228.399 0.852278 -4.2973 0
M  V30 2369 C 229.9 2.53148 -3.63911 0
M  V30 2370 H 227.12 0.246885 -0.62393 0
M  V30 2371 H 229.664 0.120152 -2.04147 0
M  V30 2372 H 227.819 2.38984 -3.04902 0
M  V30 2373 H 228.233 1.43329 -5.04537 0
M  V30 2374 H 229.707 3.07931 -4.58129 0
M  V30 2375 H 230.184 3.29901 -2.89935 0
M  V30 2376 H 230.79 1.89492 -3.80753 0
M  V30 2377 N 229.106 1.52395 0.401703 0
M  V30 2378 C 230.383 1.57387 1.16141 0
M  V30 2379 C 230.763 0.359359 2.08019 0
M  V30 2380 O 230.111 -0.65326 2.18963 0
M  V30 2381 C 230.321 2.90631 1.93221 0
M  V30 2382 C 231.669 3.43904 2.49028 0
M  V30 2383 O 232.693 2.92421 2.03393 0
M  V30 2384 O 231.552 4.33823 3.32356 0
M  V30 2385 H 228.646 0.634262 0.530698 0
M  V30 2386 H 231.192 1.64725 0.407883 0
M  V30 2387 H 229.964 3.70473 1.25958 0
M  V30 2388 H 229.587 2.8662 2.75563 0
M  V30 2389 N 230.584 -0.659388 1.43143 0
M  V30 2390 C 231.531 -1.77249 1.47822 0
M  V30 2391 C 232.501 -1.62818 0.328558 0
M  V30 2392 O 233.686 -1.83151 0.534838 0
M  V30 2393 C 230.826 -3.15371 1.40126 0
M  V30 2394 C 229.939 -3.4098 2.65249 0
M  V30 2395 C 229.074 -4.68915 2.49584 0
M  V30 2396 C 228.113 -4.87608 3.70006 0
M  V30 2397 N 227.25 -6.06796 3.53189 0
M  V30 2398 H 232.09 -1.72584 2.42938 0
M  V30 2399 H 229.627 -0.842297 1.20598 0
M  V30 2400 H 231.585 -3.9521 1.33659 0
M  V30 2401 H 230.215 -3.19121 0.485964 0
M  V30 2402 H 229.267 -2.55282 2.8202 0
M  V30 2403 H 230.579 -3.50681 3.54717 0
M  V30 2404 H 229.733 -5.56871 2.4079 0
M  V30 2405 H 228.472 -4.61524 1.5763 0
M  V30 2406 H 227.477 -3.9809 3.79215 0
M  V30 2407 H 228.702 -4.96834 4.62961 0
M  V30 2408 H 226.648 -6.00549 2.63965 0
M  V30 2409 H 226.565 -6.17428 4.36255 0
M  V30 2410 H 227.833 -6.9739 3.48236 0
M  V30 2411 N 232.062 -1.29571 -0.897171 0
M  V30 2412 C 233.009 -1.14916 -2.00158 0
M  V30 2413 C 233.979 -0.0418149 -1.66047 0
M  V30 2414 O 235.164 -0.209793 -1.89643 0
M  V30 2415 C 232.304 -0.834307 -3.34863 0
M  V30 2416 C 231.417 -2.02234 -3.8174 0
M  V30 2417 C 230.552 -1.64664 -5.05034 0
M  V30 2418 C 229.591 -2.80033 -5.44286 0
M  V30 2419 N 228.728 -2.42843 -6.58765 0
M  V30 2420 H 233.568 -2.09403 -2.12025 0
M  V30 2421 H 231.105 -1.042 -1.0383 0
M  V30 2422 H 233.063 -0.632436 -4.12379 0
M  V30 2423 H 231.693 0.0736656 -3.22716 0
M  V30 2424 H 230.745 -2.33583 -3.00238 0
M  V30 2425 H 232.057 -2.88673 -4.06779 0
M  V30 2426 H 231.211 -1.4078 -5.9014 0
M  V30 2427 H 229.95 -0.753766 -4.8184 0
M  V30 2428 H 228.955 -3.04596 -4.57713 0
M  V30 2429 H 230.18 -3.69989 -5.6946 0
M  V30 2430 H 228.126 -1.56046 -6.3717 0
M  V30 2431 H 228.043 -3.22815 -6.83613 0
M  V30 2432 H 229.311 -2.22285 -7.47134 0
M  V30 2433 N 233.54 1.10788 -1.12088 0
M  V30 2434 C 234.487 2.17025 -0.785407 0
M  V30 2435 C 235.457 1.64265 0.246191 0
M  V30 2436 O 236.642 1.90412 0.121584 0
M  V30 2437 C 233.782 3.44249 -0.242177 0
M  V30 2438 C 232.895 4.1098 -1.33115 0
M  V30 2439 C 232.03 5.25911 -0.747741 0
M  V30 2440 C 231.069 5.84538 -1.81609 0
M  V30 2441 N 230.206 6.90853 -1.25167 0
M  V30 2442 H 235.046 2.45066 -1.69548 0
M  V30 2443 H 232.583 1.20297 -0.846582 0
M  V30 2444 H 234.541 4.17101 0.0908026 0
M  V30 2445 H 233.171 3.16571 0.631072 0
M  V30 2446 H 232.223 3.36133 -1.78097 0
M  V30 2447 H 233.535 4.50601 -2.13917 0
M  V30 2448 H 232.689 6.056 -0.365216 0
M  V30 2449 H 231.428 4.87614 0.0915188 0
M  V30 2450 H 230.433 5.03522 -2.20785 0
M  V30 2451 H 231.658 6.249 -2.6585 0
M  V30 2452 H 229.604 6.54562 -0.434174 0
M  V30 2453 H 229.521 7.29166 -1.99633 0
M  V30 2454 H 230.789 7.7433 -0.896259 0
M  V30 2455 N 235.018 0.912232 1.28515 0
M  V30 2456 C 236.267 0.540504 1.94323 0
M  V30 2457 C 236.58 -0.920044 1.72611 0
M  V30 2458 O 237.786 -1.39986 2.32629 0
M  V30 2459 C 236.242 0.915803 3.48053 0
M  V30 2460 C 235.85 2.39598 3.78546 0
M  V30 2461 C 237.594 0.614588 4.20027 0
M  V30 2462 C 235.501 2.71148 5.25578 0
M  V30 2463 H 234.431 0.198418 0.727424 0
M  V30 2464 H 237.082 1.11094 1.46049 0
M  V30 2465 H 235.464 0.274168 3.9505 0
M  V30 2466 H 236.638 3.08422 3.42364 0
M  V30 2467 H 234.953 2.66749 3.1974 0
M  V30 2468 H 237.55 0.827002 5.28266 0
M  V30 2469 H 237.893 -0.447531 4.13887 0
M  V30 2470 H 238.426 1.21462 3.78803 0
M  V30 2471 H 235.165 3.76207 5.36794 0
M  V30 2472 H 234.685 2.0696 5.62963 0
M  V30 2473 H 236.364 2.58072 5.93302 0
M  V30 2474 N 236.496 -1.42363 0.676048 0
M  V30 2475 C 237.721 -2.06377 0.205705 0
M  V30 2476 C 238.146 -1.50463 -1.12883 0
M  V30 2477 O 237.504 -0.623619 -1.70237 0
M  V30 2478 C 237.552 -3.60277 0.152655 0
M  V30 2479 O 236.656 -4.02935 -0.87845 0
M  V30 2480 H 235.997 -0.655588 0.105359 0
M  V30 2481 H 238.527 -1.82475 0.925412 0
M  V30 2482 H 238.537 -4.07993 -0.0230675 0
M  V30 2483 H 237.212 -4.00346 1.12675 0
M  V30 2484 H 235.789 -3.66764 -0.673668 0
M  V30 2485 N 237.974 -0.419461 -1.51915 0
M  V30 2486 C 238.937 0.389116 -2.25873 0
M  V30 2487 C 239.937 0.964924 -1.28631 0
M  V30 2488 O 241.127 0.842179 -1.52489 0
M  V30 2489 C 238.259 1.54874 -3.03689 0
M  V30 2490 H 239.452 -0.258799 -2.98781 0
M  V30 2491 H 237.005 -0.172209 -1.55348 0
M  V30 2492 H 237.74 2.23323 -2.35154 0
M  V30 2493 H 237.525 1.14223 -3.75094 0
M  V30 2494 H 239.015 2.12046 -3.59759 0
M  V30 2495 N 239.452 1.56882 -0.150215 0
M  V30 2496 C 240.68 2.00593 0.506948 0
M  V30 2497 C 241.095 1.03033 1.58208 0
M  V30 2498 O 240.452 0.0278396 1.82479 0
M  V30 2499 C 240.503 3.44209 1.10465 0
M  V30 2500 O 240.224 4.3804 0.0724636 0
M  V30 2501 C 241.725 4.03214 1.84211 0
M  V30 2502 H 238.945 0.65795 0.13169 0
M  V30 2503 H 241.489 2.03018 -0.245743 0
M  V30 2504 H 239.644 3.42625 1.80795 0
M  V30 2505 H 240.058 5.22007 0.510793 0
M  V30 2506 H 241.532 5.0569 2.21318 0
M  V30 2507 H 242.009 3.44107 2.72923 0
M  V30 2508 H 242.615 4.08437 1.18572 0
M  V30 2509 N 240.93 -0.123565 1.57115 0
M  V30 2510 C 242.155 -0.850398 1.89164 0
M  V30 2511 C 242.58 -1.7286 0.741688 0
M  V30 2512 O 241.938 -1.78665 -0.307958 0
M  V30 2513 C 241.986 -1.66353 3.19936 0
M  V30 2514 O 241.09 -2.77004 3.0552 0
M  V30 2515 H 240.431 -0.235454 0.620852 0
M  V30 2516 H 242.961 -0.107335 2.04318 0
M  V30 2517 H 242.971 -2.05372 3.52543 0
M  V30 2518 H 241.646 -1.01881 4.03228 0
M  V30 2519 H 240.223 -2.41221 2.84371 0
M  V30 2520 N 242.408 -1.52605 -0.393616 0
M  V30 2521 C 243.657 -1.66649 -1.13627 0
M  V30 2522 C 243.97 -0.410364 -1.91247 0
M  V30 2523 O 245.176 -0.430854 -2.68059 0
M  V30 2524 C 243.632 -2.9449 -2.06891 0
M  V30 2525 C 243.24 -4.27266 -1.34714 0
M  V30 2526 C 244.984 -3.17899 -2.81319 0
M  V30 2527 C 242.891 -5.46217 -2.26717 0
M  V30 2528 H 241.821 -0.62084 -0.427871 0
M  V30 2529 H 244.472 -1.791 -0.399428 0
M  V30 2530 H 242.854 -2.75774 -2.84191 0
M  V30 2531 H 244.028 -4.56518 -0.626714 0
M  V30 2532 H 242.343 -4.10081 -0.722643 0
M  V30 2533 H 244.94 -4.03949 -3.50328 0
M  V30 2534 H 245.283 -2.32777 -3.45139 0
M  V30 2535 H 245.816 -3.37159 -2.11113 0
M  V30 2536 H 242.555 -6.33733 -1.67521 0
M  V30 2537 H 242.075 -5.21283 -2.96689 0
M  V30 2538 H 243.754 -5.7991 -2.86903 0
M  V30 2539 N 243.887 0.651787 -1.4349 0
M  V30 2540 C 245.134 1.41167 -1.45183 0
M  V30 2541 C 245.462 1.94349 -0.0766601 0
M  V30 2542 O 244.717 1.72804 0.918555 0
M  V30 2543 C 245.016 2.60914 -2.44251 0
M  V30 2544 C 244.682 2.26142 -3.9009 0
M  V30 2545 C 243.344 2.16371 -4.2981 0
M  V30 2546 C 245.696 1.98334 -4.81989 0
M  V30 2547 C 243.024 1.7695 -5.5938 0
M  V30 2548 C 245.376 1.6041 -6.11924 0
M  V30 2549 C 244.04 1.49166 -6.5062 0
M  V30 2550 H 243.31 0.516566 -0.531263 0
M  V30 2551 H 245.957 0.741099 -1.76579 0
M  V30 2552 H 244.262 3.3311 -2.06265 0
M  V30 2553 H 245.959 3.19127 -2.42815 0
M  V30 2554 H 242.549 2.34658 -3.58655 0
M  V30 2555 H 246.733 2.04803 -4.52072 0
M  V30 2556 H 241.989 1.66831 -5.88198 0
M  V30 2557 H 246.163 1.37925 -6.82605 0
M  V30 2558 H 243.79 1.1839 -7.50925 0
M  V30 2559 N 245.365 1.30045 0.890287 0
M  V30 2560 C 246.612 1.18561 1.64163 0
M  V30 2561 C 246.94 -0.260852 1.92743 0
M  V30 2562 O 246.195 -1.20376 1.54299 0
M  V30 2563 C 246.494 1.95409 2.99249 0
M  V30 2564 C 246.16 3.45066 2.90242 0
M  V30 2565 C 244.822 3.85878 2.87492 0
M  V30 2566 C 247.174 4.4039 2.78758 0
M  V30 2567 C 244.502 5.20314 2.7109 0
M  V30 2568 C 246.854 5.74928 2.63894 0
M  V30 2569 C 245.518 6.14986 2.59516 0
M  V30 2570 H 244.788 0.433846 0.600715 0
M  V30 2571 H 247.435 1.61088 1.03552 0
M  V30 2572 H 245.74 1.45501 3.63781 0
M  V30 2573 H 247.437 1.8392 3.56334 0
M  V30 2574 H 244.027 3.12631 2.93189 0
M  V30 2575 H 248.211 4.09806 2.79952 0
M  V30 2576 H 243.467 5.50449 2.66112 0
M  V30 2577 H 247.641 6.48434 2.53981 0
M  V30 2578 H 245.268 7.19104 2.46565 0
M  V30 2579 N 246.843 -1.10192 1.12674 0
M  V30 2580 C 247.753 -2.20172 0.810026 0
M  V30 2581 C 248.769 -1.72821 -0.202188 0
M  V30 2582 O 249.945 -2.01369 -0.0351691 0
M  V30 2583 C 247.01 -3.45631 0.272007 0
M  V30 2584 C 246.071 -4.07704 1.34447 0
M  V30 2585 C 245.304 -5.27175 0.832029 0
M  V30 2586 O 245.527 -5.69425 -0.333284 0
M  V30 2587 O 244.461 -5.80168 1.60277 0
M  V30 2588 H 248.287 -2.49701 1.72867 0
M  V30 2589 H 245.872 -1.18977 0.903597 0
M  V30 2590 H 247.754 -4.21394 -0.0230219 0
M  V30 2591 H 246.429 -3.17723 -0.619164 0
M  V30 2592 H 245.336 -3.33614 1.6927 0
M  V30 2593 H 246.669 -4.3982 2.2095 0
M  V30 2594 N 248.321 -0.919034 -1.28029 0
M  V30 2595 C 249.546 -0.570357 -1.99403 0
M  V30 2596 C 249.971 0.842486 -1.68178 0
M  V30 2597 O 249.329 1.56391 -0.917141 0
M  V30 2598 C 249.377 -0.792541 -3.51783 0
M  V30 2599 O 248.481 0.145988 -4.12142 0
M  V30 2600 H 247.822 -0.220555 -0.6263 0
M  V30 2601 H 250.352 -1.23592 -1.63053 0
M  V30 2602 H 250.362 -0.704708 -4.01868 0
M  V30 2603 H 249.037 -1.82247 -3.73844 0
M  V30 2604 H 247.614 0.00897528 -3.72899 0
M  V30 2605 N 249.799 1.42003 -0.683588 0
M  V30 2606 C 250.732 2.28166 0.039592 0
M  V30 2607 C 251.71 1.41562 0.799942 0
M  V30 2608 O 252.894 1.70997 0.793248 0
M  V30 2609 C 250.021 3.21575 1.06335 0
M  V30 2610 C 249.067 4.24643 0.397562 0
M  V30 2611 S 249.9 5.2869 -0.851296 0
M  V30 2612 C 251.056 6.25666 0.171166 0
M  V30 2613 H 251.289 2.89153 -0.691229 0
M  V30 2614 H 248.822 1.46962 -0.473435 0
M  V30 2615 H 250.78 3.75928 1.6489 0
M  V30 2616 H 249.441 2.59707 1.76667 0
M  V30 2617 H 248.634 4.90223 1.17035 0
M  V30 2618 H 248.236 3.73824 -0.114611 0
M  V30 2619 H 250.528 6.69653 1.02819 0
M  V30 2620 H 251.471 7.06666 -0.450397 0
M  V30 2621 H 251.879 5.62095 0.520578 0
M  V30 2622 N 251.277 0.427512 1.51691 0
M  V30 2623 C 252.688 -0.0378867 1.86662 0
M  V30 2624 C 253.039 -1.42819 1.34525 0
M  V30 2625 O 252.164 -2.05037 0.692014 0
M  V30 2626 C 252.759 -0.0755266 3.38716 0
M  V30 2627 C 251.318 -0.485309 3.73258 0
M  V30 2628 C 250.465 0.328399 2.75349 0
M  V30 2629 H 253.416 0.64379 1.45055 0
M  V30 2630 H 253.437 -0.887056 3.70016 0
M  V30 2631 H 252.949 0.936487 3.76632 0
M  V30 2632 H 251.05 -1.50329 3.40928 0
M  V30 2633 H 251.163 -0.21693 4.78609 0
M  V30 2634 H 249.527 -0.211905 2.53817 0
M  V30 2635 H 250.31 1.3391 3.16106 0
M  V30 2636 N 252.755 -1.56801 0.158532 0
M  V30 2637 C 253.985 -2.00568 -0.495583 0
M  V30 2638 C 254.393 -1.03774 -1.58201 0
M  V30 2639 O 253.736 -0.0285797 -1.83678 0
M  V30 2640 C 253.798 -3.40768 -1.14532 0
M  V30 2641 C 253.462 -4.56553 -0.202101 0
M  V30 2642 C 254.459 -5.16714 0.574675 0
M  V30 2643 C 252.144 -5.02197 -0.101648 0
M  V30 2644 C 254.138 -6.20939 1.43924 0
M  V30 2645 C 251.825 -6.06274 0.766508 0
M  V30 2646 C 252.823 -6.65515 1.53555 0
M  V30 2647 O 252.511 -7.67575 2.38922 0
M  V30 2648 H 252.243 -0.662893 -0.13247 0
M  V30 2649 H 254.797 -2.03829 0.253559 0
M  V30 2650 H 253.027 -3.34381 -1.94233 0
M  V30 2651 H 254.716 -3.6857 -1.70033 0
M  V30 2652 H 255.482 -4.82341 0.507167 0
M  V30 2653 H 251.361 -4.55807 -0.689994 0
M  V30 2654 H 254.905 -6.67107 2.03996 0
M  V30 2655 H 250.802 -6.40073 0.835266 0
M  V30 2656 H 251.57 -7.84844 2.32296 0
M  V30 2657 N 254.233 0.115231 -1.57178 0
M  V30 2658 C 255.18 1.14115 -2.00615 0
M  V30 2659 C 256.15 1.40939 -0.878941 0
M  V30 2660 O 257.335 1.52741 -1.14345 0
M  V30 2661 C 254.475 2.46156 -2.4187 0
M  V30 2662 C 253.588 2.26236 -3.68024 0
M  V30 2663 C 252.723 3.51534 -3.98243 0
M  V30 2664 C 251.762 3.26787 -5.17568 0
M  V30 2665 N 250.899 4.44298 -5.43639 0
M  V30 2666 H 255.739 0.763743 -2.88047 0
M  V30 2667 H 253.276 0.365615 -1.42484 0
M  V30 2668 H 255.234 3.23189 -2.63827 0
M  V30 2669 H 253.864 2.81783 -1.57475 0
M  V30 2670 H 252.916 1.40102 -3.5366 0
M  V30 2671 H 254.228 2.03929 -4.55208 0
M  V30 2672 H 253.382 4.36984 -4.20868 0
M  V30 2673 H 252.121 3.76876 -3.09541 0
M  V30 2674 H 251.126 2.39729 -4.94783 0
M  V30 2675 H 252.351 3.02812 -6.0785 0
M  V30 2676 H 250.297 4.69754 -4.57895 0
M  V30 2677 H 250.214 4.25109 -6.25154 0
M  V30 2678 H 251.482 5.3087 -5.70786 0
M  V30 2679 N 255.711 1.52812 0.385517 0
M  V30 2680 C 256.957 1.68275 1.13188 0
M  V30 2681 C 257.29 0.423179 1.89533 0
M  V30 2682 O 256.565 -0.579113 1.85679 0
M  V30 2683 C 256.848 2.92001 2.1073 0
M  V30 2684 C 256.701 4.28067 1.38125 0
M  V30 2685 C 258.02 3.11283 3.11113 0
M  V30 2686 H 255.139 0.612352 0.410115 0
M  V30 2687 H 257.781 1.85415 0.414869 0
M  V30 2688 H 255.931 2.77519 2.71874 0
M  V30 2689 H 257.603 4.54324 0.799187 0
M  V30 2690 H 255.846 4.28388 0.683092 0
M  V30 2691 H 256.517 5.10733 2.09417 0
M  V30 2692 H 258.993 3.2482 2.6006 0
M  V30 2693 H 257.869 3.99325 3.76605 0
M  V30 2694 H 258.13 2.25656 3.80173 0
M  V30 2695 N 257.189 -0.644168 1.43834 0
M  V30 2696 C 258.137 -1.77793 1.49974 0
M  V30 2697 C 259.131 -1.65253 0.372536 0
M  V30 2698 O 260.337 -1.7149 0.546924 0
M  V30 2699 H 256.712 -0.58675 0.47035 0
M  V30 2700 H 258.683 -1.69736 2.45423 0
M  V30 2701 C 257.432 -3.16087 1.4486 0
M  V30 2702 H 256.755 -3.26378 2.30905 0
M  V30 2703 H 258.195 -3.95349 1.53217 0
M  V30 2704 C 256.654 -3.36484 0.167463 0
M  V30 2705 O 257.184 -3.94298 -0.767609 0
M  V30 2706 N 255.39 -2.90504 0.0747556 0
M  V30 2707 H 254.937 -2.4364 0.836507 0
M  V30 2708 H 254.895 -3.04527 -0.781714 0
M  V30 2709 N 258.668 -1.30515 -0.883378 0
M  V30 2710 C 260.079 -1.17509 -1.45081 0
M  V30 2711 C 260.43 0.223605 -1.94922 0
M  V30 2712 O 259.555 1.12041 -1.85137 0
M  V30 2713 C 260.15 -2.12715 -2.63701 0
M  V30 2714 C 258.709 -2.03682 -3.16529 0
M  V30 2715 C 257.856 -2.02706 -1.89224 0
M  V30 2716 H 260.807 -1.42762 -0.693165 0
M  V30 2717 H 260.828 -1.70891 -3.39965 0
M  V30 2718 H 260.34 -3.14505 -2.27395 0
M  V30 2719 H 258.441 -1.05039 -3.57488 0
M  V30 2720 H 258.554 -2.92146 -3.7972 0
M  V30 2721 H 256.918 -1.4753 -2.07622 0
M  V30 2722 H 257.701 -3.06229 -1.55174 0
M  V30 2723 N 260.146 1.09593 -1.13257 0
M  V30 2724 C 261.423 1.78293 -0.804432 0
M  V30 2725 C 261.803 1.99004 0.70431 0
M  V30 2726 O 261.151 1.59007 1.641 0
M  V30 2727 C 261.361 3.10707 -1.5894 0
M  V30 2728 C 262.709 3.85443 -1.78099 0
M  V30 2729 O 263.733 3.20454 -1.55525 0
M  V30 2730 O 262.592 5.02108 -2.15753 0
M  V30 2731 H 259.686 0.773156 -0.293528 0
M  V30 2732 H 262.232 1.16164 -1.23709 0
M  V30 2733 H 261.004 2.91106 -2.61482 0
M  V30 2734 H 260.627 3.80558 -1.15157 0
M  V30 2735 N 261.624 0.925811 1.2754 0
M  V30 2736 C 262.852 0.581509 1.9856 0
M  V30 2737 C 263.267 -0.840041 1.69082 0
M  V30 2738 O 262.624 -1.55805 0.950312 0
M  V30 2739 C 262.675 0.795589 3.52637 0
M  V30 2740 O 262.396 2.16121 3.81082 0
M  V30 2741 C 263.897 0.459744 4.4091 0
M  V30 2742 H 261.117 0.220538 0.633722 0
M  V30 2743 H 263.661 1.24232 1.6244 0
M  V30 2744 H 261.816 0.18161 3.86974 0
M  V30 2745 H 262.23 2.2098 4.75676 0
M  V30 2746 H 263.704 0.660244 5.48037 0
M  V30 2747 H 264.181 -0.604625 4.35018 0
M  V30 2748 H 264.787 1.05178 4.12089 0
M  V30 2749 N 263.102 -1.41638 0.69111 0
M  V30 2750 C 264.35 -2.00902 0.219758 0
M  V30 2751 C 264.671 -1.54994 -1.18329 0
M  V30 2752 O 263.941 -0.778628 -1.79762 0
M  V30 2753 H 262.521 -0.74289 0.0782558 0
M  V30 2754 H 265.183 -1.73327 0.891271 0
M  V30 2755 H 264.279 -3.11224 0.233708 0
M  V30 2756 N 264.58 -0.43555 -1.51462 0
M  V30 2757 C 265.81 0.130053 -2.0619 0
M  V30 2758 C 266.218 1.37164 -1.30317 0
M  V30 2759 O 265.561 1.80225 -0.355598 0
M  V30 2760 C 265.623 0.519418 -3.55728 0
M  V30 2761 C 265.287 -0.615119 -4.52841 0
M  V30 2762 C 266.284 -1.48671 -4.9819 0
M  V30 2763 C 263.969 -0.795341 -4.95963 0
M  V30 2764 C 265.963 -2.52324 -5.8533 0
M  V30 2765 C 263.65 -1.83514 -5.82894 0
M  V30 2766 C 264.648 -2.69748 -6.27475 0
M  V30 2767 O 264.336 -3.71944 -7.1268 0
M  V30 2768 H 264.068 0.0121612 -0.675891 0
M  V30 2769 H 266.622 -0.6129 -1.96043 0
M  V30 2770 H 264.852 1.31505 -3.63653 0
M  V30 2771 H 266.541 1.01597 -3.92979 0
M  V30 2772 H 267.307 -1.359 -4.65571 0
M  V30 2773 H 263.186 -0.133713 -4.60806 0
M  V30 2774 H 266.73 -3.19665 -6.20048 0
M  V30 2775 H 262.627 -1.96306 -6.14926 0
M  V30 2776 H 263.395 -3.68503 -7.30854 0
M  V30 2777 N 266.058 1.56714 -0.166846 0
M  V30 2778 C 267.307 1.95922 0.479318 0
M  V30 2779 C 267.62 1.05529 1.6469 0
M  V30 2780 O 268.826 1.34399 2.35901 0
M  V30 2781 C 267.282 3.48359 0.90412 0
M  V30 2782 C 266.89 4.47369 -0.237621 0
M  V30 2783 C 268.634 3.96394 1.51896 0
M  V30 2784 C 266.541 5.91039 0.206561 0
M  V30 2785 H 265.471 0.731495 0.18284 0
M  V30 2786 H 268.122 1.81728 -0.254363 0
M  V30 2787 H 266.504 3.57955 1.69365 0
M  V30 2788 H 267.678 4.49485 -1.01489 0
M  V30 2789 H 265.993 4.09366 -0.762128 0
M  V30 2790 H 268.59 5.01186 1.86325 0
M  V30 2791 H 268.933 3.39075 2.41524 0
M  V30 2792 H 269.466 3.89796 0.79395 0
M  V30 2793 H 266.205 6.52221 -0.654834 0
M  V30 2794 H 265.725 5.9224 0.949282 0
M  V30 2795 H 267.404 6.43707 0.651939 0
M  V30 2796 N 267.536 -0.106894 1.57237 0
M  V30 2797 C 268.484 -1.14944 2.02215 0
M  V30 2798 C 269.478 -1.42167 0.92114 0
M  V30 2799 O 270.684 -1.41987 1.10634 0
M  V30 2800 H 267.059 -0.387841 0.64427 0
M  V30 2801 H 269.03 -0.743683 2.88984 0
M  V30 2802 C 267.779 -2.4647 2.4525 0
M  V30 2803 H 267.102 -2.26363 3.29545 0
M  V30 2804 H 268.542 -3.17948 2.80508 0
M  V30 2805 C 267.001 -3.09921 1.321 0
M  V30 2806 O 267.531 -3.9651 0.643622 0
M  V30 2807 N 265.737 -2.69986 1.07497 0
M  V30 2808 H 265.284 -1.99667 1.62761 0
M  V30 2809 H 265.242 -3.12769 0.319876 0
M  V30 2810 N 269.014 -1.53014 -0.377408 0
M  V30 2811 C 270.244 -1.72265 -1.14054 0
M  V30 2812 C 270.652 -0.44601 -1.83868 0
M  V30 2813 O 269.995 0.590095 -1.73964 0
M  V30 2814 C 270.057 -2.82492 -2.22348 0
M  V30 2815 C 269.721 -4.23233 -1.72402 0
M  V30 2816 C 270.718 -5.05992 -1.19448 0
M  V30 2817 C 268.403 -4.696 -1.78273 0
M  V30 2818 C 270.397 -6.33203 -0.730268 0
M  V30 2819 C 268.084 -5.96792 -1.31464 0
M  V30 2820 C 269.082 -6.78424 -0.789297 0
M  V30 2821 O 268.77 -8.0323 -0.328077 0
M  V30 2822 H 268.502 -0.579873 -0.347453 0
M  V30 2823 H 271.056 -2.00502 -0.445882 0
M  V30 2824 H 269.286 -2.49702 -2.95272 0
M  V30 2825 H 270.975 -2.90034 -2.83963 0
M  V30 2826 H 271.741 -4.71349 -1.14259 0
M  V30 2827 H 267.62 -4.06142 -2.18106 0
M  V30 2828 H 271.164 -6.96868 -0.319542 0
M  V30 2829 H 267.061 -6.30937 -1.36342 0
M  V30 2830 H 267.829 -8.1727 -0.448493 0
M  V30 2831 N 270.492 0.636531 -1.44174 0
M  V30 2832 C 271.769 1.39463 -1.37148 0
M  V30 2833 C 272.149 2.11082 -0.027507 0
M  V30 2834 O 271.497 2.05954 0.989716 0
M  V30 2835 C 271.707 2.36552 -2.56601 0
M  V30 2836 C 273.055 3.00048 -3.00427 0
M  V30 2837 O 274.079 2.46878 -2.56767 0
M  V30 2838 O 272.938 3.96488 -3.76111 0
M  V30 2839 H 270.032 0.623903 -0.542839 0
M  V30 2840 H 272.578 0.662039 -1.56253 0
M  V30 2841 H 271.35 1.82692 -3.46034 0
M  V30 2842 H 270.973 3.17236 -2.39681 0
M  V30 2843 N 271.97 1.30982 0.876444 0
M  V30 2844 C 272.902 1.13902 1.98894 0
M  V30 2845 C 273.915 0.0798815 1.62604 0
M  V30 2846 O 275.104 0.326743 1.75484 0
M  V30 2847 C 272.204 0.716699 3.31235 0
M  V30 2848 C 271.377 1.85945 3.95908 0
M  V30 2849 C 270.436 1.42426 5.06558 0
M  V30 2850 O 269.462 2.13287 5.27729 0
M  V30 2851 N 270.664 0.308025 5.79682 0
M  V30 2852 H 273.429 2.09724 2.14094 0
M  V30 2853 H 270.99 1.2323 1.05004 0
M  V30 2854 H 272.982 0.408403 4.02634 0
M  V30 2855 H 271.552 -0.149719 3.12241 0
M  V30 2856 H 270.772 2.33541 3.17573 0
M  V30 2857 H 272.06 2.62503 4.35855 0
M  V30 2858 H 271.458 -0.282241 5.64995 0
M  V30 2859 H 270.015 0.0592282 6.51773 0
M  V30 2860 N 273.449 -1.08991 1.13837 0
M  V30 2861 C 274.379 -2.17771 0.842507 0
M  V30 2862 C 275.36 -1.6892 -0.20001 0
M  V30 2863 O 276.545 -1.94113 -0.0579731 0
M  V30 2864 C 273.675 -3.4589 0.312644 0
M  V30 2865 C 272.629 -4.08099 1.28992 0
M  V30 2866 C 271.955 -5.31098 0.619623 0
M  V30 2867 C 273.255 -4.50077 2.65005 0
M  V30 2868 H 274.949 -2.42777 1.75213 0
M  V30 2869 H 272.495 -1.16682 0.843875 0
M  V30 2870 H 274.448 -4.21297 0.0933043 0
M  V30 2871 H 273.172 -3.20419 -0.632382 0
M  V30 2872 H 271.831 -3.34717 1.49533 0
M  V30 2873 H 271.479 -5.0191 -0.33102 0
M  V30 2874 H 271.179 -5.73674 1.27167 0
M  V30 2875 H 272.703 -6.09224 0.409669 0
M  V30 2876 H 274.117 -5.16688 2.48407 0
M  V30 2877 H 272.514 -5.03553 3.26427 0
M  V30 2878 H 273.584 -3.62257 3.22332 0
M  V30 2879 N 274.927 -0.932562 -1.27047 0
M  V30 2880 C 275.837 -0.441219 -2.30414 0
M  V30 2881 C 276.853 0.480525 -1.67233 0
M  V30 2882 O 278.029 0.362151 -1.98117 0
M  V30 2883 C 275.094 0.293651 -3.45454 0
M  V30 2884 C 274.155 -0.663601 -4.2414 0
M  V30 2885 C 273.388 0.0362932 -5.33688 0
M  V30 2886 O 273.611 1.2548 -5.56427 0
M  V30 2887 O 272.545 -0.638015 -5.98509 0
M  V30 2888 H 276.371 -1.29962 -2.74488 0
M  V30 2889 H 273.956 -0.6981 -1.32087 0
M  V30 2890 H 275.838 0.707951 -4.15411 0
M  V30 2891 H 274.513 1.12758 -3.03426 0
M  V30 2892 H 273.42 -1.12768 -3.56699 0
M  V30 2893 H 274.753 -1.46489 -4.69896 0
M  V30 2894 N 276.405 1.4127 -0.698611 0
M  V30 2895 C 277.315 2.34573 -0.0357891 0
M  V30 2896 C 278.331 1.56393 0.762701 0
M  V30 2897 O 279.507 1.8886 0.699564 0
M  V30 2898 C 276.572 3.35159 0.887089 0
M  V30 2899 C 275.633 4.29225 0.0804634 0
M  V30 2900 C 274.866 5.25006 0.959387 0
M  V30 2901 O 275.089 5.26314 2.19886 0
M  V30 2902 O 274.023 6.00519 0.407439 0
M  V30 2903 H 277.849 2.92838 -0.804957 0
M  V30 2904 H 275.434 1.42175 -0.458966 0
M  V30 2905 H 277.316 3.9689 1.41621 0
M  V30 2906 H 275.991 2.79333 1.6357 0
M  V30 2907 H 274.898 3.70833 -0.493328 0
M  V30 2908 H 276.231 4.88157 -0.629547 0
M  V30 2909 N 277.883 0.443576 1.51229 0
M  V30 2910 C 278.831 -0.37904 2.29491 0
M  V30 2911 C 279.825 -1.0153 1.35603 0
M  V30 2912 O 281.031 -0.94955 1.52917 0
M  V30 2913 H 277.406 -0.141053 0.738653 0
M  V30 2914 H 279.377 0.301799 2.9687 0
M  V30 2915 C 278.126 -1.46426 3.15364 0
M  V30 2916 H 277.449 -0.984037 3.87501 0
M  V30 2917 H 278.889 -2.01297 3.7317 0
M  V30 2918 C 277.348 -2.45099 2.31146 0
M  V30 2919 O 277.878 -3.49773 1.9754 0
M  V30 2920 N 276.084 -2.16139 1.94249 0
M  V30 2921 H 275.631 -1.31044 2.21777 0
M  V30 2922 H 275.589 -2.82398 1.38198 0
M  V30 2923 N 279.361 -1.56624 0.175154 0
M  V30 2924 C 280.324 -2.16934 -0.739738 0
M  V30 2925 C 281.324 -1.11842 -1.15533 0
M  V30 2926 O 282.514 -1.37335 -1.07167 0
M  V30 2927 C 279.646 -2.75531 -2.00738 0
M  V30 2928 H 280.839 -2.99131 -0.214639 0
M  V30 2929 H 278.392 -1.56123 -0.0744197 0
M  V30 2930 H 279.127 -1.97078 -2.57548 0
M  V30 2931 H 278.912 -3.52444 -1.71831 0
M  V30 2932 H 280.402 -3.21904 -2.66021 0
M  V30 2933 N 280.839 0.0985539 -1.57292 0
M  V30 2934 C 282.255 0.45267 -1.53046 0
M  V30 2935 C 282.455 1.80713 -0.891342 0
M  V30 2936 O 281.511 2.4785 -0.482375 0
M  V30 2937 C 282.824 0.418341 -2.97776 0
M  V30 2938 C 284.372 0.500443 -3.08973 0
M  V30 2939 C 284.847 0.496297 -4.55303 0
M  V30 2940 N 286.338 0.557151 -4.59837 0
M  V30 2941 C 287.073 0.575726 -5.70502 0
M  V30 2942 N 286.569 0.550714 -6.90608 0
M  V30 2943 N 288.362 0.620277 -5.58667 0
M  V30 2944 H 280.513 -0.788673 -1.97215 0
M  V30 2945 H 282.776 -0.293188 -0.901524 0
M  V30 2946 H 282.482 -0.509659 -3.47988 0
M  V30 2947 H 282.356 1.2386 -3.56284 0
M  V30 2948 H 284.743 1.41886 -2.58751 0
M  V30 2949 H 284.824 -0.347894 -2.53423 0
M  V30 2950 H 284.468 -0.418162 -5.06176 0
M  V30 2951 H 284.398 1.3618 -5.08687 0
M  V30 2952 H 286.889 0.581816 -3.73394 0
M  V30 2953 H 287.202 0.568075 -7.70709 0
M  V30 2954 H 285.547 0.517816 -6.93068 0
M  V30 2955 H 288.738 0.637322 -4.63741 0
M  V30 2956 H 288.911 0.631283 -6.44918 0
M  V30 2957 N 282.317 1.53212 0.369288 0
M  V30 2958 C 283.247 1.82365 1.45826 0
M  V30 2959 C 284.228 0.676907 1.56051 0
M  V30 2960 O 285.413 0.926401 1.70679 0
M  V30 2961 C 282.543 2.01023 2.83208 0
M  V30 2962 C 281.497 3.1678 2.8781 0
M  V30 2963 C 280.823 3.20724 4.27832 0
M  V30 2964 C 282.123 4.55447 2.55667 0
M  V30 2965 H 283.817 2.73559 1.21678 0
M  V30 2966 H 281.363 1.3163 0.583911 0
M  V30 2967 H 283.316 2.20001 3.59413 0
M  V30 2968 H 282.04 1.06536 3.08736 0
M  V30 2969 H 280.699 2.97616 2.14056 0
M  V30 2970 H 280.347 2.23882 4.50429 0
M  V30 2971 H 280.047 3.98496 4.31827 0
M  V30 2972 H 281.571 3.41881 5.05915 0
M  V30 2973 H 282.985 4.74611 3.21586 0
M  V30 2974 H 281.382 5.35432 2.70984 0
M  V30 2975 H 282.452 4.60812 1.5093 0
M  V30 2976 N 283.795 -0.628877 1.44509 0
M  V30 2977 C 285.042 -1.38839 1.47411 0
M  V30 2978 C 285.37 -1.94202 0.10757 0
M  V30 2979 O 284.625 -1.74243 -0.890947 0
M  V30 2980 C 284.924 -2.56995 2.48371 0
M  V30 2981 C 284.59 -2.19908 3.93639 0
M  V30 2982 C 283.252 -2.09506 4.33198 0
M  V30 2983 C 285.604 -1.9064 4.85083 0
M  V30 2984 C 282.932 -1.68028 5.62124 0
M  V30 2985 C 285.284 -1.50655 6.14399 0
M  V30 2986 C 283.948 -1.38796 6.5291 0
M  V30 2987 H 283.218 -0.508048 0.539414 0
M  V30 2988 H 285.865 -0.712913 1.77735 0
M  V30 2989 H 284.17 -3.29786 2.11538 0
M  V30 2990 H 285.867 -3.15223 2.47861 0
M  V30 2991 H 282.457 -2.28922 3.62343 0
M  V30 2992 H 286.641 -1.97585 4.55273 0
M  V30 2993 H 281.897 -1.57452 5.90778 0
M  V30 2994 H 286.071 -1.27048 6.84713 0
M  V30 2995 H 283.698 -1.06429 7.52713 0
M  V30 2996 N 285.273 -1.31445 -0.869486 0
M  V30 2997 C 286.223 -1.15731 -1.96444 0
M  V30 2998 C 287.207 -0.0681855 -1.60755 0
M  V30 2999 O 288.399 -0.293154 -1.74555 0
M  V30 3000 C 285.528 -0.867255 -3.32165 0
M  V30 3001 C 284.614 -1.99738 -3.74119 0
M  V30 3002 N 285.005 -3.24447 -3.88031 0
M  V30 3003 C 283.303 -1.89723 -4.03635 0
M  V30 3004 C 284.004 -3.98374 -4.23879 0
M  V30 3005 N 282.98 -3.26547 -4.3459 0
M  V30 3006 H 286.782 -2.10296 -2.05312 0
M  V30 3007 H 284.296 -1.23009 -1.06031 0
M  V30 3008 H 286.293 -0.735668 -4.10358 0
M  V30 3009 H 284.953 0.0701614 -3.24624 0
M  V30 3010 H 285.964 -3.59557 -3.72746 0
M  V30 3011 H 282.641 -1.03449 -4.04481 0
M  V30 3012 H 284.031 -5.05844 -4.42235 0
M  V30 3013 N 286.751 1.08385 -1.14413 0
M  V30 3014 C 288.162 1.62258 -0.923535 0
M  V30 3015 C 288.513 1.88691 0.537595 0
M  V30 3016 O 287.638 1.64454 1.40655 0
M  V30 3017 C 288.233 2.94781 -1.67002 0
M  V30 3018 C 286.792 3.45437 -1.495 0
M  V30 3019 C 285.939 2.19668 -1.69238 0
M  V30 3020 H 288.89 0.916086 -1.2959 0
M  V30 3021 H 288.911 3.63229 -1.13334 0
M  V30 3022 H 288.423 2.7551 -2.73342 0
M  V30 3023 H 286.524 3.6981 -0.455097 0
M  V30 3024 H 286.637 4.22173 -2.2651 0
M  V30 3025 H 285.001 2.28849 -1.11804 0
M  V30 3026 H 285.784 2.02905 -2.7692 0
M  V30 3027 N 288.23 0.939286 1.26551 0
M  V30 3028 C 289.177 0.446088 2.26448 0
M  V30 3029 C 290.147 -0.493234 1.58608 0
M  V30 3030 O 291.332 -0.409857 1.86346 0
M  V30 3031 C 288.472 -0.284375 3.43926 0
M  V30 3032 C 287.585 0.690399 4.26448 0
M  V30 3033 C 286.72 -0.0610712 5.31165 0
M  V30 3034 C 285.759 0.905649 6.05363 0
M  V30 3035 N 284.896 0.186055 7.01853 0
M  V30 3036 H 289.736 1.30291 2.68008 0
M  V30 3037 H 287.273 0.65371 1.31776 0
M  V30 3038 H 289.231 -0.724313 4.10864 0
M  V30 3039 H 287.861 -1.10535 3.03285 0
M  V30 3040 H 286.913 1.24885 3.59316 0
M  V30 3041 H 288.225 1.42873 4.779 0
M  V30 3042 H 287.379 -0.56038 6.04106 0
M  V30 3043 H 286.118 -0.832297 4.80546 0
M  V30 3044 H 285.123 1.4161 5.3125 0
M  V30 3045 H 286.348 1.67685 6.58072 0
M  V30 3046 H 284.294 -0.566714 6.53548 0
M  V30 3047 H 284.211 0.863752 7.51049 0
M  V30 3048 H 285.479 -0.292221 7.78952 0
M  V30 3049 N 289.708 -1.40897 0.706093 0
M  V30 3050 C 290.638 -2.33418 0.0620085 0
M  V30 3051 C 291.619 -1.52385 -0.755827 0
M  V30 3052 O 292.804 -1.80886 -0.706674 0
M  V30 3053 C 289.934 -3.36293 -0.867445 0
M  V30 3054 C 288.888 -4.27716 -0.155932 0
M  V30 3055 C 288.214 -5.2105 -1.20046 0
M  V30 3056 C 289.514 -5.12944 0.984149 0
M  V30 3057 H 291.208 -2.87527 0.83477 0
M  V30 3058 H 288.754 -1.38249 0.402875 0
M  V30 3059 H 290.707 -3.99949 -1.32735 0
M  V30 3060 H 289.431 -2.80556 -1.67199 0
M  V30 3061 H 288.09 -3.65498 0.284047 0
M  V30 3062 H 287.738 -4.61624 -1.99781 0
M  V30 3063 H 287.438 -5.83056 -0.729328 0
M  V30 3064 H 288.962 -5.87584 -1.66066 0
M  V30 3065 H 290.376 -5.70109 0.604048 0
M  V30 3066 H 288.773 -5.83945 1.38304 0
M  V30 3067 H 289.843 -4.49485 1.81911 0
M  V30 3068 N 291.186 -0.45159 -1.50991 0
M  V30 3069 C 292.435 0.111653 -2.01391 0
M  V30 3070 C 292.748 1.42529 -1.33959 0
M  V30 3071 O 293.954 2.07232 -1.75405 0
M  V30 3072 C 292.41 0.249514 -3.59034 0
M  V30 3073 C 292.018 -1.05453 -4.35412 0
M  V30 3074 C 293.762 0.765762 -4.17536 0
M  V30 3075 C 291.669 -0.881529 -5.84793 0
M  V30 3076 H 290.599 0.0455022 -0.752626 0
M  V30 3077 H 293.25 -0.583524 -1.73975 0
M  V30 3078 H 291.632 1.00803 -3.82955 0
M  V30 3079 H 292.806 -1.82248 -4.23229 0
M  V30 3080 H 291.121 -1.50039 -3.88429 0
M  V30 3081 H 293.718 0.911913 -5.26866 0
M  V30 3082 H 294.061 1.75201 -3.77638 0
M  V30 3083 H 294.594 0.0651744 -3.97747 0
M  V30 3084 H 291.333 -1.84057 -6.29129 0
M  V30 3085 H 290.853 -0.153625 -5.99603 0
M  V30 3086 H 292.532 -0.540363 -6.4474 0
M  V30 3087 N 292.664 1.56529 -0.183458 0
M  V30 3088 C 293.913 1.96419 0.458511 0
M  V30 3089 C 294.226 1.0727 1.63562 0
M  V30 3090 O 295.432 1.36893 2.34462 0
M  V30 3091 C 293.888 3.49298 0.867122 0
M  V30 3092 C 293.496 4.47092 -0.285057 0
M  V30 3093 C 295.24 3.97983 1.47683 0
M  V30 3094 C 293.147 5.91225 0.143862 0
M  V30 3095 H 292.077 0.733394 0.175071 0
M  V30 3096 H 294.728 1.81448 -0.273624 0
M  V30 3097 H 293.11 3.59731 1.65559 0
M  V30 3098 H 294.284 4.48383 -1.0625 0
M  V30 3099 H 292.599 4.08535 -0.805503 0
M  V30 3100 H 295.196 5.03134 1.80999 0
M  V30 3101 H 295.539 3.41618 2.37914 0
M  V30 3102 H 296.072 3.90617 0.752562 0
M  V30 3103 H 292.811 6.5149 -0.723974 0
M  V30 3104 H 292.331 5.93214 0.886413 0
M  V30 3105 H 294.01 6.44362 0.583628 0
M  V30 3106 N 294.142 -0.090211 1.57342 0
M  V30 3107 C 295.105 -1.09335 2.01441 0
M  V30 3108 C 296.105 -1.32666 0.908641 0
M  V30 3109 O 297.295 -1.28697 1.174 0
M  V30 3110 C 294.427 -2.44136 2.3793 0
M  V30 3111 H 295.62 -0.713662 2.91285 0
M  V30 3112 H 293.173 -0.335404 1.52659 0
M  V30 3113 H 293.908 -2.86972 1.51055 0
M  V30 3114 H 293.693 -2.28548 3.18603 0
M  V30 3115 H 295.183 -3.16277 2.72688 0
M  V30 3116 N 295.62 -1.53406 -0.361157 0
M  V30 3117 C 296.868 -1.69467 -1.10115 0
M  V30 3118 C 297.189 -0.451352 -1.89705 0
M  V30 3119 O 296.459 0.534636 -1.88463 0
M  V30 3120 H 295.039 -0.624749 -0.409508 0
M  V30 3121 H 297.701 -1.90609 -0.406699 0
M  V30 3122 H 296.797 -2.55774 -1.78847 0
M  V30 3123 N 297.098 0.621204 -1.44841 0
M  V30 3124 C 298.326 1.40752 -1.51646 0
M  V30 3125 C 298.741 1.88246 -0.144549 0
M  V30 3126 O 298.098 1.61422 0.851416 0
M  V30 3127 C 298.149 2.62119 -2.4895 0
M  V30 3128 O 297.87 2.16602 -3.80808 0
M  V30 3129 C 299.371 3.55135 -2.65319 0
M  V30 3130 H 296.591 0.431325 -0.514004 0
M  V30 3131 H 299.135 0.758835 -1.899 0
M  V30 3132 H 297.29 3.23058 -2.13805 0
M  V30 3133 H 297.704 2.95358 -4.33433 0
M  V30 3134 H 299.178 4.36874 -3.37409 0
M  V30 3135 H 299.655 4.04592 -1.70886 0
M  V30 3136 H 300.261 3.00058 -3.01405 0
M  V30 3137 N 298.576 1.31904 0.862503 0
M  V30 3138 C 299.801 1.25135 1.65397 0
M  V30 3139 C 300.226 -0.179 1.87246 0
M  V30 3140 O 299.584 -1.1277 1.4196 0
M  V30 3141 C 299.632 2.00832 2.99498 0
M  V30 3142 O 298.736 1.35075 3.89652 0
M  V30 3143 H 298.077 0.431655 0.504549 0
M  V30 3144 H 300.607 1.74094 1.07483 0
M  V30 3145 H 300.617 2.10709 3.49379 0
M  V30 3146 H 299.292 3.04847 2.82916 0
M  V30 3147 H 297.869 1.33696 3.48109 0
M  V30 3148 N 300.054 -1.07777 1.14986 0
M  V30 3149 C 301.294 -1.81888 0.932527 0
M  V30 3150 C 301.658 -1.84509 -0.531064 0
M  V30 3151 O 302.859 -2.54448 -0.866577 0
M  V30 3152 C 301.13 -3.23244 1.52473 0
M  V30 3153 S 302.689 -4.14154 1.44989 0
M  V30 3154 H 299.507 -0.626752 0.335712 0
M  V30 3155 H 302.109 -1.29503 1.46455 0
M  V30 3156 H 300.813 -3.18922 2.58296 0
M  V30 3157 H 300.344 -3.80704 0.991381 0
M  V30 3158 H 302.359 -4.94247 0.439799 0
M  V30 3159 N 301.532 -0.945985 -1.26051 0
M  V30 3160 C 302.762 -0.612136 -1.97323 0
M  V30 3161 C 303.17 0.818171 -1.70595 0
M  V30 3162 O 302.513 1.55777 -0.973613 0
M  V30 3163 C 302.575 -0.780347 -3.50929 0
M  V30 3164 C 302.239 -2.18619 -4.01317 0
M  V30 3165 C 303.236 -3.16209 -4.12683 0
M  V30 3166 C 300.921 -2.50805 -4.35203 0
M  V30 3167 C 302.915 -4.44085 -4.57238 0
M  V30 3168 C 300.602 -3.78912 -4.79446 0
M  V30 3169 C 301.6 -4.75365 -4.90425 0
M  V30 3170 O 301.288 -6.01191 -5.3369 0
M  V30 3171 H 301.02 -0.229134 -0.635982 0
M  V30 3172 H 303.574 -1.27036 -1.61404 0
M  V30 3173 H 301.804 -0.0649864 -3.86645 0
M  V30 3174 H 303.493 -0.448842 -4.03411 0
M  V30 3175 H 304.259 -2.92668 -3.86744 0
M  V30 3176 H 300.138 -1.76463 -4.2589 0
M  V30 3177 H 303.682 -5.19373 -4.65723 0
M  V30 3178 H 299.579 -4.02265 -5.0483 0
M  V30 3179 H 300.347 -6.04442 -5.51899 0
M  V30 3180 N 303.011 1.40521 -0.713556 0
M  V30 3181 C 304.236 2.05759 -0.26035 0
M  V30 3182 C 304.661 1.53403 1.08854 0
M  V30 3183 O 304.019 0.668535 1.68524 0
M  V30 3184 C 304.067 3.59745 -0.248122 0
M  V30 3185 O 303.171 4.05123 0.77131 0
M  V30 3186 H 302.512 0.652564 -0.122703 0
M  V30 3187 H 305.042 1.79958 -0.973467 0
M  V30 3188 H 305.052 4.07911 -0.0851129 0
M  V30 3189 H 303.727 3.97218 -1.2325 0
M  V30 3190 H 302.304 3.68422 0.57619 0
M  V30 3191 N 304.489 0.459591 1.5075 0
M  V30 3192 C 305.905 0.113092 1.59199 0
M  V30 3193 C 306.105 -1.37951 1.46874 0
M  V30 3194 O 305.161 -2.15168 1.32132 0
M  V30 3195 C 306.474 0.653043 2.93523 0
M  V30 3196 C 308.022 0.615449 3.0689 0
M  V30 3197 C 308.497 1.13275 4.43771 0
M  V30 3198 N 309.988 1.09167 4.50152 0
M  V30 3199 C 310.723 1.46256 5.54434 0
M  V30 3200 N 310.219 1.90739 6.66026 0
M  V30 3201 N 312.012 1.37932 5.44914 0
M  V30 3202 H 304.163 1.43049 1.57005 0
M  V30 3203 H 306.426 0.590861 0.741341 0
M  V30 3204 H 306.132 1.69822 3.07983 0
M  V30 3205 H 306.006 0.0902132 3.77092 0
M  V30 3206 H 308.393 -0.420793 2.92084 0
M  V30 3207 H 308.474 1.21495 2.25106 0
M  V30 3208 H 308.118 2.16757 4.59324 0
M  V30 3209 H 308.048 0.509576 5.24129 0
M  V30 3210 H 310.539 0.76528 3.7007 0
M  V30 3211 H 310.852 2.17218 7.41644 0
M  V30 3212 H 309.197 1.94683 6.67176 0
M  V30 3213 H 312.388 1.0303 4.56621 0
M  V30 3214 H 312.561 1.67164 6.26067 0
M  V30 3215 N 305.967 -1.56429 0.191757 0
M  V30 3216 C 306.915 -2.20273 -0.747174 0
M  V30 3217 C 307.909 -1.17288 -1.22229 0
M  V30 3218 O 309.115 -1.35441 -1.18557 0
M  V30 3219 H 305.49 -0.705885 -0.259289 0
M  V30 3220 H 307.461 -2.97826 -0.184963 0
M  V30 3221 C 306.21 -2.87356 -1.95759 0
M  V30 3222 H 305.533 -3.66341 -1.60106 0
M  V30 3223 H 306.973 -3.3547 -2.59299 0
M  V30 3224 C 305.432 -1.88213 -2.79423 0
M  V30 3225 O 305.962 -1.38033 -3.7724 0
M  V30 3226 N 304.168 -1.56516 -2.44849 0
M  V30 3227 H 303.715 -1.97516 -1.65364 0
M  V30 3228 H 303.673 -0.904369 -3.01112 0
M  V30 3229 N 307.445 0.0818655 -1.57387 0
M  V30 3230 C 308.375 1.09885 -2.06028 0
M  V30 3231 C 309.356 1.4098 -0.951774 0
M  V30 3232 O 310.541 1.50781 -1.22387 0
M  V30 3233 C 307.671 2.4151 -2.4958 0
M  V30 3234 C 306.625 2.24792 -3.64215 0
M  V30 3235 C 305.951 3.61712 -3.93787 0
M  V30 3236 C 307.251 1.67749 -4.94629 0
M  V30 3237 H 308.945 0.694128 -2.91243 0
M  V30 3238 H 306.491 0.332448 -1.4011 0
M  V30 3239 H 308.444 3.12939 -2.82219 0
M  V30 3240 H 307.168 2.83943 -1.61381 0
M  V30 3241 H 305.827 1.55807 -3.31843 0
M  V30 3242 H 305.475 4.01697 -3.02735 0
M  V30 3243 H 305.175 3.51368 -4.70971 0
M  V30 3244 H 306.699 4.34587 -4.28913 0
M  V30 3245 H 308.113 2.29032 -5.25564 0
M  V30 3246 H 306.51 1.68128 -5.76067 0
M  V30 3247 H 307.58 0.638059 -4.80684 0
M  V30 3248 N 308.923 1.53595 0.353017 0
M  V30 3249 C 309.833 1.83897 1.45667 0
M  V30 3250 C 310.849 0.728334 1.58023 0
M  V30 3251 O 312.025 1.01968 1.73679 0
M  V30 3252 C 309.09 2.03383 2.80778 0
M  V30 3253 C 308.151 3.27262 2.77845 0
M  V30 3254 C 307.384 3.45809 4.06512 0
M  V30 3255 O 307.607 2.68387 5.03314 0
M  V30 3256 O 306.541 4.39207 4.11559 0
M  V30 3257 H 310.367 2.77686 1.2298 0
M  V30 3258 H 307.952 1.39132 0.544308 0
M  V30 3259 H 309.834 2.17698 3.60812 0
M  V30 3260 H 308.509 1.12783 3.03417 0
M  V30 3261 H 307.416 3.18359 1.96465 0
M  V30 3262 H 308.749 4.17824 2.60161 0
M  V30 3263 N 310.401 -0.613514 1.45168 0
M  V30 3264 C 311.631 -1.39743 1.52169 0
M  V30 3265 C 312.039 -1.88596 0.151086 0
M  V30 3266 O 311.382 -1.6251 -0.856521 0
M  V30 3267 C 311.444 -2.64035 2.43979 0
M  V30 3268 C 311.108 -2.36861 3.90827 0
M  V30 3269 C 312.105 -1.97591 4.80889 0
M  V30 3270 C 309.79 -2.49956 4.35692 0
M  V30 3271 C 311.784 -1.71768 6.1382 0
M  V30 3272 C 309.471 -2.23747 5.68665 0
M  V30 3273 C 310.469 -1.84714 6.57548 0
M  V30 3274 O 310.157 -1.58809 7.88058 0
M  V30 3275 H 309.889 -0.434382 0.517966 0
M  V30 3276 H 312.443 -0.75587 1.90986 0
M  V30 3277 H 310.673 -3.3089 2.00122 0
M  V30 3278 H 312.362 -3.26069 2.41731 0
M  V30 3279 H 313.128 -1.87015 4.47493 0
M  V30 3280 H 309.007 -2.79305 3.66756 0
M  V30 3281 H 312.551 -1.41227 6.83155 0
M  V30 3282 H 308.448 -2.33938 6.01617 0
M  V30 3283 H 309.216 -1.7291 8.00028 0
M  V30 3284 N 311.879 -1.3236 -0.855495 0
M  V30 3285 C 312.842 -1.21164 -1.94556 0
M  V30 3286 C 313.842 -0.134908 -1.60233 0
M  V30 3287 O 315.032 -0.385249 -1.69887 0
M  V30 3288 C 312.164 -0.863192 -3.29791 0
M  V30 3289 H 313.357 -2.18038 -2.05911 0
M  V30 3290 H 310.91 -1.16179 -1.04557 0
M  V30 3291 H 311.645 0.103769 -3.24134 0
M  V30 3292 H 311.43 -1.64166 -3.56078 0
M  V30 3293 H 312.92 -0.809156 -4.09686 0
M  V30 3294 N 313.357 1.07166 -1.15556 0
M  V30 3295 C 314.773 1.31899 -0.898603 0
M  V30 3296 C 314.973 1.96333 0.453383 0
M  V30 3297 O 314.029 2.22438 1.19489 0
M  V30 3298 C 315.342 2.20826 -2.04099 0
M  V30 3299 C 316.89 2.34269 -2.07574 0
M  V30 3300 C 317.365 3.26546 -3.21141 0
M  V30 3301 N 318.856 3.34127 -3.20801 0
M  V30 3302 C 319.591 4.05595 -4.05315 0
M  V30 3303 N 319.087 4.79661 -4.99897 0
M  V30 3304 N 320.88 4.01555 -3.93332 0
M  V30 3305 H 313.031 0.637302 -2.02613 0
M  V30 3306 H 315.294 0.343468 -0.883591 0
M  V30 3307 H 315 1.80744 -3.01703 0
M  V30 3308 H 314.874 3.21364 -1.97496 0
M  V30 3309 H 317.261 2.73603 -1.10568 0
M  V30 3310 H 317.342 1.33429 -2.18244 0
M  V30 3311 H 316.986 2.87931 -4.184 0
M  V30 3312 H 316.916 4.27345 -3.07708 0
M  V30 3313 H 319.407 2.81336 -2.52306 0
M  V30 3314 H 319.72 5.31694 -5.60822 0
M  V30 3315 H 318.065 4.78671 -5.03884 0
M  V30 3316 H 321.256 3.42806 -3.18751 0
M  V30 3317 H 321.429 4.56987 -4.5942 0
M  V30 3318 N 314.835 0.952656 1.25548 0
M  V30 3319 C 315.765 0.489287 2.28316 0
M  V30 3320 C 316.746 -0.463359 1.63667 0
M  V30 3321 O 317.931 -0.36274 1.90782 0
M  V30 3322 C 315.061 -0.235603 3.465 0
M  V30 3323 C 314.015 0.631593 4.23314 0
M  V30 3324 C 313.341 -0.223923 5.34231 0
M  V30 3325 C 314.641 1.90871 4.86174 0
M  V30 3326 H 316.335 1.34822 2.67326 0
M  V30 3327 H 313.881 0.649728 1.28509 0
M  V30 3328 H 315.834 -0.570882 4.17515 0
M  V30 3329 H 314.558 -1.12877 3.06474 0
M  V30 3330 H 313.217 0.949929 3.54079 0
M  V30 3331 H 312.865 -1.11678 4.90446 0
M  V30 3332 H 312.565 0.35299 5.86539 0
M  V30 3333 H 314.089 -0.554214 6.0808 0
M  V30 3334 H 315.503 1.63997 5.49343 0
M  V30 3335 H 313.9 2.43112 5.4865 0
M  V30 3336 H 314.97 2.61304 4.08471 0
M  V30 3337 N 316.313 -1.40141 0.720998 0
M  V30 3338 C 317.729 -1.54632 0.395113 0
M  V30 3339 C 317.929 -1.69115 -1.09555 0
M  V30 3340 O 316.985 -1.68377 -1.88163 0
M  V30 3341 C 318.298 -2.77177 1.1659 0
M  V30 3342 C 319.846 -2.91 1.15274 0
M  V30 3343 C 320.321 -4.16465 1.90579 0
M  V30 3344 N 321.812 -4.23476 1.87675 0
M  V30 3345 C 322.547 -5.19475 2.42762 0
M  V30 3346 N 322.043 -6.21348 3.06428 0
M  V30 3347 N 323.836 -5.11592 2.32874 0
M  V30 3348 H 315.987 -1.28986 1.68749 0
M  V30 3349 H 318.25 -0.62412 0.713567 0
M  V30 3350 H 317.956 -2.72771 2.22011 0
M  V30 3351 H 317.83 -3.69442 0.76108 0
M  V30 3352 H 320.217 -2.94907 0.106702 0
M  V30 3353 H 320.298 -1.99838 1.59682 0
M  V30 3354 H 319.942 -4.1332 2.95176 0
M  V30 3355 H 319.872 -5.06646 1.43587 0
M  V30 3356 H 322.363 -3.50497 1.41281 0
M  V30 3357 H 322.676 -6.91034 3.45965 0
M  V30 3358 H 321.021 -6.21777 3.10514 0
M  V30 3359 H 324.212 -4.30936 1.82789 0
M  V30 3360 H 324.385 -5.86233 2.76106 0
M  V30 3361 N 317.792 -0.46758 -1.50504 0
M  V30 3362 C 318.739 0.328413 -2.28452 0
M  V30 3363 C 319.709 0.990313 -1.33349 0
M  V30 3364 O 320.894 1.00343 -1.62284 0
M  V30 3365 C 318.034 1.40648 -3.15138 0
M  V30 3366 C 317.147 0.759709 -4.25267 0
M  V30 3367 C 316.282 1.81537 -4.99217 0
M  V30 3368 C 315.321 1.14866 -6.01226 0
M  V30 3369 N 314.458 2.14702 -6.68467 0
M  V30 3370 H 319.298 -0.342603 -2.96024 0
M  V30 3371 H 316.835 -0.180801 -1.45985 0
M  V30 3372 H 318.793 2.04315 -3.63746 0
M  V30 3373 H 317.423 2.04671 -2.49619 0
M  V30 3374 H 316.475 0.0105671 -3.80399 0
M  V30 3375 H 317.787 0.233243 -4.98254 0
M  V30 3376 H 316.941 2.52793 -5.51526 0
M  V30 3377 H 315.68 2.37564 -4.25928 0
M  V30 3378 H 314.685 0.42171 -5.4818 0
M  V30 3379 H 315.91 0.595334 -6.76485 0
M  V30 3380 H 313.856 2.69752 -5.97972 0
M  V30 3381 H 313.773 1.6703 -7.37317 0
M  V30 3382 H 315.041 2.85348 -7.25394 0
M  V30 3383 N 319.27 1.56325 -0.20005 0
M  V30 3384 C 320.519 1.96895 0.437652 0
M  V30 3385 C 320.832 1.08999 1.62415 0
M  V30 3386 O 322.038 1.39372 2.32997 0
M  V30 3387 C 320.494 3.50198 0.830025 0
M  V30 3388 C 320.102 4.46765 -0.332461 0
M  V30 3389 C 321.846 3.99526 1.43453 0
M  V30 3390 C 319.753 5.91344 0.0811468 0
M  V30 3391 H 318.683 0.735209 0.167282 0
M  V30 3392 H 321.334 1.81148 -0.292853 0
M  V30 3393 H 319.716 3.61467 1.61734 0
M  V30 3394 H 320.89 4.47231 -1.11 0
M  V30 3395 H 319.205 4.07657 -0.848789 0
M  V30 3396 H 321.802 5.05025 1.75652 0
M  V30 3397 H 322.145 3.44122 2.34277 0
M  V30 3398 H 322.678 3.91393 0.71109 0
M  V30 3399 H 319.417 6.50685 -0.793033 0
M  V30 3400 H 318.937 5.94121 0.823445 0
M  V30 3401 H 320.616 6.44945 0.515252 0
M  V30 3402 N 320.748 -0.0735177 1.57428 0
M  V30 3403 C 321.711 -1.07192 2.02589 0
M  V30 3404 C 322.711 -1.31695 0.922661 0
M  V30 3405 O 323.901 -1.27445 1.18758 0
M  V30 3406 C 321.033 -2.41599 2.40506 0
M  V30 3407 H 322.226 -0.682727 2.92025 0
M  V30 3408 H 319.779 -0.319193 1.53006 0
M  V30 3409 H 320.514 -2.85354 1.5409 0
M  V30 3410 H 320.299 -2.25156 3.21009 0
M  V30 3411 H 321.789 -3.13367 2.76027 0
M  V30 3412 N 322.226 -1.5378 -0.344866 0
M  V30 3413 C 323.503 -1.61589 -1.10219 0
M  V30 3414 C 323.883 -0.436316 -2.06542 0
M  V30 3415 O 323.231 0.571543 -2.21237 0
M  V30 3416 C 323.441 -2.97602 -1.82301 0
M  V30 3417 C 324.789 -3.5291 -2.36093 0
M  V30 3418 O 325.813 -2.99768 -1.924 0
M  V30 3419 O 324.672 -4.45859 -3.16026 0
M  V30 3420 H 321.766 -0.653522 -0.506792 0
M  V30 3421 H 324.312 -1.66126 -0.346465 0
M  V30 3422 H 323.084 -3.74893 -1.12121 0
M  V30 3423 H 322.707 -2.9665 -2.64735 0
M  V30 3424 N 323.704 0.605807 -1.45491 0
M  V30 3425 C 324.614 1.74466 -1.56839 0
M  V30 3426 C 325.63 1.68006 -0.452772 0
M  V30 3427 O 326.806 1.8833 -0.713708 0
M  V30 3428 C 323.871 3.10931 -1.53371 0
M  V30 3429 C 322.932 3.28832 -2.75986 0
M  V30 3430 C 322.165 4.58787 -2.72673 0
M  V30 3431 O 322.388 5.4122 -1.80102 0
M  V30 3432 O 321.322 4.79438 -3.63899 0
M  V30 3433 H 325.148 1.67843 -2.53106 0
M  V30 3434 H 322.733 0.770108 -1.28022 0
M  V30 3435 H 324.615 3.92233 -1.54051 0
M  V30 3436 H 323.29 3.18042 -0.602572 0
M  V30 3437 H 322.197 2.47112 -2.80867 0
M  V30 3438 H 323.53 3.26599 -3.68231 0
M  V30 3439 N 325.182 1.32811 0.848464 0
M  V30 3440 C 326.13 1.22231 1.97895 0
M  V30 3441 C 327.124 0.125749 1.68933 0
M  V30 3442 O 328.33 0.289083 1.77663 0
M  V30 3443 H 324.705 0.379058 0.649476 0
M  V30 3444 H 326.676 2.17828 2.03945 0
M  V30 3445 C 325.425 0.968572 3.33937 0
M  V30 3446 H 324.748 1.80458 3.56756 0
M  V30 3447 H 326.188 0.934808 4.13567 0
M  V30 3448 C 324.647 -0.328628 3.35293 0
M  V30 3449 O 325.177 -1.33848 3.78745 0
M  V30 3450 N 323.383 -0.352788 2.88451 0
M  V30 3451 H 322.93 0.469541 2.53285 0
M  V30 3452 H 322.888 -1.22057 2.89741 0
M  V30 3453 N 326.66 -1.06551 1.16123 0
M  V30 3454 C 327.908 -1.78947 0.939267 0
M  V30 3455 C 328.229 -1.87532 -0.534476 0
M  V30 3456 O 327.499 -1.38211 -1.38833 0
M  V30 3457 H 326.079 -0.662807 0.344523 0
M  V30 3458 H 328.741 -1.28725 1.46342 0
M  V30 3459 H 327.837 -2.81117 1.35572 0
M  V30 3460 N 328.138 -0.959301 -1.25041 0
M  V30 3461 C 329.101 -0.487677 -2.23952 0
M  V30 3462 C 330.101 0.41119 -1.55454 0
M  V30 3463 O 331.291 0.207825 -1.72956 0
M  V30 3464 C 328.423 0.294807 -3.39623 0
M  V30 3465 H 329.616 -1.36198 -2.67189 0
M  V30 3466 H 327.169 -0.743042 -1.37508 0
M  V30 3467 H 327.904 1.18658 -3.01813 0
M  V30 3468 H 327.689 -0.35012 -3.90534 0
M  V30 3469 H 329.179 0.614089 -4.1306 0
M  V30 3470 N 329.616 1.39756 -0.72842 0
M  V30 3471 C 330.846 2.04651 -0.283117 0
M  V30 3472 C 331.254 1.5502 1.08469 0
M  V30 3473 O 330.597 0.707343 1.69536 0
M  V30 3474 C 330.659 3.58947 -0.199309 0
M  V30 3475 C 330.323 4.31525 -1.5045 0
M  V30 3476 C 331.32 4.5861 -2.44894 0
M  V30 3477 C 329.005 4.70195 -1.76698 0
M  V30 3478 C 330.999 5.23366 -3.63822 0
M  V30 3479 C 328.686 5.3468 -2.95906 0
M  V30 3480 C 329.684 5.61198 -3.89289 0
M  V30 3481 O 329.372 6.24347 -5.06404 0
M  V30 3482 H 329.104 0.664777 -0.122666 0
M  V30 3483 H 331.658 1.79913 -0.990987 0
M  V30 3484 H 329.888 3.82556 0.56461 0
M  V30 3485 H 331.577 4.0534 0.213125 0
M  V30 3486 H 332.343 4.29187 -2.25883 0
M  V30 3487 H 328.222 4.48916 -1.04859 0
M  V30 3488 H 331.766 5.4398 -4.36728 0
M  V30 3489 H 327.663 5.63524 -3.14819 0
M  V30 3490 H 328.431 6.42842 -5.06652 0
M  V30 3491 N 331.094 0.475555 1.50254 0
M  V30 3492 C 332.024 -0.30611 2.31485 0
M  V30 3493 C 333.005 -0.986228 1.38591 0
M  V30 3494 O 334.19 -0.982541 1.67511 0
M  V30 3495 C 331.32 -1.38588 3.1845 0
M  V30 3496 C 330.274 -0.827115 4.19932 0
M  V30 3497 C 329.6 -2.00551 4.95665 0
M  V30 3498 C 330.9 0.16463 5.2204 0
M  V30 3499 H 332.594 0.371866 2.97082 0
M  V30 3500 H 330.14 0.180282 1.42867 0
M  V30 3501 H 332.093 -1.94023 3.74076 0
M  V30 3502 H 330.817 -2.09269 2.50747 0
M  V30 3503 H 329.476 -0.294702 3.65414 0
M  V30 3504 H 329.124 -2.6994 4.2443 0
M  V30 3505 H 328.824 -1.63784 5.64313 0
M  V30 3506 H 330.348 -2.56468 5.54127 0
M  V30 3507 H 331.762 -0.300699 5.72511 0
M  V30 3508 H 330.159 0.446813 5.98434 0
M  V30 3509 H 331.229 1.08905 4.72512 0
M  V30 3510 N 332.573 -1.56217 0.208337 0
M  V30 3511 C 333.506 -2.15633 -0.746842 0
M  V30 3512 C 334.484 -1.09685 -1.20034 0
M  V30 3513 O 335.668 -1.3787 -1.28547 0
M  V30 3514 C 332.795 -2.72594 -2.01023 0
M  V30 3515 C 331.841 -3.91251 -1.69779 0
M  V30 3516 S 332.674 -5.28962 -0.834209 0
M  V30 3517 C 333.83 -5.89353 -2.10745 0
M  V30 3518 H 334.063 -2.96315 -0.241789 0
M  V30 3519 H 331.596 -1.54398 -0.00682183 0
M  V30 3520 H 333.554 -3.06053 -2.73572 0
M  V30 3521 H 332.215 -1.91929 -2.48641 0
M  V30 3522 H 331.408 -4.29562 -2.63614 0
M  V30 3523 H 331.01 -3.58869 -1.05303 0
M  V30 3524 H 333.302 -6.04522 -3.05875 0
M  V30 3525 H 334.245 -6.85661 -1.76845 0
M  V30 3526 H 334.653 -5.1807 -2.24196 0
M  V30 3527 N 334.051 0.0651679 -1.57465 0
M  V30 3528 C 335.014 1.06117 -2.03155 0
M  V30 3529 C 336.014 1.31204 -0.929632 0
M  V30 3530 O 337.204 1.26813 -1.19432 0
M  V30 3531 C 334.336 2.4032 -2.41783 0
M  V30 3532 H 335.529 0.667231 -2.92383 0
M  V30 3533 H 333.082 0.311075 -1.53173 0
M  V30 3534 H 333.817 2.84532 -1.55601 0
M  V30 3535 H 333.602 2.23451 -3.22199 0
M  V30 3536 H 335.092 3.11898 -2.77685 0
M  V30 3537 N 335.529 1.53961 0.336706 0
M  V30 3538 C 336.806 1.62171 1.09361 0
M  V30 3539 C 337.186 0.447263 2.06307 0
M  V30 3540 O 336.534 -0.559802 2.21537 0
M  V30 3541 C 336.744 2.98565 1.80721 0
M  V30 3542 C 338.092 3.54157 2.34218 0
M  V30 3543 O 339.116 3.00784 1.90807 0
M  V30 3544 O 337.975 4.47528 3.13657 0
M  V30 3545 H 335.069 0.6562 0.503319 0
M  V30 3546 H 337.615 1.66307 0.33765 0
M  V30 3547 H 336.387 3.75482 1.10132 0
M  V30 3548 H 336.01 2.9805 2.63158 0
M  V30 3549 N 337.007 -0.598083 1.45811 0
M  V30 3550 C 337.94 -1.7223 1.49706 0
M  V30 3551 C 338.918 -1.58732 0.352535 0
M  V30 3552 O 340.102 -1.80162 0.554438 0
M  V30 3553 C 337.229 -3.10148 1.3611 0
M  V30 3554 C 336.275 -3.42209 2.54549 0
M  V30 3555 S 337.108 -3.35989 4.16979 0
M  V30 3556 C 338.264 -4.76471 4.05865 0
M  V30 3557 H 338.497 -1.68665 2.44826 0
M  V30 3558 H 336.03 -0.775541 1.33509 0
M  V30 3559 H 337.988 -3.8972 1.28953 0
M  V30 3560 H 336.649 -3.11219 0.424451 0
M  V30 3561 H 335.842 -4.42652 2.40988 0
M  V30 3562 H 335.444 -2.70173 2.58617 0
M  V30 3563 H 337.736 -5.665 3.71596 0
M  V30 3564 H 338.679 -4.95089 5.06253 0
M  V30 3565 H 339.087 -4.52599 3.37364 0
M  V30 3566 N 338.485 -1.33259 -0.841409 0
M  V30 3567 C 339.448 -1.23221 -1.9326 0
M  V30 3568 C 340.448 -0.151895 -1.60081 0
M  V30 3569 O 341.638 -0.403246 -1.69468 0
M  V30 3570 C 338.77 -0.898123 -3.28856 0
M  V30 3571 H 339.963 -2.2021 -2.03587 0
M  V30 3572 H 337.516 -1.17281 -1.03319 0
M  V30 3573 H 338.251 0.0693841 -3.24226 0
M  V30 3574 H 338.036 -1.67934 -3.54317 0
M  V30 3575 H 339.526 -0.852563 -4.08805 0
M  V30 3576 N 339.963 1.05934 -1.16686 0
M  V30 3577 C 340.913 2.11764 -0.844978 0
M  V30 3578 C 341.897 1.59922 0.177178 0
M  V30 3579 O 343.089 1.76983 -0.0241768 0
M  V30 3580 C 340.218 3.41493 -0.351812 0
M  V30 3581 C 339.304 4.00152 -1.40496 0
M  V30 3582 N 339.695 4.32874 -2.61636 0
M  V30 3583 C 337.993 4.278 -1.26106 0
M  V30 3584 C 338.694 4.79552 -3.29249 0
M  V30 3585 N 337.67 4.79211 -2.56628 0
M  V30 3586 H 341.472 2.34916 -1.76612 0
M  V30 3587 H 338.986 1.23511 -1.05446 0
M  V30 3588 H 340.983 4.16773 -0.102796 0
M  V30 3589 H 339.643 3.19778 0.56322 0
M  V30 3590 H 340.654 4.23109 -2.98663 0
M  V30 3591 H 337.331 4.15511 -0.407081 0
M  V30 3592 H 338.721 5.14045 -4.32675 0
M  V30 3593 N 341.441 0.965919 1.2453 0
M  V30 3594 C 342.69 0.622437 1.91856 0
M  V30 3595 C 343.003 -0.846006 1.76358 0
M  V30 3596 O 344.209 -1.29993 2.38357 0
M  V30 3597 C 342.665 1.0626 3.43856 0
M  V30 3598 C 342.273 2.55437 3.68043 0
M  V30 3599 C 344.017 0.792183 4.17043 0
M  V30 3600 C 341.924 2.93196 5.13605 0
M  V30 3601 H 340.854 0.229092 0.718354 0
M  V30 3602 H 343.505 1.17189 1.41206 0
M  V30 3603 H 341.887 0.441476 3.93531 0
M  V30 3604 H 343.061 3.22665 3.28974 0
M  V30 3605 H 341.376 2.8007 3.08139 0
M  V30 3606 H 343.973 1.05031 5.24283 0
M  V30 3607 H 344.316 -0.271584 4.15413 0
M  V30 3608 H 344.849 1.37419 3.73311 0
M  V30 3609 H 341.588 3.98636 5.20355 0
M  V30 3610 H 341.108 2.30651 5.53679 0
M  V30 3611 H 342.787 2.83004 5.81823 0
M  V30 3612 N 342.919 -1.39368 0.735821 0
M  V30 3613 C 344.144 -2.05319 0.293052 0
M  V30 3614 C 344.569 -1.55115 -1.064 0
M  V30 3615 O 343.927 -0.695261 -1.67439 0
M  V30 3616 C 343.975 -3.59305 0.305323 0
M  V30 3617 O 343.079 -4.06299 -0.706761 0
M  V30 3618 H 342.42 -0.650529 0.13307 0
M  V30 3619 H 344.95 -1.78386 1.00197 0
M  V30 3620 H 344.96 -4.07724 0.149997 0
M  V30 3621 H 343.635 -3.95207 1.29553 0
M  V30 3622 H 342.212 -3.69292 -0.517504 0
M  V30 3623 N 344.397 -0.483516 -1.5 0
M  V30 3624 C 345.645 0.067027 -2.01989 0
M  V30 3625 C 345.966 1.3909 -1.36671 0
M  V30 3626 O 345.236 1.88978 -0.516152 0
M  V30 3627 H 343.816 0.0277606 -0.746484 0
M  V30 3628 H 346.478 -0.636773 -1.84204 0
M  V30 3629 H 345.574 0.209484 -3.11396 0
M  V30 3630 N 345.875 1.56104 -0.216619 0
M  V30 3631 C 346.805 2.23063 0.690296 0
M  V30 3632 C 347.786 1.20072 1.20485 0
M  V30 3633 O 348.971 1.48643 1.24976 0
M  V30 3634 C 346.101 2.90672 1.90072 0
M  V30 3635 C 345.055 4.00092 1.5202 0
M  V30 3636 C 344.381 4.54972 2.80899 0
M  V30 3637 C 345.681 5.17398 0.71391 0
M  V30 3638 H 347.375 2.99109 0.132038 0
M  V30 3639 H 344.921 1.43866 0.0620664 0
M  V30 3640 H 346.874 3.36204 2.54057 0
M  V30 3641 H 345.598 2.12066 2.48386 0
M  V30 3642 H 344.257 3.55283 0.903839 0
M  V30 3643 H 343.905 3.73102 3.37348 0
M  V30 3644 H 343.605 5.28817 2.56176 0
M  V30 3645 H 345.129 5.0322 3.45836 0
M  V30 3646 H 346.543 5.59342 1.25735 0
M  V30 3647 H 344.94 5.97444 0.563951 0
M  V30 3648 H 346.01 4.84088 -0.280527 0
M  V30 3649 N 347.353 -0.0568162 1.57498 0
M  V30 3650 C 348.599 -0.75422 1.88253 0
M  V30 3651 C 348.932 -1.76461 0.810865 0
M  V30 3652 O 348.207 -1.93691 -0.177259 0
M  V30 3653 C 348.49 -1.44878 3.2967 0
M  V30 3654 C 348.343 -0.453789 4.47505 0
M  V30 3655 C 349.662 -2.38994 3.69554 0
M  V30 3656 H 346.781 -0.272724 0.684683 0
M  V30 3657 H 349.423 -0.0172113 1.89992 0
M  V30 3658 H 347.573 -2.077 3.28318 0
M  V30 3659 H 349.245 0.170371 4.60985 0
M  V30 3660 H 347.488 0.229552 4.33192 0
M  V30 3661 H 348.159 -0.977699 5.43273 0
M  V30 3662 H 350.635 -1.86239 3.72095 0
M  V30 3663 H 349.511 -2.84587 4.69363 0
M  V30 3664 H 349.772 -3.24461 3.00296 0
M  V30 3665 N 348.832 -1.54138 -0.328536 0
M  V30 3666 C 349.795 -1.82462 -1.38709 0
M  V30 3667 C 350.795 -0.696229 -1.44946 0
M  V30 3668 O 351.985 -0.964535 -1.4506 0
M  V30 3669 C 349.117 -1.98018 -2.77492 0
M  V30 3670 H 350.31 -2.77037 -1.14851 0
M  V30 3671 H 347.863 -1.45779 -0.563751 0
M  V30 3672 H 348.598 -1.05637 -3.06613 0
M  V30 3673 H 348.383 -2.80124 -2.74359 0
M  V30 3674 H 349.873 -2.21396 -3.54081 0
M  V30 3675 N 350.31 0.590341 -1.46126 0
M  V30 3676 C 351.273 1.68194 -1.55703 0
M  V30 3677 C 352.273 1.54808 -0.434868 0
M  V30 3678 O 353.463 1.59564 -0.698928 0
M  V30 3679 C 350.595 3.07575 -1.47005 0
M  V30 3680 H 351.788 1.61064 -2.52979 0
M  V30 3681 H 349.341 0.807541 -1.33823 0
M  V30 3682 H 350.076 3.20268 -0.509785 0
M  V30 3683 H 349.861 3.187 -2.28414 0
M  V30 3684 H 351.351 3.87055 -1.56776 0
M  V30 3685 N 351.788 1.33704 0.83433 0
M  V30 3686 C 353.036 1.25169 1.58673 0
M  V30 3687 C 353.357 -0.18127 1.94156 0
M  V30 3688 O 352.627 -1.11113 1.6134 0
M  V30 3689 H 351.207 0.4603 0.58833 0
M  V30 3690 H 353.869 1.67478 0.996847 0
M  V30 3691 H 352.965 1.84856 2.51465 0
M  V30 3692 N 353.266 -1.05314 1.17247 0
M  V30 3693 C 354.512 -1.78557 0.961513 0
M  V30 3694 C 354.845 -1.87419 -0.508697 0
M  V30 3695 O 354.12 -1.37307 -1.37757 0
M  V30 3696 C 354.403 -3.22514 1.60176 0
M  V30 3697 C 354.256 -3.21673 3.14399 0
M  V30 3698 C 355.575 -4.20318 1.30463 0
M  V30 3699 H 352.694 -0.6482 0.350723 0
M  V30 3700 H 355.336 -1.23102 1.44727 0
M  V30 3701 H 353.486 -3.69867 1.18871 0
M  V30 3702 H 355.158 -2.82405 3.64753 0
M  V30 3703 H 353.401 -2.60048 3.47214 0
M  V30 3704 H 354.072 -4.23271 3.54324 0
M  V30 3705 H 356.548 -3.81454 1.66229 0
M  V30 3706 H 355.424 -5.19289 1.77848 0
M  V30 3707 H 355.685 -4.41526 0.22521 0
M  V30 3708 N 354.744 -0.972509 -1.24016 0
M  V30 3709 C 355.99 -0.637978 -1.92504 0
M  V30 3710 C 356.323 0.825383 -1.75787 0
M  V30 3711 O 355.598 1.59442 -1.11393 0
M  V30 3712 C 355.881 -1.01942 -3.45369 0
M  V30 3713 C 355.734 -2.53983 -3.71231 0
M  V30 3714 C 357.053 -0.55751 -4.36555 0
M  V30 3715 H 354.172 -0.233248 -0.699117 0
M  V30 3716 H 356.814 -1.21238 -1.46292 0
M  V30 3717 H 354.964 -0.530656 -3.84859 0
M  V30 3718 H 356.636 -3.10374 -3.41271 0
M  V30 3719 H 354.879 -2.96968 -3.16216 0
M  V30 3720 H 355.55 -2.75723 -4.78206 0
M  V30 3721 H 358.026 -0.977029 -4.04467 0
M  V30 3722 H 356.902 -0.85292 -5.42233 0
M  V30 3723 H 357.163 0.542328 -4.38761 0
M  V30 3724 N 356.222 1.38976 -0.743202 0
M  V30 3725 C 357.633 1.83123 -0.363732 0
M  V30 3726 C 357.984 1.6205 1.10609 0
M  V30 3727 O 357.109 1.11606 1.854 0
M  V30 3728 C 357.704 3.32439 -0.653408 0
M  V30 3729 C 356.263 3.74974 -0.327338 0
M  V30 3730 C 355.41 2.61878 -0.911875 0
M  V30 3731 H 358.361 1.27852 -0.940191 0
M  V30 3732 H 358.382 3.80432 0.0720031 0
M  V30 3733 H 357.894 3.47745 -1.72323 0
M  V30 3734 H 355.995 3.65252 0.736314 0
M  V30 3735 H 356.108 4.72106 -0.815631 0
M  V30 3736 H 354.472 2.52448 -0.337944 0
M  V30 3737 H 355.255 2.79987 -1.98651 0
M  V30 3738 N 357.7 0.491464 1.49741 0
M  V30 3739 C 358.925 -0.0557177 2.07325 0
M  V30 3740 C 359.35 -1.30925 1.35056 0
M  V30 3741 O 358.708 -1.76733 0.404365 0
M  V30 3742 C 358.756 -0.302074 3.59333 0
M  V30 3743 O 357.86 -1.37868 3.88672 0
M  V30 3744 H 357.201 0.0219956 0.663636 0
M  V30 3745 H 359.731 0.688352 1.92673 0
M  V30 3746 H 359.741 -0.536464 4.04458 0
M  V30 3747 H 358.416 0.61383 4.11345 0
M  V30 3748 H 356.993 -1.12999 3.55367 0
M  V30 3749 N 359.178 -1.55987 0.224894 0
M  V30 3750 C 360.589 -1.84553 -0.282345 0
M  V30 3751 C 360.94 -1.14634 -1.59227 0
M  V30 3752 O 360.065 -0.417155 -2.12341 0
M  V30 3753 C 360.66 -3.348 -0.519062 0
M  V30 3754 C 359.219 -3.63671 -0.970604 0
M  V30 3755 C 358.366 -2.77277 -0.0355261 0
M  V30 3756 H 361.317 -1.52245 0.448006 0
M  V30 3757 H 361.338 -3.55187 -1.36463 0
M  V30 3758 H 360.85 -3.8566 0.43449 0
M  V30 3759 H 358.951 -3.1827 -1.9374 0
M  V30 3760 H 359.064 -4.71631 -0.842698 0
M  V30 3761 H 357.428 -2.48846 -0.542927 0
M  V30 3762 H 358.211 -3.30937 0.913003 0
M  V30 3763 N 360.656 0.0484629 -1.57525 0
M  V30 3764 C 361.903 0.743125 -1.88372 0
M  V30 3765 C 362.231 1.76383 -0.819715 0
M  V30 3766 O 361.486 1.94855 0.181659 0
M  V30 3767 C 361.785 1.46632 -3.25935 0
M  V30 3768 C 361.451 0.583427 -4.4711 0
M  V30 3769 C 360.113 0.340191 -4.79996 0
M  V30 3770 C 362.465 -0.0273345 -5.21193 0
M  V30 3771 C 359.793 -0.522903 -5.84365 0
M  V30 3772 C 362.145 -0.878017 -6.26477 0
M  V30 3773 C 360.809 -1.1309 -6.5785 0
M  V30 3774 H 360.079 0.271929 -0.689301 0
M  V30 3775 H 362.726 0.00336166 -1.915 0
M  V30 3776 H 361.031 2.2789 -3.18706 0
M  V30 3777 H 362.728 2.00902 -3.47044 0
M  V30 3778 H 359.318 0.783151 -4.21384 0
M  V30 3779 H 363.502 0.147654 -4.9608 0
M  V30 3780 H 358.758 -0.727335 -6.07058 0
M  V30 3781 H 362.932 -1.35789 -6.83033 0
M  V30 3782 H 360.559 -1.80144 -7.38547 0
M  V30 3783 N 362.134 1.5431 0.320358 0
M  V30 3784 C 363.044 1.86946 1.41734 0
M  V30 3785 C 364.06 0.761689 1.56443 0
M  V30 3786 O 365.236 1.05629 1.71477 0
M  V30 3787 C 362.301 2.09293 2.76401 0
M  V30 3788 C 361.362 3.33082 2.70841 0
M  V30 3789 C 360.595 3.54353 3.99086 0
M  V30 3790 O 360.818 2.79002 4.97508 0
M  V30 3791 O 359.752 4.47838 4.0215 0
M  V30 3792 H 363.578 2.80232 1.17062 0
M  V30 3793 H 361.163 1.40255 0.514673 0
M  V30 3794 H 363.045 2.25303 3.56113 0
M  V30 3795 H 361.72 1.19194 3.00956 0
M  V30 3796 H 360.627 3.22454 1.89668 0
M  V30 3797 H 361.96 4.23249 2.5124 0
M  V30 3798 N 363.613 -0.582584 1.46437 0
M  V30 3799 C 364.563 -1.68654 1.53426 0
M  V30 3800 C 365.547 -1.55971 0.395194 0
M  V30 3801 O 366.739 -1.64884 0.643612 0
M  V30 3802 C 363.868 -3.07439 1.52762 0
M  V30 3803 C 362.954 -3.25418 2.71963 0
M  V30 3804 N 363.345 -3.13556 3.96883 0
M  V30 3805 C 361.643 -3.56357 2.68189 0
M  V30 3806 C 362.344 -3.33543 4.76575 0
M  V30 3807 N 361.32 -3.58704 4.08451 0
M  V30 3808 H 365.122 -1.58014 2.47808 0
M  V30 3809 H 362.636 -0.786617 1.42078 0
M  V30 3810 H 364.633 -3.86671 1.55857 0
M  V30 3811 H 363.293 -3.1921 0.594573 0
M  V30 3812 H 364.304 -2.9142 4.28129 0
M  V30 3813 H 360.981 -3.74812 1.83908 0
M  V30 3814 H 362.371 -3.29555 5.85528 0
M  V30 3815 N 365.091 -1.34144 -0.827227 0
M  V30 3816 C 366.331 -1.27603 -1.59677 0
M  V30 3817 C 366.695 0.153035 -1.91389 0
M  V30 3818 O 367.896 0.342566 -2.66608 0
M  V30 3819 C 366.167 -2.13784 -2.86411 0
M  V30 3820 S 367.726 -2.24552 -3.76991 0
M  V30 3821 H 364.544 -0.453789 -0.547354 0
M  V30 3822 H 367.146 -1.69309 -0.977479 0
M  V30 3823 H 365.85 -3.16627 -2.61104 0
M  V30 3824 H 365.381 -1.72959 -3.5334 0
M  V30 3825 H 367.396 -1.41514 -4.75593 0
M  V30 3826 N 366.569 1.04691 -1.17803 0
M  V30 3827 C 367.519 2.10856 -0.867391 0
M  V30 3828 C 368.503 1.601 0.160206 0
M  V30 3829 O 369.695 1.76948 -0.042947 0
M  V30 3830 C 366.824 3.411 -0.388012 0
M  V30 3831 C 365.91 3.9864 -1.44732 0
M  V30 3832 N 366.301 4.30075 -2.66212 0
M  V30 3833 C 364.599 4.26439 -1.30637 0
M  V30 3834 C 365.3 4.76033 -3.34317 0
M  V30 3835 N 364.276 4.76462 -2.61696 0
M  V30 3836 H 368.078 2.33029 -1.79094 0
M  V30 3837 H 365.592 1.22386 -1.0675 0
M  V30 3838 H 367.589 4.16641 -0.146994 0
M  V30 3839 H 366.249 3.20357 0.529271 0
M  V30 3840 H 367.26 4.19917 -3.03134 0
M  V30 3841 H 363.937 4.15056 -0.451129 0
M  V30 3842 H 365.327 5.09427 -4.38103 0
M  V30 3843 N 368.047 0.979072 1.23499 0
M  V30 3844 C 369.293 0.648178 1.92163 0
M  V30 3845 C 369.626 -0.816049 1.76222 0
M  V30 3846 O 368.901 -1.58849 1.12237 0
M  V30 3847 C 369.184 1.03773 3.44824 0
M  V30 3848 C 369.037 2.55948 3.69879 0
M  V30 3849 C 370.356 0.580653 4.36253 0
M  V30 3850 H 367.475 0.236952 0.69787 0
M  V30 3851 H 370.117 1.22012 1.45647 0
M  V30 3852 H 368.267 0.551058 3.84572 0
M  V30 3853 H 369.939 3.12179 3.3962 0
M  V30 3854 H 368.182 2.98641 3.14636 0
M  V30 3855 H 368.853 2.78255 4.76737 0
M  V30 3856 H 371.329 0.998465 4.03943 0
M  V30 3857 H 370.205 0.881663 5.41773 0
M  V30 3858 H 370.466 -0.519052 4.39042 0
M  V30 3859 N 369.525 -1.3858 0.750561 0
M  V30 3860 C 370.771 -2.00481 0.305825 0
M  V30 3861 C 371.104 -1.5944 -1.10872 0
M  V30 3862 O 370.379 -0.83052 -1.75877 0
M  V30 3863 C 370.662 -3.5758 0.425287 0
M  V30 3864 C 370.515 -4.08594 1.88072 0
M  V30 3865 C 371.834 -4.39719 -0.183122 0
M  V30 3866 H 368.953 -0.728348 0.112598 0
M  V30 3867 H 371.595 -1.64566 0.949638 0
M  V30 3868 H 369.745 -3.88306 -0.122828 0
M  V30 3869 H 371.417 -3.88523 2.48691 0
M  V30 3870 H 369.66 -3.61574 2.39681 0
M  V30 3871 H 370.331 -5.177 1.91548 0
M  V30 3872 H 372.807 -4.15128 0.284303 0
M  V30 3873 H 371.683 -5.48856 -0.0692757 0
M  V30 3874 H 371.944 -4.23434 -1.27106 0
M  V30 3875 N 371.003 -0.499398 -1.49478 0
M  V30 3876 C 372.231 0.0425456 -2.06856 0
M  V30 3877 C 372.646 1.30964 -1.35992 0
M  V30 3878 O 372.003 1.77172 -0.437762 0
M  V30 3879 C 372.054 0.301735 -3.60239 0
M  V30 3880 O 371.775 -0.915127 -4.28436 0
M  V30 3881 C 373.276 0.887499 -4.34325 0
M  V30 3882 H 370.496 -0.0197482 -0.670709 0
M  V30 3883 H 373.04 -0.696297 -1.92281 0
M  V30 3884 H 371.195 0.990556 -3.74522 0
M  V30 3885 H 371.609 -0.676993 -5.20113 0
M  V30 3886 H 373.083 1.01845 -5.42523 0
M  V30 3887 H 373.56 1.88488 -3.96698 0
M  V30 3888 H 374.166 0.236196 -4.24644 0
M  V30 3889 N 372.481 1.55866 -0.233164 0
M  V30 3890 C 373.709 2.02998 0.399905 0
M  V30 3891 C 374.124 1.11274 1.52524 0
M  V30 3892 O 373.481 0.124528 1.82075 0
M  V30 3893 C 373.532 3.4958 0.920639 0
M  V30 3894 O 373.253 4.37808 -0.159834 0
M  V30 3895 C 374.754 4.12411 1.62578 0
M  V30 3896 H 371.974 0.664006 0.0966281 0
M  V30 3897 H 374.518 2.0143 -0.353013 0
M  V30 3898 H 372.673 3.51727 1.62379 0
M  V30 3899 H 373.087 5.23981 0.23337 0
M  V30 3900 H 374.561 5.16711 1.94201 0
M  V30 3901 H 375.038 3.5809 2.54299 0
M  V30 3902 H 375.644 4.14148 0.967553 0
M  V30 3903 N 373.959 -0.0401083 1.57549 0
M  V30 3904 C 375.187 -0.745196 1.93014 0
M  V30 3905 C 375.602 -1.6948 0.831984 0
M  V30 3906 O 374.959 -1.81482 -0.192463 0
M  V30 3907 C 375.01 -1.51176 3.28372 0
M  V30 3908 O 374.731 -0.600284 4.33968 0
M  V30 3909 C 376.232 -2.315 3.78051 0
M  V30 3910 H 373.452 -0.210088 0.637263 0
M  V30 3911 H 375.996 -0.000924689 2.045 0
M  V30 3912 H 374.151 -2.20801 3.18317 0
M  V30 3913 H 374.565 -1.13669 5.12035 0
M  V30 3914 H 376.039 -2.80697 4.75303 0
M  V30 3915 H 376.516 -3.12436 3.08675 0
M  V30 3916 H 377.122 -1.66971 3.91153 0
M  V30 3917 N 375.437 -1.54477 -0.31217 0
M  V30 3918 C 376.665 -1.77205 -1.068 0
M  V30 3919 C 377.08 -0.526114 -1.81321 0
M  V30 3920 O 376.437 0.503647 -1.75413 0
M  V30 3921 C 376.488 -2.97253 -2.05725 0
M  V30 3922 O 376.209 -4.1703 -1.34228 0
M  V30 3923 C 377.71 -3.32281 -2.93435 0
M  V30 3924 H 374.93 -0.591287 -0.317208 0
M  V30 3925 H 377.474 -2.01398 -0.354834 0
M  V30 3926 H 375.629 -2.753 -2.72559 0
M  V30 3927 H 376.043 -4.84636 -2.00571 0
M  V30 3928 H 377.517 -4.19551 -3.58721 0
M  V30 3929 H 377.994 -2.49945 -3.61143 0
M  V30 3930 H 378.6 -3.56353 -2.32147 0
M  V30 3931 N 376.915 0.57481 -1.46744 0
M  V30 3932 C 377.865 1.67838 -1.54319 0
M  V30 3933 C 378.849 1.55759 -0.40346 0
M  V30 3934 O 380.041 1.6454 -0.652347 0
M  V30 3935 C 377.17 3.06624 -1.5439 0
M  V30 3936 C 376.256 3.23971 -2.73685 0
M  V30 3937 N 376.647 3.11447 -3.9854 0
M  V30 3938 C 374.945 3.5493 -2.70075 0
M  V30 3939 C 375.646 3.31011 -4.78337 0
M  V30 3940 N 374.622 3.56533 -4.10348 0
M  V30 3941 H 378.424 1.56698 -2.48642 0
M  V30 3942 H 375.938 0.779071 -1.42493 0
M  V30 3943 H 377.935 3.85839 -1.57905 0
M  V30 3944 H 376.595 3.1889 -0.611493 0
M  V30 3945 H 377.606 2.89145 -4.29669 0
M  V30 3946 H 374.283 3.73832 -1.85893 0
M  V30 3947 H 375.673 3.26445 -5.87268 0
M  V30 3948 N 378.394 1.34581 0.820102 0
M  V30 3949 C 379.341 1.2639 1.93117 0
M  V30 3950 C 380.311 0.138554 1.65521 0
M  V30 3951 O 381.496 0.320004 1.88097 0
M  V30 3952 C 378.636 1.02812 3.29429 0
M  V30 3953 C 377.749 2.24146 3.693 0
M  V30 3954 C 376.884 1.93829 4.94574 0
M  V30 3955 C 375.923 3.1129 5.27034 0
M  V30 3956 N 375.06 2.80838 6.43486 0
M  V30 3957 H 379.9 2.21408 1.99455 0
M  V30 3958 H 377.437 1.10077 0.975784 0
M  V30 3959 H 379.395 0.871788 4.0799 0
M  V30 3960 H 378.025 0.114612 3.22596 0
M  V30 3961 H 377.077 2.50691 2.86109 0
M  V30 3962 H 378.389 3.11899 3.89257 0
M  V30 3963 H 377.543 1.74948 5.80929 0
M  V30 3964 H 376.282 1.03341 4.76626 0
M  V30 3965 H 375.287 3.30764 4.39175 0
M  V30 3966 H 376.512 4.02561 5.4692 0
M  V30 3967 H 374.458 1.92929 6.26988 0
M  V30 3968 H 374.375 3.62123 6.63629 0
M  V30 3969 H 375.643 2.65467 7.32903 0
M  V30 3970 N 379.872 -1.04064 1.18357 0
M  V30 3971 C 381.1 -1.80916 1.00384 0
M  V30 3972 C 381.515 -1.83414 -0.447738 0
M  V30 3973 O 380.872 -1.26962 -1.31099 0
M  V30 3974 C 380.923 -3.26516 1.55144 0
M  V30 3975 O 380.644 -3.2424 2.94618 0
M  V30 3976 C 382.145 -4.20013 1.41789 0
M  V30 3977 H 379.365 -0.569728 0.354474 0
M  V30 3978 H 381.909 -1.31151 1.56906 0
M  V30 3979 H 380.064 -3.73512 1.02798 0
M  V30 3980 H 380.478 -4.15452 3.20156 0
M  V30 3981 H 381.952 -5.20111 1.84901 0
M  V30 3982 H 382.429 -4.37667 0.36661 0
M  V30 3983 H 383.035 -3.78881 1.93207 0
M  V30 3984 N 381.35 -0.985608 -1.22978 0
M  V30 3985 C 382.28 -0.549649 -2.26939 0
M  V30 3986 C 383.261 0.419803 -1.64838 0
M  V30 3987 O 384.446 0.31203 -1.91677 0
M  V30 3988 C 381.576 0.143652 -3.47003 0
M  V30 3989 C 380.53 -0.743606 -4.21491 0
M  V30 3990 C 379.856 0.0822027 -5.34637 0
M  V30 3991 C 381.156 -2.03694 -4.80943 0
M  V30 3992 H 382.85 -1.41862 -2.63658 0
M  V30 3993 H 380.396 -0.683571 -1.26741 0
M  V30 3994 H 382.349 0.459985 -4.18882 0
M  V30 3995 H 381.073 1.04711 -3.09359 0
M  V30 3996 H 379.732 -1.04347 -3.51436 0
M  V30 3997 H 379.38 0.986359 -4.93234 0
M  V30 3998 H 379.08 -0.508377 -5.85397 0
M  V30 3999 H 380.604 0.392797 -6.09335 0
M  V30 4000 H 382.018 -1.78504 -5.44802 0
M  V30 4001 H 380.415 -2.57573 -5.42011 0
M  V30 4002 H 381.485 -2.72042 -4.01399 0
M  V30 4003 N 382.828 1.3818 -0.7579 0
M  V30 4004 C 384.244 1.5353 -0.435972 0
M  V30 4005 C 384.444 1.71961 1.05032 0
M  V30 4006 O 383.5 1.73307 1.83633 0
M  V30 4007 C 384.813 2.73989 -1.23898 0
M  V30 4008 C 386.361 2.87841 -1.22949 0
M  V30 4009 C 386.836 4.11266 -2.01554 0
M  V30 4010 N 388.327 4.18352 -1.98837 0
M  V30 4011 C 389.062 5.12856 -2.5645 0
M  V30 4012 N 388.558 6.13005 -3.22794 0
M  V30 4013 N 390.351 5.05238 -2.46356 0
M  V30 4014 H 382.502 1.24467 -1.7211 0
M  V30 4015 H 384.765 0.604982 -0.729864 0
M  V30 4016 H 384.471 2.66789 -2.29165 0
M  V30 4017 H 384.345 3.67294 -0.858764 0
M  V30 4018 H 386.732 2.9452 -0.184854 0
M  V30 4019 H 386.813 1.95534 -1.64924 0
M  V30 4020 H 386.457 4.05349 -3.06031 0
M  V30 4021 H 386.387 5.02661 -1.5697 0
M  V30 4022 H 388.878 3.46628 -1.50524 0
M  V30 4023 H 389.191 6.81619 -3.64165 0
M  V30 4024 H 387.536 6.13325 -3.2689 0
M  V30 4025 H 390.727 4.25938 -1.9415 0
M  V30 4026 H 390.9 5.78707 -2.91552 0
M  V30 4027 N 384.306 0.507319 1.49211 0
M  V30 4028 C 385.554 -0.0348839 2.0207 0
M  V30 4029 C 385.875 -1.36898 1.38866 0
M  V30 4030 O 385.145 -1.88133 0.546151 0
M  V30 4031 H 383.725 -0.0158812 0.746831 0
M  V30 4032 H 386.387 0.665998 1.83168 0
M  V30 4033 H 385.483 -0.159917 3.1169 0
M  V30 4034 N 385.784 -1.5574 0.241426 0
M  V30 4035 C 387.024 -2.00714 -0.38644 0
M  V30 4036 C 387.388 -1.12586 -1.55526 0
M  V30 4037 O 388.589 -1.46992 -2.25048 0
M  V30 4038 C 386.86 -3.48534 -0.791128 0
M  V30 4039 S 388.419 -4.15519 -1.41029 0
M  V30 4040 H 385.237 -0.700484 -0.121834 0
M  V30 4041 H 387.839 -1.92243 0.355377 0
M  V30 4042 H 386.543 -4.10342 0.0689225 0
M  V30 4043 H 386.074 -3.6092 -1.56526 0
M  V30 4044 H 388.089 -4.16352 -2.69936 0
M  V30 4045 N 387.262 0.0317525 -1.57568 0
M  V30 4046 C 388.678 0.38735 -1.54828 0
M  V30 4047 C 388.878 1.7677 -0.967187 0
M  V30 4048 O 387.934 2.45581 -0.587063 0
M  V30 4049 C 389.247 0.291667 -2.99282 0
M  V30 4050 C 390.795 0.368946 -3.10818 0
M  V30 4051 C 391.27 0.302741 -4.56998 0
M  V30 4052 N 392.761 0.361617 -4.61786 0
M  V30 4053 C 393.496 0.333238 -5.72431 0
M  V30 4054 N 392.992 0.257308 -6.92322 0
M  V30 4055 N 394.785 0.382769 -5.60795 0
M  V30 4056 H 386.936 -0.871609 -1.93692 0
M  V30 4057 H 389.199 -0.331161 -0.888277 0
M  V30 4058 H 388.905 -0.656794 -3.45513 0
M  V30 4059 H 388.779 1.08638 -3.61217 0
M  V30 4060 H 391.166 1.30784 -2.64536 0
M  V30 4061 H 391.247 -0.455066 -2.5172 0
M  V30 4062 H 390.891 -0.632473 -5.03947 0
M  V30 4063 H 390.821 1.14482 -5.14005 0
M  V30 4064 H 393.312 0.422923 -3.75526 0
M  V30 4065 H 393.625 0.24068 -7.72425 0
M  V30 4066 H 391.97 0.223396 -6.94641 0
M  V30 4067 H 395.161 0.44006 -4.66027 0
M  V30 4068 H 395.334 0.357184 -6.47015 0
M  V30 4069 N 388.74 1.54641 0.303973 0
M  V30 4070 C 389.703 1.84646 1.35789 0
M  V30 4071 C 390.703 0.7192 1.4382 0
M  V30 4072 O 391.893 0.987491 1.43507 0
M  V30 4073 C 389.025 2.02407 2.74307 0
M  V30 4074 H 390.218 2.78829 1.10429 0
M  V30 4075 H 387.771 1.46658 0.540487 0
M  V30 4076 H 388.506 1.10502 3.04893 0
M  V30 4077 H 388.291 2.84453 2.69868 0
M  V30 4078 H 389.781 2.27002 3.50514 0
M  V30 4079 N 390.218 -0.567019 1.47046 0
M  V30 4080 C 391.466 -1.322 1.52864 0
M  V30 4081 C 391.787 -1.94088 0.188388 0
M  V30 4082 O 391.057 -1.7941 -0.786693 0
M  V30 4083 H 389.637 -0.490894 0.563056 0
M  V30 4084 H 392.299 -0.662879 1.83281 0
M  V30 4085 H 391.395 -2.12062 2.2899 0
M  V30 4086 N 391.696 -1.35014 -0.812953 0
M  V30 4087 C 392.629 -1.21761 -1.93001 0
M  V30 4088 C 393.607 -0.10694 -1.62248 0
M  V30 4089 O 394.791 -0.273891 -1.865 0
M  V30 4090 C 391.918 -0.873404 -3.27245 0
M  V30 4091 C 390.964 -1.99523 -3.76952 0
M  V30 4092 S 391.797 -3.61009 -3.95516 0
M  V30 4093 C 392.953 -3.28651 -5.32672 0
M  V30 4094 H 393.186 -2.16315 -2.03948 0
M  V30 4095 H 390.719 -1.20156 -0.969631 0
M  V30 4096 H 392.677 -0.68161 -4.04802 0
M  V30 4097 H 391.338 0.053971 -3.14054 0
M  V30 4098 H 390.531 -1.70838 -4.74163 0
M  V30 4099 H 390.133 -2.14503 -3.06373 0
M  V30 4100 H 392.425 -2.81085 -6.1644 0
M  V30 4101 H 393.368 -4.25039 -5.66346 0
M  V30 4102 H 393.776 -2.6458 -4.98656 0
M  V30 4103 N 393.175 1.03435 -1.18907 0
M  V30 4104 C 394.424 1.76143 -0.982669 0
M  V30 4105 C 394.737 1.89416 0.487953 0
M  V30 4106 O 395.943 2.59041 0.813036 0
M  V30 4107 C 394.399 3.16722 -1.70924 0
M  V30 4108 C 394.007 3.11522 -3.21959 0
M  V30 4109 C 395.751 3.93764 -1.58588 0
M  V30 4110 C 393.658 4.46999 -3.87228 0
M  V30 4111 H 392.588 0.660292 -0.364047 0
M  V30 4112 H 395.239 1.158 -1.42347 0
M  V30 4113 H 393.621 3.775 -1.19623 0
M  V30 4114 H 394.795 2.60158 -3.80335 0
M  V30 4115 H 393.11 2.47978 -3.34508 0
M  V30 4116 H 395.707 4.93963 -2.04707 0
M  V30 4117 H 396.05 4.12794 -0.539142 0
M  V30 4118 H 396.583 3.39576 -2.07203 0
M  V30 4119 H 393.322 4.33174 -4.91976 0
M  V30 4120 H 392.842 4.98441 -3.33642 0
M  V30 4121 H 394.521 5.15898 -3.90459 0
M  V30 4122 N 394.653 0.992116 1.22453 0
M  V30 4123 C 395.9 0.667534 1.91181 0
M  V30 4124 C 396.228 -0.800317 1.77271 0
M  V30 4125 O 395.483 -1.59421 1.13505 0
M  V30 4126 C 395.782 1.01832 3.42586 0
M  V30 4127 C 395.448 2.47831 3.76684 0
M  V30 4128 C 394.11 2.87729 3.85701 0
M  V30 4129 C 396.462 3.42466 3.92895 0
M  V30 4130 C 393.79 4.21252 4.08367 0
M  V30 4131 C 396.142 4.75648 4.17064 0
M  V30 4132 C 394.806 5.15288 4.24305 0
M  V30 4133 H 394.076 0.244268 0.699581 0
M  V30 4134 H 396.723 1.24816 1.45235 0
M  V30 4135 H 395.028 0.355769 3.90181 0
M  V30 4136 H 396.725 0.745228 3.94014 0
M  V30 4137 H 393.315 2.15905 3.70247 0
M  V30 4138 H 397.499 3.12814 3.85307 0
M  V30 4139 H 392.755 4.51554 4.122 0
M  V30 4140 H 396.929 5.48924 4.2855 0
M  V30 4141 H 394.556 6.18769 4.41621 0
M  V30 4142 N 396.131 -1.37776 0.765217 0
M  V30 4143 C 397.361 -2.03828 0.337277 0
M  V30 4144 C 397.769 -1.57841 -1.04321 0
M  V30 4145 O 397.112 -0.752043 -1.67601 0
M  V30 4146 C 397.174 -3.58292 0.294407 0
M  V30 4147 C 396.838 -4.27384 1.61838 0
M  V30 4148 C 397.835 -4.51956 2.56967 0
M  V30 4149 C 395.52 -4.65345 1.89102 0
M  V30 4150 C 397.514 -5.13536 3.77571 0
M  V30 4151 C 395.201 -5.26647 3.09978 0
M  V30 4152 C 396.199 -5.50679 4.04032 0
M  V30 4153 O 395.887 -6.10702 5.2278 0
M  V30 4154 H 395.619 -0.661292 0.140248 0
M  V30 4155 H 398.173 -1.77222 1.03834 0
M  V30 4156 H 396.403 -3.83918 -0.462983 0
M  V30 4157 H 398.092 -4.05763 -0.105581 0
M  V30 4158 H 398.858 -4.23048 2.37183 0
M  V30 4159 H 394.737 -4.45978 1.16725 0
M  V30 4160 H 398.281 -5.3221 4.50997 0
M  V30 4161 H 394.178 -5.54979 3.29649 0
M  V30 4162 H 394.946 -6.29183 5.23517 0
M  V30 4163 N 397.609 -0.515225 -1.4894 0
M  V30 4164 C 399.025 -0.172099 -1.58669 0
M  V30 4165 C 399.225 1.32405 -1.51892 0
M  V30 4166 O 398.281 2.10116 -1.40027 0
M  V30 4167 C 399.594 -0.761533 -2.90897 0
M  V30 4168 C 401.142 -0.728926 -3.04394 0
M  V30 4169 C 401.617 -1.29667 -4.39261 0
M  V30 4170 N 403.108 -1.25799 -4.4579 0
M  V30 4171 C 403.843 -1.66733 -5.48623 0
M  V30 4172 N 403.339 -2.15327 -6.58488 0
M  V30 4173 N 405.132 -1.58061 -5.39419 0
M  V30 4174 H 397.283 -1.48778 -1.51588 0
M  V30 4175 H 399.546 -0.617968 -0.718901 0
M  V30 4176 H 399.252 -1.81136 -3.01468 0
M  V30 4177 H 399.126 -0.230106 -3.76497 0
M  V30 4178 H 401.513 0.312098 -2.93445 0
M  V30 4179 H 401.594 -1.29766 -2.20442 0
M  V30 4180 H 401.238 -2.33655 -4.50963 0
M  V30 4181 H 401.168 -0.703752 -5.21876 0
M  V30 4182 H 403.659 -0.902102 -3.66975 0
M  V30 4183 H 403.972 -2.44594 -7.33071 0
M  V30 4184 H 402.317 -2.19311 -6.59491 0
M  V30 4185 H 405.508 -1.19906 -4.52482 0
M  V30 4186 H 405.681 -1.90284 -6.19432 0
M  V30 4187 N 399.087 1.5561 -0.249682 0
M  V30 4188 C 400.034 2.21496 0.648694 0
M  V30 4189 C 401.004 1.17977 1.16921 0
M  V30 4190 O 402.189 1.46434 1.22318 0
M  V30 4191 C 399.329 2.92039 1.83868 0
M  V30 4192 C 398.442 4.10219 1.35442 0
M  V30 4193 C 397.577 4.6847 2.50419 0
M  V30 4194 C 396.616 5.78893 1.98869 0
M  V30 4195 N 395.753 6.31315 3.07223 0
M  V30 4196 H 400.593 2.97892 0.0801582 0
M  V30 4197 H 398.13 1.47074 0.0278031 0
M  V30 4198 H 400.088 3.31138 2.53778 0
M  V30 4199 H 398.718 2.18111 2.37965 0
M  V30 4200 H 397.77 3.76413 0.54928 0
M  V30 4201 H 399.082 4.89927 0.936649 0
M  V30 4202 H 398.236 5.10158 3.28366 0
M  V30 4203 H 396.975 3.87984 2.95499 0
M  V30 4204 H 395.98 5.3668 1.19393 0
M  V30 4205 H 397.205 6.61232 1.54755 0
M  V30 4206 H 395.151 5.53733 3.51732 0
M  V30 4207 H 395.068 7.06224 2.69784 0
M  V30 4208 H 396.336 6.77662 3.8522 0
M  V30 4209 N 400.565 -0.0233959 1.57583 0
M  V30 4210 C 401.813 -0.711654 1.89156 0
M  V30 4211 C 402.134 -1.75591 0.848096 0
M  V30 4212 O 401.404 -1.95547 -0.117566 0
M  V30 4213 H 399.984 -0.265835 0.698098 0
M  V30 4214 H 402.646 0.0119948 1.94896 0
M  V30 4215 H 401.742 -1.19766 2.88206 0
M  V30 4216 N 402.043 -1.548 -0.295768 0
M  V30 4217 C 403.289 -1.74588 -1.03184 0
M  V30 4218 C 403.622 -0.532962 -1.86744 0
M  V30 4219 O 402.897 0.469872 -1.88739 0
M  V30 4220 C 403.18 -3.03791 -1.93347 0
M  V30 4221 C 403.033 -4.35392 -1.12933 0
M  V30 4222 C 404.352 -3.28892 -2.92435 0
M  V30 4223 H 401.471 -0.635221 -0.373715 0
M  V30 4224 H 404.113 -1.87519 -0.30606 0
M  V30 4225 H 402.263 -2.92898 -2.55232 0
M  V30 4226 H 403.935 -4.58211 -0.532943 0
M  V30 4227 H 402.178 -4.31642 -0.432168 0
M  V30 4228 H 402.849 -5.22074 -1.79284 0
M  V30 4229 H 405.325 -3.39429 -2.4068 0
M  V30 4230 H 404.201 -4.20603 -3.52682 0
M  V30 4231 H 404.462 -2.47437 -3.6637 0
M  V30 4232 N 403.521 0.559213 -1.47345 0
M  V30 4233 C 404.468 1.66645 -1.59682 0
M  V30 4234 C 405.438 1.60168 -0.43994 0
M  V30 4235 O 406.623 1.79031 -0.659736 0
M  V30 4236 C 403.763 3.04969 -1.61518 0
M  V30 4237 C 402.876 3.21897 -2.88108 0
M  V30 4238 C 402.011 4.50608 -2.81294 0
M  V30 4239 C 401.05 4.60961 -4.02717 0
M  V30 4240 N 400.187 5.81024 -3.94151 0
M  V30 4241 H 405.027 1.55439 -2.54249 0
M  V30 4242 H 402.564 0.757219 -1.26113 0
M  V30 4243 H 404.522 3.85064 -1.60566 0
M  V30 4244 H 403.152 3.15015 -0.704645 0
M  V30 4245 H 402.204 2.35248 -2.98936 0
M  V30 4246 H 403.516 3.25412 -3.78032 0
M  V30 4247 H 402.67 5.3896 -2.7858 0
M  V30 4248 H 401.409 4.49568 -1.89049 0
M  V30 4249 H 400.414 3.71021 -4.05738 0
M  V30 4250 H 401.639 4.63761 -4.96087 0
M  V30 4251 H 399.585 5.80938 -3.04708 0
M  V30 4252 H 399.502 5.85909 -4.77752 0
M  V30 4253 H 400.77 6.71744 -3.9545 0
M  V30 4254 N 404.999 1.35443 0.805782 0
M  V30 4255 C 406.224 1.32037 1.59941 0
M  V30 4256 C 406.649 -0.0994215 1.87837 0
M  V30 4257 O 406.007 -1.06648 1.46615 0
M  V30 4258 C 406.055 2.13354 2.90711 0
M  V30 4259 O 405.159 1.5148 3.83572 0
M  V30 4260 H 404.5 0.452666 0.485787 0
M  V30 4261 H 407.03 1.78496 1.00002 0
M  V30 4262 H 407.04 2.25338 3.40128 0
M  V30 4263 H 405.715 3.16572 2.69732 0
M  V30 4264 H 404.292 1.4834 3.42125 0
M  V30 4265 N 406.477 -1.02803 1.19454 0
M  V30 4266 C 407.723 -1.76478 0.999171 0
M  V30 4267 C 408.056 -1.88456 -0.468828 0
M  V30 4268 O 407.331 -1.40198 -1.34814 0
M  V30 4269 C 407.614 -3.19044 1.66981 0
M  V30 4270 C 407.467 -3.14932 3.21151 0
M  V30 4271 C 408.786 -4.17456 1.39349 0
M  V30 4272 H 405.905 -0.640614 0.364393 0
M  V30 4273 H 408.547 -1.20005 1.47305 0
M  V30 4274 H 406.697 -3.67263 1.2669 0
M  V30 4275 H 408.369 -2.74605 3.70661 0
M  V30 4276 H 406.612 -2.52625 3.52652 0
M  V30 4277 H 407.283 -4.1566 3.63223 0
M  V30 4278 H 409.759 -3.77842 1.74283 0
M  V30 4279 H 408.635 -5.154 1.88823 0
M  V30 4280 H 408.896 -4.40949 0.318813 0
M  V30 4281 N 407.956 -0.998596 -1.21925 0
M  V30 4282 C 409.233 -0.593401 -1.86382 0
M  V30 4283 C 409.613 0.92916 -1.89552 0
M  V30 4284 O 408.961 1.81347 -1.39017 0
M  V30 4285 C 409.171 -1.22039 -3.26967 0
M  V30 4286 C 410.519 -1.32449 -4.03413 0
M  V30 4287 O 411.543 -1.17522 -3.36254 0
M  V30 4288 O 410.402 -1.56395 -5.23644 0
M  V30 4289 H 407.496 -0.202385 -0.801854 0
M  V30 4290 H 410.042 -1.09484 -1.29659 0
M  V30 4291 H 408.814 -2.26158 -3.19325 0
M  V30 4292 H 408.437 -0.704906 -3.91301 0
M  V30 4293 N 409.434 1.37368 -0.772513 0
M  V30 4294 C 410.845 1.8231 -0.402493 0
M  V30 4295 C 411.196 1.6436 1.07146 0
M  V30 4296 O 410.321 1.15514 1.82991 0
M  V30 4297 C 410.916 3.30979 -0.723776 0
M  V30 4298 C 409.475 3.74195 -0.406802 0
M  V30 4299 C 408.622 2.59885 -0.967218 0
M  V30 4300 H 411.573 1.25829 -0.967099 0
M  V30 4301 H 411.594 3.80499 -0.00870832 0
M  V30 4302 H 411.106 3.44011 -1.7966 0
M  V30 4303 H 409.207 3.66732 0.658673 0
M  V30 4304 H 409.32 4.7027 -0.915588 0
M  V30 4305 H 407.684 2.51674 -0.391416 0
M  V30 4306 H 408.467 2.7571 -2.04546 0
M  V30 4307 N 410.912 0.523116 1.48665 0
M  V30 4308 C 411.859 -0.243398 2.29513 0
M  V30 4309 C 412.829 -0.940139 1.36933 0
M  V30 4310 O 414.014 -0.942503 1.65896 0
M  V30 4311 C 411.154 -1.28855 3.20141 0
M  V30 4312 C 410.267 -0.60135 4.27794 0
M  V30 4313 C 409.402 -1.62884 5.05611 0
M  V30 4314 C 408.441 -0.924726 6.05075 0
M  V30 4315 N 407.578 -1.89744 6.75975 0
M  V30 4316 H 412.418 0.452234 2.94549 0
M  V30 4317 H 409.955 0.234858 1.45213 0
M  V30 4318 H 411.913 -1.90674 3.71079 0
M  V30 4319 H 410.543 -1.95266 2.57043 0
M  V30 4320 H 409.595 0.130623 3.80176 0
M  V30 4321 H 410.907 -0.0481585 4.98777 0
M  V30 4322 H 410.061 -2.32149 5.60528 0
M  V30 4323 H 408.8 -2.21592 4.34452 0
M  V30 4324 H 407.805 -0.217966 5.49368 0
M  V30 4325 H 409.03 -0.343851 6.78229 0
M  V30 4326 H 406.976 -2.47373 6.07571 0
M  V30 4327 H 406.893 -1.3955 7.43009 0
M  V30 4328 H 408.161 -2.58229 7.35485 0
M  V30 4329 N 412.39 -1.55475 0.257931 0
M  V30 4330 C 413.618 -2.03609 -0.367559 0
M  V30 4331 C 414.033 -1.13687 -1.50734 0
M  V30 4332 O 413.39 -0.153479 -1.81853 0
M  V30 4333 C 413.441 -3.51001 -0.864908 0
M  V30 4334 O 413.162 -4.37499 0.229465 0
M  V30 4335 C 414.663 -4.14946 -1.55997 0
M  V30 4336 H 411.883 -0.665459 -0.0860521 0
M  V30 4337 H 414.427 -2.00843 0.385014 0
M  V30 4338 H 412.582 -3.54266 -1.56762 0
M  V30 4339 H 412.996 -5.24286 -0.14998 0
M  V30 4340 H 414.47 -5.19735 -1.85956 0
M  V30 4341 H 414.947 -3.6209 -2.4857 0
M  V30 4342 H 415.553 -4.15635 -0.901543 0
M  V30 4343 N 413.868 0.0150385 -1.57593 0
M  V30 4344 C 415.116 0.701613 -1.8953 0
M  V30 4345 C 415.437 1.75139 -0.857396 0
M  V30 4346 O 414.707 1.95607 0.107194 0
M  V30 4347 H 413.287 0.26213 -0.699498 0
M  V30 4348 H 415.949 -0.0223304 -1.94887 0
M  V30 4349 H 415.045 1.18236 -2.88837 0
M  V30 4350 N 415.346 1.54954 0.287554 0
M  V30 4351 C 416.293 1.86834 1.35505 0
M  V30 4352 C 417.263 0.718452 1.49758 0
M  V30 4353 O 418.448 0.968358 1.644 0
M  V30 4354 C 415.588 2.13303 2.71286 0
M  V30 4355 C 414.701 3.40883 2.65373 0
M  V30 4356 C 413.836 3.57125 3.93236 0
M  V30 4357 C 412.875 4.78449 3.81776 0
M  V30 4358 N 412.012 4.91426 5.01443 0
M  V30 4359 H 416.852 2.77889 1.07619 0
M  V30 4360 H 414.389 1.37593 0.520241 0
M  V30 4361 H 416.347 2.26646 3.50267 0
M  V30 4362 H 414.977 1.25499 2.97405 0
M  V30 4363 H 414.029 3.36088 1.78182 0
M  V30 4364 H 415.341 4.29993 2.52799 0
M  V30 4365 H 414.495 3.70207 4.80658 0
M  V30 4366 H 413.234 2.66173 4.0866 0
M  V30 4367 H 412.239 4.65386 2.92738 0
M  V30 4368 H 413.464 5.70822 3.67884 0
M  V30 4369 H 411.41 4.03401 5.17304 0
M  V30 4370 H 411.327 5.74559 4.91343 0
M  V30 4371 H 412.595 5.08879 5.90477 0
M  V30 4372 N 416.824 -0.551391 1.4764 0
M  V30 4373 C 417.734 -1.68525 1.63207 0
M  V30 4374 C 418.75 -1.6621 0.514815 0
M  V30 4375 O 419.926 -1.85551 0.783113 0
M  V30 4376 C 416.991 -3.05025 1.64805 0
M  V30 4377 C 416.052 -3.18362 2.88 0
M  V30 4378 C 415.285 -4.4835 2.89513 0
M  V30 4379 O 415.508 -5.34163 2.00065 0
M  V30 4380 O 414.442 -4.65602 3.81443 0
M  V30 4381 H 418.268 -1.58333 2.59161 0
M  V30 4382 H 415.853 -0.722063 1.30792 0
M  V30 4383 H 417.735 -3.86245 1.68502 0
M  V30 4384 H 416.41 -3.15587 0.720197 0
M  V30 4385 H 415.317 -2.36518 2.89845 0
M  V30 4386 H 416.65 -3.12707 3.80099 0
M  V30 4387 N 418.302 -1.35869 -0.798587 0
M  V30 4388 C 419.551 -1.28921 -1.5512 0
M  V30 4389 C 419.864 0.13208 -1.95154 0
M  V30 4390 O 421.07 0.323879 -2.69561 0
M  V30 4391 C 419.526 -2.26141 -2.79979 0
M  V30 4392 C 419.134 -3.73658 -2.47151 0
M  V30 4393 C 420.878 -2.28152 -3.57976 0
M  V30 4394 C 418.785 -4.62679 -3.6835 0
M  V30 4395 H 417.715 -0.479031 -0.582276 0
M  V30 4396 H 420.366 -1.61179 -0.877125 0
M  V30 4397 H 418.748 -1.86865 -3.49138 0
M  V30 4398 H 419.922 -4.21616 -1.85947 0
M  V30 4399 H 418.237 -3.74333 -1.82383 0
M  V30 4400 H 420.834 -2.91875 -4.4801 0
M  V30 4401 H 421.177 -1.28748 -3.95891 0
M  V30 4402 H 421.71 -2.65998 -2.95787 0
M  V30 4403 H 418.449 -5.63111 -3.35538 0
M  V30 4404 H 417.969 -4.19442 -4.28752 0
M  V30 4405 H 419.648 -4.78498 -4.35487 0
M  V30 4406 N 419.78 1.02168 -1.19998 0
M  V30 4407 C 420.71 2.12488 -0.96804 0
M  V30 4408 C 421.691 1.69799 0.101185 0
M  V30 4409 O 422.876 1.94121 -0.0552993 0
M  V30 4410 C 420.006 3.43479 -0.513776 0
M  V30 4411 C 418.96 3.99884 -1.52566 0
M  V30 4412 C 418.286 5.26582 -0.928214 0
M  V30 4413 C 419.586 4.33861 -2.90795 0
M  V30 4414 H 421.28 2.32149 -1.89069 0
M  V30 4415 H 418.826 1.11564 -0.910468 0
M  V30 4416 H 420.779 4.20036 -0.338774 0
M  V30 4417 H 419.503 3.23561 0.444493 0
M  V30 4418 H 418.162 3.25429 -1.68794 0
M  V30 4419 H 417.81 5.02986 0.0378289 0
M  V30 4420 H 417.51 5.65284 -1.60397 0
M  V30 4421 H 419.034 6.05799 -0.764167 0
M  V30 4422 H 420.448 5.01327 -2.78109 0
M  V30 4423 H 418.845 4.83664 -3.55231 0
M  V30 4424 H 419.915 3.42848 -3.42904 0
M  V30 4425 N 421.258 1.00505 1.21394 0
M  V30 4426 C 422.488 0.705584 1.94178 0
M  V30 4427 C 422.896 -0.735846 1.74304 0
M  V30 4428 O 422.239 -1.50954 1.04683 0
M  V30 4429 C 422.301 0.94689 3.46806 0
M  V30 4430 C 421.965 2.37517 3.90429 0
M  V30 4431 C 422.962 3.35539 3.97127 0
M  V30 4432 C 420.647 2.71284 4.22742 0
M  V30 4433 C 422.641 4.65395 4.3553 0
M  V30 4434 C 420.328 4.01356 4.60822 0
M  V30 4435 C 421.326 4.98223 4.67186 0
M  V30 4436 O 421.014 6.25969 5.04399 0
M  V30 4437 H 420.746 0.259216 0.624326 0
M  V30 4438 H 423.3 1.34592 1.55159 0
M  V30 4439 H 421.53 0.249386 3.85895 0
M  V30 4440 H 423.219 0.640804 4.0081 0
M  V30 4441 H 423.985 3.10786 3.7234 0
M  V30 4442 H 419.864 1.96581 4.16985 0
M  V30 4443 H 423.408 5.41002 4.40412 0
M  V30 4444 H 419.305 4.25893 4.85063 0
M  V30 4445 H 420.073 6.30085 5.22431 0
M  V30 4446 N 422.737 -1.36956 0.779787 0
M  V30 4447 C 423.685 -2.32053 0.15942 0
M  V30 4448 C 424.679 -1.55333 -0.675878 0
M  V30 4449 O 425.885 -1.70668 -0.57204 0
M  V30 4450 H 422.26 -0.751286 0.0327707 0
M  V30 4451 H 424.231 -2.8195 0.977078 0
M  V30 4452 C 422.98 -3.40602 -0.698977 0
M  V30 4453 H 422.303 -3.99746 -0.0655966 0
M  V30 4454 H 423.743 -4.09486 -1.09989 0
M  V30 4455 C 422.202 -2.81359 -1.85307 0
M  V30 4456 O 422.732 -2.72751 -2.94906 0
M  V30 4457 N 420.938 -2.38786 -1.65619 0
M  V30 4458 H 420.485 -2.45987 -0.764725 0
M  V30 4459 H 420.443 -1.99493 -2.43002 0
M  V30 4460 N 424.215 -0.530993 -1.48385 0
M  V30 4461 C 425.145 0.219985 -2.32461 0
M  V30 4462 C 426.126 0.934111 -1.42156 0
M  V30 4463 O 427.311 0.919694 -1.71042 0
M  V30 4464 C 424.441 1.26674 -3.23375 0
M  V30 4465 C 423.395 0.67069 -4.22712 0
M  V30 4466 C 422.721 1.82017 -5.02766 0
M  V30 4467 C 424.021 -0.358268 -5.2107 0
M  V30 4468 H 425.715 -0.48187 -2.95497 0
M  V30 4469 H 423.261 -0.233182 -1.42099 0
M  V30 4470 H 425.214 1.80006 -3.81019 0
M  V30 4471 H 423.938 1.99818 -2.58341 0
M  V30 4472 H 422.597 0.158878 -3.66256 0
M  V30 4473 H 422.245 2.54002 -4.34157 0
M  V30 4474 H 421.945 1.42727 -5.70003 0
M  V30 4475 H 423.469 2.35725 -5.63264 0
M  V30 4476 H 424.883 0.0880081 -5.73232 0
M  V30 4477 H 423.28 -0.66861 -5.96364 0
M  V30 4478 H 424.35 -1.26367 -4.68145 0
M  V30 4479 N 425.693 1.55336 -0.266172 0
M  V30 4480 C 426.603 2.2583 0.635458 0
M  V30 4481 C 427.619 1.28106 1.17749 0
M  V30 4482 O 428.795 1.61024 1.20968 0
M  V30 4483 C 425.86 2.95879 1.80712 0
M  V30 4484 C 424.921 4.09059 1.30265 0
M  V30 4485 C 424.154 4.75759 2.41846 0
M  V30 4486 O 424.377 4.41622 3.61007 0
M  V30 4487 O 423.311 5.63888 2.1051 0
M  V30 4488 H 427.137 3.03631 0.0646693 0
M  V30 4489 H 424.722 1.49361 -0.0339177 0
M  V30 4490 H 426.604 3.39932 2.49047 0
M  V30 4491 H 425.279 2.21002 2.36516 0
M  V30 4492 H 424.186 3.69482 0.586019 0
M  V30 4493 H 425.519 4.85811 0.790458 0
M  V30 4494 N 427.171 -0.0066808 1.57599 0
M  V30 4495 C 428.396 -0.707738 1.94951 0
M  V30 4496 C 428.821 -1.66882 0.867868 0
M  V30 4497 O 428.179 -1.80457 -0.17458 0
M  V30 4498 C 428.227 -1.42162 3.31394 0
M  V30 4499 O 427.331 -2.53578 3.25226 0
M  V30 4500 H 426.672 -0.188752 0.636607 0
M  V30 4501 H 429.202 0.0445193 2.04552 0
M  V30 4502 H 429.212 -1.78655 3.66806 0
M  V30 4503 H 427.887 -0.716903 4.09675 0
M  V30 4504 H 426.464 -2.19463 3.01481 0
M  V30 4505 N 428.649 -1.55105 -0.279332 0
M  V30 4506 C 429.579 -1.90557 -1.34945 0
M  V30 4507 C 430.56 -0.766738 -1.51839 0
M  V30 4508 O 431.745 -1.02434 -1.64988 0
M  V30 4509 C 428.875 -2.17193 -2.71006 0
M  V30 4510 C 427.829 -3.33021 -2.68851 0
M  V30 4511 C 427.155 -3.45123 -4.08405 0
M  V30 4512 C 428.455 -4.69578 -2.28678 0
M  V30 4513 H 430.149 -2.80188 -1.05522 0
M  V30 4514 H 427.695 -1.34811 -0.506173 0
M  V30 4515 H 429.648 -2.40581 -3.45975 0
M  V30 4516 H 428.372 -1.24355 -3.01999 0
M  V30 4517 H 427.031 -3.0959 -1.9634 0
M  V30 4518 H 426.679 -2.49762 -4.3661 0
M  V30 4519 H 426.379 -4.22995 -4.07859 0
M  V30 4520 H 427.903 -3.70796 -4.85121 0
M  V30 4521 H 429.317 -4.92553 -2.93368 0
M  V30 4522 H 427.714 -5.5032 -2.39306 0
M  V30 4523 H 428.784 -4.68828 -1.23807 0
M  V30 4524 N 430.127 0.543554 -1.4793 0
M  V30 4525 C 431.376 1.29649 -1.54512 0
M  V30 4526 C 431.689 1.94382 -0.217973 0
M  V30 4527 O 432.895 2.71017 -0.161908 0
M  V30 4528 C 431.351 2.35175 -2.72435 0
M  V30 4529 C 430.959 1.76572 -4.11736 0
M  V30 4530 C 432.703 3.11564 -2.8832 0
M  V30 4531 C 430.61 2.79958 -5.20939 0
M  V30 4532 H 429.54 0.487541 -0.57517 0
M  V30 4533 H 432.191 0.575708 -1.74235 0
M  V30 4534 H 430.573 3.10229 -2.46118 0
M  V30 4535 H 431.747 1.07799 -4.48013 0
M  V30 4536 H 430.062 1.12722 -4.00852 0
M  V30 4537 H 432.659 3.88794 -3.67074 0
M  V30 4538 H 433.002 3.66594 -1.97268 0
M  V30 4539 H 433.535 2.43623 -3.14472 0
M  V30 4540 H 430.274 2.29766 -6.13912 0
M  V30 4541 H 429.794 3.47101 -4.89164 0
M  V30 4542 H 431.473 3.43198 -5.48474 0
M  V30 4543 N 431.605 1.3629 0.791371 0
M  V30 4544 C 432.553 1.30514 1.92533 0
M  V30 4545 C 433.547 0.197285 1.68247 0
M  V30 4546 O 434.753 0.364176 1.76278 0
M  V30 4547 H 431.128 0.406263 0.632815 0
M  V30 4548 H 433.099 2.26282 1.94523 0
M  V30 4549 C 431.848 1.10933 3.29529 0
M  V30 4550 H 431.171 1.95427 3.48781 0
M  V30 4551 H 432.611 1.10937 4.0923 0
M  V30 4552 C 431.07 -0.186123 3.36385 0
M  V30 4553 O 431.6 -1.17664 3.84081 0
M  V30 4554 N 429.806 -0.230128 2.89687 0
M  V30 4555 H 429.353 0.576545 2.51065 0
M  V30 4556 H 429.311 -1.09658 2.94657 0
M  V30 4557 N 433.083 -1.0153 1.20538 0
M  V30 4558 C 434.308 -1.79283 1.04271 0
M  V30 4559 C 434.733 -1.8372 -0.403544 0
M  V30 4560 O 434.091 -1.27321 -1.2907 0
M  V30 4561 C 434.139 -3.21535 1.63241 0
M  V30 4562 O 433.243 -4.03099 0.870908 0
M  V30 4563 H 432.584 -0.55293 0.367647 0
M  V30 4564 H 435.114 -1.27696 1.59859 0
M  V30 4565 H 435.124 -3.72243 1.6703 0
M  V30 4566 H 433.799 -3.1762 2.68497 0
M  V30 4567 H 432.376 -3.61693 0.907323 0
M  V30 4568 N 434.561 -1.01147 -1.20859 0
M  V30 4569 C 435.524 -0.582224 -2.21682 0
M  V30 4570 C 436.524 0.344887 -1.57058 0
M  V30 4571 O 437.714 0.134281 -1.73682 0
M  V30 4572 C 434.846 0.150496 -3.40568 0
M  V30 4573 H 436.039 -1.47408 -2.61172 0
M  V30 4574 H 433.592 -0.800695 -1.34233 0
M  V30 4575 H 434.327 1.0575 -3.06574 0
M  V30 4576 H 434.112 -0.515444 -3.88697 0
M  V30 4577 H 435.602 0.438344 -4.15293 0
M  V30 4578 N 436.039 1.36541 -0.78704 0
M  V30 4579 C 437.285 1.99599 -0.358872 0
M  V30 4580 C 437.618 1.62323 1.06606 0
M  V30 4581 O 436.893 0.876858 1.73613 0
M  V30 4582 C 437.176 3.56327 -0.519944 0
M  V30 4583 C 437.029 4.03464 -1.98839 0
M  V30 4584 C 438.348 4.4005 0.0664737 0
M  V30 4585 H 435.467 0.725107 -0.131869 0
M  V30 4586 H 438.109 1.6199 -0.992936 0
M  V30 4587 H 436.259 3.88495 0.0198321 0
M  V30 4588 H 437.931 3.81793 -2.58905 0
M  V30 4589 H 436.174 3.55092 -2.49183 0
M  V30 4590 H 436.845 5.12439 -2.05207 0
M  V30 4591 H 439.321 4.14228 -0.394267 0
M  V30 4592 H 438.197 5.48847 -0.0762682 0
M  V30 4593 H 438.458 4.26655 1.15835 0
M  V30 4594 N 437.518 0.538854 1.48102 0
M  V30 4595 C 438.765 0.0080018 2.02498 0
M  V30 4596 C 439.093 -1.33437 1.41509 0
M  V30 4597 O 438.348 -1.87709 0.553507 0
M  V30 4598 C 438.647 -0.153808 3.57069 0
M  V30 4599 C 438.313 1.11533 4.36888 0
M  V30 4600 C 436.975 1.46314 4.58417 0
M  V30 4601 C 439.327 1.95718 4.83057 0
M  V30 4602 C 436.655 2.6516 5.23361 0
M  V30 4603 C 439.007 3.13751 5.49312 0
M  V30 4604 C 437.671 3.48866 5.69077 0
M  V30 4605 H 436.941 0.00292807 0.740994 0
M  V30 4606 H 439.588 0.706668 1.77984 0
M  V30 4607 H 437.893 -0.935309 3.80472 0
M  V30 4608 H 439.59 -0.579607 3.96789 0
M  V30 4609 H 436.18 0.834484 4.20398 0
M  V30 4610 H 440.364 1.70158 4.66219 0
M  V30 4611 H 435.62 2.92558 5.36861 0
M  V30 4612 H 439.794 3.79282 5.84053 0
M  V30 4613 H 437.421 4.41054 6.19173 0
M  V30 4614 N 438.996 -1.55193 0.274407 0
M  V30 4615 C 440.407 -1.85358 -0.223488 0
M  V30 4616 C 440.758 -1.19642 -1.555 0
M  V30 4617 O 439.883 -0.484498 -2.10907 0
M  V30 4618 C 440.478 -3.36282 -0.412285 0
M  V30 4619 C 439.037 -3.66574 -0.854413 0
M  V30 4620 C 438.184 -2.7725 0.0527056 0
M  V30 4621 H 441.135 -1.50743 0.496215 0
M  V30 4622 H 441.156 -3.59349 -1.25094 0
M  V30 4623 H 440.668 -3.84083 0.556965 0
M  V30 4624 H 438.769 -3.24273 -1.83516 0
M  V30 4625 H 438.882 -4.74073 -0.692226 0
M  V30 4626 H 437.246 -2.50447 -0.463484 0
M  V30 4627 H 438.029 -3.27865 1.01783 0
M  V30 4628 N 440.474 -0.00167713 -1.576 0
M  V30 4629 C 441.722 0.681471 -1.90264 0
M  V30 4630 C 442.043 1.7422 -0.875924 0
M  V30 4631 O 441.313 1.95709 0.0864412 0
M  V30 4632 H 439.893 0.254696 -0.702239 0
M  V30 4633 H 442.555 -0.0429996 -1.94853 0
M  V30 4634 H 441.651 1.15166 -2.90075 0
M  V30 4635 N 441.952 1.55251 0.271103 0
M  V30 4636 C 442.882 1.9127 1.33933 0
M  V30 4637 C 443.863 0.77478 1.5143 0
M  V30 4638 O 445.048 1.03307 1.64442 0
M  V30 4639 C 442.178 2.18627 2.69851 0
M  V30 4640 C 441.132 3.34442 2.67081 0
M  V30 4641 C 440.458 3.47284 4.06569 0
M  V30 4642 C 441.758 4.70784 2.26185 0
M  V30 4643 H 443.452 2.80744 1.04035 0
M  V30 4644 H 440.998 1.35077 0.499017 0
M  V30 4645 H 442.951 2.42413 3.44694 0
M  V30 4646 H 441.675 1.25955 3.01335 0
M  V30 4647 H 440.334 3.10627 1.94695 0
M  V30 4648 H 439.982 2.52074 4.35279 0
M  V30 4649 H 439.682 4.25152 4.0561 0
M  V30 4650 H 441.206 3.73363 4.83148 0
M  V30 4651 H 442.62 4.94102 2.90751 0
M  V30 4652 H 441.017 5.51582 2.36384 0
M  V30 4653 H 442.087 4.69478 1.21319 0
M  V30 4654 N 443.43 -0.535701 1.48216 0
M  V30 4655 C 444.362 -1.65662 1.58394 0
M  V30 4656 C 445.375 -1.5591 0.468607 0
M  V30 4657 O 446.564 -1.62475 0.7392 0
M  V30 4658 C 443.664 -3.04276 1.4923 0
M  V30 4659 C 442.837 -3.39567 2.75705 0
M  V30 4660 C 441.896 -4.57436 2.60075 0
M  V30 4661 O 440.922 -4.60942 3.33948 0
M  V30 4662 N 442.124 -5.55259 1.69315 0
M  V30 4663 H 444.889 -1.5737 2.55058 0
M  V30 4664 H 442.45 -0.722845 1.44867 0
M  V30 4665 H 444.442 -3.80994 1.36477 0
M  V30 4666 H 443.012 -3.06677 0.605632 0
M  V30 4667 H 442.232 -2.52083 3.03064 0
M  V30 4668 H 443.52 -3.59929 3.59623 0
M  V30 4669 H 442.918 -5.552 1.08489 0
M  V30 4670 H 441.475 -6.31218 1.62504 0
M  V30 4671 N 444.908 -1.36708 -0.784132 0
M  V30 4672 C 446.156 -1.30972 -1.53918 0
M  V30 4673 C 446.477 0.109086 -1.94695 0
M  V30 4674 O 445.747 1.05048 -1.65353 0
M  V30 4675 H 444.327 -0.481819 -0.570841 0
M  V30 4676 H 446.989 -1.71063 -0.934002 0
M  V30 4677 H 446.085 -1.94061 -2.44431 0
M  V30 4678 N 446.386 1.0089 -1.21074 0
M  V30 4679 C 447.634 1.74262 -1.02358 0
M  V30 4680 C 447.955 1.89869 0.444393 0
M  V30 4681 O 447.225 1.44677 1.32081 0
M  V30 4682 H 445.805 0.645615 -0.375754 0
M  V30 4683 H 448.467 1.21596 -1.52317 0
M  V30 4684 H 447.563 2.74328 -1.4883 0
M  V30 4685 N 447.864 1.01787 1.20321 0
M  V30 4686 C 449.275 0.739307 1.71438 0
M  V30 4687 C 449.626 -0.742041 1.81627 0
M  V30 4688 O 448.751 -1.57903 1.47971 0
M  V30 4689 C 449.346 1.33538 3.11373 0
M  V30 4690 C 447.905 1.10566 3.59795 0
M  V30 4691 C 447.052 1.44028 2.36962 0
M  V30 4692 H 450.003 1.18718 1.05317 0
M  V30 4693 H 450.024 0.726611 3.73498 0
M  V30 4694 H 449.536 2.41352 3.03926 0
M  V30 4695 H 447.637 0.0452405 3.72573 0
M  V30 4696 H 447.75 1.78661 4.44542 0
M  V30 4697 H 446.114 0.85933 2.39766 0
M  V30 4698 H 446.897 2.52901 2.32155 0
M  V30 4699 N 449.342 -1.36122 0.79427 0
M  V30 4700 C 450.292 -2.27373 0.169017 0
M  V30 4701 C 451.276 -1.4719 -0.649913 0
M  V30 4702 O 452.468 -1.69518 -0.50919 0
M  V30 4703 C 449.597 -3.36264 -0.691455 0
M  V30 4704 C 448.683 -4.2388 0.13653 0
M  V30 4705 N 449.074 -4.91519 1.19345 0
M  V30 4706 C 447.372 -4.45921 -0.0838499 0
M  V30 4707 C 448.073 -5.56369 1.6979 0
M  V30 4708 N 447.049 -5.34204 1.00634 0
M  V30 4709 H 450.851 -2.77154 0.977897 0
M  V30 4710 H 448.365 -1.49504 0.634208 0
M  V30 4711 H 450.362 -4.00572 -1.15534 0
M  V30 4712 H 449.022 -2.88037 -1.49883 0
M  V30 4713 H 450.033 -4.9334 1.57594 0
M  V30 4714 H 446.71 -4.08518 -0.861341 0
M  V30 4715 H 448.1 -6.20368 2.58055 0
M  V30 4716 N 450.82 -0.546701 -1.47814 0
M  V30 4717 C 451.768 0.220048 -2.31557 0
M  V30 4718 C 452.762 0.919472 -1.42275 0
M  V30 4719 O 453.968 0.841953 -1.59095 0
M  V30 4720 H 450.343 0.0898334 -0.746615 0
M  V30 4721 H 452.314 -0.505589 -2.94086 0
M  V30 4722 C 451.063 1.24353 -3.24702 0
M  V30 4723 H 450.386 0.714758 -3.93359 0
M  V30 4724 H 451.826 1.75112 -3.8615 0
M  V30 4725 C 450.285 2.28593 -2.47481 0
M  V30 4726 O 450.815 3.35334 -2.21165 0
M  V30 4727 N 449.021 2.02244 -2.08676 0
M  V30 4728 H 448.568 1.15455 -2.30278 0
M  V30 4729 H 448.526 2.72207 -1.57323 0
M  V30 4730 N 452.299 1.55045 -0.282633 0
M  V30 4731 C 453.249 2.19514 0.616249 0
M  V30 4732 C 454.233 1.16216 1.11277 0
M  V30 4733 O 455.425 1.42004 1.05659 0
M  V30 4734 C 452.554 2.92548 1.7964 0
M  V30 4735 C 451.64 4.03142 1.31671 0
M  V30 4736 N 452.031 5.0276 0.553695 0
M  V30 4737 C 450.329 4.1635 1.59903 0
M  V30 4738 C 451.03 5.80923 0.30054 0
M  V30 4739 N 450.006 5.3651 0.875116 0
M  V30 4740 H 453.808 2.93889 0.0255363 0
M  V30 4741 H 451.322 1.62169 -0.0865362 0
M  V30 4742 H 453.319 3.37188 2.45173 0
M  V30 4743 H 451.979 2.19685 2.39099 0
M  V30 4744 H 452.99 5.17512 0.20032 0
M  V30 4745 H 449.667 3.54682 2.20243 0
M  V30 4746 H 451.057 6.7118 -0.311053 0
M  V30 4747 N 453.777 0.010035 1.57597 0
M  V30 4748 C 454.74 -0.963029 2.07986 0
M  V30 4749 C 455.74 -1.26619 0.991173 0
M  V30 4750 O 456.93 -1.2097 1.25347 0
M  V30 4751 C 454.062 -2.2851 2.52974 0
M  V30 4752 H 455.255 -0.526971 2.95234 0
M  V30 4753 H 452.808 -0.237639 1.54483 0
M  V30 4754 H 453.543 -2.76784 1.69 0
M  V30 4755 H 453.328 -2.07824 3.32493 0
M  V30 4756 H 454.818 -2.98294 2.9225 0
M  V30 4757 N 455.255 -1.55392 -0.262866 0
M  V30 4758 C 456.504 -1.75679 -0.990943 0
M  V30 4759 C 456.817 -0.57097 -1.87081 0
M  V30 4760 O 458.023 -0.656486 -2.63444 0
M  V30 4761 C 456.479 -3.10964 -1.81188 0
M  V30 4762 C 456.087 -4.37146 -0.980188 0
M  V30 4763 C 457.831 -3.40597 -2.53365 0
M  V30 4764 C 455.738 -5.63466 -1.7961 0
M  V30 4765 H 454.668 -0.654868 -0.373716 0
M  V30 4766 H 457.319 -1.81841 -0.246203 0
M  V30 4767 H 455.701 -2.98867 -2.59797 0
M  V30 4768 H 456.875 -4.60187 -0.237558 0
M  V30 4769 H 455.19 -4.14731 -0.372497 0
M  V30 4770 H 457.787 -4.32186 -3.14833 0
M  V30 4771 H 458.13 -2.6119 -3.24169 0
M  V30 4772 H 458.663 -3.53838 -1.81779 0
M  V30 4773 H 455.402 -6.4565 -1.13209 0
M  V30 4774 H 454.922 -5.44552 -2.51443 0
M  V30 4775 H 456.601 -6.02139 -2.36723 0
M  V30 4776 N 456.733 0.527833 -1.48498 0
M  V30 4777 C 457.696 1.61439 -1.62696 0
M  V30 4778 C 458.696 1.52824 -0.500136 0
M  V30 4779 O 459.886 1.56456 -0.765976 0
M  V30 4780 C 457.018 3.01063 -1.59918 0
M  V30 4781 H 458.211 1.50189 -2.59583 0
M  V30 4782 H 455.764 0.750055 -1.37127 0
M  V30 4783 H 456.499 3.17818 -0.645163 0
M  V30 4784 H 456.284 3.08725 -2.41726 0
M  V30 4785 H 457.774 3.80057 -1.73051 0
M  V30 4786 N 458.211 1.37122 0.776871 0
M  V30 4787 C 459.459 1.31787 1.53221 0
M  V30 4788 C 459.78 -0.0987589 1.9475 0
M  V30 4789 O 459.05 -1.0417 1.65908 0
M  V30 4790 H 457.63 0.484839 0.568278 0
M  V30 4791 H 460.292 1.71556 0.924917 0
M  V30 4792 H 459.388 1.95355 2.43398 0
M  V30 4793 N 459.689 -1.00246 1.21608 0
M  V30 4794 C 460.935 -1.74319 1.03638 0
M  V30 4795 C 461.268 -1.89408 -0.428749 0
M  V30 4796 O 460.543 -1.43026 -1.3181 0
M  V30 4797 C 460.826 -3.15431 1.73711 0
M  V30 4798 C 460.679 -3.08049 3.27759 0
M  V30 4799 C 461.998 -4.14407 1.48173 0
M  V30 4800 H 459.117 -0.632741 0.377899 0
M  V30 4801 H 461.759 -1.16853 1.49818 0
M  V30 4802 H 459.909 -3.64493 1.34452 0
M  V30 4803 H 461.581 -2.66681 3.76403 0
M  V30 4804 H 459.824 -2.45088 3.57931 0
M  V30 4805 H 460.495 -4.07862 3.71958 0
M  V30 4806 H 462.971 -3.74061 1.82258 0
M  V30 4807 H 461.847 -5.11279 1.99713 0
M  V30 4808 H 462.108 -4.40174 0.412273 0
M  V30 4809 N 461.167 -1.02423 -1.1978 0
M  V30 4810 C 462.13 -0.605703 -2.21052 0
M  V30 4811 C 463.13 0.328209 -1.57415 0
M  V30 4812 O 464.32 0.115853 -1.73814 0
M  V30 4813 C 461.452 0.114366 -3.40708 0
M  V30 4814 H 462.645 -1.5017 -2.59594 0
M  V30 4815 H 460.198 -0.814888 -1.33376 0
M  V30 4816 H 460.933 1.02492 -3.07678 0
M  V30 4817 H 460.718 -0.556641 -3.88129 0
M  V30 4818 H 462.208 0.394272 -4.15735 0
M  V30 4819 N 462.645 1.35699 -0.801477 0
M  V30 4820 C 463.891 1.99208 -0.380022 0
M  V30 4821 C 464.224 1.63445 1.04878 0
M  V30 4822 O 463.499 0.895223 1.72673 0
M  V30 4823 C 463.782 3.55755 -0.557708 0
M  V30 4824 C 463.635 4.01332 -2.03107 0
M  V30 4825 C 464.954 4.40096 0.0197968 0
M  V30 4826 H 462.073 0.723667 -0.139552 0
M  V30 4827 H 464.715 1.60928 -1.01006 0
M  V30 4828 H 462.865 3.88494 -0.0213741 0
M  V30 4829 H 464.537 3.79026 -2.62939 0
M  V30 4830 H 462.78 3.52429 -2.52936 0
M  V30 4831 H 463.451 5.10234 -2.1063 0
M  V30 4832 H 465.927 4.13786 -0.438179 0
M  V30 4833 H 464.803 5.48735 -0.134477 0
M  V30 4834 H 465.064 4.2786 1.11303 0
M  V30 4835 N 464.123 0.554532 1.47522 0
M  V30 4836 C 465.086 -0.184174 2.28459 0
M  V30 4837 C 466.086 -0.845195 1.36796 0
M  V30 4838 O 467.276 -0.701467 1.59452 0
M  V30 4839 C 464.408 -1.26903 3.16399 0
M  V30 4840 H 465.601 0.526751 2.95238 0
M  V30 4841 H 463.154 0.311375 1.53167 0
M  V30 4842 H 463.889 -2.01244 2.54306 0
M  V30 4843 H 463.674 -0.799883 3.83854 0
M  V30 4844 H 465.164 -1.78794 3.77389 0
M  V30 4845 N 465.601 -1.54893 0.290851 0
M  V30 4846 C 466.531 -2.26103 -0.583084 0
M  V30 4847 C 467.512 -1.25684 -1.14619 0
M  V30 4848 O 468.697 -1.54436 -1.17741 0
M  V30 4849 C 465.827 -2.99409 -1.75987 0
M  V30 4850 C 464.781 -4.0689 -1.32758 0
M  V30 4851 C 464.107 -4.67856 -2.58872 0
M  V30 4852 C 465.407 -5.20215 -0.46624 0
M  V30 4853 H 467.101 -2.99398 0.0108214 0
M  V30 4854 H 464.647 -1.43998 0.00664468 0
M  V30 4855 H 466.6 -3.47943 -2.37727 0
M  V30 4856 H 465.324 -2.23675 -2.37985 0
M  V30 4857 H 463.983 -3.59191 -0.733299 0
M  V30 4858 H 463.631 -3.88772 -3.19163 0
M  V30 4859 H 463.331 -5.40438 -2.30653 0
M  V30 4860 H 464.855 -5.19147 -3.21433 0
M  V30 4861 H 466.269 -5.64704 -0.989047 0
M  V30 4862 H 464.666 -5.99455 -0.27826 0
M  V30 4863 H 465.736 -4.82198 0.511173 0
M  V30 4864 N 467.08 -0.0183926 -1.57589 0
M  V30 4865 C 468.027 0.967022 -2.09565 0
M  V30 4866 C 468.997 1.32983 -0.995225 0
M  V30 4867 O 470.182 1.42501 -1.26878 0
M  V30 4868 C 467.322 2.24772 -2.61861 0
M  V30 4869 C 466.435 1.94232 -3.85873 0
M  V30 4870 C 465.57 3.16518 -4.26603 0
M  V30 4871 C 464.609 2.81748 -5.43401 0
M  V30 4872 N 463.746 3.96626 -5.79338 0
M  V30 4873 H 468.586 0.516874 -2.93483 0
M  V30 4874 H 466.123 0.243544 -1.4507 0
M  V30 4875 H 468.081 2.99667 -2.90268 0
M  V30 4876 H 466.711 2.67423 -1.8079 0
M  V30 4877 H 465.763 1.09625 -3.64262 0
M  V30 4878 H 467.075 1.64616 -4.70853 0
M  V30 4879 H 466.229 3.99743 -4.56389 0
M  V30 4880 H 464.968 3.49286 -3.40368 0
M  V30 4881 H 463.973 1.96933 -5.1332 0
M  V30 4882 H 465.198 2.50207 -6.31327 0
M  V30 4883 H 463.144 4.29257 -4.96059 0
M  V30 4884 H 463.061 3.70598 -6.58933 0
M  V30 4885 H 464.329 4.80586 -6.13724 0
M  V30 4886 N 468.558 1.5553 0.254621 0
M  V30 4887 C 469.49 1.86104 1.33783 0
M  V30 4888 C 470.503 0.746752 1.44663 0
M  V30 4889 O 471.692 1.0248 1.46151 0
M  V30 4890 C 468.792 2.02532 2.71724 0
M  V30 4891 C 467.965 3.33335 2.83208 0
M  V30 4892 C 467.024 3.396 4.01943 0
M  V30 4893 O 466.05 4.12862 3.91834 0
M  V30 4894 N 467.252 2.68332 5.1476 0
M  V30 4895 H 470.017 2.79605 1.07893 0
M  V30 4896 H 467.578 1.55672 0.444732 0
M  V30 4897 H 469.57 2.04074 3.4948 0
M  V30 4898 H 468.14 1.15811 2.90356 0
M  V30 4899 H 467.36 3.44176 1.92189 0
M  V30 4900 H 468.648 4.19565 2.87824 0
M  V30 4901 H 468.046 2.08528 5.25864 0
M  V30 4902 H 466.603 2.75575 5.90679 0
M  V30 4903 N 470.036 -0.519951 1.48776 0
M  V30 4904 C 470.999 -1.60574 1.6355 0
M  V30 4905 C 471.999 -1.52557 0.508234 0
M  V30 4906 O 473.189 -1.56047 0.774262 0
M  V30 4907 C 470.321 -3.00211 1.61512 0
M  V30 4908 H 471.514 -1.4881 2.60376 0
M  V30 4909 H 469.067 -0.742772 1.37523 0
M  V30 4910 H 469.802 -3.17471 0.662009 0
M  V30 4911 H 469.587 -3.07439 2.43359 0
M  V30 4912 H 471.077 -3.79134 1.75064 0
M  V30 4913 N 471.514 -1.37532 -0.769588 0
M  V30 4914 C 472.447 -1.27839 -1.8903 0
M  V30 4915 C 473.425 -0.158504 -1.61826 0
M  V30 4916 O 474.609 -0.333086 -1.85534 0
M  V30 4917 C 471.736 -0.977072 -3.24301 0
M  V30 4918 C 470.782 -2.11414 -3.70414 0
M  V30 4919 S 471.615 -3.73409 -3.83831 0
M  V30 4920 C 472.771 -3.45432 -5.21946 0
M  V30 4921 H 473.004 -2.22694 -1.96963 0
M  V30 4922 H 470.537 -1.2318 -0.930914 0
M  V30 4923 H 472.495 -0.810049 -4.02428 0
M  V30 4924 H 471.156 -0.0459701 -3.14066 0
M  V30 4925 H 470.349 -1.85837 -4.68488 0
M  V30 4926 H 469.951 -2.24141 -2.99394 0
M  V30 4927 H 472.243 -3.00554 -6.07185 0
M  V30 4928 H 473.186 -4.42841 -5.52537 0
M  V30 4929 H 473.594 -2.80311 -4.89986 0
M  V30 4930 N 472.992 0.995999 -1.22138 0
M  V30 4931 C 474.22 1.77066 -1.07029 0
M  V30 4932 C 474.635 1.8495 0.379357 0
M  V30 4933 O 473.992 1.3174 1.26297 0
M  V30 4934 C 474.043 3.20533 -1.67155 0
M  V30 4935 O 473.764 3.13082 -3.06449 0
M  V30 4936 C 475.265 4.14461 -1.5728 0
M  V30 4937 H 472.485 0.556179 -0.375374 0
M  V30 4938 H 475.029 1.25238 -1.61666 0
M  V30 4939 H 473.184 3.6944 -1.16589 0
M  V30 4940 H 473.598 4.03283 -3.35355 0
M  V30 4941 H 475.072 5.1289 -2.04078 0
M  V30 4942 H 475.549 4.36005 -0.528795 0
M  V30 4943 H 476.155 3.71449 -2.07136 0
M  V30 4944 N 474.47 1.03057 1.19235 0
M  V30 4945 C 475.4 0.633497 2.24742 0
M  V30 4946 C 476.381 -0.358335 1.66283 0
M  V30 4947 O 477.566 -0.240676 1.92703 0
M  V30 4948 C 474.696 -0.0147648 3.47297 0
M  V30 4949 C 473.65 0.899527 4.18441 0
M  V30 4950 C 472.976 0.116281 5.34574 0
M  V30 4951 C 474.276 2.21404 4.73051 0
M  V30 4952 H 475.97 1.5155 2.58211 0
M  V30 4953 H 473.516 0.73014 1.24117 0
M  V30 4954 H 475.469 -0.304202 4.20301 0
M  V30 4955 H 474.193 -0.931577 3.13032 0
M  V30 4956 H 472.852 1.17319 3.47321 0
M  V30 4957 H 472.5 -0.802619 4.96555 0
M  V30 4958 H 472.2 0.725293 5.83107 0
M  V30 4959 H 473.724 -0.166376 6.10373 0
M  V30 4960 H 475.138 1.98601 5.37802 0
M  V30 4961 H 473.535 2.77512 5.32078 0
M  V30 4962 H 474.605 2.86752 3.91026 0
M  V30 4963 N 475.948 -1.35272 0.808662 0
M  V30 4964 C 476.858 -2.33546 0.222079 0
M  V30 4965 C 477.874 -1.6196 -0.636011 0
M  V30 4966 O 479.05 -1.93822 -0.547274 0
M  V30 4967 C 476.115 -3.41148 -0.61795 0
M  V30 4968 C 475.176 -4.28507 0.260875 0
M  V30 4969 C 474.409 -5.3097 -0.539156 0
M  V30 4970 O 474.632 -5.42123 -1.77367 0
M  V30 4971 O 473.566 -6.01858 0.0710526 0
M  V30 4972 H 477.392 -2.85515 1.03512 0
M  V30 4973 H 474.977 -1.38079 0.570495 0
M  V30 4974 H 476.859 -4.06889 -1.09634 0
M  V30 4975 H 475.534 -2.91447 -1.40855 0
M  V30 4976 H 474.441 -3.6574 0.786451 0
M  V30 4977 H 475.774 -4.81611 1.01547 0
M  V30 4978 N 477.426 -0.562348 -1.47226 0
M  V30 4979 C 478.673 -0.0402165 -2.0246 0
M  V30 4980 C 479.001 1.31169 -1.43614 0
M  V30 4981 O 478.256 1.86805 -0.5833 0
M  V30 4982 C 478.555 0.0969817 -3.57268 0
M  V30 4983 C 478.221 -1.1847 -4.35058 0
M  V30 4984 C 476.883 -1.53588 -4.56031 0
M  V30 4985 C 479.235 -2.03378 -4.79882 0
M  V30 4986 C 476.563 -2.73452 -5.19077 0
M  V30 4987 C 478.915 -3.2245 -5.44251 0
M  V30 4988 C 477.579 -3.57876 -5.63455 0
M  V30 4989 H 476.849 -0.0147163 -0.740854 0
M  V30 4990 H 479.496 -0.734895 -1.76838 0
M  V30 4991 H 477.801 0.87466 -3.81912 0
M  V30 4992 H 479.498 0.516408 -3.97661 0
M  V30 4993 H 476.088 -0.90126 -4.19017 0
M  V30 4994 H 480.272 -1.77553 -4.63453 0
M  V30 4995 H 475.528 -3.01062 -5.32139 0
M  V30 4996 H 479.702 -3.88526 -5.77945 0
M  V30 4997 H 477.329 -4.50849 -6.12078 0
M  V30 4998 N 478.904 1.54736 -0.299062 0
M  V30 4999 C 479.851 2.23448 0.577899 0
M  V30 5000 C 480.821 1.21637 1.13109 0
M  V30 5001 O 482.006 1.50252 1.17597 0
M  V30 5002 C 479.146 2.9774 1.74484 0
M  V30 5003 C 478.259 4.1432 1.22323 0
M  V30 5004 C 477.394 4.76199 2.35388 0
M  V30 5005 C 476.433 5.84927 1.80351 0
M  V30 5006 N 475.57 6.4077 2.86982 0
M  V30 5007 H 480.41 2.97996 -0.0146545 0
M  V30 5008 H 477.947 1.47088 -0.0190013 0
M  V30 5009 H 479.905 3.39045 2.43114 0
M  V30 5010 H 478.535 2.25572 2.30905 0
M  V30 5011 H 477.587 3.7797 0.429249 0
M  V30 5012 H 478.899 4.92659 0.780309 0
M  V30 5013 H 478.053 5.20346 3.11969 0
M  V30 5014 H 476.792 3.97188 2.83006 0
M  V30 5015 H 475.797 5.40207 1.02259 0
M  V30 5016 H 477.022 6.65821 1.3364 0
M  V30 5017 H 474.968 5.64643 3.33938 0
M  V30 5018 H 474.885 7.1445 2.4718 0
M  V30 5019 H 476.153 6.89574 3.63466 0
M  V30 5020 N 480.382 0.0267497 1.57577 0
M  V30 5021 C 481.628 -0.653371 1.91987 0
M  V30 5022 C 481.961 -1.71915 0.903263 0
M  V30 5023 O 481.236 -1.94358 -0.0743387 0
M  V30 5024 C 481.519 -1.272 3.36886 0
M  V30 5025 C 481.372 -0.215938 4.49281 0
M  V30 5026 C 482.691 -2.19069 3.81703 0
M  V30 5027 H 479.81 -0.236047 0.698177 0
M  V30 5028 H 482.452 0.0835236 1.89816 0
M  V30 5029 H 480.602 -1.90005 3.38866 0
M  V30 5030 H 482.274 0.41449 4.59434 0
M  V30 5031 H 480.517 0.458855 4.31366 0
M  V30 5032 H 481.188 -0.688347 5.47691 0
M  V30 5033 H 483.664 -1.66253 3.81444 0
M  V30 5034 H 482.54 -2.59307 4.83788 0
M  V30 5035 H 482.801 -3.08087 3.17072 0
M  V30 5036 N 481.861 -1.55662 -0.24637 0
M  V30 5037 C 483.091 -1.81312 -0.990438 0
M  V30 5038 C 483.499 -0.600234 -1.79426 0
M  V30 5039 O 482.842 0.440537 -1.78339 0
M  V30 5040 C 482.904 -3.0032 -1.97607 0
M  V30 5041 C 482.568 -4.36322 -1.35912 0
M  V30 5042 C 483.565 -5.14295 -0.761348 0
M  V30 5043 C 481.25 -4.83019 -1.37833 0
M  V30 5044 C 483.244 -6.37114 -0.190998 0
M  V30 5045 C 480.931 -6.05786 -0.804128 0
M  V30 5046 C 481.929 -6.82672 -0.211489 0
M  V30 5047 O 481.617 -8.03121 0.353845 0
M  V30 5048 H 481.349 -0.607233 -0.297058 0
M  V30 5049 H 483.903 -2.0356 -0.274351 0
M  V30 5050 H 482.133 -2.73829 -2.73047 0
M  V30 5051 H 483.822 -3.13057 -2.58361 0
M  V30 5052 H 484.588 -4.79337 -0.739013 0
M  V30 5053 H 480.467 -4.23165 -1.829 0
M  V30 5054 H 484.011 -6.97069 0.272206 0
M  V30 5055 H 479.908 -6.40222 -0.823792 0
M  V30 5056 H 480.676 -8.18131 0.245761 0
M  V30 5057 N 483.339 0.512053 -1.4905 0
M  V30 5058 C 484.271 1.63121 -1.6101 0
M  V30 5059 C 485.284 1.55145 -0.493352 0
M  V30 5060 O 486.473 1.61278 -0.764955 0
M  V30 5061 C 483.573 3.01863 -1.54052 0
M  V30 5062 C 482.746 3.35138 -2.81072 0
M  V30 5063 C 481.805 4.5324 -2.67319 0
M  V30 5064 O 480.831 4.55571 -3.41238 0
M  V30 5065 N 482.033 5.52495 -1.78127 0
M  V30 5066 H 484.798 1.53292 -2.5753 0
M  V30 5067 H 482.359 0.699706 -1.45999 0
M  V30 5068 H 484.351 3.78774 -1.42521 0
M  V30 5069 H 482.921 3.05675 -0.654345 0
M  V30 5070 H 482.141 2.4723 -3.07036 0
M  V30 5071 H 483.429 3.54162 -3.65304 0
M  V30 5072 H 482.827 5.53403 -1.17308 0
M  V30 5073 H 481.384 6.28553 -1.72525 0
M  V30 5074 N 484.817 1.37938 0.762283 0
M  V30 5075 C 485.767 1.30976 1.86626 0
M  V30 5076 C 486.751 0.195714 1.59705 0
M  V30 5077 O 487.943 0.430937 1.71674 0
M  V30 5078 C 485.072 1.12847 3.24223 0
M  V30 5079 C 484.158 2.28836 3.57064 0
M  V30 5080 N 484.549 3.54256 3.61022 0
M  V30 5081 C 482.847 2.21198 3.87282 0
M  V30 5082 C 483.548 4.30798 3.90881 0
M  V30 5083 N 482.524 3.60049 4.07266 0
M  V30 5084 H 486.326 2.25946 1.87951 0
M  V30 5085 H 483.84 1.31046 0.959206 0
M  V30 5086 H 485.837 1.05943 4.03214 0
M  V30 5087 H 484.497 0.188024 3.24155 0
M  V30 5088 H 485.508 3.8804 3.42995 0
M  V30 5089 H 482.185 1.35264 3.94981 0
M  V30 5090 H 483.575 5.39386 4.00639 0
M  V30 5091 N 486.295 -0.989507 1.22664 0
M  V30 5092 C 487.227 -2.0824 0.957542 0
M  V30 5093 C 488.24 -1.6267 -0.0651098 0
M  V30 5094 O 489.429 -1.77695 0.169312 0
M  V30 5095 C 486.529 -3.36298 0.419145 0
M  V30 5096 C 485.702 -4.10882 1.49982 0
M  V30 5097 C 484.761 -5.17221 0.967904 0
M  V30 5098 O 483.787 -5.44613 1.65487 0
M  V30 5099 N 484.989 -5.80124 -0.20896 0
M  V30 5100 H 487.754 -2.31904 1.89843 0
M  V30 5101 H 485.315 -1.15552 1.13399 0
M  V30 5102 H 487.307 -4.04671 0.0485451 0
M  V30 5103 H 485.877 -3.09671 -0.426937 0
M  V30 5104 H 485.097 -3.37092 2.04359 0
M  V30 5105 H 486.385 -4.57482 2.22682 0
M  V30 5106 H 485.783 -5.60244 -0.783818 0
M  V30 5107 H 484.34 -6.49715 -0.520913 0
M  V30 5108 N 487.773 -1.03688 -1.18687 0
M  V30 5109 C 489.019 -0.739123 -1.88851 0
M  V30 5110 C 489.352 0.731042 -1.79915 0
M  V30 5111 O 488.627 1.53313 -1.19688 0
M  V30 5112 C 488.91 -1.20106 -3.3948 0
M  V30 5113 C 488.763 -2.73304 -3.57246 0
M  V30 5114 C 490.082 -0.788134 -4.32986 0
M  V30 5115 H 487.201 -0.269978 -0.68577 0
M  V30 5116 H 489.843 -1.28822 -1.3966 0
M  V30 5117 H 487.993 -0.733915 -3.81505 0
M  V30 5118 H 489.665 -3.28027 -3.24339 0
M  V30 5119 H 487.908 -3.13313 -3.00029 0
M  V30 5120 H 488.579 -3.00684 -4.62918 0
M  V30 5121 H 491.055 -1.19005 -3.98719 0
M  V30 5122 H 489.931 -1.13915 -5.36949 0
M  V30 5123 H 490.192 0.308988 -4.41019 0
M  V30 5124 N 489.251 1.34841 -0.815825 0
M  V30 5125 C 490.497 1.98793 -0.401129 0
M  V30 5126 C 490.83 1.64548 1.03139 0
M  V30 5127 O 490.105 0.913487 1.71714 0
M  V30 5128 C 490.388 3.55143 -0.595409 0
M  V30 5129 C 490.241 3.99155 -2.07352 0
M  V30 5130 C 491.56 4.40092 -0.0268823 0
M  V30 5131 H 488.679 0.722146 -0.14722 0
M  V30 5132 H 491.321 1.59847 -1.02707 0
M  V30 5133 H 489.471 3.8845 -0.0625779 0
M  V30 5134 H 491.143 3.76216 -2.66945 0
M  V30 5135 H 489.386 3.49726 -2.56659 0
M  V30 5136 H 490.057 5.07971 -2.1603 0
M  V30 5137 H 492.533 4.13298 -0.482042 0
M  V30 5138 H 491.409 5.48562 -0.19267 0
M  V30 5139 H 491.67 4.29016 1.06759 0
M  V30 5140 N 490.729 0.570148 1.46925 0
M  V30 5141 C 491.692 -0.159933 2.28641 0
M  V30 5142 C 492.692 -0.830638 1.37685 0
M  V30 5143 O 493.882 -0.684516 1.60187 0
M  V30 5144 C 491.014 -1.2354 3.17727 0
M  V30 5145 H 492.207 0.558035 2.94662 0
M  V30 5146 H 489.76 0.327603 1.52828 0
M  V30 5147 H 490.495 -1.98535 2.56426 0
M  V30 5148 H 490.28 -0.759125 3.84681 0
M  V30 5149 H 491.77 -1.74782 3.79264 0
M  V30 5150 N 492.207 -1.54576 0.307264 0
M  V30 5151 C 493.155 -2.25208 -0.581723 0
M  V30 5152 C 494.149 -1.26031 -1.13192 0
M  V30 5153 O 495.355 -1.43862 -1.08184 0
M  V30 5154 H 491.73 -0.723173 -0.206214 0
M  V30 5155 H 493.701 -2.98378 0.0364663 0
M  V30 5156 C 492.45 -3.01086 -1.73904 0
M  V30 5157 H 491.773 -3.77208 -1.32491 0
M  V30 5158 H 493.213 -3.5378 -2.33701 0
M  V30 5159 C 491.672 -2.08422 -2.64692 0
M  V30 5160 O 492.202 -1.65636 -3.65961 0
M  V30 5161 N 490.408 -1.74247 -2.32564 0
M  V30 5162 H 489.955 -2.09238 -1.50257 0
M  V30 5163 H 489.913 -1.12524 -2.93574 0
M  V30 5164 N 493.685 -0.035106 -1.57561 0
M  V30 5165 C 494.925 0.646316 -1.93913 0
M  V30 5166 C 495.289 1.68947 -0.912185 0
M  V30 5167 O 496.49 2.42381 -1.1621 0
M  V30 5168 C 494.761 1.24136 -3.35149 0
M  V30 5169 S 496.32 1.94302 -3.93436 0
M  V30 5170 H 493.138 0.212642 -0.678457 0
M  V30 5171 H 495.74 -0.100203 -1.95243 0
M  V30 5172 H 494.444 0.46979 -4.07702 0
M  V30 5173 H 493.975 2.02505 -3.37276 0
M  V30 5174 H 495.99 3.22205 -3.77357 0
M  V30 5175 N 495.163 1.55791 0.238111 0
M  V30 5176 C 496.579 1.48411 0.587045 0
M  V30 5177 C 496.779 0.72702 1.87927 0
M  V30 5178 O 495.835 0.259942 2.51158 0
M  V30 5179 C 497.148 2.92873 0.681623 0
M  V30 5180 C 498.696 3.03295 0.773363 0
M  V30 5181 C 499.171 4.49082 0.899428 0
M  V30 5182 N 500.662 4.53056 0.964075 0
M  V30 5183 C 501.397 5.63117 1.08104 0
M  V30 5184 N 500.893 6.82969 1.16299 0
M  V30 5185 N 502.686 5.50933 1.11488 0
M  V30 5186 H 494.837 2.0345 -0.610076 0
M  V30 5187 H 497.1 0.924034 -0.211813 0
M  V30 5188 H 496.806 3.51142 -0.19802 0
M  V30 5189 H 496.68 3.43851 1.55069 0
M  V30 5190 H 499.067 2.45101 1.64346 0
M  V30 5191 H 499.148 2.55513 -0.121034 0
M  V30 5192 H 498.792 5.07889 0.0338586 0
M  V30 5193 H 498.722 4.94553 1.809 0
M  V30 5194 H 501.213 3.66737 0.91173 0
M  V30 5195 H 501.526 7.62598 1.25155 0
M  V30 5196 H 499.871 6.85712 1.13241 0
M  V30 5197 H 503.062 4.56231 1.0474 0
M  V30 5198 H 503.235 6.36743 1.20259 0
M  V30 5199 N 496.642 -0.504142 1.49319 0
M  V30 5200 C 497.605 -1.5883 1.65244 0
M  V30 5201 C 498.605 -1.52009 0.524386 0
M  V30 5202 O 499.795 -1.55218 0.79077 0
M  V30 5203 C 496.927 -2.98481 1.64687 0
M  V30 5204 H 498.12 -1.4604 2.61939 0
M  V30 5205 H 495.673 -0.728144 1.38303 0
M  V30 5206 H 496.408 -3.16751 0.695644 0
M  V30 5207 H 496.193 -3.0484 2.46607 0
M  V30 5208 H 497.683 -3.77256 1.79075 0
M  V30 5209 N 498.12 -1.38341 -0.754957 0
M  V30 5210 C 499.05 -1.38176 -1.88227 0
M  V30 5211 C 500.031 -0.247873 -1.68284 0
M  V30 5212 O 501.216 -0.45075 -1.88896 0
M  V30 5213 C 498.346 -1.20471 -3.25736 0
M  V30 5214 C 497.3 -2.3105 -3.60278 0
M  V30 5215 C 496.626 -1.98452 -4.96509 0
M  V30 5216 C 497.926 -3.73305 -3.65295 0
M  V30 5217 H 499.62 -2.32512 -1.88622 0
M  V30 5218 H 497.166 -1.1192 -0.906082 0
M  V30 5219 H 499.119 -1.18982 -4.04254 0
M  V30 5220 H 497.843 -0.225965 -3.25817 0
M  V30 5221 H 496.502 -2.31723 -2.84078 0
M  V30 5222 H 496.15 -0.990641 -4.93148 0
M  V30 5223 H 495.85 -2.7251 -5.20588 0
M  V30 5224 H 497.374 -1.98578 -5.77407 0
M  V30 5225 H 498.788 -3.7467 -4.3393 0
M  V30 5226 H 497.185 -4.46557 -4.00883 0
M  V30 5227 H 498.255 -4.05719 -2.65556 0
M  V30 5228 N 499.598 0.982988 -1.23187 0
M  V30 5229 C 500.823 1.76455 -1.08988 0
M  V30 5230 C 501.248 1.84726 0.354691 0
M  V30 5231 O 500.606 1.30699 1.25649 0
M  V30 5232 C 500.654 3.17094 -1.71708 0
M  V30 5233 O 499.758 4.00648 -0.977477 0
M  V30 5234 H 499.099 0.542988 -0.382177 0
M  V30 5235 H 501.629 1.23413 -1.63188 0
M  V30 5236 H 501.639 3.67684 -1.76841 0
M  V30 5237 H 500.314 3.10389 -2.76823 0
M  V30 5238 H 498.891 3.59161 -1.0029 0
M  V30 5239 N 501.076 1.04316 1.18135 0
M  V30 5240 C 501.986 0.646876 2.25505 0
M  V30 5241 C 503.002 -0.328008 1.7088 0
M  V30 5242 O 504.178 -0.182309 2.00573 0
M  V30 5243 C 501.243 0.0185664 3.46695 0
M  V30 5244 C 500.304 1.04277 4.16443 0
M  V30 5245 C 499.537 0.444352 5.31847 0
M  V30 5246 O 499.76 -0.748735 5.65465 0
M  V30 5247 O 498.694 1.17428 5.90334 0
M  V30 5248 H 502.52 1.54147 2.61672 0
M  V30 5249 H 500.105 0.814188 1.25265 0
M  V30 5250 H 501.987 -0.331068 4.20097 0
M  V30 5251 H 500.662 -0.849814 3.12346 0
M  V30 5252 H 499.569 1.44425 3.45098 0
M  V30 5253 H 500.902 1.882 4.54798 0
M  V30 5254 N 502.554 -1.34406 0.822964 0
M  V30 5255 C 503.517 -2.2783 0.250271 0
M  V30 5256 C 504.517 -1.50288 -0.571854 0
M  V30 5257 O 505.707 -1.69825 -0.387952 0
M  V30 5258 C 502.839 -3.34663 -0.649137 0
M  V30 5259 H 504.032 -2.79992 1.07444 0
M  V30 5260 H 501.585 -1.44539 0.594829 0
M  V30 5261 H 502.32 -2.87714 -1.49637 0
M  V30 5262 H 502.105 -3.92052 -0.0611199 0
M  V30 5263 H 503.595 -4.04349 -1.04363 0
M  V30 5264 N 504.032 -0.577932 -1.46621 0
M  V30 5265 C 504.962 0.145917 -2.33044 0
M  V30 5266 C 505.943 0.888412 -1.45056 0
M  V30 5267 O 507.128 0.864812 -1.73881 0
M  V30 5268 C 504.258 1.16322 -3.27241 0
M  V30 5269 C 503.212 0.535868 -4.24632 0
M  V30 5270 C 502.538 1.65929 -5.08303 0
M  V30 5271 C 503.838 -0.523861 -5.19666 0
M  V30 5272 H 505.532 -0.575636 -2.93814 0
M  V30 5273 H 503.078 -0.278272 -1.41286 0
M  V30 5274 H 505.031 1.67793 -3.86553 0
M  V30 5275 H 503.755 1.91498 -2.64567 0
M  V30 5276 H 502.414 0.0422759 -3.66576 0
M  V30 5277 H 502.062 2.40061 -4.42018 0
M  V30 5278 H 501.762 1.2452 -5.74255 0
M  V30 5279 H 503.286 2.17686 -5.70478 0
M  V30 5280 H 504.7 -0.0944059 -5.73222 0
M  V30 5281 H 503.097 -0.858 -5.93935 0
M  V30 5282 H 504.167 -1.41197 -4.63887 0
M  V30 5283 N 505.51 1.54411 -0.315457 0
M  V30 5284 C 506.738 2.04833 0.291738 0
M  V30 5285 C 507.153 1.19203 1.46411 0
M  V30 5286 O 506.51 0.220867 1.81159 0
M  V30 5287 C 506.561 3.53969 0.73404 0
M  V30 5288 O 506.282 4.36346 -0.391682 0
M  V30 5289 C 507.783 4.2045 1.40489 0
M  V30 5290 H 505.003 0.668195 0.0612947 0
M  V30 5291 H 507.547 1.99276 -0.45929 0
M  V30 5292 H 505.702 3.5984 1.43506 0
M  V30 5293 H 506.116 5.24481 -0.0447088 0
M  V30 5294 H 507.59 5.26278 1.66539 0
M  V30 5295 H 508.067 3.71067 2.3496 0
M  V30 5296 H 508.673 4.18694 0.746662 0
M  V30 5297 N 506.988 0.0434614 1.5754 0
M  V30 5298 C 507.898 -0.94893 2.14552 0
M  V30 5299 C 508.914 -1.34707 1.10136 0
M  V30 5300 O 510.09 -1.42557 1.42266 0
M  V30 5301 C 507.155 -2.208 2.67298 0
M  V30 5302 C 506.216 -1.86893 3.86484 0
M  V30 5303 C 505.449 -3.06797 4.36705 0
M  V30 5304 O 505.672 -4.19921 3.86034 0
M  V30 5305 O 504.606 -2.8826 5.28384 0
M  V30 5306 H 508.432 -0.494099 2.99654 0
M  V30 5307 H 506.017 -0.177989 1.48336 0
M  V30 5308 H 507.899 -2.94686 3.01228 0
M  V30 5309 H 506.574 -2.65436 1.85272 0
M  V30 5310 H 505.481 -1.10347 3.57455 0
M  V30 5311 H 506.814 -1.47062 4.69716 0
M  V30 5312 N 508.466 -1.55915 -0.229846 0
M  V30 5313 C 509.396 -1.94754 -1.28815 0
M  V30 5314 C 510.377 -0.814657 -1.49323 0
M  V30 5315 O 511.562 -1.07631 -1.61645 0
M  V30 5316 C 508.692 -2.25705 -2.63959 0
M  V30 5317 C 507.646 -3.41406 -2.5812 0
M  V30 5318 C 506.972 -3.57941 -3.97218 0
M  V30 5319 C 508.272 -4.76616 -2.13623 0
M  V30 5320 H 509.966 -2.83404 -0.965547 0
M  V30 5321 H 507.512 -1.36353 -0.463028 0
M  V30 5322 H 509.465 -2.51467 -3.38146 0
M  V30 5323 H 508.189 -1.339 -2.9789 0
M  V30 5324 H 506.848 -3.1568 -1.86391 0
M  V30 5325 H 506.496 -2.63526 -4.28443 0
M  V30 5326 H 506.196 -4.35757 -3.94195 0
M  V30 5327 H 507.72 -3.86042 -4.73079 0
M  V30 5328 H 509.134 -5.01637 -2.77549 0
M  V30 5329 H 507.531 -5.57655 -2.21677 0
M  V30 5330 H 508.601 -4.7253 -1.08829 0
M  V30 5331 N 509.944 0.496216 -1.49584 0
M  V30 5332 C 511.192 1.24756 -1.58998 0
M  V30 5333 C 511.513 1.92968 -0.280775 0
M  V30 5334 O 510.783 1.82959 0.700198 0
M  V30 5335 H 509.363 0.463471 -0.585836 0
M  V30 5336 H 512.025 0.574678 -1.86235 0
M  V30 5337 H 511.121 2.00895 -2.38847 0
M  V30 5338 N 511.423 1.38739 0.74761 0
M  V30 5339 C 512.653 1.3832 1.53464 0
M  V30 5340 C 513.061 -0.0273464 1.8918 0
M  V30 5341 O 512.404 -1.00588 1.53713 0
M  V30 5342 C 512.466 2.18007 2.85855 0
M  V30 5343 C 512.13 3.66762 2.72644 0
M  V30 5344 C 513.127 4.60124 2.42037 0
M  V30 5345 C 510.812 4.10193 2.89909 0
M  V30 5346 C 512.806 5.94897 2.28859 0
M  V30 5347 C 510.493 5.45045 2.7635 0
M  V30 5348 C 511.491 6.37211 2.45869 0
M  V30 5349 O 511.179 7.69581 2.3238 0
M  V30 5350 H 510.911 0.474718 0.481268 0
M  V30 5351 H 513.465 1.83012 0.932518 0
M  V30 5352 H 511.695 1.68043 3.48279 0
M  V30 5353 H 513.384 2.09921 3.47402 0
M  V30 5354 H 514.15 4.27874 2.28361 0
M  V30 5355 H 510.029 3.38797 3.1263 0
M  V30 5356 H 513.573 6.66802 2.04989 0
M  V30 5357 H 509.47 5.76889 2.89601 0
M  V30 5358 H 510.238 7.80169 2.47546 0
M  V30 5359 N 512.901 -0.976442 1.23707 0
M  V30 5360 C 513.848 -2.06952 1.02174 0
M  V30 5361 C 514.818 -1.65984 -0.0621034 0
M  V30 5362 O 516.003 -1.90584 0.0907906 0
M  V30 5363 C 513.143 -3.39425 0.62327 0
M  V30 5364 C 512.256 -3.9364 1.77966 0
M  V30 5365 C 511.391 -5.14343 1.3276 0
M  V30 5366 C 510.43 -5.60733 2.45449 0
M  V30 5367 N 509.567 -6.72662 2.01172 0
M  V30 5368 H 514.407 -2.24704 1.95734 0
M  V30 5369 H 511.944 -1.10143 0.975034 0
M  V30 5370 H 513.902 -4.15526 0.37332 0
M  V30 5371 H 512.532 -3.21624 -0.275329 0
M  V30 5372 H 511.584 -3.14258 2.14351 0
M  V30 5373 H 512.896 -4.24035 2.62671 0
M  V30 5374 H 512.05 -5.97789 1.03601 0
M  V30 5375 H 510.789 -4.8561 0.450975 0
M  V30 5376 H 509.794 -4.75865 2.75378 0
M  V30 5377 H 511.019 -5.91483 3.33654 0
M  V30 5378 H 508.965 -6.45681 1.15895 0
M  V30 5379 H 508.882 -7.02462 2.79434 0
M  V30 5380 H 510.15 -7.59572 1.75129 0
M  V30 5381 N 514.379 -1.04941 -1.1758 0
M  V30 5382 C 515.628 -0.753124 -1.87112 0
M  V30 5383 C 515.941 0.722507 -1.81767 0
M  V30 5384 O 517.147 1.13265 -2.46746 0
M  V30 5385 C 515.603 -1.29695 -3.35719 0
M  V30 5386 C 515.211 -2.80184 -3.49572 0
M  V30 5387 C 516.955 -1.07759 -4.10595 0
M  V30 5388 C 514.862 -3.2788 -4.92187 0
M  V30 5389 H 513.792 -0.278034 -0.700866 0
M  V30 5390 H 516.443 -1.26637 -1.32798 0
M  V30 5391 H 514.825 -0.711522 -3.89555 0
M  V30 5392 H 515.999 -3.44561 -3.05965 0
M  V30 5393 H 514.314 -3.00632 -2.88113 0
M  V30 5394 H 516.911 -1.40899 -5.15802 0
M  V30 5395 H 517.254 -0.0152302 -4.16297 0
M  V30 5396 H 517.787 -1.62809 -3.62957 0
M  V30 5397 H 514.526 -4.33535 -4.91658 0
M  V30 5398 H 514.046 -2.68245 -5.36475 0
M  V30 5399 H 515.725 -3.22412 -5.60945 0
M  V30 5400 N 515.857 1.33968 -0.830081 0
M  V30 5401 C 517.103 1.98357 -0.422191 0
M  V30 5402 C 517.436 1.65633 1.01387 0
M  V30 5403 O 516.711 0.931648 1.70735 0
M  V30 5404 C 516.994 3.54492 -0.633043 0
M  V30 5405 C 516.847 3.96934 -2.11574 0
M  V30 5406 C 518.166 4.40039 -0.0735584 0
M  V30 5407 H 515.285 0.720544 -0.154871 0
M  V30 5408 H 517.927 1.58749 -1.04397 0
M  V30 5409 H 516.077 3.88361 -0.103775 0
M  V30 5410 H 517.749 3.73363 -2.7092 0
M  V30 5411 H 515.992 3.46984 -2.60354 0
M  V30 5412 H 516.663 5.05651 -2.21406 0
M  V30 5413 H 519.139 4.12764 -0.52585 0
M  V30 5414 H 518.015 5.48327 -0.250841 0
M  V30 5415 H 518.276 4.30124 1.02202 0
M  V30 5416 N 517.335 0.585699 1.46312 0
M  V30 5417 C 518.563 0.0781299 2.06752 0
M  V30 5418 C 518.978 -1.22812 1.43396 0
M  V30 5419 O 518.335 -1.74318 0.540314 0
M  V30 5420 C 518.386 -0.0911927 3.61385 0
M  V30 5421 O 518.107 1.16336 4.22371 0
M  V30 5422 C 519.608 -0.632765 4.38761 0
M  V30 5423 H 516.828 0.0588188 0.668417 0
M  V30 5424 H 519.372 0.807218 1.87894 0
M  V30 5425 H 517.527 -0.770514 3.7966 0
M  V30 5426 H 517.941 0.979082 5.15281 0
M  V30 5427 H 519.415 -0.70041 5.47538 0
M  V30 5428 H 519.892 -1.65039 4.07012 0
M  V30 5429 H 520.498 0.0117856 4.25298 0
M  V30 5430 N 518.813 -1.54241 0.323641 0
M  V30 5431 C 520.061 -2.00174 -0.278359 0
M  V30 5432 C 520.382 -1.2134 -1.52648 0
M  V30 5433 O 519.652 -0.315244 -1.93347 0
M  V30 5434 H 518.232 -0.739463 -0.105845 0
M  V30 5435 H 520.894 -1.89864 0.440204 0
M  V30 5436 H 519.99 -3.07486 -0.5347 0
M  V30 5437 N 520.291 -0.0518155 -1.57515 0
M  V30 5438 C 521.539 0.620595 -1.92336 0
M  V30 5439 C 521.86 1.71345 -0.930907 0
M  V30 5440 O 521.13 1.95885 0.0241341 0
M  V30 5441 H 519.71 0.232226 -0.709986 0
M  V30 5442 H 522.372 -0.104969 -1.94617 0
M  V30 5443 H 521.468 1.05879 -2.93592 0
M  V30 5444 N 521.769 1.56035 0.221574 0
M  V30 5445 C 522.994 1.83476 0.967026 0
M  V30 5446 C 523.419 0.632139 1.7716 0
M  V30 5447 O 522.777 -0.419082 1.7639 0
M  V30 5448 C 522.825 3.08907 1.86034 0
M  V30 5449 O 521.929 2.876 2.95567 0
M  V30 5450 H 521.27 0.604913 0.273817 0
M  V30 5451 H 523.8 2.03247 0.234893 0
M  V30 5452 H 523.81 3.3901 2.27016 0
M  V30 5453 H 522.485 3.96068 1.26898 0
M  V30 5454 H 521.062 2.6873 2.58532 0
M  V30 5455 N 523.247 -0.488276 1.49845 0
M  V30 5456 C 524.524 -1.24959 1.50481 0
M  V30 5457 C 524.904 -2.09735 0.239698 0
M  V30 5458 O 524.252 -2.14865 -0.777524 0
M  V30 5459 C 524.462 -2.0954 2.79095 0
M  V30 5460 C 525.81 -2.68305 3.29086 0
M  V30 5461 O 526.834 -2.19797 2.80299 0
M  V30 5462 O 525.693 -3.56643 4.14087 0
M  V30 5463 H 522.787 -0.566133 0.602845 0
M  V30 5464 H 525.333 -0.501504 1.6212 0
M  V30 5465 H 524.105 -1.46958 3.62656 0
M  V30 5466 H 523.728 -2.91517 2.70377 0
M  V30 5467 N 524.725 -1.39134 -0.740242 0
M  V30 5468 C 525.673 -1.3757 -1.87556 0
M  V30 5469 C 526.667 -0.259593 -1.67399 0
M  V30 5470 O 527.873 -0.429349 -1.74804 0
M  V30 5471 H 524.248 -0.42947 -0.6173 0
M  V30 5472 H 526.219 -2.33345 -1.85991 0
M  V30 5473 C 524.968 -1.23087 -3.25184 0
M  V30 5474 H 524.291 -2.08237 -3.41288 0
M  V30 5475 H 525.731 -1.26049 -4.0483 0
M  V30 5476 C 524.19 0.0611471 -3.36845 0
M  V30 5477 O 524.72 1.03328 -3.88183 0
M  V30 5478 N 522.926 0.122454 -2.90342 0
M  V30 5479 H 522.473 -0.669329 -2.48752 0
M  V30 5480 H 522.431 0.986463 -2.98523 0
M  V30 5481 N 526.204 0.969867 -1.24223 0
M  V30 5482 C 527.154 2.04913 -0.999732 0
M  V30 5483 C 528.138 1.60795 0.0580636 0
M  V30 5484 O 529.33 1.76317 -0.155392 0
M  V30 5485 C 526.459 3.37942 -0.604154 0
M  V30 5486 C 525.545 3.88628 -1.69791 0
M  V30 5487 N 525.936 4.12274 -2.93025 0
M  V30 5488 C 524.234 4.17268 -1.57492 0
M  V30 5489 C 524.935 4.53808 -3.63914 0
M  V30 5490 N 523.911 4.58855 -2.91468 0
M  V30 5491 H 527.713 2.21168 -1.93551 0
M  V30 5492 H 525.227 1.15349 -1.14317 0
M  V30 5493 H 527.224 4.14863 -0.411665 0
M  V30 5494 H 525.884 3.23075 0.324465 0
M  V30 5495 H 526.895 3.99789 -3.29225 0
M  V30 5496 H 523.572 4.11346 -0.714175 0
M  V30 5497 H 524.962 4.80534 -4.69614 0
M  V30 5498 N 527.682 1.05563 1.17022 0
M  V30 5499 C 528.612 0.681026 2.23348 0
M  V30 5500 C 529.593 -0.322983 1.67005 0
M  V30 5501 O 530.778 -0.199746 1.9317 0
M  V30 5502 C 527.908 0.0589053 3.4725 0
M  V30 5503 C 526.862 0.988082 4.16438 0
M  V30 5504 C 526.188 0.229646 5.34207 0
M  V30 5505 C 527.488 2.31388 4.68249 0
M  V30 5506 H 529.182 1.56993 2.54938 0
M  V30 5507 H 526.728 0.756302 1.2254 0
M  V30 5508 H 528.681 -0.214982 4.20851 0
M  V30 5509 H 527.405 -0.864968 3.14938 0
M  V30 5510 H 526.064 1.24659 3.44754 0
M  V30 5511 H 525.712 -0.697111 4.98146 0
M  V30 5512 H 525.412 0.848815 5.81437 0
M  V30 5513 H 526.936 -0.0368694 6.10589 0
M  V30 5514 H 528.35 2.09964 5.33468 0
M  V30 5515 H 526.747 2.88736 5.26072 0
M  V30 5516 H 527.817 2.94982 3.84855 0
M  V30 5517 N 529.16 -1.33526 0.837174 0
M  V30 5518 C 530.409 -1.97098 0.428387 0
M  V30 5519 C 530.722 -1.67062 -1.01734 0
M  V30 5520 O 531.928 -2.24235 -1.53072 0
M  V30 5521 C 530.384 -3.52725 0.715075 0
M  V30 5522 C 529.992 -3.9164 2.17537 0
M  V30 5523 C 531.736 -4.22857 0.373154 0
M  V30 5524 C 529.643 -5.40237 2.40619 0
M  V30 5525 H 528.573 -0.737589 0.156455 0
M  V30 5526 H 531.224 -1.52169 1.02552 0
M  V30 5527 H 529.606 -3.95971 0.0475904 0
M  V30 5528 H 530.78 -3.59456 2.88319 0
M  V30 5529 H 529.095 -3.34485 2.4801 0
M  V30 5530 H 531.692 -5.32133 0.523264 0
M  V30 5531 H 532.035 -4.10647 -0.683708 0
M  V30 5532 H 532.568 -3.85135 0.995801 0
M  V30 5533 H 529.307 -5.57449 3.44864 0
M  V30 5534 H 528.827 -5.73887 1.74396 0
M  V30 5535 H 530.506 -6.07102 2.23688 0
M  V30 5536 N 530.638 -0.59345 -1.46 0
M  V30 5537 C 531.568 0.121192 -2.33185 0
M  V30 5538 C 532.549 0.872977 -1.4599 0
M  V30 5539 O 533.734 0.846321 -1.74789 0
M  V30 5540 C 530.864 1.12844 -3.28456 0
M  V30 5541 C 529.818 0.4908 -4.25177 0
M  V30 5542 C 529.144 1.60529 -5.10034 0
M  V30 5543 C 530.444 -0.578949 -5.19081 0
M  V30 5544 H 532.138 -0.606767 -2.93187 0
M  V30 5545 H 529.684 -0.293242 -1.40983 0
M  V30 5546 H 531.637 1.63684 -3.88311 0
M  V30 5547 H 530.361 1.88681 -2.66584 0
M  V30 5548 H 529.02 0.00339328 -3.666 0
M  V30 5549 H 528.668 2.35359 -4.44539 0
M  V30 5550 H 528.368 1.18422 -5.75543 0
M  V30 5551 H 529.892 2.11623 -5.72755 0
M  V30 5552 H 531.306 -0.155199 -5.7309 0
M  V30 5553 H 529.703 -0.920947 -5.92991 0
M  V30 5554 H 530.773 -1.46109 -4.62364 0
M  V30 5555 N 532.116 1.54067 -0.331816 0
M  V30 5556 C 533.362 2.01012 0.268667 0
M  V30 5557 C 533.695 1.2195 1.51136 0
M  V30 5558 O 532.97 0.303972 1.9211 0
M  V30 5559 C 533.253 3.55158 0.59456 0
M  V30 5560 C 533.106 4.4494 -0.659409 0
M  V30 5561 C 534.425 4.16939 1.4089 0
M  V30 5562 H 531.544 0.730698 0.0961756 0
M  V30 5563 H 534.186 1.84593 -0.450031 0
M  V30 5564 H 532.336 3.6928 1.20685 0
M  V30 5565 H 534.008 4.42675 -1.29756 0
M  V30 5566 H 532.251 4.1428 -1.28665 0
M  V30 5567 H 532.922 5.50643 -0.386804 0
M  V30 5568 H 535.398 4.06443 0.891272 0
M  V30 5569 H 534.274 5.24889 1.60569 0
M  V30 5570 H 534.535 3.70798 2.40752 0
M  V30 5571 N 533.594 0.0601682 1.57485 0
M  V30 5572 C 534.871 -0.651956 1.84415 0
M  V30 5573 C 535.251 -1.88498 0.950361 0
M  V30 5574 O 534.599 -2.28496 0.0136719 0
M  V30 5575 C 534.809 -1.00069 3.34346 0
M  V30 5576 C 536.157 -1.37915 4.01578 0
M  V30 5577 O 537.181 -1.09277 3.39024 0
M  V30 5578 O 536.04 -1.91399 5.11887 0
M  V30 5579 H 533.134 -0.322668 0.761455 0
M  V30 5580 H 535.68 0.0902159 1.6946 0
M  V30 5581 H 534.452 -0.124463 3.91102 0
M  V30 5582 H 534.075 -1.80001 3.54521 0
M  V30 5583 N 535.072 -1.5615 -0.213296 0
M  V30 5584 C 536.002 -1.96109 -1.26742 0
M  V30 5585 C 536.983 -0.830448 -1.48451 0
M  V30 5586 O 538.168 -1.09339 -1.60495 0
M  V30 5587 C 535.298 -2.28492 -2.61551 0
M  V30 5588 C 534.252 -3.44124 -2.54485 0
M  V30 5589 C 533.578 -3.62134 -3.93399 0
M  V30 5590 C 534.878 -4.78855 -2.08556 0
M  V30 5591 H 536.572 -2.84412 -0.935434 0
M  V30 5592 H 534.118 -1.36836 -0.44854 0
M  V30 5593 H 536.071 -2.55039 -3.3546 0
M  V30 5594 H 534.795 -1.37052 -2.96453 0
M  V30 5595 H 533.454 -3.17639 -1.83033 0
M  V30 5596 H 533.102 -2.68055 -4.25623 0
M  V30 5597 H 532.802 -4.39913 -3.89551 0
M  V30 5598 H 534.326 -3.91038 -4.68958 0
M  V30 5599 H 535.74 -5.04552 -2.72213 0
M  V30 5600 H 534.137 -5.59975 -2.1575 0
M  V30 5601 H 535.207 -4.73657 -1.03811 0
M  V30 5602 N 536.55 0.480323 -1.50102 0
M  V30 5603 C 537.966 0.813295 -1.37323 0
M  V30 5604 C 538.166 1.97027 -0.422206 0
M  V30 5605 O 537.222 2.5212 0.138563 0
M  V30 5606 C 538.535 1.13404 -2.78496 0
M  V30 5607 C 540.083 1.24104 -2.87345 0
M  V30 5608 C 540.558 1.59497 -4.29331 0
M  V30 5609 N 542.049 1.66507 -4.32238 0
M  V30 5610 C 542.784 1.95378 -5.39087 0
M  V30 5611 N 542.28 2.22333 -6.56155 0
M  V30 5612 N 544.073 1.96803 -5.26522 0
M  V30 5613 H 536.224 -0.282291 -2.10516 0
M  V30 5614 H 538.487 -0.063752 -0.945854 0
M  V30 5615 H 538.193 0.357064 -3.49883 0
M  V30 5616 H 538.067 2.07251 -3.15162 0
M  V30 5617 H 540.454 2.00871 -2.16183 0
M  V30 5618 H 540.535 0.282593 -2.54234 0
M  V30 5619 H 540.179 0.832736 -5.01027 0
M  V30 5620 H 540.109 2.56477 -4.59921 0
M  V30 5621 H 542.6 1.47753 -3.47818 0
M  V30 5622 H 542.913 2.43611 -7.33399 0
M  V30 5623 H 541.258 2.19745 -6.59346 0
M  V30 5624 H 544.449 1.75235 -4.34062 0
M  V30 5625 H 544.622 2.18969 -6.09883 0
M  V30 5626 N 538.028 1.39524 0.732853 0
M  V30 5627 C 539.253 1.40329 1.52717 0
M  V30 5628 C 539.678 0.000286574 1.881 0
M  V30 5629 O 539.036 -0.987262 1.52062 0
M  V30 5630 C 539.084 2.28464 2.78992 0
M  V30 5631 O 538.188 1.716 3.75003 0
M  V30 5632 H 537.529 0.47778 0.461109 0
M  V30 5633 H 540.059 1.83546 0.903996 0
M  V30 5634 H 540.069 2.43051 3.27705 0
M  V30 5635 H 538.744 3.30425 2.52572 0
M  V30 5636 H 537.321 1.66267 3.33781 0
M  V30 5637 N 539.506 -0.963266 1.24736 0
M  V30 5638 C 540.453 -2.05857 1.04363 0
M  V30 5639 C 541.423 -1.6604 -0.0444951 0
M  V30 5640 O 542.608 -1.90477 0.110999 0
M  V30 5641 C 539.748 -3.38745 0.659235 0
M  V30 5642 C 538.861 -3.9173 1.82131 0
M  V30 5643 C 537.996 -5.12906 1.38208 0
M  V30 5644 C 537.035 -5.58098 2.51382 0
M  V30 5645 N 536.172 -6.7049 2.08295 0
M  V30 5646 H 541.012 -2.22616 1.98107 0
M  V30 5647 H 538.549 -1.09103 0.986661 0
M  V30 5648 H 540.507 -4.15107 0.417371 0
M  V30 5649 H 539.137 -3.21898 -0.241201 0
M  V30 5650 H 538.189 -3.11966 2.17672 0
M  V30 5651 H 539.501 -4.21225 2.67153 0
M  V30 5652 H 538.655 -5.96657 1.09935 0
M  V30 5653 H 537.394 -4.85105 0.502456 0
M  V30 5654 H 536.399 -4.72917 2.80409 0
M  V30 5655 H 537.624 -5.87911 3.39909 0
M  V30 5656 H 535.57 -6.44416 1.22737 0
M  V30 5657 H 535.487 -6.99458 2.86869 0
M  V30 5658 H 536.755 -7.57672 1.83175 0
M  V30 5659 N 540.985 -1.06182 -1.16461 0
M  V30 5660 C 542.233 -0.776326 -1.86595 0
M  V30 5661 C 542.554 0.69921 -1.82033 0
M  V30 5662 O 541.824 1.50579 -1.2531 0
M  V30 5663 H 540.404 -0.284184 -0.690832 0
M  V30 5664 H 543.066 -1.34308 -1.41235 0
M  V30 5665 H 542.162 -1.10022 -2.92064 0
M  V30 5666 N 542.463 1.3308 -0.844243 0
M  V30 5667 C 543.691 2.01808 -0.456203 0
M  V30 5668 C 544.106 1.63498 0.944131 0
M  V30 5669 O 543.463 0.85102 1.61443 0
M  V30 5670 C 543.514 3.56922 -0.573513 0
M  V30 5671 O 543.235 3.93851 -1.91868 0
M  V30 5672 C 544.736 4.42922 -0.183125 0
M  V30 5673 H 541.956 0.646273 -0.180477 0
M  V30 5674 H 544.5 1.69891 -1.1383 0
M  V30 5675 H 542.655 3.87352 0.0607367 0
M  V30 5676 H 543.069 4.88564 -1.90802 0
M  V30 5677 H 544.543 5.51093 -0.316241 0
M  V30 5678 H 545.02 4.30386 0.875477 0
M  V30 5679 H 545.626 4.1786 -0.792027 0
M  V30 5680 N 543.941 0.601185 1.45683 0
M  V30 5681 C 545.218 0.0261659 1.95582 0
M  V30 5682 C 545.598 -1.4399 1.5437 0
M  V30 5683 O 544.946 -2.13919 0.80318 0
M  V30 5684 C 545.156 0.217557 3.48321 0
M  V30 5685 C 546.504 0.0950076 4.24494 0
M  V30 5686 O 547.528 0.147345 3.55895 0
M  V30 5687 O 546.387 -0.025261 5.46494 0
M  V30 5688 H 543.481 -0.0393688 0.826062 0
M  V30 5689 H 546.027 0.670798 1.55879 0
M  V30 5690 H 544.799 1.23601 3.71266 0
M  V30 5691 H 544.422 -0.46264 3.94899 0
M  V30 5692 N 545.419 -1.53889 0.339982 0
M  V30 5693 C 546.667 -2.00458 -0.257112 0
M  V30 5694 C 546.988 -1.22953 -1.51353 0
M  V30 5695 O 546.258 -0.335734 -1.93002 0
M  V30 5696 H 544.838 -0.740544 -0.0979965 0
M  V30 5697 H 547.5 -1.89386 0.460317 0
M  V30 5698 H 546.596 -3.08035 -0.502057 0
M  V30 5699 N 546.897 -0.0685191 -1.57451 0
M  V30 5700 C 548.145 0.60016 -1.92983 0
M  V30 5701 C 548.466 1.70348 -0.949028 0
M  V30 5702 O 547.736 1.959 0.00335647 0
M  V30 5703 H 546.316 0.224682 -0.712409 0
M  V30 5704 H 548.978 -0.125605 -1.94495 0
M  V30 5705 H 548.074 1.02759 -2.94698 0
M  V30 5706 N 548.375 1.56261 0.205012 0
M  V30 5707 C 549.791 1.49623 0.555433 0
M  V30 5708 C 549.991 0.766719 1.86343 0
M  V30 5709 O 549.047 0.313158 2.50551 0
M  V30 5710 C 550.36 2.94253 0.619347 0
M  V30 5711 C 551.908 3.04868 0.708855 0
M  V30 5712 C 552.383 4.50888 0.803969 0
M  V30 5713 N 553.874 4.54999 0.867758 0
M  V30 5714 C 554.609 5.65284 0.96135 0
M  V30 5715 N 554.105 6.85282 1.01786 0
M  V30 5716 N 555.898 5.53174 0.997771 0
M  V30 5717 H 548.049 2.0211 -0.653094 0
M  V30 5718 H 550.312 0.919333 -0.231366 0
M  V30 5719 H 550.018 3.50643 -0.272458 0
M  V30 5720 H 549.892 3.47063 1.47741 0
M  V30 5721 H 552.279 2.48532 1.5911 0
M  V30 5722 H 552.36 2.55199 -0.175205 0
M  V30 5723 H 552.004 5.07846 -0.0738798 0
M  V30 5724 H 551.934 4.98279 1.70369 0
M  V30 5725 H 554.425 3.68588 0.833735 0
M  V30 5726 H 554.738 7.65081 1.08951 0
M  V30 5727 H 553.083 6.8796 0.986706 0
M  V30 5728 H 556.274 4.5835 0.950392 0
M  V30 5729 H 556.447 6.39151 1.06725 0
M  V30 5730 N 549.853 -0.472356 1.50355 0
M  V30 5731 C 550.816 -1.5529 1.68576 0
M  V30 5732 C 551.816 -1.50863 0.556511 0
M  V30 5733 O 553.006 -1.53505 0.823516 0
M  V30 5734 C 550.138 -2.94921 1.70981 0
M  V30 5735 H 551.331 -1.40451 2.64978 0
M  V30 5736 H 548.884 -0.698645 1.39816 0
M  V30 5737 H 549.619 -3.15204 0.762675 0
M  V30 5738 H 549.404 -2.99541 2.53017 0
M  V30 5739 H 550.894 -3.73372 1.87037 0
M  V30 5740 N 551.331 -1.39911 -0.725443 0
M  V30 5741 C 552.241 -1.41688 -1.8698 0
M  V30 5742 C 553.257 -0.310579 -1.71206 0
M  V30 5743 O 554.433 -0.55359 -1.93642 0
M  V30 5744 C 551.498 -1.26811 -3.22676 0
M  V30 5745 C 550.559 -2.47497 -3.50776 0
M  V30 5746 C 549.792 -2.3332 -4.79997 0
M  V30 5747 O 550.015 -1.34175 -5.54394 0
M  V30 5748 O 548.949 -3.22498 -5.08211 0
M  V30 5749 H 552.775 -2.38171 -1.88436 0
M  V30 5750 H 550.36 -1.21128 -0.874548 0
M  V30 5751 H 552.242 -1.20684 -4.03749 0
M  V30 5752 H 550.917 -0.334289 -3.21969 0
M  V30 5753 H 549.824 -2.59201 -2.69751 0
M  V30 5754 H 551.157 -3.39606 -3.5627 0
M  V30 5755 N 552.809 0.956637 -1.25245 0
M  V30 5756 C 553.756 2.053 -1.05454 0
M  V30 5757 C 554.726 1.66062 0.0356889 0
M  V30 5758 O 555.911 1.90415 -0.121099 0
M  V30 5759 C 553.051 3.38391 -0.677191 0
M  V30 5760 C 552.164 3.90758 -1.84206 0
M  V30 5761 C 551.299 5.12165 -1.40926 0
M  V30 5762 C 550.338 5.56757 -2.54338 0
M  V30 5763 N 549.475 6.69376 -2.11848 0
M  V30 5764 H 554.315 2.21562 -1.99284 0
M  V30 5765 H 551.852 1.08578 -0.992434 0
M  V30 5766 H 553.81 4.1488 -0.43938 0
M  V30 5767 H 552.44 3.22021 0.224127 0
M  V30 5768 H 551.492 3.10808 -2.19323 0
M  V30 5769 H 552.804 4.19802 -2.69383 0
M  V30 5770 H 551.958 5.96065 -1.13098 0
M  V30 5771 H 550.697 4.84832 -0.528175 0
M  V30 5772 H 549.702 4.71423 -2.82913 0
M  V30 5773 H 550.927 5.861 -3.43022 0
M  V30 5774 H 548.873 6.43756 -1.26153 0
M  V30 5775 H 548.79 6.97927 -2.90574 0
M  V30 5776 H 550.058 7.5669 -1.87191 0
M  V30 5777 N 554.287 1.06798 1.15896 0
M  V30 5778 C 555.533 0.788934 1.86825 0
M  V30 5779 C 555.866 -0.683084 1.8179 0
M  V30 5780 O 555.141 -1.50086 1.23711 0
M  V30 5781 C 555.424 1.29065 3.36176 0
M  V30 5782 C 555.277 2.8268 3.49874 0
M  V30 5783 C 556.596 0.902655 4.30744 0
M  V30 5784 H 553.715 0.288066 0.678371 0
M  V30 5785 H 556.357 1.32479 1.36195 0
M  V30 5786 H 554.507 0.834806 3.79425 0
M  V30 5787 H 556.179 3.36511 3.15528 0
M  V30 5788 H 554.422 3.21157 2.91617 0
M  V30 5789 H 555.093 3.12852 4.54783 0
M  V30 5790 H 557.569 1.29535 3.95424 0
M  V30 5791 H 556.445 1.28111 5.3374 0
M  V30 5792 H 556.706 -0.191951 4.41683 0
M  V30 5793 N 555.766 -1.3263 0.851289 0
M  V30 5794 C 556.696 -2.31449 0.308771 0
M  V30 5795 C 557.677 -1.59531 -0.590255 0
M  V30 5796 O 558.862 -1.87351 -0.511205 0
M  V30 5797 C 555.992 -3.43586 -0.506548 0
M  V30 5798 C 554.946 -4.26963 0.297753 0
M  V30 5799 C 554.272 -5.30831 -0.642094 0
M  V30 5800 C 555.572 -4.99643 1.52166 0
M  V30 5801 H 557.266 -2.77074 1.13447 0
M  V30 5802 H 554.812 -1.33207 0.546971 0
M  V30 5803 H 556.765 -4.11754 -0.896474 0
M  V30 5804 H 555.489 -2.96681 -1.36558 0
M  V30 5805 H 554.148 -3.60437 0.669391 0
M  V30 5806 H 553.796 -4.8018 -1.49788 0
M  V30 5807 H 553.496 -5.87501 -0.107968 0
M  V30 5808 H 555.02 -6.01862 -1.02927 0
M  V30 5809 H 556.434 -5.6051 1.20421 0
M  V30 5810 H 554.831 -5.66022 1.99347 0
M  V30 5811 H 555.901 -4.27701 2.28474 0
M  V30 5812 N 557.244 -0.608902 -1.45362 0
M  V30 5813 C 558.154 0.110969 -2.34337 0
M  V30 5814 C 559.17 0.859007 -1.51318 0
M  V30 5815 O 560.346 0.816296 -1.84116 0
M  V30 5816 C 557.411 1.09494 -3.28956 0
M  V30 5817 C 556.472 0.348718 -4.27881 0
M  V30 5818 C 555.705 1.28582 -5.17979 0
M  V30 5819 O 555.928 2.52369 -5.11533 0
M  V30 5820 O 554.862 0.782172 -5.96796 0
M  V30 5821 H 558.688 -0.620258 -2.97299 0
M  V30 5822 H 556.273 -0.36916 -1.44767 0
M  V30 5823 H 558.155 1.66163 -3.87257 0
M  V30 5824 H 556.83 1.80717 -2.68557 0
M  V30 5825 H 555.737 -0.260465 -3.73192 0
M  V30 5826 H 557.07 -0.323049 -4.91139 0
M  V30 5827 N 558.722 1.53707 -0.348139 0
M  V30 5828 C 559.685 2.23812 0.494058 0
M  V30 5829 C 560.685 1.23989 1.02388 0
M  V30 5830 O 561.875 1.48395 0.912396 0
M  V30 5831 C 559.007 2.96133 1.68872 0
M  V30 5832 H 560.2 2.99663 -0.119141 0
M  V30 5833 H 557.753 1.55983 -0.0995539 0
M  V30 5834 H 558.488 2.24481 2.34049 0
M  V30 5835 H 558.273 3.69357 1.31596 0
M  V30 5836 H 559.763 3.49475 2.28597 0
M  V30 5837 N 560.2 0.0768682 1.57412 0
M  V30 5838 C 561.44 -0.594676 1.95558 0
M  V30 5839 C 561.804 -1.66469 0.956658 0
M  V30 5840 O 563.005 -2.39215 1.22595 0
M  V30 5841 C 561.276 -1.15206 3.38323 0
M  V30 5842 S 562.835 -1.83803 3.9845 0
M  V30 5843 H 559.653 -0.194579 0.683857 0
M  V30 5844 H 562.255 0.151933 1.94909 0
M  V30 5845 H 560.959 -0.36153 4.08805 0
M  V30 5846 H 560.49 -1.93491 3.42527 0
M  V30 5847 H 562.505 -3.12087 3.85767 0
M  V30 5848 N 561.678 -1.56367 -0.196722 0
M  V30 5849 C 562.903 -1.84991 -0.937714 0
M  V30 5850 C 563.328 -0.660244 -1.76132 0
M  V30 5851 O 562.686 0.390967 -1.77034 0
M  V30 5852 C 562.734 -3.11828 -1.81096 0
M  V30 5853 O 561.838 -2.92266 -2.90955 0
M  V30 5854 H 561.179 -0.609193 -0.264159 0
M  V30 5855 H 563.709 -2.03595 -0.202529 0
M  V30 5856 H 563.719 -3.42579 -2.21594 0
M  V30 5857 H 562.394 -3.98037 -1.2058 0
M  V30 5858 H 560.971 -2.72809 -2.54224 0
M  V30 5859 N 563.156 0.464375 -1.50603 0
M  V30 5860 C 564.405 1.21277 -1.61167 0
M  V30 5861 C 564.718 1.92953 -0.320704 0
M  V30 5862 O 565.924 2.69778 -0.30534 0
M  V30 5863 C 564.38 2.20403 -2.84518 0
M  V30 5864 C 563.988 1.54499 -4.20516 0
M  V30 5865 C 565.732 2.95843 -3.0443 0
M  V30 5866 C 563.639 2.51951 -5.35047 0
M  V30 5867 H 562.569 0.456367 -0.600204 0
M  V30 5868 H 565.22 0.48254 -1.77042 0
M  V30 5869 H 563.602 2.96746 -2.62217 0
M  V30 5870 H 564.776 0.83899 -4.53098 0
M  V30 5871 H 563.091 0.913152 -4.06264 0
M  V30 5872 H 565.688 3.6879 -3.87167 0
M  V30 5873 H 566.031 3.55622 -2.16423 0
M  V30 5874 H 566.564 2.26611 -3.26944 0
M  V30 5875 H 563.303 1.96901 -6.25228 0
M  V30 5876 H 562.823 3.20683 -5.06875 0
M  V30 5877 H 564.502 3.13643 -5.65895 0
M  V30 5878 N 564.634 1.40294 0.718013 0
M  V30 5879 C 565.597 1.4012 1.81381 0
M  V30 5880 C 566.597 0.295405 1.58063 0
M  V30 5881 O 567.787 0.554187 1.6515 0
M  V30 5882 C 564.919 1.19056 3.19435 0
M  V30 5883 H 566.112 2.37645 1.82933 0
M  V30 5884 H 563.665 1.26107 0.923405 0
M  V30 5885 H 564.4 0.222809 3.23534 0
M  V30 5886 H 564.185 1.99152 3.37758 0
M  V30 5887 H 565.675 1.21716 3.99468 0
M  V30 5888 N 566.112 -0.949982 1.2575 0
M  V30 5889 C 567.352 -1.70994 1.11984 0
M  V30 5890 C 567.716 -1.89095 -0.332746 0
M  V30 5891 O 568.917 -2.62192 -0.592331 0
M  V30 5892 C 567.188 -3.05286 1.85837 0
M  V30 5893 S 568.747 -3.96477 1.88019 0
M  V30 5894 H 565.565 -0.587689 0.400178 0
M  V30 5895 H 568.167 -1.13271 1.59342 0
M  V30 5896 H 566.871 -2.89785 2.90608 0
M  V30 5897 H 566.402 -3.68069 1.38885 0
M  V30 5898 H 568.417 -4.86814 0.96057 0
M  V30 5899 N 567.59 -1.07411 -1.15328 0
M  V30 5900 C 568.538 -0.689316 -2.22151 0
M  V30 5901 C 569.532 0.300156 -1.6672 0
M  V30 5902 O 570.738 0.163804 -1.79253 0
M  V30 5903 H 567.113 -0.204834 -0.723566 0
M  V30 5904 H 569.084 -1.59988 -2.51886 0
M  V30 5905 C 567.833 -0.103848 -3.47545 0
M  V30 5906 H 567.156 -0.856367 -3.90521 0
M  V30 5907 H 568.596 0.127725 -4.23808 0
M  V30 5908 C 567.055 1.15563 -3.1646 0
M  V30 5909 O 567.585 2.242 -3.33312 0
M  V30 5910 N 565.791 1.06203 -2.70498 0
M  V30 5911 H 565.338 0.177933 -2.56985 0
M  V30 5912 H 565.296 1.90553 -2.50074 0
M  V30 5913 N 569.068 1.32177 -0.85831 0
M  V30 5914 C 570.015 2.28794 -0.303607 0
M  V30 5915 C 570.985 1.55213 0.591453 0
M  V30 5916 O 572.17 1.83418 0.525585 0
M  V30 5917 C 569.31 3.41475 0.49889 0
M  V30 5918 C 568.423 4.2993 -0.422373 0
M  V30 5919 C 567.558 5.29743 0.393111 0
M  V30 5920 C 566.597 6.09842 -0.525317 0
M  V30 5921 N 565.734 7.01643 0.253208 0
M  V30 5922 H 570.574 2.75631 -1.13276 0
M  V30 5923 H 568.111 1.35606 -0.570026 0
M  V30 5924 H 570.069 4.05531 0.979826 0
M  V30 5925 H 568.699 2.95779 1.29284 0
M  V30 5926 H 567.751 3.66422 -1.02171 0
M  V30 5927 H 569.063 4.85899 -1.12709 0
M  V30 5928 H 568.217 5.9942 0.937056 0
M  V30 5929 H 566.956 4.744 1.13117 0
M  V30 5930 H 565.961 5.39066 -1.08112 0
M  V30 5931 H 567.186 6.6727 -1.26205 0
M  V30 5932 H 565.132 6.48725 0.974295 0
M  V30 5933 H 565.049 7.54981 -0.392398 0
M  V30 5934 H 566.317 7.756 0.778761 0
M  V30 5935 N 570.547 0.616602 1.45037 0
M  V30 5936 C 571.495 -0.109318 2.32343 0
M  V30 5937 C 572.489 -0.850543 1.465 0
M  V30 5938 O 573.695 -0.765088 1.62931 0
M  V30 5939 H 570.07 -0.0541091 0.750051 0
M  V30 5940 H 572.041 0.645326 2.91338 0
M  V30 5941 C 570.79 -1.0872 3.30266 0
M  V30 5942 H 570.113 -0.526267 3.96321 0
M  V30 5943 H 571.553 -1.56489 3.94065 0
M  V30 5944 C 570.012 -2.16525 2.58105 0
M  V30 5945 O 570.542 -3.244 2.36913 0
M  V30 5946 N 568.748 -1.92057 2.18088 0
M  V30 5947 H 568.295 -1.04337 2.35524 0
M  V30 5948 H 568.253 -2.64391 1.70131 0
M  V30 5949 N 572.025 -1.5352 0.356285 0
M  V30 5950 C 573.253 -2.05534 -0.237328 0
M  V30 5951 C 573.668 -1.23043 -1.43199 0
M  V30 5952 O 573.025 -0.268821 -1.80509 0
M  V30 5953 C 573.076 -3.55791 -0.639933 0
M  V30 5954 O 572.797 -4.35154 0.507233 0
M  V30 5955 C 574.298 -4.24027 -1.29292 0
M  V30 5956 H 571.518 -0.669585 -0.0435572 0
M  V30 5957 H 574.062 -1.97988 0.511963 0
M  V30 5958 H 572.217 -3.63518 -1.33915 0
M  V30 5959 H 572.631 -5.24178 0.18375 0
M  V30 5960 H 574.105 -5.30509 -1.52527 0
M  V30 5961 H 574.582 -3.77166 -2.25039 0
M  V30 5962 H 575.188 -4.20527 -0.63539 0
M  V30 5963 N 573.503 -0.0852151 -1.57369 0
M  V30 5964 C 574.743 0.584297 -1.95871 0
M  V30 5965 C 575.107 1.6596 -0.965473 0
M  V30 5966 O 576.308 2.38561 -1.23862 0
M  V30 5967 C 574.579 1.13411 -3.38929 0
M  V30 5968 S 576.138 1.81687 -3.99419 0
M  V30 5969 H 572.956 0.19095 -0.684879 0
M  V30 5970 H 575.558 -0.162267 -1.94825 0
M  V30 5971 H 574.262 0.339845 -4.0899 0
M  V30 5972 H 573.793 1.91672 -3.43548 0
M  V30 5973 H 575.808 3.10037 -3.87417 0
M  V30 5974 N 574.981 1.5647 0.188427 0
M  V30 5975 C 576.392 1.70864 0.752494 0
M  V30 5976 C 576.743 0.692905 1.83557 0
M  V30 5977 O 575.868 -0.149307 2.15884 0
M  V30 5978 C 576.463 3.09789 1.37173 0
M  V30 5979 C 575.022 3.25925 1.88281 0
M  V30 5980 C 574.169 2.66817 0.755259 0
M  V30 5981 H 577.12 1.58657 -0.0367408 0
M  V30 5982 H 577.141 3.07489 2.24122 0
M  V30 5983 H 576.653 3.83693 0.583219 0
M  V30 5984 H 574.754 2.56948 2.6983 0
M  V30 5985 H 574.867 4.33498 2.04001 0
M  V30 5986 H 573.231 2.2617 1.17128 0
M  V30 5987 H 574.014 3.43294 -0.0211237 0
M  V30 5988 N 576.459 -0.456382 1.50847 0
M  V30 5989 C 577.707 -1.20497 1.62249 0
M  V30 5990 C 578.028 -1.92156 0.331839 0
M  V30 5991 O 577.298 -1.84751 -0.651443 0
M  V30 5992 H 575.878 -0.447775 0.597918 0
M  V30 5993 H 578.54 -0.525099 1.87693 0
M  V30 5994 H 577.636 -1.94492 2.44089 0
M  V30 5995 N 577.937 -1.40673 -0.710563 0
M  V30 5996 C 579.214 -1.29718 -1.46398 0
M  V30 5997 C 579.594 0.082177 -2.1094 0
M  V30 5998 O 578.942 1.09536 -2.00534 0
M  V30 5999 C 579.152 -2.43967 -2.49562 0
M  V30 6000 C 580.5 -2.84436 -3.15248 0
M  V30 6001 O 581.524 -2.43597 -2.59883 0
M  V30 6002 O 580.383 -3.55008 -4.1549 0
M  V30 6003 H 577.477 -0.509697 -0.651258 0
M  V30 6004 H 580.023 -1.52603 -0.742312 0
M  V30 6005 H 578.795 -3.36076 -2.0042 0
M  V30 6006 H 578.418 -2.22879 -3.29258 0
M  V30 6007 N 579.415 0.9433 -1.26252 0
M  V30 6008 C 580.831 1.21644 -1.03319 0
M  V30 6009 C 581.031 2.0003 0.242983 0
M  V30 6010 O 580.087 2.33838 0.952688 0
M  V30 6011 C 581.4 1.97978 -2.2633 0
M  V30 6012 C 582.948 2.10978 -2.31209 0
M  V30 6013 C 583.423 2.90713 -3.53907 0
M  V30 6014 N 584.914 2.98287 -3.54371 0
M  V30 6015 C 585.649 3.60406 -4.45976 0
M  V30 6016 N 585.145 4.24043 -5.47868 0
M  V30 6017 N 586.938 3.57658 -4.33633 0
M  V30 6018 H 579.089 0.419221 -2.08222 0
M  V30 6019 H 581.352 0.247995 -0.914988 0
M  V30 6020 H 581.058 1.47788 -3.19142 0
M  V30 6021 H 580.932 2.9865 -2.30408 0
M  V30 6022 H 583.319 2.6036 -1.38913 0
M  V30 6023 H 583.4 1.09575 -2.31143 0
M  V30 6024 H 583.044 2.42018 -4.46531 0
M  V30 6025 H 582.974 3.92367 -3.5122 0
M  V30 6026 H 585.465 2.53044 -2.80673 0
M  V30 6027 H 585.778 4.69334 -6.13959 0
M  V30 6028 H 584.123 4.22637 -5.51728 0
M  V30 6029 H 587.314 3.07134 -3.53251 0
M  V30 6030 H 587.487 4.05782 -5.05218 0
M  V30 6031 N 580.893 1.08022 1.14757 0
M  V30 6032 C 582.118 0.82895 1.90114 0
M  V30 6033 C 582.543 -0.612772 1.77839 0
M  V30 6034 O 581.901 -1.42895 1.11583 0
M  V30 6035 C 581.949 1.25062 3.38219 0
M  V30 6036 O 581.053 0.400119 4.10454 0
M  V30 6037 H 580.394 0.301412 0.591648 0
M  V30 6038 H 582.924 1.44062 1.45284 0
M  V30 6039 H 582.934 1.22977 3.89025 0
M  V30 6040 H 581.609 2.30067 3.46471 0
M  V30 6041 H 580.186 0.484052 3.69745 0
M  V30 6042 N 582.371 -1.3172 0.865308 0
M  V30 6043 C 583.334 -2.26918 0.322627 0
M  V30 6044 C 584.334 -1.52031 -0.523751 0
M  V30 6045 O 585.524 -1.70973 -0.333727 0
M  V30 6046 C 582.656 -3.36558 -0.542338 0
M  V30 6047 H 583.849 -2.76432 1.16298 0
M  V30 6048 H 581.402 -1.42573 0.640512 0
M  V30 6049 H 582.137 -2.92329 -1.40407 0
M  V30 6050 H 581.922 -3.92048 0.0636395 0
M  V30 6051 H 583.412 -4.07465 -0.91446 0
M  V30 6052 N 583.85 -0.624285 -1.44708 0
M  V30 6053 C 584.779 0.0717025 -2.3339 0
M  V30 6054 C 585.76 0.841814 -1.47809 0
M  V30 6055 O 586.946 0.809056 -1.76544 0
M  V30 6056 C 584.076 1.05852 -3.30776 0
M  V30 6057 C 583.029 0.400503 -4.26122 0
M  V30 6058 C 582.356 1.49674 -5.13324 0
M  V30 6059 C 583.656 -0.688924 -5.17737 0
M  V30 6060 H 585.35 -0.668819 -2.91834 0
M  V30 6061 H 582.896 -0.32308 -1.40329 0
M  V30 6062 H 584.849 1.5541 -3.91696 0
M  V30 6063 H 583.572 1.82984 -2.70526 0
M  V30 6064 H 582.231 -0.0743687 -3.66525 0
M  V30 6065 H 581.88 2.25877 -4.49431 0
M  V30 6066 H 581.58 1.06188 -5.77926 0
M  V30 6067 H 583.104 1.99427 -5.77115 0
M  V30 6068 H 584.518 -0.276724 -5.72632 0
M  V30 6069 H 582.915 -1.04652 -5.90904 0
M  V30 6070 H 583.985 -1.55884 -4.5916 0
M  V30 6071 N 585.328 1.53329 -0.364422 0
M  V30 6072 C 586.744 1.59594 -0.0133165 0
M  V30 6073 C 586.944 1.37959 1.46865 0
M  V30 6074 O 586 1.18418 2.2301 0
M  V30 6075 C 587.313 2.97032 -0.468213 0
M  V30 6076 C 588.861 3.10138 -0.422334 0
M  V30 6077 C 589.336 4.49986 -0.853024 0
M  V30 6078 N 590.827 4.56098 -0.808037 0
M  V30 6079 C 591.562 5.62495 -1.11299 0
M  V30 6080 N 591.058 6.7665 -1.48717 0
M  V30 6081 N 592.851 5.52473 -1.03586 0
M  V30 6082 H 585.002 1.65644 -1.32951 0
M  V30 6083 H 587.265 0.77684 -0.543345 0
M  V30 6084 H 586.971 3.18 -1.5023 0
M  V30 6085 H 586.845 3.76918 0.145775 0
M  V30 6086 H 589.232 2.88881 0.602622 0
M  V30 6087 H 589.313 2.32263 -1.0718 0
M  V30 6088 H 588.957 4.7198 -1.87609 0
M  V30 6089 H 588.887 5.26289 -0.180819 0
M  V30 6090 H 591.378 3.74131 -0.532361 0
M  V30 6091 H 591.691 7.53776 -1.70415 0
M  V30 6092 H 590.036 6.78044 -1.52581 0
M  V30 6093 H 593.227 4.6217 -0.742736 0
M  V30 6094 H 593.4 6.35295 -1.27686 0
M  V30 6095 N 586.806 0.0935595 1.57322 0
M  V30 6096 C 588.217 -0.435807 1.81542 0
M  V30 6097 C 588.568 -1.68263 1.00907 0
M  V30 6098 O 587.693 -2.15087 0.237983 0
M  V30 6099 C 588.288 -0.797436 3.29282 0
M  V30 6100 C 586.847 -1.27155 3.54272 0
M  V30 6101 C 585.994 -0.267455 2.76007 0
M  V30 6102 H 588.945 0.31902 1.5546 0
M  V30 6103 H 588.966 -1.6571 3.42521 0
M  V30 6104 H 588.478 0.110206 3.87943 0
M  V30 6105 H 586.579 -2.19696 3.00939 0
M  V30 6106 H 586.692 -1.23445 4.62923 0
M  V30 6107 H 585.056 -0.749282 2.43429 0
M  V30 6108 H 585.839 0.632839 3.37417 0
M  V30 6109 N 588.284 -1.56567 -0.180126 0
M  V30 6110 C 589.509 -1.85975 -0.918041 0
M  V30 6111 C 589.934 -0.678888 -1.75422 0
M  V30 6112 O 589.292 0.372168 -1.77439 0
M  V30 6113 C 589.34 -3.13731 -1.77779 0
M  V30 6114 O 588.444 -2.95335 -2.87838 0
M  V30 6115 H 587.785 -0.61196 -0.257683 0
M  V30 6116 H 590.315 -2.03798 -0.180923 0
M  V30 6117 H 590.325 -3.4491 -2.17948 0
M  V30 6118 H 589 -3.99293 -1.16352 0
M  V30 6119 H 587.577 -2.7549 -2.51316 0
M  V30 6120 N 589.762 0.448376 -1.51087 0
M  V30 6121 C 591.01 1.19635 -1.62886 0
M  V30 6122 C 591.331 1.91977 -0.342024 0
M  V30 6123 O 590.601 1.85094 0.641636 0
M  V30 6124 H 589.181 0.444598 -0.600285 0
M  V30 6125 H 591.843 0.515138 -1.87969 0
M  V30 6126 H 590.939 1.93194 -2.45117 0
M  V30 6127 N 591.24 1.41047 0.703093 0
M  V30 6128 C 592.17 1.45067 1.82969 0
M  V30 6129 C 593.151 0.31016 1.67248 0
M  V30 6130 O 594.336 0.520548 1.87093 0
M  V30 6131 C 591.466 1.32478 3.2104 0
M  V30 6132 C 590.42 2.44262 3.51454 0
M  V30 6133 C 589.746 2.16742 4.88801 0
M  V30 6134 C 591.046 3.86606 3.51189 0
M  V30 6135 H 592.74 2.39353 1.79863 0
M  V30 6136 H 590.286 1.15206 0.863919 0
M  V30 6137 H 592.239 1.33904 3.99559 0
M  V30 6138 H 590.963 0.346735 3.24754 0
M  V30 6139 H 589.622 2.42107 2.75282 0
M  V30 6140 H 589.27 1.17299 4.89132 0
M  V30 6141 H 588.97 2.91643 5.10116 0
M  V30 6142 H 590.494 2.19872 5.69639 0
M  V30 6143 H 591.908 3.90517 4.19725 0
M  V30 6144 H 590.305 4.61128 3.84033 0
M  V30 6145 H 591.375 4.15296 2.50315 0
M  V30 6146 N 592.718 -0.936591 1.26751 0
M  V30 6147 C 594.134 -1.21095 1.03963 0
M  V30 6148 C 594.334 -2.00156 -0.232372 0
M  V30 6149 O 593.39 -2.3434 -0.940274 0
M  V30 6150 C 594.703 -1.96775 2.27377 0
M  V30 6151 C 596.251 -2.09749 2.32324 0
M  V30 6152 C 596.726 -2.88832 3.55443 0
M  V30 6153 N 598.217 -2.96404 3.55948 0
M  V30 6154 C 598.952 -3.58036 4.47881 0
M  V30 6155 N 598.448 -4.21132 5.50109 0
M  V30 6156 N 600.241 -3.55353 4.35523 0
M  V30 6157 H 592.392 -0.408173 2.08441 0
M  V30 6158 H 594.655 -0.243139 0.91629 0
M  V30 6159 H 594.361 -1.46094 3.19921 0
M  V30 6160 H 594.235 -2.97424 2.31989 0
M  V30 6161 H 596.622 -2.5962 1.40291 0
M  V30 6162 H 596.703 -1.08347 2.31721 0
M  V30 6163 H 596.347 -2.39647 4.47808 0
M  V30 6164 H 596.277 -3.90499 3.53296 0
M  V30 6165 H 598.768 -2.51552 2.82011 0
M  V30 6166 H 599.081 -4.66071 6.16439 0
M  V30 6167 H 597.426 -4.19705 5.53961 0
M  V30 6168 H 600.617 -3.05256 3.54875 0
M  V30 6169 H 600.79 -4.03097 5.07363 0
M  V30 6170 N 594.196 -1.08629 -1.14182 0
M  V30 6171 C 595.126 -0.740003 -2.21464 0
M  V30 6172 C 596.107 0.278591 -1.67803 0
M  V30 6173 O 597.292 0.148461 -1.93632 0
M  V30 6174 C 594.422 -0.150952 -3.46972 0
M  V30 6175 C 593.376 -1.09815 -4.13672 0
M  V30 6176 C 592.702 -0.3712 -5.3341 0
M  V30 6177 C 594.002 -2.43722 -4.61949 0
M  V30 6178 H 595.696 -1.63697 -2.50686 0
M  V30 6179 H 593.242 -0.788526 -1.20492 0
M  V30 6180 H 595.195 0.103325 -4.21273 0
M  V30 6181 H 593.919 0.781164 -3.1712 0
M  V30 6182 H 592.578 -1.33756 -3.41328 0
M  V30 6183 H 592.226 0.564792 -4.99819 0
M  V30 6184 H 591.926 -1.00267 -5.78982 0
M  V30 6185 H 593.45 -0.12503 -6.10472 0
M  V30 6186 H 594.864 -2.24034 -5.27714 0
M  V30 6187 H 593.261 -3.02582 -5.18232 0
M  V30 6188 H 594.331 -3.05082 -3.76899 0
M  V30 6189 N 595.674 1.31259 -0.872281 0
M  V30 6190 C 596.922 1.96233 -0.483409 0
M  V30 6191 C 597.243 1.69276 0.968012 0
M  V30 6192 O 596.513 1.00943 1.67891 0
M  V30 6193 H 595.093 0.726025 -0.175774 0
M  V30 6194 H 597.755 1.60024 -1.11258 0
M  V30 6195 H 596.851 3.05403 -0.643075 0
M  V30 6196 N 597.152 0.631951 1.44375 0
M  V30 6197 C 598.38 0.143867 2.06399 0
M  V30 6198 C 598.795 -1.18188 1.47231 0
M  V30 6199 O 598.152 -1.72511 0.595498 0
M  V30 6200 C 598.203 0.0238253 3.61492 0
M  V30 6201 O 597.924 1.29715 4.18456 0
M  V30 6202 C 599.425 -0.492856 4.40552 0
M  V30 6203 H 596.645 0.0800542 0.666207 0
M  V30 6204 H 599.189 0.866586 1.85231 0
M  V30 6205 H 597.344 -0.649338 3.81919 0
M  V30 6206 H 597.758 1.14252 5.11905 0
M  V30 6207 H 599.232 -0.525861 5.49489 0
M  V30 6208 H 599.709 -1.52006 4.12057 0
M  V30 6209 H 600.315 0.147085 4.25046 0
M  V30 6210 N 598.631 -1.53133 0.372548 0
M  V30 6211 C 600.042 -1.86404 -0.105155 0
M  V30 6212 C 600.393 -1.29289 -1.47576 0
M  V30 6213 O 599.518 -0.617646 -2.07398 0
M  V30 6214 C 600.113 -3.38223 -0.197588 0
M  V30 6215 C 598.672 -3.71266 -0.619556 0
M  V30 6216 C 597.819 -2.76353 0.228919 0
M  V30 6217 H 600.77 -1.47282 0.591077 0
M  V30 6218 H 600.791 -3.66577 -1.01987 0
M  V30 6219 H 600.303 -3.79763 0.800099 0
M  V30 6220 H 598.404 -3.35287 -1.62522 0
M  V30 6221 H 598.517 -4.77515 -0.389332 0
M  V30 6222 H 596.881 -2.52888 -0.303271 0
M  V30 6223 H 597.664 -3.20728 1.22428 0
M  V30 6224 N 600.109 -0.101901 -1.5727 0
M  V30 6225 C 601.072 0.840129 -2.13247 0
M  V30 6226 C 602.072 1.20625 -1.06331 0
M  V30 6227 O 603.262 1.13456 -1.32186 0
M  V30 6228 C 600.394 2.13372 -2.65867 0
M  V30 6229 H 601.587 0.353945 -2.97804 0
M  V30 6230 H 599.14 0.147167 -1.55606 0
M  V30 6231 H 599.875 2.66461 -1.84849 0
M  V30 6232 H 599.66 1.88085 -3.44044 0
M  V30 6233 H 601.15 2.80748 -3.09145 0
M  V30 6234 N 601.587 1.56661 0.17182 0
M  V30 6235 C 602.517 1.99401 1.21498 0
M  V30 6236 C 603.498 0.869516 1.46197 0
M  V30 6237 O 604.683 1.13556 1.57539 0
M  V30 6238 C 601.813 2.35346 2.55401 0
M  V30 6239 C 600.767 3.5075 2.45272 0
M  V30 6240 C 600.093 3.72437 3.8366 0
M  V30 6241 C 601.393 4.84216 1.95787 0
M  V30 6242 H 603.087 2.86792 0.859699 0
M  V30 6243 H 600.633 1.37977 0.412103 0
M  V30 6244 H 602.586 2.63843 3.2858 0
M  V30 6245 H 601.31 1.44864 2.92715 0
M  V30 6246 H 599.969 3.2238 1.74547 0
M  V30 6247 H 599.617 2.79246 4.18367 0
M  V30 6248 H 599.317 4.50087 3.77751 0
M  V30 6249 H 600.841 4.03334 4.58426 0
M  V30 6250 H 602.255 5.11592 2.5874 0
M  V30 6251 H 600.652 5.65498 2.00827 0
M  V30 6252 H 601.722 4.76243 0.912159 0
M  V30 6253 N 603.065 -0.440357 1.51323 0
M  V30 6254 C 604.293 -1.21255 1.67645 0
M  V30 6255 C 604.708 -1.85088 0.37252 0
M  V30 6256 O 604.065 -1.70582 -0.648683 0
M  V30 6257 C 604.116 -2.29881 2.78993 0
M  V30 6258 O 603.837 -1.68659 4.04334 0
M  V30 6259 C 605.338 -3.20214 3.06558 0
M  V30 6260 H 602.558 -0.36558 0.562666 0
M  V30 6261 H 605.102 -0.52214 1.97722 0
M  V30 6262 H 603.257 -2.94643 2.51524 0
M  V30 6263 H 603.671 -2.40426 4.6615 0
M  V30 6264 H 605.145 -3.92575 3.88058 0
M  V30 6265 H 605.622 -3.80794 2.18844 0
M  V30 6266 H 606.228 -2.61156 3.35675 0
M  V30 6267 N 604.543 -1.41418 -0.695603 0
M  V30 6268 C 605.768 -1.44329 -1.48942 0
M  V30 6269 C 606.193 -0.0501579 -1.88033 0
M  V30 6270 O 605.551 0.946598 -1.54626 0
M  V30 6271 C 605.599 -2.3578 -2.72837 0
M  V30 6272 O 604.703 -1.81482 -3.70322 0
M  V30 6273 H 604.044 -0.489838 -0.44828 0
M  V30 6274 H 606.574 -1.85878 -0.855014 0
M  V30 6275 H 606.584 -2.51654 -3.21145 0
M  V30 6276 H 605.259 -3.37005 -2.43722 0
M  V30 6277 H 603.836 -1.75058 -3.29255 0
M  V30 6278 N 606.021 0.929856 -1.27246 0
M  V30 6279 C 607.437 1.20542 -1.04603 0
M  V30 6280 C 607.637 2.00276 0.221754 0
M  V30 6281 O 606.693 2.34835 0.927833 0
M  V30 6282 C 608.006 1.95566 -2.28417 0
M  V30 6283 C 609.554 2.08513 -2.33433 0
M  V30 6284 C 610.029 2.86943 -3.5697 0
M  V30 6285 N 611.52 2.94512 -3.57515 0
M  V30 6286 C 612.255 3.55656 -4.49774 0
M  V30 6287 N 611.751 4.18209 -5.52334 0
M  V30 6288 N 613.544 3.53038 -4.37402 0
M  V30 6289 H 605.695 0.397113 -2.08655 0
M  V30 6290 H 607.958 0.238277 -0.917566 0
M  V30 6291 H 607.664 1.44395 -3.20691 0
M  V30 6292 H 607.538 2.9619 -2.33563 0
M  V30 6293 H 609.925 2.58872 -1.41666 0
M  V30 6294 H 610.006 1.07117 -2.32292 0
M  V30 6295 H 609.65 2.37268 -4.49072 0
M  V30 6296 H 609.58 3.8862 -3.55362 0
M  V30 6297 H 612.071 2.50053 -2.83341 0
M  V30 6298 H 612.384 4.62796 -6.18902 0
M  V30 6299 H 610.729 4.16761 -5.56179 0
M  V30 6300 H 613.92 3.0337 -3.56489 0
M  V30 6301 H 614.093 4.004 -5.09493 0
M  V30 6302 N 607.499 1.09233 1.13605 0
M  V30 6303 C 608.747 0.825525 1.84471 0
M  V30 6304 C 609.068 -0.650702 1.83823 0
M  V30 6305 O 608.338 -1.47204 1.29259 0
M  V30 6306 H 606.918 0.3024 0.683054 0
M  V30 6307 H 609.58 1.38006 1.37624 0
M  V30 6308 H 608.676 1.17727 2.89045 0
M  V30 6309 N 608.977 -1.30795 0.87923 0
M  V30 6310 C 609.907 -2.30742 0.357796 0
M  V30 6311 C 610.888 -1.60747 -0.556283 0
M  V30 6312 O 612.073 -1.88393 -0.47135 0
M  V30 6313 C 609.203 -3.44583 -0.433555 0
M  V30 6314 C 608.157 -4.26235 0.388251 0
M  V30 6315 C 607.483 -5.32073 -0.529352 0
M  V30 6316 C 608.783 -4.96303 1.62729 0
M  V30 6317 H 610.477 -2.74605 1.19299 0
M  V30 6318 H 608.023 -1.32017 0.575104 0
M  V30 6319 H 609.976 -4.13563 -0.808934 0
M  V30 6320 H 608.7 -2.99511 -1.30234 0
M  V30 6321 H 607.359 -3.58936 0.745695 0
M  V30 6322 H 607.007 -4.83249 -1.39569 0
M  V30 6323 H 606.707 -5.87598 0.0166741 0
M  V30 6324 H 608.231 -6.0391 -0.901373 0
M  V30 6325 H 609.645 -5.5783 1.32283 0
M  V30 6326 H 608.042 -5.61666 2.11309 0
M  V30 6327 H 609.112 -4.22758 2.37494 0
M  V30 6328 N 610.455 -0.639598 -1.44038 0
M  V30 6329 C 611.385 0.0469443 -2.33453 0
M  V30 6330 C 612.366 0.82609 -1.48694 0
M  V30 6331 O 613.551 0.790285 -1.77393 0
M  V30 6332 C 610.681 1.02338 -3.3188 0
M  V30 6333 C 609.635 0.355284 -4.26523 0
M  V30 6334 C 608.961 1.44221 -5.14883 0
M  V30 6335 C 610.261 -0.743798 -5.16977 0
M  V30 6336 H 611.955 -0.699735 -2.91108 0
M  V30 6337 H 609.501 -0.337946 -1.39978 0
M  V30 6338 H 611.454 1.51247 -3.93322 0
M  V30 6339 H 610.178 1.80105 -2.72451 0
M  V30 6340 H 608.837 -0.113239 -3.66425 0
M  V30 6341 H 608.485 2.21097 -4.51802 0
M  V30 6342 H 608.185 1.00052 -5.79019 0
M  V30 6343 H 609.709 1.93295 -5.79197 0
M  V30 6344 H 611.123 -0.337444 -5.72306 0
M  V30 6345 H 609.52 -1.10914 -5.89761 0
M  V30 6346 H 610.59 -1.60745 -4.57481 0
M  V30 6347 N 611.933 1.52934 -0.380664 0
M  V30 6348 C 612.843 2.29921 0.466192 0
M  V30 6349 C 613.859 1.36488 1.07922 0
M  V30 6350 O 615.035 1.69553 1.0869 0
M  V30 6351 C 612.1 3.08468 1.58266 0
M  V30 6352 C 611.161 4.17595 0.995627 0
M  V30 6353 C 610.394 4.92387 2.05889 0
M  V30 6354 O 610.617 4.67184 3.27254 0
M  V30 6355 O 609.551 5.77949 1.68102 0
M  V30 6356 H 613.377 3.03274 -0.160735 0
M  V30 6357 H 610.962 1.48698 -0.144617 0
M  V30 6358 H 612.844 3.57469 2.23145 0
M  V30 6359 H 611.519 2.37937 2.19471 0
M  V30 6360 H 610.426 3.72811 0.310332 0
M  V30 6361 H 611.759 4.90336 0.427918 0
M  V30 6362 N 613.412 0.11024 1.57214 0
M  V30 6363 C 614.359 -0.843195 2.14846 0
M  V30 6364 C 615.329 -1.26954 1.07107 0
M  V30 6365 O 616.514 -1.34861 1.34971 0
M  V30 6366 C 613.654 -2.09123 2.74521 0
M  V30 6367 C 612.767 -1.71404 3.96541 0
M  V30 6368 C 611.902 -2.91107 4.44331 0
M  V30 6369 C 610.941 -2.49586 5.58903 0
M  V30 6370 N 610.078 -3.62175 6.01477 0
M  V30 6371 H 614.918 -0.344886 2.95998 0
M  V30 6372 H 612.455 -0.15855 1.46243 0
M  V30 6373 H 614.413 -2.82234 3.07246 0
M  V30 6374 H 613.043 -2.56427 1.96074 0
M  V30 6375 H 612.095 -0.88201 3.70033 0
M  V30 6376 H 613.407 -1.36884 4.7965 0
M  V30 6377 H 612.561 -3.72454 4.78919 0
M  V30 6378 H 611.3 -3.28848 3.60153 0
M  V30 6379 H 610.305 -1.6667 5.23929 0
M  V30 6380 H 611.53 -2.12973 6.4484 0
M  V30 6381 H 609.476 -3.99605 5.20242 0
M  V30 6382 H 609.393 -3.3155 6.79419 0
M  V30 6383 H 610.661 -4.43987 6.407 0
M  V30 6384 N 614.89 -1.56749 -0.16351 0
M  V30 6385 C 616.167 -1.73321 -0.906599 0
M  V30 6386 C 616.547 -0.673779 -2.00059 0
M  V30 6387 O 615.895 0.310121 -2.26386 0
M  V30 6388 C 616.105 -3.168 -1.46419 0
M  V30 6389 C 617.453 -3.77993 -1.93407 0
M  V30 6390 O 618.477 -3.20127 -1.56196 0
M  V30 6391 O 617.336 -4.79615 -2.61976 0
M  V30 6392 H 614.43 -0.708073 -0.427272 0
M  V30 6393 H 616.976 -1.69029 -0.150727 0
M  V30 6394 H 615.748 -3.85396 -0.677189 0
M  V30 6395 H 615.371 -3.2545 -2.28403 0
M  V30 6396 N 616.368 0.432326 -1.51554 0
M  V30 6397 C 617.615 1.18134 -1.64471 0
M  V30 6398 C 617.943 1.91076 -0.363349 0
M  V30 6399 O 617.198 1.84492 0.65279 0
M  V30 6400 C 617.497 2.21907 -2.80164 0
M  V30 6401 C 617.163 1.65941 -4.19255 0
M  V30 6402 C 615.825 1.50401 -4.57092 0
M  V30 6403 C 618.177 1.24843 -5.06027 0
M  V30 6404 C 615.505 0.922443 -5.79403 0
M  V30 6405 C 617.857 0.68113 -6.28922 0
M  V30 6406 C 616.521 0.512673 -6.65528 0
M  V30 6407 H 615.791 0.432283 -0.601841 0
M  V30 6408 H 618.438 0.471701 -1.856 0
M  V30 6409 H 616.743 2.98928 -2.53277 0
M  V30 6410 H 618.44 2.79691 -2.87357 0
M  V30 6411 H 615.03 1.79014 -3.89425 0
M  V30 6412 H 619.214 1.35667 -4.77397 0
M  V30 6413 H 614.47 0.779733 -6.06408 0
M  V30 6414 H 618.644 0.35418 -6.95499 0
M  V30 6415 H 616.271 0.0599084 -7.60176 0
M  V30 6416 N 617.846 1.41785 0.688094 0
M  V30 6417 C 618.778 1.40159 1.81351 0
M  V30 6418 C 619.791 0.30262 1.59963 0
M  V30 6419 O 620.98 0.564841 1.69327 0
M  V30 6420 C 618.08 1.16517 3.1824 0
M  V30 6421 C 617.253 2.38597 3.66593 0
M  V30 6422 C 616.312 2.10699 4.82174 0
M  V30 6423 O 615.338 2.83798 4.93404 0
M  V30 6424 N 616.54 1.10187 5.69947 0
M  V30 6425 H 619.305 2.3716 1.83236 0
M  V30 6426 H 616.866 1.36494 0.870697 0
M  V30 6427 H 618.858 0.957941 3.93199 0
M  V30 6428 H 617.428 0.280873 3.11336 0
M  V30 6429 H 616.648 2.74974 2.82459 0
M  V30 6430 H 617.936 3.19919 3.95638 0
M  V30 6431 H 617.334 0.497016 5.63512 0
M  V30 6432 H 615.891 0.954518 6.44773 0
M  V30 6433 N 619.324 -0.923095 1.27737 0
M  V30 6434 C 620.271 -2.02432 1.1086 0
M  V30 6435 C 621.241 -1.66098 0.00835195 0
M  V30 6436 O 622.426 -1.90027 0.171542 0
M  V30 6437 C 619.566 -3.36476 0.766671 0
M  V30 6438 C 618.679 -3.85737 1.94501 0
M  V30 6439 C 617.814 -5.08249 1.54455 0
M  V30 6440 C 616.853 -5.49818 2.6901 0
M  V30 6441 N 615.99 -6.63524 2.29521 0
M  V30 6442 H 620.83 -2.16201 2.05089 0
M  V30 6443 H 618.367 -1.05909 1.02087 0
M  V30 6444 H 620.325 -4.13569 0.549223 0
M  V30 6445 H 618.955 -3.22502 -0.13867 0
M  V30 6446 H 618.007 -3.04883 2.27487 0
M  V30 6447 H 619.319 -4.12513 2.80419 0
M  V30 6448 H 618.473 -5.92857 1.28862 0
M  V30 6449 H 617.212 -4.83261 0.656534 0
M  V30 6450 H 616.217 -4.63757 2.95313 0
M  V30 6451 H 617.442 -5.76799 3.5844 0
M  V30 6452 H 615.388 -6.40185 1.43177 0
M  V30 6453 H 615.305 -6.89978 3.08977 0
M  V30 6454 H 616.573 -7.51461 2.07187 0
M  V30 6455 N 620.802 -1.09834 -1.13024 0
M  V30 6456 C 622.048 -0.83819 -1.84668 0
M  V30 6457 C 622.381 0.634645 -1.83537 0
M  V30 6458 O 621.656 1.46753 -1.27647 0
M  V30 6459 C 621.939 -1.37933 -3.32636 0
M  V30 6460 C 621.792 -2.91857 -3.42257 0
M  V30 6461 C 623.111 -1.01654 -4.28199 0
M  V30 6462 H 620.23 -0.30595 -0.670495 0
M  V30 6463 H 622.872 -1.36044 -1.32635 0
M  V30 6464 H 621.022 -0.935111 -3.77078 0
M  V30 6465 H 622.694 -3.44759 -3.06495 0
M  V30 6466 H 620.937 -3.28776 -2.83 0
M  V30 6467 H 621.608 -3.24799 -4.46329 0
M  V30 6468 H 624.084 -1.39973 -3.9185 0
M  V30 6469 H 622.96 -1.42217 -5.30156 0
M  V30 6470 H 623.221 0.0747794 -4.42037 0
M  V30 6471 N 622.28 1.30327 -0.886154 0
M  V30 6472 C 623.243 2.26376 -0.358687 0
M  V30 6473 C 624.243 1.52845 0.499498 0
M  V30 6474 O 625.433 1.71483 0.306485 0
M  V30 6475 C 622.565 3.37379 0.488726 0
M  V30 6476 H 623.758 2.74547 -1.20681 0
M  V30 6477 H 621.311 1.41536 -0.663113 0
M  V30 6478 H 622.046 2.94526 1.35739 0
M  V30 6479 H 621.831 3.91897 -0.126003 0
M  V30 6480 H 623.321 4.08868 0.84952 0
M  V30 6481 N 623.758 0.647228 1.43697 0
M  V30 6482 C 624.708 -0.0702191 2.27892 0
M  V30 6483 C 625.692 -0.800601 1.39568 0
M  V30 6484 O 626.884 -0.684055 1.63247 0
M  V30 6485 C 624.013 -1.04008 3.27165 0
M  V30 6486 C 623.099 -0.308484 4.22977 0
M  V30 6487 N 623.49 0.671721 5.0132 0
M  V30 6488 C 621.788 -0.550751 4.42586 0
M  V30 6489 C 622.489 1.10543 5.711 0
M  V30 6490 N 621.465 0.440903 5.41809 0
M  V30 6491 H 625.267 0.682031 2.85877 0
M  V30 6492 H 622.781 0.474022 1.55328 0
M  V30 6493 H 624.778 -1.56881 3.86256 0
M  V30 6494 H 623.438 -1.79246 2.70742 0
M  V30 6495 H 624.449 1.0502 5.0714 0
M  V30 6496 H 621.126 -1.28476 3.97241 0
M  V30 6497 H 622.516 1.91614 6.43998 0
M  V30 6498 N 625.236 -1.5273 0.388769 0
M  V30 6499 C 626.483 -2.01573 -0.19359 0
M  V30 6500 C 626.811 -1.27525 -1.46859 0
M  V30 6501 O 626.066 -0.363926 -1.92286 0
M  V30 6502 C 626.365 -3.53765 -0.508445 0
M  V30 6503 C 626.031 -4.4582 0.674947 0
M  V30 6504 C 624.693 -4.70703 0.999596 0
M  V30 6505 C 627.045 -5.00138 1.46666 0
M  V30 6506 C 624.373 -5.47155 2.11751 0
M  V30 6507 C 626.725 -5.77812 2.57518 0
M  V30 6508 C 625.389 -6.00975 2.90492 0
M  V30 6509 H 624.659 -0.737606 -0.0708397 0
M  V30 6510 H 627.306 -1.84134 0.526006 0
M  V30 6511 H 625.611 -3.69274 -1.30936 0
M  V30 6512 H 627.308 -3.8905 -0.971664 0
M  V30 6513 H 623.898 -4.26616 0.411906 0
M  V30 6514 H 628.082 -4.8084 1.22909 0
M  V30 6515 H 623.338 -5.63314 2.3767 0
M  V30 6516 H 627.512 -6.18904 3.19267 0
M  V30 6517 H 625.139 -6.59998 3.77236 0
M  V30 6518 N 626.714 -0.118576 -1.57153 0
M  V30 6519 C 627.963 0.539339 -1.94355 0
M  V30 6520 C 628.276 1.67858 -1.00415 0
M  V30 6521 O 629.482 2.39922 -1.27081 0
M  V30 6522 C 627.938 1.01082 -3.45414 0
M  V30 6523 C 627.546 -0.0999402 -4.47889 0
M  V30 6524 C 629.29 1.64013 -3.91535 0
M  V30 6525 C 627.197 0.388212 -5.90124 0
M  V30 6526 H 626.127 0.205247 -0.725527 0
M  V30 6527 H 628.778 -0.19836 -1.82425 0
M  V30 6528 H 627.16 1.80292 -3.52577 0
M  V30 6529 H 628.334 -0.876189 -4.52393 0
M  V30 6530 H 626.649 -0.635885 -4.11516 0
M  V30 6531 H 629.246 2.01649 -4.95219 0
M  V30 6532 H 629.589 2.51836 -3.31488 0
M  V30 6533 H 630.122 0.913439 -3.87171 0
M  V30 6534 H 626.861 -0.453963 -6.53926 0
M  V30 6535 H 626.381 1.13095 -5.89041 0
M  V30 6536 H 628.06 0.849574 -6.41398 0
M  V30 6537 N 628.193 1.56834 0.155195 0
M  V30 6538 C 629.143 1.94061 1.19684 0
M  V30 6539 C 630.127 0.810851 1.38975 0
M  V30 6540 O 631.319 1.07422 1.40675 0
M  V30 6541 C 628.448 2.31778 2.53247 0
M  V30 6542 C 627.534 3.51305 2.37583 0
M  V30 6543 N 627.925 4.68081 1.9166 0
M  V30 6544 C 626.223 3.56228 2.6836 0
M  V30 6545 C 626.924 5.50193 1.88845 0
M  V30 6546 N 625.9 4.91676 2.31852 0
M  V30 6547 H 629.702 2.81826 0.833747 0
M  V30 6548 H 627.216 1.58284 0.363328 0
M  V30 6549 H 629.213 2.56649 3.28538 0
M  V30 6550 H 627.873 1.4536 2.90346 0
M  V30 6551 H 628.884 4.91993 1.6175 0
M  V30 6552 H 625.561 2.8033 3.09389 0
M  V30 6553 H 626.951 6.53801 1.54901 0
M  V30 6554 N 629.671 -0.424282 1.51781 0
M  V30 6555 C 631.087 -0.761768 1.40247 0
M  V30 6556 C 631.287 -1.95324 0.495041 0
M  V30 6557 O 630.343 -2.5246 -0.0448949 0
M  V30 6558 C 631.656 -1.0299 2.82513 0
M  V30 6559 C 633.204 -1.13354 2.91753 0
M  V30 6560 C 633.679 -1.43453 4.34954 0
M  V30 6561 N 635.17 -1.5035 4.3812 0
M  V30 6562 C 635.905 -1.75236 5.45967 0
M  V30 6563 N 635.401 -1.97827 6.63955 0
M  V30 6564 N 637.194 -1.77126 5.33463 0
M  V30 6565 H 629.345 0.360228 2.09323 0
M  V30 6566 H 631.608 0.0988128 0.942836 0
M  V30 6567 H 631.314 -0.226961 3.50967 0
M  V30 6568 H 631.188 -1.95411 3.22637 0
M  V30 6569 H 633.575 -1.92709 2.23489 0
M  V30 6570 H 633.656 -0.188041 2.55108 0
M  V30 6571 H 633.3 -0.646209 5.03772 0
M  V30 6572 H 633.23 -2.3923 4.69123 0
M  V30 6573 H 635.721 -1.34742 3.53062 0
M  V30 6574 H 636.034 -2.16223 7.41935 0
M  V30 6575 H 634.379 -1.95123 6.67047 0
M  V30 6576 H 637.57 -1.59005 4.40267 0
M  V30 6577 H 637.743 -1.96182 6.17589 0
M  V30 6578 N 631.149 -1.42148 -0.680565 0
M  V30 6579 C 632.397 -1.42029 -1.43779 0
M  V30 6580 C 632.718 -0.0356347 -1.94967 0
M  V30 6581 O 631.988 0.924936 -1.7269 0
M  V30 6582 H 630.568 -0.522835 -0.533529 0
M  V30 6583 H 633.23 -1.7752 -0.804538 0
M  V30 6584 H 632.326 -2.11658 -2.29363 0
M  V30 6585 N 632.627 0.916307 -1.28225 0
M  V30 6586 C 633.876 1.65975 -1.14608 0
M  V30 6587 C 634.189 1.93204 0.305191 0
M  V30 6588 O 635.395 2.65611 0.562432 0
M  V30 6589 C 633.851 2.98989 -2.00333 0
M  V30 6590 C 633.459 2.79417 -3.50186 0
M  V30 6591 C 635.203 3.76856 -1.95397 0
M  V30 6592 C 633.11 4.08056 -4.28071 0
M  V30 6593 H 632.04 0.622587 -0.425324 0
M  V30 6594 H 634.691 1.01705 -1.52736 0
M  V30 6595 H 633.073 3.6438 -1.5506 0
M  V30 6596 H 634.247 2.22723 -4.034 0
M  V30 6597 H 632.562 2.14966 -3.56621 0
M  V30 6598 H 635.159 4.72203 -2.50856 0
M  V30 6599 H 635.502 4.05776 -0.930137 0
M  V30 6600 H 636.035 3.1828 -2.38626 0
M  V30 6601 H 632.774 3.8431 -5.31024 0
M  V30 6602 H 632.294 4.64371 -3.79631 0
M  V30 6603 H 633.973 4.76333 -4.37854 0
M  V30 6604 N 634.105 1.10431 1.1244 0
M  V30 6605 C 635.015 0.765502 2.21759 0
M  V30 6606 C 636.031 -0.236966 1.72379 0
M  V30 6607 O 637.207 -0.0757329 2.01258 0
M  V30 6608 C 634.272 0.202316 3.46109 0
M  V30 6609 C 633.333 1.26205 4.1033 0
M  V30 6610 C 632.566 0.725648 5.28744 0
M  V30 6611 O 632.789 -0.447942 5.68638 0
M  V30 6612 O 631.723 1.48555 5.83279 0
M  V30 6613 H 635.549 1.67801 2.53133 0
M  V30 6614 H 633.134 0.879443 1.20773 0
M  V30 6615 H 635.016 -0.107918 4.21262 0
M  V30 6616 H 633.691 -0.683052 3.16411 0
M  V30 6617 H 632.598 1.62514 3.36957 0
M  V30 6618 H 633.931 2.12044 4.44183 0
M  V30 6619 N 635.583 -1.29855 0.893053 0
M  V30 6620 C 636.513 -2.3035 0.382249 0
M  V30 6621 C 637.494 -1.61328 -0.539203 0
M  V30 6622 O 638.679 -1.88882 -0.451342 0
M  V30 6623 C 635.809 -3.45024 -0.396983 0
M  V30 6624 C 634.763 -4.258 0.433437 0
M  V30 6625 C 634.089 -5.32605 -0.472889 0
M  V30 6626 C 635.389 -4.94549 1.67984 0
M  V30 6627 H 637.083 -2.73325 1.22205 0
M  V30 6628 H 634.629 -1.314 0.589073 0
M  V30 6629 H 636.582 -4.14398 -0.765024 0
M  V30 6630 H 635.306 -3.00875 -1.2705 0
M  V30 6631 H 633.965 -3.58125 0.783723 0
M  V30 6632 H 633.613 -4.84702 -1.34435 0
M  V30 6633 H 633.313 -5.87547 0.0789958 0
M  V30 6634 H 634.837 -6.04832 -0.837269 0
M  V30 6635 H 636.251 -5.56395 1.38192 0
M  V30 6636 H 634.648 -5.59393 2.17254 0
M  V30 6637 H 635.718 -4.20215 2.41965 0
M  V30 6638 N 637.061 -0.65484 -1.43351 0
M  V30 6639 C 638.289 -0.176685 -2.06144 0
M  V30 6640 C 638.704 1.15831 -1.49093 0
M  V30 6641 O 638.061 1.71542 -0.622868 0
M  V30 6642 C 638.112 -0.0813326 -3.61408 0
M  V30 6643 O 637.833 -1.36355 -4.1634 0
M  V30 6644 C 639.334 0.422706 -4.4128 0
M  V30 6645 H 636.554 -0.0906429 -0.66485 0
M  V30 6646 H 639.098 -0.895945 -1.83829 0
M  V30 6647 H 637.253 0.588496 -3.82904 0
M  V30 6648 H 637.667 -1.22381 -5.10023 0
M  V30 6649 H 639.141 0.438375 -5.50257 0
M  V30 6650 H 639.618 1.45432 -4.14423 0
M  V30 6651 H 640.224 -0.214687 -4.24758 0
M  V30 6652 N 638.539 1.52521 -0.396863 0
M  V30 6653 C 639.469 2.29582 0.425941 0
M  V30 6654 C 640.45 1.33281 1.05689 0
M  V30 6655 O 641.635 1.62181 1.06823 0
M  V30 6656 C 638.765 3.10821 1.54943 0
M  V30 6657 C 637.719 4.15069 1.04413 0
M  V30 6658 C 637.045 4.84578 2.26028 0
M  V30 6659 C 638.345 5.22191 0.106767 0
M  V30 6660 H 640.039 2.98612 -0.217045 0
M  V30 6661 H 637.585 1.43611 -0.105826 0
M  V30 6662 H 639.538 3.63492 2.13193 0
M  V30 6663 H 638.262 2.39538 2.22011 0
M  V30 6664 H 636.921 3.63389 0.484118 0
M  V30 6665 H 636.569 4.09835 2.91623 0
M  V30 6666 H 636.269 5.55043 1.92876 0
M  V30 6667 H 637.793 5.40056 2.84906 0
M  V30 6668 H 639.207 5.70176 0.597685 0
M  V30 6669 H 637.604 5.99947 -0.135352 0
M  V30 6670 H 638.674 4.77531 -0.842134 0
M  V30 6671 N 640.017 0.126909 1.57088 0
M  V30 6672 C 640.949 -0.850973 2.12817 0
M  V30 6673 C 641.962 -1.22457 1.07276 0
M  V30 6674 O 643.151 -1.17215 1.34622 0
M  V30 6675 C 640.251 -2.15039 2.61938 0
M  V30 6676 C 639.424 -1.94726 3.91664 0
M  V30 6677 C 638.483 -3.0847 4.26301 0
M  V30 6678 O 637.509 -2.81038 4.94981 0
M  V30 6679 N 638.711 -4.35116 3.84259 0
M  V30 6680 H 641.476 -0.3748 2.97347 0
M  V30 6681 H 639.037 -0.0572793 1.61799 0
M  V30 6682 H 641.029 -2.90141 2.82135 0
M  V30 6683 H 639.599 -2.5398 1.82244 0
M  V30 6684 H 638.819 -1.03772 3.80296 0
M  V30 6685 H 640.107 -1.78469 4.76473 0
M  V30 6686 H 639.505 -4.60276 3.2888 0
M  V30 6687 H 638.062 -5.07064 4.09548 0
M  V30 6688 N 641.495 -1.56914 -0.146875 0
M  V30 6689 C 642.744 -1.82546 -0.857898 0
M  V30 6690 C 643.057 -0.708169 -1.8233 0
M  V30 6691 O 644.263 -0.850093 -2.57848 0
M  V30 6692 C 642.719 -3.23548 -1.57623 0
M  V30 6693 C 642.327 -4.43212 -0.653224 0
M  V30 6694 C 644.071 -3.58453 -2.27402 0
M  V30 6695 C 641.978 -5.75237 -1.37318 0
M  V30 6696 H 640.908 -0.680786 -0.32411 0
M  V30 6697 H 643.559 -1.83166 -0.110639 0
M  V30 6698 H 641.941 -3.17315 -2.36912 0
M  V30 6699 H 643.115 -4.60682 0.104452 0
M  V30 6700 H 641.43 -4.16351 -0.0638336 0
M  V30 6701 H 644.027 -4.54349 -2.81907 0
M  V30 6702 H 644.37 -2.84516 -3.03901 0
M  V30 6703 H 644.903 -3.66347 -1.55032 0
M  V30 6704 H 641.642 -6.52269 -0.650041 0
M  V30 6705 H 641.162 -5.61703 -2.10357 0
M  V30 6706 H 642.841 -6.18039 -1.91406 0
M  V30 6707 N 642.974 0.416227 -1.52004 0
M  V30 6708 C 643.906 1.52552 -1.71058 0
M  V30 6709 C 644.919 1.51693 -0.59102 0
M  V30 6710 O 646.108 1.56087 -0.865973 0
M  V30 6711 C 643.208 2.91455 -1.72937 0
M  V30 6712 C 642.381 3.16584 -3.01816 0
M  V30 6713 C 641.44 4.35322 -2.95603 0
M  V30 6714 O 640.466 4.32947 -3.6952 0
M  V30 6715 N 641.668 5.40049 -2.12903 0
M  V30 6716 H 644.433 1.36604 -2.66757 0
M  V30 6717 H 641.994 0.60544 -1.50153 0
M  V30 6718 H 643.986 3.68944 -1.66321 0
M  V30 6719 H 642.556 3.00895 -0.847418 0
M  V30 6720 H 641.776 2.27203 -3.22137 0
M  V30 6721 H 643.064 3.30213 -3.87088 0
M  V30 6722 H 642.462 5.44823 -1.52265 0
M  V30 6723 H 641.019 6.16308 -2.1215 0
M  V30 6724 N 644.452 1.42507 0.673017 0
M  V30 6725 C 645.677 1.4668 1.46627 0
M  V30 6726 C 646.102 0.080066 1.8793 0
M  V30 6727 O 645.46 -0.921879 1.56112 0
M  V30 6728 C 645.508 2.40091 2.69051 0
M  V30 6729 O 644.612 1.8735 3.67387 0
M  V30 6730 H 643.953 0.496908 0.44043 0
M  V30 6731 H 646.483 1.87215 0.825334 0
M  V30 6732 H 646.493 2.56731 3.17101 0
M  V30 6733 H 645.168 3.4084 2.3833 0
M  V30 6734 H 643.745 1.80274 3.26429 0
M  V30 6735 N 645.93 -0.909495 1.28709 0
M  V30 6736 C 647.207 -1.63865 1.06806 0
M  V30 6737 C 647.587 -2.07445 -0.391143 0
M  V30 6738 O 646.935 -1.82269 -1.37805 0
M  V30 6739 C 647.145 -2.82692 2.04661 0
M  V30 6740 C 648.493 -3.5361 2.35042 0
M  V30 6741 O 649.517 -2.92847 2.02779 0
M  V30 6742 O 648.376 -4.63131 2.90124 0
M  V30 6743 H 645.47 -0.719065 0.408502 0
M  V30 6744 H 648.016 -0.958424 1.40044 0
M  V30 6745 H 646.788 -2.47614 3.0299 0
M  V30 6746 H 646.411 -3.58426 1.72095 0
M  V30 6747 N 647.408 -1.11026 -1.11852 0
M  V30 6748 C 648.636 -0.878818 -1.87308 0
M  V30 6749 C 649.051 0.57111 -1.79955 0
M  V30 6750 O 648.408 1.39409 -1.17777 0
M  V30 6751 C 648.459 -1.3264 -3.36287 0
M  V30 6752 O 648.18 -2.71948 -3.43476 0
M  V30 6753 C 649.681 -1.12974 -4.28663 0
M  V30 6754 H 646.901 -0.315015 -0.592458 0
M  V30 6755 H 649.445 -1.47649 -1.41492 0
M  V30 6756 H 647.6 -0.772269 -3.79625 0
M  V30 6757 H 648.014 -2.91241 -4.3621 0
M  V30 6758 H 649.488 -1.49198 -5.31454 0
M  V30 6759 H 649.965 -0.0689127 -4.39146 0
M  V30 6760 H 650.571 -1.67064 -3.91113 0
M  V30 6761 N 648.886 1.2938 -0.899927 0
M  V30 6762 C 650.134 1.95164 -0.524924 0
M  V30 6763 C 650.455 1.71292 0.931888 0
M  V30 6764 O 649.725 1.04481 1.65712 0
M  V30 6765 H 648.305 0.722133 -0.191135 0
M  V30 6766 H 650.967 1.57628 -1.14627 0
M  V30 6767 H 650.063 3.0397 -0.707711 0
M  V30 6768 N 650.364 0.662433 1.43002 0
M  V30 6769 C 651.61 0.179857 2.02001 0
M  V30 6770 C 651.943 -1.20625 1.52195 0
M  V30 6771 O 651.218 -1.80726 0.718911 0
M  V30 6772 C 651.501 0.200845 3.59539 0
M  V30 6773 C 651.354 1.62153 4.19555 0
M  V30 6774 C 652.673 -0.457738 4.37713 0
M  V30 6775 H 649.792 0.0668305 0.733964 0
M  V30 6776 H 652.434 0.84487 1.70182 0
M  V30 6777 H 650.584 -0.365411 3.86778 0
M  V30 6778 H 652.256 2.23908 4.03315 0
M  V30 6779 H 650.499 2.16601 3.75854 0
M  V30 6780 H 651.17 1.58799 5.28665 0
M  V30 6781 H 653.646 0.0241495 4.16093 0
M  V30 6782 H 652.522 -0.412363 5.47349 0
M  V30 6783 H 652.783 -1.53336 4.14657 0
M  V30 6784 N 651.842 -1.52309 0.404946 0
M  V30 6785 C 653.258 -1.59503 0.0556255 0
M  V30 6786 C 653.458 -1.41805 -1.43156 0
M  V30 6787 O 652.514 -1.2429 -2.19792 0
M  V30 6788 C 653.827 -2.95687 0.546801 0
M  V30 6789 C 655.375 -3.08909 0.504413 0
M  V30 6790 C 655.85 -4.47566 0.97203 0
M  V30 6791 N 657.341 -4.53795 0.928679 0
M  V30 6792 C 658.076 -5.59346 1.26174 0
M  V30 6793 N 657.572 -6.72469 1.66604 0
M  V30 6794 N 659.365 -5.49532 1.18198 0
M  V30 6795 H 651.516 -1.6206 1.37296 0
M  V30 6796 H 653.779 -0.762161 0.563751 0
M  V30 6797 H 653.485 -3.13905 1.58609 0
M  V30 6798 H 653.359 -3.77172 -0.0457905 0
M  V30 6799 H 655.746 -2.90378 -0.525819 0
M  V30 6800 H 655.827 -2.2934 1.13301 0
M  V30 6801 H 655.471 -4.6684 2.00057 0
M  V30 6802 H 655.401 -5.25625 0.320292 0
M  V30 6803 H 657.892 -3.72588 0.631369 0
M  V30 6804 H 658.205 -7.48993 1.9034 0
M  V30 6805 H 656.55 -6.73761 1.70504 0
M  V30 6806 H 659.741 -4.60038 0.865011 0
M  V30 6807 H 659.914 -6.31687 1.44485 0
M  V30 6808 N 653.32 -0.135238 -1.57019 0
M  V30 6809 C 654.283 0.794707 -2.14981 0
M  V30 6810 C 655.283 1.18342 -1.08866 0
M  V30 6811 O 656.473 1.10627 -1.34563 0
M  V30 6812 C 653.605 2.07685 -2.70333 0
M  V30 6813 H 654.798 0.290696 -2.98488 0
M  V30 6814 H 652.351 0.114128 -1.55883 0
M  V30 6815 H 653.086 2.6248 -1.9046 0
M  V30 6816 H 652.871 1.80745 -3.47957 0
M  V30 6817 H 654.361 2.74127 -3.1503 0
M  V30 6818 N 654.798 1.5699 0.138552 0
M  V30 6819 C 656.026 1.87976 0.864437 0
M  V30 6820 C 656.441 0.724372 1.74351 0
M  V30 6821 O 655.798 -0.305575 1.79924 0
M  V30 6822 C 655.849 3.18276 1.71414 0
M  V30 6823 O 655.57 4.29365 0.870487 0
M  V30 6824 C 657.071 3.62834 2.54688 0
M  V30 6825 H 654.291 0.622878 0.249528 0
M  V30 6826 H 656.835 2.04094 0.128805 0
M  V30 6827 H 654.99 3.03886 2.40274 0
M  V30 6828 H 655.404 5.03924 1.45466 0
M  V30 6829 H 656.878 4.5682 3.0987 0
M  V30 6830 H 657.355 2.88533 3.31127 0
M  V30 6831 H 657.961 3.79946 1.91105 0
M  V30 6832 N 656.276 -0.40816 1.52223 0
M  V30 6833 C 657.206 -1.5042 1.78595 0
M  V30 6834 C 658.187 -1.57723 0.636974 0
M  V30 6835 O 659.372 -1.72982 0.882664 0
M  V30 6836 C 656.502 -2.88232 1.93751 0
M  V30 6837 C 655.456 -2.95779 3.09352 0
M  V30 6838 C 654.782 -4.35855 3.09732 0
M  V30 6839 C 656.082 -2.67175 4.48793 0
M  V30 6840 H 657.776 -1.28601 2.70374 0
M  V30 6841 H 655.322 -0.617221 1.30101 0
M  V30 6842 H 657.275 -3.64895 2.10783 0
M  V30 6843 H 655.999 -3.11347 0.986443 0
M  V30 6844 H 654.658 -2.21561 2.92072 0
M  V30 6845 H 654.306 -4.55981 2.12346 0
M  V30 6846 H 654.006 -4.41829 3.87377 0
M  V30 6847 H 655.53 -5.14451 3.28895 0
M  V30 6848 H 656.944 -3.3356 4.66273 0
M  V30 6849 H 655.341 -2.84523 5.28362 0
M  V30 6850 H 656.411 -1.62609 4.56822 0
M  V30 6851 N 657.755 -1.42862 -0.66545 0
M  V30 6852 C 658.702 -1.4707 -1.77874 0
M  V30 6853 C 659.672 -0.321654 -1.62956 0
M  V30 6854 O 660.857 -0.52707 -1.83376 0
M  V30 6855 C 657.997 -1.38788 -3.15962 0
M  V30 6856 C 657.11 -2.63801 -3.42101 0
M  V30 6857 C 656.245 -2.47594 -4.69969 0
M  V30 6858 C 655.284 -3.67936 -4.89172 0
M  V30 6859 N 654.421 -3.50614 -6.08288 0
M  V30 6860 H 659.261 -2.42204 -1.73613 0
M  V30 6861 H 656.798 -1.20239 -0.847401 0
M  V30 6862 H 658.756 -1.31982 -3.95773 0
M  V30 6863 H 657.386 -0.472431 -3.19324 0
M  V30 6864 H 656.438 -2.80935 -2.56475 0
M  V30 6865 H 657.75 -3.53228 -3.52181 0
M  V30 6866 H 656.904 -2.38427 -5.57886 0
M  V30 6867 H 655.643 -1.55672 -4.62188 0
M  V30 6868 H 654.648 -3.77525 -3.99694 0
M  V30 6869 H 655.873 -4.60851 -4.98792 0
M  V30 6870 H 653.819 -2.61417 -6.01662 0
M  V30 6871 H 653.736 -4.33634 -6.19272 0
M  V30 6872 H 655.004 -3.45276 -6.98859 0
M  V30 6873 N 659.233 0.902656 -1.29189 0
M  V30 6874 C 660.143 2.03946 -1.15944 0
M  V30 6875 C 661.159 1.738 -0.0833803 0
M  V30 6876 O 662.335 1.9923 -0.29487 0
M  V30 6877 C 659.4 3.36519 -0.834006 0
M  V30 6878 C 658.461 3.80203 -1.9936 0
M  V30 6879 C 657.694 5.06449 -1.68359 0
M  V30 6880 O 657.917 5.67202 -0.603141 0
M  V30 6881 O 656.851 5.46114 -2.53067 0
M  V30 6882 H 660.677 2.18043 -2.11403 0
M  V30 6883 H 658.262 1.02584 -1.08613 0
M  V30 6884 H 660.144 4.16089 -0.666949 0
M  V30 6885 H 658.819 3.23573 0.0908245 0
M  V30 6886 H 657.726 3.01413 -2.21588 0
M  V30 6887 H 659.059 3.97729 -2.89952 0
M  V30 6888 N 660.711 1.11618 1.11262 0
M  V30 6889 C 661.958 0.86618 1.8304 0
M  V30 6890 C 662.286 -0.608149 1.84748 0
M  V30 6891 O 661.541 -1.46508 1.29745 0
M  V30 6892 C 661.84 1.37529 3.2988 0
M  V30 6893 C 661.506 2.86317 3.4833 0
M  V30 6894 C 660.168 3.26945 3.53073 0
M  V30 6895 C 662.52 3.82136 3.54431 0
M  V30 6896 C 659.848 4.62117 3.61475 0
M  V30 6897 C 662.2 5.17128 3.64365 0
M  V30 6898 C 660.864 5.57312 3.67369 0
M  V30 6899 H 660.134 0.316958 0.66979 0
M  V30 6900 H 662.781 1.3949 1.31205 0
M  V30 6901 H 661.086 0.766842 3.84222 0
M  V30 6902 H 662.783 1.15817 3.83911 0
M  V30 6903 H 659.373 2.53889 3.45309 0
M  V30 6904 H 663.557 3.51847 3.50025 0
M  V30 6905 H 658.813 4.92655 3.62079 0
M  V30 6906 H 662.987 5.91208 3.68029 0
M  V30 6907 H 660.614 6.62045 3.73632 0
M  V30 6908 N 662.189 -1.289 0.906776 0
M  V30 6909 C 663.136 -2.2751 0.388313 0
M  V30 6910 C 664.106 -1.57301 -0.533439 0
M  V30 6911 O 665.291 -1.85243 -0.457148 0
M  V30 6912 C 662.431 -3.43091 -0.37181 0
M  V30 6913 C 661.544 -4.28066 0.581647 0
M  V30 6914 C 660.679 -5.30837 -0.19623 0
M  V30 6915 C 659.718 -6.07472 0.751294 0
M  V30 6916 N 658.855 -7.021 0.00737727 0
M  V30 6917 H 663.695 -2.71237 1.23428 0
M  V30 6918 H 661.232 -1.33397 0.619962 0
M  V30 6919 H 663.19 -4.08888 -0.828641 0
M  V30 6920 H 661.82 -3.00374 -1.18218 0
M  V30 6921 H 660.872 -3.62378 1.157 0
M  V30 6922 H 662.184 -4.81382 1.30665 0
M  V30 6923 H 661.338 -6.02485 -0.71394 0
M  V30 6924 H 660.077 -4.78272 -0.954324 0
M  V30 6925 H 659.082 -5.34682 1.28044 0
M  V30 6926 H 660.307 -6.62126 1.50883 0
M  V30 6927 H 658.253 -6.51894 -0.732854 0
M  V30 6928 H 658.17 -7.53004 0.672334 0
M  V30 6929 H 659.438 -7.77956 -0.490365 0
M  V30 6930 N 663.667 -0.670007 -1.42649 0
M  V30 6931 C 664.577 0.0114788 -2.34597 0
M  V30 6932 C 665.593 0.794055 -1.54825 0
M  V30 6933 O 666.769 0.737472 -1.87412 0
M  V30 6934 C 663.834 0.954436 -3.33304 0
M  V30 6935 C 662.895 0.166925 -4.28975 0
M  V30 6936 C 662.128 1.06497 -5.22967 0
M  V30 6937 O 662.351 2.30446 -5.21777 0
M  V30 6938 O 661.285 0.528347 -5.99577 0
M  V30 6939 H 665.111 -0.745794 -2.944 0
M  V30 6940 H 662.696 -0.430228 -1.43071 0
M  V30 6941 H 664.578 1.49589 -3.93956 0
M  V30 6942 H 663.253 1.69164 -2.7598 0
M  V30 6943 H 662.16 -0.418515 -3.71752 0
M  V30 6944 H 663.493 -0.531067 -4.89327 0
M  V30 6945 N 665.145 1.52092 -0.413018 0
M  V30 6946 C 666.561 1.59471 -0.0640836 0
M  V30 6947 C 666.761 1.42562 1.42402 0
M  V30 6948 O 665.817 1.25453 2.19129 0
M  V30 6949 C 667.13 2.95392 -0.562474 0
M  V30 6950 C 668.678 3.08637 -0.520788 0
M  V30 6951 C 669.153 4.47044 -0.995752 0
M  V30 6952 N 670.644 4.53296 -0.952732 0
M  V30 6953 C 671.379 5.58669 -1.29138 0
M  V30 6954 N 670.875 6.71576 -1.70168 0
M  V30 6955 N 672.668 5.48898 -1.2111 0
M  V30 6956 H 664.819 1.6133 -1.38153 0
M  V30 6957 H 667.082 0.75916 -0.567785 0
M  V30 6958 H 666.788 3.13059 -1.60271 0
M  V30 6959 H 666.662 3.77191 0.0257875 0
M  V30 6960 H 669.049 2.90652 0.510412 0
M  V30 6961 H 669.13 2.28735 -1.14515 0
M  V30 6962 H 668.774 4.65773 -2.0253 0
M  V30 6963 H 668.704 5.25448 -0.348162 0
M  V30 6964 H 671.195 3.72248 -0.651119 0
M  V30 6965 H 671.508 7.47973 -1.9431 0
M  V30 6966 H 669.853 6.72847 -1.74075 0
M  V30 6967 H 673.044 4.59573 -0.889396 0
M  V30 6968 H 673.217 6.30912 -1.47833 0
M  V30 6969 N 666.623 0.143563 1.56945 0
M  V30 6970 C 667.553 -0.7936 2.196 0
M  V30 6971 C 668.534 -1.25955 1.14321 0
M  V30 6972 O 669.719 -1.31773 1.42651 0
M  V30 6973 C 666.849 -2.03424 2.81489 0
M  V30 6974 C 665.803 -1.70519 3.92565 0
M  V30 6975 C 665.129 -3.01817 4.41373 0
M  V30 6976 C 666.429 -0.95449 5.13504 0
M  V30 6977 H 668.123 -0.271423 2.98167 0
M  V30 6978 H 665.669 -0.12911 1.4342 0
M  V30 6979 H 667.622 -2.69463 3.23987 0
M  V30 6980 H 666.346 -2.58008 2.00248 0
M  V30 6981 H 665.005 -1.06859 3.5068 0
M  V30 6982 H 664.653 -3.54386 3.56959 0
M  V30 6983 H 664.353 -2.80565 5.16292 0
M  V30 6984 H 665.877 -3.68934 4.86539 0
M  V30 6985 H 667.291 -1.5169 5.52868 0
M  V30 6986 H 665.688 -0.842035 5.94163 0
M  V30 6987 H 666.758 0.0544033 4.84869 0
M  V30 6988 N 668.101 -1.57061 -0.130224 0
M  V30 6989 C 669.064 -1.98593 -1.14426 0
M  V30 6990 C 670.064 -0.874584 -1.34936 0
M  V30 6991 O 671.254 -1.14086 -1.31643 0
M  V30 6992 C 668.386 -2.31639 -2.50112 0
M  V30 6993 H 669.579 -2.89374 -0.787561 0
M  V30 6994 H 667.132 -1.51756 -0.374146 0
M  V30 6995 H 667.867 -1.43703 -2.90723 0
M  V30 6996 H 667.652 -3.12684 -2.36583 0
M  V30 6997 H 669.142 -2.64551 -3.23114 0
M  V30 6998 N 669.579 0.400081 -1.52437 0
M  V30 6999 C 670.827 1.14392 -1.6661 0
M  V30 7000 C 671.148 1.90792 -0.402927 0
M  V30 7001 O 670.418 1.87042 0.582425 0
M  V30 7002 H 668.998 0.425275 -0.614125 0
M  V30 7003 H 671.66 0.455076 -1.89513 0
M  V30 7004 H 670.756 1.85298 -2.51139 0
M  V30 7005 N 671.057 1.43213 0.657864 0
M  V30 7006 C 672.334 1.35063 1.41483 0
M  V30 7007 C 672.714 -0.0038314 2.111 0
M  V30 7008 O 672.062 -1.02018 2.04462 0
M  V30 7009 C 672.272 2.53061 2.40335 0
M  V30 7010 C 673.62 2.9594 3.04474 0
M  V30 7011 O 674.644 2.53074 2.50663 0
M  V30 7012 O 673.503 3.70184 4.02027 0
M  V30 7013 H 670.597 0.533517 0.631893 0
M  V30 7014 H 673.143 1.55253 0.685162 0
M  V30 7015 H 671.915 3.43283 1.87809 0
M  V30 7016 H 671.538 2.34945 3.20759 0
M  V30 7017 N 672.536 -0.895792 1.29666 0
M  V30 7018 C 673.483 -2.00035 1.15129 0
M  V30 7019 C 674.453 -1.66043 0.0435819 0
M  V30 7020 O 675.638 -1.89621 0.211811 0
M  V30 7021 C 672.778 -3.34774 0.83787 0
M  V30 7022 C 671.891 -3.81525 2.0264 0
M  V30 7023 C 671.026 -5.04858 1.65201 0
M  V30 7024 C 670.065 -5.43988 2.80612 0
M  V30 7025 N 669.202 -6.58507 2.43544 0
M  V30 7026 H 674.042 -2.11802 2.09628 0
M  V30 7027 H 671.579 -1.03719 1.04311 0
M  V30 7028 H 673.537 -4.12311 0.636824 0
M  V30 7029 H 672.167 -3.22724 -0.0702314 0
M  V30 7030 H 671.219 -2.9999 2.33903 0
M  V30 7031 H 672.531 -4.06472 2.89106 0
M  V30 7032 H 671.685 -5.8999 1.41408 0
M  V30 7033 H 670.424 -4.81759 0.758893 0
M  V30 7034 H 669.429 -4.57388 3.05083 0
M  V30 7035 H 670.654 -5.69066 3.70595 0
M  V30 7036 H 668.6 -6.37004 1.56724 0
M  V30 7037 H 668.517 -6.83269 3.23542 0
M  V30 7038 H 669.785 -7.46897 2.2308 0
M  V30 7039 N 674.014 -1.12206 -1.10668 0
M  V30 7040 C 675.244 -0.897332 -1.86095 0
M  V30 7041 C 675.652 0.556778 -1.80822 0
M  V30 7042 O 674.995 1.39658 -1.19337 0
M  V30 7043 C 675.057 -1.29095 -3.35522 0
M  V30 7044 C 674.721 -2.75586 -3.64556 0
M  V30 7045 C 675.718 -3.73785 -3.6136 0
M  V30 7046 C 673.403 -3.12432 -3.93309 0
M  V30 7047 C 675.397 -5.06845 -3.86506 0
M  V30 7048 C 673.084 -4.45675 -4.18111 0
M  V30 7049 C 674.082 -5.42691 -4.147 0
M  V30 7050 O 673.77 -6.73532 -4.38873 0
M  V30 7051 H 673.502 -0.320704 -0.595084 0
M  V30 7052 H 676.056 -1.49517 -1.40833 0
M  V30 7053 H 674.286 -0.636299 -3.81429 0
M  V30 7054 H 675.975 -1.04073 -3.92331 0
M  V30 7055 H 676.741 -3.46664 -3.39189 0
M  V30 7056 H 672.62 -2.3753 -3.95096 0
M  V30 7057 H 676.164 -5.82559 -3.83758 0
M  V30 7058 H 672.061 -4.72526 -4.39761 0
M  V30 7059 H 672.829 -6.79442 -4.564 0
M  V30 7060 N 675.492 1.28418 -0.913599 0
M  V30 7061 C 676.424 2.26368 -0.359169 0
M  V30 7062 C 677.437 1.54858 0.502285 0
M  V30 7063 O 678.626 1.75659 0.31719 0
M  V30 7064 C 675.726 3.35112 0.50526 0
M  V30 7065 C 674.899 4.36126 -0.333648 0
M  V30 7066 C 673.958 5.24134 0.465845 0
M  V30 7067 O 672.984 5.6907 -0.121538 0
M  V30 7068 N 674.186 5.52892 1.76891 0
M  V30 7069 H 676.951 2.74579 -1.2011 0
M  V30 7070 H 674.512 1.41898 -0.779532 0
M  V30 7071 H 676.504 3.90926 1.04684 0
M  V30 7072 H 675.074 2.86611 1.2479 0
M  V30 7073 H 674.294 3.79776 -1.0566 0
M  V30 7074 H 675.582 5.00638 -0.907669 0
M  V30 7075 H 674.98 5.18217 2.26865 0
M  V30 7076 H 673.537 6.11464 2.25732 0
M  V30 7077 N 676.97 0.677563 1.42291 0
M  V30 7078 C 677.933 0.0101085 2.29198 0
M  V30 7079 C 678.933 -0.726219 1.43467 0
M  V30 7080 O 680.123 -0.563807 1.64824 0
M  V30 7081 C 677.255 -0.996316 3.26016 0
M  V30 7082 H 678.448 0.775071 2.89711 0
M  V30 7083 H 676.001 0.440065 1.49977 0
M  V30 7084 H 676.736 -1.78967 2.70446 0
M  V30 7085 H 676.521 -0.471687 3.89253 0
M  V30 7086 H 678.011 -1.46167 3.91184 0
M  V30 7087 N 678.448 -1.51871 0.421078 0
M  V30 7088 C 679.411 -2.25914 -0.386712 0
M  V30 7089 C 680.411 -1.28733 -0.963555 0
M  V30 7090 O 681.601 -1.52579 -0.840556 0
M  V30 7091 C 678.733 -3.03853 -1.54551 0
M  V30 7092 H 679.926 -2.98754 0.261978 0
M  V30 7093 H 677.479 -1.5533 0.173862 0
M  V30 7094 H 678.214 -2.35392 -2.23072 0
M  V30 7095 H 677.999 -3.75215 -1.13824 0
M  V30 7096 H 679.489 -3.59984 -2.11663 0
M  V30 7097 N 679.926 -0.151884 -1.56866 0
M  V30 7098 C 681.172 0.498742 -1.96572 0
M  V30 7099 C 681.505 1.64194 -1.03702 0
M  V30 7100 O 680.78 1.94334 -0.0803432 0
M  V30 7101 C 681.063 1.00027 -3.45929 0
M  V30 7102 C 680.916 -0.141767 -4.49577 0
M  V30 7103 C 682.235 1.88044 -3.97904 0
M  V30 7104 H 679.354 0.17982 -0.714726 0
M  V30 7105 H 681.996 -0.234097 -1.88552 0
M  V30 7106 H 680.146 1.62476 -3.52894 0
M  V30 7107 H 681.818 -0.778269 -4.54687 0
M  V30 7108 H 680.061 -0.80019 -4.26356 0
M  V30 7109 H 680.732 0.250947 -5.51429 0
M  V30 7110 H 683.208 1.35416 -3.93449 0
M  V30 7111 H 682.084 2.20043 -5.02864 0
M  V30 7112 H 682.345 2.81916 -3.40552 0
M  V30 7113 N 681.404 1.57128 0.121893 0
M  V30 7114 C 682.336 1.96773 1.17529 0
M  V30 7115 C 683.349 0.866668 1.37814 0
M  V30 7116 O 684.538 1.14497 1.3694 0
M  V30 7117 C 681.638 2.24832 2.53582 0
M  V30 7118 C 680.811 3.56138 2.53939 0
M  V30 7119 C 679.87 3.72443 3.71716 0
M  V30 7120 O 678.896 4.44584 3.55434 0
M  V30 7121 N 680.098 3.10993 4.90167 0
M  V30 7122 H 682.863 2.87743 0.838086 0
M  V30 7123 H 680.424 1.58881 0.311199 0
M  V30 7124 H 682.416 2.32958 3.30927 0
M  V30 7125 H 680.986 1.40002 2.79496 0
M  V30 7126 H 680.206 3.59226 1.62329 0
M  V30 7127 H 681.494 4.42448 2.51231 0
M  V30 7128 H 680.892 2.52345 5.06299 0
M  V30 7129 H 679.449 3.24644 5.65198 0
M  V30 7130 N 682.882 -0.391992 1.52647 0
M  V30 7131 C 683.845 -1.46135 1.7657 0
M  V30 7132 C 684.845 -1.47701 0.635698 0
M  V30 7133 O 686.035 -1.48924 0.903728 0
M  V30 7134 C 683.167 -2.85443 1.86374 0
M  V30 7135 H 684.36 -1.26208 2.72051 0
M  V30 7136 H 681.913 -0.623549 1.43323 0
M  V30 7137 H 682.648 -3.10718 0.928685 0
M  V30 7138 H 682.433 -2.85708 2.68539 0
M  V30 7139 H 683.923 -3.62933 2.06566 0
M  V30 7140 N 684.36 -1.4356 -0.65026 0
M  V30 7141 C 685.29 -1.51758 -1.77459 0
M  V30 7142 C 686.271 -0.372019 -1.65982 0
M  V30 7143 O 687.456 -0.589627 -1.85033 0
M  V30 7144 C 684.586 -1.44302 -3.15902 0
M  V30 7145 C 683.54 -2.57138 -3.42146 0
M  V30 7146 C 682.866 -2.34735 -4.8042 0
M  V30 7147 C 684.166 -3.99373 -3.36598 0
M  V30 7148 H 685.86 -2.45863 -1.70855 0
M  V30 7149 H 683.406 -1.18333 -0.820566 0
M  V30 7150 H 685.359 -1.48641 -3.94314 0
M  V30 7151 H 684.083 -0.467026 -3.23244 0
M  V30 7152 H 682.742 -2.52157 -2.66106 0
M  V30 7153 H 682.39 -1.35372 -4.84441 0
M  V30 7154 H 682.09 -3.10375 -4.9894 0
M  V30 7155 H 683.614 -2.40862 -5.61086 0
M  V30 7156 H 685.028 -4.05826 -4.04942 0
M  V30 7157 H 683.425 -4.75063 -3.66654 0
M  V30 7158 H 684.495 -4.243 -2.34729 0
M  V30 7159 N 685.838 0.888903 -1.30139 0
M  V30 7160 C 687.254 1.17153 -1.08385 0
M  V30 7161 C 687.454 2.0088 0.157925 0
M  V30 7162 O 686.51 2.37668 0.852652 0
M  V30 7163 C 687.823 1.882 -2.34523 0
M  V30 7164 C 689.371 2.00981 -2.39949 0
M  V30 7165 C 689.846 2.75441 -3.65918 0
M  V30 7166 N 691.337 2.82989 -3.66704 0
M  V30 7167 C 692.072 3.41167 -4.60861 0
M  V30 7168 N 691.568 4.00425 -5.6536 0
M  V30 7169 N 693.361 3.38944 -4.48412 0
M  V30 7170 H 685.512 0.33053 -2.09812 0
M  V30 7171 H 687.775 0.208964 -0.924683 0
M  V30 7172 H 687.481 1.34119 -3.25123 0
M  V30 7173 H 687.355 2.88609 -2.42868 0
M  V30 7174 H 689.742 2.54234 -1.4983 0
M  V30 7175 H 689.823 0.996725 -2.35582 0
M  V30 7176 H 689.467 2.22861 -4.56394 0
M  V30 7177 H 689.397 3.77118 -3.67546 0
M  V30 7178 H 691.888 2.40912 -2.91153 0
M  V30 7179 H 692.201 4.42871 -6.33313 0
M  V30 7180 H 690.546 3.98856 -5.69157 0
M  V30 7181 H 693.737 2.91875 -3.6596 0
M  V30 7182 H 693.91 3.83989 -5.21974 0
M  V30 7183 N 687.317 1.12792 1.10072 0
M  V30 7184 C 688.227 0.812369 2.20086 0
M  V30 7185 C 689.243 -0.200349 1.72843 0
M  V30 7186 O 690.419 -0.0330262 2.01373 0
M  V30 7187 C 687.484 0.275685 3.45602 0
M  V30 7188 C 686.545 1.34881 4.07561 0
M  V30 7189 C 685.778 0.837639 5.27086 0
M  V30 7190 O 686.001 -0.327224 5.69461 0
M  V30 7191 O 684.935 1.60894 5.79997 0
M  V30 7192 H 688.761 1.73133 2.49517 0
M  V30 7193 H 686.346 0.904863 1.18881 0
M  V30 7194 H 688.228 -0.0185375 4.21396 0
M  V30 7195 H 686.903 -0.615783 3.17789 0
M  V30 7196 H 685.81 1.69625 3.33434 0
M  V30 7197 H 687.143 2.21418 4.39585 0
M  V30 7198 N 688.795 -1.27931 0.920396 0
M  V30 7199 C 689.705 -2.30824 0.419212 0
M  V30 7200 C 690.721 -1.66767 -0.496461 0
M  V30 7201 O 691.897 -1.97763 -0.38104 0
M  V30 7202 C 688.962 -3.45158 -0.326601 0
M  V30 7203 C 688.023 -4.24754 0.623098 0
M  V30 7204 C 687.256 -5.33629 -0.0872172 0
M  V30 7205 O 687.479 -5.55204 -1.30784 0
M  V30 7206 O 686.413 -5.99091 0.580875 0
M  V30 7207 H 690.239 -2.75716 1.27337 0
M  V30 7208 H 687.824 -1.32747 0.685465 0
M  V30 7209 H 689.706 -4.14716 -0.747559 0
M  V30 7210 H 688.381 -3.02336 -1.15648 0
M  V30 7211 H 687.288 -3.57759 1.09359 0
M  V30 7212 H 688.621 -4.71272 1.41998 0
M  V30 7213 N 690.273 -0.685099 -1.4193 0
M  V30 7214 C 691.519 -0.211971 -2.01689 0
M  V30 7215 C 691.852 1.18189 -1.54094 0
M  V30 7216 O 691.127 1.79559 -0.747572 0
M  V30 7217 C 691.41 -0.258019 -3.59174 0
M  V30 7218 C 691.263 -1.68807 -4.16922 0
M  V30 7219 C 692.582 0.388044 -4.38386 0
M  V30 7220 H 689.701 -0.0784987 -0.732808 0
M  V30 7221 H 692.343 -0.871837 -1.68816 0
M  V30 7222 H 690.493 0.303832 -3.8731 0
M  V30 7223 H 692.165 -2.30296 -3.99702 0
M  V30 7224 H 690.408 -2.22553 -3.72361 0
M  V30 7225 H 691.079 -1.6719 -5.26072 0
M  V30 7226 H 693.555 -0.0903432 -4.16002 0
M  V30 7227 H 692.431 0.325232 -5.47936 0
M  V30 7228 H 692.692 1.4672 -4.17044 0
M  V30 7229 N 691.751 1.51645 -0.429126 0
M  V30 7230 C 692.661 2.31288 0.392809 0
M  V30 7231 C 693.677 1.39852 1.03525 0
M  V30 7232 O 694.853 1.72926 1.03241 0
M  V30 7233 C 691.918 3.13347 1.48372 0
M  V30 7234 C 690.979 4.20551 0.862268 0
M  V30 7235 C 690.212 4.98688 1.9012 0
M  V30 7236 O 690.435 4.77359 3.12225 0
M  V30 7237 O 689.369 5.83005 1.4963 0
M  V30 7238 H 693.195 3.02609 -0.257138 0
M  V30 7239 H 690.78 1.48163 -0.191851 0
M  V30 7240 H 692.662 3.64387 2.1166 0
M  V30 7241 H 691.337 2.44799 2.1179 0
M  V30 7242 H 690.244 3.73609 0.191568 0
M  V30 7243 H 691.577 4.91449 0.271704 0
M  V30 7244 N 693.229 0.160201 1.56784 0
M  V30 7245 C 694.454 -0.497373 2.01348 0
M  V30 7246 C 694.879 -1.56757 1.03966 0
M  V30 7247 O 694.237 -1.81292 0.0174455 0
M  V30 7248 C 694.285 -1.0628 3.44582 0
M  V30 7249 O 693.389 -2.17723 3.50244 0
M  V30 7250 H 692.73 -0.120295 0.653012 0
M  V30 7251 H 695.26 0.260821 2.02931 0
M  V30 7252 H 695.27 -1.38819 3.83658 0
M  V30 7253 H 693.945 -0.279166 4.14962 0
M  V30 7254 H 692.522 -1.86313 3.2302 0
M  V30 7255 N 694.707 -1.5719 -0.113559 0
M  V30 7256 C 695.954 -1.85138 -0.820382 0
M  V30 7257 C 696.282 -0.74608 -1.79622 0
M  V30 7258 O 695.537 0.262077 -1.93937 0
M  V30 7259 C 695.836 -3.19593 -1.59984 0
M  V30 7260 C 695.502 -4.44315 -0.767809 0
M  V30 7261 C 694.164 -4.78179 -0.538379 0
M  V30 7262 C 696.516 -5.2086 -0.188203 0
M  V30 7263 C 693.844 -5.86028 0.28082 0
M  V30 7264 C 696.196 -6.29572 0.618217 0
M  V30 7265 C 694.86 -6.61964 0.857912 0
M  V30 7266 H 694.13 -0.677467 -0.300199 0
M  V30 7267 H 696.777 -1.91322 -0.0825443 0
M  V30 7268 H 695.082 -3.0901 -2.40874 0
M  V30 7269 H 696.779 -3.3844 -2.1508 0
M  V30 7270 H 693.369 -4.17786 -0.956724 0
M  V30 7271 H 697.553 -4.95045 -0.352658 0
M  V30 7272 H 692.809 -6.09547 0.475693 0
M  V30 7273 H 696.983 -6.88064 1.0743 0
M  V30 7274 H 694.61 -7.45365 1.49451 0
M  V30 7275 N 696.185 0.383891 -1.52853 0
M  V30 7276 C 697.148 1.45197 -1.77343 0
M  V30 7277 C 698.148 1.47362 -0.643522 0
M  V30 7278 O 699.338 1.48443 -0.911613 0
M  V30 7279 C 696.47 2.8445 -1.87885 0
M  V30 7280 H 697.663 1.24764 -2.72716 0
M  V30 7281 H 695.216 0.615939 -1.43652 0
M  V30 7282 H 695.951 3.10222 -0.94515 0
M  V30 7283 H 695.736 2.8428 -2.70051 0
M  V30 7284 H 697.226 3.61832 -2.08488 0
M  V30 7285 N 697.663 1.43903 0.642637 0
M  V30 7286 C 698.888 1.49758 1.43483 0
M  V30 7287 C 699.313 0.119911 1.87717 0
M  V30 7288 O 698.671 -0.888558 1.58033 0
M  V30 7289 C 698.719 2.45744 2.63898 0
M  V30 7290 O 697.823 1.95101 3.63331 0
M  V30 7291 H 697.164 0.506138 0.429791 0
M  V30 7292 H 699.694 1.88923 0.785438 0
M  V30 7293 H 699.704 2.63399 3.11584 0
M  V30 7294 H 698.379 3.45818 2.31046 0
M  V30 7295 H 696.956 1.87158 3.22531 0
M  V30 7296 N 699.141 -0.881989 1.30609 0
M  V30 7297 C 700.071 -2.00413 1.1982 0
M  V30 7298 C 701.052 -1.69871 0.0881538 0
M  V30 7299 O 702.237 -1.92304 0.2707 0
M  V30 7300 C 699.367 -3.35641 0.89233 0
M  V30 7301 C 698.321 -3.80451 1.96064 0
M  V30 7302 C 697.647 -5.13003 1.5077 0
M  V30 7303 C 698.947 -3.98855 3.37213 0
M  V30 7304 H 700.641 -2.09698 2.13699 0
M  V30 7305 H 698.187 -1.00754 1.02882 0
M  V30 7306 H 700.14 -4.13669 0.803497 0
M  V30 7307 H 698.864 -3.26497 -0.0821381 0
M  V30 7308 H 697.523 -3.04654 2.03916 0
M  V30 7309 H 697.171 -5.0029 0.521417 0
M  V30 7310 H 696.871 -5.43956 2.22229 0
M  V30 7311 H 698.395 -5.93554 1.43271 0
M  V30 7312 H 699.809 -4.67312 3.32103 0
M  V30 7313 H 698.206 -4.41188 4.06784 0
M  V30 7314 H 699.276 -3.02614 3.78883 0
M  V30 7315 N 700.619 -1.13374 -1.09472 0
M  V30 7316 C 701.866 -0.89519 -1.81639 0
M  V30 7317 C 702.194 0.57868 -1.85692 0
M  V30 7318 O 701.449 1.44426 -1.32059 0
M  V30 7319 C 701.748 -1.42759 -3.2765 0
M  V30 7320 C 701.414 -2.91822 -3.43731 0
M  V30 7321 C 700.076 -3.32521 -3.47827 0
M  V30 7322 C 702.428 -3.87727 -3.48307 0
M  V30 7323 C 699.756 -4.6781 -3.54078 0
M  V30 7324 C 702.108 -5.22859 -3.56091 0
M  V30 7325 C 700.772 -5.63086 -3.58456 0
M  V30 7326 H 700.042 -0.327573 -0.664663 0
M  V30 7327 H 702.689 -1.4156 -1.28969 0
M  V30 7328 H 700.994 -0.827871 -3.82954 0
M  V30 7329 H 702.691 -1.2191 -3.8202 0
M  V30 7330 H 699.281 -2.5935 -3.41226 0
M  V30 7331 H 703.465 -3.57371 -3.44383 0
M  V30 7332 H 698.721 -4.98353 -3.54195 0
M  V30 7333 H 702.895 -5.96989 -3.58577 0
M  V30 7334 H 700.522 -6.67905 -3.63052 0
M  V30 7335 N 702.098 1.27442 -0.927168 0
M  V30 7336 C 703.509 1.76385 -0.611979 0
M  V30 7337 C 703.86 1.75715 0.872853 0
M  V30 7338 O 702.985 1.3603 1.683 0
M  V30 7339 C 703.58 3.20303 -1.10414 0
M  V30 7340 C 702.139 3.66916 -0.839628 0
M  V30 7341 C 701.286 2.46859 -1.26317 0
M  V30 7342 H 704.237 1.13716 -1.107 0
M  V30 7343 H 704.258 3.77811 -0.451578 0
M  V30 7344 H 703.77 3.20759 -2.18484 0
M  V30 7345 H 701.871 3.71906 0.227292 0
M  V30 7346 H 701.984 4.56415 -1.45679 0
M  V30 7347 H 700.348 2.45407 -0.681723 0
M  V30 7348 H 701.131 2.50025 -2.3525 0
M  V30 7349 N 703.576 0.692616 1.41565 0
M  V30 7350 C 704.506 0.0397325 2.33466 0
M  V30 7351 C 705.487 -0.770334 1.51657 0
M  V30 7352 O 706.672 -0.723903 1.80203 0
M  V30 7353 C 703.802 -0.899495 3.3545 0
M  V30 7354 C 702.756 -0.196738 4.27548 0
M  V30 7355 C 702.082 -1.25012 5.19881 0
M  V30 7356 C 703.382 0.935158 5.1386 0
M  V30 7357 H 705.076 0.807296 2.88311 0
M  V30 7358 H 702.622 0.389665 1.38628 0
M  V30 7359 H 704.575 -1.36545 3.98665 0
M  V30 7360 H 703.299 -1.69869 2.78948 0
M  V30 7361 H 701.958 0.249158 3.65752 0
M  V30 7362 H 701.606 -2.04177 4.59696 0
M  V30 7363 H 701.306 -0.784931 5.82334 0
M  V30 7364 H 702.83 -1.71665 5.85972 0
M  V30 7365 H 704.244 0.549619 5.70659 0
M  V30 7366 H 702.641 1.32726 5.85238 0
M  V30 7367 H 703.711 1.77613 4.512 0
M  V30 7368 N 705.054 -1.51416 0.437162 0
M  V30 7369 C 706.465 -1.86682 -0.0260005 0
M  V30 7370 C 706.816 -1.35432 -1.4196 0
M  V30 7371 O 705.941 -0.705055 -2.04592 0
M  V30 7372 C 706.536 -3.38757 -0.0539577 0
M  V30 7373 C 705.095 -3.7356 -0.461532 0
M  V30 7374 C 704.242 -2.75134 0.345924 0
M  V30 7375 H 707.193 -1.44642 0.653013 0
M  V30 7376 H 707.214 -3.70573 -0.863478 0
M  V30 7377 H 706.726 -3.76028 0.96045 0
M  V30 7378 H 704.827 -3.41878 -1.48155 0
M  V30 7379 H 704.94 -4.78737 -0.186451 0
M  V30 7380 H 703.304 -2.53947 -0.195739 0
M  V30 7381 H 704.087 -3.15247 1.35921 0
M  V30 7382 N 706.532 -0.168513 -1.56696 0
M  V30 7383 C 707.78 0.476216 -1.96409 0
M  V30 7384 C 708.101 1.63968 -1.05544 0
M  V30 7385 O 707.371 1.95525 -0.121235 0
M  V30 7386 H 705.951 0.178921 -0.725256 0
M  V30 7387 H 708.613 -0.249042 -1.93302 0
M  V30 7388 H 707.709 0.838094 -3.00637 0
M  V30 7389 N 708.01 1.57248 0.105221 0
M  V30 7390 C 708.94 2.04374 1.12931 0
M  V30 7391 C 709.921 0.93074 1.42377 0
M  V30 7392 O 711.106 1.20136 1.52581 0
M  V30 7393 C 708.236 2.45967 2.45189 0
M  V30 7394 C 707.19 3.60838 2.30174 0
M  V30 7395 C 706.516 3.88374 3.67518 0
M  V30 7396 C 707.816 4.92084 1.75073 0
M  V30 7397 H 709.51 2.9018 0.737287 0
M  V30 7398 H 707.056 1.39601 0.353211 0
M  V30 7399 H 709.009 2.77542 3.17094 0
M  V30 7400 H 707.733 1.57148 2.86308 0
M  V30 7401 H 706.392 3.29493 1.60716 0
M  V30 7402 H 706.04 2.96739 4.06147 0
M  V30 7403 H 705.74 4.65703 3.58321 0
M  V30 7404 H 707.264 4.22415 4.40906 0
M  V30 7405 H 708.678 5.22106 2.36809 0
M  V30 7406 H 707.075 5.73507 1.76662 0
M  V30 7407 H 708.145 4.79684 0.709347 0
M  V30 7408 N 709.488 -0.375779 1.53054 0
M  V30 7409 C 710.899 -0.95309 1.6054 0
M  V30 7410 C 711.25 -1.90575 0.466446 0
M  V30 7411 O 710.375 -2.12507 -0.408609 0
M  V30 7412 C 710.97 -1.73537 2.90982 0
M  V30 7413 C 709.529 -2.26218 3.00836 0
M  V30 7414 C 708.676 -1.07157 2.55759 0
M  V30 7415 H 711.627 -0.154895 1.57942 0
M  V30 7416 H 711.648 -2.59574 2.78211 0
M  V30 7417 H 711.16 -1.04176 3.73857 0
M  V30 7418 H 709.261 -2.98852 2.22527 0
M  V30 7419 H 709.374 -2.54799 4.05727 0
M  V30 7420 H 707.738 -1.43553 2.10391 0
M  V30 7421 H 708.521 -0.393099 3.41042 0
M  V30 7422 N 710.966 -1.44241 -0.634997 0
M  V30 7423 C 712.243 -1.37296 -1.39317 0
M  V30 7424 C 712.623 -0.0297532 -2.11079 0
M  V30 7425 O 711.971 0.987524 -2.06059 0
M  V30 7426 C 712.181 -2.56853 -2.36279 0
M  V30 7427 C 713.529 -3.00747 -2.99728 0
M  V30 7428 O 714.553 -2.5703 -2.46605 0
M  V30 7429 O 713.412 -3.76533 -3.96087 0
M  V30 7430 H 710.506 -0.543503 -0.623325 0
M  V30 7431 H 713.052 -1.56324 -0.660376 0
M  V30 7432 H 711.824 -3.46228 -1.82324 0
M  V30 7433 H 711.447 -2.40019 -3.16981 0
M  V30 7434 N 712.444 0.87505 -1.31075 0
M  V30 7435 C 713.691 1.62768 -1.20469 0
M  V30 7436 C 714.019 1.93034 0.23834 0
M  V30 7437 O 713.274 1.55693 1.18567 0
M  V30 7438 C 713.573 2.96948 -1.98888 0
M  V30 7439 C 713.239 2.86195 -3.4843 0
M  V30 7440 C 711.901 2.82969 -3.89207 0
M  V30 7441 C 714.253 2.73599 -4.43614 0
M  V30 7442 C 711.581 2.64999 -5.23443 0
M  V30 7443 C 713.933 2.57166 -5.77969 0
M  V30 7444 C 712.597 2.52321 -6.17973 0
M  V30 7445 H 711.867 0.595611 -0.440827 0
M  V30 7446 H 714.514 1.01665 -1.62285 0
M  V30 7447 H 712.819 3.62058 -1.49737 0
M  V30 7448 H 714.516 3.54164 -1.88067 0
M  V30 7449 H 711.106 2.8952 -3.16032 0
M  V30 7450 H 715.29 2.7515 -4.13045 0
M  V30 7451 H 710.546 2.5967 -5.53517 0
M  V30 7452 H 714.72 2.46396 -6.51354 0
M  V30 7453 H 712.347 2.38156 -7.21932 0
M  V30 7454 O 713.961 1.25897 1.01154 0
M  V30 7455 H 714.652 1.04518 1.63082 0
M  V30 END ATOM
M  V30 BEGIN BOND
M  V30 END BOND
M  V30 END CTAB
M  END
$$$$
