drugbank_target|Q9NWZ5 Uridine-cytidine kinase-like 1 (DB01632; DB03419; DB03685; DB04137)
 OpenBabel12092120553D

  0  0  0     0  0            999 V3000
M  V30 BEGIN CTAB
M  V30 COUNTS 8625 8711 0 0 0
M  V30 BEGIN ATOM
M  V30 1 H -0.908 1.98254 -0.117106 0
M  V30 2 N 0 1.576 0 0
M  V30 3 C 0.933 2.03868 1.02534 0
M  V30 4 C 1.911 0.928543 1.3348 0
M  V30 5 O 3.095 1.19667 1.45644 0
M  V30 6 C 0.222 2.43627 2.35294 0
M  V30 7 C -0.732 3.65373 2.2001 0
M  V30 8 S 0.101 5.13292 1.52614 0
M  V30 9 C 1.257 5.56322 2.86805 0
M  V30 10 H 1.49 2.90518 0.631377 0
M  V30 11 H -0.977 1.52953 0.210867 0
M  V30 12 H 0.981 2.67203 3.11629 0
M  V30 13 H -0.358 1.57376 2.7183 0
M  V30 14 H -1.165 3.90944 3.18086 0
M  V30 15 H -1.563 3.418 1.51819 0
M  V30 16 H 0.729 5.58782 3.83104 0
M  V30 17 H 1.672 6.56266 2.65933 0
M  V30 18 H 2.08 4.83886 2.90714 0
M  V30 19 N 1.4781 -0.272755 1.55222 0
M  V30 20 C 2.4411 -1.32041 1.87344 0
M  V30 21 C 3.4411 -1.42342 0.74803 0
M  V30 22 O 4.6311 -1.41488 1.0162 0
M  V30 23 C 1.7631 -2.70173 2.07893 0
M  V30 24 H 2.9561 -1.04789 2.80997 0
M  V30 25 H 0.5091 -0.51083 1.47717 0
M  V30 26 H 1.2441 -3.02605 1.16622 0
M  V30 27 H 1.0291 -2.64082 2.89833 0
M  V30 28 H 2.5191 -3.45869 2.34017 0
M  V30 29 N 2.9562 -1.48159 -0.537278 0
M  V30 30 C 3.9192 -1.61665 -1.62472 0
M  V30 31 C 4.9192 -0.490395 -1.5314 0
M  V30 32 O 6.1092 -0.755998 -1.5694 0
M  V30 33 C 3.2412 -1.57997 -3.02076 0
M  V30 34 H 4.4342 -2.58621 -1.51839 0
M  V30 35 H 1.9872 -1.36647 -0.758771 0
M  V30 36 H 2.7222 -0.624913 -3.18222 0
M  V30 37 H 2.5072 -2.39755 -3.10258 0
M  V30 38 H 3.9972 -1.70627 -3.81151 0
M  V30 39 N 4.4343 0.785586 -1.36625 0
M  V30 40 C 5.8453 1.36101 -1.27803 0
M  V30 41 C 6.1963 1.96035 0.0804875 0
M  V30 42 O 5.3213 1.92834 0.982042 0
M  V30 43 C 5.9163 2.47442 -2.31426 0
M  V30 44 C 4.4753 3.00789 -2.26281 0
M  V30 45 C 3.6223 1.73896 -2.15999 0
M  V30 46 H 6.5733 0.586928 -1.47448 0
M  V30 47 H 6.5943 3.2656 -1.95291 0
M  V30 48 H 6.1063 2.03791 -3.30289 0
M  V30 49 H 4.2073 3.48851 -1.30896 0
M  V30 50 H 4.3203 3.57343 -3.19128 0
M  V30 51 H 2.6843 1.9628 -1.62316 0
M  V30 52 H 3.4673 1.32368 -3.16755 0
M  V30 53 N 5.9124 1.20967 1.01018 0
M  V30 54 C 7.3234 1.02319 1.56165 0
M  V30 55 C 7.6744 -0.418546 1.91684 0
M  V30 56 O 6.7994 -1.30096 1.72928 0
M  V30 57 C 7.3944 1.85109 2.8376 0
M  V30 58 C 5.9534 1.70809 3.35412 0
M  V30 59 C 5.1004 1.82643 2.08655 0
M  V30 60 H 8.0514 1.35065 0.833255 0
M  V30 61 H 8.0724 1.35827 3.55431 0
M  V30 62 H 7.5844 2.90035 2.57878 0
M  V30 63 H 5.6854 0.685464 3.66241 0
M  V30 64 H 5.7984 2.52467 4.07182 0
M  V30 65 H 4.1624 1.25896 2.21409 0
M  V30 66 H 4.9454 2.89066 1.85191 0
M  V30 67 N 7.3905 -1.2043 1.01659 0
M  V30 68 C 8.3535 -2.21433 0.591616 0
M  V30 69 C 9.3535 -1.57203 -0.338226 0
M  V30 70 O 10.5435 -1.73737 -0.126918 0
M  V30 71 C 7.6755 -3.40628 -0.136058 0
M  V30 72 H 8.8685 -2.60545 1.48514 0
M  V30 73 H 6.4215 -1.33893 0.806379 0
M  V30 74 H 7.1565 -3.07019 -1.04449 0
M  V30 75 H 6.9415 -3.88475 0.531917 0
M  V30 76 H 8.4315 -4.15475 -0.420735 0
M  V30 77 N 8.8686 -0.792821 -1.36206 0
M  V30 78 C 10.2846 -0.474903 -1.52371 0
M  V30 79 C 10.4846 1.00622 -1.74578 0
M  V30 80 O 9.5406 1.79162 -1.77924 0
M  V30 81 C 10.8536 -1.3083 -2.70747 0
M  V30 82 C 12.4016 -1.30234 -2.84619 0
M  V30 83 C 12.8766 -2.11956 -4.06004 0
M  V30 84 N 14.3676 -2.09419 -4.13156 0
M  V30 85 C 15.1026 -2.69419 -5.06163 0
M  V30 86 N 14.5986 -3.3829 -6.04592 0
M  V30 87 N 16.3916 -2.59134 -4.98804 0
M  V30 88 H 8.5426 -1.75222 -1.20046 0
M  V30 89 H 10.8056 -0.745024 -0.586211 0
M  V30 90 H 10.5116 -2.35881 -2.6087 0
M  V30 91 H 10.3856 -0.95196 -3.6499 0
M  V30 92 H 12.7726 -0.259748 -2.93955 0
M  V30 93 H 12.8536 -1.69847 -1.91274 0
M  V30 94 H 12.4976 -3.16248 -3.97429 0
M  V30 95 H 12.4276 -1.69711 -4.98503 0
M  V30 96 H 14.9186 -1.59297 -3.42685 0
M  V30 97 H 15.2316 -3.81394 -6.7213 0
M  V30 98 H 13.5766 -3.42393 -6.04807 0
M  V30 99 H 16.7676 -2.04927 -4.20859 0
M  V30 100 H 16.9406 -3.06185 -5.711 0
M  V30 101 N 10.3467 1.47872 -0.545128 0
M  V30 102 C 11.3097 2.28337 0.198717 0
M  V30 103 C 12.3097 1.36255 0.853888 0
M  V30 104 O 13.4997 1.59003 0.711606 0
M  V30 105 C 10.6317 3.15585 1.28915 0
M  V30 106 H 11.8247 2.95567 -0.507941 0
M  V30 107 H 9.3777 1.53362 -0.301616 0
M  V30 108 H 10.1127 2.53019 2.02859 0
M  V30 109 H 9.8977 3.83337 0.824309 0
M  V30 110 H 11.3877 3.76243 1.81194 0
M  V30 111 N 11.8248 0.280983 1.55075 0
M  V30 112 C 13.1018 -0.386207 1.91749 0
M  V30 113 C 13.4818 -1.73264 1.20594 0
M  V30 114 O 12.8298 -2.26034 0.334784 0
M  V30 115 C 13.0398 -0.520687 3.45094 0
M  V30 116 C 14.3878 -0.800865 4.16979 0
M  V30 117 O 15.4118 -0.605271 3.5102 0
M  V30 118 O 14.2708 -1.1753 5.33712 0
M  V30 119 H 11.3648 -0.212408 0.799257 0
M  V30 120 H 13.9108 0.327568 1.66509 0
M  V30 121 H 12.6828 0.426633 3.88967 0
M  V30 122 H 12.3058 -1.2837 3.76307 0
M  V30 123 N 13.3029 -1.57598 0.00835791 0
M  V30 124 C 14.2659 -2.07884 -0.965242 0
M  V30 125 C 15.2659 -0.989825 -1.26725 0
M  V30 126 O 16.4559 -1.25218 -1.21104 0
M  V30 127 C 13.5879 -2.52731 -2.28779 0
M  V30 128 H 14.7809 -2.95178 -0.530112 0
M  V30 129 H 12.3339 -1.54458 -0.239283 0
M  V30 130 H 13.0689 -1.68705 -2.76964 0
M  V30 131 H 12.8539 -3.32272 -2.08177 0
M  V30 132 H 14.3439 -2.91933 -2.98605 0
M  V30 133 N 14.781 0.264519 -1.55364 0
M  V30 134 C 16.058 1.01677 -1.67096 0
M  V30 135 C 16.438 2.03996 -0.543015 0
M  V30 136 O 15.786 2.23907 0.45585 0
M  V30 137 C 15.996 1.66596 -3.0667 0
M  V30 138 C 17.344 2.17442 -3.64697 0
M  V30 139 O 18.368 1.76568 -3.09358 0
M  V30 140 O 17.227 2.92439 -4.61673 0
M  V30 141 H 14.321 0.472161 -0.678965 0
M  V30 142 H 16.867 0.259703 -1.67701 0
M  V30 143 H 15.639 0.924962 -3.80211 0
M  V30 144 H 15.262 2.48968 -3.10001 0
M  V30 145 N 16.2591 1.48442 0.529413 0
M  V30 146 C 17.6701 1.5002 1.11134 0
M  V30 147 C 18.0211 0.27031 1.94329 0
M  V30 148 O 17.1461 -0.622507 2.07253 0
M  V30 149 C 17.7411 2.71834 2.02217 0
M  V30 150 C 16.3001 2.76283 2.55627 0
M  V30 151 C 15.4471 2.43542 1.326 0
M  V30 152 H 18.3981 1.5555 0.314641 0
M  V30 153 H 18.4191 2.50384 2.8651 0
M  V30 154 H 17.9311 3.61331 1.41639 0
M  V30 155 H 16.0321 1.90995 3.19924 0
M  V30 156 H 16.1451 3.77725 2.94721 0
M  V30 157 H 14.5091 1.94709 1.64196 0
M  V30 158 H 15.2921 3.3528 0.737734 0
M  V30 159 N 17.7372 -0.778329 1.37039 0
M  V30 160 C 18.9622 -1.57248 1.35233 0
M  V30 161 C 19.3872 -1.87999 -0.0615568 0
M  V30 162 O 18.7452 -1.48734 -1.03672 0
M  V30 163 C 18.7932 -2.86353 2.19167 0
M  V30 164 O 17.8972 -3.80442 1.59178 0
M  V30 165 H 17.2382 -0.476569 0.462362 0
M  V30 166 H 19.7682 -0.963853 1.80474 0
M  V30 167 H 19.7782 -3.35519 2.32145 0
M  V30 168 H 18.4532 -2.63299 3.21942 0
M  V30 169 H 17.0302 -3.39067 1.55203 0
M  V30 170 N 19.2153 -1.21501 -1.00376 0
M  V30 171 C 20.6263 -1.03146 -1.55621 0
M  V30 172 C 20.9773 0.408375 -1.91903 0
M  V30 173 O 20.1023 1.29177 -1.73616 0
M  V30 174 C 20.6973 -1.86612 -2.82775 0
M  V30 175 C 19.2563 -1.72586 -3.34501 0
M  V30 176 C 18.4033 -1.83747 -2.07683 0
M  V30 177 H 21.3543 -1.35505 -0.826081 0
M  V30 178 H 21.3753 -1.3771 -3.54706 0
M  V30 179 H 20.8873 -2.91399 -2.56336 0
M  V30 180 H 18.9883 -0.704877 -3.65872 0
M  V30 181 H 19.1013 -2.54623 -4.05837 0
M  V30 182 H 17.4653 -1.27069 -2.20739 0
M  V30 183 H 18.2483 -2.90044 -1.83655 0
M  V30 184 N 20.6934 1.19889 -1.02296 0
M  V30 185 C 21.9214 1.9339 -0.735399 0
M  V30 186 C 22.3364 1.75148 0.704887 0
M  V30 187 O 21.6934 1.06954 1.47875 0
M  V30 188 C 21.7444 3.45313 -1.06962 0
M  V30 189 O 21.4654 3.62964 -2.45334 0
M  V30 190 C 22.9664 4.35948 -0.804021 0
M  V30 191 H 20.1864 0.61448 -0.269546 0
M  V30 192 H 22.7304 1.522 -1.36585 0
M  V30 193 H 20.8854 3.84359 -0.484455 0
M  V30 194 H 21.2994 4.56886 -2.57595 0
M  V30 195 H 22.7734 5.41174 -1.0879 0
M  V30 196 H 23.2504 4.3842 0.261691 0
M  V30 197 H 23.8564 4.02574 -1.37164 0
M  V30 198 N 22.1715 0.800033 1.35784 0
M  V30 199 C 23.3965 0.388511 2.03729 0
M  V30 200 C 23.8215 -0.990481 1.5991 0
M  V30 201 O 23.1795 -1.64013 0.772612 0
M  V30 202 C 23.2275 0.4726 3.5749 0
M  V30 203 O 22.3315 -0.51646 4.09153 0
M  V30 204 H 21.6725 0.163271 0.643614 0
M  V30 205 H 24.2025 1.0841 1.73518 0
M  V30 206 H 24.2125 0.34003 4.06581 0
M  V30 207 H 22.8875 1.47848 3.88734 0
M  V30 208 H 21.4645 -0.344673 3.71304 0
M  V30 209 N 23.6496 -1.47581 0.552962 0
M  V30 210 C 25.0606 -1.86324 0.118463 0
M  V30 211 C 25.4116 -1.46006 -1.3106 0
M  V30 212 O 24.5366 -0.861182 -1.98526 0
M  V30 213 C 25.1316 -3.3816 0.20821 0
M  V30 214 C 23.6906 -3.7601 -0.171226 0
M  V30 215 C 22.8376 -2.71634 0.557686 0
M  V30 216 H 25.7886 -1.39159 0.762928 0
M  V30 217 H 25.8096 -3.76141 -0.574278 0
M  V30 218 H 25.3216 -3.67473 1.24841 0
M  V30 219 H 23.4226 -3.52313 -1.21269 0
M  V30 220 H 23.5356 -4.78745 0.184379 0
M  V30 221 H 21.8996 -2.547 0.00125792 0
M  V30 222 H 22.6826 -3.0379 1.59896 0
M  V30 223 N 25.1277 -0.289203 -1.54924 0
M  V30 224 C 26.5387 0.205791 -1.85562 0
M  V30 225 C 26.8897 1.54351 -1.2112 0
M  V30 226 O 26.0147 2.10435 -0.504601 0
M  V30 227 C 26.6097 0.380177 -3.3666 0
M  V30 228 C 25.1687 0.819395 -3.67373 0
M  V30 229 C 24.3157 -0.079159 -2.77187 0
M  V30 230 H 27.2667 -0.510577 -1.50262 0
M  V30 231 H 27.2877 1.21659 -3.60526 0
M  V30 232 H 26.7997 -0.593589 -3.83534 0
M  V30 233 H 24.9007 1.80413 -3.26009 0
M  V30 234 H 25.0137 0.646957 -4.74712 0
M  V30 235 H 23.3777 0.439565 -2.50878 0
M  V30 236 H 24.1607 -1.04906 -3.26878 0
M  V30 237 N 26.6058 1.57591 -0.0167156 0
M  V30 238 C 27.8338 1.95575 0.675128 0
M  V30 239 C 28.2488 0.892542 1.6637 0
M  V30 240 O 27.6058 -0.126912 1.82058 0
M  V30 241 C 27.6568 3.33608 1.39239 0
M  V30 242 O 27.3778 4.3585 0.443444 0
M  V30 243 C 28.8788 3.86151 2.17721 0
M  V30 244 H 26.0988 0.644423 0.186978 0
M  V30 245 H 28.6428 2.0437 -0.0728 0
M  V30 246 H 26.7978 3.2607 2.09182 0
M  V30 247 H 27.2118 5.158 0.951358 0
M  V30 248 H 28.6858 4.85114 2.63379 0
M  V30 249 H 29.1628 3.19738 3.01105 0
M  V30 250 H 29.7688 3.96918 1.52761 0
M  V30 251 N 28.0839 -0.256276 1.55502 0
M  V30 252 C 29.0469 -1.30047 1.88734 0
M  V30 253 C 30.0469 -1.4154 0.763086 0
M  V30 254 O 31.2369 -1.40403 1.03115 0
M  V30 255 C 28.3689 -2.67953 2.10747 0
M  V30 256 H 29.5619 -1.01802 2.82093 0
M  V30 257 H 27.1149 -0.495134 1.4825 0
M  V30 258 H 27.8499 -3.01351 1.19825 0
M  V30 259 H 27.6349 -2.60993 2.92617 0
M  V30 260 H 29.1249 -3.43368 2.37673 0
M  V30 261 N 29.562 -1.4872 -0.521534 0
M  V30 262 C 30.978 -1.35028 -0.850855 0
M  V30 263 C 31.178 -0.367712 -1.98116 0
M  V30 264 O 30.234 0.208037 -2.51642 0
M  V30 265 C 31.547 -2.75263 -1.21041 0
M  V30 266 C 33.095 -2.83813 -1.31981 0
M  V30 267 C 33.57 -4.24769 -1.71276 0
M  V30 268 N 35.061 -4.27482 -1.78363 0
M  V30 269 C 35.796 -5.33494 -2.1017 0
M  V30 270 N 35.292 -6.49775 -2.40343 0
M  V30 271 N 37.085 -5.20894 -2.11248 0
M  V30 272 H 29.236 -2.11214 0.22413 0
M  V30 273 H 31.499 -0.947252 0.0376439 0
M  V30 274 H 31.205 -3.48765 -0.453415 0
M  V30 275 H 31.079 -3.09327 -2.15863 0
M  V30 276 H 33.466 -2.10561 -2.06756 0
M  V30 277 H 33.547 -2.53358 -0.352596 0
M  V30 278 H 33.191 -4.9854 -0.970588 0
M  V30 279 H 33.121 -4.52673 -2.69062 0
M  V30 280 H 35.612 -3.43611 -1.57288 0
M  V30 281 H 35.925 -7.26402 -2.63743 0
M  V30 282 H 34.27 -6.53035 -2.37844 0
M  V30 283 H 37.461 -4.29065 -1.87139 0
M  V30 284 H 37.634 -6.03612 -2.35704 0
M  V30 285 N 31.0401 0.771051 -1.3745 0
M  V30 286 C 32.3171 1.519 -1.23231 0
M  V30 287 C 32.6971 2.10383 0.173809 0
M  V30 288 O 32.0451 1.95583 1.18151 0
M  V30 289 C 32.2551 2.59933 -2.32886 0
M  V30 290 C 33.6031 3.27316 -2.70461 0
M  V30 291 O 34.6271 2.70228 -2.32068 0
M  V30 292 O 33.4861 4.30531 -3.36608 0
M  V30 293 H 30.5801 0.672803 -0.480901 0
M  V30 294 H 33.1261 0.807957 -1.49232 0
M  V30 295 H 31.8981 2.14842 -3.27045 0
M  V30 296 H 31.5211 3.38637 -2.08353 0
M  V30 297 N 32.5182 1.22032 0.997298 0
M  V30 298 C 33.7462 1.06841 1.7718 0
M  V30 299 C 34.1612 -0.381325 1.84909 0
M  V30 300 O 33.5182 -1.26437 1.31605 0
M  V30 301 C 33.5692 1.66814 3.20711 0
M  V30 302 O 33.2902 3.06116 3.13408 0
M  V30 303 C 34.7912 1.56838 4.14628 0
M  V30 304 H 32.0112 0.374782 0.556578 0
M  V30 305 H 34.5552 1.61532 1.2541 0
M  V30 306 H 32.7102 1.16196 3.69564 0
M  V30 307 H 33.1242 3.34926 4.0364 0
M  V30 308 H 34.5982 2.03532 5.13107 0
M  V30 309 H 35.0752 0.524155 4.36061 0
M  V30 310 H 35.6812 2.06741 3.7167 0
M  V30 311 N 33.9963 -1.19345 1.0293 0
M  V30 312 C 35.4073 -1.70725 0.755633 0
M  V30 313 C 35.7583 -1.82326 -0.724676 0
M  V30 314 O 34.8833 -1.49471 -1.56484 0
M  V30 315 C 35.4783 -3.10084 1.36503 0
M  V30 316 C 34.0373 -3.58723 1.13994 0
M  V30 317 C 33.1843 -2.35577 1.46283 0
M  V30 318 H 36.1353 -1.0418 1.19718 0
M  V30 319 H 36.1563 -3.72787 0.762217 0
M  V30 320 H 35.6683 -3.01609 2.44241 0
M  V30 321 H 33.7693 -3.72512 0.0807901 0
M  V30 322 H 33.8823 -4.42816 1.82894 0
M  V30 323 H 32.2463 -2.38935 0.88217 0
M  V30 324 H 33.0293 -2.29731 2.55105 0
M  V30 325 N 35.4744 -0.807222 -1.35358 0
M  V30 326 C 36.7224 -0.387122 -1.98358 0
M  V30 327 C 37.0434 1.04942 -1.64354 0
M  V30 328 O 36.3134 1.72615 -0.926339 0
M  V30 329 H 34.8934 -0.140154 -0.733734 0
M  V30 330 H 37.5554 -1.0332 -1.6526 0
M  V30 331 H 36.6514 -0.493352 -3.08176 0
M  V30 332 N 36.9525 1.47285 -0.560781 0
M  V30 333 C 38.3685 1.58065 -0.22081 0
M  V30 334 C 38.5685 1.55892 1.27671 0
M  V30 335 O 37.6245 1.46422 2.0571 0
M  V30 336 C 38.9375 2.88418 -0.850625 0
M  V30 337 C 40.4855 3.02009 -0.822184 0
M  V30 338 C 40.9605 4.35066 -1.43113 0
M  V30 339 N 42.4515 4.41711 -1.39448 0
M  V30 340 C 43.1865 5.43237 -1.83525 0
M  V30 341 N 42.6825 6.51555 -2.35474 0
M  V30 342 N 44.4755 5.34304 -1.74574 0
M  V30 343 H 36.6265 1.46941 -1.53369 0
M  V30 344 H 38.8895 0.699558 -0.639783 0
M  V30 345 H 38.5955 2.95755 -1.9032 0
M  V30 346 H 38.4695 3.75612 -0.345773 0
M  V30 347 H 40.8565 2.94266 0.221714 0
M  V30 348 H 40.9375 2.16347 -1.36483 0
M  V30 349 H 40.5815 4.43565 -2.47412 0
M  V30 350 H 40.5115 5.19465 -0.863899 0
M  V30 351 H 43.0025 3.64027 -1.01452 0
M  V30 352 H 43.3155 7.25203 -2.67021 0
M  V30 353 H 41.6605 6.52435 -2.39487 0
M  V30 354 H 44.8515 4.48581 -1.33763 0
M  V30 355 H 45.0245 6.13288 -2.09242 0
M  V30 356 N 38.4306 0.297415 1.54768 0
M  V30 357 C 39.3626 -0.613881 2.20826 0
M  V30 358 C 40.3756 -1.10032 1.19987 0
M  V30 359 O 41.5646 -1.01839 1.46598 0
M  V30 360 C 38.6646 -1.852 2.83821 0
M  V30 361 C 37.8376 -1.50865 4.10559 0
M  V30 362 C 36.8966 -2.60154 4.57391 0
M  V30 363 O 35.9226 -2.25398 5.2267 0
M  V30 364 N 37.1246 -3.90629 4.29406 0
M  V30 365 H 39.8896 -0.048389 2.99661 0
M  V30 366 H 37.4506 0.11946 1.61459 0
M  V30 367 H 39.4426 -2.57652 3.12086 0
M  V30 368 H 38.0126 -2.32597 2.08847 0
M  V30 369 H 37.2326 -0.616925 3.89343 0
M  V30 370 H 38.5206 -1.25458 4.9309 0
M  V30 371 H 37.9186 -4.21677 3.77101 0
M  V30 372 H 36.4756 -4.59391 4.62388 0
M  V30 373 N 39.9087 -1.5758 0.0250728 0
M  V30 374 C 40.8717 -2.08896 -0.943139 0
M  V30 375 C 41.8717 -1.00321 -1.25668 0
M  V30 376 O 43.0617 -1.26495 -1.19769 0
M  V30 377 C 40.1937 -2.55143 -2.26086 0
M  V30 378 H 41.3867 -2.95723 -0.498775 0
M  V30 379 H 38.9397 -1.54703 -0.222888 0
M  V30 380 H 39.6747 -1.71633 -2.75159 0
M  V30 381 H 39.4597 -3.34461 -2.04641 0
M  V30 382 H 40.9497 -2.95083 -2.95492 0
M  V30 383 N 41.3868 0.248026 -1.55636 0
M  V30 384 C 42.2968 1.32859 -1.93354 0
M  V30 385 C 43.3128 1.52719 -0.833838 0
M  V30 386 O 44.4888 1.66363 -1.13513 0
M  V30 387 C 41.5538 2.66337 -2.21958 0
M  V30 388 C 40.6148 2.55008 -3.45354 0
M  V30 389 C 39.8478 3.82121 -3.72584 0
M  V30 390 O 40.0708 4.83951 -3.01907 0
M  V30 391 O 39.0048 3.80822 -4.6611 0
M  V30 392 H 42.8308 1.03862 -2.85388 0
M  V30 393 H 40.4158 0.448686 -1.42503 0
M  V30 394 H 42.2978 3.45216 -2.4167 0
M  V30 395 H 40.9728 2.95068 -1.33103 0
M  V30 396 H 39.8798 1.7442 -3.30951 0
M  V30 397 H 41.2128 2.31222 -4.34508 0
M  V30 398 N 42.8649 1.48995 0.513639 0
M  V30 399 C 43.8119 1.6473 1.61656 0
M  V30 400 C 44.7819 0.488984 1.58739 0
M  V30 401 O 45.9669 0.714478 1.76918 0
M  V30 402 C 43.1069 1.7082 2.99858 0
M  V30 403 C 42.2199 2.9787 3.12885 0
M  V30 404 C 41.3549 2.95017 4.41744 0
M  V30 405 C 40.3939 4.16702 4.48359 0
M  V30 406 N 39.5309 4.11832 5.68629 0
M  V30 407 H 44.3709 2.58909 1.47547 0
M  V30 408 H 41.9079 1.28382 0.71808 0
M  V30 409 H 43.8659 1.72331 3.79944 0
M  V30 410 H 42.4959 0.801181 3.12699 0
M  V30 411 H 41.5479 3.06029 2.25944 0
M  V30 412 H 42.8599 3.8786 3.13633 0
M  V30 413 H 42.0139 2.95021 5.30139 0
M  V30 414 H 40.7529 2.02784 4.43542 0
M  V30 415 H 39.7579 4.16955 3.58369 0
M  V30 416 H 40.9829 5.10113 4.48287 0
M  V30 417 H 38.9289 3.22428 5.71293 0
M  V30 418 H 38.8459 4.95543 5.7094 0
M  V30 419 H 40.1139 4.1592 6.59266 0
M  V30 420 N 44.343 -0.763751 1.37857 0
M  V30 421 C 45.568 -1.55805 1.36893 0
M  V30 422 C 45.993 -1.88054 -0.0416135 0
M  V30 423 O 45.351 -1.49825 -1.02089 0
M  V30 424 C 45.399 -2.84012 2.22192 0
M  V30 425 O 44.503 -3.78732 1.63204 0
M  V30 426 H 43.844 -0.471638 0.46739 0
M  V30 427 H 46.374 -0.944657 1.81487 0
M  V30 428 H 46.384 -3.33037 2.35691 0
M  V30 429 H 45.059 -2.59869 3.24716 0
M  V30 430 H 43.636 -3.37402 1.58791 0
M  V30 431 N 45.8211 -1.22559 -0.990812 0
M  V30 432 C 46.7311 -1.01394 -2.11557 0
M  V30 433 C 47.7471 0.0383962 -1.73958 0
M  V30 434 O 48.9231 -0.154787 -2.00804 0
M  V30 435 C 45.9881 -0.596569 -3.41529 0
M  V30 436 C 45.0491 -1.72276 -3.93217 0
M  V30 437 C 44.2821 -1.32521 -5.16985 0
M  V30 438 O 44.5051 -0.204909 -5.70032 0
M  V30 439 O 43.4391 -2.14247 -5.62478 0
M  V30 440 H 47.2651 -1.95633 -2.32296 0
M  V30 441 H 44.8501 -1.01172 -1.0993 0
M  V30 442 H 46.7321 -0.374263 -4.19735 0
M  V30 443 H 45.4071 0.316939 -3.22145 0
M  V30 444 H 44.3141 -1.99961 -3.16174 0
M  V30 445 H 45.6471 -2.61421 -4.17037 0
M  V30 446 N 47.2992 1.18797 -1.03562 0
M  V30 447 C 48.5272 1.92599 -0.755869 0
M  V30 448 C 48.9422 1.75886 0.686271 0
M  V30 449 O 48.2992 1.08517 1.46732 0
M  V30 450 C 48.3502 3.44159 -1.10619 0
M  V30 451 O 48.0712 3.60341 -2.4917 0
M  V30 452 C 49.5722 4.3507 -0.850214 0
M  V30 453 H 46.7922 0.611587 -0.276048 0
M  V30 454 H 49.3362 1.50742 -1.38192 0
M  V30 455 H 47.4912 3.83823 -0.525194 0
M  V30 456 H 47.9052 4.54128 -2.62427 0
M  V30 457 H 49.3792 5.39989 -1.14523 0
M  V30 458 H 49.8562 4.38673 0.215176 0
M  V30 459 H 50.4622 4.01097 -1.41426 0
M  V30 460 N 48.7773 0.814389 1.34928 0
M  V30 461 C 49.7403 0.235759 2.27984 0
M  V30 462 C 50.7403 -0.581412 1.49921 0
M  V30 463 O 51.9303 -0.398758 1.69575 0
M  V30 464 C 49.0623 -0.670433 3.34242 0
M  V30 465 H 50.2553 1.05659 2.80671 0
M  V30 466 H 47.8083 0.585614 1.44915 0
M  V30 467 H 48.5433 -1.51466 2.86755 0
M  V30 468 H 48.3283 -0.0860822 3.92005 0
M  V30 469 H 49.8183 -1.06935 4.03676 0
M  V30 470 N 50.2554 -1.46986 0.568584 0
M  V30 471 C 51.4954 -2.04336 0.0512999 0
M  V30 472 C 51.8594 -1.43214 -1.27881 0
M  V30 473 O 53.0604 -1.91679 -1.88448 0
M  V30 474 C 51.3314 -3.57389 -0.0282328 0
M  V30 475 S 52.8904 -4.36056 -0.489991 0
M  V30 476 H 49.7084 -0.71034 0.0306349 0
M  V30 477 H 52.3104 -1.80212 0.757891 0
M  V30 478 H 51.0144 -3.99395 0.944011 0
M  V30 479 H 50.5454 -3.86028 -0.75803 0
M  V30 480 H 52.5604 -4.6441 -1.74752 0
M  V30 481 N 51.7335 -0.305618 -1.54608 0
M  V30 482 C 52.6435 0.57778 -2.27374 0
M  V30 483 C 53.6595 1.14451 -1.31061 0
M  V30 484 O 54.8355 1.16831 -1.6405 0
M  V30 485 C 51.9005 1.73123 -3.00382 0
M  V30 486 C 50.9615 1.19812 -4.12242 0
M  V30 487 C 50.1945 2.2966 -4.81759 0
M  V30 488 O 50.4175 3.49651 -4.50666 0
M  V30 489 O 49.3515 1.96091 -5.69062 0
M  V30 490 H 53.1775 -0.012624 -3.03697 0
M  V30 491 H 50.7625 -0.0719184 -1.49227 0
M  V30 492 H 52.6445 2.40315 -3.4616 0
M  V30 493 H 51.3195 2.30815 -2.26949 0
M  V30 494 H 50.2265 0.491798 -3.70853 0
M  V30 495 H 51.5595 0.666566 -4.87666 0
M  V30 496 N 53.2116 1.57565 -0.0334293 0
M  V30 497 C 54.4886 1.83282 0.683163 0
M  V30 498 C 54.8686 0.91823 1.90084 0
M  V30 499 O 54.2166 -0.025113 2.28486 0
M  V30 500 C 54.4266 3.32599 1.0573 0
M  V30 501 C 55.7746 3.99179 1.44711 0
M  V30 502 O 56.7986 3.3712 1.15015 0
M  V30 503 O 55.6576 5.08565 2.0006 0
M  V30 504 H 52.7516 0.755869 0.335546 0
M  V30 505 H 55.2976 1.69589 -0.0614402 0
M  V30 506 H 54.0696 3.90834 0.190828 0
M  V30 507 H 53.6926 3.51415 1.85993 0
M  V30 508 N 54.6897 -0.239769 1.55765 0
M  V30 509 C 56.1057 -0.588624 1.48349 0
M  V30 510 C 56.3057 -1.88005 0.72502 0
M  V30 511 O 55.3617 -2.51186 0.257269 0
M  V30 512 C 56.6747 -0.68474 2.928 0
M  V30 513 C 58.2227 -0.77659 3.03213 0
M  V30 514 C 58.6977 -0.904207 4.48986 0
M  V30 515 N 60.1887 -0.968896 4.52953 0
M  V30 516 C 60.9237 -1.08703 5.63002 0
M  V30 517 N 60.4197 -1.17026 6.82845 0
M  V30 518 N 62.2127 -1.12074 5.50814 0
M  V30 519 H 54.3637 0.607911 2.03515 0
M  V30 520 H 56.6267 0.21083 0.924259 0
M  V30 521 H 56.3327 0.194284 3.51163 0
M  V30 522 H 56.2067 -1.55435 3.43686 0
M  V30 523 H 58.5937 -1.64606 2.44926 0
M  V30 524 H 58.6747 0.118315 2.55526 0
M  V30 525 H 58.3187 -0.0392633 5.07885 0
M  V30 526 H 58.2487 -1.81426 4.9436 0
M  V30 527 H 60.7397 -0.915633 3.6664 0
M  V30 528 H 61.0527 -1.25966 7.62465 0
M  V30 529 H 59.3977 -1.13971 6.85591 0
M  V30 530 H 62.5887 -1.05226 4.5612 0
M  V30 531 H 62.7617 -1.20936 6.36615 0
M  V30 532 N 56.1678 -1.49265 -0.50573 0
M  V30 533 C 57.3928 -1.62478 -1.28902 0
M  V30 534 C 57.8178 -0.294332 -1.85783 0
M  V30 535 O 57.1758 0.737412 -1.65626 0
M  V30 536 C 57.2238 -2.69268 -2.39848 0
M  V30 537 O 56.3278 -2.28113 -3.43567 0
M  V30 538 H 55.6688 -0.54399 -0.380751 0
M  V30 539 H 58.1988 -1.95421 -0.605952 0
M  V30 540 H 58.2088 -2.91291 -2.85681 0
M  V30 541 H 56.8838 -3.65846 -1.97812 0
M  V30 542 H 55.4608 -2.16401 -3.03685 0
M  V30 543 N 57.6459 0.756429 -1.3826 0
M  V30 544 C 58.5939 1.89149 -1.35372 0
M  V30 545 C 59.5879 1.67691 -0.24004 0
M  V30 546 O 60.7939 1.75294 -0.408919 0
M  V30 547 H 57.1689 0.622271 -0.422236 0
M  V30 548 H 59.1399 1.88701 -2.31159 0
M  V30 549 C 57.8889 3.26599 -1.19284 0
M  V30 550 H 57.2119 3.43695 -2.0424 0
M  V30 551 H 58.6519 4.06274 -1.21316 0
M  V30 552 C 57.1109 3.3675 0.100454 0
M  V30 553 O 57.6409 3.86951 1.07851 0
M  V30 554 N 55.8469 2.90179 0.15633 0
M  V30 555 H 55.3939 2.49517 -0.640253 0
M  V30 556 H 55.3519 2.97352 1.02123 0
M  V30 557 N 59.124 1.23083 0.984299 0
M  V30 558 C 60.087 1.00979 2.05757 0
M  V30 559 C 61.087 -0.0269573 1.60777 0
M  V30 560 O 62.277 0.212403 1.729 0
M  V30 561 C 59.409 0.527072 3.36801 0
M  V30 562 H 60.602 1.9622 2.26799 0
M  V30 563 H 58.155 1.05072 1.15714 0
M  V30 564 H 58.89 -0.429294 3.21446 0
M  V30 565 H 58.675 1.27515 3.70786 0
M  V30 566 H 60.165 0.392942 4.15747 0
M  V30 567 N 60.6021 -1.18246 1.0419 0
M  V30 568 C 61.5121 -2.25574 0.644476 0
M  V30 569 C 62.5281 -1.70845 -0.329826 0
M  V30 570 O 63.7041 -2.00554 -0.184443 0
M  V30 571 C 60.7691 -3.46697 0.014877 0
M  V30 572 C 59.8301 -4.16554 1.03834 0
M  V30 573 C 59.0631 -5.31894 0.438692 0
M  V30 574 O 59.2861 -5.65385 -0.754752 0
M  V30 575 O 58.2201 -5.90459 1.168 0
M  V30 576 H 62.0461 -2.61836 1.53869 0
M  V30 577 H 59.6311 -1.25352 0.812854 0
M  V30 578 H 61.5131 -4.20062 -0.335538 0
M  V30 579 H 60.1881 -3.12255 -0.853138 0
M  V30 580 H 59.0951 -3.45251 1.44057 0
M  V30 581 H 60.4281 -4.54998 1.87716 0
M  V30 582 N 62.0802 -0.821533 -1.34494 0
M  V30 583 C 63.3052 -0.420873 -2.03085 0
M  V30 584 C 63.7302 0.964915 -1.61465 0
M  V30 585 O 63.0882 1.62763 -0.798607 0
M  V30 586 C 63.1362 -0.529414 -3.56693 0
M  V30 587 O 62.2402 0.451302 -4.09923 0
M  V30 588 H 61.5812 -0.173489 -0.640935 0
M  V30 589 H 64.1112 -1.11157 -1.71771 0
M  V30 590 H 64.1212 -0.404671 -4.05988 0
M  V30 591 H 62.7962 -1.54014 -3.86332 0
M  V30 592 H 61.3732 0.285558 -3.71805 0
M  V30 593 N 63.5583 1.46682 -0.576371 0
M  V30 594 C 64.4883 2.33028 0.148397 0
M  V30 595 C 65.4693 1.44961 0.889956 0
M  V30 596 O 66.6543 1.73789 0.866662 0
M  V30 597 C 63.7843 3.27117 1.1667 0
M  V30 598 C 62.7383 4.24575 0.540386 0
M  V30 599 C 62.0643 5.08126 1.6647 0
M  V30 600 C 63.3643 5.19722 -0.518331 0
M  V30 601 H 65.0583 2.93875 -0.572509 0
M  V30 602 H 62.6043 1.41315 -0.276768 0
M  V30 603 H 64.5573 3.86374 1.68204 0
M  V30 604 H 63.2813 2.64364 1.9178 0
M  V30 605 H 61.9403 3.66571 0.0461769 0
M  V30 606 H 61.5883 4.41762 2.40531 0
M  V30 607 H 61.2883 5.74122 1.25131 0
M  V30 608 H 62.8123 5.70246 2.18293 0
M  V30 609 H 64.2263 5.73232 -0.0883058 0
M  V30 610 H 62.6233 5.94026 -0.851679 0
M  V30 611 H 63.6933 4.64037 -1.40703 0
M  V30 612 N 65.0364 0.313813 1.54444 0
M  V30 613 C 66.3134 -0.345447 1.92525 0
M  V30 614 C 66.6934 -1.70667 1.24242 0
M  V30 615 O 66.0414 -2.25273 0.382654 0
M  V30 616 C 66.2514 -0.44737 3.46121 0
M  V30 617 C 67.5994 -0.712238 4.18584 0
M  V30 618 O 68.6234 -0.530678 3.52225 0
M  V30 619 O 67.4824 -1.06183 5.36085 0
M  V30 620 H 64.5764 -0.195407 0.803583 0
M  V30 621 H 67.1224 0.362813 1.65776 0
M  V30 622 H 65.8944 0.509043 3.87975 0
M  V30 623 H 65.5174 -1.20359 3.78945 0
M  V30 624 N 66.5145 -1.57545 0.0417849 0
M  V30 625 C 67.9305 -1.56467 -0.314704 0
M  V30 626 C 68.1305 -1.04859 -1.72066 0
M  V30 627 O 67.1865 -0.700983 -2.42575 0
M  V30 628 C 68.4995 -3.00317 -0.15174 0
M  V30 629 C 70.0475 -3.12201 -0.223553 0
M  V30 630 C 70.5225 -4.57913 -0.0892295 0
M  V30 631 N 72.0135 -4.6297 -0.145808 0
M  V30 632 C 72.7485 -5.73362 -0.0658459 0
M  V30 633 N 72.2445 -6.92769 0.0659282 0
M  V30 634 N 74.0375 -5.6197 -0.12075 0
M  V30 635 H 66.1885 -1.89416 0.961014 0
M  V30 636 H 68.4515 -0.871862 0.372237 0
M  V30 637 H 68.1575 -3.42073 0.817254 0
M  V30 638 H 68.0315 -3.65892 -0.916692 0
M  V30 639 H 70.4185 -2.70349 -1.18301 0
M  V30 640 H 70.4995 -2.49323 0.571994 0
M  V30 641 H 70.1435 -5.00448 0.866867 0
M  V30 642 H 70.0735 -5.18786 -0.903802 0
M  V30 643 H 72.5645 -3.7709 -0.247286 0
M  V30 644 H 72.8775 -7.72707 0.119905 0
M  V30 645 H 71.2225 -6.94927 0.100885 0
M  V30 646 H 74.4135 -4.67572 -0.222187 0
M  V30 647 H 74.5865 -6.47977 -0.0549735 0
M  V30 648 N 67.9926 0.231505 -1.5589 0
M  V30 649 C 68.9226 1.29022 -1.94617 0
M  V30 650 C 69.9036 1.4941 -0.813067 0
M  V30 651 O 71.0886 1.6176 -1.07459 0
M  V30 652 C 68.2186 2.64199 -2.25424 0
M  V30 653 C 67.1726 2.58484 -3.41131 0
M  V30 654 C 66.4986 3.97599 -3.57518 0
M  V30 655 C 67.7986 2.1413 -4.76388 0
M  V30 656 H 69.4926 0.968563 -2.83301 0
M  V30 657 H 67.0386 0.464479 -1.36303 0
M  V30 658 H 68.9916 3.38413 -2.51107 0
M  V30 659 H 67.7156 2.98032 -1.33583 0
M  V30 660 H 66.3746 1.86727 -3.15481 0
M  V30 661 H 66.0226 4.28723 -2.6307 0
M  V30 662 H 65.7226 3.94659 -4.35337 0
M  V30 663 H 67.2466 4.7349 -3.85538 0
M  V30 664 H 68.6606 2.78083 -5.01341 0
M  V30 665 H 67.0576 2.2227 -5.57419 0
M  V30 666 H 68.1276 1.09331 -4.72414 0
M  V30 667 N 69.4707 1.49531 0.497807 0
M  V30 668 C 70.4007 1.6935 1.60757 0
M  V30 669 C 71.3817 0.542218 1.61227 0
M  V30 670 O 72.5667 0.778417 1.77917 0
M  V30 671 C 69.6967 1.76298 2.99226 0
M  V30 672 C 68.6507 2.91248 3.13622 0
M  V30 673 C 67.9767 2.83312 4.53474 0
M  V30 674 C 69.2767 4.3214 2.93346 0
M  V30 675 H 70.9707 2.62263 1.44425 0
M  V30 676 H 68.5167 1.26208 0.693367 0
M  V30 677 H 70.4697 1.88749 3.76765 0
M  V30 678 H 69.1937 0.799871 3.16654 0
M  V30 679 H 67.8527 2.78404 2.38509 0
M  V30 680 H 67.5007 1.84902 4.67782 0
M  V30 681 H 67.2007 3.60465 4.64046 0
M  V30 682 H 68.7247 2.97775 5.33069 0
M  V30 683 H 70.1387 4.45649 3.60652 0
M  V30 684 H 68.5357 5.1054 3.15387 0
M  V30 685 H 69.6057 4.46363 1.89441 0
M  V30 686 N 70.9488 -0.749086 1.3866 0
M  V30 687 C 72.3598 -1.32664 1.31366 0
M  V30 688 C 72.7108 -1.96179 -0.028484 0
M  V30 689 O 71.8358 -1.9537 -0.93057 0
M  V30 690 C 72.4308 -2.41219 2.37905 0
M  V30 691 C 70.9898 -2.94684 2.34176 0
M  V30 692 C 70.1368 -1.68108 2.20533 0
M  V30 693 H 73.0878 -0.547628 1.48952 0
M  V30 694 H 73.1088 -3.21268 2.0388 0
M  V30 695 H 72.6208 -1.94962 3.35576 0
M  V30 696 H 70.7218 -3.45258 1.401 0
M  V30 697 H 70.8348 -3.48757 3.2849 0
M  V30 698 H 69.1988 -1.91907 1.67463 0
M  V30 699 H 69.9818 -1.23923 3.20153 0
M  V30 700 N 72.4269 -1.23603 -0.977757 0
M  V30 701 C 73.8379 -1.06424 -1.53398 0
M  V30 702 C 74.1889 0.367578 -1.92726 0
M  V30 703 O 73.3139 1.25465 -1.76316 0
M  V30 704 C 73.9089 -1.92568 -2.78753 0
M  V30 705 C 72.4679 -1.79642 -3.30765 0
M  V30 706 C 71.6149 -1.88111 -2.03739 0
M  V30 707 H 74.5659 -1.37227 -0.797152 0
M  V30 708 H 74.5869 -1.45203 -3.51705 0
M  V30 709 H 74.0989 -2.96771 -2.50098 0
M  V30 710 H 72.1999 -0.782325 -3.64294 0
M  V30 711 H 72.3129 -2.63174 -4.00345 0
M  V30 712 H 70.6769 -1.31723 -2.17994 0
M  V30 713 H 71.4599 -2.93875 -1.77461 0
M  V30 714 N 73.905 1.17692 -1.04816 0
M  V30 715 C 75.151 1.88137 -0.75711 0
M  V30 716 C 75.484 1.80604 0.713841 0
M  V30 717 O 74.759 1.21146 1.52164 0
M  V30 718 C 75.042 3.38318 -1.2334 0
M  V30 719 C 74.895 3.54622 -2.76701 0
M  V30 720 C 76.214 4.32214 -0.829415 0
M  V30 721 H 73.333 0.683163 -0.27651 0
M  V30 722 H 75.975 1.38424 -1.30149 0
M  V30 723 H 74.125 3.80787 -0.770286 0
M  V30 724 H 75.797 3.21194 -3.31107 0
M  V30 725 H 74.04 2.97026 -3.16161 0
M  V30 726 H 74.711 4.60028 -3.05088 0
M  V30 727 H 77.187 3.97565 -1.22805 0
M  V30 728 H 76.063 5.35838 -1.19033 0
M  V30 729 H 76.324 4.41294 0.266891 0
M  V30 730 N 75.3831 0.828654 1.34056 0
M  V30 731 C 76.6311 0.41863 1.97717 0
M  V30 732 C 76.9521 -1.02314 1.66002 0
M  V30 733 O 76.2221 -1.71119 0.953683 0
M  V30 734 H 74.8021 0.151809 0.731412 0
M  V30 735 H 77.4641 1.05936 1.63596 0
M  V30 736 H 76.5601 0.542318 3.07352 0
M  V30 737 N 76.8612 -1.46375 0.584142 0
M  V30 738 C 78.0892 -2.06761 0.0759296 0
M  V30 739 C 78.5042 -1.43266 -1.22965 0
M  V30 740 O 77.8612 -0.538458 -1.74376 0
M  V30 741 C 77.9122 -3.61375 -0.0950384 0
M  V30 742 O 77.6332 -4.22495 1.15887 0
M  V30 743 C 79.1342 -4.38693 -0.637434 0
M  V30 744 H 76.3542 -0.668479 0.0581075 0
M  V30 745 H 78.8982 -1.8798 0.805218 0
M  V30 746 H 77.0532 -3.79578 -0.774554 0
M  V30 747 H 77.4672 -5.15385 0.973598 0
M  V30 748 H 78.9412 -5.47464 -0.706237 0
M  V30 749 H 79.4182 -4.06836 -1.65472 0
M  V30 750 H 80.0242 -4.25299 0.00725967 0
M  V30 751 N 78.3393 -0.321999 -1.54275 0
M  V30 752 C 79.5873 0.280489 -2.00144 0
M  V30 753 C 79.9083 1.52777 -1.21178 0
M  V30 754 O 79.1783 1.9338 -0.313187 0
M  V30 755 H 77.7583 0.106632 -0.73935 0
M  V30 756 H 80.4203 -0.438184 -1.8991 0
M  V30 757 H 79.5163 0.537972 -3.07428 0
M  V30 758 N 79.8174 1.5752 -0.0501392 0
M  V30 759 C 81.2334 1.56631 0.306402 0
M  V30 760 C 81.4334 1.0577 1.71508 0
M  V30 761 O 80.4894 0.713837 2.422 0
M  V30 762 C 81.8024 3.00393 0.135811 0
M  V30 763 C 83.3504 3.12315 0.206993 0
M  V30 764 C 83.8254 4.57954 0.064944 0
M  V30 765 N 85.3164 4.63041 0.121254 0
M  V30 766 C 86.0514 5.73389 0.0354381 0
M  V30 767 N 85.5474 6.92724 -0.102666 0
M  V30 768 N 87.3404 5.62026 0.090946 0
M  V30 769 H 79.4914 1.88903 -0.971046 0
M  V30 770 H 81.7544 0.869876 -0.376855 0
M  V30 771 H 81.4604 3.41635 -0.835384 0
M  V30 772 H 81.3344 3.66373 0.897275 0
M  V30 773 H 83.7214 2.70973 1.16866 0
M  V30 774 H 83.8024 2.49016 -0.585208 0
M  V30 775 H 83.4464 4.99981 -0.893394 0
M  V30 776 H 83.3764 5.19258 0.876277 0
M  V30 777 H 85.8674 3.77216 0.227284 0
M  V30 778 H 86.1804 7.72633 -0.160882 0
M  V30 779 H 84.5254 6.94864 -0.137737 0
M  V30 780 H 87.7164 4.67684 0.197388 0
M  V30 781 H 87.8894 6.47997 0.0206089 0
M  V30 782 N 81.2955 -0.223234 1.56011 0
M  V30 783 C 82.5205 -0.968978 1.83373 0
M  V30 784 C 82.9455 -1.77227 0.630254 0
M  V30 785 O 82.3035 -1.76345 -0.420959 0
M  V30 786 C 82.3515 -1.86363 3.08709 0
M  V30 787 O 81.4555 -2.95873 2.87285 0
M  V30 788 H 80.7965 -0.274461 0.604622 0
M  V30 789 H 83.3265 -0.237056 2.03222 0
M  V30 790 H 83.3365 -2.27376 3.38768 0
M  V30 791 H 82.0115 -1.27319 3.95933 0
M  V30 792 H 80.5885 -2.58818 2.68454 0
M  V30 793 N 82.7736 -1.49793 -0.48987 0
M  V30 794 C 84.1846 -1.52914 -1.07118 0
M  V30 795 C 84.5356 -0.321738 -1.93544 0
M  V30 796 O 83.6606 0.567338 -2.08831 0
M  V30 797 C 84.2556 -2.771 -1.94938 0
M  V30 798 C 82.8146 -2.82963 -2.48212 0
M  V30 799 C 81.9616 -2.46972 -1.26096 0
M  V30 800 H 84.9126 -1.56329 -0.273289 0
M  V30 801 H 84.9336 -2.57892 -2.79771 0
M  V30 802 H 84.4456 -3.64959 -1.32009 0
M  V30 803 H 82.5466 -1.99411 -3.14748 0
M  V30 804 H 82.6596 -3.85406 -2.84603 0
M  V30 805 H 81.0236 -1.98994 -1.58976 0
M  V30 806 H 81.8066 -3.37118 -0.648581 0
M  V30 807 N 84.2517 0.741722 -1.39055 0
M  V30 808 C 85.6677 1.04638 -1.20512 0
M  V30 809 C 85.8677 2.01405 -0.0620218 0
M  V30 810 O 84.9237 2.45547 0.588457 0
M  V30 811 C 86.2367 1.6151 -2.53643 0
M  V30 812 C 87.7847 1.73623 -2.6043 0
M  V30 813 C 88.2597 2.33906 -3.93767 0
M  V30 814 N 89.7507 2.41323 -3.9537 0
M  V30 815 C 90.4857 2.88888 -4.95309 0
M  V30 816 N 89.9817 3.36401 -6.05645 0
M  V30 817 N 91.7747 2.88037 -4.82692 0
M  V30 818 H 83.9257 0.0998155 -2.12165 0
M  V30 819 H 86.1887 0.106907 -0.941953 0
M  V30 820 H 85.8947 0.978739 -3.37807 0
M  V30 821 H 85.7687 2.60411 -2.72885 0
M  V30 822 H 88.1557 2.36384 -1.76655 0
M  V30 823 H 88.2367 0.733945 -2.45045 0
M  V30 824 H 87.8807 1.71776 -4.7797 0
M  V30 825 H 87.8107 3.34799 -4.06469 0
M  V30 826 H 90.3017 2.07734 -3.15682 0
M  V30 827 H 90.6147 3.71186 -6.77821 0
M  V30 828 H 88.9597 3.34427 -6.09248 0
M  V30 829 H 92.1507 2.50237 -3.95599 0
M  V30 830 H 92.3237 3.24792 -5.60726 0
M  V30 831 N 85.7298 1.2412 0.971189 0
M  V30 832 C 86.6768 1.0305 2.06517 0
M  V30 833 C 87.6468 -0.0550666 1.66009 0
M  V30 834 O 88.8318 0.0988688 1.90544 0
M  V30 835 C 85.9718 0.637653 3.39158 0
M  V30 836 C 85.0848 1.79633 3.92882 0
M  V30 837 C 84.2198 1.34939 5.13775 0
M  V30 838 C 83.2588 2.47823 5.59687 0
M  V30 839 N 82.3958 2.04022 6.71803 0
M  V30 840 H 87.2358 1.96685 2.23873 0
M  V30 841 H 84.7728 0.979694 1.09729 0
M  V30 842 H 86.7308 0.390931 4.15364 0
M  V30 843 H 85.3608 -0.261693 3.21737 0
M  V30 844 H 84.4128 2.15681 3.13346 0
M  V30 845 H 85.7248 2.64466 4.22918 0
M  V30 846 H 84.8788 1.06134 5.97345 0
M  V30 847 H 83.6178 0.471557 4.85415 0
M  V30 848 H 82.6228 2.77392 4.74693 0
M  V30 849 H 83.8478 3.36158 5.90063 0
M  V30 850 H 81.7938 1.18632 6.45184 0
M  V30 851 H 81.7108 2.82409 7.01271 0
M  V30 852 H 82.9788 1.78347 7.58823 0
M  V30 853 N 87.2079 -1.17134 1.05439 0
M  V30 854 C 88.6239 -1.39454 0.776201 0
M  V30 855 C 88.8239 -1.91454 -0.628307 0
M  V30 856 O 87.8799 -2.10777 -1.39031 0
M  V30 857 C 89.1929 -2.38305 1.83388 0
M  V30 858 C 90.7409 -2.52006 1.85639 0
M  V30 859 C 91.2159 -3.54133 2.90437 0
M  V30 860 N 92.7069 -3.61653 2.89415 0
M  V30 861 C 93.4419 -4.4044 3.67152 0
M  V30 862 N 92.9379 -5.22721 4.54681 0
M  V30 863 N 94.7309 -4.35337 3.55581 0
M  V30 864 H 86.8819 -0.817134 1.96053 0
M  V30 865 H 89.1449 -0.421626 0.849079 0
M  V30 866 H 88.8509 -2.07173 2.84204 0
M  V30 867 H 88.7249 -3.37841 1.67761 0
M  V30 868 H 91.1119 -2.82447 0.85486 0
M  V30 869 H 91.1929 -1.52537 2.05344 0
M  V30 870 H 90.8369 -3.24431 3.90777 0
M  V30 871 H 90.7669 -4.53313 2.67983 0
M  V30 872 H 93.2579 -3.02909 2.25952 0
M  V30 873 H 93.5709 -5.80027 5.10674 0
M  V30 874 H 91.9159 -5.22093 4.58741 0
M  V30 875 H 95.1069 -3.70112 2.86592 0
M  V30 876 H 95.2799 -4.96494 4.1641 0
M  V30 877 N 88.686 -0.835752 -1.33615 0
M  V30 878 C 89.914 -0.443344 -2.02094 0
M  V30 879 C 90.329 0.954522 -1.62894 0
M  V30 880 O 89.686 1.61982 -0.840723 0
M  V30 881 C 89.737 -0.550775 -3.5728 0
M  V30 882 O 89.458 -1.89356 -3.95065 0
M  V30 883 C 90.959 -0.154919 -4.43029 0
M  V30 884 H 88.179 -0.176359 -0.647409 0
M  V30 885 H 90.723 -1.12746 -1.70612 0
M  V30 886 H 88.878 0.0853997 -3.87306 0
M  V30 887 H 89.292 -1.87687 -4.89769 0
M  V30 888 H 90.766 -0.281144 -5.51284 0
M  V30 889 H 91.243 0.902863 -4.2982 0
M  V30 890 H 91.849 -0.765404 -4.18356 0
M  V30 891 N 90.1641 1.46063 -0.591896 0
M  V30 892 C 91.3921 2.06717 -0.0868936 0
M  V30 893 C 91.8071 1.43916 1.22203 0
M  V30 894 O 91.1641 0.547698 1.74088 0
M  V30 895 C 91.2151 3.6142 0.0758725 0
M  V30 896 O 90.9361 4.21874 -1.18126 0
M  V30 897 C 92.4371 4.39025 0.61416 0
M  V30 898 H 89.6571 0.668162 -0.0616518 0
M  V30 899 H 92.2011 1.8755 -0.815175 0
M  V30 900 H 90.3561 3.79983 0.754413 0
M  V30 901 H 90.7701 5.14861 -1.00092 0
M  V30 902 H 92.2441 5.4783 0.677193 0
M  V30 903 H 92.7211 4.07708 1.63312 0
M  V30 904 H 93.3271 4.2529 -0.0298142 0
M  V30 905 N 91.6422 0.330177 1.54103 0
M  V30 906 C 92.8672 -0.274893 2.0557 0
M  V30 907 C 93.2922 -1.44487 1.20437 0
M  V30 908 O 92.6502 -1.80021 0.214991 0
M  V30 909 C 92.6982 -0.68079 3.54115 0
M  V30 910 O 91.8022 -1.7824 3.71893 0
M  V30 911 H 91.1432 -0.0483849 0.662235 0
M  V30 912 H 93.6732 0.480508 1.98878 0
M  V30 913 H 93.6832 -0.961635 3.96505 0
M  V30 914 H 92.3582 0.174903 4.15532 0
M  V30 915 H 90.9352 -1.49985 3.41407 0
M  V30 916 N 93.1203 -1.57491 0.0584922 0
M  V30 917 C 94.0523 -2.08916 -0.942694 0
M  V30 918 C 95.0653 -1.0185 -1.27006 0
M  V30 919 O 96.2543 -1.29398 -1.22957 0
M  V30 920 C 93.3543 -2.52341 -2.26224 0
M  V30 921 C 92.5273 -3.82827 -2.1157 0
M  V30 922 C 91.5863 -4.12487 -3.26712 0
M  V30 923 O 90.6123 -4.82295 -3.02292 0
M  V30 924 N 91.8143 -3.64978 -4.5141 0
M  V30 925 H 94.5793 -2.95437 -0.503722 0
M  V30 926 H 92.1403 -1.61397 -0.12757 0
M  V30 927 H 94.1323 -2.69254 -3.02133 0
M  V30 928 H 92.7023 -1.7103 -2.61663 0
M  V30 929 H 91.9223 -3.75425 -1.20208 0
M  V30 930 H 93.2103 -4.68263 -1.99015 0
M  V30 931 H 92.6083 -3.08558 -4.7414 0
M  V30 932 H 91.1653 -3.87115 -5.2439 0
M  V30 933 N 94.5984 0.214957 -1.56127 0
M  V30 934 C 95.8384 0.945364 -1.81224 0
M  V30 935 C 96.2024 1.81265 -0.633005 0
M  V30 936 O 97.4034 2.57731 -0.763423 0
M  V30 937 C 95.6744 1.75665 -3.1125 0
M  V30 938 S 97.2334 2.54179 -3.57685 0
M  V30 939 H 94.0514 0.317443 -0.6362 0
M  V30 940 H 96.6534 0.210381 -1.94365 0
M  V30 941 H 95.3574 1.10977 -3.9511 0
M  V30 942 H 94.8884 2.53381 -3.00934 0
M  V30 943 H 96.9034 3.7792 -3.21545 0
M  V30 944 N 96.0765 1.50051 0.48192 0
M  V30 945 C 97.0235 1.68122 1.58125 0
M  V30 946 C 97.9935 0.522545 1.57666 0
M  V30 947 O 99.1785 0.751844 1.75362 0
M  V30 948 C 96.3185 1.77142 2.96167 0
M  V30 949 C 95.4315 3.0444 3.06497 0
M  V30 950 C 94.5665 3.04321 4.35387 0
M  V30 951 C 93.6055 4.26118 4.3942 0
M  V30 952 N 92.7425 4.238 5.59766 0
M  V30 953 H 97.5825 2.6198 1.42022 0
M  V30 954 H 95.1195 1.29877 0.690687 0
M  V30 955 H 97.0775 1.80352 3.76203 0
M  V30 956 H 95.7075 0.867329 3.1093 0
M  V30 957 H 94.7595 3.10752 2.19402 0
M  V30 958 H 96.0715 3.94426 3.05336 0
M  V30 959 H 95.2255 3.062 5.23762 0
M  V30 960 H 93.9645 2.12147 4.39141 0
M  V30 961 H 92.9695 4.24463 3.49444 0
M  V30 962 H 94.1945 5.19507 4.37366 0
M  V30 963 H 92.1405 3.34474 5.64326 0
M  V30 964 H 92.0575 5.07542 5.60301 0
M  V30 965 H 93.3255 4.2981 6.50295 0
M  V30 966 N 97.5546 -0.734337 1.39446 0
M  V30 967 C 98.7796 -1.52866 1.40167 0
M  V30 968 C 99.2046 -1.881 -0.00171513 0
M  V30 969 O 98.5626 -1.51957 -0.988879 0
M  V30 970 C 98.6106 -2.79235 2.28167 0
M  V30 971 O 97.7146 -3.75185 1.71201 0
M  V30 972 H 97.0556 -0.461618 0.477289 0
M  V30 973 H 99.5856 -0.905949 1.8345 0
M  V30 974 H 99.5956 -3.27963 2.42702 0
M  V30 975 H 98.2706 -2.52923 3.30156 0
M  V30 976 H 96.8476 -3.33958 1.65912 0
M  V30 977 N 99.0327 -1.24633 -0.964593 0
M  V30 978 C 99.9427 -1.05859 -2.09359 0
M  V30 979 C 100.959 0.00148855 -1.74 0
M  V30 980 O 102.135 -0.197346 -2.00431 0
M  V30 981 C 99.1997 -0.668879 -3.40187 0
M  V30 982 C 98.2607 -1.80578 -3.89474 0
M  V30 983 C 97.4937 -1.43457 -5.14058 0
M  V30 984 O 97.7167 -0.325775 -5.69469 0
M  V30 985 O 96.6507 -2.2613 -5.57807 0
M  V30 986 H 100.477 -2.00516 -2.28094 0
M  V30 987 H 98.0617 -1.03481 -1.0776 0
M  V30 988 H 99.9437 -0.463211 -4.18846 0
M  V30 989 H 98.6187 0.248536 -3.22744 0
M  V30 990 H 97.5257 -2.06623 -3.11862 0
M  V30 991 H 98.8587 -2.70208 -4.11398 0
M  V30 992 N 100.511 1.16574 -1.06058 0
M  V30 993 C 101.922 1.68662 -0.800632 0
M  V30 994 C 102.273 1.84184 0.67608 0
M  V30 995 O 101.398 1.53568 1.52466 0
M  V30 996 C 101.993 3.06356 -1.44676 0
M  V30 997 C 100.552 3.55575 -1.23465 0
M  V30 998 C 99.6988 2.31616 -1.52477 0
M  V30 999 H 102.65 1.00969 -1.22438 0
M  V30 1000 H 102.671 3.70636 -0.860788 0
M  V30 1001 H 102.183 2.95027 -2.52152 0
M  V30 1002 H 100.284 3.72167 -0.179527 0
M  V30 1003 H 100.397 4.37812 -1.94571 0
M  V30 1004 H 98.7608 2.36512 -0.945209 0
M  V30 1005 H 99.5438 2.22887 -2.61106 0
M  V30 1006 N 101.989 0.842826 1.3317 0
M  V30 1007 C 103.4 0.496651 1.79973 0
M  V30 1008 C 103.751 -0.984641 1.69703 0
M  V30 1009 O 102.876 -1.76743 1.24863 0
M  V30 1010 C 103.471 0.894727 3.26772 0
M  V30 1011 C 102.03 0.600629 3.71577 0
M  V30 1012 C 101.177 1.10091 2.5451 0
M  V30 1013 H 104.128 1.03116 1.20635 0
M  V30 1014 H 104.149 0.206347 3.7994 0
M  V30 1015 H 103.661 1.97287 3.34215 0
M  V30 1016 H 101.762 -0.467284 3.69658 0
M  V30 1017 H 101.875 1.15863 4.64879 0
M  V30 1018 H 100.239 0.52162 2.49301 0
M  V30 1019 H 101.022 2.18591 2.64713 0
M  V30 1020 N 103.467 -1.45747 0.599634 0
M  V30 1021 C 104.397 -2.33235 -0.111306 0
M  V30 1022 C 105.378 -1.46359 -0.866781 0
M  V30 1023 O 106.563 -1.75146 -0.838904 0
M  V30 1024 C 103.693 -3.28932 -1.11451 0
M  V30 1025 C 102.647 -4.25381 -0.472772 0
M  V30 1026 C 101.973 -5.1071 -1.58365 0
M  V30 1027 C 103.273 -5.18831 0.600948 0
M  V30 1028 H 104.967 -2.92927 0.61919 0
M  V30 1029 H 102.513 -1.40857 0.299215 0
M  V30 1030 H 104.466 -3.89002 -1.62036 0
M  V30 1031 H 103.19 -2.67381 -1.8755 0
M  V30 1032 H 101.849 -3.66598 0.0121472 0
M  V30 1033 H 101.497 -4.45533 -2.33473 0
M  V30 1034 H 101.197 -5.7604 -1.15982 0
M  V30 1035 H 102.721 -5.73647 -2.09194 0
M  V30 1036 H 104.135 -5.73019 0.179491 0
M  V30 1037 H 102.532 -5.92595 0.946076 0
M  V30 1038 H 103.602 -4.6174 1.48068 0
M  V30 1039 N 104.945 -0.338344 -1.53925 0
M  V30 1040 C 105.875 0.51328 -2.27789 0
M  V30 1041 C 106.856 1.107 -1.29149 0
M  V30 1042 O 108.041 1.12937 -1.57984 0
M  V30 1043 C 105.171 1.66697 -3.04679 0
M  V30 1044 C 104.125 1.20183 -4.1078 0
M  V30 1045 C 103.451 2.44363 -4.75595 0
M  V30 1046 C 104.751 0.30605 -5.21403 0
M  V30 1047 H 106.445 -0.102883 -2.99223 0
M  V30 1048 H 103.991 -0.0509219 -1.4391 0
M  V30 1049 H 105.944 2.26915 -3.55088 0
M  V30 1050 H 104.668 2.30995 -2.30887 0
M  V30 1051 H 103.327 0.622499 -3.61276 0
M  V30 1052 H 102.975 3.07057 -3.98403 0
M  V30 1053 H 102.675 2.13925 -5.47275 0
M  V30 1054 H 104.199 3.05317 -5.28786 0
M  V30 1055 H 105.613 0.814929 -5.67478 0
M  V30 1056 H 104.01 0.0937929 -6.00027 0
M  V30 1057 H 105.08 -0.65921 -4.80398 0
M  V30 1058 N 106.423 1.57458 -0.0668435 0
M  V30 1059 C 107.839 1.56947 0.289772 0
M  V30 1060 C 108.039 1.07584 1.70376 0
M  V30 1061 O 107.095 0.739486 2.41429 0
M  V30 1062 C 108.408 3.0052 0.103943 0
M  V30 1063 C 109.956 3.12517 0.173857 0
M  V30 1064 C 110.431 4.57997 0.0163682 0
M  V30 1065 N 111.922 4.63144 0.0721352 0
M  V30 1066 C 112.657 5.73394 -0.0253794 0
M  V30 1067 N 112.153 6.92576 -0.176133 0
M  V30 1068 N 113.946 5.62091 0.0313305 0
M  V30 1069 H 106.097 1.87863 -0.991027 0
M  V30 1070 H 108.36 0.86583 -0.38606 0
M  V30 1071 H 108.066 3.40729 -0.871572 0
M  V30 1072 H 107.94 3.67304 0.858366 0
M  V30 1073 H 110.327 2.72197 1.13985 0
M  V30 1074 H 110.408 2.48381 -0.611586 0
M  V30 1075 H 110.052 4.99005 -0.946374 0
M  V30 1076 H 109.982 5.20158 0.821153 0
M  V30 1077 H 112.473 3.77436 0.187263 0
M  V30 1078 H 112.786 7.72418 -0.242821 0
M  V30 1079 H 111.131 6.94678 -0.211429 0
M  V30 1080 H 114.322 4.67867 0.147773 0
M  V30 1081 H 114.495 6.47982 -0.048121 0
M  V30 1082 N 107.901 -0.206675 1.56239 0
M  V30 1083 C 109.129 -0.945345 1.8404 0
M  V30 1084 C 109.544 -1.77336 0.647885 0
M  V30 1085 O 108.901 -1.78425 -0.383511 0
M  V30 1086 C 108.952 -1.8509 3.10522 0
M  V30 1087 O 108.673 -1.05634 4.25174 0
M  V30 1088 C 110.174 -2.70222 3.51418 0
M  V30 1089 H 107.394 -0.276372 0.61144 0
M  V30 1090 H 109.938 -0.217417 2.03341 0
M  V30 1091 H 108.093 -2.53259 2.93153 0
M  V30 1092 H 108.507 -1.67238 4.97124 0
M  V30 1093 H 109.981 -3.29438 4.42916 0
M  V30 1094 H 110.458 -3.43358 2.73864 0
M  V30 1095 H 111.064 -2.07443 3.71278 0
M  V30 1096 N 109.379 -1.50304 -0.473955 0
M  V30 1097 C 110.604 -1.65175 -1.25427 0
M  V30 1098 C 111.029 -0.333673 -1.85117 0
M  V30 1099 O 110.387 0.702114 -1.67153 0
M  V30 1100 C 110.435 -2.74295 -2.34082 0
M  V30 1101 O 109.539 -2.35349 -3.38651 0
M  V30 1102 H 108.88 -0.551944 -0.369126 0
M  V30 1103 H 111.41 -1.96662 -0.564364 0
M  V30 1104 H 111.42 -2.97285 -2.79438 0
M  V30 1105 H 110.095 -3.69959 -1.90008 0
M  V30 1106 H 108.672 -2.22794 -2.99027 0
M  V30 1107 N 110.857 0.726932 -1.39834 0
M  V30 1108 C 111.804 1.841 -1.39197 0
M  V30 1109 C 112.774 1.642 -0.250502 0
M  V30 1110 O 113.959 1.85494 -0.446846 0
M  V30 1111 C 111.099 3.21697 -1.24919 0
M  V30 1112 C 110.212 3.53247 -2.48678 0
M  V30 1113 C 109.347 4.80289 -2.26928 0
M  V30 1114 C 108.386 5.04707 -3.4632 0
M  V30 1115 N 107.523 6.22956 -3.23836 0
M  V30 1116 H 112.363 1.83979 -2.34427 0
M  V30 1117 H 109.9 0.898876 -1.16442 0
M  V30 1118 H 111.858 4.01137 -1.1465 0
M  V30 1119 H 110.488 3.21076 -0.333153 0
M  V30 1120 H 109.54 2.68447 -2.69519 0
M  V30 1121 H 110.852 3.67205 -3.37582 0
M  V30 1122 H 110.006 5.67725 -2.13947 0
M  V30 1123 H 108.745 4.68519 -1.35431 0
M  V30 1124 H 107.75 4.1573 -3.5979 0
M  V30 1125 H 108.975 5.18357 -4.38729 0
M  V30 1126 H 106.921 6.12459 -2.35011 0
M  V30 1127 H 106.838 6.37539 -4.063 0
M  V30 1128 H 108.106 7.1321 -3.14566 0
M  V30 1129 N 112.336 1.25143 0.95797 0
M  V30 1130 C 113.752 1.01892 1.22842 0
M  V30 1131 C 113.952 -0.266311 1.99732 0
M  V30 1132 O 113.008 -0.979913 2.3271 0
M  V30 1133 C 114.321 2.24004 2.00606 0
M  V30 1134 C 115.869 2.28731 2.13662 0
M  V30 1135 C 116.344 3.5049 2.94823 0
M  V30 1136 N 117.835 3.50866 3.02403 0
M  V30 1137 C 118.57 4.4174 3.65586 0
M  V30 1138 N 118.066 5.42882 4.30408 0
M  V30 1139 N 119.859 4.29429 3.62694 0
M  V30 1140 H 112.01 2.07718 0.443493 0
M  V30 1141 H 114.273 0.912031 0.258657 0
M  V30 1142 H 113.979 3.17395 1.51503 0
M  V30 1143 H 113.853 2.26907 3.01319 0
M  V30 1144 H 116.24 1.35865 2.61963 0
M  V30 1145 H 116.321 2.29848 1.12265 0
M  V30 1146 H 115.965 4.43676 2.47213 0
M  V30 1147 H 115.895 3.46617 3.96439 0
M  V30 1148 H 118.386 2.777 2.56302 0
M  V30 1149 H 118.699 6.0844 4.76467 0
M  V30 1150 H 117.044 5.46758 4.29047 0
M  V30 1151 H 120.235 3.49643 3.11236 0
M  V30 1152 H 120.408 5.00448 4.1165 0
M  V30 1153 N 113.814 -1.1601 1.06675 0
M  V30 1154 C 115.042 -1.90527 0.806667 0
M  V30 1155 C 115.457 -1.77643 -0.639396 0
M  V30 1156 O 114.814 -1.12369 -1.43803 0
M  V30 1157 C 114.865 -3.41106 1.19705 0
M  V30 1158 O 114.586 -3.53608 2.58636 0
M  V30 1159 C 116.087 -4.32663 0.965266 0
M  V30 1160 H 113.307 -0.604053 0.292166 0
M  V30 1161 H 115.851 -1.47026 1.4214 0
M  V30 1162 H 114.006 -3.82296 0.626774 0
M  V30 1163 H 114.42 -4.47011 2.74375 0
M  V30 1164 H 115.894 -5.36763 1.288 0
M  V30 1165 H 116.371 -4.39089 -0.0987936 0
M  V30 1166 H 116.977 -3.97206 1.52011 0
M  V30 1167 N 115.292 -0.849877 -1.32721 0
M  V30 1168 C 116.541 -0.447175 -1.96681 0
M  V30 1169 C 116.854 1.00135 -1.68025 0
M  V30 1170 O 118.06 1.50926 -2.25685 0
M  V30 1171 C 116.516 -0.7487 -3.52026 0
M  V30 1172 C 116.124 -2.21264 -3.89546 0
M  V30 1173 C 117.868 -0.413487 -4.22481 0
M  V30 1174 C 115.775 -2.45763 -5.37917 0
M  V30 1175 H 114.705 -0.163486 -0.736063 0
M  V30 1176 H 117.356 -1.03999 -1.51183 0
M  V30 1177 H 115.738 -0.0853727 -3.95908 0
M  V30 1178 H 116.912 -2.91736 -3.56689 0
M  V30 1179 H 115.227 -2.5119 -3.32103 0
M  V30 1180 H 117.824 -0.574017 -5.3161 0
M  V30 1181 H 118.167 0.644492 -4.11281 0
M  V30 1182 H 118.7 -1.03251 -3.84167 0
M  V30 1183 H 115.439 -3.50168 -5.54132 0
M  V30 1184 H 114.959 -1.79864 -5.72197 0
M  V30 1185 H 116.638 -2.29471 -6.0494 0
M  V30 1186 N 116.77 1.45427 -0.607355 0
M  V30 1187 C 118 2.06314 -0.108656 0
M  V30 1188 C 118.408 1.45269 1.21217 0
M  V30 1189 O 117.751 0.561115 1.74921 0
M  V30 1190 C 117.813 3.59345 0.105618 0
M  V30 1191 C 117.477 4.42723 -1.13337 0
M  V30 1192 C 118.474 4.77715 -2.05145 0
M  V30 1193 C 116.159 4.83478 -1.36213 0
M  V30 1194 C 118.153 5.52317 -3.18158 0
M  V30 1195 C 115.84 5.57835 -2.49527 0
M  V30 1196 C 116.838 5.92171 -3.40327 0
M  V30 1197 O 116.526 6.65019 -4.51669 0
M  V30 1198 H 116.258 0.672782 -0.0658842 0
M  V30 1199 H 118.812 1.87664 -0.834945 0
M  V30 1200 H 117.042 3.76394 0.886796 0
M  V30 1201 H 118.731 4.02076 0.555886 0
M  V30 1202 H 119.497 4.46787 -1.88697 0
M  V30 1203 H 115.376 4.56188 -0.664362 0
M  V30 1204 H 118.92 5.79036 -3.89054 0
M  V30 1205 H 114.817 5.88177 -2.65928 0
M  V30 1206 H 115.585 6.83469 -4.50348 0
M  V30 1207 N 118.248 0.346503 1.53744 0
M  V30 1208 C 119.476 -0.25041 2.05379 0
M  V30 1209 C 119.891 -1.43979 1.22129 0
M  V30 1210 O 119.248 -1.80677 0.257321 0
M  V30 1211 C 119.299 -0.662575 3.55376 0
M  V30 1212 O 119.02 0.479515 4.35468 0
M  V30 1213 C 120.521 -1.31989 4.23195 0
M  V30 1214 H 117.741 -0.0478198 0.669294 0
M  V30 1215 H 120.285 0.499346 1.9831 0
M  V30 1216 H 118.44 -1.36227 3.62658 0
M  V30 1217 H 118.854 0.15037 5.24284 0
M  V30 1218 H 120.328 -1.55902 5.29527 0
M  V30 1219 H 120.805 -2.27436 3.75725 0
M  V30 1220 H 121.411 -0.662154 4.20114 0
M  V30 1221 N 119.726 -1.57421 0.075193 0
M  V30 1222 C 120.689 -2.11791 -0.876203 0
M  V30 1223 C 121.689 -1.04268 -1.22412 0
M  V30 1224 O 122.879 -1.30242 -1.15684 0
M  V30 1225 C 120.011 -2.62207 -2.17854 0
M  V30 1226 H 121.204 -2.9716 -0.40444 0
M  V30 1227 H 118.757 -1.55333 -0.173557 0
M  V30 1228 H 119.492 -1.803 -2.6956 0
M  V30 1229 H 119.277 -3.40802 -1.93897 0
M  V30 1230 H 120.767 -3.04335 -2.85955 0
M  V30 1231 N 121.204 0.198386 -1.56346 0
M  V30 1232 C 122.452 0.91747 -1.80075 0
M  V30 1233 C 122.773 1.83929 -0.647692 0
M  V30 1234 O 122.043 1.93029 0.334166 0
M  V30 1235 H 120.623 0.341774 -0.664228 0
M  V30 1236 H 123.285 0.204684 -1.93822 0
M  V30 1237 H 122.381 1.51055 -2.7311 0
M  V30 1238 N 122.682 1.50554 0.465978 0
M  V30 1239 C 124.098 1.38093 0.800154 0
M  V30 1240 C 124.298 0.440988 1.96615 0
M  V30 1241 O 123.354 -0.114499 2.5224 0
M  V30 1242 C 124.667 2.79565 1.10742 0
M  V30 1243 C 126.215 2.88516 1.21357 0
M  V30 1244 C 126.69 4.30833 1.55393 0
M  V30 1245 N 128.181 4.33807 1.62375 0
M  V30 1246 C 128.916 5.40927 1.90225 0
M  V30 1247 N 128.412 6.58247 2.16062 0
M  V30 1248 N 130.205 5.28376 1.9177 0
M  V30 1249 H 122.356 2.10237 -0.302366 0
M  V30 1250 H 124.619 0.945203 -0.0727746 0
M  V30 1251 H 124.325 3.50208 0.323661 0
M  V30 1252 H 124.199 3.17125 2.04234 0
M  V30 1253 H 126.586 2.1809 1.98799 0
M  V30 1254 H 126.667 2.54492 0.258321 0
M  V30 1255 H 126.311 5.01799 0.784889 0
M  V30 1256 H 126.241 4.62347 2.52076 0
M  V30 1257 H 128.732 3.49212 1.44427 0
M  V30 1258 H 129.045 7.3569 2.36601 0
M  V30 1259 H 127.39 6.61413 2.13444 0
M  V30 1260 H 130.581 4.35715 1.71085 0
M  V30 1261 H 130.754 6.11944 2.13139 0
M  V30 1262 N 124.16 -0.719506 1.40217 0
M  V30 1263 C 125.571 -1.29848 1.34151 0
M  V30 1264 C 125.922 -1.96196 0.0131349 0
M  V30 1265 O 125.047 -1.973 -0.88892 0
M  V30 1266 C 125.642 -2.36118 2.42968 0
M  V30 1267 C 124.201 -2.8965 2.40374 0
M  V30 1268 C 123.348 -1.63393 2.24049 0
M  V30 1269 H 126.299 -0.51591 1.5008 0
M  V30 1270 H 126.32 -3.16871 2.10649 0
M  V30 1271 H 125.832 -1.878 3.39636 0
M  V30 1272 H 123.933 -3.42208 1.47392 0
M  V30 1273 H 124.046 -3.4171 3.35814 0
M  V30 1274 H 122.41 -1.88312 1.71495 0
M  V30 1275 H 123.193 -1.17104 3.2271 0
M  V30 1276 N 125.638 -1.25649 -0.95132 0
M  V30 1277 C 127.049 -1.09654 -1.51106 0
M  V30 1278 C 127.4 0.326615 -1.93462 0
M  V30 1279 O 126.525 1.21697 -1.78938 0
M  V30 1280 C 127.12 -1.98437 -2.74605 0
M  V30 1281 C 125.679 -1.86618 -3.2688 0
M  V30 1282 C 124.826 -1.9239 -1.99703 0
M  V30 1283 H 127.777 -1.38887 -0.767865 0
M  V30 1284 H 127.798 -1.5263 -3.48546 0
M  V30 1285 H 127.31 -3.02009 -2.43746 0
M  V30 1286 H 125.411 -0.859421 -3.62553 0
M  V30 1287 H 125.524 -2.71607 -3.94673 0
M  V30 1288 H 123.888 -1.36317 -2.15151 0
M  V30 1289 H 124.671 -2.97573 -1.71188 0
M  V30 1290 N 127.117 1.15442 -1.07289 0
M  V30 1291 C 128.363 1.8672 -0.806679 0
M  V30 1292 C 128.718 1.80723 0.660084 0
M  V30 1293 O 128.011 1.21902 1.47819 0
M  V30 1294 C 128.205 3.3489 -1.24834 0
M  V30 1295 C 128.034 3.55313 -2.7565 0
M  V30 1296 C 126.804 3.7082 -3.4325 0
M  V30 1297 C 129.002 3.53188 -3.73848 0
M  V30 1298 N 126.984 3.7929 -4.82713 0
M  V30 1299 C 128.355 3.67765 -4.99149 0
M  V30 1300 C 130.41 3.36459 -3.67015 0
M  V30 1301 C 129.113 3.6734 -6.18428 0
M  V30 1302 C 131.139 3.37333 -4.85758 0
M  V30 1303 C 130.501 3.52438 -6.09891 0
M  V30 1304 H 126.6 0.700433 -0.347733 0
M  V30 1305 H 129.184 1.38441 -1.36902 0
M  V30 1306 H 127.355 3.81786 -0.713713 0
M  V30 1307 H 129.087 3.93875 -0.929745 0
M  V30 1308 H 125.842 3.71568 -2.93656 0
M  V30 1309 H 126.266 3.8727 -5.55294 0
M  V30 1310 H 130.908 3.237 -2.71989 0
M  V30 1311 H 128.626 3.78878 -7.13777 0
M  V30 1312 H 132.212 3.25617 -4.82146 0
M  V30 1313 H 131.092 3.53047 -7.00234 0
M  V30 1314 N 128.595 0.856903 1.32268 0
M  V30 1315 C 129.825 0.47475 2.01071 0
M  V30 1316 C 130.233 -0.933746 1.64553 0
M  V30 1317 O 129.576 -1.62114 0.863989 0
M  V30 1318 C 129.638 0.536746 3.55471 0
M  V30 1319 C 129.302 1.90453 4.15423 0
M  V30 1320 C 130.299 2.87029 4.33486 0
M  V30 1321 C 127.984 2.20229 4.51447 0
M  V30 1322 C 129.978 4.11532 4.86744 0
M  V30 1323 C 127.665 3.44984 5.0441 0
M  V30 1324 C 128.663 4.40452 5.22007 0
M  V30 1325 O 128.351 5.62998 5.73837 0
M  V30 1326 H 128.083 0.184778 0.650256 0
M  V30 1327 H 130.637 1.15615 1.69771 0
M  V30 1328 H 128.867 -0.20152 3.86175 0
M  V30 1329 H 130.556 0.169875 4.05544 0
M  V30 1330 H 131.322 2.6533 4.05986 0
M  V30 1331 H 127.201 1.46705 4.37034 0
M  V30 1332 H 130.745 4.86056 5.00395 0
M  V30 1333 H 126.642 3.66532 5.31342 0
M  V30 1334 H 127.41 5.64987 5.92226 0
M  V30 1335 N 130.073 -1.45103 0.615059 0
M  V30 1336 C 131.021 -2.32331 -0.111791 0
M  V30 1337 C 132.015 -1.46409 -0.852102 0
M  V30 1338 O 133.221 -1.62849 -0.766821 0
M  V30 1339 H 129.596 -0.749993 -0.0549072 0
M  V30 1340 H 131.567 -2.91407 0.642225 0
M  V30 1341 C 130.316 -3.3015 -1.09071 0
M  V30 1342 H 129.639 -3.96265 -0.530485 0
M  V30 1343 H 131.079 -3.93898 -1.56908 0
M  V30 1344 C 129.538 -2.57875 -2.168 0
M  V30 1345 O 130.068 -2.36567 -3.24652 0
M  V30 1346 N 128.274 -2.17884 -1.92289 0
M  V30 1347 H 127.821 -2.35413 -1.04587 0
M  V30 1348 H 127.779 -1.6985 -2.64572 0
M  V30 1349 N 131.551 -0.354651 -1.53558 0
M  V30 1350 C 132.461 0.50515 -2.29097 0
M  V30 1351 C 133.477 1.10223 -1.34636 0
M  V30 1352 O 134.653 1.11553 -1.67684 0
M  V30 1353 C 131.718 1.63479 -3.05738 0
M  V30 1354 C 130.779 1.06636 -4.15845 0
M  V30 1355 C 130.012 2.14217 -4.88822 0
M  V30 1356 O 130.235 3.35137 -4.61562 0
M  V30 1357 O 129.169 1.77887 -5.75013 0
M  V30 1358 H 132.995 -0.109237 -3.03503 0
M  V30 1359 H 130.58 -0.119357 -1.48922 0
M  V30 1360 H 132.462 2.2918 -3.5363 0
M  V30 1361 H 131.137 2.23478 -2.34178 0
M  V30 1362 H 130.044 0.373565 -3.7223 0
M  V30 1363 H 131.377 0.511081 -4.89539 0
M  V30 1364 N 133.029 1.57378 -0.0835403 0
M  V30 1365 C 133.979 2.09916 0.889905 0
M  V30 1366 C 134.963 1.01151 1.25129 0
M  V30 1367 O 136.155 1.27443 1.2283 0
M  V30 1368 C 133.284 2.67379 2.15322 0
M  V30 1369 C 132.37 3.83167 1.81779 0
M  V30 1370 N 132.761 4.91665 1.18739 0
M  V30 1371 C 131.059 3.92685 2.11459 0
M  V30 1372 C 131.76 5.72409 1.0355 0
M  V30 1373 N 130.736 5.21062 1.54906 0
M  V30 1374 H 134.538 2.91188 0.398378 0
M  V30 1375 H 132.052 1.61956 0.120013 0
M  V30 1376 H 134.049 3.0334 2.8599 0
M  V30 1377 H 132.709 1.87558 2.65051 0
M  V30 1378 H 133.72 5.10784 0.855604 0
M  V30 1379 H 130.397 3.23856 2.63483 0
M  V30 1380 H 131.787 6.69699 0.543425 0
M  V30 1381 N 134.507 -0.190092 1.56449 0
M  V30 1382 C 135.755 -0.907908 1.80559 0
M  V30 1383 C 136.076 -1.83583 0.657438 0
M  V30 1384 O 135.346 -1.93203 -0.323924 0
M  V30 1385 H 133.926 -0.338247 0.666032 0
M  V30 1386 H 136.588 -0.194403 1.93928 0
M  V30 1387 H 135.684 -1.49604 2.73907 0
M  V30 1388 N 135.985 -1.50799 -0.457987 0
M  V30 1389 C 137.213 -1.66218 -1.23203 0
M  V30 1390 C 137.628 -0.350894 -1.85511 0
M  V30 1391 O 136.985 0.668546 -1.69814 0
M  V30 1392 C 137.036 -2.76291 -2.33121 0
M  V30 1393 O 136.757 -4.02338 -1.73366 0
M  V30 1394 C 138.258 -3.028 -3.2377 0
M  V30 1395 H 135.478 -0.558361 -0.372121 0
M  V30 1396 H 138.022 -1.97099 -0.545179 0
M  V30 1397 H 136.177 -2.48068 -2.97558 0
M  V30 1398 H 136.591 -4.63312 -2.4585 0
M  V30 1399 H 138.065 -3.8345 -3.97077 0
M  V30 1400 H 138.542 -2.14385 -3.83322 0
M  V30 1401 H 139.148 -3.32604 -2.65056 0
M  V30 1402 N 137.463 0.71206 -1.40597 0
M  V30 1403 C 138.395 1.83704 -1.37061 0
M  V30 1404 C 139.408 1.60453 -0.275426 0
M  V30 1405 O 140.597 1.70262 -0.53602 0
M  V30 1406 C 137.697 3.20172 -1.11099 0
M  V30 1407 C 136.87 3.7059 -2.3234 0
M  V30 1408 C 135.929 4.85681 -2.02485 0
M  V30 1409 O 134.955 4.9815 -2.75382 0
M  V30 1410 N 136.157 5.71735 -1.00497 0
M  V30 1411 H 138.922 1.87235 -2.34016 0
M  V30 1412 H 136.483 0.893739 -1.34996 0
M  V30 1413 H 138.475 3.94768 -0.891064 0
M  V30 1414 H 137.045 3.11767 -0.227989 0
M  V30 1415 H 136.265 2.87085 -2.7014 0
M  V30 1416 H 137.553 4.01011 -3.13157 0
M  V30 1417 H 136.951 5.64275 -0.401298 0
M  V30 1418 H 135.508 6.463 -0.844942 0
M  V30 1419 N 138.941 1.26152 0.944643 0
M  V30 1420 C 140.166 1.14363 1.7302 0
M  V30 1421 C 140.591 -0.29772 1.85729 0
M  V30 1422 O 139.949 -1.2157 1.34501 0
M  V30 1423 C 139.997 1.81378 3.11664 0
M  V30 1424 O 139.101 1.10022 3.97453 0
M  V30 1425 H 138.442 0.398694 0.53098 0
M  V30 1426 H 140.972 1.66906 1.18337 0
M  V30 1427 H 140.982 1.88064 3.62072 0
M  V30 1428 H 139.657 2.86237 3.0173 0
M  V30 1429 H 138.234 1.11287 3.55907 0
M  V30 1430 N 140.419 -1.14872 1.07899 0
M  V30 1431 C 141.366 -2.19791 0.704319 0
M  V30 1432 C 142.336 -1.63238 -0.306987 0
M  V30 1433 O 143.521 -1.8983 -0.192171 0
M  V30 1434 C 140.661 -3.44911 0.114244 0
M  V30 1435 C 139.774 -4.15637 1.1777 0
M  V30 1436 C 138.909 -5.28324 0.552037 0
M  V30 1437 C 137.948 -5.90875 1.59789 0
M  V30 1438 N 137.085 -6.95022 0.994404 0
M  V30 1439 H 141.925 -2.5119 1.60336 0
M  V30 1440 H 139.462 -1.23356 0.801352 0
M  V30 1441 H 141.42 -4.16477 -0.245544 0
M  V30 1442 H 140.05 -3.14011 -0.74813 0
M  V30 1443 H 139.102 -3.42512 1.65499 0
M  V30 1444 H 140.414 -4.5823 1.97046 0
M  V30 1445 H 139.568 -6.06538 0.1402 0
M  V30 1446 H 138.307 -4.86939 -0.272431 0
M  V30 1447 H 137.312 -5.11369 2.01945 0
M  V30 1448 H 138.537 -6.34337 2.42474 0
M  V30 1449 H 136.483 -6.55722 0.190939 0
M  V30 1450 H 136.4 -7.36073 1.72432 0
M  V30 1451 H 137.668 -7.77123 0.608253 0
M  V30 1452 N 141.898 -0.863906 -1.31812 0
M  V30 1453 C 142.808 -0.318461 -2.32428 0
M  V30 1454 C 143.824 0.568496 -1.64451 0
M  V30 1455 O 145 0.46666 -1.95919 0
M  V30 1456 C 142.065 0.476355 -3.43412 0
M  V30 1457 C 141.126 -0.43784 -4.27061 0
M  V30 1458 C 140.359 0.319138 -5.32745 0
M  V30 1459 O 140.582 1.54799 -5.48993 0
M  V30 1460 O 139.516 -0.319861 -6.01049 0
M  V30 1461 H 143.342 -1.15229 -2.80991 0
M  V30 1462 H 140.927 -0.627103 -1.35602 0
M  V30 1463 H 142.809 0.927156 -4.11074 0
M  V30 1464 H 141.484 1.28683 -2.97022 0
M  V30 1465 H 140.391 -0.937013 -3.62175 0
M  V30 1466 H 141.724 -1.21375 -4.77 0
M  V30 1467 N 143.376 1.44774 -0.622745 0
M  V30 1468 C 144.339 2.29069 0.0774015 0
M  V30 1469 C 145.339 1.4059 0.780461 0
M  V30 1470 O 146.529 1.62551 0.626322 0
M  V30 1471 C 143.661 3.21974 1.12006 0
M  V30 1472 H 144.854 2.92459 -0.663901 0
M  V30 1473 H 142.407 1.51548 -0.382486 0
M  V30 1474 H 143.142 2.63417 1.89162 0
M  V30 1475 H 142.927 3.87168 0.619951 0
M  V30 1476 H 144.417 3.85318 1.60995 0
M  V30 1477 N 144.854 0.36279 1.53368 0
M  V30 1478 C 146.101 -0.227776 2.01215 0
M  V30 1479 C 146.429 -1.49003 1.25014 0
M  V30 1480 O 145.684 -1.92876 0.331236 0
M  V30 1481 C 145.983 -0.568417 3.52851 0
M  V30 1482 C 145.649 0.59918 4.46901 0
M  V30 1483 C 144.311 0.919559 4.72332 0
M  V30 1484 C 146.663 1.38156 5.02556 0
M  V30 1485 C 143.991 2.02434 5.5067 0
M  V30 1486 C 146.343 2.47674 5.821 0
M  V30 1487 C 145.007 2.8025 6.05819 0
M  V30 1488 H 144.277 -0.083349 0.736297 0
M  V30 1489 H 146.924 0.494677 1.85001 0
M  V30 1490 H 145.229 -1.37185 3.66998 0
M  V30 1491 H 146.926 -1.03756 3.87344 0
M  V30 1492 H 143.516 0.339437 4.27254 0
M  V30 1493 H 147.7 1.14729 4.82857 0
M  V30 1494 H 142.956 2.28075 5.67267 0
M  V30 1495 H 147.13 3.08716 6.24234 0
M  V30 1496 H 144.757 3.65979 6.66306 0
M  V30 1497 N 146.332 -1.57332 0.0918853 0
M  V30 1498 C 147.295 -2.12708 -0.85369 0
M  V30 1499 C 148.295 -1.05561 -1.213 0
M  V30 1500 O 149.485 -1.31461 -1.14296 0
M  V30 1501 C 146.617 -2.64503 -2.15061 0
M  V30 1502 H 147.81 -2.97573 -0.3729 0
M  V30 1503 H 145.363 -1.55509 -0.157072 0
M  V30 1504 H 146.098 -1.83149 -2.67632 0
M  V30 1505 H 145.883 -3.4284 -1.90272 0
M  V30 1506 H 147.373 -3.07351 -2.82711 0
M  V30 1507 N 147.81 0.181792 -1.56548 0
M  V30 1508 C 149.059 0.898348 -1.8059 0
M  V30 1509 C 149.372 1.83862 -0.667379 0
M  V30 1510 O 150.578 2.59678 -0.792446 0
M  V30 1511 C 149.034 1.64791 -3.19956 0
M  V30 1512 C 148.642 0.751789 -4.41647 0
M  V30 1513 C 150.386 2.35331 -3.53298 0
M  V30 1514 C 148.293 1.50098 -5.72035 0
M  V30 1515 H 147.223 0.339194 -0.673397 0
M  V30 1516 H 149.874 0.151413 -1.82874 0
M  V30 1517 H 148.256 2.43921 -3.11959 0
M  V30 1518 H 149.43 -0.0018076 -4.608 0
M  V30 1519 H 147.745 0.156562 -4.16106 0
M  V30 1520 H 150.342 2.91958 -4.47956 0
M  V30 1521 H 150.685 3.10164 -2.77676 0
M  V30 1522 H 151.218 1.63154 -3.62803 0
M  V30 1523 H 147.957 0.795175 -6.50659 0
M  V30 1524 H 147.477 2.22817 -5.56878 0
M  V30 1525 H 149.156 2.05125 -6.13622 0
M  V30 1526 N 149.288 1.51039 0.449983 0
M  V30 1527 C 150.536 1.62759 1.19808 0
M  V30 1528 C 150.857 0.339981 1.92013 0
M  V30 1529 O 150.127 -0.643606 1.85026 0
M  V30 1530 H 148.707 0.599811 0.445237 0
M  V30 1531 H 151.369 1.87914 0.517138 0
M  V30 1532 H 150.465 2.44911 1.93455 0
M  V30 1533 N 150.766 -0.704594 1.40972 0
M  V30 1534 C 151.696 -1.83124 1.44872 0
M  V30 1535 C 152.677 -1.67281 0.30838 0
M  V30 1536 O 153.862 -1.87149 0.518556 0
M  V30 1537 C 150.992 -3.21181 1.32136 0
M  V30 1538 C 149.946 -3.51714 2.43888 0
M  V30 1539 C 149.272 -4.89032 2.16222 0
M  V30 1540 C 150.572 -3.516 3.86232 0
M  V30 1541 H 152.266 -1.80117 2.39161 0
M  V30 1542 H 149.812 -0.865145 1.15114 0
M  V30 1543 H 151.765 -3.99702 1.33479 0
M  V30 1544 H 150.489 -3.24791 0.343279 0
M  V30 1545 H 149.148 -2.75539 2.41813 0
M  V30 1546 H 148.796 -4.89256 1.16778 0
M  V30 1547 H 148.496 -5.10426 2.911 0
M  V30 1548 H 150.02 -5.69873 2.19265 0
M  V30 1549 H 151.434 -4.2014 3.9007 0
M  V30 1550 H 149.831 -3.84523 4.60719 0
M  V30 1551 H 150.901 -2.50757 4.15029 0
M  V30 1552 N 152.244 -1.26651 -0.937939 0
M  V30 1553 C 153.492 -1.12165 -1.68118 0
M  V30 1554 C 153.813 0.334983 -1.92101 0
M  V30 1555 O 153.083 1.23583 -1.52 0
M  V30 1556 H 151.663 -0.412093 -0.623048 0
M  V30 1557 H 154.325 -1.59027 -1.12678 0
M  V30 1558 H 153.421 -1.64289 -2.6536 0
M  V30 1559 N 153.722 1.14298 -1.08507 0
M  V30 1560 C 154.97 1.84993 -0.813763 0
M  V30 1561 C 155.291 1.83405 0.662393 0
M  V30 1562 O 154.561 1.28319 1.48024 0
M  V30 1563 H 153.141 0.684966 -0.298045 0
M  V30 1564 H 155.803 1.385 -1.37126 0
M  V30 1565 H 154.899 2.89788 -1.15884 0
M  V30 1566 N 155.201 0.870884 1.31352 0
M  V30 1567 C 156.449 0.48132 1.96285 0
M  V30 1568 C 156.77 -0.969813 1.69173 0
M  V30 1569 O 156.04 -1.67998 1.00764 0
M  V30 1570 H 154.62 0.175002 0.726212 0
M  V30 1571 H 157.282 1.11087 1.60143 0
M  V30 1572 H 156.378 0.639825 3.05471 0
M  V30 1573 N 156.679 -1.44442 0.630414 0
M  V30 1574 C 157.904 -2.06927 0.139944 0
M  V30 1575 C 158.329 -1.46795 -1.17613 0
M  V30 1576 O 157.687 -0.569144 -1.72135 0
M  V30 1577 C 157.735 -3.6058 0.0379581 0
M  V30 1578 O 156.839 -3.99937 -1.0062 0
M  V30 1579 H 156.18 -0.658608 0.0844483 0
M  V30 1580 H 158.71 -1.85327 0.866891 0
M  V30 1581 H 158.72 -4.07714 -0.152856 0
M  V30 1582 H 157.395 -4.03728 0.998809 0
M  V30 1583 H 155.972 -3.64436 -0.79001 0
M  V30 1584 N 158.157 -0.370918 -1.53173 0
M  V30 1585 C 159.12 0.460778 -2.24521 0
M  V30 1586 C 160.12 1.00536 -1.25496 0
M  V30 1587 O 161.31 0.890266 -1.49733 0
M  V30 1588 C 158.442 1.64457 -2.98608 0
M  V30 1589 H 159.635 -0.163613 -2.99453 0
M  V30 1590 H 157.188 -0.122699 -1.55818 0
M  V30 1591 H 157.923 2.30691 -2.2793 0
M  V30 1592 H 157.708 1.26099 -3.7127 0
M  V30 1593 H 159.198 2.23384 -3.5283 0
M  V30 1594 N 159.635 1.57281 -0.100228 0
M  V30 1595 C 160.86 1.99302 0.573881 0
M  V30 1596 C 161.285 0.979059 1.60611 0
M  V30 1597 O 160.643 -0.0517803 1.81226 0
M  V30 1598 C 160.691 3.40274 1.19358 0
M  V30 1599 O 159.795 3.41676 2.30935 0
M  V30 1600 H 159.136 0.647944 0.145138 0
M  V30 1601 H 161.666 2.03779 -0.183156 0
M  V30 1602 H 161.676 3.78078 1.53365 0
M  V30 1603 H 160.351 4.13594 0.437385 0
M  V30 1604 H 158.928 3.15672 1.98509 0
M  V30 1605 N 161.113 -0.173488 1.56642 0
M  V30 1606 C 162.361 -0.888706 1.81512 0
M  V30 1607 C 162.682 -1.82875 0.676872 0
M  V30 1608 O 161.952 -1.93536 -0.303414 0
M  V30 1609 H 160.532 -0.331164 0.669582 0
M  V30 1610 H 163.194 -0.173823 1.94123 0
M  V30 1611 H 162.29 -1.46691 2.75478 0
M  V30 1612 N 162.591 -1.51276 -0.441967 0
M  V30 1613 C 163.538 -1.72256 -1.53612 0
M  V30 1614 C 164.508 -0.564164 -1.56225 0
M  V30 1615 O 165.693 -0.798074 -1.73307 0
M  V30 1616 C 162.833 -1.84932 -2.91366 0
M  V30 1617 C 161.946 -3.12459 -2.98317 0
M  V30 1618 C 161.081 -3.15758 -4.27166 0
M  V30 1619 C 160.12 -4.37619 -4.27967 0
M  V30 1620 N 159.257 -4.38493 -5.48333 0
M  V30 1621 H 164.097 -2.65654 -1.35026 0
M  V30 1622 H 161.634 -1.31662 -0.656009 0
M  V30 1623 H 163.592 -1.90263 -3.7129 0
M  V30 1624 H 162.222 -0.949461 -3.08521 0
M  V30 1625 H 161.274 -3.1646 -2.11086 0
M  V30 1626 H 162.586 -4.02382 -2.94771 0
M  V30 1627 H 161.74 -3.19979 -5.15459 0
M  V30 1628 H 160.479 -2.23715 -4.33362 0
M  V30 1629 H 159.484 -4.33579 -3.38067 0
M  V30 1630 H 160.709 -5.30921 -4.23438 0
M  V30 1631 H 158.655 -3.49318 -5.55259 0
M  V30 1632 H 158.572 -5.22219 -5.46647 0
M  V30 1633 H 159.84 -4.469 -6.38671 0
M  V30 1634 N 164.069 0.697108 -1.41344 0
M  V30 1635 C 165.297 1.48593 -1.43972 0
M  V30 1636 C 165.712 1.88747 -0.0445612 0
M  V30 1637 O 165.069 1.56682 0.935785 0
M  V30 1638 C 165.12 2.74946 -2.34706 0
M  V30 1639 O 164.841 2.36484 -3.68791 0
M  V30 1640 C 166.342 3.687 -2.46121 0
M  V30 1641 H 163.562 0.457964 -0.490418 0
M  V30 1642 H 166.106 0.858429 -1.8561 0
M  V30 1643 H 164.261 3.33937 -1.9638 0
M  V30 1644 H 164.675 3.17918 -4.17167 0
M  V30 1645 H 166.149 4.54145 -3.13777 0
M  V30 1646 H 166.626 4.13081 -1.49199 0
M  V30 1647 H 167.232 3.15613 -2.85076 0
M  V30 1648 N 165.547 1.27147 0.931209 0
M  V30 1649 C 166.775 1.16082 1.71267 0
M  V30 1650 C 167.19 -0.282772 1.8667 0
M  V30 1651 O 166.547 -1.19283 1.38122 0
M  V30 1652 C 166.598 1.8358 3.11417 0
M  V30 1653 O 166.319 3.22299 2.96741 0
M  V30 1654 C 167.82 1.78597 4.05732 0
M  V30 1655 H 165.04 0.403758 0.535929 0
M  V30 1656 H 167.584 1.67953 1.16671 0
M  V30 1657 H 165.739 1.35623 3.62885 0
M  V30 1658 H 166.153 3.55851 3.85319 0
M  V30 1659 H 167.627 2.30444 5.01597 0
M  V30 1660 H 168.104 0.754564 4.3267 0
M  V30 1661 H 168.71 2.26152 3.60188 0
M  V30 1662 N 167.025 -1.13721 1.09112 0
M  V30 1663 C 168.271 -1.85198 0.826414 0
M  V30 1664 C 168.604 -1.83129 -0.646319 0
M  V30 1665 O 167.879 -1.2671 -1.47563 0
M  V30 1666 C 168.162 -3.33507 1.35812 0
M  V30 1667 C 168.015 -3.44108 2.89672 0
M  V30 1668 C 169.334 -4.28838 0.989256 0
M  V30 1669 H 166.453 -0.67243 0.301675 0
M  V30 1670 H 169.095 -1.33499 1.35197 0
M  V30 1671 H 167.245 -3.77666 0.911082 0
M  V30 1672 H 168.917 -3.08684 3.428 0
M  V30 1673 H 167.16 -2.85087 3.26967 0
M  V30 1674 H 167.831 -4.48388 3.21951 0
M  V30 1675 H 170.307 -3.92734 1.37475 0
M  V30 1676 H 169.183 -5.31051 1.38838 0
M  V30 1677 H 169.444 -4.4198 -0.102924 0
M  V30 1678 N 168.503 -0.877838 -1.30888 0
M  V30 1679 C 169.466 -0.344265 -2.266 0
M  V30 1680 C 170.466 0.50922 -1.52524 0
M  V30 1681 O 171.656 0.317398 -1.71284 0
M  V30 1682 C 168.788 0.510198 -3.37061 0
M  V30 1683 H 169.981 -1.1893 -2.7531 0
M  V30 1684 H 167.534 -0.654088 -1.41956 0
M  V30 1685 H 168.269 1.37612 -2.93655 0
M  V30 1686 H 168.054 -0.101047 -3.9197 0
M  V30 1687 H 169.544 0.875537 -4.08319 0
M  V30 1688 N 169.982 1.44106 -0.638065 0
M  V30 1689 C 171.398 1.56672 -0.304286 0
M  V30 1690 C 171.598 1.6244 1.19228 0
M  V30 1691 O 170.654 1.57121 1.9766 0
M  V30 1692 C 171.967 2.83503 -1.00231 0
M  V30 1693 C 173.515 2.97226 -0.981116 0
M  V30 1694 C 173.99 4.26868 -1.65974 0
M  V30 1695 N 175.481 4.33698 -1.62666 0
M  V30 1696 C 176.216 5.32745 -2.12063 0
M  V30 1697 N 175.712 6.38157 -2.6968 0
M  V30 1698 N 177.505 5.24299 -2.02651 0
M  V30 1699 H 169.656 1.38605 -1.60942 0
M  V30 1700 H 171.919 0.664661 -0.675965 0
M  V30 1701 H 171.625 2.85251 -2.0573 0
M  V30 1702 H 171.499 3.73251 -0.54439 0
M  V30 1703 H 173.886 2.95027 0.0654188 0
M  V30 1704 H 173.967 2.08808 -1.47759 0
M  V30 1705 H 173.611 4.29826 -2.70576 0
M  V30 1706 H 173.541 5.14156 -1.13804 0
M  V30 1707 H 176.032 3.58138 -1.20606 0
M  V30 1708 H 176.345 7.10029 -3.05087 0
M  V30 1709 H 174.69 6.38823 -2.73734 0
M  V30 1710 H 177.881 4.4086 -1.57353 0
M  V30 1711 H 178.054 6.01334 -2.41457 0
M  V30 1712 N 171.46 0.379036 1.52974 0
M  V30 1713 C 172.393 -0.504932 2.22544 0
M  V30 1714 C 173.371 -1.0723 1.22231 0
M  V30 1715 O 174.555 -1.12589 1.51182 0
M  V30 1716 C 171.682 -1.69794 2.93066 0
M  V30 1717 C 170.728 -1.25678 4.07563 0
M  V30 1718 S 171.561 -0.246852 5.34931 0
M  V30 1719 C 172.717 -1.44588 6.08971 0
M  V30 1720 H 172.95 0.0858666 2.97176 0
M  V30 1721 H 170.483 0.163183 1.53535 0
M  V30 1722 H 172.441 -2.38219 3.34308 0
M  V30 1723 H 171.102 -2.26002 2.18133 0
M  V30 1724 H 170.295 -2.14725 4.5597 0
M  V30 1725 H 169.897 -0.651584 3.6828 0
M  V30 1726 H 172.189 -2.37469 6.34519 0
M  V30 1727 H 173.132 -1.00292 7.00962 0
M  V30 1728 H 173.54 -1.65804 5.39601 0
M  V30 1729 N 172.938 -1.57226 0.108567 0
M  V30 1730 C 174.187 -1.94008 -0.551703 0
M  V30 1731 C 174.5 -0.993442 -1.68494 0
M  V30 1732 O 175.706 -1.25551 -2.40726 0
M  V30 1733 C 174.162 -3.44763 -1.03279 0
M  V30 1734 C 173.77 -4.47943 0.0714193 0
M  V30 1735 C 175.514 -3.90483 -1.66503 0
M  V30 1736 C 173.421 -5.89865 -0.425779 0
M  V30 1737 H 172.351 -0.724206 -0.209863 0
M  V30 1738 H 175.002 -1.82547 0.186741 0
M  V30 1739 H 173.384 -3.51422 -1.82533 0
M  V30 1740 H 174.558 -4.52942 0.847365 0
M  V30 1741 H 172.873 -4.11913 0.609669 0
M  V30 1742 H 175.47 -4.93925 -2.04798 0
M  V30 1743 H 175.813 -3.29877 -2.53942 0
M  V30 1744 H 176.346 -3.86581 -0.938074 0
M  V30 1745 H 173.085 -6.54202 0.412316 0
M  V30 1746 H 172.605 -5.88309 -1.16843 0
M  V30 1747 H 174.284 -6.40844 -0.890397 0
M  V30 1748 N 174.416 0.165178 -1.56732 0
M  V30 1749 C 175.665 0.879143 -1.81532 0
M  V30 1750 C 175.978 1.83144 -0.686842 0
M  V30 1751 O 177.184 2.58823 -0.819944 0
M  V30 1752 C 175.64 1.61388 -3.21686 0
M  V30 1753 C 175.248 0.704904 -4.4242 0
M  V30 1754 C 176.992 2.3157 -3.55774 0
M  V30 1755 C 174.899 1.44022 -5.73595 0
M  V30 1756 H 173.829 0.332033 -0.676957 0
M  V30 1757 H 176.48 0.132008 -1.83025 0
M  V30 1758 H 174.862 2.40599 -3.14529 0
M  V30 1759 H 176.036 -0.0506815 -4.60772 0
M  V30 1760 H 174.351 0.112419 -4.16248 0
M  V30 1761 H 176.948 2.8719 -4.51028 0
M  V30 1762 H 177.291 3.07201 -2.8095 0
M  V30 1763 H 177.824 1.59297 -3.64513 0
M  V30 1764 H 174.563 0.72612 -6.51466 0
M  V30 1765 H 174.083 2.16898 -5.5921 0
M  V30 1766 H 175.762 1.98606 -6.15764 0
M  V30 1767 N 175.894 1.51508 0.433938 0
M  V30 1768 C 176.804 1.75917 1.5521 0
M  V30 1769 C 177.82 0.643545 1.61662 0
M  V30 1770 O 178.996 0.926183 1.7884 0
M  V30 1771 C 176.061 1.88213 2.91164 0
M  V30 1772 C 175.122 3.12074 2.94802 0
M  V30 1773 C 174.355 3.23774 4.24271 0
M  V30 1774 O 174.578 2.4133 5.16833 0
M  V30 1775 O 173.512 4.16774 4.34262 0
M  V30 1776 H 177.338 2.70777 1.37527 0
M  V30 1777 H 174.923 1.36051 0.617293 0
M  V30 1778 H 176.805 1.98267 3.71845 0
M  V30 1779 H 175.48 0.965413 3.08968 0
M  V30 1780 H 174.387 3.07497 2.13065 0
M  V30 1781 H 175.72 4.03446 2.81943 0
M  V30 1782 N 177.372 -0.689602 1.41712 0
M  V30 1783 C 178.335 -1.78521 1.43746 0
M  V30 1784 C 179.335 -1.57436 0.327191 0
M  V30 1785 O 180.525 -1.64 0.587348 0
M  V30 1786 C 177.657 -3.16971 1.25467 0
M  V30 1787 H 178.85 -1.78108 2.41283 0
M  V30 1788 H 176.403 -0.89781 1.27942 0
M  V30 1789 H 177.138 -3.23019 0.287948 0
M  V30 1790 H 176.923 -3.33678 2.05917 0
M  V30 1791 H 178.413 -3.96935 1.2974 0
M  V30 1792 N 178.85 -1.27639 -0.924453 0
M  V30 1793 C 179.78 -1.13166 -2.04244 0
M  V30 1794 C 180.761 -0.032256 -1.70069 0
M  V30 1795 O 181.946 -0.207328 -1.9309 0
M  V30 1796 C 179.076 -0.781496 -3.38393 0
M  V30 1797 C 178.03 -1.83449 -3.86692 0
M  V30 1798 C 177.356 -1.33822 -5.17683 0
M  V30 1799 C 178.656 -3.23917 -4.09726 0
M  V30 1800 H 180.35 -2.06689 -2.1661 0
M  V30 1801 H 177.896 -0.995136 -1.04082 0
M  V30 1802 H 179.849 -0.667057 -4.16087 0
M  V30 1803 H 178.573 0.189439 -3.2605 0
M  V30 1804 H 177.232 -1.93789 -3.11193 0
M  V30 1805 H 176.88 -0.35665 -5.01734 0
M  V30 1806 H 176.58 -2.04224 -5.50968 0
M  V30 1807 H 178.104 -1.23679 -5.97943 0
M  V30 1808 H 179.518 -3.16559 -4.77978 0
M  V30 1809 H 177.915 -3.92059 -4.54324 0
M  V30 1810 H 178.985 -3.68729 -3.14908 0
M  V30 1811 N 180.328 1.1314 -1.09713 0
M  V30 1812 C 181.605 1.80762 -0.747302 0
M  V30 1813 C 181.985 1.96663 0.767265 0
M  V30 1814 O 181.333 1.53706 1.69076 0
M  V30 1815 C 181.543 3.15606 -1.48975 0
M  V30 1816 C 182.891 3.90914 -1.65746 0
M  V30 1817 O 183.915 3.25239 -1.45251 0
M  V30 1818 O 182.774 5.08718 -1.9967 0
M  V30 1819 H 179.868 0.782103 -0.268782 0
M  V30 1820 H 182.414 1.20041 -1.19951 0
M  V30 1821 H 181.186 2.99278 -2.52088 0
M  V30 1822 H 180.809 3.84029 -1.02991 0
M  V30 1823 N 181.806 0.884767 1.30421 0
M  V30 1824 C 183.052 0.503851 1.96441 0
M  V30 1825 C 183.385 -0.944518 1.69684 0
M  V30 1826 O 182.66 -1.66737 1.00145 0
M  V30 1827 C 182.943 0.779085 3.51571 0
M  V30 1828 C 182.796 2.27807 3.87846 0
M  V30 1829 C 184.115 0.255452 4.39358 0
M  V30 1830 H 181.234 0.184533 0.713524 0
M  V30 1831 H 183.876 1.10872 1.54297 0
M  V30 1832 H 182.026 0.264274 3.876 0
M  V30 1833 H 183.698 2.86127 3.61841 0
M  V30 1834 H 181.941 2.74479 3.35922 0
M  V30 1835 H 182.612 2.42125 4.96064 0
M  V30 1836 H 185.088 0.696079 4.10236 0
M  V30 1837 H 183.964 0.477361 5.4682 0
M  V30 1838 H 184.225 -0.843293 4.33983 0
M  V30 1839 N 183.284 -1.43765 0.645699 0
M  V30 1840 C 184.695 -1.85193 0.236719 0
M  V30 1841 C 185.046 -1.54045 -1.21509 0
M  V30 1842 O 184.171 -0.985694 -1.92647 0
M  V30 1843 C 184.766 -3.36151 0.422845 0
M  V30 1844 C 183.325 -3.76338 0.0682492 0
M  V30 1845 C 182.472 -2.67538 0.729306 0
M  V30 1846 H 185.423 -1.34025 0.849883 0
M  V30 1847 H 185.444 -3.79032 -0.333904 0
M  V30 1848 H 184.956 -3.5879 1.47958 0
M  V30 1849 H 183.057 -3.59312 -0.986179 0
M  V30 1850 H 183.17 -4.76603 0.488469 0
M  V30 1851 H 181.534 -2.54176 0.163235 0
M  V30 1852 H 182.317 -2.93006 1.78892 0
M  V30 1853 N 184.763 -0.387143 -1.52771 0
M  V30 1854 C 186.009 0.188506 -2.02525 0
M  V30 1855 C 186.364 1.44649 -1.26864 0
M  V30 1856 O 185.657 1.88189 -0.359945 0
M  V30 1857 C 185.851 0.512209 -3.53711 0
M  V30 1858 C 185.68 -0.712855 -4.44014 0
M  V30 1859 C 184.45 -1.23147 -4.90064 0
M  V30 1860 C 186.648 -1.58453 -4.89282 0
M  V30 1861 N 184.63 -2.41431 -5.64433 0
M  V30 1862 C 186.001 -2.61381 -5.6221 0
M  V30 1863 C 188.056 -1.60488 -4.71326 0
M  V30 1864 C 186.759 -3.66227 -6.19088 0
M  V30 1865 C 188.785 -2.6424 -5.29085 0
M  V30 1866 C 188.147 -3.6589 -6.01917 0
M  V30 1867 H 184.246 0.0311236 -0.78138 0
M  V30 1868 H 186.83 -0.536548 -1.87161 0
M  V30 1869 H 185.001 1.20632 -3.69192 0
M  V30 1870 H 186.733 1.07482 -3.90166 0
M  V30 1871 H 183.488 -0.792795 -4.66917 0
M  V30 1872 H 183.912 -3.01274 -6.0627 0
M  V30 1873 H 188.554 -0.83247 -4.14524 0
M  V30 1874 H 186.272 -4.44337 -6.74974 0
M  V30 1875 H 189.858 -2.66695 -5.17074 0
M  V30 1876 H 188.738 -4.44855 -6.45813 0
M  V30 1877 N 186.241 1.57166 -0.116904 0
M  V30 1878 C 187.487 1.95412 0.542405 0
M  V30 1879 C 187.82 1.00019 1.66463 0
M  V30 1880 O 187.095 0.0370346 1.94465 0
M  V30 1881 C 187.378 3.43615 1.07708 0
M  V30 1882 C 187.231 4.49781 -0.0415868 0
M  V30 1883 C 188.55 3.93616 1.96861 0
M  V30 1884 H 185.669 0.710543 0.195696 0
M  V30 1885 H 188.311 1.89027 -0.192038 0
M  V30 1886 H 186.461 3.49187 1.70296 0
M  V30 1887 H 188.133 4.56308 -0.676793 0
M  V30 1888 H 186.376 4.28033 -0.705019 0
M  V30 1889 H 187.047 5.50733 0.373717 0
M  V30 1890 H 189.523 3.90335 1.44146 0
M  V30 1891 H 188.399 4.97838 2.3119 0
M  V30 1892 H 188.66 3.34188 2.89432 0
M  V30 1893 N 187.719 -0.156864 1.56817 0
M  V30 1894 C 188.965 -0.872416 1.83076 0
M  V30 1895 C 189.298 -1.81261 0.697001 0
M  V30 1896 O 188.573 -1.92171 -0.30008 0
M  V30 1897 C 188.856 -1.65551 3.19789 0
M  V30 1898 C 188.709 -0.737467 4.43713 0
M  V30 1899 C 190.028 -2.62012 3.53606 0
M  V30 1900 H 187.147 -0.315715 0.665953 0
M  V30 1901 H 189.789 -0.138004 1.89498 0
M  V30 1902 H 187.939 -2.28159 3.14445 0
M  V30 1903 H 189.611 -0.123143 4.61136 0
M  V30 1904 H 187.854 -0.0464067 4.33775 0
M  V30 1905 H 188.525 -1.32122 5.35955 0
M  V30 1906 H 191.001 -2.09525 3.59497 0
M  V30 1907 H 189.877 -3.13861 4.50314 0
M  V30 1908 H 190.138 -3.42902 2.79053 0
M  V30 1909 N 189.197 -1.51736 -0.425897 0
M  V30 1910 C 190.127 -1.76827 -1.52494 0
M  V30 1911 C 191.108 -0.618524 -1.58456 0
M  V30 1912 O 192.293 -0.862416 -1.74 0
M  V30 1913 C 189.423 -1.90374 -2.90474 0
M  V30 1914 C 188.377 -3.0588 -2.99369 0
M  V30 1915 C 187.703 -3.04625 -4.3944 0
M  V30 1916 C 189.003 -4.45644 -2.72394 0
M  V30 1917 H 190.697 -2.68855 -1.31748 0
M  V30 1918 H 188.243 -1.29372 -0.632362 0
M  V30 1919 H 190.196 -2.0651 -3.6733 0
M  V30 1920 H 188.92 -0.95004 -3.12477 0
M  V30 1921 H 187.579 -2.89467 -2.24954 0
M  V30 1922 H 187.227 -2.0701 -4.58428 0
M  V30 1923 H 186.927 -3.82195 -4.46319 0
M  V30 1924 H 188.451 -3.22869 -5.18255 0
M  V30 1925 H 189.865 -4.62348 -3.38979 0
M  V30 1926 H 188.262 -5.25006 -2.9067 0
M  V30 1927 H 189.332 -4.54893 -1.67929 0
M  V30 1928 N 190.675 0.682077 -1.42076 0
M  V30 1929 C 191.605 1.80796 -1.47767 0
M  V30 1930 C 192.586 1.6677 -0.334954 0
M  V30 1931 O 193.771 1.863 -0.548264 0
M  V30 1932 C 190.901 3.19038 -1.37229 0
M  V30 1933 C 189.855 3.47789 -2.49453 0
M  V30 1934 C 189.181 4.8553 -2.23975 0
M  V30 1935 C 190.481 3.45411 -3.91776 0
M  V30 1936 H 192.175 1.7629 -2.41997 0
M  V30 1937 H 189.721 0.846721 -1.16476 0
M  V30 1938 H 191.674 3.97528 -1.39821 0
M  V30 1939 H 190.398 3.24204 -0.394907 0
M  V30 1940 H 189.057 2.71657 -2.46166 0
M  V30 1941 H 188.705 4.87337 -1.24547 0
M  V30 1942 H 188.405 5.0573 -2.99184 0
M  V30 1943 H 189.929 5.66312 -2.28304 0
M  V30 1944 H 191.343 4.13882 -3.96705 0
M  V30 1945 H 189.74 3.77145 -4.66778 0
M  V30 1946 H 190.81 2.44122 -4.18966 0
M  V30 1947 N 192.153 1.28127 0.917671 0
M  V30 1948 C 193.378 1.18007 1.70555 0
M  V30 1949 C 193.803 -0.258257 1.86319 0
M  V30 1950 O 193.161 -1.1869 1.37049 0
M  V30 1951 C 193.209 1.87948 3.07746 0
M  V30 1952 O 192.313 1.18427 3.9503 0
M  V30 1953 H 191.654 0.409867 0.522403 0
M  V30 1954 H 194.184 1.69379 1.1477 0
M  V30 1955 H 194.194 1.95701 3.58001 0
M  V30 1956 H 192.869 2.92573 2.95591 0
M  V30 1957 H 191.446 1.18811 3.53466 0
M  V30 1958 N 193.631 -1.12557 1.10312 0
M  V30 1959 C 194.564 -2.1737 0.694674 0
M  V30 1960 C 195.542 -1.59745 -0.303373 0
M  V30 1961 O 196.726 -1.87408 -0.202578 0
M  V30 1962 C 193.853 -3.38691 0.0248052 0
M  V30 1963 C 192.899 -4.14943 0.986121 0
M  V30 1964 S 193.732 -4.73413 2.50281 0
M  V30 1965 C 194.888 -5.9807 1.84562 0
M  V30 1966 H 195.121 -2.5168 1.58255 0
M  V30 1967 H 192.654 -1.23998 0.919992 0
M  V30 1968 H 194.612 -4.08959 -0.355361 0
M  V30 1969 H 193.273 -3.02664 -0.839851 0
M  V30 1970 H 192.466 -5.01854 0.464651 0
M  V30 1971 H 192.068 -3.50377 1.30813 0
M  V30 1972 H 194.36 -6.67232 1.17507 0
M  V30 1973 H 195.303 -6.54841 2.69423 0
M  V30 1974 H 195.711 -5.49073 1.31069 0
M  V30 1975 N 195.109 -0.891671 -1.2995 0
M  V30 1976 C 196.386 -0.433307 -1.9074 0
M  V30 1977 C 196.766 1.08646 -1.80995 0
M  V30 1978 O 196.114 1.92476 -1.23147 0
M  V30 1979 C 196.324 -0.938895 -3.36134 0
M  V30 1980 C 197.672 -0.977829 -4.13187 0
M  V30 1981 O 198.696 -0.886015 -3.45005 0
M  V30 1982 O 197.555 -1.11453 -5.35015 0
M  V30 1983 H 194.649 -0.133699 -0.816121 0
M  V30 1984 H 197.195 -0.981011 -1.38471 0
M  V30 1985 H 195.967 -1.98281 -3.37343 0
M  V30 1986 H 195.59 -0.37074 -3.95868 0
M  V30 1987 N 196.587 1.43421 -0.653314 0
M  V30 1988 C 197.812 2.06678 -0.172846 0
M  V30 1989 C 198.237 1.48648 1.15262 0
M  V30 1990 O 197.595 0.596457 1.71208 0
M  V30 1991 C 197.643 3.60474 -0.0953184 0
M  V30 1992 O 196.747 4.01487 0.942442 0
M  V30 1993 H 196.088 0.657181 -0.0949155 0
M  V30 1994 H 198.618 1.83925 -0.896265 0
M  V30 1995 H 198.628 4.07905 0.0879728 0
M  V30 1996 H 197.303 4.02088 -1.06291 0
M  V30 1997 H 195.88 3.65646 0.731932 0
M  V30 1998 N 198.065 0.39524 1.52563 0
M  V30 1999 C 199.312 -0.185044 2.01653 0
M  V30 2000 C 199.64 -1.46317 1.28146 0
M  V30 2001 O 198.895 -1.9213 0.372074 0
M  V30 2002 C 199.194 -0.493444 3.53977 0
M  V30 2003 C 198.86 0.69384 4.4553 0
M  V30 2004 C 197.522 1.01954 4.70275 0
M  V30 2005 C 199.874 1.48785 4.99512 0
M  V30 2006 C 197.202 2.14069 5.46252 0
M  V30 2007 C 199.554 2.59965 5.76716 0
M  V30 2008 C 198.218 2.93037 5.99738 0
M  V30 2009 H 197.488 -0.0677123 0.7379 0
M  V30 2010 H 200.135 0.533807 1.8391 0
M  V30 2011 H 198.44 -1.29369 3.69825 0
M  V30 2012 H 200.137 -0.955163 3.89458 0
M  V30 2013 H 196.727 0.429987 4.26438 0
M  V30 2014 H 200.911 1.24946 4.80315 0
M  V30 2015 H 196.167 2.40056 5.62302 0
M  V30 2016 H 200.341 3.21887 6.17545 0
M  V30 2017 H 197.968 3.8003 6.58393 0
M  V30 2018 N 199.544 -1.57102 0.125237 0
M  V30 2019 C 200.774 -1.99472 -0.538015 0
M  V30 2020 C 201.182 -1.00395 -1.60366 0
M  V30 2021 O 200.525 0.0103875 -1.83697 0
M  V30 2022 C 200.587 -3.38262 -1.21734 0
M  V30 2023 C 200.251 -4.56021 -0.298897 0
M  V30 2024 C 201.248 -5.17817 0.464943 0
M  V30 2025 C 198.933 -5.01869 -0.208149 0
M  V30 2026 C 200.927 -6.23852 1.3072 0
M  V30 2027 C 198.614 -6.07763 0.637736 0
M  V30 2028 C 199.612 -6.68622 1.39403 0
M  V30 2029 O 199.3 -7.7247 2.22586 0
M  V30 2030 H 199.032 -0.659934 -0.146501 0
M  V30 2031 H 201.586 -2.04321 0.210267 0
M  V30 2032 H 199.816 -3.30185 -2.01282 0
M  V30 2033 H 201.505 -3.6488 -1.77813 0
M  V30 2034 H 202.271 -4.83308 0.404741 0
M  V30 2035 H 198.15 -4.54241 -0.786522 0
M  V30 2036 H 201.694 -6.71284 1.898 0
M  V30 2037 H 197.591 -6.41701 0.699309 0
M  V30 2038 H 198.359 -7.89595 2.15596 0
M  V30 2039 N 201.022 0.148545 -1.56898 0
M  V30 2040 C 201.969 1.18345 -1.98149 0
M  V30 2041 C 202.939 1.42772 -0.848848 0
M  V30 2042 O 204.124 1.55132 -1.11079 0
M  V30 2043 C 201.264 2.51231 -2.36594 0
M  V30 2044 C 200.377 2.33991 -3.63142 0
M  V30 2045 C 199.512 3.59902 -3.90697 0
M  V30 2046 C 198.551 3.37692 -5.1052 0
M  V30 2047 N 197.688 4.5573 -5.34092 0
M  V30 2048 H 202.528 0.82467 -2.86362 0
M  V30 2049 H 200.065 0.395756 -1.41676 0
M  V30 2050 H 202.023 3.28713 -2.56912 0
M  V30 2051 H 200.653 2.85059 -1.51463 0
M  V30 2052 H 199.705 1.47572 -3.50609 0
M  V30 2053 H 201.017 2.13539 -4.5078 0
M  V30 2054 H 200.171 4.45813 -4.11505 0
M  V30 2055 H 198.91 3.83357 -3.01477 0
M  V30 2056 H 197.915 2.5017 -4.89587 0
M  V30 2057 H 199.14 3.15637 -6.0129 0
M  V30 2058 H 197.086 4.79361 -4.47827 0
M  V30 2059 H 197.003 4.38274 -6.15996 0
M  V30 2060 H 198.271 5.42858 -5.59397 0
M  V30 2061 N 202.5 1.5196 0.417844 0
M  V30 2062 C 203.746 1.65836 1.16732 0
M  V30 2063 C 204.079 0.382881 1.90388 0
M  V30 2064 O 203.354 -0.618368 1.84408 0
M  V30 2065 C 203.637 2.87466 2.16876 0
M  V30 2066 C 203.49 4.25041 1.47174 0
M  V30 2067 C 204.809 3.04613 3.17646 0
M  V30 2068 H 201.928 0.603515 0.423011 0
M  V30 2069 H 204.57 1.84494 0.454105 0
M  V30 2070 H 202.72 2.71689 2.777 0
M  V30 2071 H 204.392 4.52527 0.895376 0
M  V30 2072 H 202.635 4.26843 0.773806 0
M  V30 2073 H 203.306 5.06176 2.20204 0
M  V30 2074 H 205.782 3.1923 2.66892 0
M  V30 2075 H 204.658 3.91247 3.8499 0
M  V30 2076 H 204.919 2.17541 3.84874 0
M  V30 2077 N 203.978 -0.674533 1.42435 0
M  V30 2078 C 204.908 -1.80009 1.48724 0
M  V30 2079 C 205.889 -1.6659 0.343793 0
M  V30 2080 O 207.074 -1.86007 0.558137 0
M  V30 2081 C 204.204 -3.18306 1.38919 0
M  V30 2082 C 203.158 -3.46461 2.51294 0
M  V30 2083 C 202.484 -4.84335 2.26547 0
M  V30 2084 C 203.784 -3.43328 3.93603 0
M  V30 2085 H 205.478 -1.75004 2.42928 0
M  V30 2086 H 203.024 -0.840533 1.16923 0
M  V30 2087 H 204.977 -3.9678 1.41927 0
M  V30 2088 H 203.701 -3.2399 0.412094 0
M  V30 2089 H 202.36 -2.70348 2.47604 0
M  V30 2090 H 202.008 -4.86669 1.2713 0
M  V30 2091 H 201.708 -5.04136 3.01861 0
M  V30 2092 H 203.232 -5.65094 2.31304 0
M  V30 2093 H 204.646 -4.11772 3.98894 0
M  V30 2094 H 203.043 -3.74664 4.68771 0
M  V30 2095 H 204.113 -2.41897 4.20255 0
M  V30 2096 N 205.456 -1.28612 -0.910864 0
M  V30 2097 C 206.684 -1.18792 -1.69399 0
M  V30 2098 C 207.099 0.253039 -1.87097 0
M  V30 2099 O 206.456 1.17071 -1.40003 0
M  V30 2100 C 206.507 -1.88511 -3.08457 0
M  V30 2101 O 206.228 -3.26979 -2.91576 0
M  V30 2102 C 207.729 -1.85029 -4.02839 0
M  V30 2103 H 204.949 -0.412233 -0.529438 0
M  V30 2104 H 207.493 -1.69788 -1.13984 0
M  V30 2105 H 205.648 -1.41379 -3.60681 0
M  V30 2106 H 206.062 -3.61936 -3.79608 0
M  V30 2107 H 207.536 -2.38395 -4.97867 0
M  V30 2108 H 208.013 -0.823303 -4.31414 0
M  V30 2109 H 208.619 -2.31853 -3.56545 0
M  V30 2110 N 206.934 1.1197 -1.10907 0
M  V30 2111 C 207.844 2.21433 -0.774896 0
M  V30 2112 C 208.86 1.72478 0.229657 0
M  V30 2113 O 210.036 2.01288 0.0672008 0
M  V30 2114 C 207.101 3.4602 -0.216986 0
M  V30 2115 C 206.162 4.09791 -1.27944 0
M  V30 2116 C 205.395 5.28431 -0.748055 0
M  V30 2117 O 205.618 5.68823 0.423833 0
M  V30 2118 O 204.552 5.82644 -1.51027 0
M  V30 2119 H 208.378 2.5242 -1.68873 0
M  V30 2120 H 205.963 1.20399 -0.884555 0
M  V30 2121 H 207.845 4.21304 0.090059 0
M  V30 2122 H 206.52 3.16698 0.669633 0
M  V30 2123 H 205.427 3.36265 -1.63941 0
M  V30 2124 H 206.76 4.4328 -2.13925 0
M  V30 2125 N 208.412 0.89855 1.29475 0
M  V30 2126 C 209.344 0.332726 2.26772 0
M  V30 2127 C 210.357 -0.520323 1.54261 0
M  V30 2128 O 211.546 -0.337668 1.75277 0
M  V30 2129 C 208.646 -0.544334 3.345 0
M  V30 2130 C 207.819 0.282728 4.36485 0
M  V30 2131 C 206.878 -0.526982 5.23555 0
M  V30 2132 O 205.904 0.0551165 5.69173 0
M  V30 2133 N 207.106 -1.83331 5.5079 0
M  V30 2134 H 209.871 1.16897 2.75962 0
M  V30 2135 H 207.432 0.762919 1.42798 0
M  V30 2136 H 209.424 -1.09239 3.89678 0
M  V30 2137 H 207.994 -1.28127 2.85136 0
M  V30 2138 H 207.214 1.01221 3.80983 0
M  V30 2139 H 208.502 0.84918 5.01664 0
M  V30 2140 H 207.9 -2.32898 5.15534 0
M  V30 2141 H 206.457 -2.32852 6.08788 0
M  V30 2142 N 209.89 -1.43072 0.660911 0
M  V30 2143 C 210.822 -2.29108 -0.0647641 0
M  V30 2144 C 211.835 -1.42928 -0.779448 0
M  V30 2145 O 213.024 -1.66788 -0.635921 0
M  V30 2146 C 210.124 -3.20032 -1.11503 0
M  V30 2147 C 209.297 -4.34792 -0.476955 0
M  V30 2148 C 208.356 -5.06534 -1.42513 0
M  V30 2149 O 207.382 -5.61538 -0.930771 0
M  V30 2150 N 208.584 -5.1075 -2.75889 0
M  V30 2151 H 211.349 -2.92029 0.673731 0
M  V30 2152 H 208.91 -1.53846 0.50427 0
M  V30 2153 H 210.902 -3.64892 -1.75032 0
M  V30 2154 H 209.472 -2.58658 -1.75541 0
M  V30 2155 H 208.692 -3.92752 0.337572 0
M  V30 2156 H 209.98 -5.0879 -0.0318525 0
M  V30 2157 H 209.378 -4.67447 -3.18606 0
M  V30 2158 H 207.935 -5.59302 -3.347 0
M  V30 2159 N 211.368 -0.403325 -1.52352 0
M  V30 2160 C 212.3 0.4603 -2.2453 0
M  V30 2161 C 213.313 1.01505 -1.27282 0
M  V30 2162 O 214.502 0.914982 -1.53266 0
M  V30 2163 C 211.602 1.65208 -2.95905 0
M  V30 2164 C 210.775 1.22224 -4.19976 0
M  V30 2165 C 209.834 2.28028 -4.74226 0
M  V30 2166 O 208.86 1.88857 -5.36956 0
M  V30 2167 N 210.062 3.6012 -4.55295 0
M  V30 2168 H 212.827 -0.158156 -2.99282 0
M  V30 2169 H 210.388 -0.230402 -1.60252 0
M  V30 2170 H 212.38 2.35541 -3.29093 0
M  V30 2171 H 210.95 2.17658 -2.24374 0
M  V30 2172 H 210.17 0.34725 -3.92668 0
M  V30 2173 H 211.458 0.911924 -5.00561 0
M  V30 2174 H 210.856 3.94698 -4.05253 0
M  V30 2175 H 209.413 4.26447 -4.92936 0
M  V30 2176 N 212.846 1.57033 -0.133567 0
M  V30 2177 C 213.756 2.19632 0.824564 0
M  V30 2178 C 214.772 1.17666 1.28182 0
M  V30 2179 O 215.948 1.50193 1.3418 0
M  V30 2180 C 213.013 2.79499 2.05137 0
M  V30 2181 C 212.074 3.96548 1.64464 0
M  V30 2182 C 211.307 4.5355 2.81297 0
M  V30 2183 O 211.53 4.09438 3.97136 0
M  V30 2184 O 210.464 5.44018 2.57542 0
M  V30 2185 H 214.29 3.01991 0.321766 0
M  V30 2186 H 211.875 1.49112 0.0927889 0
M  V30 2187 H 213.757 3.17602 2.7696 0
M  V30 2188 H 212.432 2.00162 2.54395 0
M  V30 2189 H 211.339 3.63186 0.897048 0
M  V30 2190 H 212.672 4.77364 1.19934 0
M  V30 2191 N 214.325 -0.140222 1.56975 0
M  V30 2192 C 215.257 -1.19818 1.95388 0
M  V30 2193 C 216.27 -1.38816 0.850525 0
M  V30 2194 O 217.459 -1.38267 1.12891 0
M  V30 2195 C 214.559 -2.56189 2.21857 0
M  V30 2196 C 213.732 -2.58077 3.5315 0
M  V30 2197 C 212.791 -3.76037 3.6808 0
M  V30 2198 O 211.817 -3.60598 4.40406 0
M  V30 2199 N 213.019 -4.93763 3.05251 0
M  V30 2200 H 215.784 -0.871609 2.86746 0
M  V30 2201 H 213.345 -0.32972 1.58507 0
M  V30 2202 H 215.337 -3.33623 2.2908 0
M  V30 2203 H 213.907 -2.81111 1.36731 0
M  V30 2204 H 213.127 -1.6651 3.57307 0
M  V30 2205 H 214.415 -2.56377 4.39486 0
M  V30 2206 H 213.813 -5.09209 2.46419 0
M  V30 2207 H 212.37 -5.68949 3.18026 0
M  V30 2208 N 215.803 -1.52179 -0.40978 0
M  V30 2209 C 216.766 -1.74853 -1.48186 0
M  V30 2210 C 217.766 -0.618417 -1.48433 0
M  V30 2211 O 218.956 -0.886286 -1.49969 0
M  V30 2212 C 216.088 -1.8303 -2.87598 0
M  V30 2213 H 217.281 -2.70559 -1.29374 0
M  V30 2214 H 214.834 -1.42586 -0.640233 0
M  V30 2215 H 215.569 -0.89236 -3.11781 0
M  V30 2216 H 215.354 -2.65187 -2.88822 0
M  V30 2217 H 216.844 -2.02316 -3.65319 0
M  V30 2218 N 217.281 0.66697 -1.42791 0
M  V30 2219 C 218.244 1.76211 -1.46568 0
M  V30 2220 C 219.244 1.56896 -0.352196 0
M  V30 2221 O 220.434 1.63044 -0.613364 0
M  V30 2222 C 217.566 3.14935 -1.30494 0
M  V30 2223 H 218.759 1.74247 -2.44086 0
M  V30 2224 H 216.312 0.877342 -1.29354 0
M  V30 2225 H 217.047 3.2252 -0.339301 0
M  V30 2226 H 216.832 3.30359 -2.11199 0
M  V30 2227 H 218.322 3.94821 -1.36038 0
M  V30 2228 N 218.759 1.29093 0.90403 0
M  V30 2229 C 219.709 1.10482 1.99443 0
M  V30 2230 C 220.693 0.0255401 1.6088 0
M  V30 2231 O 221.885 0.24677 1.75271 0
M  V30 2232 C 219.014 0.778882 3.34348 0
M  V30 2233 C 218.1 1.89749 3.79284 0
M  V30 2234 N 218.491 3.14045 3.96497 0
M  V30 2235 C 216.789 1.78955 4.08523 0
M  V30 2236 C 217.49 3.86996 4.34292 0
M  V30 2237 N 216.466 3.14909 4.43095 0
M  V30 2238 H 220.268 2.04778 2.10815 0
M  V30 2239 H 217.782 1.20155 1.09255 0
M  V30 2240 H 219.779 0.62661 4.12164 0
M  V30 2241 H 218.439 -0.156205 3.24324 0
M  V30 2242 H 219.45 3.49548 3.82148 0
M  V30 2243 H 216.127 0.926886 4.07081 0
M  V30 2244 H 217.517 4.93941 4.55491 0
M  V30 2245 N 220.237 -1.11381 1.11499 0
M  V30 2246 C 221.185 -2.19522 0.768956 0
M  V30 2247 C 222.179 -1.67693 -0.239857 0
M  V30 2248 O 223.385 -1.79727 -0.0990755 0
M  V30 2249 H 219.76 -0.715711 0.230786 0
M  V30 2250 H 221.731 -2.45954 1.68964 0
M  V30 2251 C 220.48 -3.46945 0.229073 0
M  V30 2252 H 219.803 -3.8718 0.996596 0
M  V30 2253 H 221.243 -4.23993 0.0251441 0
M  V30 2254 C 219.702 -3.2042 -1.04079 0
M  V30 2255 O 220.232 -3.41178 -2.12038 0
M  V30 2256 N 218.438 -2.74151 -0.963823 0
M  V30 2257 H 217.985 -2.57459 -0.0851722 0
M  V30 2258 H 217.943 -2.56781 -1.81414 0
M  V30 2259 N 221.715 -0.905404 -1.28997 0
M  V30 2260 C 222.663 -0.377431 -2.29517 0
M  V30 2261 C 223.657 0.526461 -1.61012 0
M  V30 2262 O 224.863 0.40863 -1.753 0
M  V30 2263 H 221.238 -0.103437 -0.744852 0
M  V30 2264 H 223.209 -1.23848 -2.71485 0
M  V30 2265 C 221.958 0.374833 -3.45674 0
M  V30 2266 H 221.281 -0.311474 -3.98585 0
M  V30 2267 H 222.721 0.70903 -4.1803 0
M  V30 2268 C 221.18 1.57963 -2.97572 0
M  V30 2269 O 221.71 2.67886 -2.99333 0
M  V30 2270 N 219.916 1.42375 -2.53333 0
M  V30 2271 H 219.463 0.529466 -2.521 0
M  V30 2272 H 219.421 2.23117 -2.21509 0
M  V30 2273 N 223.193 1.4272 -0.668489 0
M  V30 2274 C 224.44 2.01624 -0.18814 0
M  V30 2275 C 224.768 1.5282 1.20317 0
M  V30 2276 O 224.023 0.718323 1.8204 0
M  V30 2277 C 224.322 3.57021 -0.164499 0
M  V30 2278 C 223.988 4.25232 -1.49962 0
M  V30 2279 C 222.65 4.4358 -1.8652 0
M  V30 2280 C 225.002 4.63727 -2.37921 0
M  V30 2281 C 222.33 4.97694 -3.10674 0
M  V30 2282 C 224.682 5.19218 -3.6138 0
M  V30 2283 C 223.346 5.3578 -3.98115 0
M  V30 2284 H 222.616 0.737795 -0.0688454 0
M  V30 2285 H 225.263 1.70991 -0.862225 0
M  V30 2286 H 223.568 3.87285 0.593079 0
M  V30 2287 H 225.265 4.00372 0.224271 0
M  V30 2288 H 221.855 4.11306 -1.20522 0
M  V30 2289 H 226.039 4.4923 -2.10964 0
M  V30 2290 H 221.295 5.08702 -3.39164 0
M  V30 2291 H 225.469 5.4799 -4.29743 0
M  V30 2292 H 223.096 5.77475 -4.94395 0
M  V30 2293 N 224.671 0.411399 1.52136 0
M  V30 2294 C 225.619 -0.427633 2.28635 0
M  V30 2295 C 226.613 -1.04383 1.33419 0
M  V30 2296 O 227.819 -0.981772 1.50868 0
M  V30 2297 H 224.194 -0.156689 0.735495 0
M  V30 2298 H 226.165 0.238761 2.97443 0
M  V30 2299 C 224.914 -1.53082 3.12188 0
M  V30 2300 H 224.237 -1.06601 3.85326 0
M  V30 2301 H 225.677 -2.09167 3.68816 0
M  V30 2302 C 224.136 -2.49946 2.25895 0
M  V30 2303 O 224.666 -3.53884 1.90076 0
M  V30 2304 N 222.872 -2.2021 1.8962 0
M  V30 2305 H 222.419 -1.35719 2.18948 0
M  V30 2306 H 222.377 -2.85266 1.32176 0
M  V30 2307 N 226.149 -1.5696 0.141893 0
M  V30 2308 C 227.396 -1.9596 -0.510492 0
M  V30 2309 C 227.724 -1.02648 -1.65208 0
M  V30 2310 O 226.979 -0.0546947 -1.95624 0
M  V30 2311 C 227.278 -3.41242 -1.06249 0
M  V30 2312 C 226.944 -4.50882 -0.0398791 0
M  V30 2313 C 225.606 -4.80595 0.241247 0
M  V30 2314 C 227.958 -5.17058 0.65578 0
M  V30 2315 C 225.286 -5.73792 1.22393 0
M  V30 2316 C 227.638 -6.11313 1.62724 0
M  V30 2317 C 226.302 -6.39407 1.91612 0
M  V30 2318 H 225.572 -0.717068 -0.186802 0
M  V30 2319 H 228.219 -1.90142 0.227643 0
M  V30 2320 H 226.524 -3.43866 -1.87785 0
M  V30 2321 H 228.221 -3.68742 -1.57576 0
M  V30 2322 H 224.811 -4.27754 -0.269174 0
M  V30 2323 H 228.995 -4.94239 0.451779 0
M  V30 2324 H 224.251 -5.93853 1.45424 0
M  V30 2325 H 228.425 -6.61668 2.17183 0
M  V30 2326 H 226.052 -7.11427 2.6791 0
M  V30 2327 N 227.627 0.131896 -1.57047 0
M  V30 2328 C 228.904 0.871495 -1.75112 0
M  V30 2329 C 229.284 1.9866 -0.713949 0
M  V30 2330 O 228.632 2.26965 0.264447 0
M  V30 2331 C 228.842 1.40007 -3.19686 0
M  V30 2332 C 230.19 1.85752 -3.81813 0
M  V30 2333 O 231.214 1.49715 -3.23209 0
M  V30 2334 O 230.073 2.5226 -4.84796 0
M  V30 2335 H 227.167 0.412919 -0.716538 0
M  V30 2336 H 229.713 0.116641 -1.69299 0
M  V30 2337 H 228.485 0.599404 -3.86682 0
M  V30 2338 H 228.108 2.218 -3.29986 0
M  V30 2339 N 229.106 1.52395 0.401703 0
M  V30 2340 C 230.056 1.72649 1.48917 0
M  V30 2341 C 231.04 0.580436 1.50066 0
M  V30 2342 O 232.232 0.83779 1.55917 0
M  V30 2343 C 229.361 1.88729 2.86769 0
M  V30 2344 C 228.447 3.09228 2.90239 0
M  V30 2345 N 228.838 4.31805 2.63396 0
M  V30 2346 C 227.136 3.09214 3.21408 0
M  V30 2347 C 227.837 5.13326 2.73625 0
M  V30 2348 N 226.813 4.48735 3.06819 0
M  V30 2349 H 230.615 2.65058 1.26971 0
M  V30 2350 H 228.129 1.50528 0.609504 0
M  V30 2351 H 230.126 2.01358 3.65049 0
M  V30 2352 H 228.786 0.975252 3.09708 0
M  V30 2353 H 229.797 4.60154 2.37653 0
M  V30 2354 H 226.474 2.27774 3.49893 0
M  V30 2355 H 227.864 6.21003 2.56524 0
M  V30 2356 N 230.584 -0.659388 1.43143 0
M  V30 2357 C 231.995 -1.24041 1.39537 0
M  V30 2358 C 232.346 -1.95963 0.0963364 0
M  V30 2359 O 231.471 -2.00892 -0.804438 0
M  V30 2360 C 232.066 -2.25601 2.52764 0
M  V30 2361 C 230.625 -2.79195 2.52443 0
M  V30 2362 C 229.772 -1.53743 2.30778 0
M  V30 2363 H 232.723 -0.451792 1.52133 0
M  V30 2364 H 232.744 -3.07651 2.23899 0
M  V30 2365 H 232.256 -1.73226 3.47296 0
M  V30 2366 H 230.357 -3.35649 1.61773 0
M  V30 2367 H 230.47 -3.2716 3.50004 0
M  V30 2368 H 228.834 -1.80869 1.79328 0
M  V30 2369 H 229.617 -1.03312 3.27386 0
M  V30 2370 N 232.062 -1.29571 -0.897171 0
M  V30 2371 C 233.339 -1.08365 -1.62839 0
M  V30 2372 C 233.719 0.371331 -2.07808 0
M  V30 2373 O 233.067 1.3606 -1.83576 0
M  V30 2374 C 233.277 -2.0735 -2.80726 0
M  V30 2375 C 234.625 -2.38406 -3.51351 0
M  V30 2376 O 235.649 -2.05564 -2.90898 0
M  V30 2377 O 234.508 -2.9453 -4.60341 0
M  V30 2378 H 231.602 -0.415345 -0.715134 0
M  V30 2379 H 234.148 -1.40952 -0.945018 0
M  V30 2380 H 232.92 -3.05339 -2.44711 0
M  V30 2381 H 232.543 -1.75507 -3.56767 0
M  V30 2382 N 233.54 1.10788 -1.12088 0
M  V30 2383 C 234.503 2.15207 -0.788577 0
M  V30 2384 C 235.503 1.59609 0.195317 0
M  V30 2385 O 236.693 1.74174 -0.0300193 0
M  V30 2386 C 233.825 3.4047 -0.171174 0
M  V30 2387 H 235.018 2.46116 -1.71368 0
M  V30 2388 H 232.571 1.26089 -0.923652 0
M  V30 2389 H 233.306 3.15176 0.763832 0
M  V30 2390 H 233.091 3.82109 -0.879514 0
M  V30 2391 H 234.581 4.17576 0.04496 0
M  V30 2392 N 235.018 0.912232 1.28515 0
M  V30 2393 C 236.265 0.544599 1.95039 0
M  V30 2394 C 236.593 -0.911435 1.71823 0
M  V30 2395 O 235.848 -1.66317 1.03137 0
M  V30 2396 C 236.147 0.798392 3.48368 0
M  V30 2397 C 235.813 2.23374 3.91682 0
M  V30 2398 C 234.475 2.62617 4.03219 0
M  V30 2399 C 236.827 3.16786 4.13879 0
M  V30 2400 C 234.155 3.94429 4.3433 0
M  V30 2401 C 236.507 4.48161 4.46469 0
M  V30 2402 C 235.171 4.8726 4.56217 0
M  V30 2403 H 234.441 0.199283 0.7137 0
M  V30 2404 H 237.088 1.15327 1.52879 0
M  V30 2405 H 235.393 0.106908 3.91654 0
M  V30 2406 H 237.09 0.493141 3.97956 0
M  V30 2407 H 233.68 1.91922 3.83228 0
M  V30 2408 H 237.864 2.87677 4.0442 0
M  V30 2409 H 233.12 4.24426 4.40082 0
M  V30 2410 H 237.294 5.20559 4.62592 0
M  V30 2411 H 234.921 5.89431 4.80078 0
M  V30 2412 N 236.496 -1.42363 0.676048 0
M  V30 2413 C 237.773 -1.95183 0.127726 0
M  V30 2414 C 238.153 -1.61641 -1.35777 0
M  V30 2415 O 237.501 -0.913216 -2.09458 0
M  V30 2416 C 237.711 -3.46721 0.398199 0
M  V30 2417 C 239.059 -4.23427 0.315383 0
M  V30 2418 O 240.083 -3.54649 0.332016 0
M  V30 2419 O 238.942 -5.45888 0.25865 0
M  V30 2420 H 236.036 -0.826992 0.00359427 0
M  V30 2421 H 238.582 -1.52184 0.750864 0
M  V30 2422 H 237.354 -3.64344 1.4272 0
M  V30 2423 H 236.977 -3.96769 -0.256885 0
M  V30 2424 N 237.974 -0.419461 -1.51915 0
M  V30 2425 C 239.221 0.152939 -2.01922 0
M  V30 2426 C 239.549 1.4426 -1.30458 0
M  V30 2427 O 238.804 1.91514 -0.402593 0
M  V30 2428 C 239.103 0.437067 -3.54717 0
M  V30 2429 C 238.769 -0.764632 -4.44369 0
M  V30 2430 C 237.431 -1.09423 -4.68594 0
M  V30 2431 C 239.783 -1.56713 -4.97082 0
M  V30 2432 C 237.111 -2.22732 -5.42777 0
M  V30 2433 C 239.463 -2.69107 -5.72507 0
M  V30 2434 C 238.127 -3.02541 -5.95 0
M  V30 2435 H 237.397 0.0559644 -0.738884 0
M  V30 2436 H 240.044 -0.562998 -1.83037 0
M  V30 2437 H 238.349 1.23469 -3.71837 0
M  V30 2438 H 240.046 0.893083 -3.90928 0
M  V30 2439 H 236.636 -0.497775 -4.257 0
M  V30 2440 H 240.82 -1.32571 -4.78266 0
M  V30 2441 H 236.076 -2.48971 -5.58411 0
M  V30 2442 H 240.25 -3.31671 -6.12346 0
M  V30 2443 H 237.877 -3.90457 -6.52264 0
M  V30 2444 N 239.452 1.56882 -0.150215 0
M  V30 2445 C 240.729 1.87844 0.545327 0
M  V30 2446 C 241.109 1.0567 1.82749 0
M  V30 2447 O 240.457 0.144442 2.28043 0
M  V30 2448 C 240.667 3.39526 0.80767 0
M  V30 2449 C 242.015 4.08814 1.14703 0
M  V30 2450 O 243.039 3.44723 0.896917 0
M  V30 2451 O 241.898 5.22004 1.61784 0
M  V30 2452 H 238.992 0.778677 0.278553 0
M  V30 2453 H 241.538 1.68666 -0.187068 0
M  V30 2454 H 240.31 3.91173 -0.0996096 0
M  V30 2455 H 239.933 3.64243 1.59413 0
M  V30 2456 N 240.93 -0.123565 1.57115 0
M  V30 2457 C 241.86 -1.15309 2.03042 0
M  V30 2458 C 242.841 -1.43454 0.914061 0
M  V30 2459 O 244.026 -1.53973 1.18347 0
M  V30 2460 C 241.156 -2.48043 2.43089 0
M  V30 2461 C 240.11 -2.3437 3.58127 0
M  V30 2462 C 239.436 -3.72026 3.84059 0
M  V30 2463 C 240.736 -1.80804 4.90007 0
M  V30 2464 H 242.43 -0.771102 2.893 0
M  V30 2465 H 239.976 -0.369479 1.39179 0
M  V30 2466 H 241.929 -3.20311 2.73823 0
M  V30 2467 H 240.653 -2.88122 1.53796 0
M  V30 2468 H 239.312 -1.64551 3.27595 0
M  V30 2469 H 238.96 -4.09582 2.91979 0
M  V30 2470 H 238.66 -3.63732 4.6149 0
M  V30 2471 H 240.184 -4.45806 4.1724 0
M  V30 2472 H 241.598 -2.42886 5.19307 0
M  V30 2473 H 239.995 -1.83343 5.71407 0
M  V30 2474 H 241.065 -0.76528 4.78823 0
M  V30 2475 N 242.408 -1.52605 -0.393616 0
M  V30 2476 C 243.657 -1.66649 -1.13627 0
M  V30 2477 C 243.97 -0.410364 -1.91247 0
M  V30 2478 O 245.176 -0.430854 -2.68059 0
M  V30 2479 C 243.632 -2.9449 -2.06891 0
M  V30 2480 C 243.24 -4.27266 -1.34714 0
M  V30 2481 C 244.984 -3.17899 -2.81319 0
M  V30 2482 C 242.891 -5.46217 -2.26717 0
M  V30 2483 H 241.821 -0.62084 -0.427871 0
M  V30 2484 H 244.472 -1.791 -0.399428 0
M  V30 2485 H 242.854 -2.75774 -2.84191 0
M  V30 2486 H 244.028 -4.56518 -0.626714 0
M  V30 2487 H 242.343 -4.10081 -0.722643 0
M  V30 2488 H 244.94 -4.03949 -3.50328 0
M  V30 2489 H 245.283 -2.32777 -3.45139 0
M  V30 2490 H 245.816 -3.37159 -2.11113 0
M  V30 2491 H 242.555 -6.33733 -1.67521 0
M  V30 2492 H 242.075 -5.21283 -2.96689 0
M  V30 2493 H 243.754 -5.7991 -2.86903 0
M  V30 2494 N 243.887 0.651787 -1.4349 0
M  V30 2495 C 245.136 1.40754 -1.44469 0
M  V30 2496 C 245.449 1.95463 -0.0731845 0
M  V30 2497 O 246.655 2.71471 0.0395721 0
M  V30 2498 C 245.111 2.54735 -2.5424 0
M  V30 2499 C 244.719 2.06628 -3.97504 0
M  V30 2500 C 246.463 3.32092 -2.64414 0
M  V30 2501 C 244.37 3.17829 -4.98737 0
M  V30 2502 H 243.3 0.528862 -0.53742 0
M  V30 2503 H 245.951 0.703365 -1.69485 0
M  V30 2504 H 244.333 3.2763 -2.22428 0
M  V30 2505 H 245.507 1.40734 -4.38783 0
M  V30 2506 H 243.822 1.42146 -3.91387 0
M  V30 2507 H 246.419 4.14952 -3.37223 0
M  V30 2508 H 246.762 3.80217 -1.69532 0
M  V30 2509 H 247.295 2.66279 -2.95534 0
M  V30 2510 H 244.034 2.74671 -5.95177 0
M  V30 2511 H 243.554 3.82429 -4.62069 0
M  V30 2512 H 245.233 3.82937 -5.21505 0
M  V30 2513 N 245.365 1.30045 0.890287 0
M  V30 2514 C 246.59 1.21598 1.68014 0
M  V30 2515 C 247.015 -0.218678 1.86825 0
M  V30 2516 O 246.373 -1.15756 1.39536 0
M  V30 2517 C 246.421 1.94434 3.03691 0
M  V30 2518 O 245.525 1.2678 3.92429 0
M  V30 2519 H 244.866 0.420856 0.513592 0
M  V30 2520 H 247.396 1.71775 1.11151 0
M  V30 2521 H 247.406 2.03251 3.5377 0
M  V30 2522 H 246.081 2.98777 2.89318 0
M  V30 2523 H 244.658 1.26282 3.50866 0
M  V30 2524 N 246.843 -1.10192 1.12674 0
M  V30 2525 C 248.071 -1.85983 0.906527 0
M  V30 2526 C 248.486 -1.80783 -0.544333 0
M  V30 2527 O 247.843 -1.19834 -1.37645 0
M  V30 2528 C 247.894 -3.34281 1.37618 0
M  V30 2529 O 247.615 -3.39401 2.77017 0
M  V30 2530 C 249.116 -4.26938 1.19325 0
M  V30 2531 H 246.336 -0.587716 0.323775 0
M  V30 2532 H 248.88 -1.39284 1.49734 0
M  V30 2533 H 247.035 -3.78436 0.828539 0
M  V30 2534 H 247.449 -4.31838 2.97684 0
M  V30 2535 H 248.923 -5.29181 1.57071 0
M  V30 2536 H 249.4 -4.38995 0.134097 0
M  V30 2537 H 250.006 -3.8859 1.72852 0
M  V30 2538 N 248.321 -0.919034 -1.28029 0
M  V30 2539 C 249.251 -0.428581 -2.29533 0
M  V30 2540 C 250.232 0.50659 -1.62381 0
M  V30 2541 O 251.417 0.413195 -1.89753 0
M  V30 2542 C 248.547 0.327388 -3.45753 0
M  V30 2543 C 247.501 -0.519137 -4.2484 0
M  V30 2544 C 246.827 0.365486 -5.33449 0
M  V30 2545 C 248.127 -1.77914 -4.91064 0
M  V30 2546 H 249.821 -1.27687 -2.70807 0
M  V30 2547 H 247.367 -0.615428 -1.30186 0
M  V30 2548 H 249.32 0.681378 -4.15855 0
M  V30 2549 H 248.044 1.20963 -3.03374 0
M  V30 2550 H 246.703 -0.855717 -3.56473 0
M  V30 2551 H 246.351 1.24642 -4.87312 0
M  V30 2552 H 246.051 -0.197356 -5.87268 0
M  V30 2553 H 247.575 0.715241 -6.06396 0
M  V30 2554 H 248.989 -1.49374 -5.53498 0
M  V30 2555 H 247.386 -2.2848 -5.54903 0
M  V30 2556 H 248.456 -2.50382 -4.15255 0
M  V30 2557 N 249.799 1.42003 -0.683588 0
M  V30 2558 C 250.746 2.30798 -0.0107309 0
M  V30 2559 C 251.716 1.4645 0.783688 0
M  V30 2560 O 252.901 1.75263 0.754156 0
M  V30 2561 C 250.041 3.3238 0.928306 0
M  V30 2562 C 249.154 4.31814 0.126776 0
M  V30 2563 C 248.289 5.20468 1.06236 0
M  V30 2564 C 247.328 6.11577 0.253035 0
M  V30 2565 N 246.465 6.92754 1.14179 0
M  V30 2566 H 251.305 2.8778 -0.773727 0
M  V30 2567 H 248.842 1.41745 -0.393283 0
M  V30 2568 H 250.8 3.89813 1.48666 0
M  V30 2569 H 249.43 2.76976 1.65783 0
M  V30 2570 H 248.482 3.76427 -0.54833 0
M  V30 2571 H 249.794 4.96276 -0.501192 0
M  V30 2572 H 248.948 5.82677 1.69035 0
M  V30 2573 H 247.687 4.56204 1.7242 0
M  V30 2574 H 246.692 5.48428 -0.388108 0
M  V30 2575 H 247.917 6.77892 -0.404839 0
M  V30 2576 H 245.863 6.3111 1.78987 0
M  V30 2577 H 245.78 7.53855 0.569111 0
M  V30 2578 H 247.048 7.59441 1.75697 0
M  V30 2579 N 251.277 0.427512 1.51691 0
M  V30 2580 C 252.224 -0.388867 2.275 0
M  V30 2581 C 253.194 -1.02532 1.30677 0
M  V30 2582 O 254.379 -1.0461 1.59566 0
M  V30 2583 C 251.519 -1.48954 3.11298 0
M  V30 2584 C 250.632 -0.872194 4.23104 0
M  V30 2585 C 249.767 -1.94709 4.94228 0
M  V30 2586 C 248.806 -1.30766 5.97969 0
M  V30 2587 N 247.943 -2.32349 6.62539 0
M  V30 2588 H 252.783 0.263997 2.96828 0
M  V30 2589 H 250.32 0.142033 1.46413 0
M  V30 2590 H 252.278 -2.13887 3.58201 0
M  V30 2591 H 250.908 -2.11217 2.44105 0
M  V30 2592 H 249.96 -0.111419 3.80237 0
M  V30 2593 H 251.272 -0.365264 4.97461 0
M  V30 2594 H 250.426 -2.67327 5.44629 0
M  V30 2595 H 249.165 -2.48773 4.1948 0
M  V30 2596 H 248.17 -0.566902 5.4687 0
M  V30 2597 H 249.395 -0.774483 6.74669 0
M  V30 2598 H 247.341 -2.85511 5.90609 0
M  V30 2599 H 247.258 -1.8652 7.3263 0
M  V30 2600 H 248.526 -3.04481 7.17574 0
M  V30 2601 N 252.755 -1.56801 0.158532 0
M  V30 2602 C 253.685 -2.20347 -0.772609 0
M  V30 2603 C 254.666 -1.15518 -1.24859 0
M  V30 2604 O 255.851 -1.43902 -1.30406 0
M  V30 2605 C 252.981 -2.83417 -2.00729 0
M  V30 2606 C 251.935 -3.94174 -1.66765 0
M  V30 2607 C 251.261 -4.44233 -2.97592 0
M  V30 2608 C 252.561 -5.14392 -0.905447 0
M  V30 2609 H 254.255 -2.98413 -0.242959 0
M  V30 2610 H 251.801 -1.43537 -0.115419 0
M  V30 2611 H 253.754 -3.26543 -2.6636 0
M  V30 2612 H 252.478 -2.02701 -2.56086 0
M  V30 2613 H 251.137 -3.51684 -1.03508 0
M  V30 2614 H 250.785 -3.60325 -3.50963 0
M  V30 2615 H 250.485 -5.18945 -2.75626 0
M  V30 2616 H 252.009 -4.90037 -3.64274 0
M  V30 2617 H 253.423 -5.5429 -1.46408 0
M  V30 2618 H 251.82 -5.9494 -0.7853 0
M  V30 2619 H 252.89 -4.84795 0.100668 0
M  V30 2620 N 254.233 0.115231 -1.57178 0
M  V30 2621 C 255.18 1.14115 -2.00615 0
M  V30 2622 C 256.15 1.40939 -0.878941 0
M  V30 2623 O 257.335 1.52741 -1.14345 0
M  V30 2624 C 254.475 2.46156 -2.4187 0
M  V30 2625 C 253.588 2.26236 -3.68024 0
M  V30 2626 C 252.723 3.51534 -3.98243 0
M  V30 2627 C 251.762 3.26787 -5.17568 0
M  V30 2628 N 250.899 4.44298 -5.43639 0
M  V30 2629 H 255.739 0.763743 -2.88047 0
M  V30 2630 H 253.276 0.365615 -1.42484 0
M  V30 2631 H 255.234 3.23189 -2.63827 0
M  V30 2632 H 253.864 2.81783 -1.57475 0
M  V30 2633 H 252.916 1.40102 -3.5366 0
M  V30 2634 H 254.228 2.03929 -4.55208 0
M  V30 2635 H 253.382 4.36984 -4.20868 0
M  V30 2636 H 252.121 3.76876 -3.09541 0
M  V30 2637 H 251.126 2.39729 -4.94783 0
M  V30 2638 H 252.351 3.02812 -6.0785 0
M  V30 2639 H 250.297 4.69754 -4.57895 0
M  V30 2640 H 250.214 4.25109 -6.25154 0
M  V30 2641 H 251.482 5.3087 -5.70786 0
M  V30 2642 N 255.711 1.52812 0.385517 0
M  V30 2643 C 256.643 1.74096 1.49074 0
M  V30 2644 C 257.656 0.621462 1.50472 0
M  V30 2645 O 258.845 0.897245 1.54311 0
M  V30 2646 C 255.945 1.78774 2.87911 0
M  V30 2647 C 255.118 3.08134 3.10439 0
M  V30 2648 C 254.177 3.04313 4.29278 0
M  V30 2649 O 253.203 3.78168 4.25415 0
M  V30 2650 N 254.405 2.23741 5.35649 0
M  V30 2651 H 257.17 2.69455 1.31202 0
M  V30 2652 H 254.731 1.51343 0.575065 0
M  V30 2653 H 256.723 1.73721 3.65518 0
M  V30 2654 H 255.293 0.907869 2.99126 0
M  V30 2655 H 254.513 3.26649 2.20667 0
M  V30 2656 H 255.801 3.93662 3.22347 0
M  V30 2657 H 255.199 1.63211 5.41645 0
M  V30 2658 H 253.756 2.24524 6.11909 0
M  V30 2659 N 257.189 -0.644168 1.43834 0
M  V30 2660 C 258.437 -1.40117 1.45642 0
M  V30 2661 C 258.758 -1.94814 0.0852413 0
M  V30 2662 O 258.028 -1.74988 -0.880688 0
M  V30 2663 H 256.608 -0.52005 0.536243 0
M  V30 2664 H 259.27 -0.7591 1.7951 0
M  V30 2665 H 258.366 -2.23902 2.17427 0
M  V30 2666 N 258.668 -1.30515 -0.883378 0
M  V30 2667 C 259.615 -1.17032 -1.98927 0
M  V30 2668 C 260.585 -0.0594241 -1.65994 0
M  V30 2669 O 261.77 -0.229895 -1.8941 0
M  V30 2670 C 258.91 -0.869777 -3.33959 0
M  V30 2671 C 258.023 -2.06271 -3.79574 0
M  V30 2672 C 257.158 -1.70011 -5.03259 0
M  V30 2673 C 256.197 -2.8579 -5.41286 0
M  V30 2674 N 255.334 -2.49816 -6.56153 0
M  V30 2675 H 260.174 -2.1164 -2.09792 0
M  V30 2676 H 257.711 -1.05296 -1.02719 0
M  V30 2677 H 259.669 -0.676138 -4.11685 0
M  V30 2678 H 258.299 0.0394332 -3.22776 0
M  V30 2679 H 257.351 -2.36755 -2.97744 0
M  V30 2680 H 258.663 -2.92971 -4.03694 0
M  V30 2681 H 257.817 -1.47032 -5.88614 0
M  V30 2682 H 256.556 -0.804829 -4.81013 0
M  V30 2683 H 255.561 -3.09434 -4.54456 0
M  V30 2684 H 256.786 -3.76008 -5.65504 0
M  V30 2685 H 254.732 -1.62795 -6.35479 0
M  V30 2686 H 254.649 -3.30048 -6.8015 0
M  V30 2687 H 255.917 -2.30197 -7.44735 0
M  V30 2688 N 260.146 1.09593 -1.13257 0
M  V30 2689 C 261.371 1.8604 -0.916732 0
M  V30 2690 C 261.796 1.80504 0.529146 0
M  V30 2691 O 261.154 1.18127 1.37534 0
M  V30 2692 C 261.202 3.32017 -1.40703 0
M  V30 2693 O 260.306 4.08141 -0.591153 0
M  V30 2694 H 259.647 0.576943 -0.328683 0
M  V30 2695 H 262.177 1.38405 -1.50682 0
M  V30 2696 H 262.187 3.82865 -1.4099 0
M  V30 2697 H 260.862 3.35361 -2.45979 0
M  V30 2698 H 259.439 3.67084 -0.656005 0
M  V30 2699 N 261.624 0.925811 1.2754 0
M  V30 2700 C 262.87 0.566092 1.94739 0
M  V30 2701 C 263.203 -0.890057 1.72603 0
M  V30 2702 O 262.478 -1.63467 1.05399 0
M  V30 2703 C 262.761 0.89054 3.48915 0
M  V30 2704 C 262.614 2.4003 3.80402 0
M  V30 2705 C 263.933 0.395101 4.38323 0
M  V30 2706 H 261.052 0.20714 0.707292 0
M  V30 2707 H 263.694 1.15725 1.50691 0
M  V30 2708 H 261.844 0.387452 3.86563 0
M  V30 2709 H 263.516 2.97494 3.52555 0
M  V30 2710 H 261.759 2.85028 3.2702 0
M  V30 2711 H 262.43 2.57785 4.8811 0
M  V30 2712 H 264.906 0.826241 4.07814 0
M  V30 2713 H 263.782 0.651086 5.45025 0
M  V30 2714 H 264.043 -0.704798 4.36446 0
M  V30 2715 N 263.102 -1.41638 0.69111 0
M  V30 2716 C 264.049 -2.30789 0.0229705 0
M  V30 2717 C 265.019 -1.46863 -0.775911 0
M  V30 2718 O 266.204 -1.75661 -0.74485 0
M  V30 2719 C 263.344 -3.32868 -0.910666 0
M  V30 2720 C 262.457 -4.31875 -0.103874 0
M  V30 2721 C 261.592 -5.21024 -1.03475 0
M  V30 2722 C 260.631 -6.11702 -0.220598 0
M  V30 2723 N 259.768 -6.93349 -1.10504 0
M  V30 2724 H 264.608 -2.87366 0.788978 0
M  V30 2725 H 262.145 -1.41535 0.400794 0
M  V30 2726 H 264.103 -3.90596 -1.46597 0
M  V30 2727 H 262.733 -2.77851 -1.64312 0
M  V30 2728 H 261.785 -3.76131 0.568285 0
M  V30 2729 H 263.097 -4.96003 0.527504 0
M  V30 2730 H 262.251 -5.83565 -1.65943 0
M  V30 2731 H 260.99 -4.57112 -1.69999 0
M  V30 2732 H 259.995 -5.48215 0.417187 0
M  V30 2733 H 261.22 -6.77668 0.440784 0
M  V30 2734 H 259.166 -6.3205 -1.75638 0
M  V30 2735 H 259.083 -7.54146 -0.529125 0
M  V30 2736 H 260.351 -7.60362 -1.71667 0
M  V30 2737 N 264.58 -0.43555 -1.51462 0
M  V30 2738 C 265.826 0.131709 -2.02372 0
M  V30 2739 C 266.159 1.42516 -1.3192 0
M  V30 2740 O 265.434 1.89606 -0.433573 0
M  V30 2741 C 265.717 0.352301 -3.58373 0
M  V30 2742 C 265.57 -0.959676 -4.39443 0
M  V30 2743 C 266.889 1.12286 -4.25535 0
M  V30 2744 H 264.008 0.0463936 -0.735538 0
M  V30 2745 H 266.65 -0.574197 -1.81116 0
M  V30 2746 H 264.8 0.9536 -3.76615 0
M  V30 2747 H 266.472 -1.59482 -4.32855 0
M  V30 2748 H 264.715 -1.56468 -4.04599 0
M  V30 2749 H 265.386 -0.759394 -5.46752 0
M  V30 2750 H 267.862 0.613545 -4.11552 0
M  V30 2751 H 266.738 1.24598 -5.34571 0
M  V30 2752 H 266.999 2.15048 -3.86273 0
M  V30 2753 N 266.058 1.56714 -0.166846 0
M  V30 2754 C 267.469 1.83378 0.350646 0
M  V30 2755 C 267.82 1.08646 1.63372 0
M  V30 2756 O 266.945 0.338058 2.13743 0
M  V30 2757 C 267.54 3.32643 0.642963 0
M  V30 2758 C 266.099 3.59818 1.10491 0
M  V30 2759 C 265.246 2.76954 0.138411 0
M  V30 2760 H 268.197 1.53803 -0.391193 0
M  V30 2761 H 268.218 3.49878 1.49551 0
M  V30 2762 H 267.73 3.87007 -0.291055 0
M  V30 2763 H 265.831 3.1086 2.05418 0
M  V30 2764 H 265.944 4.68178 1.01716 0
M  V30 2765 H 264.308 2.4666 0.634911 0
M  V30 2766 H 265.091 3.34097 -0.789549 0
M  V30 2767 N 267.536 -0.106894 1.57237 0
M  V30 2768 C 268.785 -0.811163 1.8467 0
M  V30 2769 C 269.098 -1.80469 0.754342 0
M  V30 2770 O 270.304 -2.55601 0.915439 0
M  V30 2771 C 268.76 -1.49337 3.27454 0
M  V30 2772 C 268.368 -0.540217 4.44731 0
M  V30 2773 C 270.112 -2.18206 3.64124 0
M  V30 2774 C 268.019 -1.22634 5.78545 0
M  V30 2775 H 266.949 -0.306679 0.688813 0
M  V30 2776 H 269.6 -0.0639887 1.83388 0
M  V30 2777 H 267.982 -2.2876 3.23241 0
M  V30 2778 H 269.156 0.221659 4.60267 0
M  V30 2779 H 267.471 0.042146 4.16379 0
M  V30 2780 H 270.068 -2.70253 4.61376 0
M  V30 2781 H 270.411 -2.96562 2.92158 0
M  V30 2782 H 270.944 -1.45658 3.70174 0
M  V30 2783 H 267.683 -0.483832 6.53712 0
M  V30 2784 H 267.203 -1.95993 5.66874 0
M  V30 2785 H 268.882 -1.75615 6.2271 0
M  V30 2786 N 269.014 -1.53014 -0.377408 0
M  V30 2787 C 270.244 -1.72265 -1.14054 0
M  V30 2788 C 270.652 -0.44601 -1.83868 0
M  V30 2789 O 269.995 0.590095 -1.73964 0
M  V30 2790 C 270.057 -2.82492 -2.22348 0
M  V30 2791 C 269.721 -4.23233 -1.72402 0
M  V30 2792 C 270.718 -5.05992 -1.19448 0
M  V30 2793 C 268.403 -4.696 -1.78273 0
M  V30 2794 C 270.397 -6.33203 -0.730268 0
M  V30 2795 C 268.084 -5.96792 -1.31464 0
M  V30 2796 C 269.082 -6.78424 -0.789297 0
M  V30 2797 O 268.77 -8.0323 -0.328077 0
M  V30 2798 H 268.502 -0.579873 -0.347453 0
M  V30 2799 H 271.056 -2.00502 -0.445882 0
M  V30 2800 H 269.286 -2.49702 -2.95272 0
M  V30 2801 H 270.975 -2.90034 -2.83963 0
M  V30 2802 H 271.741 -4.71349 -1.14259 0
M  V30 2803 H 267.62 -4.06142 -2.18106 0
M  V30 2804 H 271.164 -6.96868 -0.319542 0
M  V30 2805 H 267.061 -6.30937 -1.36342 0
M  V30 2806 H 267.829 -8.1727 -0.448493 0
M  V30 2807 N 270.492 0.636531 -1.44174 0
M  V30 2808 C 271.769 1.39463 -1.37148 0
M  V30 2809 C 272.149 2.11082 -0.027507 0
M  V30 2810 O 271.497 2.05954 0.989716 0
M  V30 2811 C 271.707 2.36552 -2.56601 0
M  V30 2812 C 273.055 3.00048 -3.00427 0
M  V30 2813 O 274.079 2.46878 -2.56767 0
M  V30 2814 O 272.938 3.96488 -3.76111 0
M  V30 2815 H 270.032 0.623903 -0.542839 0
M  V30 2816 H 272.578 0.662039 -1.56253 0
M  V30 2817 H 271.35 1.82692 -3.46034 0
M  V30 2818 H 270.973 3.17236 -2.39681 0
M  V30 2819 N 271.97 1.30982 0.876444 0
M  V30 2820 C 273.217 1.20296 1.62896 0
M  V30 2821 C 273.545 -0.240395 1.93009 0
M  V30 2822 O 272.8 -1.18733 1.55567 0
M  V30 2823 C 273.099 1.98572 2.9716 0
M  V30 2824 C 272.765 3.48125 2.86566 0
M  V30 2825 C 271.427 3.88905 2.83383 0
M  V30 2826 C 273.779 4.43322 2.74071 0
M  V30 2827 C 271.107 5.2316 2.65556 0
M  V30 2828 C 273.459 5.77695 2.57781 0
M  V30 2829 C 272.123 6.17704 2.52979 0
M  V30 2830 H 271.393 0.440193 0.59608 0
M  V30 2831 H 274.04 1.62177 1.01837 0
M  V30 2832 H 272.345 1.49352 3.62217 0
M  V30 2833 H 274.042 1.8769 3.54364 0
M  V30 2834 H 270.632 3.15723 2.89856 0
M  V30 2835 H 274.816 4.12752 2.75589 0
M  V30 2836 H 270.072 5.53241 2.60259 0
M  V30 2837 H 274.246 6.51091 2.47089 0
M  V30 2838 H 271.873 7.21678 2.38924 0
M  V30 2839 N 273.449 -1.08991 1.13837 0
M  V30 2840 C 274.677 -1.85011 0.926202 0
M  V30 2841 C 275.092 -1.8135 -0.525127 0
M  V30 2842 O 274.449 -1.21287 -1.36366 0
M  V30 2843 C 274.5 -3.32802 1.41155 0
M  V30 2844 O 274.221 -3.36444 2.80601 0
M  V30 2845 C 275.722 -4.25649 1.23847 0
M  V30 2846 H 272.942 -0.584249 0.32999 0
M  V30 2847 H 275.486 -1.37688 1.51202 0
M  V30 2848 H 273.641 -3.77536 0.868631 0
M  V30 2849 H 274.055 -4.28657 3.02248 0
M  V30 2850 H 275.529 -5.27485 1.62675 0
M  V30 2851 H 276.006 -4.38828 0.18065 0
M  V30 2852 H 276.612 -3.86735 1.76964 0
M  V30 2853 N 274.927 -0.932562 -1.27047 0
M  V30 2854 C 276.155 -0.592031 -1.98249 0
M  V30 2855 C 276.57 0.831062 -1.69525 0
M  V30 2856 O 275.927 1.55299 -0.958561 0
M  V30 2857 C 275.978 -0.814279 -3.5221 0
M  V30 2858 O 275.699 -2.18139 -3.7993 0
M  V30 2859 C 277.2 -0.483121 -4.4066 0
M  V30 2860 H 274.42 -0.223896 -0.632544 0
M  V30 2861 H 276.964 -1.25091 -1.61779 0
M  V30 2862 H 275.119 -0.20213 -3.86872 0
M  V30 2863 H 275.533 -2.235 -4.74498 0
M  V30 2864 H 277.007 -0.689298 -5.47679 0
M  V30 2865 H 277.484 0.581546 -4.35333 0
M  V30 2866 H 278.09 -1.07362 -4.11526 0
M  V30 2867 N 276.405 1.4127 -0.698611 0
M  V30 2868 C 277.355 2.27997 -0.0119836 0
M  V30 2869 C 278.339 1.42363 0.749765 0
M  V30 2870 O 279.531 1.65607 0.624758 0
M  V30 2871 C 276.66 3.30702 0.921458 0
M  V30 2872 C 275.746 4.23814 0.155796 0
M  V30 2873 N 276.137 4.98572 -0.852015 0
M  V30 2874 C 274.435 4.44284 0.390836 0
M  V30 2875 C 275.136 5.66744 -1.3106 0
M  V30 2876 N 274.112 5.39867 -0.635944 0
M  V30 2877 H 277.914 2.83232 -0.784649 0
M  V30 2878 H 275.428 1.53518 -0.529711 0
M  V30 2879 H 277.425 3.91661 1.42854 0
M  V30 2880 H 276.085 2.77028 1.69369 0
M  V30 2881 H 277.096 5.03024 -1.23235 0
M  V30 2882 H 273.773 4.01614 1.14071 0
M  V30 2883 H 275.163 6.36672 -2.14707 0
M  V30 2884 N 277.883 0.443576 1.51229 0
M  V30 2885 C 279.108 -0.121648 2.07043 0
M  V30 2886 C 279.533 -1.35156 1.30823 0
M  V30 2887 O 278.891 -1.7793 0.347934 0
M  V30 2888 C 278.939 -0.41624 3.5819 0
M  V30 2889 O 278.043 -1.50163 3.8409 0
M  V30 2890 H 277.384 0.000871367 0.663999 0
M  V30 2891 H 279.914 0.626706 1.94765 0
M  V30 2892 H 279.924 -0.664867 4.02546 0
M  V30 2893 H 278.599 0.482653 4.1309 0
M  V30 2894 H 277.176 -1.24248 3.51592 0
M  V30 2895 N 279.361 -1.56624 0.175154 0
M  V30 2896 C 280.777 -1.58571 -0.180966 0
M  V30 2897 C 280.977 -1.19065 -1.6256 0
M  V30 2898 O 280.033 -0.904044 -2.35761 0
M  V30 2899 C 281.346 -3.00522 0.103326 0
M  V30 2900 C 282.894 -3.12972 0.0418426 0
M  V30 2901 C 283.369 -4.57022 0.299175 0
M  V30 2902 N 284.86 -4.62541 0.247086 0
M  V30 2903 C 285.595 -5.71857 0.420318 0
M  V30 2904 N 285.091 -6.89717 0.652816 0
M  V30 2905 N 286.884 -5.60972 0.355957 0
M  V30 2906 H 279.035 -1.80589 1.11809 0
M  V30 2907 H 281.298 -0.837178 0.444788 0
M  V30 2908 H 281.004 -3.33916 1.10422 0
M  V30 2909 H 280.878 -3.72344 -0.603299 0
M  V30 2910 H 283.265 -2.79403 -0.949636 0
M  V30 2911 H 283.346 -2.43578 0.781238 0
M  V30 2912 H 282.99 -4.913 1.28788 0
M  V30 2913 H 282.92 -5.24579 -0.460876 0
M  V30 2914 H 285.411 -3.77829 0.0731895 0
M  V30 2915 H 285.724 -7.68911 0.774347 0
M  V30 2916 H 284.069 -6.91572 0.689476 0
M  V30 2917 H 287.26 -4.67773 0.174882 0
M  V30 2918 H 287.433 -6.46111 0.494388 0
M  V30 2919 N 280.839 0.0985539 -1.57292 0
M  V30 2920 C 281.786 1.11981 -2.01814 0
M  V30 2921 C 282.756 1.39999 -0.89384 0
M  V30 2922 O 283.941 1.5152 -1.15958 0
M  V30 2923 C 281.081 2.43577 -2.44467 0
M  V30 2924 C 280.194 2.2232 -3.70402 0
M  V30 2925 C 279.329 3.4729 -4.01949 0
M  V30 2926 C 278.368 3.2128 -5.21005 0
M  V30 2927 N 277.505 4.38507 -5.48321 0
M  V30 2928 H 282.345 0.733149 -2.88841 0
M  V30 2929 H 279.882 0.350482 -1.42864 0
M  V30 2930 H 281.84 3.20373 -2.6724 0
M  V30 2931 H 280.47 2.80097 -1.60455 0
M  V30 2932 H 279.522 1.36343 -3.55126 0
M  V30 2933 H 280.834 1.99089 -4.57345 0
M  V30 2934 H 279.988 4.32495 -4.25479 0
M  V30 2935 H 278.727 3.73572 -3.13521 0
M  V30 2936 H 277.732 2.34468 -4.97298 0
M  V30 2937 H 278.957 2.96348 -6.11028 0
M  V30 2938 H 276.903 4.64871 -4.62851 0
M  V30 2939 H 276.82 4.18455 -6.29628 0
M  V30 2940 H 278.088 5.24787 -5.76385 0
M  V30 2941 N 282.317 1.53212 0.369288 0
M  V30 2942 C 283.264 1.79388 1.45219 0
M  V30 2943 C 284.234 0.638059 1.53356 0
M  V30 2944 O 285.419 0.879852 1.69302 0
M  V30 2945 C 282.559 1.98623 2.82211 0
M  V30 2946 C 281.672 3.26337 2.8307 0
M  V30 2947 C 280.807 3.35779 4.11614 0
M  V30 2948 C 279.846 4.5754 4.06601 0
M  V30 2949 N 278.983 4.64155 5.26787 0
M  V30 2950 H 283.823 2.71794 1.22198 0
M  V30 2951 H 281.36 1.34642 0.592444 0
M  V30 2952 H 283.318 2.07761 3.61789 0
M  V30 2953 H 281.948 1.09558 3.03639 0
M  V30 2954 H 281 3.26171 1.95747 0
M  V30 2955 H 282.312 4.15988 2.75237 0
M  V30 2956 H 281.466 3.44208 4.99606 0
M  V30 2957 H 280.205 2.44137 4.22195 0
M  V30 2958 H 279.21 4.49215 3.16996 0
M  V30 2959 H 280.435 5.50519 3.97625 0
M  V30 2960 H 278.381 3.75413 5.3796 0
M  V30 2961 H 278.298 5.47706 5.21109 0
M  V30 2962 H 279.566 4.76863 6.16621 0
M  V30 2963 N 283.795 -0.628877 1.44509 0
M  V30 2964 C 285.072 -1.38733 1.37886 0
M  V30 2965 C 285.452 -2.11065 0.0387008 0
M  V30 2966 O 284.8 -2.06476 -0.97878 0
M  V30 2967 C 285.01 -2.35188 2.57852 0
M  V30 2968 C 286.358 -2.9845 3.02014 0
M  V30 2969 O 287.382 -2.45513 2.58073 0
M  V30 2970 O 286.241 -3.94487 3.78209 0
M  V30 2971 H 283.335 -0.621015 0.54614 0
M  V30 2972 H 285.881 -0.653744 1.56602 0
M  V30 2973 H 284.653 -1.80855 3.46998 0
M  V30 2974 H 284.276 -3.1596 2.4136 0
M  V30 2975 N 285.273 -1.31445 -0.869486 0
M  V30 2976 C 286.519 -1.22347 -1.62489 0
M  V30 2977 C 286.874 0.216204 -1.91181 0
M  V30 2978 O 286.167 1.14977 -1.53268 0
M  V30 2979 C 286.361 -2.00145 -2.96102 0
M  V30 2980 C 286.19 -3.51531 -2.80456 0
M  V30 2981 C 284.96 -4.20882 -2.79618 0
M  V30 2982 C 287.158 -4.46471 -2.5528 0
M  V30 2983 N 285.14 -5.58421 -2.55027 0
M  V30 2984 C 286.511 -5.71682 -2.39957 0
M  V30 2985 C 288.566 -4.35892 -2.40629 0
M  V30 2986 C 287.269 -6.87511 -2.11472 0
M  V30 2987 C 289.295 -5.51505 -2.13532 0
M  V30 2988 C 288.657 -6.75707 -1.98998 0
M  V30 2989 H 284.756 -0.502815 -0.598917 0
M  V30 2990 H 287.34 -1.65639 -1.02332 0
M  V30 2991 H 285.511 -1.59221 -3.54264 0
M  V30 2992 H 287.243 -1.83063 -3.60929 0
M  V30 2993 H 283.998 -3.72857 -2.92018 0
M  V30 2994 H 284.422 -6.30841 -2.45701 0
M  V30 2995 H 289.064 -3.40533 -2.50593 0
M  V30 2996 H 286.782 -7.82897 -2.00245 0
M  V30 2997 H 290.368 -5.45238 -2.02995 0
M  V30 2998 H 289.248 -7.63655 -1.78326 0
M  V30 2999 N 286.751 1.08385 -1.14413 0
M  V30 3000 C 287.698 2.15311 -0.831265 0
M  V30 3001 C 288.668 1.64751 0.211292 0
M  V30 3002 O 289.853 1.90627 0.0811674 0
M  V30 3003 C 286.993 3.43658 -0.315143 0
M  V30 3004 C 286.106 4.08064 -1.41802 0
M  V30 3005 C 285.241 5.24207 -0.859126 0
M  V30 3006 C 284.28 5.80554 -1.93967 0
M  V30 3007 N 283.417 6.88042 -1.39793 0
M  V30 3008 H 288.257 2.41415 -1.74708 0
M  V30 3009 H 285.794 1.18474 -0.871909 0
M  V30 3010 H 287.752 4.172 0.00230884 0
M  V30 3011 H 286.382 3.17839 0.56378 0
M  V30 3012 H 285.434 3.3228 -1.85187 0
M  V30 3013 H 286.746 4.45962 -2.23427 0
M  V30 3014 H 285.9 6.04689 -0.49359 0
M  V30 3015 H 284.639 4.87699 -0.011932 0
M  V30 3016 H 283.644 4.98725 -2.31415 0
M  V30 3017 H 284.869 6.19121 -2.79046 0
M  V30 3018 H 282.815 6.53493 -0.572919 0
M  V30 3019 H 282.732 7.24767 -2.15054 0
M  V30 3020 H 284 7.72255 -1.0603 0
M  V30 3021 N 288.23 0.939286 1.26551 0
M  V30 3022 C 289.458 0.602536 1.97932 0
M  V30 3023 C 289.873 -0.82206 1.69964 0
M  V30 3024 O 289.23 -1.54789 0.966784 0
M  V30 3025 C 289.281 0.832946 3.51773 0
M  V30 3026 O 289.002 2.20151 3.78768 0
M  V30 3027 C 290.503 0.506483 4.40397 0
M  V30 3028 H 287.723 0.227248 0.631347 0
M  V30 3029 H 290.267 1.25948 1.61113 0
M  V30 3030 H 288.422 0.222644 3.8676 0
M  V30 3031 H 288.836 2.26013 4.73306 0
M  V30 3032 H 290.31 0.718333 5.47306 0
M  V30 3033 H 290.787 -0.558451 4.35635 0
M  V30 3034 H 291.393 1.09543 4.10951 0
M  V30 3035 N 289.708 -1.40897 0.706093 0
M  V30 3036 C 290.638 -2.33418 0.0620085 0
M  V30 3037 C 291.619 -1.52385 -0.755827 0
M  V30 3038 O 292.804 -1.80886 -0.706674 0
M  V30 3039 C 289.934 -3.36293 -0.867445 0
M  V30 3040 C 288.888 -4.27716 -0.155932 0
M  V30 3041 C 288.214 -5.2105 -1.20046 0
M  V30 3042 C 289.514 -5.12944 0.984149 0
M  V30 3043 H 291.208 -2.87527 0.83477 0
M  V30 3044 H 288.754 -1.38249 0.402875 0
M  V30 3045 H 290.707 -3.99949 -1.32735 0
M  V30 3046 H 289.431 -2.80556 -1.67199 0
M  V30 3047 H 288.09 -3.65498 0.284047 0
M  V30 3048 H 287.738 -4.61624 -1.99781 0
M  V30 3049 H 287.438 -5.83056 -0.729328 0
M  V30 3050 H 288.962 -5.87584 -1.66066 0
M  V30 3051 H 290.376 -5.70109 0.604048 0
M  V30 3052 H 288.773 -5.83945 1.38304 0
M  V30 3053 H 289.843 -4.49485 1.81911 0
M  V30 3054 N 291.186 -0.45159 -1.50991 0
M  V30 3055 C 292.416 0.108177 -2.06317 0
M  V30 3056 C 292.824 1.35774 -1.31765 0
M  V30 3057 O 292.167 1.79838 -0.374694 0
M  V30 3058 C 292.229 0.481659 -3.56259 0
M  V30 3059 C 291.893 -0.663114 -4.52163 0
M  V30 3060 C 292.89 -1.53947 -4.96585 0
M  V30 3061 C 290.575 -0.8479 -4.95092 0
M  V30 3062 C 292.569 -2.58518 -5.82621 0
M  V30 3063 C 290.256 -1.89686 -5.80915 0
M  V30 3064 C 291.254 -2.76388 -6.24579 0
M  V30 3065 O 290.942 -3.79482 -7.08695 0
M  V30 3066 H 290.674 0.00499183 -0.675982 0
M  V30 3067 H 293.228 -0.633659 -1.95381 0
M  V30 3068 H 291.458 1.27641 -3.65027 0
M  V30 3069 H 293.147 0.974233 -3.94035 0
M  V30 3070 H 293.913 -1.4083 -4.64103 0
M  V30 3071 H 289.792 -0.18258 -4.60638 0
M  V30 3072 H 293.336 -3.26224 -6.16623 0
M  V30 3073 H 289.233 -2.02817 -6.12809 0
M  V30 3074 H 290.001 -3.76234 -7.26905 0
M  V30 3075 N 292.664 1.56529 -0.183458 0
M  V30 3076 C 293.912 1.96855 0.457452 0
M  V30 3077 C 294.233 1.07104 1.62953 0
M  V30 3078 O 293.503 0.139887 1.954 0
M  V30 3079 H 292.083 0.72693 0.171992 0
M  V30 3080 H 294.745 1.93056 -0.267476 0
M  V30 3081 H 293.841 3.01423 0.809368 0
M  V30 3082 N 294.142 -0.090211 1.57342 0
M  V30 3083 C 295.105 -1.09335 2.01441 0
M  V30 3084 C 296.105 -1.32666 0.908641 0
M  V30 3085 O 297.295 -1.28697 1.174 0
M  V30 3086 C 294.427 -2.44136 2.3793 0
M  V30 3087 H 295.62 -0.713662 2.91285 0
M  V30 3088 H 293.173 -0.335404 1.52659 0
M  V30 3089 H 293.908 -2.86972 1.51055 0
M  V30 3090 H 293.693 -2.28548 3.18603 0
M  V30 3091 H 295.183 -3.16277 2.72688 0
M  V30 3092 N 295.62 -1.53406 -0.361157 0
M  V30 3093 C 296.568 -1.80832 -1.46296 0
M  V30 3094 C 297.562 -0.677699 -1.55253 0
M  V30 3095 O 298.768 -0.860723 -1.58087 0
M  V30 3096 H 295.143 -0.572627 -0.487445 0
M  V30 3097 H 297.114 -2.73045 -1.20371 0
M  V30 3098 C 295.863 -2.01907 -2.8307 0
M  V30 3099 H 295.186 -2.88349 -2.76938 0
M  V30 3100 H 296.626 -2.25072 -3.59331 0
M  V30 3101 C 295.085 -0.799449 -3.27277 0
M  V30 3102 O 295.615 0.00971761 -4.01699 0
M  V30 3103 N 293.821 -0.621637 -2.83873 0
M  V30 3104 H 293.368 -1.28126 -2.23476 0
M  V30 3105 H 293.326 0.19298 -3.13807 0
M  V30 3106 N 297.098 0.621204 -1.44841 0
M  V30 3107 C 298.344 1.3826 -1.48365 0
M  V30 3108 C 298.677 1.93831 -0.119624 0
M  V30 3109 O 297.952 1.74251 0.864111 0
M  V30 3110 C 298.235 2.54058 -2.55199 0
M  V30 3111 C 298.088 2.03772 -4.00995 0
M  V30 3112 C 299.407 3.56225 -2.58442 0
M  V30 3113 H 296.526 0.501374 -0.540179 0
M  V30 3114 H 299.168 0.7015 -1.76576 0
M  V30 3115 H 297.318 3.12162 -2.31274 0
M  V30 3116 H 298.99 1.50423 -4.36086 0
M  V30 3117 H 297.233 1.34876 -4.12299 0
M  V30 3118 H 297.904 2.87185 -4.71411 0
M  V30 3119 H 300.38 3.07939 -2.79844 0
M  V30 3120 H 299.256 4.34756 -3.3508 0
M  V30 3121 H 299.517 4.10949 -1.63013 0
M  V30 3122 N 298.576 1.31904 0.862503 0
M  V30 3123 C 299.825 1.21373 1.61094 0
M  V30 3124 C 300.138 -0.22504 1.94301 0
M  V30 3125 O 301.344 -0.452121 2.67709 0
M  V30 3126 C 299.8 2.12525 2.9045 0
M  V30 3127 C 299.408 3.61441 2.64697 0
M  V30 3128 C 301.152 2.10813 3.68454 0
M  V30 3129 C 299.059 4.44578 3.90006 0
M  V30 3130 H 297.989 0.450705 0.604468 0
M  V30 3131 H 300.64 1.56811 0.953027 0
M  V30 3132 H 299.022 1.69994 3.57656 0
M  V30 3133 H 300.196 4.12264 2.05851 0
M  V30 3134 H 298.511 3.65205 2.00036 0
M  V30 3135 H 301.108 2.70167 4.61426 0
M  V30 3136 H 301.451 1.09713 4.01583 0
M  V30 3137 H 301.984 2.51583 3.08141 0
M  V30 3138 H 298.723 5.46461 3.62023 0
M  V30 3139 H 298.243 3.98508 4.48276 0
M  V30 3140 H 299.922 4.57176 4.5782 0
M  V30 3141 N 300.054 -1.07777 1.14986 0
M  V30 3142 C 301.303 -1.79669 0.916617 0
M  V30 3143 C 301.616 -1.87474 -0.557917 0
M  V30 3144 O 302.822 -2.55845 -0.908617 0
M  V30 3145 C 301.278 -3.22848 1.59051 0
M  V30 3146 C 300.886 -3.23257 3.10176 0
M  V30 3147 C 302.63 -3.99379 1.43864 0
M  V30 3148 C 300.537 -4.61063 3.70372 0
M  V30 3149 H 299.467 -0.673349 0.33929 0
M  V30 3150 H 302.118 -1.21003 1.37951 0
M  V30 3151 H 300.5 -3.8168 1.0553 0
M  V30 3152 H 301.674 -2.74095 3.70417 0
M  V30 3153 H 299.989 -2.60222 3.25074 0
M  V30 3154 H 302.586 -5.0122 1.86232 0
M  V30 3155 H 302.929 -4.14511 0.385564 0
M  V30 3156 H 303.462 -3.47032 1.94457 0
M  V30 3157 H 300.201 -4.51135 4.7556 0
M  V30 3158 H 299.721 -5.1048 3.14913 0
M  V30 3159 H 301.4 -5.30034 3.71043 0
M  V30 3160 N 301.532 -0.945985 -1.26051 0
M  V30 3161 C 302.779 -0.596118 -1.93527 0
M  V30 3162 C 303.107 0.865559 -1.74179 0
M  V30 3163 O 302.362 1.63524 -1.0751 0
M  V30 3164 C 302.661 -0.890475 -3.46129 0
M  V30 3165 C 302.327 -2.3368 -3.85622 0
M  V30 3166 C 300.989 -2.73216 -3.96114 0
M  V30 3167 C 303.341 -3.27648 -4.05334 0
M  V30 3168 C 300.669 -4.05806 -4.2372 0
M  V30 3169 C 303.021 -4.59841 -4.3443 0
M  V30 3170 C 301.685 -4.99185 -4.43137 0
M  V30 3171 H 300.955 -0.218135 -0.708165 0
M  V30 3172 H 303.602 -1.1934 -1.49768 0
M  V30 3173 H 301.907 -0.210711 -3.91233 0
M  V30 3174 H 303.604 -0.598478 -3.96509 0
M  V30 3175 H 300.194 -2.02015 -3.78005 0
M  V30 3176 H 304.378 -2.98298 -3.96651 0
M  V30 3177 H 299.634 -4.35945 -4.28675 0
M  V30 3178 H 303.808 -5.32641 -4.48628 0
M  V30 3179 H 301.435 -6.01952 -4.64282 0
M  V30 3180 N 303.011 1.40521 -0.713556 0
M  V30 3181 C 303.921 2.34522 -0.0606667 0
M  V30 3182 C 304.937 1.57193 0.74607 0
M  V30 3183 O 306.113 1.89591 0.679493 0
M  V30 3184 C 303.178 3.36081 0.851491 0
M  V30 3185 C 302.239 4.29286 0.0349339 0
M  V30 3186 C 301.472 5.25994 0.903649 0
M  V30 3187 O 301.695 5.28616 2.14292 0
M  V30 3188 O 300.629 6.00918 0.343723 0
M  V30 3189 H 304.455 2.91968 -0.835972 0
M  V30 3190 H 302.04 1.41681 -0.47402 0
M  V30 3191 H 303.922 3.98369 1.37404 0
M  V30 3192 H 302.597 2.81052 1.60598 0
M  V30 3193 H 301.504 3.70289 -0.532633 0
M  V30 3194 H 302.837 4.87462 -0.681287 0
M  V30 3195 N 304.489 0.459591 1.5075 0
M  V30 3196 C 305.737 -0.0991532 2.01857 0
M  V30 3197 C 306.058 -1.41247 1.34441 0
M  V30 3198 O 305.328 -1.89775 0.486022 0
M  V30 3199 H 303.908 -0.039633 0.745948 0
M  V30 3200 H 306.57 0.607387 1.85194 0
M  V30 3201 H 305.666 -0.258998 3.11023 0
M  V30 3202 N 305.967 -1.56429 0.191757 0
M  V30 3203 C 307.216 -1.9666 -0.448088 0
M  V30 3204 C 307.529 -1.08136 -1.62991 0
M  V30 3205 O 308.735 -1.38135 -2.33733 0
M  V30 3206 C 307.191 -3.49753 -0.848585 0
M  V30 3207 C 306.799 -4.46935 0.308764 0
M  V30 3208 C 308.543 -3.9876 -1.4557 0
M  V30 3209 C 306.45 -5.91293 -0.112506 0
M  V30 3210 H 305.38 -0.734312 -0.171179 0
M  V30 3211 H 308.031 -1.81301 0.283242 0
M  V30 3212 H 306.413 -3.60604 -1.63649 0
M  V30 3213 H 307.587 -4.47813 1.08627 0
M  V30 3214 H 305.902 -4.08102 0.827158 0
M  V30 3215 H 308.499 -5.04086 -1.78328 0
M  V30 3216 H 308.842 -3.42875 -2.36099 0
M  V30 3217 H 309.375 -3.9101 -0.731836 0
M  V30 3218 H 306.114 -6.51097 0.758514 0
M  V30 3219 H 305.634 -5.93676 -0.854941 0
M  V30 3220 H 307.313 -6.44663 -0.549448 0
M  V30 3221 N 307.445 0.0818655 -1.57387 0
M  V30 3222 C 308.378 1.12986 -1.98266 0
M  V30 3223 C 309.356 1.38123 -0.857954 0
M  V30 3224 O 310.54 1.51663 -1.1194 0
M  V30 3225 C 307.667 2.47632 -2.31076 0
M  V30 3226 C 306.713 2.38693 -3.53452 0
M  V30 3227 S 307.546 1.79071 -5.04672 0
M  V30 3228 C 308.702 3.15316 -5.40673 0
M  V30 3229 H 308.935 0.781435 -2.86846 0
M  V30 3230 H 306.468 0.290034 -1.51651 0
M  V30 3231 H 308.426 3.25089 -2.50654 0
M  V30 3232 H 307.087 2.79638 -1.43043 0
M  V30 3233 H 306.28 3.37964 -3.73893 0
M  V30 3234 H 305.882 1.69369 -3.33452 0
M  V30 3235 H 308.174 4.11613 -5.38127 0
M  V30 3236 H 309.117 2.99664 -6.41566 0
M  V30 3237 H 309.525 3.15457 -4.68132 0
M  V30 3238 N 308.923 1.53595 0.353017 0
M  V30 3239 C 309.886 1.80232 1.41594 0
M  V30 3240 C 310.886 0.673081 1.46035 0
M  V30 3241 O 312.076 0.941335 1.46576 0
M  V30 3242 C 309.208 1.93578 2.80607 0
M  V30 3243 H 310.401 2.75174 1.19244 0
M  V30 3244 H 307.954 1.44864 0.586872 0
M  V30 3245 H 308.689 1.00746 3.08254 0
M  V30 3246 H 308.474 2.75724 2.78781 0
M  V30 3247 H 309.964 2.15735 3.57558 0
M  V30 3248 N 310.401 -0.613514 1.45168 0
M  V30 3249 C 311.648 -1.37268 1.48875 0
M  V30 3250 C 311.976 -1.94077 0.128161 0
M  V30 3251 O 311.231 -1.75178 -0.872416 0
M  V30 3252 C 311.53 -2.54347 2.51083 0
M  V30 3253 C 311.196 -2.1572 3.95949 0
M  V30 3254 C 309.858 -2.04899 4.35396 0
M  V30 3255 C 312.21 -1.85485 4.87078 0
M  V30 3256 C 309.538 -1.62057 5.63875 0
M  V30 3257 C 311.89 -1.4413 6.15962 0
M  V30 3258 C 310.554 -1.31863 6.54346 0
M  V30 3259 H 309.824 -0.502299 0.544773 0
M  V30 3260 H 312.471 -0.694021 1.78481 0
M  V30 3261 H 310.776 -3.27524 2.15024 0
M  V30 3262 H 312.473 -3.12577 2.51191 0
M  V30 3263 H 309.063 -2.25066 3.64751 0
M  V30 3264 H 313.247 -1.92745 4.57343 0
M  V30 3265 H 308.503 -1.51177 5.92415 0
M  V30 3266 H 312.677 -1.19778 6.86022 0
M  V30 3267 H 310.304 -0.984392 7.538 0
M  V30 3268 N 311.879 -1.3236 -0.855495 0
M  V30 3269 C 312.842 -1.21164 -1.94556 0
M  V30 3270 C 313.842 -0.134908 -1.60233 0
M  V30 3271 O 315.032 -0.385249 -1.69887 0
M  V30 3272 C 312.164 -0.863192 -3.29791 0
M  V30 3273 H 313.357 -2.18038 -2.05911 0
M  V30 3274 H 310.91 -1.16179 -1.04557 0
M  V30 3275 H 311.645 0.103769 -3.24134 0
M  V30 3276 H 311.43 -1.64166 -3.56078 0
M  V30 3277 H 312.92 -0.809156 -4.09686 0
M  V30 3278 N 313.357 1.07166 -1.15556 0
M  V30 3279 C 314.634 1.76546 -0.842069 0
M  V30 3280 C 315.014 2.00453 0.661939 0
M  V30 3281 O 314.362 1.62452 1.60691 0
M  V30 3282 C 314.572 3.07266 -1.65495 0
M  V30 3283 C 315.92 3.81578 -1.86234 0
M  V30 3284 O 316.944 3.17083 -1.62287 0
M  V30 3285 O 315.803 4.97419 -2.26355 0
M  V30 3286 H 312.897 0.766756 -0.309862 0
M  V30 3287 H 315.443 1.13514 -1.26145 0
M  V30 3288 H 314.215 2.85494 -2.67598 0
M  V30 3289 H 313.838 3.7803 -1.23203 0
M  V30 3290 N 314.835 0.952656 1.25548 0
M  V30 3291 C 315.782 0.47008 2.25962 0
M  V30 3292 C 316.752 -0.476384 1.59122 0
M  V30 3293 O 317.937 -0.39007 1.8677 0
M  V30 3294 C 315.077 -0.247881 3.44209 0
M  V30 3295 C 314.19 0.735591 4.25691 0
M  V30 3296 C 313.325 -0.0047306 5.312 0
M  V30 3297 C 312.364 0.969805 6.04368 0
M  V30 3298 N 311.501 0.260486 7.01617 0
M  V30 3299 H 316.341 1.33126 2.66611 0
M  V30 3300 H 313.878 0.66765 1.31076 0
M  V30 3301 H 315.836 -0.680695 4.1161 0
M  V30 3302 H 314.466 -1.07312 3.0444 0
M  V30 3303 H 313.518 1.28689 3.57971 0
M  V30 3304 H 314.83 1.47934 4.76358 0
M  V30 3305 H 313.984 -0.496275 6.04667 0
M  V30 3306 H 312.723 -0.781282 4.81401 0
M  V30 3307 H 311.728 1.47237 5.29718 0
M  V30 3308 H 312.953 1.74655 6.56256 0
M  V30 3309 H 310.899 -0.497364 6.54112 0
M  V30 3310 H 310.816 0.943362 7.50091 0
M  V30 3311 H 312.084 -0.209587 7.79218 0
M  V30 3312 N 316.313 -1.40141 0.720998 0
M  V30 3313 C 317.541 -2.05096 0.272656 0
M  V30 3314 C 317.956 -1.54334 -1.0875 0
M  V30 3315 O 317.313 -0.702211 -1.6845 0
M  V30 3316 C 317.364 -3.60636 0.249835 0
M  V30 3317 O 317.085 -4.09526 1.55629 0
M  V30 3318 C 318.586 -4.42772 -0.216396 0
M  V30 3319 H 315.806 -0.659897 0.121558 0
M  V30 3320 H 318.35 -1.79449 0.980723 0
M  V30 3321 H 316.505 -3.85232 -0.409237 0
M  V30 3322 H 316.919 -5.03758 1.4604 0
M  V30 3323 H 318.393 -5.51702 -0.181212 0
M  V30 3324 H 318.87 -4.20756 -1.25941 0
M  V30 3325 H 319.476 -4.23294 0.412596 0
M  V30 3326 N 317.792 -0.46758 -1.50504 0
M  V30 3327 C 318.722 0.318381 -2.31319 0
M  V30 3328 C 319.703 0.993564 -1.38066 0
M  V30 3329 O 320.888 0.991411 -1.66987 0
M  V30 3330 C 318.018 1.40275 -3.17711 0
M  V30 3331 C 316.972 0.849373 -4.19487 0
M  V30 3332 C 316.298 2.03177 -4.94594 0
M  V30 3333 C 317.598 -0.136942 -5.2212 0
M  V30 3334 H 319.292 -0.356106 -2.97275 0
M  V30 3335 H 316.838 -0.172703 -1.42961 0
M  V30 3336 H 318.791 1.96004 -3.73042 0
M  V30 3337 H 317.515 2.10596 -2.49634 0
M  V30 3338 H 316.174 0.314076 -3.65252 0
M  V30 3339 H 315.822 2.72187 -4.22993 0
M  V30 3340 H 315.522 1.66774 -5.63436 0
M  V30 3341 H 317.046 2.59403 -5.52759 0
M  V30 3342 H 318.46 0.331056 -5.72343 0
M  V30 3343 H 316.857 -0.41507 -5.98663 0
M  V30 3344 H 317.927 -1.06398 -4.73083 0
M  V30 3345 N 319.27 1.56325 -0.20005 0
M  V30 3346 C 320.2 2.22318 0.713916 0
M  V30 3347 C 321.181 1.18788 1.21752 0
M  V30 3348 O 322.366 1.47309 1.26545 0
M  V30 3349 C 319.496 2.88639 1.93144 0
M  V30 3350 C 318.45 3.98457 1.56255 0
M  V30 3351 C 317.776 4.51967 2.85709 0
M  V30 3352 C 319.076 5.16612 0.768747 0
M  V30 3353 H 320.77 2.98952 0.163755 0
M  V30 3354 H 318.316 1.43792 0.0773219 0
M  V30 3355 H 320.269 3.33491 2.57608 0
M  V30 3356 H 318.993 2.09419 2.50621 0
M  V30 3357 H 317.652 3.54305 0.941471 0
M  V30 3358 H 317.3 3.69503 3.41287 0
M  V30 3359 H 317 5.26071 2.6177 0
M  V30 3360 H 318.524 4.99523 3.51154 0
M  V30 3361 H 319.938 5.57977 1.3166 0
M  V30 3362 H 318.335 5.96812 0.627286 0
M  V30 3363 H 319.405 4.84358 -0.229168 0
M  V30 3364 N 320.748 -0.0735177 1.57428 0
M  V30 3365 C 321.658 -1.10547 2.06922 0
M  V30 3366 C 322.674 -1.42506 0.998402 0
M  V30 3367 O 323.85 -1.52717 1.31299 0
M  V30 3368 C 320.915 -2.40019 2.50184 0
M  V30 3369 C 319.976 -2.15046 3.71556 0
M  V30 3370 C 319.209 -3.38345 4.12745 0
M  V30 3371 O 319.432 -4.47399 3.53822 0
M  V30 3372 O 318.366 -3.2666 5.05546 0
M  V30 3373 H 322.192 -0.715013 2.95163 0
M  V30 3374 H 319.777 -0.287531 1.46607 0
M  V30 3375 H 321.659 -3.16218 2.78539 0
M  V30 3376 H 320.334 -2.78447 1.65072 0
M  V30 3377 H 319.241 -1.36558 3.48285 0
M  V30 3378 H 320.574 -1.81499 4.57514 0
M  V30 3379 N 322.226 -1.5378 -0.344866 0
M  V30 3380 C 323.156 -1.84662 -1.42906 0
M  V30 3381 C 324.137 -0.701648 -1.54955 0
M  V30 3382 O 325.322 -0.953438 -1.69184 0
M  V30 3383 C 322.452 -2.05503 -2.79974 0
M  V30 3384 C 321.406 -3.21318 -2.82734 0
M  V30 3385 C 320.732 -3.2749 -4.22675 0
M  V30 3386 C 322.032 -4.59456 -2.48389 0
M  V30 3387 H 323.726 -2.75461 -1.17311 0
M  V30 3388 H 321.272 -1.32542 -0.562896 0
M  V30 3389 H 323.225 -2.25691 -3.55867 0
M  V30 3390 H 321.949 -1.11434 -3.07002 0
M  V30 3391 H 320.608 -3.00984 -2.09294 0
M  V30 3392 H 320.256 -2.31019 -4.4681 0
M  V30 3393 H 319.956 -4.05316 -4.25433 0
M  V30 3394 H 321.48 -3.49887 -5.00412 0
M  V30 3395 H 322.894 -4.79667 -3.13995 0
M  V30 3396 H 321.291 -5.39675 -2.62432 0
M  V30 3397 H 322.361 -4.63155 -1.4358 0
M  V30 3398 N 323.704 0.605807 -1.45491 0
M  V30 3399 C 324.634 1.72709 -1.57143 0
M  V30 3400 C 325.615 1.6476 -0.422884 0
M  V30 3401 O 326.8 1.83132 -0.646247 0
M  V30 3402 C 323.93 3.11316 -1.53948 0
M  V30 3403 C 322.884 3.34077 -2.67537 0
M  V30 3404 C 322.21 4.72975 -2.49397 0
M  V30 3405 C 323.51 3.24158 -4.09535 0
M  V30 3406 H 325.204 1.63214 -2.51001 0
M  V30 3407 H 322.75 0.78379 -1.208 0
M  V30 3408 H 324.703 3.89557 -1.60696 0
M  V30 3409 H 323.427 3.21655 -0.566205 0
M  V30 3410 H 322.086 2.58227 -2.6022 0
M  V30 3411 H 321.734 4.8005 -1.50205 0
M  V30 3412 H 321.434 4.8916 -3.25571 0
M  V30 3413 H 322.958 5.53414 -2.58002 0
M  V30 3414 H 324.372 3.92271 -4.18086 0
M  V30 3415 H 322.769 3.51872 -4.86113 0
M  V30 3416 H 323.839 2.2157 -4.31317 0
M  V30 3417 N 325.182 1.32811 0.848464 0
M  V30 3418 C 326.459 1.14334 1.58704 0
M  V30 3419 C 326.839 -0.293948 2.09043 0
M  V30 3420 O 326.187 -1.29153 1.88499 0
M  V30 3421 C 326.397 2.17626 2.72837 0
M  V30 3422 C 327.745 2.51282 3.42261 0
M  V30 3423 O 328.769 2.16219 2.83068 0
M  V30 3424 O 327.628 3.11413 4.49093 0
M  V30 3425 H 324.722 0.441601 0.699226 0
M  V30 3426 H 327.268 1.44362 0.892053 0
M  V30 3427 H 326.04 3.14211 2.3321 0
M  V30 3428 H 325.663 1.88628 3.50008 0
M  V30 3429 N 326.66 -1.06551 1.16123 0
M  V30 3430 C 327.593 -2.13382 0.80892 0
M  V30 3431 C 328.571 -1.61128 -0.21827 0
M  V30 3432 O 329.755 -1.88219 -0.102952 0
M  V30 3433 C 326.882 -3.38083 0.204303 0
M  V30 3434 C 325.928 -4.09133 1.20469 0
M  V30 3435 S 326.761 -4.5948 2.75024 0
M  V30 3436 C 327.917 -5.87446 2.16005 0
M  V30 3437 H 328.15 -2.42937 1.71373 0
M  V30 3438 H 325.683 -1.18947 0.984428 0
M  V30 3439 H 327.641 -4.10268 -0.138081 0
M  V30 3440 H 326.302 -3.0669 -0.678234 0
M  V30 3441 H 325.495 -4.98685 0.730019 0
M  V30 3442 H 325.097 -3.4295 1.49202 0
M  V30 3443 H 327.389 -6.60065 1.5271 0
M  V30 3444 H 328.332 -6.39639 3.03756 0
M  V30 3445 H 328.74 -5.41354 1.59989 0
M  V30 3446 N 328.138 -0.959301 -1.25041 0
M  V30 3447 C 329.085 -0.482057 -2.2571 0
M  V30 3448 C 330.055 0.467939 -1.59372 0
M  V30 3449 O 331.24 0.380159 -1.86974 0
M  V30 3450 C 328.38 0.229623 -3.44335 0
M  V30 3451 C 327.493 -0.758156 -4.25295 0
M  V30 3452 C 326.628 -0.0234403 -5.31195 0
M  V30 3453 C 325.667 -1.00184 -6.03846 0
M  V30 3454 N 324.804 -0.29769 -7.01469 0
M  V30 3455 H 329.644 -1.34538 -2.65901 0
M  V30 3456 H 327.181 -0.674592 -1.3072 0
M  V30 3457 H 329.139 0.658856 -4.11965 0
M  V30 3458 H 327.769 1.05696 -3.05005 0
M  V30 3459 H 326.821 -1.30586 -3.57284 0
M  V30 3460 H 328.133 -1.50458 -4.75567 0
M  V30 3461 H 327.287 0.464201 -6.04922 0
M  V30 3462 H 326.026 0.755741 -4.81809 0
M  V30 3463 H 325.031 -1.50044 -5.2893 0
M  V30 3464 H 326.256 -1.78133 -6.55321 0
M  V30 3465 H 324.202 0.462668 -6.54366 0
M  V30 3466 H 324.119 -0.983128 -7.4958 0
M  V30 3467 H 325.387 0.16826 -7.79318 0
M  V30 3468 N 329.616 1.39756 -0.72842 0
M  V30 3469 C 330.865 1.99879 -0.270407 0
M  V30 3470 C 331.178 1.58449 1.14688 0
M  V30 3471 O 332.384 2.11362 1.70407 0
M  V30 3472 C 330.84 3.57292 -0.43252 0
M  V30 3473 C 330.448 4.07688 -1.85727 0
M  V30 3474 C 332.192 4.24485 -0.0359507 0
M  V30 3475 C 330.099 5.5765 -1.96928 0
M  V30 3476 H 329.029 0.747689 -0.0973472 0
M  V30 3477 H 331.68 1.59837 -0.901355 0
M  V30 3478 H 330.062 3.95097 0.267219 0
M  V30 3479 H 331.236 3.81231 -2.58843 0
M  V30 3480 H 329.551 3.53135 -2.20646 0
M  V30 3481 H 332.148 5.34609 -0.0987484 0
M  V30 3482 H 332.491 4.03915 1.00787 0
M  V30 3483 H 333.024 3.9183 -0.686604 0
M  V30 3484 H 329.763 5.8309 -2.99476 0
M  V30 3485 H 329.283 5.8593 -1.28241 0
M  V30 3486 H 330.962 6.22957 -1.74737 0
M  V30 3487 N 331.094 0.475555 1.50254 0
M  V30 3488 C 332.341 -0.0778919 2.0235 0
M  V30 3489 C 332.669 -1.39319 1.35722 0
M  V30 3490 O 331.924 -1.89888 0.473395 0
M  V30 3491 C 332.223 -0.305114 3.56095 0
M  V30 3492 C 331.889 0.92903 4.41225 0
M  V30 3493 C 330.551 1.26739 4.6421 0
M  V30 3494 C 332.903 1.75054 4.90923 0
M  V30 3495 C 330.231 2.42724 5.34137 0
M  V30 3496 C 332.583 2.9017 5.62125 0
M  V30 3497 C 331.247 3.24416 5.83362 0
M  V30 3498 H 330.517 -0.0285027 0.740452 0
M  V30 3499 H 333.164 0.630543 1.80821 0
M  V30 3500 H 331.469 -1.09584 3.76163 0
M  V30 3501 H 333.166 -0.747377 3.93974 0
M  V30 3502 H 329.756 0.655428 4.23559 0
M  V30 3503 H 333.94 1.50231 4.73016 0
M  V30 3504 H 329.196 2.69525 5.48786 0
M  V30 3505 H 333.37 3.54169 5.99614 0
M  V30 3506 H 330.997 4.14396 6.37323 0
M  V30 3507 N 332.573 -1.56217 0.208337 0
M  V30 3508 C 333.819 -1.98242 -0.427552 0
M  V30 3509 C 334.152 -1.09554 -1.60348 0
M  V30 3510 O 333.427 -0.15035 -1.93918 0
M  V30 3511 C 333.71 -3.4931 -0.874907 0
M  V30 3512 C 333.563 -4.48773 0.303751 0
M  V30 3513 C 334.882 -4.04424 -1.73577 0
M  V30 3514 H 332.001 -0.720744 -0.153936 0
M  V30 3515 H 334.643 -1.87586 0.30192 0
M  V30 3516 H 332.793 -3.58522 -1.49648 0
M  V30 3517 H 334.465 -4.51586 0.941682 0
M  V30 3518 H 332.708 -4.23194 0.953375 0
M  V30 3519 H 333.379 -5.51976 -0.0519883 0
M  V30 3520 H 335.855 -3.98075 -1.21143 0
M  V30 3521 H 334.731 -5.1047 -2.01771 0
M  V30 3522 H 334.992 -3.50494 -2.69456 0
M  V30 3523 N 334.051 0.0651679 -1.57465 0
M  V30 3524 C 335.328 0.79644 -1.78651 0
M  V30 3525 C 335.708 1.95454 -0.797566 0
M  V30 3526 O 335.056 2.27882 0.167946 0
M  V30 3527 C 335.266 1.26322 -3.25337 0
M  V30 3528 C 336.614 1.6939 -3.89348 0
M  V30 3529 O 337.638 1.35872 -3.29268 0
M  V30 3530 O 336.497 2.31471 -4.95059 0
M  V30 3531 H 333.591 0.382157 -0.733407 0
M  V30 3532 H 336.137 0.0447311 -1.69641 0
M  V30 3533 H 334.909 0.434859 -3.88876 0
M  V30 3534 H 334.532 2.07604 -3.39096 0
M  V30 3535 N 335.529 1.53961 0.336706 0
M  V30 3536 C 336.757 1.75483 1.09605 0
M  V30 3537 C 337.172 0.4972 1.82136 0
M  V30 3538 O 336.529 -0.53149 1.74589 0
M  V30 3539 C 336.58 2.93943 2.10428 0
M  V30 3540 O 336.301 4.14842 1.40846 0
M  V30 3541 C 337.802 3.27571 2.98684 0
M  V30 3542 H 335.022 0.586166 0.326574 0
M  V30 3543 H 337.566 2.00808 0.38683 0
M  V30 3544 H 335.721 2.70929 2.76905 0
M  V30 3545 H 336.135 4.81383 2.08255 0
M  V30 3546 H 337.609 4.13791 3.6535 0
M  V30 3547 H 338.086 2.44168 3.65074 0
M  V30 3548 H 338.692 3.52615 2.37787 0
M  V30 3549 N 337.007 -0.598083 1.45811 0
M  V30 3550 C 338.284 -1.35777 1.40797 0
M  V30 3551 C 338.664 -2.10935 0.083462 0
M  V30 3552 O 338.012 -2.08505 -0.934763 0
M  V30 3553 C 338.222 -2.29666 2.62783 0
M  V30 3554 C 339.57 -2.91977 3.08277 0
M  V30 3555 O 340.594 -2.39984 2.63223 0
M  V30 3556 O 339.453 -3.86376 3.86491 0
M  V30 3557 H 336.547 -0.609291 0.55919 0
M  V30 3558 H 339.093 -0.620379 1.57954 0
M  V30 3559 H 337.865 -1.73454 3.50756 0
M  V30 3560 H 337.488 -3.1077 2.48008 0
M  V30 3561 N 338.485 -1.33259 -0.841409 0
M  V30 3562 C 339.71 -1.2775 -1.63385 0
M  V30 3563 C 340.135 0.149188 -1.87507 0
M  V30 3564 O 339.493 1.10498 -1.43736 0
M  V30 3565 C 339.541 -2.05571 -2.96265 0
M  V30 3566 O 338.645 -1.41257 -3.87453 0
M  V30 3567 H 337.986 -0.439627 -0.497618 0
M  V30 3568 H 340.516 -1.75782 -1.04699 0
M  V30 3569 H 340.526 -2.16241 -3.45982 0
M  V30 3570 H 339.201 -3.09309 -2.7803 0
M  V30 3571 H 337.778 -1.39217 -3.45938 0
M  V30 3572 N 339.963 1.05934 -1.16686 0
M  V30 3573 C 341.24 1.75643 -0.860747 0
M  V30 3574 C 341.62 2.01144 0.640641 0
M  V30 3575 O 340.968 1.64147 1.58959 0
M  V30 3576 C 341.178 3.05493 -1.68745 0
M  V30 3577 C 342.526 3.79581 -1.90271 0
M  V30 3578 O 343.55 3.15344 -1.65641 0
M  V30 3579 O 342.409 4.9499 -2.31618 0
M  V30 3580 H 339.503 0.763426 -0.317977 0
M  V30 3581 H 342.049 1.1217 -1.27342 0
M  V30 3582 H 340.821 2.8264 -2.70611 0
M  V30 3583 H 340.444 3.76702 -1.27206 0
M  V30 3584 N 341.441 0.965919 1.2453 0
M  V30 3585 C 342.69 0.622437 1.91856 0
M  V30 3586 C 343.003 -0.846006 1.76358 0
M  V30 3587 O 344.209 -1.29993 2.38357 0
M  V30 3588 C 342.665 1.0626 3.43856 0
M  V30 3589 C 342.273 2.55437 3.68043 0
M  V30 3590 C 344.017 0.792183 4.17043 0
M  V30 3591 C 341.924 2.93196 5.13605 0
M  V30 3592 H 340.854 0.229092 0.718354 0
M  V30 3593 H 343.505 1.17189 1.41206 0
M  V30 3594 H 341.887 0.441476 3.93531 0
M  V30 3595 H 343.061 3.22665 3.28974 0
M  V30 3596 H 341.376 2.8007 3.08139 0
M  V30 3597 H 343.973 1.05031 5.24283 0
M  V30 3598 H 344.316 -0.271584 4.15413 0
M  V30 3599 H 344.849 1.37419 3.73311 0
M  V30 3600 H 341.588 3.98636 5.20355 0
M  V30 3601 H 341.108 2.30651 5.53679 0
M  V30 3602 H 342.787 2.83004 5.81823 0
M  V30 3603 N 342.919 -1.39368 0.735821 0
M  V30 3604 C 344.335 -1.54204 0.411492 0
M  V30 3605 C 344.535 -1.70268 -1.07755 0
M  V30 3606 O 343.591 -1.70364 -1.86366 0
M  V30 3607 C 344.904 -2.75925 1.19523 0
M  V30 3608 C 346.452 -2.89761 1.18354 0
M  V30 3609 C 346.927 -4.14421 1.94986 0
M  V30 3610 N 348.418 -4.21462 1.92156 0
M  V30 3611 C 349.153 -5.16871 2.48258 0
M  V30 3612 N 348.649 -6.18063 3.13001 0
M  V30 3613 N 350.442 -5.09093 2.38287 0
M  V30 3614 H 342.593 -1.27189 1.70108 0
M  V30 3615 H 344.856 -0.616517 0.720147 0
M  V30 3616 H 344.562 -2.70401 2.24892 0
M  V30 3617 H 344.436 -3.68614 0.800222 0
M  V30 3618 H 346.823 -2.94777 0.137975 0
M  V30 3619 H 346.904 -1.98133 1.61793 0
M  V30 3620 H 346.548 -4.10166 2.99543 0
M  V30 3621 H 346.478 -5.05095 1.48953 0
M  V30 3622 H 348.969 -3.48979 1.44991 0
M  V30 3623 H 349.282 -6.87326 3.53275 0
M  V30 3624 H 347.627 -6.18448 3.17091 0
M  V30 3625 H 350.818 -4.28973 1.8735 0
M  V30 3626 H 350.991 -5.83272 2.82308 0
M  V30 3627 N 344.397 -0.483516 -1.5 0
M  V30 3628 C 345.327 0.293829 -2.31644 0
M  V30 3629 C 346.308 0.978864 -1.39112 0
M  V30 3630 O 347.493 0.973644 -1.68029 0
M  V30 3631 C 344.623 1.36897 -3.19181 0
M  V30 3632 C 343.577 0.804833 -4.20365 0
M  V30 3633 C 342.903 1.9792 -4.96721 0
M  V30 3634 C 344.203 -0.192313 -5.21946 0
M  V30 3635 H 345.897 -0.387616 -2.9688 0
M  V30 3636 H 343.443 -0.187856 -1.42769 0
M  V30 3637 H 345.396 1.92037 -3.751 0
M  V30 3638 H 344.12 2.07936 -2.51853 0
M  V30 3639 H 342.779 0.275319 -3.65565 0
M  V30 3640 H 342.427 2.67686 -4.25856 0
M  V30 3641 H 342.127 1.60789 -5.65173 0
M  V30 3642 H 343.651 2.53526 -5.55479 0
M  V30 3643 H 345.065 0.270333 -5.72662 0
M  V30 3644 H 343.462 -0.478543 -5.98189 0
M  V30 3645 H 344.532 -1.11409 -4.71928 0
M  V30 3646 N 345.875 1.56104 -0.216619 0
M  V30 3647 C 347.121 1.98466 0.417033 0
M  V30 3648 C 347.454 1.10403 1.59765 0
M  V30 3649 O 346.729 0.160632 1.93836 0
M  V30 3650 C 347.012 3.49769 0.85637 0
M  V30 3651 C 346.865 4.48606 -0.327546 0
M  V30 3652 C 348.184 4.05339 1.7143 0
M  V30 3653 H 345.303 0.721551 0.150112 0
M  V30 3654 H 347.945 1.87423 -0.311864 0
M  V30 3655 H 346.095 3.5931 1.47745 0
M  V30 3656 H 347.767 4.5108 -0.965618 0
M  V30 3657 H 346.01 4.22682 -0.975805 0
M  V30 3658 H 346.681 5.51995 0.0227149 0
M  V30 3659 H 349.157 3.98712 1.19031 0
M  V30 3660 H 348.033 5.11533 1.99061 0
M  V30 3661 H 348.294 3.51918 2.67593 0
M  V30 3662 N 347.353 -0.0568162 1.57498 0
M  V30 3663 C 348.769 -0.411933 1.54192 0
M  V30 3664 C 348.969 -1.78287 0.938942 0
M  V30 3665 O 348.025 -2.46483 0.547919 0
M  V30 3666 C 349.338 -0.339244 2.9878 0
M  V30 3667 C 350.886 -0.418348 3.10192 0
M  V30 3668 C 351.361 -0.375407 4.56459 0
M  V30 3669 N 352.852 -0.435038 4.61153 0
M  V30 3670 C 353.587 -0.424265 5.71828 0
M  V30 3671 N 353.083 -0.367418 6.91825 0
M  V30 3672 N 354.876 -0.471938 5.60115 0
M  V30 3673 H 347.027 0.840684 1.95055 0
M  V30 3674 H 349.29 0.316987 0.893433 0
M  V30 3675 H 348.996 0.601742 3.46514 0
M  V30 3676 H 348.87 -1.14371 3.59443 0
M  V30 3677 H 351.257 -1.34976 2.62422 0
M  V30 3678 H 351.338 0.414962 2.52412 0
M  V30 3679 H 350.982 0.552219 5.04889 0
M  V30 3680 H 350.912 -1.22645 5.12119 0
M  V30 3681 H 353.403 -0.482612 3.74806 0
M  V30 3682 H 353.716 -0.363535 7.71944 0
M  V30 3683 H 352.061 -0.333879 6.94198 0
M  V30 3684 H 355.252 -0.514145 4.65268 0
M  V30 3685 H 355.425 -0.460073 6.46365 0
M  V30 3686 N 348.832 -1.54138 -0.328536 0
M  V30 3687 C 350.248 -1.44736 -0.672574 0
M  V30 3688 C 350.448 -0.616217 -1.91846 0
M  V30 3689 O 349.504 -0.113067 -2.52247 0
M  V30 3690 C 350.817 -2.884 -0.851217 0
M  V30 3691 C 352.365 -2.98271 -0.948877 0
M  V30 3692 C 352.84 -4.43074 -1.15973 0
M  V30 3693 N 354.331 -4.46665 -1.22658 0
M  V30 3694 C 355.066 -5.55857 -1.40751 0
M  V30 3695 N 354.562 -6.75026 -1.5592 0
M  V30 3696 N 356.355 -5.43495 -1.4342 0
M  V30 3697 H 348.506 -2.06661 0.490421 0
M  V30 3698 H 350.769 -0.934812 0.157579 0
M  V30 3699 H 350.475 -3.51699 -0.00704236 0
M  V30 3700 H 350.349 -3.34225 -1.74853 0
M  V30 3701 H 352.736 -2.35102 -1.78356 0
M  V30 3702 H 352.817 -2.55785 -0.0281435 0
M  V30 3703 H 352.461 -5.06827 -0.329915 0
M  V30 3704 H 352.391 -4.83165 -2.09426 0
M  V30 3705 H 354.882 -3.60797 -1.124 0
M  V30 3706 H 355.195 -7.54004 -1.69404 0
M  V30 3707 H 353.54 -6.77944 -1.53027 0
M  V30 3708 H 356.731 -4.49349 -1.31162 0
M  V30 3709 H 356.904 -6.28649 -1.57178 0
M  V30 3710 N 350.31 0.590341 -1.46126 0
M  V30 3711 C 351.24 1.71032 -1.58966 0
M  V30 3712 C 352.221 1.64302 -0.440335 0
M  V30 3713 O 353.406 1.82436 -0.665634 0
M  V30 3714 C 350.536 3.09665 -1.57241 0
M  V30 3715 C 349.49 3.31221 -2.71066 0
M  V30 3716 C 348.816 4.70303 -2.54399 0
M  V30 3717 C 350.116 3.19796 -4.1295 0
M  V30 3718 H 351.81 1.60543 -2.52718 0
M  V30 3719 H 349.356 0.770933 -1.21625 0
M  V30 3720 H 351.309 3.87831 -1.64819 0
M  V30 3721 H 350.033 3.21036 -0.600289 0
M  V30 3722 H 348.692 2.55452 -2.62944 0
M  V30 3723 H 348.34 4.78429 -1.55288 0
M  V30 3724 H 348.04 4.85679 -3.30741 0
M  V30 3725 H 349.564 5.50647 -2.63857 0
M  V30 3726 H 350.978 3.87815 -4.22223 0
M  V30 3727 H 349.375 3.46696 -4.89818 0
M  V30 3728 H 350.445 2.16983 -4.33643 0
M  V30 3729 N 351.788 1.33704 0.83433 0
M  V30 3730 C 353.204 1.13137 1.12571 0
M  V30 3731 C 353.404 -0.0747261 2.01361 0
M  V30 3732 O 352.46 -0.753647 2.4099 0
M  V30 3733 C 353.773 2.42105 1.78342 0
M  V30 3734 C 355.321 2.48054 1.90888 0
M  V30 3735 C 355.796 3.76995 2.60075 0
M  V30 3736 N 357.287 3.78092 2.67584 0
M  V30 3737 C 358.022 4.74574 3.21818 0
M  V30 3738 N 357.518 5.81434 3.76705 0
M  V30 3739 N 359.311 4.62044 3.20112 0
M  V30 3740 H 351.462 2.11 0.243489 0
M  V30 3741 H 353.725 0.932532 0.17055 0
M  V30 3742 H 353.431 3.30391 1.20561 0
M  V30 3743 H 353.305 2.54594 2.7832 0
M  V30 3744 H 355.692 1.60215 2.47821 0
M  V30 3745 H 355.773 2.39502 0.898459 0
M  V30 3746 H 355.417 4.65219 2.03799 0
M  V30 3747 H 355.347 3.82825 3.61597 0
M  V30 3748 H 357.838 3.00865 2.28667 0
M  V30 3749 H 358.151 6.51084 4.16305 0
M  V30 3750 H 356.496 5.85163 3.7498 0
M  V30 3751 H 359.687 3.77716 2.76493 0
M  V30 3752 H 359.86 5.37406 3.62076 0
M  V30 3753 N 353.266 -1.05314 1.17247 0
M  V30 3754 C 354.682 -1.30452 0.919473 0
M  V30 3755 C 354.882 -1.9703 -0.42209 0
M  V30 3756 O 353.938 -2.24311 -1.15935 0
M  V30 3757 C 355.251 -2.17551 2.07586 0
M  V30 3758 C 356.799 -2.30937 2.11275 0
M  V30 3759 C 357.274 -3.21396 3.26296 0
M  V30 3760 N 358.765 -3.28981 3.26076 0
M  V30 3761 C 359.5 -3.99095 4.11716 0
M  V30 3762 N 358.996 -4.71648 5.07465 0
M  V30 3763 N 360.789 -3.95247 3.9967 0
M  V30 3764 H 352.94 -0.604988 2.03602 0
M  V30 3765 H 355.203 -0.329368 0.888944 0
M  V30 3766 H 354.909 -1.75921 3.0454 0
M  V30 3767 H 354.783 -3.18182 2.02584 0
M  V30 3768 H 357.17 -2.71809 1.14907 0
M  V30 3769 H 357.251 -1.2994 2.20339 0
M  V30 3770 H 356.895 -2.81238 4.22927 0
M  V30 3771 H 356.825 -4.22395 3.14467 0
M  V30 3772 H 359.316 -2.77286 2.5675 0
M  V30 3773 H 359.629 -5.22705 5.6921 0
M  V30 3774 H 357.974 -4.70594 5.11435 0
M  V30 3775 H 361.165 -3.37691 3.24164 0
M  V30 3776 H 361.338 -4.4962 4.66632 0
M  V30 3777 N 354.744 -0.972509 -1.24016 0
M  V30 3778 C 356.021 -0.553733 -1.87598 0
M  V30 3779 C 356.401 0.969158 -1.87538 0
M  V30 3780 O 355.749 1.84255 -1.35139 0
M  V30 3781 C 355.959 -1.15076 -3.29482 0
M  V30 3782 C 357.307 -1.23862 -4.06132 0
M  V30 3783 O 358.331 -1.10363 -3.38672 0
M  V30 3784 O 357.19 -1.45252 -5.26844 0
M  V30 3785 H 354.284 -0.185331 -0.805966 0
M  V30 3786 H 356.83 -1.06709 -1.31952 0
M  V30 3787 H 355.602 -2.19333 -3.2405 0
M  V30 3788 H 355.225 -0.621746 -3.92709 0
M  V30 3789 N 356.222 1.38976 -0.743202 0
M  V30 3790 C 357.471 1.99581 -0.291592 0
M  V30 3791 C 357.784 1.59656 1.13001 0
M  V30 3792 O 358.99 2.13157 1.68156 0
M  V30 3793 C 357.446 3.56813 -0.470391 0
M  V30 3794 C 357.054 4.05695 -1.90041 0
M  V30 3795 C 358.798 4.24423 -0.0809709 0
M  V30 3796 C 356.705 5.5553 -2.02832 0
M  V30 3797 H 355.635 0.746615 -0.105272 0
M  V30 3798 H 358.286 1.58872 -0.918258 0
M  V30 3799 H 356.668 3.95359 0.225299 0
M  V30 3800 H 357.842 3.78464 -2.62872 0
M  V30 3801 H 356.157 3.50775 -2.24379 0
M  V30 3802 H 358.754 5.34474 -0.155445 0
M  V30 3803 H 359.097 4.04962 0.96497 0
M  V30 3804 H 359.63 3.9108 -0.728124 0
M  V30 3805 H 356.369 5.79881 -3.05643 0
M  V30 3806 H 355.889 5.84537 -1.34448 0
M  V30 3807 H 357.568 6.21069 -1.81335 0
M  V30 3808 N 357.7 0.491464 1.49741 0
M  V30 3809 C 358.925 -0.0557177 2.07325 0
M  V30 3810 C 359.35 -1.30925 1.35056 0
M  V30 3811 O 358.708 -1.76733 0.404365 0
M  V30 3812 C 358.756 -0.302074 3.59333 0
M  V30 3813 O 357.86 -1.37868 3.88672 0
M  V30 3814 H 357.201 0.0219956 0.663636 0
M  V30 3815 H 359.731 0.688352 1.92673 0
M  V30 3816 H 359.741 -0.536464 4.04458 0
M  V30 3817 H 358.416 0.61383 4.11345 0
M  V30 3818 H 356.993 -1.12999 3.55367 0
M  V30 3819 N 359.178 -1.55987 0.224894 0
M  V30 3820 C 360.088 -2.24066 -0.69511 0
M  V30 3821 C 361.104 -1.24939 -1.21104 0
M  V30 3822 O 362.28 -1.5776 -1.25195 0
M  V30 3823 C 359.345 -2.90983 -1.88493 0
M  V30 3824 C 358.406 -4.05462 -1.41064 0
M  V30 3825 C 357.639 -4.69179 -2.54375 0
M  V30 3826 O 357.862 -4.31895 -3.72589 0
M  V30 3827 O 356.796 -5.58108 -2.25386 0
M  V30 3828 H 360.622 -3.03353 -0.145149 0
M  V30 3829 H 358.207 -1.49399 -0.00569476 0
M  V30 3830 H 360.089 -3.33209 -2.57972 0
M  V30 3831 H 358.764 -2.14653 -2.42293 0
M  V30 3832 H 357.671 -3.67798 -0.683774 0
M  V30 3833 H 359.004 -4.83545 -0.918985 0
M  V30 3834 N 360.656 0.0484629 -1.57525 0
M  V30 3835 C 362.072 0.40375 -1.54409 0
M  V30 3836 C 362.272 1.77786 -0.948384 0
M  V30 3837 O 361.328 2.46189 -0.560983 0
M  V30 3838 C 362.641 0.323394 -2.98956 0
M  V30 3839 C 364.189 0.401892 -3.10409 0
M  V30 3840 C 364.664 0.351195 -4.56652 0
M  V30 3841 N 366.155 0.410576 -4.61377 0
M  V30 3842 C 366.89 0.393933 -5.72045 0
M  V30 3843 N 366.386 0.330724 -6.9201 0
M  V30 3844 N 368.179 0.442227 -5.60358 0
M  V30 3845 H 360.33 -0.851016 -1.94606 0
M  V30 3846 H 362.593 -0.321721 -0.89174 0
M  V30 3847 H 362.299 -0.62011 -3.4619 0
M  V30 3848 H 362.173 1.12463 -3.60044 0
M  V30 3849 H 364.56 1.33582 -2.63134 0
M  V30 3850 H 364.641 -0.428342 -2.52188 0
M  V30 3851 H 364.285 -0.578987 -5.04589 0
M  V30 3852 H 364.215 1.19928 -5.12762 0
M  V30 3853 H 366.706 0.462729 -3.75056 0
M  V30 3854 H 367.019 0.322592 -7.72126 0
M  V30 3855 H 365.364 0.29706 -6.94365 0
M  V30 3856 H 368.555 0.489464 -4.65534 0
M  V30 3857 H 368.728 0.425788 -6.466 0
M  V30 3858 N 362.134 1.5431 0.320358 0
M  V30 3859 C 363.382 1.72327 1.05583 0
M  V30 3860 C 363.703 0.50149 1.88441 0
M  V30 3861 O 362.973 -0.48448 1.89815 0
M  V30 3862 H 361.553 0.635387 0.3928 0
M  V30 3863 H 364.215 1.91621 0.356019 0
M  V30 3864 H 363.311 2.60426 1.72003 0
M  V30 3865 N 363.613 -0.582584 1.46437 0
M  V30 3866 C 365.029 -0.905962 1.31394 0
M  V30 3867 C 365.229 -1.99468 0.285476 0
M  V30 3868 O 364.285 -2.50566 -0.311914 0
M  V30 3869 C 365.598 -1.3232 2.70022 0
M  V30 3870 C 367.146 -1.43604 2.78113 0
M  V30 3871 C 367.621 -1.88694 4.17323 0
M  V30 3872 N 369.112 -1.95887 4.19741 0
M  V30 3873 C 369.847 -2.32051 5.24347 0
M  V30 3874 N 369.343 -2.67006 6.39281 0
M  V30 3875 N 371.136 -2.32606 5.11713 0
M  V30 3876 H 363.287 0.1366 2.1196 0
M  V30 3877 H 365.55 -0.00155736 0.947999 0
M  V30 3878 H 365.256 -0.597242 3.46592 0
M  V30 3879 H 365.13 -2.28469 3.00136 0
M  V30 3880 H 367.517 -2.15286 2.01832 0
M  V30 3881 H 367.598 -0.457059 2.51684 0
M  V30 3882 H 367.242 -1.1759 4.941 0
M  V30 3883 H 367.172 -2.8755 4.4116 0
M  V30 3884 H 369.663 -1.71362 3.36814 0
M  V30 3885 H 369.976 -2.93554 7.14875 0
M  V30 3886 H 368.321 -2.64644 6.42642 0
M  V30 3887 H 371.512 -2.04721 4.2096 0
M  V30 3888 H 371.685 -2.60462 5.93349 0
M  V30 3889 N 365.091 -1.34144 -0.827227 0
M  V30 3890 C 366.368 -1.16844 -1.56865 0
M  V30 3891 C 366.748 0.260654 -2.09485 0
M  V30 3892 O 366.096 1.26138 -1.9053 0
M  V30 3893 C 366.306 -2.21939 -2.6934 0
M  V30 3894 C 367.654 -2.56695 -3.3822 0
M  V30 3895 O 368.678 -2.20695 -2.79593 0
M  V30 3896 O 367.537 -3.18518 -4.44082 0
M  V30 3897 H 364.631 -0.452669 -0.692112 0
M  V30 3898 H 367.177 -1.45763 -0.868973 0
M  V30 3899 H 365.949 -3.17882 -2.28182 0
M  V30 3900 H 365.572 -1.94172 -3.46962 0
M  V30 3901 N 366.569 1.04691 -1.17803 0
M  V30 3902 C 367.818 1.77176 -0.963931 0
M  V30 3903 C 368.131 1.88888 0.508015 0
M  V30 3904 O 369.337 2.58164 0.840465 0
M  V30 3905 C 367.793 3.18518 -1.67555 0
M  V30 3906 C 367.401 3.14919 -3.18637 0
M  V30 3907 C 369.145 3.95424 -1.54402 0
M  V30 3908 C 367.052 4.51081 -3.82466 0
M  V30 3909 H 365.982 0.664116 -0.357023 0
M  V30 3910 H 368.633 1.17303 -1.4111 0
M  V30 3911 H 367.015 3.78748 -1.15613 0
M  V30 3912 H 368.189 2.64178 -3.77554 0
M  V30 3913 H 366.504 2.51512 -3.31859 0
M  V30 3914 H 369.101 4.96106 -1.99456 0
M  V30 3915 H 369.444 4.13343 -0.495329 0
M  V30 3916 H 369.977 3.41754 -2.0359 0
M  V30 3917 H 366.716 4.38368 -4.87354 0
M  V30 3918 H 366.236 5.01951 -3.28337 0
M  V30 3919 H 367.915 5.2001 -3.84965 0
M  V30 3920 N 368.047 0.979072 1.23499 0
M  V30 3921 C 368.957 0.526431 2.28617 0
M  V30 3922 C 369.973 -0.418126 1.68901 0
M  V30 3923 O 371.149 -0.288372 1.99325 0
M  V30 3924 C 368.214 -0.165235 3.46306 0
M  V30 3925 C 367.275 0.82056 4.21385 0
M  V30 3926 C 366.508 0.161807 5.33455 0
M  V30 3927 O 366.731 -1.04742 5.60701 0
M  V30 3928 O 365.665 0.859708 5.95729 0
M  V30 3929 H 369.491 1.4006 2.69475 0
M  V30 3930 H 367.076 0.746643 1.29405 0
M  V30 3931 H 368.958 -0.553287 4.17752 0
M  V30 3932 H 367.633 -1.01419 3.07402 0
M  V30 3933 H 366.54 1.25929 3.52268 0
M  V30 3934 H 367.873 1.63828 4.64135 0
M  V30 3935 N 369.525 -1.3858 0.750561 0
M  V30 3936 C 370.773 -1.99789 0.30477 0
M  V30 3937 C 371.094 -1.59874 -1.11649 0
M  V30 3938 O 370.364 -0.85417 -1.76297 0
M  V30 3939 H 368.944 -0.738902 0.109694 0
M  V30 3940 H 371.606 -1.69391 0.963983 0
M  V30 3941 H 370.702 -3.09952 0.365499 0
M  V30 3942 N 371.003 -0.499398 -1.49478 0
M  V30 3943 C 372.249 0.0457576 -2.02748 0
M  V30 3944 C 372.582 1.36793 -1.37846 0
M  V30 3945 O 371.857 1.87596 -0.513601 0
M  V30 3946 C 372.14 0.199986 -3.59544 0
M  V30 3947 C 371.993 -1.1452 -4.34977 0
M  V30 3948 C 373.312 0.94137 -4.29914 0
M  V30 3949 H 370.431 0.0151552 -0.736844 0
M  V30 3950 H 373.073 -0.650498 -1.78518 0
M  V30 3951 H 371.223 0.793007 -3.8032 0
M  V30 3952 H 372.895 -1.77697 -4.25701 0
M  V30 3953 H 371.138 -1.73488 -3.97598 0
M  V30 3954 H 371.809 -0.990607 -5.43039 0
M  V30 3955 H 374.285 0.43844 -4.13784 0
M  V30 3956 H 373.161 1.01812 -5.39375 0
M  V30 3957 H 373.422 1.98471 -3.95046 0
M  V30 3958 N 372.481 1.55866 -0.233164 0
M  V30 3959 C 373.73 1.97779 0.39579 0
M  V30 3960 C 374.043 1.12419 1.60066 0
M  V30 3961 O 375.249 1.44283 2.29988 0
M  V30 3962 C 373.705 3.5188 0.755556 0
M  V30 3963 C 373.313 4.45959 -0.427152 0
M  V30 3964 C 375.057 4.02479 1.34946 0
M  V30 3965 C 372.964 5.91383 -0.0443043 0
M  V30 3966 H 371.894 0.738592 0.15165 0
M  V30 3967 H 374.545 1.80486 -0.331212 0
M  V30 3968 H 372.927 3.64816 1.5403 0
M  V30 3969 H 374.101 4.44776 -1.20462 0
M  V30 3970 H 372.416 4.05765 -0.935068 0
M  V30 3971 H 375.013 5.08637 1.649 0
M  V30 3972 H 375.356 3.49014 2.26925 0
M  V30 3973 H 375.889 3.92813 0.62791 0
M  V30 3974 H 372.628 6.48857 -0.930874 0
M  V30 3975 H 372.148 5.95734 0.697238 0
M  V30 3976 H 373.827 6.45893 0.378334 0
M  V30 3977 N 373.959 -0.0401083 1.57549 0
M  V30 3978 C 374.906 -1.04413 2.05831 0
M  V30 3979 C 375.876 -1.36585 0.945184 0
M  V30 3980 O 377.061 -1.47112 1.21502 0
M  V30 3981 C 374.201 -2.34336 2.53339 0
M  V30 3982 C 373.314 -2.08419 3.78398 0
M  V30 3983 C 372.449 -3.32133 4.14561 0
M  V30 3984 C 371.488 -3.01721 5.3257 0
M  V30 3985 N 370.625 -4.17855 5.64218 0
M  V30 3986 H 375.465 -0.625442 2.91363 0
M  V30 3987 H 373.002 -0.297218 1.44066 0
M  V30 3988 H 374.96 -3.10234 2.78946 0
M  V30 3989 H 373.59 -2.73948 1.7074 0
M  V30 3990 H 372.642 -1.23069 3.59942 0
M  V30 3991 H 373.954 -1.81978 4.64419 0
M  V30 3992 H 373.108 -4.16406 4.41238 0
M  V30 3993 H 371.847 -3.61678 3.2717 0
M  V30 3994 H 370.852 -2.15849 5.05657 0
M  V30 3995 H 372.077 -2.73466 6.21605 0
M  V30 3996 H 370.023 -4.47372 4.79786 0
M  V30 3997 H 369.94 -3.94798 6.44725 0
M  V30 3998 H 371.208 -5.03033 5.95465 0
M  V30 3999 N 375.437 -1.54477 -0.31217 0
M  V30 4000 C 376.369 -1.81011 -1.40598 0
M  V30 4001 C 377.382 -0.692546 -1.47335 0
M  V30 4002 O 378.571 -0.969847 -1.49854 0
M  V30 4003 C 375.671 -1.92307 -2.79054 0
M  V30 4004 C 374.844 -3.22594 -2.95384 0
M  V30 4005 C 373.903 -3.24448 -4.1427 0
M  V30 4006 O 372.929 -3.98035 -4.06887 0
M  V30 4007 N 374.131 -2.49042 -5.24365 0
M  V30 4008 H 376.896 -2.75408 -1.18196 0
M  V30 4009 H 374.457 -1.53914 -0.502202 0
M  V30 4010 H 376.449 -1.90962 -3.56813 0
M  V30 4011 H 375.019 -1.04955 -2.94454 0
M  V30 4012 H 374.239 -3.36806 -2.04831 0
M  V30 4013 H 375.527 -4.08593 -3.03198 0
M  V30 4014 H 374.925 -1.88867 -5.33241 0
M  V30 4015 H 373.482 -2.53463 -6.005 0
M  V30 4016 N 376.915 0.57481 -1.46744 0
M  V30 4017 C 378.145 1.35659 -1.55821 0
M  V30 4018 C 378.553 1.88129 -0.201036 0
M  V30 4019 O 377.896 1.64723 0.813134 0
M  V30 4020 C 377.958 2.57473 -2.50894 0
M  V30 4021 C 377.622 2.26415 -3.9697 0
M  V30 4022 C 378.619 1.84771 -4.85958 0
M  V30 4023 C 376.304 2.38316 -4.42166 0
M  V30 4024 C 378.298 1.55434 -6.18158 0
M  V30 4025 C 375.985 2.08591 -5.74398 0
M  V30 4026 C 376.983 1.67216 -6.62214 0
M  V30 4027 O 376.671 1.37859 -7.91991 0
M  V30 4028 H 376.403 0.420496 -0.529301 0
M  V30 4029 H 378.957 0.704967 -1.92923 0
M  V30 4030 H 377.187 3.25468 -2.08824 0
M  V30 4031 H 378.876 3.19546 -2.50291 0
M  V30 4032 H 379.642 1.75085 -4.52295 0
M  V30 4033 H 375.521 2.69483 -3.74032 0
M  V30 4034 H 379.065 1.23065 -6.86659 0
M  V30 4035 H 374.962 2.17905 -6.07608 0
M  V30 4036 H 375.73 1.51638 -8.04331 0
M  V30 4037 N 378.394 1.34581 0.820102 0
M  V30 4038 C 379.342 1.26401 1.95258 0
M  V30 4039 C 380.336 0.161553 1.68628 0
M  V30 4040 O 381.542 0.326703 1.7701 0
M  V30 4041 H 377.917 0.392749 0.64129 0
M  V30 4042 H 379.888 2.22105 1.99279 0
M  V30 4043 C 378.637 1.03919 3.31807 0
M  V30 4044 H 377.96 1.87984 3.52848 0
M  V30 4045 H 379.4 1.02232 4.11491 0
M  V30 4046 C 377.859 -0.257433 3.35915 0
M  V30 4047 O 378.389 -1.25784 3.81499 0
M  V30 4048 N 376.595 -0.291524 2.89134 0
M  V30 4049 H 376.142 0.523161 2.52232 0
M  V30 4050 H 376.1 -1.15883 2.92264 0
M  V30 4051 N 379.872 -1.04064 1.18357 0
M  V30 4052 C 380.819 -2.12077 0.910603 0
M  V30 4053 C 381.789 -1.65421 -0.15 0
M  V30 4054 O 382.974 -1.90797 -0.0103614 0
M  V30 4055 C 380.114 -3.42252 0.442472 0
M  V30 4056 C 379.227 -4.0252 1.5685 0
M  V30 4057 C 378.362 -5.20657 1.05309 0
M  V30 4058 C 377.401 -5.72955 2.1538 0
M  V30 4059 N 376.538 -6.8238 1.65233 0
M  V30 4060 H 381.378 -2.34764 1.83548 0
M  V30 4061 H 378.915 -1.15157 0.915279 0
M  V30 4062 H 380.873 -4.16921 0.152534 0
M  V30 4063 H 379.503 -3.19712 -0.445428 0
M  V30 4064 H 378.555 -3.25178 1.97391 0
M  V30 4065 H 379.867 -4.37362 2.39824 0
M  V30 4066 H 379.021 -6.0244 0.717677 0
M  V30 4067 H 377.76 -4.87318 0.19293 0
M  V30 4068 H 376.765 -4.89793 2.49766 0
M  V30 4069 H 377.99 -6.08337 3.01832 0
M  V30 4070 H 375.936 -6.50917 0.815064 0
M  V30 4071 H 375.853 -7.16286 2.41805 0
M  V30 4072 H 377.121 -7.67788 1.34619 0
M  V30 4073 N 381.35 -0.985608 -1.22978 0
M  V30 4074 C 382.597 -0.657386 -1.91532 0
M  V30 4075 C 382.925 0.809707 -1.76845 0
M  V30 4076 O 382.18 1.60021 -1.12658 0
M  V30 4077 C 382.479 -1.00014 -3.43121 0
M  V30 4078 C 382.145 -2.4583 -3.77993 0
M  V30 4079 C 380.807 -2.85679 -3.87222 0
M  V30 4080 C 383.159 -3.40378 -3.94705 0
M  V30 4081 C 380.487 -4.19081 -4.10595 0
M  V30 4082 C 382.839 -4.73429 -4.1958 0
M  V30 4083 C 381.503 -5.1303 -4.27032 0
M  V30 4084 H 380.773 -0.240555 -0.700867 0
M  V30 4085 H 383.42 -1.24044 -1.45895 0
M  V30 4086 H 381.725 -0.335072 -3.90365 0
M  V30 4087 H 383.422 -0.724322 -3.94404 0
M  V30 4088 H 380.012 -2.13939 -3.71387 0
M  V30 4089 H 384.196 -3.10766 -3.8696 0
M  V30 4090 H 379.452 -4.49362 -4.14589 0
M  V30 4091 H 383.626 -5.46644 -4.31455 0
M  V30 4092 H 381.253 -6.16418 -4.44896 0
M  V30 4093 N 382.828 1.3818 -0.7579 0
M  V30 4094 C 384.074 2.00316 -0.316453 0
M  V30 4095 C 384.407 1.60026 1.10025 0
M  V30 4096 O 383.682 0.839835 1.75434 0
M  V30 4097 C 383.965 3.57349 -0.444245 0
M  V30 4098 C 383.818 4.07591 -1.90236 0
M  V30 4099 C 385.137 4.3981 0.1598 0
M  V30 4100 H 382.256 0.727741 -0.116459 0
M  V30 4101 H 384.898 1.6406 -0.958352 0
M  V30 4102 H 383.048 3.88365 0.102233 0
M  V30 4103 H 384.72 3.87199 -2.50748 0
M  V30 4104 H 382.963 3.60297 -2.41595 0
M  V30 4105 H 383.634 5.16677 -1.94291 0
M  V30 4106 H 386.11 4.14971 -0.306314 0
M  V30 4107 H 384.986 5.48885 0.0401675 0
M  V30 4108 H 385.247 4.24102 1.24859 0
M  V30 4109 N 384.306 0.507319 1.49211 0
M  V30 4110 C 385.253 -0.267728 2.29242 0
M  V30 4111 C 386.223 -0.954609 1.35928 0
M  V30 4112 O 387.408 -0.960046 1.64887 0
M  V30 4113 C 384.548 -1.32243 3.18756 0
M  V30 4114 C 383.661 -0.64669 4.27132 0
M  V30 4115 C 382.796 -1.68238 5.03855 0
M  V30 4116 C 381.835 -0.98885 6.0406 0
M  V30 4117 N 380.972 -1.96903 6.73924 0
M  V30 4118 H 385.812 0.420968 2.95012 0
M  V30 4119 H 383.349 0.219443 1.45454 0
M  V30 4120 H 385.307 -1.94599 3.69036 0
M  V30 4121 H 383.937 -1.97981 2.54958 0
M  V30 4122 H 382.989 0.0902926 3.80293 0
M  V30 4123 H 384.301 -0.101058 4.98698 0
M  V30 4124 H 383.455 -2.38081 5.58034 0
M  V30 4125 H 382.194 -2.26187 4.32077 0
M  V30 4126 H 381.199 -0.276222 5.49106 0
M  V30 4127 H 382.424 -0.415767 6.77826 0
M  V30 4128 H 380.37 -2.53803 6.04913 0
M  V30 4129 H 380.287 -1.47423 7.41487 0
M  V30 4130 H 381.555 -2.66015 7.32705 0
M  V30 4131 N 385.784 -1.5574 0.241426 0
M  V30 4132 C 387.195 -1.84842 -0.262755 0
M  V30 4133 C 387.546 -1.16317 -1.58003 0
M  V30 4134 O 386.671 -0.439653 -2.11887 0
M  V30 4135 C 387.266 -3.35332 -0.483523 0
M  V30 4136 C 385.825 -3.6468 -0.931977 0
M  V30 4137 C 384.972 -2.77299 -0.0061151 0
M  V30 4138 H 387.923 -1.51761 0.464129 0
M  V30 4139 H 387.944 -3.56615 -1.32688 0
M  V30 4140 H 387.456 -3.85178 0.47537 0
M  V30 4141 H 385.557 -3.20307 -1.90353 0
M  V30 4142 H 385.67 -4.72498 -0.792628 0
M  V30 4143 H 384.034 -2.49408 -0.516503 0
M  V30 4144 H 384.817 -3.2995 0.948052 0
M  V30 4145 N 387.262 0.0317525 -1.57568 0
M  V30 4146 C 388.487 0.738664 -1.938 0
M  V30 4147 C 388.912 1.68242 -0.841208 0
M  V30 4148 O 388.27 1.80157 0.203267 0
M  V30 4149 C 388.318 1.47417 -3.29091 0
M  V30 4150 O 387.422 2.5872 -3.2115 0
M  V30 4151 H 386.763 0.198856 -0.633524 0
M  V30 4152 H 389.293 -0.0119713 -2.04596 0
M  V30 4153 H 389.303 1.84468 -3.63917 0
M  V30 4154 H 387.978 0.781988 -4.08482 0
M  V30 4155 H 386.555 2.24231 -2.97951 0
M  V30 4156 N 388.74 1.54641 0.303973 0
M  V30 4157 C 389.987 1.7378 1.03955 0
M  V30 4158 C 390.315 0.521986 1.87365 0
M  V30 4159 O 389.57 -0.496099 1.89308 0
M  V30 4160 C 389.869 2.97753 1.97681 0
M  V30 4161 C 389.535 4.31671 1.30271 0
M  V30 4162 C 388.197 4.68075 1.11619 0
M  V30 4163 C 390.549 5.147 0.82055 0
M  V30 4164 C 387.877 5.8509 0.434304 0
M  V30 4165 C 390.229 6.32416 0.152395 0
M  V30 4166 C 388.893 6.67484 -0.0461067 0
M  V30 4167 H 388.163 0.635908 0.380398 0
M  V30 4168 H 390.81 1.88896 0.314718 0
M  V30 4169 H 389.115 2.77406 2.76682 0
M  V30 4170 H 390.812 3.09756 2.54661 0
M  V30 4171 H 387.402 4.03041 1.45795 0
M  V30 4172 H 391.586 4.87077 0.952374 0
M  V30 4173 H 386.842 6.10806 0.269495 0
M  V30 4174 H 391.016 6.96023 -0.229126 0
M  V30 4175 H 388.643 7.58011 -0.576494 0
M  V30 4176 N 390.218 -0.567019 1.47046 0
M  V30 4177 C 391.495 -1.3276 1.43646 0
M  V30 4178 C 391.875 -2.1071 0.128186 0
M  V30 4179 O 391.223 -2.10441 -0.890326 0
M  V30 4180 C 391.433 -2.2404 2.67595 0
M  V30 4181 C 392.781 -2.85372 3.14401 0
M  V30 4182 O 393.805 -2.34346 2.68254 0
M  V30 4183 O 392.664 -3.78091 3.946 0
M  V30 4184 H 389.758 -0.597293 0.571988 0
M  V30 4185 H 392.304 -0.586735 1.59234 0
M  V30 4186 H 391.076 -1.65975 3.54356 0
M  V30 4187 H 390.699 -3.05439 2.54544 0
M  V30 4188 N 391.696 -1.35014 -0.812953 0
M  V30 4189 C 392.628 -1.23262 -1.93233 0
M  V30 4190 C 393.641 -0.157371 -1.62038 0
M  V30 4191 O 394.83 -0.410096 -1.73725 0
M  V30 4192 C 391.93 -0.87392 -3.27438 0
M  V30 4193 C 391.103 -2.04622 -3.86586 0
M  V30 4194 C 390.162 -1.66432 -4.99186 0
M  V30 4195 O 389.188 -2.38222 -5.16951 0
M  V30 4196 N 390.39 -0.584248 -5.77552 0
M  V30 4197 H 393.155 -2.19699 -2.03844 0
M  V30 4198 H 390.716 -1.281 -0.99005 0
M  V30 4199 H 392.708 -0.600039 -4.00227 0
M  V30 4200 H 391.278 0.00057392 -3.126 0
M  V30 4201 H 390.498 -2.48427 -3.06068 0
M  V30 4202 H 391.786 -2.82999 -4.22835 0
M  V30 4203 H 391.184 0.0123526 -5.65699 0
M  V30 4204 H 389.741 -0.37013 -6.50748 0
M  V30 4205 N 393.175 1.03435 -1.18907 0
M  V30 4206 C 394.405 1.8012 -1.01195 0
M  V30 4207 C 394.813 1.8395 0.442613 0
M  V30 4208 O 394.156 1.27836 1.31923 0
M  V30 4209 C 394.218 3.26792 -1.49823 0
M  V30 4210 C 393.882 3.46609 -2.97844 0
M  V30 4211 C 394.879 3.37278 -3.95651 0
M  V30 4212 C 392.564 3.73001 -3.36416 0
M  V30 4213 C 394.558 3.54054 -5.30023 0
M  V30 4214 C 392.245 3.89423 -4.70949 0
M  V30 4215 C 393.243 3.79951 -5.67562 0
M  V30 4216 O 392.931 3.95895 -6.99659 0
M  V30 4217 H 392.663 0.573865 -0.357289 0
M  V30 4218 H 395.217 1.31207 -1.58031 0
M  V30 4219 H 393.447 3.76703 -0.873578 0
M  V30 4220 H 395.136 3.85055 -1.28404 0
M  V30 4221 H 395.902 3.16846 -3.67197 0
M  V30 4222 H 391.781 3.79469 -2.61772 0
M  V30 4223 H 395.325 3.46577 -6.05417 0
M  V30 4224 H 391.222 4.09351 -4.99101 0
M  V30 4225 H 391.99 4.13019 -7.06653 0
M  V30 4226 N 394.653 0.992116 1.22453 0
M  V30 4227 C 395.902 0.662992 1.90492 0
M  V30 4228 C 396.215 -0.808407 1.78113 0
M  V30 4229 O 397.421 -1.24908 2.41061 0
M  V30 4230 C 395.877 1.1353 3.41524 0
M  V30 4231 C 395.485 2.63187 3.62542 0
M  V30 4232 C 397.229 0.880465 4.15269 0
M  V30 4233 C 395.136 3.04024 5.0727 0
M  V30 4234 H 394.066 0.244278 0.713333 0
M  V30 4235 H 396.717 1.20157 1.38688 0
M  V30 4236 H 395.099 0.52485 3.92506 0
M  V30 4237 H 396.273 3.2957 3.22056 0
M  V30 4238 H 394.588 2.86543 3.02129 0
M  V30 4239 H 397.185 1.16128 5.21937 0
M  V30 4240 H 397.528 -0.183408 4.15896 0
M  V30 4241 H 398.061 1.45307 3.70312 0
M  V30 4242 H 394.8 4.09584 5.11782 0
M  V30 4243 H 394.32 2.42343 5.48662 0
M  V30 4244 H 395.999 2.95282 5.75689 0
M  V30 4245 N 396.131 -1.37776 0.765217 0
M  V30 4246 C 397.063 -2.28958 0.105361 0
M  V30 4247 C 398.076 -1.48316 -0.67128 0
M  V30 4248 O 399.265 -1.71046 -0.51045 0
M  V30 4249 C 396.365 -3.27421 -0.874569 0
M  V30 4250 C 395.538 -4.37132 -0.153123 0
M  V30 4251 C 394.597 -5.1571 -1.04547 0
M  V30 4252 O 393.623 -5.66896 -0.511672 0
M  V30 4253 N 394.825 -5.29808 -2.37243 0
M  V30 4254 H 397.59 -2.86227 0.888495 0
M  V30 4255 H 395.151 -1.49682 0.617 0
M  V30 4256 H 397.143 -3.7687 -1.47483 0
M  V30 4257 H 395.713 -2.70967 -1.55871 0
M  V30 4258 H 394.933 -3.89166 0.627975 0
M  V30 4259 H 396.221 -5.07625 0.345643 0
M  V30 4260 H 395.619 -4.89793 -2.83054 0
M  V30 4261 H 394.176 -5.82589 -2.9229 0
M  V30 4262 N 397.609 -0.515225 -1.4894 0
M  V30 4263 C 399.02 -0.0710067 -1.86565 0
M  V30 4264 C 399.371 1.34733 -1.42623 0
M  V30 4265 O 398.496 2.00653 -0.810379 0
M  V30 4266 C 399.091 -0.122083 -3.3858 0
M  V30 4267 C 397.65 0.266863 -3.75453 0
M  V30 4268 C 396.797 -0.488376 -2.72966 0
M  V30 4269 H 399.748 -0.727266 -1.41055 0
M  V30 4270 H 399.769 0.669818 -3.74558 0
M  V30 4271 H 399.281 -1.15448 -3.70531 0
M  V30 4272 H 397.382 1.30196 -3.49113 0
M  V30 4273 H 397.495 -0.0624811 -4.79059 0
M  V30 4274 H 395.859 0.0635622 -2.54621 0
M  V30 4275 H 396.642 -1.52113 -3.07761 0
M  V30 4276 N 399.087 1.5561 -0.249682 0
M  V30 4277 C 400.315 2.03411 0.378352 0
M  V30 4278 C 400.73 1.12886 1.51335 0
M  V30 4279 O 400.087 0.143833 1.81932 0
M  V30 4280 C 400.138 3.50537 0.88351 0
M  V30 4281 O 399.859 4.37614 -0.20626 0
M  V30 4282 C 401.36 4.14113 1.58195 0
M  V30 4283 H 398.58 0.664994 0.08958 0
M  V30 4284 H 401.124 2.01044 -0.374357 0
M  V30 4285 H 399.279 3.5343 1.58639 0
M  V30 4286 H 399.693 5.24199 0.177782 0
M  V30 4287 H 401.167 5.18741 1.8871 0
M  V30 4288 H 401.644 3.60767 2.50487 0
M  V30 4289 H 402.25 4.15151 0.923573 0
M  V30 4290 N 400.565 -0.0233959 1.57583 0
M  V30 4291 C 401.498 -1.05549 2.02323 0
M  V30 4292 C 402.476 -1.34843 0.908626 0
M  V30 4293 O 403.66 -1.47404 1.17491 0
M  V30 4294 C 400.787 -2.38885 2.40108 0
M  V30 4295 C 399.833 -2.2541 3.62067 0
M  V30 4296 S 400.666 -1.60217 5.1097 0
M  V30 4297 C 401.822 -2.95032 5.52003 0
M  V30 4298 H 402.055 -0.674435 2.89549 0
M  V30 4299 H 399.588 -0.23355 1.52623 0
M  V30 4300 H 401.546 -3.15562 2.62547 0
M  V30 4301 H 400.207 -2.74137 1.53323 0
M  V30 4302 H 399.4 -3.23854 3.86179 0
M  V30 4303 H 399.002 -1.56876 3.39508 0
M  V30 4304 H 401.294 -3.91357 5.53033 0
M  V30 4305 H 402.237 -2.75646 6.52246 0
M  V30 4306 H 402.645 -2.97865 4.79517 0
M  V30 4307 N 402.043 -1.548 -0.295768 0
M  V30 4308 C 403.459 -1.4613 -0.641722 0
M  V30 4309 C 403.659 -0.656771 -1.90496 0
M  V30 4310 O 402.715 -0.166547 -2.5195 0
M  V30 4311 C 404.028 -2.90141 -0.789852 0
M  V30 4312 C 405.576 -3.00216 -0.885396 0
M  V30 4313 C 406.051 -4.45434 -1.06548 0
M  V30 4314 N 407.542 -4.49166 -1.13156 0
M  V30 4315 C 408.277 -5.58717 -1.28929 0
M  V30 4316 N 407.773 -6.78182 -1.41567 0
M  V30 4317 N 409.566 -5.46415 -1.31859 0
M  V30 4318 H 401.717 -2.05574 0.534147 0
M  V30 4319 H 403.98 -0.931259 0.177372 0
M  V30 4320 H 403.686 -3.51635 0.0675598 0
M  V30 4321 H 403.56 -3.37859 -1.67724 0
M  V30 4322 H 405.947 -2.38833 -1.73329 0
M  V30 4323 H 406.028 -2.55787 0.0261185 0
M  V30 4324 H 405.672 -5.07413 -0.222335 0
M  V30 4325 H 405.602 -4.87499 -1.9913 0
M  V30 4326 H 408.093 -3.631 -1.04721 0
M  V30 4327 H 408.406 -7.57428 -1.53372 0
M  V30 4328 H 406.751 -6.81037 -1.38613 0
M  V30 4329 H 409.942 -4.5203 -1.21601 0
M  V30 4330 H 410.115 -6.31841 -1.43808 0
M  V30 4331 N 403.521 0.559213 -1.47345 0
M  V30 4332 C 404.451 1.67622 -1.62558 0
M  V30 4333 C 405.432 1.63331 -0.475087 0
M  V30 4334 O 406.617 1.80983 -0.704182 0
M  V30 4335 C 403.747 3.0626 -1.63774 0
M  V30 4336 C 402.701 3.25397 -2.7803 0
M  V30 4337 C 402.027 4.64801 -2.64318 0
M  V30 4338 C 403.327 3.10965 -4.19641 0
M  V30 4339 H 405.021 1.55146 -2.56067 0
M  V30 4340 H 402.567 0.744961 -1.23233 0
M  V30 4341 H 404.52 3.84247 -1.73008 0
M  V30 4342 H 403.244 3.1969 -0.66825 0
M  V30 4343 H 401.903 2.49817 -2.68304 0
M  V30 4344 H 401.551 4.75028 -1.65401 0
M  V30 4345 H 401.251 4.78555 -3.40968 0
M  V30 4346 H 402.775 5.44926 -2.75478 0
M  V30 4347 H 404.189 3.78772 -4.30354 0
M  V30 4348 H 402.586 3.36229 -4.97062 0
M  V30 4349 H 403.656 2.07736 -4.38148 0
M  V30 4350 N 404.999 1.35443 0.805782 0
M  V30 4351 C 405.962 1.28301 1.89925 0
M  V30 4352 C 406.962 0.194285 1.59622 0
M  V30 4353 O 408.152 0.448036 1.6834 0
M  V30 4354 C 405.284 0.984997 3.2636 0
M  V30 4355 H 406.477 2.2553 1.97677 0
M  V30 4356 H 404.03 1.19979 1.00173 0
M  V30 4357 H 404.765 0.016603 3.24296 0
M  V30 4358 H 404.55 1.77269 3.4974 0
M  V30 4359 H 406.04 0.960651 4.064 0
M  V30 4360 N 406.477 -1.02803 1.19454 0
M  V30 4361 C 407.754 -1.73299 0.907013 0
M  V30 4362 C 408.134 -2.02772 -0.587086 0
M  V30 4363 O 407.482 -1.68304 -1.54551 0
M  V30 4364 C 407.692 -3.00912 1.76785 0
M  V30 4365 C 409.04 -3.74403 2.00268 0
M  V30 4366 O 410.064 -3.10841 1.73943 0
M  V30 4367 O 408.923 -4.88675 2.4466 0
M  V30 4368 H 406.017 -0.754727 0.338106 0
M  V30 4369 H 408.563 -1.08754 1.30271 0
M  V30 4370 H 407.335 -2.75366 2.7801 0
M  V30 4371 H 406.958 -3.73197 1.37149 0
M  V30 4372 N 407.956 -0.998596 -1.21925 0
M  V30 4373 C 409.205 -0.673085 -1.90138 0
M  V30 4374 C 409.518 0.79895 -1.78539 0
M  V30 4375 O 410.724 1.23628 -2.4172 0
M  V30 4376 C 409.18 -1.15339 -3.40918 0
M  V30 4377 C 408.788 -2.65106 -3.61141 0
M  V30 4378 C 410.532 -0.902476 -4.14796 0
M  V30 4379 C 408.439 -3.0671 -5.05651 0
M  V30 4380 H 407.369 -0.248057 -0.712028 0
M  V30 4381 H 410.02 -1.20891 -1.38049 0
M  V30 4382 H 408.402 -0.545658 -3.92223 0
M  V30 4383 H 409.576 -3.31274 -3.20304 0
M  V30 4384 H 407.891 -2.88142 -3.00605 0
M  V30 4385 H 410.488 -1.18895 -5.21314 0
M  V30 4386 H 410.831 0.161349 -4.15987 0
M  V30 4387 H 411.364 -1.47269 -3.69536 0
M  V30 4388 H 408.103 -4.12292 -5.09603 0
M  V30 4389 H 407.623 -2.45249 -5.47369 0
M  V30 4390 H 409.302 -2.9833 -5.74115 0
M  V30 4391 N 409.434 1.37368 -0.772513 0
M  V30 4392 C 410.68 1.99969 -0.337681 0
M  V30 4393 C 411.013 1.61184 1.08321 0
M  V30 4394 O 410.288 0.858395 1.74533 0
M  V30 4395 C 410.571 3.56858 -0.482121 0
M  V30 4396 C 410.424 4.0555 -1.94549 0
M  V30 4397 C 411.743 4.39955 0.113143 0
M  V30 4398 H 408.862 0.726464 -0.124171 0
M  V30 4399 H 411.504 1.63034 -0.975699 0
M  V30 4400 H 409.654 3.88452 0.0610361 0
M  V30 4401 H 411.326 3.84518 -2.54841 0
M  V30 4402 H 409.569 3.57715 -2.45403 0
M  V30 4403 H 410.24 5.14587 -1.9976 0
M  V30 4404 H 412.716 4.14623 -0.35031 0
M  V30 4405 H 411.592 5.48897 -0.0180514 0
M  V30 4406 H 411.853 4.25403 1.20354 0
M  V30 4407 N 410.912 0.523116 1.48665 0
M  V30 4408 C 412.158 -0.0134963 2.02796 0
M  V30 4409 C 412.491 -1.34582 1.40004 0
M  V30 4410 O 411.766 -1.86756 0.543381 0
M  V30 4411 C 412.049 -0.14276 3.59817 0
M  V30 4412 C 411.902 1.21425 4.331 0
M  V30 4413 C 413.221 -0.872856 4.31357 0
M  V30 4414 H 410.34 -0.00343074 0.736992 0
M  V30 4415 H 412.982 0.678816 1.7746 0
M  V30 4416 H 411.132 -0.732401 3.81534 0
M  V30 4417 H 412.804 1.84447 4.2282 0
M  V30 4418 H 411.047 1.79791 3.94788 0
M  V30 4419 H 411.718 1.07687 5.41394 0
M  V30 4420 H 414.194 -0.372555 4.14429 0
M  V30 4421 H 413.07 -0.932185 5.40927 0
M  V30 4422 H 413.331 -1.92161 3.98154 0
M  V30 4423 N 412.39 -1.55475 0.257931 0
M  V30 4424 C 413.801 -1.8511 -0.243135 0
M  V30 4425 C 414.152 -1.17986 -1.5676 0
M  V30 4426 O 413.277 -0.462102 -2.11409 0
M  V30 4427 C 413.872 -3.35826 -0.447929 0
M  V30 4428 C 412.431 -3.65647 -0.893245 0
M  V30 4429 C 411.578 -2.7729 0.0232965 0
M  V30 4430 H 414.529 -1.51261 0.480199 0
M  V30 4431 H 414.55 -3.58002 -1.28898 0
M  V30 4432 H 414.062 -3.84652 0.516196 0
M  V30 4433 H 412.163 -3.22308 -1.86945 0
M  V30 4434 H 412.276 -4.73312 -0.742469 0
M  V30 4435 H 410.64 -2.49942 -0.490021 0
M  V30 4436 H 411.423 -3.28926 0.982994 0
M  V30 4437 N 413.868 0.0150385 -1.57593 0
M  V30 4438 C 415.284 0.370907 -1.5523 0
M  V30 4439 C 415.484 1.75735 -0.985882 0
M  V30 4440 O 414.54 2.44944 -0.613077 0
M  V30 4441 C 415.853 0.259908 -2.99575 0
M  V30 4442 C 417.401 0.335959 -3.11192 0
M  V30 4443 C 417.876 0.254253 -4.57294 0
M  V30 4444 N 419.367 0.312618 -4.62144 0
M  V30 4445 C 420.102 0.272505 -5.72752 0
M  V30 4446 N 419.598 0.183864 -6.92556 0
M  V30 4447 N 421.391 0.323267 -5.6117 0
M  V30 4448 H 413.542 -0.892104 -1.92757 0
M  V30 4449 H 415.805 -0.340563 -0.884715 0
M  V30 4450 H 415.511 -0.693403 -3.44797 0
M  V30 4451 H 415.385 1.048 -3.62349 0
M  V30 4452 H 417.772 1.27971 -2.65909 0
M  V30 4453 H 417.853 -0.481739 -2.51223 0
M  V30 4454 H 417.497 -0.685887 -5.03247 0
M  V30 4455 H 417.427 1.09024 -5.15191 0
M  V30 4456 H 419.918 0.38307 -3.75953 0
M  V30 4457 H 420.231 0.15874 -7.72637 0
M  V30 4458 H 418.576 0.149708 -6.94839 0
M  V30 4459 H 421.767 0.390607 -4.66467 0
M  V30 4460 H 421.94 0.288539 -6.47357 0
M  V30 4461 N 415.346 1.54954 0.287554 0
M  V30 4462 C 416.594 1.74528 1.01904 0
M  V30 4463 C 416.915 0.541349 1.87335 0
M  V30 4464 O 416.185 -0.444108 1.908 0
M  V30 4465 H 414.765 0.643576 0.379235 0
M  V30 4466 H 417.427 1.92333 0.315294 0
M  V30 4467 H 416.523 2.64015 1.6644 0
M  V30 4468 N 416.824 -0.551391 1.4764 0
M  V30 4469 C 418.049 -1.33837 1.58437 0
M  V30 4470 C 418.474 -1.866 0.237063 0
M  V30 4471 O 417.832 -1.6328 -0.787994 0
M  V30 4472 C 417.88 -2.48014 2.61766 0
M  V30 4473 O 416.984 -3.50419 2.1744 0
M  V30 4474 H 416.325 -0.397299 0.532024 0
M  V30 4475 H 418.855 -0.665759 1.93465 0
M  V30 4476 H 418.865 -2.94503 2.82369 0
M  V30 4477 H 417.54 -2.08969 3.5959 0
M  V30 4478 H 416.117 -3.10196 2.06961 0
M  V30 4479 N 418.302 -1.35869 -0.798587 0
M  V30 4480 C 419.55 -1.29332 -1.55298 0
M  V30 4481 C 419.871 0.129729 -1.94568 0
M  V30 4482 O 419.141 1.06796 -1.6423 0
M  V30 4483 H 417.721 -0.475737 -0.57592 0
M  V30 4484 H 420.383 -1.70062 -0.952093 0
M  V30 4485 H 419.479 -1.91458 -2.46476 0
M  V30 4486 N 419.78 1.02168 -1.19998 0
M  V30 4487 C 420.728 2.12717 -0.940967 0
M  V30 4488 C 421.722 1.69069 0.105841 0
M  V30 4489 O 422.928 1.79946 -0.0440583 0
M  V30 4490 H 419.303 0.695108 -0.28693 0
M  V30 4491 H 421.274 2.3175 -1.87975 0
M  V30 4492 C 420.023 3.44027 -0.504049 0
M  V30 4493 H 419.346 3.78036 -1.30112 0
M  V30 4494 H 420.786 4.22452 -0.361991 0
M  V30 4495 C 419.245 3.27678 0.782878 0
M  V30 4496 O 419.775 3.56949 1.84256 0
M  V30 4497 N 417.981 2.80943 0.742921 0
M  V30 4498 H 417.528 2.57322 -0.119687 0
M  V30 4499 H 417.486 2.70385 1.60435 0
M  V30 4500 N 421.258 1.00505 1.21394 0
M  V30 4501 C 422.486 0.706609 1.9446 0
M  V30 4502 C 422.901 -0.73081 1.74082 0
M  V30 4503 O 422.258 -1.49446 1.04747 0
M  V30 4504 C 422.309 1.01824 3.46863 0
M  V30 4505 O 422.03 2.39919 3.66566 0
M  V30 4506 C 423.531 0.739216 4.37093 0
M  V30 4507 H 420.751 0.260394 0.618414 0
M  V30 4508 H 423.295 1.34311 1.54211 0
M  V30 4509 H 421.45 0.427343 3.85036 0
M  V30 4510 H 421.864 2.50784 4.6066 0
M  V30 4511 H 423.338 1.00744 5.42729 0
M  V30 4512 H 423.815 -0.326746 4.37983 0
M  V30 4513 H 424.421 1.31173 4.04566 0
M  V30 4514 N 422.737 -1.36956 0.779787 0
M  V30 4515 C 423.983 -1.99787 0.348281 0
M  V30 4516 C 424.316 -1.61756 -1.07465 0
M  V30 4517 O 423.591 -0.867639 -1.74075 0
M  V30 4518 C 423.874 -3.56597 0.50104 0
M  V30 4519 C 423.727 -4.04513 1.96697 0
M  V30 4520 C 425.046 -4.40008 -0.0898097 0
M  V30 4521 H 422.165 -0.725796 0.128022 0
M  V30 4522 H 424.807 -1.62514 0.984331 0
M  V30 4523 H 422.957 -3.88479 -0.0404347 0
M  V30 4524 H 424.629 -3.83161 2.56876 0
M  V30 4525 H 422.872 -3.56408 2.47297 0
M  V30 4526 H 423.543 -5.1352 2.02486 0
M  V30 4527 H 426.019 -4.14431 0.372293 0
M  V30 4528 H 424.895 -5.4888 0.0471605 0
M  V30 4529 H 425.156 -4.26035 -1.18096 0
M  V30 4530 N 424.215 -0.530993 -1.48385 0
M  V30 4531 C 425.178 0.220497 -2.28137 0
M  V30 4532 C 426.178 0.866851 -1.35434 0
M  V30 4533 O 427.368 0.726746 -1.58316 0
M  V30 4534 C 424.5 1.31921 -3.1434 0
M  V30 4535 H 425.693 -0.479714 -2.96038 0
M  V30 4536 H 423.246 -0.286968 -1.53643 0
M  V30 4537 H 423.981 2.05264 -2.51072 0
M  V30 4538 H 423.766 0.86085 -3.82533 0
M  V30 4539 H 425.256 1.84776 -3.74497 0
M  V30 4540 N 425.693 1.55336 -0.266172 0
M  V30 4541 C 426.942 1.98574 0.353749 0
M  V30 4542 C 427.255 1.15789 1.57646 0
M  V30 4543 O 428.461 1.49129 2.26876 0
M  V30 4544 C 426.917 3.53403 0.680747 0
M  V30 4545 C 426.525 4.44953 -0.52165 0
M  V30 4546 C 428.269 4.05251 1.26379 0
M  V30 4547 C 426.176 5.91156 -0.169736 0
M  V30 4548 H 425.106 0.741643 0.135949 0
M  V30 4549 H 427.757 1.79743 -0.369421 0
M  V30 4550 H 426.139 3.68001 1.46257 0
M  V30 4551 H 427.313 4.42121 -1.29869 0
M  V30 4552 H 425.628 4.03691 -1.02093 0
M  V30 4553 H 428.225 5.12021 1.54074 0
M  V30 4554 H 428.568 3.53749 2.19471 0
M  V30 4555 H 429.101 3.94057 0.544447 0
M  V30 4556 H 425.84 6.46736 -1.0683 0
M  V30 4557 H 425.36 5.97079 0.570717 0
M  V30 4558 H 427.039 6.4655 0.241245 0
M  V30 4559 N 427.171 -0.0066808 1.57599 0
M  V30 4560 C 428.448 -0.729586 1.81484 0
M  V30 4561 C 428.828 -1.92359 0.869558 0
M  V30 4562 O 428.176 -2.28348 -0.0832533 0
M  V30 4563 C 428.386 -1.1416 3.29801 0
M  V30 4564 C 429.734 -1.54823 3.95367 0
M  V30 4565 O 430.758 -1.23558 3.34084 0
M  V30 4566 O 429.617 -2.12937 5.03309 0
M  V30 4567 H 426.711 -0.354674 0.747085 0
M  V30 4568 H 429.257 0.0182609 1.6969 0
M  V30 4569 H 428.029 -0.290231 3.90222 0
M  V30 4570 H 427.652 -1.94876 3.46568 0
M  V30 4571 N 428.649 -1.55105 -0.279332 0
M  V30 4572 C 429.579 -1.90557 -1.34945 0
M  V30 4573 C 430.56 -0.766738 -1.51839 0
M  V30 4574 O 431.745 -1.02434 -1.64988 0
M  V30 4575 C 428.875 -2.17193 -2.71006 0
M  V30 4576 C 427.829 -3.33021 -2.68851 0
M  V30 4577 C 427.155 -3.45123 -4.08405 0
M  V30 4578 C 428.455 -4.69578 -2.28678 0
M  V30 4579 H 430.149 -2.80188 -1.05522 0
M  V30 4580 H 427.695 -1.34811 -0.506173 0
M  V30 4581 H 429.648 -2.40581 -3.45975 0
M  V30 4582 H 428.372 -1.24355 -3.01999 0
M  V30 4583 H 427.031 -3.0959 -1.9634 0
M  V30 4584 H 426.679 -2.49762 -4.3661 0
M  V30 4585 H 426.379 -4.22995 -4.07859 0
M  V30 4586 H 427.903 -3.70796 -4.85121 0
M  V30 4587 H 429.317 -4.92553 -2.93368 0
M  V30 4588 H 427.714 -5.5032 -2.39306 0
M  V30 4589 H 428.784 -4.68828 -1.23807 0
M  V30 4590 N 430.127 0.543554 -1.4793 0
M  V30 4591 C 431.376 1.29649 -1.54512 0
M  V30 4592 C 431.689 1.94382 -0.217973 0
M  V30 4593 O 432.895 2.71017 -0.161908 0
M  V30 4594 C 431.351 2.35175 -2.72435 0
M  V30 4595 C 430.959 1.76572 -4.11736 0
M  V30 4596 C 432.703 3.11564 -2.8832 0
M  V30 4597 C 430.61 2.79958 -5.20939 0
M  V30 4598 H 429.54 0.487541 -0.57517 0
M  V30 4599 H 432.191 0.575708 -1.74235 0
M  V30 4600 H 430.573 3.10229 -2.46118 0
M  V30 4601 H 431.747 1.07799 -4.48013 0
M  V30 4602 H 430.062 1.12722 -4.00852 0
M  V30 4603 H 432.659 3.88794 -3.67074 0
M  V30 4604 H 433.002 3.66594 -1.97268 0
M  V30 4605 H 433.535 2.43623 -3.14472 0
M  V30 4606 H 430.274 2.29766 -6.13912 0
M  V30 4607 H 429.794 3.47101 -4.89164 0
M  V30 4608 H 431.473 3.43198 -5.48474 0
M  V30 4609 N 431.605 1.3629 0.791371 0
M  V30 4610 C 432.851 1.30605 1.55146 0
M  V30 4611 C 433.184 -0.115042 1.93859 0
M  V30 4612 O 432.459 -1.06798 1.62556 0
M  V30 4613 C 432.742 2.22692 2.82985 0
M  V30 4614 C 432.595 3.73489 2.50651 0
M  V30 4615 C 433.914 2.13588 3.84796 0
M  V30 4616 H 431.033 0.475761 0.562868 0
M  V30 4617 H 433.675 1.66825 0.909358 0
M  V30 4618 H 431.825 1.91933 3.37778 0
M  V30 4619 H 433.497 4.14758 2.01924 0
M  V30 4620 H 431.74 3.93021 1.83622 0
M  V30 4621 H 432.411 4.3333 3.41949 0
M  V30 4622 H 434.887 2.40659 3.39445 0
M  V30 4623 H 433.763 2.80195 4.71998 0
M  V30 4624 H 434.024 1.12256 4.27611 0
M  V30 4625 N 433.083 -1.0153 1.20538 0
M  V30 4626 C 434.015 -2.10224 0.913155 0
M  V30 4627 C 435.028 -1.62495 -0.0995998 0
M  V30 4628 O 436.217 -1.78014 0.131582 0
M  V30 4629 C 433.317 -3.37111 0.347717 0
M  V30 4630 C 432.49 -4.13971 1.41233 0
M  V30 4631 C 431.549 -5.19158 0.857976 0
M  V30 4632 O 430.575 -5.48 1.53897 0
M  V30 4633 N 431.777 -5.7955 -0.331966 0
M  V30 4634 H 434.542 -2.35879 1.84881 0
M  V30 4635 H 432.103 -1.17931 1.10923 0
M  V30 4636 H 434.095 -4.04683 -0.0373026 0
M  V30 4637 H 432.665 -3.08696 -0.492527 0
M  V30 4638 H 431.885 -3.41351 1.97163 0
M  V30 4639 H 433.173 -4.62103 2.12928 0
M  V30 4640 H 432.571 -5.58455 -0.902478 0
M  V30 4641 H 431.128 -6.48464 -0.65861 0
M  V30 4642 N 434.561 -1.01147 -1.20859 0
M  V30 4643 C 435.511 -0.548247 -2.2131 0
M  V30 4644 C 436.495 0.393646 -1.5601 0
M  V30 4645 O 437.687 0.217445 -1.75659 0
M  V30 4646 C 434.816 0.117252 -3.431 0
M  V30 4647 C 433.902 -0.846043 -4.15575 0
M  V30 4648 N 434.293 -2.00149 -4.64515 0
M  V30 4649 C 432.591 -0.665783 -4.41003 0
M  V30 4650 C 433.292 -2.60764 -5.19978 0
M  V30 4651 N 432.268 -1.88868 -5.09735 0
M  V30 4652 H 436.07 -1.42921 -2.56809 0
M  V30 4653 H 433.584 -0.876142 -1.36739 0
M  V30 4654 H 435.581 0.46662 -4.1428 0
M  V30 4655 H 434.241 0.994115 -3.09107 0
M  V30 4656 H 435.252 -2.38162 -4.5989 0
M  V30 4657 H 431.929 0.163456 -4.1718 0
M  V30 4658 H 433.319 -3.58519 -5.68255 0
M  V30 4659 N 436.039 1.36541 -0.78704 0
M  V30 4660 C 437.285 1.99599 -0.358872 0
M  V30 4661 C 437.618 1.62323 1.06606 0
M  V30 4662 O 436.893 0.876858 1.73613 0
M  V30 4663 C 437.176 3.56327 -0.519944 0
M  V30 4664 C 437.029 4.03464 -1.98839 0
M  V30 4665 C 438.348 4.4005 0.0664737 0
M  V30 4666 H 435.467 0.725107 -0.131869 0
M  V30 4667 H 438.109 1.6199 -0.992936 0
M  V30 4668 H 436.259 3.88495 0.0198321 0
M  V30 4669 H 437.931 3.81793 -2.58905 0
M  V30 4670 H 436.174 3.55092 -2.49183 0
M  V30 4671 H 436.845 5.12439 -2.05207 0
M  V30 4672 H 439.321 4.14228 -0.394267 0
M  V30 4673 H 438.197 5.48847 -0.0762682 0
M  V30 4674 H 438.458 4.26655 1.15835 0
M  V30 4675 N 437.518 0.538854 1.48102 0
M  V30 4676 C 438.468 -0.23907 2.26743 0
M  V30 4677 C 439.452 -0.901923 1.33245 0
M  V30 4678 O 440.644 -0.803263 1.57723 0
M  V30 4679 C 437.773 -1.2799 3.18549 0
M  V30 4680 C 436.859 -0.621388 4.19523 0
M  V30 4681 N 437.25 0.298004 5.04921 0
M  V30 4682 C 435.548 -0.877533 4.37282 0
M  V30 4683 C 436.249 0.678757 5.77726 0
M  V30 4684 N 435.225 0.0377881 5.43587 0
M  V30 4685 H 439.027 0.468096 2.90148 0
M  V30 4686 H 436.541 0.357497 1.58416 0
M  V30 4687 H 438.538 -1.851 3.73555 0
M  V30 4688 H 437.198 -1.98835 2.567 0
M  V30 4689 H 438.209 0.671126 5.13533 0
M  V30 4690 H 434.886 -1.57588 3.86616 0
M  V30 4691 H 436.276 1.43316 6.56437 0
M  V30 4692 N 438.996 -1.55193 0.274407 0
M  V30 4693 C 440.221 -2.04446 -0.348824 0
M  V30 4694 C 440.646 -1.15149 -1.48735 0
M  V30 4695 O 440.004 -0.149952 -1.80679 0
M  V30 4696 C 440.052 -3.51431 -0.808009 0
M  V30 4697 O 439.156 -3.65225 -1.91531 0
M  V30 4698 H 438.497 -0.66006 -0.0722276 0
M  V30 4699 H 441.027 -2.00481 0.408498 0
M  V30 4700 H 441.037 -3.92781 -1.10395 0
M  V30 4701 H 439.712 -4.15892 0.0249865 0
M  V30 4702 H 438.289 -3.35778 -1.62196 0
M  V30 4703 N 440.474 -0.00167713 -1.576 0
M  V30 4704 C 441.406 1.0174 -2.05382 0
M  V30 4705 C 442.419 1.30595 -0.972052 0
M  V30 4706 O 443.608 1.27542 -1.24882 0
M  V30 4707 C 440.708 2.35174 -2.44022 0
M  V30 4708 C 439.881 2.25234 -3.74951 0
M  V30 4709 C 438.94 3.4137 -4.00441 0
M  V30 4710 O 437.966 3.19483 -4.71083 0
M  V30 4711 N 439.168 4.64275 -3.48467 0
M  V30 4712 H 441.933 0.609902 -2.93428 0
M  V30 4713 H 439.494 0.185672 -1.60832 0
M  V30 4714 H 441.486 3.11643 -2.58187 0
M  V30 4715 H 440.056 2.67659 -1.61485 0
M  V30 4716 H 439.276 1.33664 -3.70847 0
M  V30 4717 H 440.564 2.15767 -4.60784 0
M  V30 4718 H 439.962 4.84955 -2.91264 0
M  V30 4719 H 438.519 5.38005 -3.67959 0
M  V30 4720 N 441.952 1.55251 0.271103 0
M  V30 4721 C 442.882 1.9127 1.33933 0
M  V30 4722 C 443.863 0.77478 1.5143 0
M  V30 4723 O 445.048 1.03307 1.64442 0
M  V30 4724 C 442.178 2.18627 2.69851 0
M  V30 4725 C 441.132 3.34442 2.67081 0
M  V30 4726 C 440.458 3.47284 4.06569 0
M  V30 4727 C 441.758 4.70784 2.26185 0
M  V30 4728 H 443.452 2.80744 1.04035 0
M  V30 4729 H 440.998 1.35077 0.499017 0
M  V30 4730 H 442.951 2.42413 3.44694 0
M  V30 4731 H 441.675 1.25955 3.01335 0
M  V30 4732 H 440.334 3.10627 1.94695 0
M  V30 4733 H 439.982 2.52074 4.35279 0
M  V30 4734 H 439.682 4.25152 4.0561 0
M  V30 4735 H 441.206 3.73363 4.83148 0
M  V30 4736 H 442.62 4.94102 2.90751 0
M  V30 4737 H 441.017 5.51582 2.36384 0
M  V30 4738 H 442.087 4.69478 1.21319 0
M  V30 4739 N 443.43 -0.535701 1.48216 0
M  V30 4740 C 444.34 -1.66785 1.64985 0
M  V30 4741 C 445.356 -1.65654 0.532414 0
M  V30 4742 O 446.532 -1.8471 0.80275 0
M  V30 4743 C 443.597 -3.0326 1.68031 0
M  V30 4744 C 442.658 -3.1529 2.9136 0
M  V30 4745 C 441.891 -4.45255 2.94252 0
M  V30 4746 O 442.114 -5.32011 2.05719 0
M  V30 4747 O 441.048 -4.6153 3.86359 0
M  V30 4748 H 444.874 -1.55576 2.60825 0
M  V30 4749 H 442.459 -0.70815 1.31551 0
M  V30 4750 H 444.341 -3.84436 1.72589 0
M  V30 4751 H 443.016 -3.14805 0.753628 0
M  V30 4752 H 441.923 -2.3343 2.92337 0
M  V30 4753 H 443.256 -3.08658 3.83394 0
M  V30 4754 N 444.908 -1.36708 -0.784132 0
M  V30 4755 C 445.818 -1.3363 -1.92822 0
M  V30 4756 C 446.834 -0.237686 -1.72369 0
M  V30 4757 O 448.01 -0.470962 -1.95816 0
M  V30 4758 C 445.075 -1.13011 -3.27764 0
M  V30 4759 C 444.136 -2.32397 -3.60957 0
M  V30 4760 C 443.369 -2.12752 -4.89461 0
M  V30 4761 O 443.592 -1.10541 -5.59586 0
M  V30 4762 O 442.526 -3.00653 -5.21432 0
M  V30 4763 H 446.352 -2.29964 -1.98369 0
M  V30 4764 H 443.937 -1.1731 -0.925136 0
M  V30 4765 H 445.819 -1.03451 -4.08504 0
M  V30 4766 H 444.494 -0.19743 -3.23097 0
M  V30 4767 H 443.401 -2.47527 -2.80502 0
M  V30 4768 H 444.734 -3.2419 -3.70354 0
M  V30 4769 N 446.386 1.0089 -1.21074 0
M  V30 4770 C 447.802 1.2695 -0.967257 0
M  V30 4771 C 448.002 1.9846 0.348673 0
M  V30 4772 O 447.058 2.28459 1.0753 0
M  V30 4773 C 448.371 2.09697 -2.15517 0
M  V30 4774 C 449.919 2.22937 -2.197 0
M  V30 4775 C 450.394 3.09064 -3.37999 0
M  V30 4776 N 451.885 3.16653 -3.38061 0
M  V30 4777 C 452.62 3.8354 -4.26245 0
M  V30 4778 N 452.116 4.52488 -5.2462 0
M  V30 4779 N 453.909 3.80141 -4.14064 0
M  V30 4780 H 446.06 0.529005 -2.05707 0
M  V30 4781 H 448.323 0.296148 -0.900556 0
M  V30 4782 H 448.029 1.64497 -3.10859 0
M  V30 4783 H 447.903 3.10444 -2.14253 0
M  V30 4784 H 450.29 2.67357 -1.24916 0
M  V30 4785 H 450.371 1.21673 -2.2501 0
M  V30 4786 H 450.015 2.65347 -4.33074 0
M  V30 4787 H 449.945 4.10433 -3.29928 0
M  V30 4788 H 452.436 2.67566 -2.66865 0
M  V30 4789 H 452.749 5.01219 -5.88217 0
M  V30 4790 H 451.094 4.51288 -5.28549 0
M  V30 4791 H 454.285 3.25427 -3.36474 0
M  V30 4792 H 454.458 4.31992 -4.82998 0
M  V30 4793 N 447.864 1.01787 1.20321 0
M  V30 4794 C 448.774 0.598898 2.26827 0
M  V30 4795 C 449.79 -0.36418 1.70146 0
M  V30 4796 O 450.966 -0.224812 2.00141 0
M  V30 4797 C 448.031 -0.0549769 3.46656 0
M  V30 4798 C 447.092 0.954205 4.18561 0
M  V30 4799 C 446.325 0.331439 5.3267 0
M  V30 4800 O 446.548 -0.86851 5.63749 0
M  V30 4801 O 445.482 1.0488 5.92692 0
M  V30 4802 H 449.308 1.48562 2.64883 0
M  V30 4803 H 446.893 0.787434 1.26964 0
M  V30 4804 H 448.775 -0.420102 4.19301 0
M  V30 4805 H 447.45 -0.915876 3.10473 0
M  V30 4806 H 446.357 1.37072 3.48083 0
M  V30 4807 H 447.69 1.78511 4.58688 0
M  V30 4808 N 449.342 -1.36122 0.79427 0
M  V30 4809 C 450.272 -2.32551 0.210328 0
M  V30 4810 C 451.253 -1.56884 -0.657386 0
M  V30 4811 O 452.438 -1.85014 -0.590207 0
M  V30 4812 C 449.568 -3.41128 -0.651819 0
M  V30 4813 C 448.522 -4.27842 0.116395 0
M  V30 4814 C 447.848 -5.2763 -0.86666 0
M  V30 4815 C 449.148 -5.05647 1.30837 0
M  V30 4816 H 450.842 -2.81636 1.01594 0
M  V30 4817 H 448.388 -1.35407 0.489981 0
M  V30 4818 H 450.341 -4.07581 -1.07031 0
M  V30 4819 H 449.065 -2.90622 -1.49019 0
M  V30 4820 H 447.724 -3.62952 0.515915 0
M  V30 4821 H 447.372 -4.73395 -1.70019 0
M  V30 4822 H 447.072 -5.86514 -0.35705 0
M  V30 4823 H 448.596 -5.96955 -1.28361 0
M  V30 4824 H 450.01 -5.65113 0.965393 0
M  V30 4825 H 448.407 -5.73967 1.75161 0
M  V30 4826 H 449.477 -4.37006 2.10128 0
M  V30 4827 N 450.82 -0.546701 -1.47814 0
M  V30 4828 C 452.045 -0.021268 -2.07389 0
M  V30 4829 C 452.47 1.25822 -1.39822 0
M  V30 4830 O 451.828 1.75111 -0.46968 0
M  V30 4831 C 451.876 0.168502 -3.60206 0
M  V30 4832 O 450.98 1.23347 -3.93522 0
M  V30 4833 H 450.321 -0.0466108 -0.662362 0
M  V30 4834 H 452.851 -0.759387 -1.89985 0
M  V30 4835 H 452.861 0.385982 -4.0617 0
M  V30 4836 H 451.536 -0.766075 -4.08784 0
M  V30 4837 H 450.113 0.997319 -3.59316 0
M  V30 4838 N 452.299 1.55045 -0.282633 0
M  V30 4839 C 453.545 2.00056 0.332481 0
M  V30 4840 C 453.878 1.1708 1.54939 0
M  V30 4841 O 453.153 0.2427 1.9298 0
M  V30 4842 C 453.436 3.53086 0.70725 0
M  V30 4843 C 453.289 4.46813 -0.517521 0
M  V30 4844 C 454.608 4.12245 1.54084 0
M  V30 4845 H 451.727 0.727268 0.119373 0
M  V30 4846 H 454.369 1.85932 -0.391076 0
M  V30 4847 H 452.519 3.65253 1.32372 0
M  V30 4848 H 454.191 4.46579 -1.15607 0
M  V30 4849 H 452.434 4.18163 -1.1542 0
M  V30 4850 H 453.105 5.51595 -0.211426 0
M  V30 4851 H 455.581 4.03401 1.02013 0
M  V30 4852 H 454.457 5.19515 1.77186 0
M  V30 4853 H 454.718 3.62951 2.52427 0
M  V30 4854 N 453.777 0.010035 1.57597 0
M  V30 4855 C 455.193 -0.346164 1.55801 0
M  V30 4856 C 455.393 -1.74144 1.01371 0
M  V30 4857 O 454.449 -2.43938 0.651968 0
M  V30 4858 C 455.762 -0.212216 2.9995 0
M  V30 4859 C 457.31 -0.286409 3.11687 0
M  V30 4860 C 457.785 -0.18147 4.5764 0
M  V30 4861 N 459.276 -0.239056 4.62583 0
M  V30 4862 C 460.011 -0.181351 5.73113 0
M  V30 4863 N 459.507 -0.073661 6.92761 0
M  V30 4864 N 461.3 -0.233949 5.61613 0
M  V30 4865 H 453.451 0.922657 1.91313 0
M  V30 4866 H 455.714 0.354595 0.879185 0
M  V30 4867 H 455.42 0.748169 3.4365 0
M  V30 4868 H 455.294 -0.990224 3.6397 0
M  V30 4869 H 457.681 -1.23724 2.67911 0
M  V30 4870 H 457.762 0.521645 2.50425 0
M  V30 4871 H 457.406 0.765863 5.02093 0
M  V30 4872 H 457.336 -1.00814 5.1686 0
M  V30 4873 H 459.827 -0.32321 3.76515 0
M  V30 4874 H 460.14 -0.0358003 7.72792 0
M  V30 4875 H 458.485 -0.0391461 6.94989 0
M  V30 4876 H 461.676 -0.316347 4.6703 0
M  V30 4877 H 461.849 -0.185514 6.47734 0
M  V30 4878 N 455.255 -1.55392 -0.262866 0
M  V30 4879 C 456.218 -1.88181 -1.30846 0
M  V30 4880 C 457.218 -0.757079 -1.41862 0
M  V30 4881 O 458.408 -1.02519 -1.40838 0
M  V30 4882 C 455.54 -2.09609 -2.68844 0
M  V30 4883 H 456.733 -2.81659 -1.02997 0
M  V30 4884 H 454.286 -1.48039 -0.501414 0
M  V30 4885 H 455.021 -1.18547 -3.01856 0
M  V30 4886 H 454.806 -2.91508 -2.62231 0
M  V30 4887 H 456.296 -2.36215 -3.44372 0
M  V30 4888 N 456.733 0.527833 -1.48498 0
M  V30 4889 C 457.696 1.61439 -1.62696 0
M  V30 4890 C 458.696 1.52824 -0.500136 0
M  V30 4891 O 459.886 1.56456 -0.765976 0
M  V30 4892 C 457.018 3.01063 -1.59918 0
M  V30 4893 H 458.211 1.50189 -2.59583 0
M  V30 4894 H 455.764 0.750055 -1.37127 0
M  V30 4895 H 456.499 3.17818 -0.645163 0
M  V30 4896 H 456.284 3.08725 -2.41726 0
M  V30 4897 H 457.774 3.80057 -1.73051 0
M  V30 4898 N 458.211 1.37122 0.776871 0
M  V30 4899 C 459.141 1.35164 1.90402 0
M  V30 4900 C 460.122 0.221069 1.68657 0
M  V30 4901 O 461.307 0.420642 1.8959 0
M  V30 4902 C 458.437 1.15274 3.27611 0
M  V30 4903 C 457.391 2.25289 3.63908 0
M  V30 4904 C 456.717 1.90527 4.99603 0
M  V30 4905 C 458.017 3.67446 3.71188 0
M  V30 4906 H 459.711 2.29482 1.92297 0
M  V30 4907 H 457.257 1.10465 0.923773 0
M  V30 4908 H 459.21 1.12536 4.06096 0
M  V30 4909 H 457.934 0.174102 3.26136 0
M  V30 4910 H 456.593 2.27174 2.87728 0
M  V30 4911 H 456.241 0.91206 4.94662 0
M  V30 4912 H 455.941 2.64193 5.24858 0
M  V30 4913 H 457.465 1.89367 5.80493 0
M  V30 4914 H 458.879 3.67719 4.39836 0
M  V30 4915 H 457.276 4.40123 4.07936 0
M  V30 4916 H 458.346 4.01443 2.71977 0
M  V30 4917 N 459.689 -1.00246 1.21608 0
M  V30 4918 C 460.652 -2.07233 0.979133 0
M  V30 4919 C 461.652 -1.6072 -0.0508219 0
M  V30 4920 O 462.842 -1.73196 0.186712 0
M  V30 4921 C 459.974 -3.37546 0.477016 0
M  V30 4922 H 461.167 -2.29687 1.92831 0
M  V30 4923 H 458.72 -1.17261 1.03342 0
M  V30 4924 H 459.455 -3.20773 -0.476966 0
M  V30 4925 H 459.24 -3.72638 1.21997 0
M  V30 4926 H 460.73 -4.16285 0.331181 0
M  V30 4927 N 461.167 -1.02423 -1.1978 0
M  V30 4928 C 462.392 -0.7373 -1.93852 0
M  V30 4929 C 462.817 0.696923 -1.74713 0
M  V30 4930 O 462.175 1.48056 -1.04638 0
M  V30 4931 C 462.223 -1.08783 -3.438 0
M  V30 4932 O 461.327 -0.20383 -4.11896 0
M  V30 4933 H 460.668 -0.27284 -0.605355 0
M  V30 4934 H 463.198 -1.36966 -1.51992 0
M  V30 4935 H 463.208 -1.04276 -3.9445 0
M  V30 4936 H 461.883 -2.13274 -3.57053 0
M  V30 4937 H 460.46 -0.307091 -3.71633 0
M  V30 4938 N 462.645 1.35699 -0.801477 0
M  V30 4939 C 463.608 2.28199 -0.213994 0
M  V30 4940 C 464.608 1.49359 0.595691 0
M  V30 4941 O 465.798 1.69186 0.414921 0
M  V30 4942 C 462.93 3.33587 0.702297 0
M  V30 4943 H 464.123 2.81666 -1.02976 0
M  V30 4944 H 461.676 1.45467 -0.571759 0
M  V30 4945 H 462.411 2.85297 1.54195 0
M  V30 4946 H 462.196 3.91906 0.123484 0
M  V30 4947 H 463.686 4.02638 1.10783 0
M  V30 4948 N 464.123 0.554532 1.47522 0
M  V30 4949 C 465.073 -0.215008 2.26984 0
M  V30 4950 C 466.057 -0.88774 1.34194 0
M  V30 4951 O 467.249 -0.786489 1.58567 0
M  V30 4952 C 464.378 -1.24604 3.19889 0
M  V30 4953 C 463.464 -0.576857 4.20159 0
M  V30 4954 N 463.855 0.351541 5.04577 0
M  V30 4955 C 462.153 -0.831104 4.38188 0
M  V30 4956 C 462.854 0.739995 5.76974 0
M  V30 4957 N 461.83 0.0954407 5.43516 0
M  V30 4958 H 465.632 0.498843 2.89636 0
M  V30 4959 H 463.146 0.374279 1.58028 0
M  V30 4960 H 465.143 -1.81128 3.75498 0
M  V30 4961 H 463.803 -1.96101 2.58794 0
M  V30 4962 H 464.814 0.725556 5.12792 0
M  V30 4963 H 461.491 -1.53479 3.88266 0
M  V30 4964 H 462.881 1.50271 6.5488 0
M  V30 4965 N 465.601 -1.54893 0.290851 0
M  V30 4966 C 466.533 -2.20564 -0.623236 0
M  V30 4967 C 467.546 -1.19519 -1.1054 0
M  V30 4968 O 468.735 -1.46165 -1.02459 0
M  V30 4969 C 465.835 -2.83033 -1.86401 0
M  V30 4970 C 465.008 -4.09916 -1.52604 0
M  V30 4971 C 464.067 -4.56284 -2.62091 0
M  V30 4972 O 463.093 -5.2171 -2.27612 0
M  V30 4973 N 464.295 -4.27746 -3.92446 0
M  V30 4974 H 467.06 -2.99638 -0.0610915 0
M  V30 4975 H 464.621 -1.61508 0.112615 0
M  V30 4976 H 466.613 -3.1099 -2.58973 0
M  V30 4977 H 465.183 -2.0786 -2.33481 0
M  V30 4978 H 464.403 -3.89078 -0.633424 0
M  V30 4979 H 465.691 -4.92554 -1.27547 0
M  V30 4980 H 465.089 -3.7531 -4.23272 0
M  V30 4981 H 463.646 -4.60437 -4.61347 0
M  V30 4982 N 467.08 -0.0183926 -1.57589 0
M  V30 4983 C 468.32 0.666846 -1.93216 0
M  V30 4984 C 468.684 1.69905 -0.894215 0
M  V30 4985 O 469.885 2.436 -1.13633 0
M  V30 4986 C 468.156 1.27684 -3.33814 0
M  V30 4987 S 469.715 1.98464 -3.91353 0
M  V30 4988 H 466.533 0.219826 -0.676164 0
M  V30 4989 H 469.135 -0.0794893 -1.95338 0
M  V30 4990 H 467.839 0.513006 -4.07181 0
M  V30 4991 H 467.37 2.06071 -3.3511 0
M  V30 4992 H 469.385 3.26189 -3.73918 0
M  V30 4993 N 468.558 1.5553 0.254621 0
M  V30 4994 C 469.508 1.86057 1.31783 0
M  V30 4995 C 470.492 0.720827 1.4385 0
M  V30 4996 O 471.684 0.982586 1.47222 0
M  V30 4997 C 468.813 2.15203 2.67475 0
M  V30 4998 C 467.899 3.35484 2.59444 0
M  V30 4999 N 468.29 4.54945 2.2104 0
M  V30 5000 C 466.588 3.38441 2.90472 0
M  V30 5001 C 467.289 5.3707 2.23453 0
M  V30 5002 N 466.265 4.75936 2.62652 0
M  V30 5003 H 470.067 2.75953 1.01129 0
M  V30 5004 H 467.581 1.55653 0.463255 0
M  V30 5005 H 469.578 2.35235 3.44195 0
M  V30 5006 H 468.238 1.26601 2.99002 0
M  V30 5007 H 469.249 4.8071 1.92712 0
M  V30 5008 H 465.926 2.60087 3.2659 0
M  V30 5009 H 467.316 6.42626 1.96166 0
M  V30 5010 N 470.036 -0.519951 1.48776 0
M  V30 5011 C 471.447 -1.10177 1.50725 0
M  V30 5012 C 471.798 -1.94153 0.282678 0
M  V30 5013 O 470.923 -2.07645 -0.609298 0
M  V30 5014 C 471.518 -2.00482 2.73116 0
M  V30 5015 C 470.077 -2.53862 2.77905 0
M  V30 5016 C 469.224 -1.31047 2.44381 0
M  V30 5017 H 472.175 -0.30473 1.55747 0
M  V30 5018 H 472.196 -2.8491 2.52203 0
M  V30 5019 H 471.708 -1.39335 3.62225 0
M  V30 5020 H 469.809 -3.18702 1.93029 0
M  V30 5021 H 469.922 -2.9231 3.79594 0
M  V30 5022 H 468.286 -1.62953 1.95751 0
M  V30 5023 H 469.069 -0.71637 3.35743 0
M  V30 5024 N 471.514 -1.37532 -0.769588 0
M  V30 5025 C 472.444 -1.36172 -1.89682 0
M  V30 5026 C 473.425 -0.23001 -1.68538 0
M  V30 5027 O 474.61 -0.43069 -1.89364 0
M  V30 5028 C 471.74 -1.1701 -3.26995 0
M  V30 5029 C 470.694 -2.27216 -3.62708 0
M  V30 5030 C 470.02 -1.93174 -4.98586 0
M  V30 5031 C 471.32 -3.6941 -3.69234 0
M  V30 5032 H 473.014 -2.30499 -1.91078 0
M  V30 5033 H 470.56 -1.10953 -0.917902 0
M  V30 5034 H 472.513 -1.14688 -4.05493 0
M  V30 5035 H 471.237 -0.191395 -3.26039 0
M  V30 5036 H 469.896 -2.28697 -2.86519 0
M  V30 5037 H 469.544 -0.938281 -4.94171 0
M  V30 5038 H 469.244 -2.66973 -5.23449 0
M  V30 5039 H 470.768 -1.92443 -5.79481 0
M  V30 5040 H 472.182 -3.70047 -4.37879 0
M  V30 5041 H 470.579 -4.4228 -4.05597 0
M  V30 5042 H 471.649 -4.0288 -2.69844 0
M  V30 5043 N 472.992 0.995999 -1.22138 0
M  V30 5044 C 474.403 1.54961 -1.04135 0
M  V30 5045 C 474.754 1.92159 0.396147 0
M  V30 5046 O 473.879 1.74435 1.28069 0
M  V30 5047 C 474.474 2.81581 -1.88408 0
M  V30 5048 C 473.033 3.33396 -1.74712 0
M  V30 5049 C 472.18 2.06509 -1.85066 0
M  V30 5050 H 475.131 0.817436 -1.36028 0
M  V30 5051 H 475.152 3.53822 -1.39966 0
M  V30 5052 H 474.664 2.54476 -2.93025 0
M  V30 5053 H 472.765 3.65416 -0.728159 0
M  V30 5054 H 472.878 4.04208 -2.57202 0
M  V30 5055 H 471.242 2.19925 -1.28472 0
M  V30 5056 H 472.025 1.81804 -2.91208 0
M  V30 5057 N 474.47 1.03057 1.19235 0
M  V30 5058 C 475.886 0.747947 1.40989 0
M  V30 5059 C 476.086 -0.666752 1.90149 0
M  V30 5060 O 475.142 -1.43249 2.07933 0
M  V30 5061 C 476.455 1.7855 2.41951 0
M  V30 5062 C 478.003 1.80524 2.55695 0
M  V30 5063 C 478.478 2.83243 3.59913 0
M  V30 5064 N 479.969 2.8207 3.67411 0
M  V30 5065 C 480.704 3.58204 4.47747 0
M  V30 5066 N 480.2 4.44057 5.31775 0
M  V30 5067 N 481.993 3.46738 4.42413 0
M  V30 5068 H 474.144 1.94367 0.856468 0
M  V30 5069 H 476.407 0.840412 0.438647 0
M  V30 5070 H 476.113 2.79973 2.12857 0
M  V30 5071 H 475.987 1.6092 3.41152 0
M  V30 5072 H 478.374 0.79778 2.84112 0
M  V30 5073 H 478.455 2.02229 1.56643 0
M  V30 5074 H 478.099 3.84161 3.32239 0
M  V30 5075 H 478.029 2.58795 4.5862 0
M  V30 5076 H 480.52 2.19803 3.074 0
M  V30 5077 H 480.833 4.98884 5.90199 0
M  V30 5078 H 479.178 4.48129 5.3123 0
M  V30 5079 H 482.369 2.79077 3.75811 0
M  V30 5080 H 482.542 4.06322 5.04783 0
M  V30 5081 N 475.948 -1.35272 0.808662 0
M  V30 5082 C 477.176 -2.02946 0.402537 0
M  V30 5083 C 477.591 -1.60937 -0.987147 0
M  V30 5084 O 476.948 -0.807917 -1.63643 0
M  V30 5085 C 476.999 -3.58317 0.47868 0
M  V30 5086 O 476.72 -3.98799 1.81358 0
M  V30 5087 C 478.221 -4.43251 0.0656281 0
M  V30 5088 H 475.441 -0.650831 0.163279 0
M  V30 5089 H 477.985 -1.72849 1.09286 0
M  V30 5090 H 476.14 -3.87055 -0.163415 0
M  V30 5091 H 476.554 -4.93451 1.77781 0
M  V30 5092 H 478.028 -5.51738 0.170017 0
M  V30 5093 H 478.505 -4.27913 -0.989278 0
M  V30 5094 H 479.111 -4.19813 0.68096 0
M  V30 5095 N 477.426 -0.562348 -1.47226 0
M  V30 5096 C 478.356 0.170627 -2.32876 0
M  V30 5097 C 479.337 0.903748 -1.44106 0
M  V30 5098 O 480.522 0.883206 -1.72954 0
M  V30 5099 C 477.652 1.19786 -3.25989 0
M  V30 5100 C 476.606 0.580875 -4.2404 0
M  V30 5101 C 475.932 1.71311 -5.06514 0
M  V30 5102 C 477.232 -0.468714 -5.20193 0
M  V30 5103 H 478.926 -0.544441 -2.94408 0
M  V30 5104 H 476.472 -0.263271 -1.41573 0
M  V30 5105 H 478.425 1.71884 -3.84752 0
M  V30 5106 H 477.149 1.94294 -2.62521 0
M  V30 5107 H 475.808 0.0811538 -3.6651 0
M  V30 5108 H 475.456 2.44736 -4.39447 0
M  V30 5109 H 475.156 1.30604 -5.72902 0
M  V30 5110 H 476.68 2.23725 -5.68137 0
M  V30 5111 H 478.094 -0.0336028 -5.7329 0
M  V30 5112 H 476.491 -0.794957 -5.94811 0
M  V30 5113 H 477.561 -1.36269 -4.65359 0
M  V30 5114 N 478.904 1.54736 -0.299062 0
M  V30 5115 C 480.129 2.04975 0.316254 0
M  V30 5116 C 480.554 1.17501 1.46885 0
M  V30 5117 O 479.912 0.178678 1.80417 0
M  V30 5118 C 479.96 3.52672 0.751997 0
M  V30 5119 O 479.064 3.68226 1.85697 0
M  V30 5120 H 478.405 0.661126 0.0617175 0
M  V30 5121 H 480.935 1.99805 -0.440341 0
M  V30 5122 H 480.945 3.94488 1.04133 0
M  V30 5123 H 479.62 4.158 -0.0911482 0
M  V30 5124 H 478.197 3.38316 1.56834 0
M  V30 5125 N 480.382 0.0267497 1.57577 0
M  V30 5126 C 481.628 -0.653371 1.91987 0
M  V30 5127 C 481.961 -1.71915 0.903263 0
M  V30 5128 O 481.236 -1.94358 -0.0743387 0
M  V30 5129 C 481.519 -1.272 3.36886 0
M  V30 5130 C 481.372 -0.215938 4.49281 0
M  V30 5131 C 482.691 -2.19069 3.81703 0
M  V30 5132 H 479.81 -0.236047 0.698177 0
M  V30 5133 H 482.452 0.0835236 1.89816 0
M  V30 5134 H 480.602 -1.90005 3.38866 0
M  V30 5135 H 482.274 0.41449 4.59434 0
M  V30 5136 H 480.517 0.458855 4.31366 0
M  V30 5137 H 481.188 -0.688347 5.47691 0
M  V30 5138 H 483.664 -1.66253 3.81444 0
M  V30 5139 H 482.54 -2.59307 4.83788 0
M  V30 5140 H 482.801 -3.08087 3.17072 0
M  V30 5141 N 481.861 -1.55662 -0.24637 0
M  V30 5142 C 482.791 -1.93377 -1.30873 0
M  V30 5143 C 483.772 -0.798773 -1.50179 0
M  V30 5144 O 484.957 -1.0591 -1.62778 0
M  V30 5145 C 482.087 -2.22893 -2.66338 0
M  V30 5146 C 481.041 -3.38649 -2.61727 0
M  V30 5147 C 480.367 -3.53708 -4.00992 0
M  V30 5148 C 481.667 -4.74323 -2.18666 0
M  V30 5149 H 483.361 -2.82363 -0.995552 0
M  V30 5150 H 480.907 -1.35854 -0.477464 0
M  V30 5151 H 482.86 -2.47866 -3.40794 0
M  V30 5152 H 481.584 -1.30733 -2.99293 0
M  V30 5153 H 480.243 -3.13685 -1.89729 0
M  V30 5154 H 479.891 -2.58967 -4.31214 0
M  V30 5155 H 479.591 -4.31551 -3.98795 0
M  V30 5156 H 481.115 -3.81003 -4.77147 0
M  V30 5157 H 482.529 -4.98665 -2.82854 0
M  V30 5158 H 480.926 -5.55273 -2.27579 0
M  V30 5159 H 481.996 -4.71349 -1.13834 0
M  V30 5160 N 483.339 0.512053 -1.4905 0
M  V30 5161 C 484.286 1.6148 -1.64902 0
M  V30 5162 C 485.256 1.58687 -0.490673 0
M  V30 5163 O 486.441 1.76842 -0.71636 0
M  V30 5164 C 483.581 2.99676 -1.71139 0
M  V30 5165 C 482.694 3.12568 -2.98203 0
M  V30 5166 C 481.829 4.4143 -2.95487 0
M  V30 5167 C 480.868 4.47916 -4.17179 0
M  V30 5168 N 480.005 5.68191 -4.12437 0
M  V30 5169 H 484.845 1.47271 -2.59066 0
M  V30 5170 H 482.382 0.716713 -1.28459 0
M  V30 5171 H 484.34 3.79761 -1.72736 0
M  V30 5172 H 482.97 3.12614 -0.804508 0
M  V30 5173 H 482.022 2.25618 -3.06269 0
M  V30 5174 H 483.334 3.1322 -3.88194 0
M  V30 5175 H 482.488 5.29825 -2.95585 0
M  V30 5176 H 481.227 4.43326 -2.03256 0
M  V30 5177 H 480.232 3.57925 -4.17337 0
M  V30 5178 H 481.457 4.47744 -5.1059 0
M  V30 5179 H 479.403 5.7095 -3.23036 0
M  V30 5180 H 479.32 5.70413 -4.96151 0
M  V30 5181 H 480.588 6.58823 -4.16621 0
M  V30 5182 N 484.817 1.37938 0.762283 0
M  V30 5183 C 486.042 1.37059 1.55659 0
M  V30 5184 C 486.467 -0.0396123 1.88058 0
M  V30 5185 O 485.825 -1.01929 1.49934 0
M  V30 5186 C 485.873 2.22494 2.83776 0
M  V30 5187 O 484.977 1.63607 3.78559 0
M  V30 5188 H 484.318 0.467892 0.47114 0
M  V30 5189 H 486.848 1.81587 0.942725 0
M  V30 5190 H 486.858 2.36045 3.32786 0
M  V30 5191 H 485.533 3.24993 2.59524 0
M  V30 5192 H 484.11 1.5915 3.37233 0
M  V30 5193 N 486.295 -0.989507 1.22664 0
M  V30 5194 C 487.523 -1.76496 1.07967 0
M  V30 5195 C 487.938 -1.85148 -0.369543 0
M  V30 5196 O 487.295 -1.32408 -1.25596 0
M  V30 5197 C 487.346 -3.19642 1.68853 0
M  V30 5198 O 487.067 -3.11453 3.08105 0
M  V30 5199 C 488.568 -4.13621 1.59475 0
M  V30 5200 H 485.788 -0.55418 0.378319 0
M  V30 5201 H 488.332 -1.24378 1.62328 0
M  V30 5202 H 486.487 -3.68816 1.18547 0
M  V30 5203 H 486.901 -4.01499 3.37489 0
M  V30 5204 H 488.375 -5.11801 2.06795 0
M  V30 5205 H 488.852 -4.35718 0.55191 0
M  V30 5206 H 489.458 -3.70346 2.09103 0
M  V30 5207 N 487.773 -1.03688 -1.18687 0
M  V30 5208 C 489.184 -0.766488 -1.70241 0
M  V30 5209 C 489.535 0.713052 -1.82784 0
M  V30 5210 O 488.66 1.55529 -1.50465 0
M  V30 5211 C 489.255 -1.38475 -3.09209 0
M  V30 5212 C 487.814 -1.16276 -3.5799 0
M  V30 5213 C 486.961 -1.4778 -2.34641 0
M  V30 5214 H 489.912 -1.20378 -1.03415 0
M  V30 5215 H 489.933 -0.785939 -3.72295 0
M  V30 5216 H 489.445 -2.46157 -3.00048 0
M  V30 5217 H 487.546 -0.104508 -3.72453 0
M  V30 5218 H 487.659 -1.8571 -4.41643 0
M  V30 5219 H 486.023 -0.897366 -2.38368 0
M  V30 5220 H 486.806 -2.56562 -2.28102 0
M  V30 5221 N 489.251 1.34841 -0.815825 0
M  V30 5222 C 490.183 2.28409 -0.190265 0
M  V30 5223 C 491.196 1.50705 0.615771 0
M  V30 5224 O 492.385 1.72822 0.446616 0
M  V30 5225 C 489.485 3.30441 0.752446 0
M  V30 5226 C 488.658 4.37399 -0.00922152 0
M  V30 5227 C 487.717 5.19234 0.853351 0
M  V30 5228 O 486.743 5.68404 0.300919 0
M  V30 5229 N 487.945 5.38248 2.17416 0
M  V30 5230 H 490.71 2.82732 -0.994114 0
M  V30 5231 H 488.271 1.47289 -0.672129 0
M  V30 5232 H 490.263 3.82084 1.33394 0
M  V30 5233 H 488.833 2.76565 1.45707 0
M  V30 5234 H 488.053 3.86567 -0.771979 0
M  V30 5235 H 489.341 5.05992 -0.533807 0
M  V30 5236 H 488.739 4.99961 2.6468 0
M  V30 5237 H 487.296 5.93035 2.70467 0
M  V30 5238 N 490.729 0.570148 1.46925 0
M  V30 5239 C 491.975 0.0510284 2.02736 0
M  V30 5240 C 492.308 -1.3006 1.44215 0
M  V30 5241 O 491.583 -1.84932 0.602521 0
M  V30 5242 C 491.866 -0.028215 3.60089 0
M  V30 5243 C 491.719 1.35142 4.29018 0
M  V30 5244 C 493.038 -0.735181 4.33916 0
M  V30 5245 H 490.157 0.0200178 0.736728 0
M  V30 5246 H 492.799 0.73493 1.75211 0
M  V30 5247 H 490.949 -0.610648 3.83671 0
M  V30 5248 H 492.621 1.97806 4.16738 0
M  V30 5249 H 490.864 1.9226 3.88868 0
M  V30 5250 H 491.535 1.24857 5.37694 0
M  V30 5251 H 494.011 -0.240519 4.15404 0
M  V30 5252 H 492.887 -0.759622 5.43618 0
M  V30 5253 H 493.148 -1.79397 4.04066 0
M  V30 5254 N 492.207 -1.54576 0.307264 0
M  V30 5255 C 493.623 -1.59534 -0.0459251 0
M  V30 5256 C 493.823 -1.32414 -1.51884 0
M  V30 5257 O 492.879 -1.1006 -2.27251 0
M  V30 5258 C 494.192 -2.98566 0.357649 0
M  V30 5259 C 495.74 -3.11491 0.306937 0
M  V30 5260 C 496.215 -4.52842 0.685427 0
M  V30 5261 N 497.706 -4.58782 0.638203 0
M  V30 5262 C 498.441 -5.66238 0.903458 0
M  V30 5263 N 497.937 -6.81703 1.23501 0
M  V30 5264 N 499.73 -5.55937 0.830102 0
M  V30 5265 H 491.881 -1.70464 1.26712 0
M  V30 5266 H 494.144 -0.79647 0.514139 0
M  V30 5267 H 493.85 -3.23356 1.38325 0
M  V30 5268 H 493.724 -3.76117 -0.285565 0
M  V30 5269 H 496.111 -2.86446 -0.709424 0
M  V30 5270 H 496.192 -2.36081 0.984861 0
M  V30 5271 H 495.836 -4.78618 1.69963 0
M  V30 5272 H 495.766 -5.26598 -0.0146346 0
M  V30 5273 H 498.257 -3.75849 0.393138 0
M  V30 5274 H 498.57 -7.59582 1.42322 0
M  V30 5275 H 496.915 -6.8324 1.27311 0
M  V30 5276 H 500.106 -4.64608 0.570693 0
M  V30 5277 H 500.279 -6.39597 1.04019 0
M  V30 5278 N 493.685 -0.035106 -1.57561 0
M  V30 5279 C 494.933 0.64096 -1.91667 0
M  V30 5280 C 495.254 1.72323 -0.912681 0
M  V30 5281 O 494.524 1.95849 0.0449089 0
M  V30 5282 H 493.104 0.239743 -0.707483 0
M  V30 5283 H 495.766 -0.084321 -1.94718 0
M  V30 5284 H 494.862 1.08987 -2.92452 0
M  V30 5285 N 495.163 1.55791 0.238111 0
M  V30 5286 C 496.096 1.86036 1.32158 0
M  V30 5287 C 497.074 0.716216 1.45976 0
M  V30 5288 O 498.258 0.962882 1.62052 0
M  V30 5289 C 495.385 2.05281 2.69402 0
M  V30 5290 C 494.431 3.27939 2.72687 0
M  V30 5291 S 495.264 4.84342 2.28413 0
M  V30 5292 C 496.42 5.06604 3.67565 0
M  V30 5293 H 496.653 2.77644 1.06306 0
M  V30 5294 H 494.186 1.48012 0.439537 0
M  V30 5295 H 496.144 2.17053 3.48423 0
M  V30 5296 H 494.805 1.14499 2.92487 0
M  V30 5297 H 493.998 3.38398 3.73501 0
M  V30 5298 H 493.6 3.14938 2.01717 0
M  V30 5299 H 495.892 4.94486 4.6313 0
M  V30 5300 H 496.835 6.08554 3.62033 0
M  V30 5301 H 497.243 4.34409 3.60485 0
M  V30 5302 N 496.642 -0.504142 1.49319 0
M  V30 5303 C 497.592 -1.60284 1.62151 0
M  V30 5304 C 498.576 -1.53657 0.477315 0
M  V30 5305 O 499.768 -1.6124 0.730108 0
M  V30 5306 C 496.897 -2.98909 1.68844 0
M  V30 5307 C 495.983 -3.10544 2.8883 0
M  V30 5308 N 496.374 -2.92078 4.12946 0
M  V30 5309 C 494.672 -3.4164 2.86702 0
M  V30 5310 C 495.373 -3.07812 4.93585 0
M  V30 5311 N 494.349 -3.36549 4.26891 0
M  V30 5312 H 498.151 -1.44656 2.55835 0
M  V30 5313 H 495.665 -0.710198 1.46048 0
M  V30 5314 H 497.662 -3.77865 1.76134 0
M  V30 5315 H 496.322 -3.15609 0.762943 0
M  V30 5316 H 497.333 -2.68316 4.42975 0
M  V30 5317 H 494.01 -3.64537 2.03517 0
M  V30 5318 H 495.4 -2.98054 6.02174 0
M  V30 5319 N 498.12 -1.38341 -0.754957 0
M  V30 5320 C 499.348 -1.37704 -1.54419 0
M  V30 5321 C 499.763 0.0335243 -1.8877 0
M  V30 5322 O 499.12 0.999773 -1.52679 0
M  V30 5323 C 499.171 -2.23136 -2.84416 0
M  V30 5324 O 498.892 -3.58697 -2.51531 0
M  V30 5325 C 500.393 -2.30664 -3.78562 0
M  V30 5326 H 497.613 -0.471061 -0.477852 0
M  V30 5327 H 500.157 -1.81902 -0.934446 0
M  V30 5328 H 498.312 -1.82403 -3.41772 0
M  V30 5329 H 498.726 -4.03665 -3.34896 0
M  V30 5330 H 500.2 -2.9473 -4.66732 0
M  V30 5331 H 500.677 -1.3199 -4.18898 0
M  V30 5332 H 501.283 -2.71781 -3.27131 0
M  V30 5333 N 499.598 0.982988 -1.23187 0
M  V30 5334 C 500.847 1.71817 -1.05649 0
M  V30 5335 C 501.16 1.91315 0.407176 0
M  V30 5336 O 502.366 2.62256 0.702436 0
M  V30 5337 C 500.822 3.09188 -1.84203 0
M  V30 5338 C 500.43 2.97586 -3.34882 0
M  V30 5339 C 502.174 3.86684 -1.75146 0
M  V30 5340 C 500.081 4.30173 -4.05839 0
M  V30 5341 H 499.011 0.644258 -0.391724 0
M  V30 5342 H 501.662 1.09659 -1.4713 0
M  V30 5343 H 500.044 3.72087 -1.35527 0
M  V30 5344 H 501.218 2.43793 -3.91026 0
M  V30 5345 H 499.533 2.33567 -3.44725 0
M  V30 5346 H 502.13 4.84836 -2.25473 0
M  V30 5347 H 502.473 4.10136 -0.713737 0
M  V30 5348 H 503.006 3.30482 -2.21419 0
M  V30 5349 H 499.745 4.11918 -5.09906 0
M  V30 5350 H 499.265 4.83841 -3.54482 0
M  V30 5351 H 500.944 4.98873 -4.11989 0
M  V30 5352 N 501.076 1.04316 1.18135 0
M  V30 5353 C 502.325 0.74319 1.87509 0
M  V30 5354 C 502.638 -0.732136 1.81381 0
M  V30 5355 O 503.844 -1.14572 2.46141 0
M  V30 5356 C 502.3 1.27913 3.36402 0
M  V30 5357 C 501.908 2.78326 3.51053 0
M  V30 5358 C 503.652 1.0558 4.11161 0
M  V30 5359 C 501.559 3.25266 4.93919 0
M  V30 5360 H 500.489 0.274313 0.702331 0
M  V30 5361 H 503.14 1.25931 1.33467 0
M  V30 5362 H 501.522 0.690853 3.89927 0
M  V30 5363 H 502.696 3.42933 3.07788 0
M  V30 5364 H 501.011 2.991 2.89704 0
M  V30 5365 H 503.608 1.38161 5.16542 0
M  V30 5366 H 503.951 -0.00684729 4.16299 0
M  V30 5367 H 504.484 1.60882 3.63816 0
M  V30 5368 H 501.223 4.30922 4.9395 0
M  V30 5369 H 500.743 2.65396 5.3789 0
M  V30 5370 H 502.422 3.19433 5.62647 0
M  V30 5371 N 502.554 -1.34406 0.822964 0
M  V30 5372 C 503.97 -1.51275 0.508727 0
M  V30 5373 C 504.17 -1.76776 -0.967083 0
M  V30 5374 O 503.226 -1.81871 -1.75155 0
M  V30 5375 C 504.539 -2.67765 1.36829 0
M  V30 5376 C 506.087 -2.81647 1.36542 0
M  V30 5377 C 506.562 -4.01181 2.20947 0
M  V30 5378 N 508.053 -4.08388 2.18571 0
M  V30 5379 C 508.788 -5.00036 2.80627 0
M  V30 5380 N 508.284 -5.96906 3.51674 0
M  V30 5381 N 510.077 -4.92908 2.70181 0
M  V30 5382 H 502.228 -1.16113 1.77852 0
M  V30 5383 H 504.491 -0.56947 0.757897 0
M  V30 5384 H 504.197 -2.55551 2.41633 0
M  V30 5385 H 504.071 -3.62779 1.03303 0
M  V30 5386 H 506.458 -2.93303 0.325163 0
M  V30 5387 H 506.539 -1.87443 1.74066 0
M  V30 5388 H 506.183 -3.90286 3.25022 0
M  V30 5389 H 506.113 -4.94599 1.80774 0
M  V30 5390 H 508.604 -3.39051 1.66891 0
M  V30 5391 H 508.917 -6.63468 3.96271 0
M  V30 5392 H 507.262 -5.9703 3.5578 0
M  V30 5393 H 510.453 -4.1619 2.14251 0
M  V30 5394 H 510.626 -5.64137 3.18831 0
M  V30 5395 N 504.032 -0.577932 -1.46621 0
M  V30 5396 C 505.309 0.00495287 -1.95599 0
M  V30 5397 C 505.689 1.46428 -1.5206 0
M  V30 5398 O 505.037 2.1517 -0.769046 0
M  V30 5399 C 505.247 -0.162114 -3.48623 0
M  V30 5400 C 506.595 -0.0274623 -4.24591 0
M  V30 5401 O 507.619 -0.0907067 -3.56084 0
M  V30 5402 O 506.478 0.1122 -5.46385 0
M  V30 5403 H 503.572 0.0525057 -0.825332 0
M  V30 5404 H 506.118 -0.645914 -1.56927 0
M  V30 5405 H 504.89 -1.17679 -3.73185 0
M  V30 5406 H 504.513 0.525407 -3.94113 0
M  V30 5407 N 505.51 1.54411 -0.315457 0
M  V30 5408 C 506.457 2.24048 0.554166 0
M  V30 5409 C 507.427 1.2283 1.11812 0
M  V30 5410 O 508.612 1.51491 1.15997 0
M  V30 5411 C 505.752 2.99574 1.71316 0
M  V30 5412 C 504.865 4.15594 1.17922 0
M  V30 5413 C 504 4.78669 2.30324 0
M  V30 5414 C 503.039 5.86807 1.74137 0
M  V30 5415 N 502.176 6.43777 2.8017 0
M  V30 5416 H 507.016 2.97964 -0.0462602 0
M  V30 5417 H 504.553 1.47059 -0.0346009 0
M  V30 5418 H 506.511 3.41604 2.39505 0
M  V30 5419 H 505.141 2.28008 2.285 0
M  V30 5420 H 504.193 3.78404 0.389136 0
M  V30 5421 H 505.505 4.93459 0.728012 0
M  V30 5422 H 504.659 5.23626 3.06433 0
M  V30 5423 H 503.398 4.00168 2.78778 0
M  V30 5424 H 502.403 5.41261 0.965236 0
M  V30 5425 H 503.628 6.67201 1.2657 0
M  V30 5426 H 501.574 5.68153 3.2793 0
M  V30 5427 H 501.491 7.17031 2.39588 0
M  V30 5428 H 502.759 6.9339 3.56132 0
M  V30 5429 N 506.988 0.0434614 1.5754 0
M  V30 5430 C 507.898 -0.94893 2.14552 0
M  V30 5431 C 508.914 -1.34707 1.10136 0
M  V30 5432 O 510.09 -1.42557 1.42266 0
M  V30 5433 C 507.155 -2.208 2.67298 0
M  V30 5434 C 506.216 -1.86893 3.86484 0
M  V30 5435 C 505.449 -3.06797 4.36705 0
M  V30 5436 O 505.672 -4.19921 3.86034 0
M  V30 5437 O 504.606 -2.8826 5.28384 0
M  V30 5438 H 508.432 -0.494099 2.99654 0
M  V30 5439 H 506.017 -0.177989 1.48336 0
M  V30 5440 H 507.899 -2.94686 3.01228 0
M  V30 5441 H 506.574 -2.65436 1.85272 0
M  V30 5442 H 505.481 -1.10347 3.57455 0
M  V30 5443 H 506.814 -1.47062 4.69716 0
M  V30 5444 N 508.466 -1.55915 -0.229846 0
M  V30 5445 C 509.694 -1.82617 -0.972562 0
M  V30 5446 C 510.109 -0.621488 -1.78278 0
M  V30 5447 O 509.466 0.409956 -1.77836 0
M  V30 5448 C 509.517 -3.0774 -1.89679 0
M  V30 5449 O 509.238 -4.23559 -1.11934 0
M  V30 5450 C 510.739 -3.47368 -2.75409 0
M  V30 5451 H 507.959 -0.60727 -0.285419 0
M  V30 5452 H 510.503 -2.02996 -0.247579 0
M  V30 5453 H 508.658 -2.89361 -2.57583 0
M  V30 5454 H 509.072 -4.94586 -1.74599 0
M  V30 5455 H 510.546 -4.37977 -3.35977 0
M  V30 5456 H 511.023 -2.68737 -3.47386 0
M  V30 5457 H 511.629 -3.68158 -2.12931 0
M  V30 5458 N 509.944 0.496216 -1.49584 0
M  V30 5459 C 511.169 1.27865 -1.63295 0
M  V30 5460 C 511.594 1.85592 -0.306156 0
M  V30 5461 O 510.952 1.66092 0.726851 0
M  V30 5462 C 511 2.38128 -2.7079 0
M  V30 5463 O 510.104 3.42108 -2.30296 0
M  V30 5464 H 509.445 0.377279 -0.546403 0
M  V30 5465 H 511.975 0.593497 -1.95803 0
M  V30 5466 H 511.985 2.8382 -2.93104 0
M  V30 5467 H 510.66 1.95479 -3.67098 0
M  V30 5468 H 509.237 3.02301 -2.18331 0
M  V30 5469 N 511.423 1.38739 0.74761 0
M  V30 5470 C 512.839 1.20067 1.05148 0
M  V30 5471 C 513.039 0.0534835 2.01429 0
M  V30 5472 O 512.095 -0.59886 2.45296 0
M  V30 5473 C 513.408 2.52957 1.62584 0
M  V30 5474 C 514.956 2.59692 1.74726 0
M  V30 5475 C 515.431 3.92772 2.35573 0
M  V30 5476 N 516.922 3.94343 2.42997 0
M  V30 5477 C 517.657 4.9408 2.90985 0
M  V30 5478 N 517.153 6.04214 3.38965 0
M  V30 5479 N 518.946 4.81466 2.9008 0
M  V30 5480 H 511.097 2.12121 0.108808 0
M  V30 5481 H 513.36 0.941491 0.110899 0
M  V30 5482 H 513.066 3.37389 0.993051 0
M  V30 5483 H 512.94 2.71779 2.61565 0
M  V30 5484 H 515.327 1.75651 2.3713 0
M  V30 5485 H 515.408 2.44731 0.744326 0
M  V30 5486 H 515.052 4.77238 1.738 0
M  V30 5487 H 514.982 4.05046 3.36519 0
M  V30 5488 H 517.473 3.14799 2.0907 0
M  V30 5489 H 517.786 6.76241 3.74056 0
M  V30 5490 H 516.131 6.07825 3.37007 0
M  V30 5491 H 519.322 3.94535 2.51912 0
M  V30 5492 H 519.495 5.59344 3.27166 0
M  V30 5493 N 512.901 -0.976442 1.23707 0
M  V30 5494 C 514.178 -1.69296 0.979699 0
M  V30 5495 C 514.558 -2.0508 -0.500555 0
M  V30 5496 O 513.906 -1.74708 -1.47273 0
M  V30 5497 C 514.116 -2.93143 1.89389 0
M  V30 5498 C 515.464 -3.65572 2.15968 0
M  V30 5499 O 516.488 -3.03184 1.86971 0
M  V30 5500 O 515.347 -4.77859 2.65167 0
M  V30 5501 H 512.441 -0.739708 0.369812 0
M  V30 5502 H 514.987 -1.03131 1.34767 0
M  V30 5503 H 513.759 -2.63327 2.89439 0
M  V30 5504 H 513.382 -3.67044 1.52854 0
M  V30 5505 N 514.379 -1.04941 -1.1758 0
M  V30 5506 C 515.289 -0.658826 -2.25159 0
M  V30 5507 C 516.305 0.318941 -1.71052 0
M  V30 5508 O 517.481 0.171669 -2.00667 0
M  V30 5509 C 514.546 -0.0369522 -3.4668 0
M  V30 5510 C 513.607 -1.06484 -4.15884 0
M  V30 5511 C 512.84 -0.472551 -5.31604 0
M  V30 5512 O 513.063 0.718736 -5.65854 0
M  V30 5513 O 511.997 -1.20557 -5.89703 0
M  V30 5514 H 515.823 -1.55533 -2.60851 0
M  V30 5515 H 513.408 -0.820819 -1.24832 0
M  V30 5516 H 515.29 0.308784 -4.20267 0
M  V30 5517 H 513.965 0.833238 -3.12792 0
M  V30 5518 H 512.872 -1.46253 -3.44327 0
M  V30 5519 H 514.205 -1.9061 -4.53794 0
M  V30 5520 N 515.857 1.33968 -0.830081 0
M  V30 5521 C 517.104 1.98063 -0.421566 0
M  V30 5522 C 517.432 1.65787 1.0171 0
M  V30 5523 O 516.687 0.925348 1.72441 0
M  V30 5524 C 516.986 3.52679 -0.57898 0
M  V30 5525 C 516.652 4.04884 -1.98443 0
M  V30 5526 C 515.314 4.18852 -2.36888 0
M  V30 5527 C 517.666 4.32879 -2.90285 0
M  V30 5528 C 514.994 4.58145 -3.66497 0
M  V30 5529 C 517.346 4.7362 -4.19364 0
M  V30 5530 C 516.01 4.85794 -4.57778 0
M  V30 5531 H 515.28 0.724765 -0.154262 0
M  V30 5532 H 517.927 1.59792 -1.05541 0
M  V30 5533 H 516.232 3.91556 0.138219 0
M  V30 5534 H 517.929 4.00261 -0.243317 0
M  V30 5535 H 514.519 3.9448 -1.67581 0
M  V30 5536 H 518.703 4.21619 -2.61823 0
M  V30 5537 H 513.959 4.65762 -3.96075 0
M  V30 5538 H 518.133 4.9424 -4.90612 0
M  V30 5539 H 515.76 5.15998 -5.58256 0
M  V30 5540 N 517.335 0.585699 1.46312 0
M  V30 5541 C 518.584 0.0701192 2.01578 0
M  V30 5542 C 518.897 -1.29889 1.46247 0
M  V30 5543 O 520.103 -1.90598 1.93351 0
M  V30 5544 C 518.559 0.0747499 3.59822 0
M  V30 5545 C 518.167 1.44226 4.24149 0
M  V30 5546 C 519.911 -0.38673 4.22735 0
M  V30 5547 C 517.818 1.40446 5.74481 0
M  V30 5548 H 516.748 0.0224441 0.753666 0
M  V30 5549 H 519.399 0.737789 1.68015 0
M  V30 5550 H 517.781 -0.659144 3.90476 0
M  V30 5551 H 518.955 2.19612 4.05101 0
M  V30 5552 H 517.27 1.84401 3.73343 0
M  V30 5553 H 519.867 -0.433853 5.32937 0
M  V30 5554 H 520.21 -1.40489 3.91878 0
M  V30 5555 H 520.743 0.293195 3.96718 0
M  V30 5556 H 517.482 2.39952 6.10003 0
M  V30 5557 H 517.002 0.692845 5.95785 0
M  V30 5558 H 518.681 1.11865 6.37256 0
M  V30 5559 N 518.813 -1.54241 0.323641 0
M  V30 5560 C 520.06 -2.0057 -0.27891 0
M  V30 5561 C 520.388 -1.21181 -1.52136 0
M  V30 5562 O 519.643 -0.282043 -1.93657 0
M  V30 5563 C 519.942 -3.5129 -0.658031 0
M  V30 5564 C 519.608 -4.48281 0.485252 0
M  V30 5565 C 518.27 -4.74519 0.799055 0
M  V30 5566 C 520.622 -5.05909 1.25322 0
M  V30 5567 C 517.95 -5.55643 1.88354 0
M  V30 5568 C 520.302 -5.88215 2.32779 0
M  V30 5569 C 518.966 -6.12755 2.64741 0
M  V30 5570 H 518.236 -0.733938 -0.10206 0
M  V30 5571 H 520.883 -1.862 0.447435 0
M  V30 5572 H 519.188 -3.63388 -1.4648 0
M  V30 5573 H 520.885 -3.84578 -1.1358 0
M  V30 5574 H 517.475 -4.27979 0.230593 0
M  V30 5575 H 521.659 -4.8562 1.02404 0
M  V30 5576 H 516.915 -5.72888 2.13564 0
M  V30 5577 H 521.089 -6.31888 2.92729 0
M  V30 5578 H 518.716 -6.75404 3.48904 0
M  V30 5579 N 520.291 -0.0518155 -1.57515 0
M  V30 5580 C 521.521 0.63048 -1.96745 0
M  V30 5581 C 521.929 1.64875 -0.928054 0
M  V30 5582 O 521.272 1.83449 0.0960678 0
M  V30 5583 C 521.334 1.37381 -3.32215 0
M  V30 5584 C 520.998 0.511298 -4.54131 0
M  V30 5585 C 521.995 -0.222884 -5.19422 0
M  V30 5586 C 519.68 0.442035 -5.00351 0
M  V30 5587 C 521.674 -1.01476 -6.2927 0
M  V30 5588 C 519.361 -0.35353 -6.10077 0
M  V30 5589 C 520.359 -1.08062 -6.74397 0
M  V30 5590 O 520.047 -1.8631 -7.82013 0
M  V30 5591 H 519.779 0.177126 -0.652382 0
M  V30 5592 H 522.333 -0.114726 -2.05079 0
M  V30 5593 H 520.563 2.16466 -3.20436 0
M  V30 5594 H 522.252 1.9464 -3.56188 0
M  V30 5595 H 523.018 -0.178846 -4.8467 0
M  V30 5596 H 518.897 0.997562 -4.50077 0
M  V30 5597 H 522.441 -1.58279 -6.79407 0
M  V30 5598 H 518.338 -0.399205 -6.44264 0
M  V30 5599 H 519.106 -1.78528 -7.98793 0
M  V30 5600 N 521.769 1.56035 0.221574 0
M  V30 5601 C 522.994 1.83476 0.967026 0
M  V30 5602 C 523.419 0.632139 1.7716 0
M  V30 5603 O 522.777 -0.419082 1.7639 0
M  V30 5604 C 522.825 3.08907 1.86034 0
M  V30 5605 O 521.929 2.876 2.95567 0
M  V30 5606 H 521.27 0.604913 0.273817 0
M  V30 5607 H 523.8 2.03247 0.234893 0
M  V30 5608 H 523.81 3.3901 2.27016 0
M  V30 5609 H 522.485 3.96068 1.26898 0
M  V30 5610 H 521.062 2.6873 2.58532 0
M  V30 5611 N 523.247 -0.488276 1.49845 0
M  V30 5612 C 524.194 -1.58836 1.67451 0
M  V30 5613 C 525.164 -1.57886 0.515857 0
M  V30 5614 O 526.349 -1.75679 0.744403 0
M  V30 5615 C 523.489 -2.96915 1.75885 0
M  V30 5616 C 522.602 -3.07784 3.03138 0
M  V30 5617 C 521.737 -4.36673 3.02473 0
M  V30 5618 C 520.776 -4.41222 4.24252 0
M  V30 5619 N 519.913 -5.61557 4.21424 0
M  V30 5620 H 524.753 -1.43131 2.61376 0
M  V30 5621 H 522.29 -0.696186 1.29583 0
M  V30 5622 H 524.248 -3.76965 1.78755 0
M  V30 5623 H 522.878 -3.11295 0.85414 0
M  V30 5624 H 521.93 -2.20717 3.09819 0
M  V30 5625 H 523.242 -3.07005 3.93128 0
M  V30 5626 H 522.396 -5.25055 3.03977 0
M  V30 5627 H 521.135 -4.40037 2.10283 0
M  V30 5628 H 520.14 -3.5124 4.22978 0
M  V30 5629 H 521.365 -4.39564 5.17649 0
M  V30 5630 H 519.311 -5.65738 3.32078 0
M  V30 5631 H 519.228 -5.62447 5.05163 0
M  V30 5632 H 520.496 -6.52111 4.2705 0
M  V30 5633 N 524.725 -1.39134 -0.740242 0
M  V30 5634 C 526.141 -1.20623 -1.0451 0
M  V30 5635 C 526.341 -0.0641651 -2.01398 0
M  V30 5636 O 525.397 0.585843 -2.4561 0
M  V30 5637 C 526.71 -2.53815 -1.6124 0
M  V30 5638 C 528.258 -2.60615 -1.73346 0
M  V30 5639 C 528.733 -3.94015 -2.33486 0
M  V30 5640 N 530.224 -3.95627 -2.40902 0
M  V30 5641 C 530.959 -4.95616 -2.88361 0
M  V30 5642 N 530.455 -6.06003 -3.35756 0
M  V30 5643 N 532.248 -4.82998 -2.87523 0
M  V30 5644 H 524.399 -2.12176 -0.0975576 0
M  V30 5645 H 526.662 -0.942066 -0.105904 0
M  V30 5646 H 526.368 -3.37911 -0.975144 0
M  V30 5647 H 526.242 -2.73162 -2.6012 0
M  V30 5648 H 528.629 -1.76906 -2.36195 0
M  V30 5649 H 528.71 -2.45123 -0.731336 0
M  V30 5650 H 528.354 -4.78153 -1.71267 0
M  V30 5651 H 528.284 -4.06825 -3.34366 0
M  V30 5652 H 530.775 -3.15903 -2.07398 0
M  V30 5653 H 531.088 -6.78215 -3.70464 0
M  V30 5654 H 529.433 -6.09604 -3.33778 0
M  V30 5655 H 532.624 -3.95866 -2.49816 0
M  V30 5656 H 532.797 -5.61072 -3.24196 0
M  V30 5657 N 526.204 0.969867 -1.24223 0
M  V30 5658 C 527.134 2.08191 -1.05729 0
M  V30 5659 C 528.115 1.70075 0.0290765 0
M  V30 5660 O 529.3 1.93712 -0.137583 0
M  V30 5661 C 526.43 3.40991 -0.658995 0
M  V30 5662 C 525.384 3.93054 -1.69389 0
M  V30 5663 C 524.71 5.22171 -1.15072 0
M  V30 5664 C 526.01 4.21137 -3.08935 0
M  V30 5665 H 527.704 2.23921 -1.98746 0
M  V30 5666 H 525.25 1.07602 -0.956967 0
M  V30 5667 H 527.203 4.18221 -0.51662 0
M  V30 5668 H 525.927 3.25155 0.30686 0
M  V30 5669 H 524.586 3.17977 -1.82444 0
M  V30 5670 H 524.234 5.02694 -0.175539 0
M  V30 5671 H 523.934 5.57973 -1.84229 0
M  V30 5672 H 525.458 6.02013 -1.02042 0
M  V30 5673 H 526.872 4.8908 -2.99121 0
M  V30 5674 H 525.269 4.68163 -3.75425 0
M  V30 5675 H 526.339 3.27996 -3.57137 0
M  V30 5676 N 527.682 1.05563 1.17022 0
M  V30 5677 C 528.615 0.604197 2.20056 0
M  V30 5678 C 529.593 -0.369169 1.58354 0
M  V30 5679 O 530.777 -0.279898 1.8641 0
M  V30 5680 C 527.904 -0.115265 3.38504 0
M  V30 5681 C 526.95 0.813698 4.18666 0
M  V30 5682 S 527.783 2.30492 4.83357 0
M  V30 5683 C 528.939 1.59674 6.0519 0
M  V30 5684 H 529.172 1.47713 2.58008 0
M  V30 5685 H 526.705 0.867932 1.27696 0
M  V30 5686 H 528.663 -0.524162 4.0714 0
M  V30 5687 H 527.324 -0.964284 2.98932 0
M  V30 5688 H 526.517 0.256736 5.03346 0
M  V30 5689 H 526.119 1.16213 3.55486 0
M  V30 5690 H 528.411 0.898164 6.7152 0
M  V30 5691 H 529.354 2.42115 6.65422 0
M  V30 5692 H 529.762 1.08252 5.54023 0
M  V30 5693 N 529.16 -1.33526 0.837174 0
M  V30 5694 C 530.576 -1.50727 0.524743 0
M  V30 5695 C 530.776 -1.77792 -0.948279 0
M  V30 5696 O 529.832 -1.83719 -1.73216 0
M  V30 5697 C 531.145 -2.66299 1.39661 0
M  V30 5698 C 532.693 -2.80183 1.39521 0
M  V30 5699 C 533.168 -3.98815 2.25189 0
M  V30 5700 N 534.659 -4.06047 2.2289 0
M  V30 5701 C 535.394 -4.97032 2.85915 0
M  V30 5702 N 534.89 -5.93143 3.57985 0
M  V30 5703 N 536.683 -4.90015 2.75394 0
M  V30 5704 H 528.834 -1.1422 1.79074 0
M  V30 5705 H 531.097 -0.561399 0.763894 0
M  V30 5706 H 530.803 -2.52974 2.4433 0
M  V30 5707 H 530.677 -3.61663 1.07145 0
M  V30 5708 H 533.064 -2.92942 0.356253 0
M  V30 5709 H 533.145 -1.85586 1.76044 0
M  V30 5710 H 532.789 -3.86817 3.29143 0
M  V30 5711 H 532.719 -4.92654 1.86009 0
M  V30 5712 H 535.21 -3.37262 1.70478 0
M  V30 5713 H 535.523 -6.59227 4.03286 0
M  V30 5714 H 533.868 -5.93223 3.62093 0
M  V30 5715 H 537.059 -4.13894 2.18654 0
M  V30 5716 H 537.232 -5.60724 3.24796 0
M  V30 5717 N 530.638 -0.59345 -1.46 0
M  V30 5718 C 531.568 0.121192 -2.33185 0
M  V30 5719 C 532.549 0.872977 -1.4599 0
M  V30 5720 O 533.734 0.846321 -1.74789 0
M  V30 5721 C 530.864 1.12844 -3.28456 0
M  V30 5722 C 529.818 0.4908 -4.25177 0
M  V30 5723 C 529.144 1.60529 -5.10034 0
M  V30 5724 C 530.444 -0.578949 -5.19081 0
M  V30 5725 H 532.138 -0.606767 -2.93187 0
M  V30 5726 H 529.684 -0.293242 -1.40983 0
M  V30 5727 H 531.637 1.63684 -3.88311 0
M  V30 5728 H 530.361 1.88681 -2.66584 0
M  V30 5729 H 529.02 0.00339328 -3.666 0
M  V30 5730 H 528.668 2.35359 -4.44539 0
M  V30 5731 H 528.368 1.18422 -5.75543 0
M  V30 5732 H 529.892 2.11623 -5.72755 0
M  V30 5733 H 531.306 -0.155199 -5.7309 0
M  V30 5734 H 529.703 -0.920947 -5.92991 0
M  V30 5735 H 530.773 -1.46109 -4.62364 0
M  V30 5736 N 532.116 1.54067 -0.331816 0
M  V30 5737 C 533.046 2.27569 0.522932 0
M  V30 5738 C 534.027 1.28679 1.11247 0
M  V30 5739 O 535.212 1.57504 1.13605 0
M  V30 5740 C 532.342 3.0397 1.67987 0
M  V30 5741 C 531.296 4.10267 1.21924 0
M  V30 5742 C 530.622 4.74555 2.46377 0
M  V30 5743 C 531.922 5.21268 0.32815 0
M  V30 5744 H 533.616 2.99264 -0.0901977 0
M  V30 5745 H 531.162 1.4393 -0.044821 0
M  V30 5746 H 533.115 3.54123 2.28418 0
M  V30 5747 H 531.839 2.29906 2.31971 0
M  V30 5748 H 530.498 3.61009 0.637809 0
M  V30 5749 H 530.146 3.97098 3.08743 0
M  V30 5750 H 529.846 5.46363 2.16243 0
M  V30 5751 H 531.37 5.27487 3.07555 0
M  V30 5752 H 532.784 5.67128 0.838978 0
M  V30 5753 H 531.181 5.99982 0.119228 0
M  V30 5754 H 532.251 4.80673 -0.638839 0
M  V30 5755 N 533.594 0.0601682 1.57485 0
M  V30 5756 C 534.843 -0.611101 1.9222 0
M  V30 5757 C 535.156 -1.71469 0.941159 0
M  V30 5758 O 536.362 -2.44473 1.18089 0
M  V30 5759 C 534.818 -1.13832 3.41424 0
M  V30 5760 C 534.426 -0.0663596 4.47951 0
M  V30 5761 C 536.17 -1.78432 3.85178 0
M  V30 5762 C 534.077 -0.606965 5.88277 0
M  V30 5763 H 533.007 -0.232033 0.71741 0
M  V30 5764 H 535.658 0.130518 1.83035 0
M  V30 5765 H 534.04 -1.93254 3.45643 0
M  V30 5766 H 535.214 0.707682 4.55333 0
M  V30 5767 H 533.529 0.482715 4.13593 0
M  V30 5768 H 536.126 -2.1989 4.87394 0
M  V30 5769 H 536.469 -2.63966 3.21913 0
M  V30 5770 H 537.002 -1.05651 3.83514 0
M  V30 5771 H 533.741 0.21095 6.5516 0
M  V30 5772 H 533.261 -1.34879 5.84438 0
M  V30 5773 H 534.94 -1.08704 6.37803 0
M  V30 5774 N 535.072 -1.5615 -0.213296 0
M  V30 5775 C 535.982 -1.96265 -1.28519 0
M  V30 5776 C 536.998 -0.86765 -1.50824 0
M  V30 5777 O 538.174 -1.17191 -1.63793 0
M  V30 5778 C 535.239 -2.27836 -2.61327 0
M  V30 5779 C 534.3 -3.50949 -2.47252 0
M  V30 5780 C 533.533 -3.81004 -3.73727 0
M  V30 5781 O 533.756 -3.12612 -4.77106 0
M  V30 5782 O 532.69 -4.74477 -3.70344 0
M  V30 5783 H 536.516 -2.87631 -0.974795 0
M  V30 5784 H 534.101 -1.43467 -0.416832 0
M  V30 5785 H 535.983 -2.49299 -3.39747 0
M  V30 5786 H 534.658 -1.39643 -2.9203 0
M  V30 5787 H 533.565 -3.34754 -1.67004 0
M  V30 5788 H 534.898 -4.39551 -2.21486 0
M  V30 5789 N 536.55 0.480323 -1.50102 0
M  V30 5790 C 537.5 1.57685 -1.6468 0
M  V30 5791 C 538.484 1.52878 -0.5017 0
M  V30 5792 O 539.676 1.60058 -0.755668 0
M  V30 5793 C 536.805 2.96185 -1.73578 0
M  V30 5794 C 535.891 3.0591 -2.93734 0
M  V30 5795 N 536.282 2.85471 -4.1754 0
M  V30 5796 C 534.58 3.37036 -2.92101 0
M  V30 5797 C 535.281 2.99921 -4.9842 0
M  V30 5798 N 534.257 3.29715 -4.32191 0
M  V30 5799 H 538.059 1.40568 -2.58104 0
M  V30 5800 H 535.573 0.686874 -1.47159 0
M  V30 5801 H 537.57 3.75015 -1.82124 0
M  V30 5802 H 536.23 3.14356 -0.813057 0
M  V30 5803 H 537.241 2.61235 -4.47188 0
M  V30 5804 H 533.918 3.61253 -2.09291 0
M  V30 5805 H 535.308 2.88436 -6.06839 0
M  V30 5806 N 538.028 1.39524 0.732853 0
M  V30 5807 C 538.991 1.38189 1.82857 0
M  V30 5808 C 539.991 0.278624 1.58368 0
M  V30 5809 O 541.181 0.536639 1.65728 0
M  V30 5810 C 538.313 1.15661 3.2068 0
M  V30 5811 H 539.506 2.35692 1.85444 0
M  V30 5812 H 537.059 1.2512 0.936728 0
M  V30 5813 H 537.794 0.188482 3.23752 0
M  V30 5814 H 537.579 1.95559 3.39852 0
M  V30 5815 H 539.069 1.17472 4.00737 0
M  V30 5816 N 539.506 -0.963266 1.24736 0
M  V30 5817 C 540.436 -2.07628 1.06832 0
M  V30 5818 C 541.417 -1.70088 -0.0200566 0
M  V30 5819 O 542.602 -1.93636 0.147854 0
M  V30 5820 C 539.732 -3.40636 0.677069 0
M  V30 5821 C 538.686 -3.9215 1.71471 0
M  V30 5822 C 538.012 -5.21553 1.1784 0
M  V30 5823 C 539.312 -4.19493 3.11164 0
M  V30 5824 H 541.006 -2.22864 1.9993 0
M  V30 5825 H 538.552 -1.07093 0.96266 0
M  V30 5826 H 540.505 -4.17941 0.538792 0
M  V30 5827 H 539.229 -3.25313 -0.289612 0
M  V30 5828 H 537.888 -3.17005 1.84128 0
M  V30 5829 H 537.536 -5.02593 0.202195 0
M  V30 5830 H 537.236 -5.56988 1.87185 0
M  V30 5831 H 538.76 -6.01463 1.05233 0
M  V30 5832 H 540.174 -4.87487 3.01711 0
M  V30 5833 H 538.571 -4.66165 3.77902 0
M  V30 5834 H 539.641 -3.26097 3.58871 0
M  V30 5835 N 540.985 -1.06182 -1.16461 0
M  V30 5836 C 542.21 -0.798599 -1.91408 0
M  V30 5837 C 542.635 0.640987 -1.76842 0
M  V30 5838 O 541.993 1.44652 -1.09296 0
M  V30 5839 C 542.041 -1.19665 -3.40165 0
M  V30 5840 O 541.145 -0.334768 -4.11039 0
M  V30 5841 H 540.486 -0.291961 -0.596368 0
M  V30 5842 H 543.016 -1.41732 -1.47557 0
M  V30 5843 H 543.026 -1.16772 -3.90933 0
M  V30 5844 H 541.701 -2.24526 -3.50087 0
M  V30 5845 H 540.278 -0.425168 -3.70468 0
M  V30 5846 N 542.463 1.3308 -0.844243 0
M  V30 5847 C 543.71 1.97605 -0.44255 0
M  V30 5848 C 544.038 1.66856 0.999458 0
M  V30 5849 O 543.293 0.943586 1.7145 0
M  V30 5850 C 543.592 3.52045 -0.616354 0
M  V30 5851 C 543.258 4.02757 -2.02726 0
M  V30 5852 C 541.92 4.16316 -2.41317 0
M  V30 5853 C 544.272 4.29776 -2.9486 0
M  V30 5854 C 541.6 4.54232 -3.71335 0
M  V30 5855 C 543.952 4.69146 -4.24364 0
M  V30 5856 C 542.616 4.80911 -4.62904 0
M  V30 5857 H 541.886 0.723088 -0.161941 0
M  V30 5858 H 544.533 1.58663 -1.0723 0
M  V30 5859 H 542.838 3.91681 0.0966812 0
M  V30 5860 H 544.535 3.99981 -0.285756 0
M  V30 5861 H 541.125 3.9268 -1.71756 0
M  V30 5862 H 545.309 4.18818 -2.6628 0
M  V30 5863 H 540.565 4.61535 -4.00993 0
M  V30 5864 H 544.739 4.89008 -4.95827 0
M  V30 5865 H 542.366 5.10048 -5.63698 0
M  V30 5866 N 543.941 0.601185 1.45683 0
M  V30 5867 C 544.871 -0.108824 2.33246 0
M  V30 5868 C 545.852 -0.865223 1.46451 0
M  V30 5869 O 547.037 -0.83704 1.75235 0
M  V30 5870 C 544.167 -1.11101 3.2905 0
M  V30 5871 C 543.121 -0.468244 4.25431 0
M  V30 5872 C 542.447 -1.57822 5.10878 0
M  V30 5873 C 543.747 0.606469 5.18767 0
M  V30 5874 H 545.441 0.622306 2.92861 0
M  V30 5875 H 542.987 0.300714 1.40825 0
M  V30 5876 H 544.94 -1.61622 3.89174 0
M  V30 5877 H 543.664 -1.87265 2.67581 0
M  V30 5878 H 542.323 0.0160484 3.66596 0
M  V30 5879 H 541.971 -2.32998 4.45781 0
M  V30 5880 H 541.671 -1.15369 5.76163 0
M  V30 5881 H 543.195 -2.08583 5.73869 0
M  V30 5882 H 544.609 0.185589 5.73 0
M  V30 5883 H 543.006 0.952381 5.92494 0
M  V30 5884 H 544.076 1.48559 4.61582 0
M  V30 5885 N 545.419 -1.53889 0.339982 0
M  V30 5886 C 546.83 -1.86139 -0.144671 0
M  V30 5887 C 547.181 -1.2613 -1.50285 0
M  V30 5888 O 546.306 -0.573515 -2.08662 0
M  V30 5889 C 546.901 -3.37728 -0.269285 0
M  V30 5890 C 545.46 -3.69868 -0.698168 0
M  V30 5891 C 544.607 -2.76777 0.170249 0
M  V30 5892 H 547.558 -1.48503 0.559704 0
M  V30 5893 H 547.579 -3.64331 -1.0974 0
M  V30 5894 H 547.091 -3.81375 0.719366 0
M  V30 5895 H 545.192 -3.31764 -1.69597 0
M  V30 5896 H 545.305 -4.76582 -0.490533 0
M  V30 5897 H 543.669 -2.52188 -0.356844 0
M  V30 5898 H 544.452 -3.23253 1.15597 0
M  V30 5899 N 546.897 -0.0685191 -1.57451 0
M  V30 5900 C 548.144 0.601348 -1.93365 0
M  V30 5901 C 548.472 1.69816 -0.948294 0
M  V30 5902 O 547.727 1.95666 0.0366199 0
M  V30 5903 C 548.026 1.22051 -3.35914 0
M  V30 5904 C 547.692 0.250165 -4.50205 0
M  V30 5905 C 546.354 -0.0167954 -4.81197 0
M  V30 5906 C 548.706 -0.413867 -5.19554 0
M  V30 5907 C 546.034 -0.95493 -5.78876 0
M  V30 5908 C 548.386 -1.3403 -6.18238 0
M  V30 5909 C 547.05 -1.61576 -6.47649 0
M  V30 5910 H 546.32 0.220049 -0.707573 0
M  V30 5911 H 548.967 -0.138697 -1.90997 0
M  V30 5912 H 547.272 2.03622 -3.34732 0
M  V30 5913 H 548.969 1.74605 -3.6099 0
M  V30 5914 H 545.559 0.468421 -4.26033 0
M  V30 5915 H 549.743 -0.220733 -4.95809 0
M  V30 5916 H 544.999 -1.17563 -5.99991 0
M  V30 5917 H 549.173 -1.86081 -6.71079 0
M  V30 5918 H 546.8 -2.34431 -7.2315 0
M  V30 5919 N 548.375 1.56261 0.205012 0
M  V30 5920 C 549.307 1.90266 1.27795 0
M  V30 5921 C 550.32 0.792397 1.42214 0
M  V30 5922 O 551.509 1.07077 1.42817 0
M  V30 5923 C 548.609 2.11074 2.65143 0
M  V30 5924 C 547.782 3.42176 2.7246 0
M  V30 5925 C 546.841 3.52216 3.90936 0
M  V30 5926 O 545.867 4.25119 3.78501 0
M  V30 5927 N 547.069 2.84573 5.05963 0
M  V30 5928 H 549.834 2.82896 0.989434 0
M  V30 5929 H 547.395 1.57008 0.394981 0
M  V30 5930 H 549.387 2.15089 3.4281 0
M  V30 5931 H 547.957 1.2499 2.86524 0
M  V30 5932 H 547.177 3.50116 1.81142 0
M  V30 5933 H 548.465 4.28509 2.74331 0
M  V30 5934 H 547.863 2.25152 5.18963 0
M  V30 5935 H 546.42 2.94228 5.81613 0
M  V30 5936 N 549.853 -0.472356 1.50355 0
M  V30 5937 C 551.13 -1.23356 1.51798 0
M  V30 5938 C 551.51 -2.09469 0.26193 0
M  V30 5939 O 550.858 -2.15677 -0.754691 0
M  V30 5940 C 551.068 -2.06568 2.81302 0
M  V30 5941 C 552.416 -2.648 3.31913 0
M  V30 5942 O 553.44 -2.16812 2.82614 0
M  V30 5943 O 552.299 -3.52231 4.17846 0
M  V30 5944 H 549.393 -0.559707 0.608816 0
M  V30 5945 H 551.939 -0.48428 1.62643 0
M  V30 5946 H 550.711 -1.43103 3.64194 0
M  V30 5947 H 550.334 -2.88633 2.73454 0
M  V30 5948 N 551.331 -1.39911 -0.725443 0
M  V30 5949 C 552.571 -1.39096 -1.49772 0
M  V30 5950 C 552.935 0.0106452 -1.91997 0
M  V30 5951 O 554.136 0.143859 -2.68415 0
M  V30 5952 C 552.407 -2.34441 -2.69764 0
M  V30 5953 S 553.966 -2.51898 -3.59295 0
M  V30 5954 H 550.784 -0.49314 -0.512186 0
M  V30 5955 H 553.386 -1.76093 -0.849197 0
M  V30 5956 H 552.09 -3.35123 -2.36898 0
M  V30 5957 H 551.621 -1.98692 -3.39537 0
M  V30 5958 H 553.636 -1.76402 -4.63785 0
M  V30 5959 N 552.809 0.956637 -1.25245 0
M  V30 5960 C 554.055 1.70352 -1.10036 0
M  V30 5961 C 554.388 1.90869 0.358156 0
M  V30 5962 O 553.663 1.47819 1.26411 0
M  V30 5963 C 553.946 3.08766 -1.85298 0
M  V30 5964 C 553.799 2.95672 -3.38966 0
M  V30 5965 C 555.118 4.08622 -1.63451 0
M  V30 5966 H 552.237 0.618279 -0.401123 0
M  V30 5967 H 554.879 1.11212 -1.54051 0
M  V30 5968 H 553.029 3.59252 -1.47887 0
M  V30 5969 H 554.701 2.52527 -3.86041 0
M  V30 5970 H 552.944 2.31634 -3.6678 0
M  V30 5971 H 553.615 3.93776 -3.86839 0
M  V30 5972 H 556.091 3.67038 -1.96015 0
M  V30 5973 H 554.967 5.03514 -2.18551 0
M  V30 5974 H 555.228 4.3834 -0.575357 0
M  V30 5975 N 554.287 1.06798 1.15896 0
M  V30 5976 C 555.533 0.788934 1.86825 0
M  V30 5977 C 555.866 -0.683084 1.8179 0
M  V30 5978 O 555.141 -1.50086 1.23711 0
M  V30 5979 C 555.424 1.29065 3.36176 0
M  V30 5980 C 555.277 2.8268 3.49874 0
M  V30 5981 C 556.596 0.902655 4.30744 0
M  V30 5982 H 553.715 0.288066 0.678371 0
M  V30 5983 H 556.357 1.32479 1.36195 0
M  V30 5984 H 554.507 0.834806 3.79425 0
M  V30 5985 H 556.179 3.36511 3.15528 0
M  V30 5986 H 554.422 3.21157 2.91617 0
M  V30 5987 H 555.093 3.12852 4.54783 0
M  V30 5988 H 557.569 1.29535 3.95424 0
M  V30 5989 H 556.445 1.28111 5.3374 0
M  V30 5990 H 556.706 -0.191951 4.41683 0
M  V30 5991 N 555.766 -1.3263 0.851289 0
M  V30 5992 C 556.698 -2.27824 0.250757 0
M  V30 5993 C 557.711 -1.52285 -0.575598 0
M  V30 5994 O 558.9 -1.73946 -0.400638 0
M  V30 5995 C 556 -3.3232 -0.664571 0
M  V30 5996 C 555.173 -4.37221 0.125187 0
M  V30 5997 C 554.232 -5.21314 -0.715385 0
M  V30 5998 O 553.258 -5.69002 -0.150111 0
M  V30 5999 N 554.46 -5.43823 -2.03069 0
M  V30 6000 H 557.225 -2.79997 1.06873 0
M  V30 6001 H 554.786 -1.45455 0.710943 0
M  V30 6002 H 556.778 -3.85486 -1.23216 0
M  V30 6003 H 555.348 -2.80331 -1.38323 0
M  V30 6004 H 554.568 -3.84384 0.874199 0
M  V30 6005 H 555.856 -5.04399 0.667774 0
M  V30 6006 H 555.254 -5.06803 -2.51332 0
M  V30 6007 H 553.811 -5.99998 -2.54648 0
M  V30 6008 N 557.244 -0.608902 -1.45362 0
M  V30 6009 C 558.472 -0.111013 -2.06602 0
M  V30 6010 C 558.887 1.20516 -1.45332 0
M  V30 6011 O 558.244 1.73437 -0.567978 0
M  V30 6012 C 558.295 0.033688 -3.61484 0
M  V30 6013 O 558.016 -1.23041 -4.20467 0
M  V30 6014 C 559.517 0.562882 -4.39712 0
M  V30 6015 H 556.737 -0.0694453 -0.667397 0
M  V30 6016 H 559.281 -0.837008 -1.86586 0
M  V30 6017 H 557.436 0.710016 -3.80838 0
M  V30 6018 H 557.85 -1.06094 -5.13658 0
M  V30 6019 H 559.324 0.613213 -5.48583 0
M  V30 6020 H 559.801 1.58543 -4.09586 0
M  V30 6021 H 560.407 -0.0794454 -4.25226 0
M  V30 6022 N 558.722 1.53707 -0.348139 0
M  V30 6023 C 560.133 1.86213 0.134797 0
M  V30 6024 C 560.484 1.26925 1.49614 0
M  V30 6025 O 559.609 0.584573 2.08355 0
M  V30 6026 C 560.204 3.37866 0.251371 0
M  V30 6027 C 558.763 3.70233 0.678543 0
M  V30 6028 C 557.91 2.76683 -0.184925 0
M  V30 6029 H 560.861 1.48204 -0.567571 0
M  V30 6030 H 560.882 3.64908 1.07806 0
M  V30 6031 H 560.394 3.80988 -0.739581 0
M  V30 6032 H 558.495 3.32659 1.67835 0
M  V30 6033 H 558.608 4.76836 0.465251 0
M  V30 6034 H 556.972 2.52374 0.343465 0
M  V30 6035 H 557.755 3.22635 -1.1731 0
M  V30 6036 N 560.2 0.0768682 1.57412 0
M  V30 6037 C 561.132 -0.918248 2.10002 0
M  V30 6038 C 562.145 -1.25808 1.03325 0
M  V30 6039 O 563.334 -1.21438 1.30824 0
M  V30 6040 C 560.434 -2.23263 2.54964 0
M  V30 6041 C 559.607 -2.07088 3.8527 0
M  V30 6042 C 558.666 -3.21876 4.16272 0
M  V30 6043 O 557.692 -2.96643 4.8579 0
M  V30 6044 N 558.894 -4.4712 3.70221 0
M  V30 6045 H 561.659 -0.469209 2.96004 0
M  V30 6046 H 559.22 -0.108725 1.61535 0
M  V30 6047 H 561.212 -2.9897 2.72762 0
M  V30 6048 H 559.782 -2.59649 1.74072 0
M  V30 6049 H 559.002 -1.15818 3.76802 0
M  V30 6050 H 560.29 -1.93537 4.70554 0
M  V30 6051 H 559.688 -4.70506 3.1407 0
M  V30 6052 H 558.245 -5.19837 3.93209 0
M  V30 6053 N 561.678 -1.56367 -0.196722 0
M  V30 6054 C 562.926 -1.80172 -0.915554 0
M  V30 6055 C 563.247 -0.649649 -1.8386 0
M  V30 6056 O 562.517 0.332111 -1.93064 0
M  V30 6057 H 561.097 -0.664592 -0.341067 0
M  V30 6058 H 563.759 -1.93844 -0.202622 0
M  V30 6059 H 562.855 -2.7327 -1.50764 0
M  V30 6060 N 563.156 0.464375 -1.50603 0
M  V30 6061 C 564.088 1.57916 -1.66118 0
M  V30 6062 C 565.101 1.53497 -0.54246 0
M  V30 6063 O 566.29 1.58763 -0.815877 0
M  V30 6064 C 563.39 2.96809 -1.63577 0
M  V30 6065 C 562.563 3.26026 -2.91592 0
M  V30 6066 C 561.622 4.44506 -2.81604 0
M  V30 6067 O 560.648 4.44484 -3.55559 0
M  V30 6068 N 561.85 5.46549 -1.95614 0
M  V30 6069 H 564.615 1.45022 -2.62276 0
M  V30 6070 H 562.176 0.652903 -1.48151 0
M  V30 6071 H 564.168 3.74048 -1.54499 0
M  V30 6072 H 562.738 3.03438 -0.751262 0
M  V30 6073 H 561.958 2.37337 -3.14746 0
M  V30 6074 H 563.246 3.42361 -3.76386 0
M  V30 6075 H 562.644 5.49391 -1.34854 0
M  V30 6076 H 561.201 6.22746 -1.92435 0
M  V30 6077 N 564.634 1.40294 0.718013 0
M  V30 6078 C 565.911 1.2894 1.47084 0
M  V30 6079 C 566.291 -0.0933625 2.10893 0
M  V30 6080 O 565.639 -1.10598 1.99951 0
M  V30 6081 C 565.849 2.4264 2.50852 0
M  V30 6082 C 567.197 2.8276 3.16752 0
M  V30 6083 O 568.221 2.42215 2.61171 0
M  V30 6084 O 567.08 3.528 4.17366 0
M  V30 6085 H 564.174 0.506236 0.653952 0
M  V30 6086 H 566.72 1.52208 0.750394 0
M  V30 6087 H 565.492 3.35009 2.022 0
M  V30 6088 H 565.115 2.21129 3.30435 0
M  V30 6089 N 566.112 -0.949982 1.2575 0
M  V30 6090 C 567.342 -1.72721 1.13363 0
M  V30 6091 C 567.75 -1.86562 -0.314842 0
M  V30 6092 O 567.093 -1.36621 -1.22803 0
M  V30 6093 C 567.155 -3.15695 1.7198 0
M  V30 6094 C 566.819 -3.25268 3.21014 0
M  V30 6095 C 567.816 -3.09222 4.17945 0
M  V30 6096 C 565.501 -3.4894 3.61312 0
M  V30 6097 C 567.495 -3.16701 5.53154 0
M  V30 6098 C 565.182 -3.56055 4.96657 0
M  V30 6099 C 566.18 -3.3995 5.92387 0
M  V30 6100 O 565.868 -3.46757 7.25269 0
M  V30 6101 H 565.6 -0.547888 0.395973 0
M  V30 6102 H 568.154 -1.20009 1.66694 0
M  V30 6103 H 566.384 -3.69791 1.13101 0
M  V30 6104 H 568.073 -3.75295 1.54624 0
M  V30 6105 H 568.839 -2.90798 3.88151 0
M  V30 6106 H 564.718 -3.60534 2.87291 0
M  V30 6107 H 568.262 -3.04048 6.27854 0
M  V30 6108 H 564.159 -3.73997 5.26115 0
M  V30 6109 H 564.927 -3.63358 7.33426 0
M  V30 6110 N 567.59 -1.07411 -1.15328 0
M  V30 6111 C 568.553 -0.698914 -2.18284 0
M  V30 6112 C 569.553 0.261149 -1.58665 0
M  V30 6113 O 570.743 0.0420277 -1.74149 0
M  V30 6114 C 567.875 -0.0302427 -3.40887 0
M  V30 6115 H 569.068 -1.61045 -2.52991 0
M  V30 6116 H 566.621 -0.870724 -1.298 0
M  V30 6117 H 567.356 0.893505 -3.11748 0
M  V30 6118 H 567.141 -0.720759 -3.85419 0
M  V30 6119 H 568.631 0.21759 -4.17033 0
M  V30 6120 N 569.068 1.32177 -0.85831 0
M  V30 6121 C 570.316 1.96735 -0.462568 0
M  V30 6122 C 570.637 1.6824 0.985911 0
M  V30 6123 O 569.907 0.991564 1.68952 0
M  V30 6124 H 568.487 0.727849 -0.168064 0
M  V30 6125 H 571.149 1.61195 -1.09554 0
M  V30 6126 H 570.245 3.06068 -0.610647 0
M  V30 6127 N 570.547 0.616602 1.45037 0
M  V30 6128 C 571.494 -0.0969439 2.30596 0
M  V30 6129 C 572.464 -0.851151 1.42635 0
M  V30 6130 O 573.649 -0.835092 1.71554 0
M  V30 6131 C 570.789 -1.08234 3.27688 0
M  V30 6132 C 569.902 -0.328072 4.30752 0
M  V30 6133 C 569.037 -1.30399 5.14946 0
M  V30 6134 C 568.076 -0.538049 6.09731 0
M  V30 6135 N 567.213 -1.46371 6.86673 0
M  V30 6136 H 572.053 0.63864 2.91076 0
M  V30 6137 H 569.59 0.326733 1.43425 0
M  V30 6138 H 571.548 -1.66688 3.82454 0
M  V30 6139 H 570.178 -1.78523 2.68941 0
M  V30 6140 H 569.23 0.372136 3.78575 0
M  V30 6141 H 570.542 0.269142 4.98073 0
M  V30 6142 H 569.696 -1.96032 5.74157 0
M  V30 6143 H 568.435 -1.93514 4.47665 0
M  V30 6144 H 567.44 0.131852 5.49642 0
M  V30 6145 H 568.665 0.0881732 6.79043 0
M  V30 6146 H 566.611 -2.08233 6.22073 0
M  V30 6147 H 566.528 -0.920152 7.50379 0
M  V30 6148 H 567.796 -2.10932 7.50418 0
M  V30 6149 N 572.025 -1.5352 0.356285 0
M  V30 6150 C 573.265 -2.03027 -0.23649 0
M  V30 6151 C 573.629 -1.23813 -1.46746 0
M  V30 6152 O 574.83 -1.63281 -2.13525 0
M  V30 6153 C 573.101 -3.53442 -0.530415 0
M  V30 6154 S 574.66 -4.24836 -1.09819 0
M  V30 6155 H 571.478 -0.707591 -0.0695378 0
M  V30 6156 H 574.08 -1.89077 0.496999 0
M  V30 6157 H 572.784 -4.087 0.373114 0
M  V30 6158 H 572.315 -3.71536 -1.29323 0
M  V30 6159 H 574.33 -4.35228 -2.38309 0
M  V30 6160 N 573.503 -0.0852151 -1.57369 0
M  V30 6161 C 574.733 0.588605 -1.98038 0
M  V30 6162 C 575.141 1.62869 -0.962817 0
M  V30 6163 O 574.484 1.83611 0.057134 0
M  V30 6164 C 574.546 1.30303 -3.35054 0
M  V30 6165 C 574.21 0.414855 -4.55113 0
M  V30 6166 C 575.207 -0.333011 -5.18832 0
M  V30 6167 C 572.892 0.335804 -5.01176 0
M  V30 6168 C 574.886 -1.14801 -6.26976 0
M  V30 6169 C 572.573 -0.482857 -6.09189 0
M  V30 6170 C 573.571 -1.22342 -6.71953 0
M  V30 6171 O 573.259 -2.02855 -7.77885 0
M  V30 6172 H 572.991 0.163249 -0.655992 0
M  V30 6173 H 575.545 -0.1582 -2.0479 0
M  V30 6174 H 573.775 2.0962 -3.24956 0
M  V30 6175 H 575.464 1.87041 -3.60237 0
M  V30 6176 H 576.23 -0.281611 -4.84182 0
M  V30 6177 H 572.109 0.901869 -4.52092 0
M  V30 6178 H 575.653 -1.72654 -6.75897 0
M  V30 6179 H 571.55 -0.535773 -6.43273 0
M  V30 6180 H 572.318 -1.95432 -7.94826 0
M  V30 6181 N 574.981 1.5647 0.188427 0
M  V30 6182 C 575.944 1.9421 1.21718 0
M  V30 6183 C 576.944 0.823901 1.38089 0
M  V30 6184 O 578.134 1.09122 1.35787 0
M  V30 6185 C 575.266 2.22197 2.58537 0
M  V30 6186 H 576.459 2.86252 0.894418 0
M  V30 6187 H 574.012 1.50263 0.430211 0
M  V30 6188 H 574.747 1.32814 2.95856 0
M  V30 6189 H 574.532 3.03688 2.48025 0
M  V30 6190 H 576.022 2.52376 3.3271 0
M  V30 6191 N 576.459 -0.456382 1.50847 0
M  V30 6192 C 577.707 -1.20497 1.62249 0
M  V30 6193 C 578.028 -1.92156 0.331839 0
M  V30 6194 O 577.298 -1.84751 -0.651443 0
M  V30 6195 H 575.878 -0.447775 0.597918 0
M  V30 6196 H 578.54 -0.525099 1.87693 0
M  V30 6197 H 577.636 -1.94492 2.44089 0
M  V30 6198 N 577.937 -1.40673 -0.710563 0
M  V30 6199 C 578.884 -1.41336 -1.82463 0
M  V30 6200 C 579.854 -0.269648 -1.63897 0
M  V30 6201 O 581.039 -0.468463 -1.8496 0
M  V30 6202 C 578.179 -1.28665 -3.20218 0
M  V30 6203 C 577.292 -2.52784 -3.5032 0
M  V30 6204 C 576.427 -2.32517 -4.77608 0
M  V30 6205 C 575.466 -3.52187 -5.0063 0
M  V30 6206 N 574.603 -3.31084 -6.19135 0
M  V30 6207 H 579.443 -2.36558 -1.8123 0
M  V30 6208 H 576.98 -1.17483 -0.885226 0
M  V30 6209 H 578.938 -1.19324 -3.99772 0
M  V30 6210 H 577.568 -0.370602 -3.20666 0
M  V30 6211 H 576.62 -2.72634 -2.65283 0
M  V30 6212 H 577.932 -3.41845 -3.63241 0
M  V30 6213 H 577.086 -2.20558 -5.65189 0
M  V30 6214 H 575.825 -1.40889 -4.66906 0
M  V30 6215 H 574.83 -3.64617 -4.11502 0
M  V30 6216 H 576.055 -4.44749 -5.13201 0
M  V30 6217 H 574.001 -2.42143 -6.09674 0
M  V30 6218 H 573.918 -4.13713 -6.32754 0
M  V30 6219 H 575.186 -3.22868 -7.0949 0
M  V30 6220 N 579.415 0.9433 -1.26252 0
M  V30 6221 C 580.347 2.04542 -1.03417 0
M  V30 6222 C 581.36 1.62799 0.0046911 0
M  V30 6223 O 582.549 1.76944 -0.235146 0
M  V30 6224 C 579.649 3.34511 -0.543671 0
M  V30 6225 C 578.822 4.05033 -1.65128 0
M  V30 6226 C 577.881 5.13273 -1.1592 0
M  V30 6227 O 576.907 5.38095 -1.85586 0
M  V30 6228 N 578.109 5.805 -0.00649279 0
M  V30 6229 H 580.874 2.24699 -1.98319 0
M  V30 6230 H 578.435 1.11264 -1.1761 0
M  V30 6231 H 580.427 4.04212 -0.198703 0
M  V30 6232 H 578.997 3.11042 0.311711 0
M  V30 6233 H 578.217 3.29275 -2.16729 0
M  V30 6234 H 579.505 4.48903 -2.39508 0
M  V30 6235 H 578.903 5.62767 0.575347 0
M  V30 6236 H 577.46 6.51201 0.279416 0
M  V30 6237 N 580.893 1.08022 1.14757 0
M  V30 6238 C 582.142 0.802468 1.8505 0
M  V30 6239 C 582.455 -0.674061 1.83619 0
M  V30 6240 O 583.661 -1.06683 2.49662 0
M  V30 6241 C 582.117 1.38551 3.32162 0
M  V30 6242 C 581.725 2.89354 3.42021 0
M  V30 6243 C 583.469 1.18608 4.07594 0
M  V30 6244 C 581.376 3.40815 4.83321 0
M  V30 6245 H 580.306 0.296518 0.693248 0
M  V30 6246 H 582.957 1.30114 1.29393 0
M  V30 6247 H 581.339 0.814556 3.87532 0
M  V30 6248 H 582.513 3.52552 2.96722 0
M  V30 6249 H 580.828 3.08165 2.80041 0
M  V30 6250 H 583.425 1.54525 5.11885 0
M  V30 6251 H 583.768 0.125599 4.1611 0
M  V30 6252 H 584.301 1.72375 3.58513 0
M  V30 6253 H 581.04 4.46418 4.79991 0
M  V30 6254 H 580.56 2.82374 5.29174 0
M  V30 6255 H 582.239 3.37171 5.522 0
M  V30 6256 N 582.371 -1.3172 0.865308 0
M  V30 6257 C 583.599 -2.01057 0.488251 0
M  V30 6258 C 584.014 -1.64979 -0.918 0
M  V30 6259 O 583.371 -0.876597 -1.60069 0
M  V30 6260 C 583.422 -3.55964 0.630224 0
M  V30 6261 O 583.143 -3.90749 1.98109 0
M  V30 6262 C 584.644 -4.42574 0.253567 0
M  V30 6263 H 581.864 -0.64332 0.190736 0
M  V30 6264 H 584.408 -1.68058 1.16519 0
M  V30 6265 H 582.563 -3.874 0.000895422 0
M  V30 6266 H 582.977 -4.85467 1.9855 0
M  V30 6267 H 584.451 -5.50521 0.403875 0
M  V30 6268 H 584.928 -4.31724 -0.806895 0
M  V30 6269 H 585.534 -4.16547 0.858404 0
M  V30 6270 N 583.85 -0.624285 -1.44708 0
M  V30 6271 C 585.098 -0.125802 -2.01708 0
M  V30 6272 C 585.418 1.2543 -1.49306 0
M  V30 6273 O 584.689 1.83198 -0.693924 0
M  V30 6274 H 583.269 -0.0435161 -0.745731 0
M  V30 6275 H 585.931 -0.809446 -1.77296 0
M  V30 6276 H 585.027 -0.0882734 -3.11975 0
M  V30 6277 N 585.328 1.53329 -0.364422 0
M  V30 6278 C 586.574 2.01537 0.225969 0
M  V30 6279 C 586.907 1.25128 1.48515 0
M  V30 6280 O 586.182 0.344653 1.91422 0
M  V30 6281 C 586.465 3.56339 0.519092 0
M  V30 6282 C 586.318 4.43441 -0.753639 0
M  V30 6283 C 587.637 4.19833 1.32015 0
M  V30 6284 H 584.756 0.732573 0.0806548 0
M  V30 6285 H 587.398 1.83597 -0.489084 0
M  V30 6286 H 585.548 3.71756 1.12825 0
M  V30 6287 H 587.22 4.39823 -1.39116 0
M  V30 6288 H 585.463 4.11457 -1.37424 0
M  V30 6289 H 586.134 5.49699 -0.503517 0
M  V30 6290 H 588.61 4.08242 0.804859 0
M  V30 6291 H 587.486 5.28177 1.49399 0
M  V30 6292 H 587.747 3.75821 2.32832 0
M  V30 6293 N 586.806 0.0935595 1.57322 0
M  V30 6294 C 588.031 -0.582324 1.99057 0
M  V30 6295 C 588.456 -1.61025 0.972242 0
M  V30 6296 O 587.814 -1.81202 -0.0594622 0
M  V30 6297 C 587.862 -1.20799 3.39765 0
M  V30 6298 O 586.966 -2.32382 3.40694 0
M  V30 6299 H 586.307 -0.147884 0.647323 0
M  V30 6300 H 588.837 0.174516 2.03854 0
M  V30 6301 H 588.847 -1.54966 3.77425 0
M  V30 6302 H 587.522 -0.454914 4.13405 0
M  V30 6303 H 586.099 -1.99845 3.14827 0
M  V30 6304 N 588.284 -1.56567 -0.180126 0
M  V30 6305 C 589.533 -1.80685 -0.896426 0
M  V30 6306 C 589.846 -0.669335 -1.83791 0
M  V30 6307 O 591.052 -0.795209 -2.59593 0
M  V30 6308 C 589.508 -3.20132 -1.6445 0
M  V30 6309 C 589.116 -4.41727 -0.747088 0
M  V30 6310 C 590.86 -3.53549 -2.34955 0
M  V30 6311 C 588.767 -5.72195 -1.49489 0
M  V30 6312 H 587.697 -0.673758 -0.338477 0
M  V30 6313 H 590.348 -1.8289 -0.149467 0
M  V30 6314 H 588.73 -3.12218 -2.43589 0
M  V30 6315 H 589.904 -4.608 0.00671129 0
M  V30 6316 H 588.219 -4.16122 -0.152134 0
M  V30 6317 H 590.816 -4.48267 -2.91481 0
M  V30 6318 H 591.159 -2.78006 -3.09868 0
M  V30 6319 H 591.692 -3.62976 -1.62768 0
M  V30 6320 H 588.431 -6.50743 -0.788251 0
M  V30 6321 H 587.951 -5.57115 -2.22224 0
M  V30 6322 H 589.63 -6.1384 -2.04472 0
M  V30 6323 N 589.762 0.448376 -1.51087 0
M  V30 6324 C 590.692 1.55102 -1.74544 0
M  V30 6325 C 591.673 1.59357 -0.594932 0
M  V30 6326 O 592.858 1.75261 -0.836491 0
M  V30 6327 C 589.988 2.93268 -1.86041 0
M  V30 6328 C 588.942 3.03877 -3.01402 0
M  V30 6329 C 588.268 4.43914 -2.98068 0
M  V30 6330 C 589.568 2.7898 -4.41551 0
M  V30 6331 H 591.262 1.35724 -2.66869 0
M  V30 6332 H 588.808 0.651498 -1.28419 0
M  V30 6333 H 590.761 3.70356 -2.01034 0
M  V30 6334 H 589.485 3.13853 -0.903548 0
M  V30 6335 H 588.144 2.29227 -2.86096 0
M  V30 6336 H 587.792 4.6145 -2.00182 0
M  V30 6337 H 587.492 4.51944 -3.75527 0
M  V30 6338 H 589.016 5.22991 -3.1514 0
M  V30 6339 H 590.43 3.45805 -4.57265 0
M  V30 6340 H 588.827 2.98431 -5.20633 0
M  V30 6341 H 589.897 1.74663 -4.5235 0
M  V30 6342 N 591.24 1.41047 0.703093 0
M  V30 6343 C 592.656 1.23351 1.01275 0
M  V30 6344 C 592.856 0.11754 2.01157 0
M  V30 6345 O 591.912 -0.520518 2.47077 0
M  V30 6346 C 593.225 2.58001 1.54454 0
M  V30 6347 C 594.773 2.65119 1.66376 0
M  V30 6348 C 595.248 4.00067 2.22958 0
M  V30 6349 N 596.739 4.01875 2.30328 0
M  V30 6350 C 597.474 5.03087 2.75119 0
M  V30 6351 N 596.97 6.14692 3.19571 0
M  V30 6352 N 598.763 4.90451 2.74616 0
M  V30 6353 H 590.914 2.1236 0.0412686 0
M  V30 6354 H 593.177 0.944543 0.08089 0
M  V30 6355 H 592.883 3.40378 0.88521 0
M  V30 6356 H 592.757 2.79962 2.52786 0
M  V30 6357 H 595.144 1.83106 2.31422 0
M  V30 6358 H 595.225 2.46975 0.666089 0
M  V30 6359 H 594.869 4.82526 1.58529 0
M  V30 6360 H 594.799 4.15547 3.23462 0
M  V30 6361 H 597.29 3.21291 1.98949 0
M  V30 6362 H 597.603 6.87799 3.52352 0
M  V30 6363 H 595.948 6.18239 3.17498 0
M  V30 6364 H 599.139 4.0235 2.39233 0
M  V30 6365 H 599.312 5.6947 3.09206 0
M  V30 6366 N 592.718 -0.936591 1.26751 0
M  V30 6367 C 593.681 -2.01752 1.08761 0
M  V30 6368 C 594.681 -1.60763 0.0344435 0
M  V30 6369 O 595.871 -1.71963 0.278258 0
M  V30 6370 C 593.003 -3.34543 0.655271 0
M  V30 6371 H 594.196 -2.19143 2.04735 0
M  V30 6372 H 591.749 -1.11618 1.09413 0
M  V30 6373 H 592.484 -3.22851 -0.30626 0
M  V30 6374 H 592.269 -3.65647 1.41578 0
M  V30 6375 H 593.759 -4.13944 0.551378 0
M  V30 6376 N 594.196 -1.08629 -1.14182 0
M  V30 6377 C 595.444 -0.815731 -1.84906 0
M  V30 6378 C 595.765 0.660441 -1.83475 0
M  V30 6379 O 595.035 1.47888 -1.28476 0
M  V30 6380 H 593.615 -0.298773 -0.684648 0
M  V30 6381 H 596.277 -1.37274 -1.38354 0
M  V30 6382 H 595.373 -1.16193 -2.89665 0
M  V30 6383 N 595.674 1.31259 -0.872281 0
M  V30 6384 C 596.584 2.32221 -0.333255 0
M  V30 6385 C 597.6 1.6481 0.558013 0
M  V30 6386 O 598.776 1.96212 0.454175 0
M  V30 6387 C 595.841 3.43708 0.454479 0
M  V30 6388 C 594.902 4.26774 -0.465024 0
M  V30 6389 C 594.135 5.32937 0.28521 0
M  V30 6390 O 594.358 5.49968 1.513 0
M  V30 6391 O 593.292 6.00834 -0.358126 0
M  V30 6392 H 597.118 2.80252 -1.17016 0
M  V30 6393 H 594.703 1.352 -0.635724 0
M  V30 6394 H 596.585 4.11656 0.900963 0
M  V30 6395 H 595.26 2.97836 1.26789 0
M  V30 6396 H 594.167 3.61571 -0.960055 0
M  V30 6397 H 595.5 4.76217 -1.2441 0
M  V30 6398 N 597.152 0.631951 1.44375 0
M  V30 6399 C 598.38 0.143867 2.06399 0
M  V30 6400 C 598.795 -1.18188 1.47231 0
M  V30 6401 O 598.152 -1.72511 0.595498 0
M  V30 6402 C 598.203 0.0238253 3.61492 0
M  V30 6403 O 597.924 1.29715 4.18456 0
M  V30 6404 C 599.425 -0.492856 4.40552 0
M  V30 6405 H 596.645 0.0800542 0.666207 0
M  V30 6406 H 599.189 0.866586 1.85231 0
M  V30 6407 H 597.344 -0.649338 3.81919 0
M  V30 6408 H 597.758 1.14252 5.11905 0
M  V30 6409 H 599.232 -0.525861 5.49489 0
M  V30 6410 H 599.709 -1.52006 4.12057 0
M  V30 6411 H 600.315 0.147085 4.25046 0
M  V30 6412 N 598.631 -1.53133 0.372548 0
M  V30 6413 C 599.564 -2.22328 -0.514361 0
M  V30 6414 C 600.542 -1.21776 -1.07747 0
M  V30 6415 O 601.726 -1.50704 -1.13228 0
M  V30 6416 C 598.853 -2.92343 -1.71035 0
M  V30 6417 C 597.899 -4.07026 -1.27405 0
M  V30 6418 S 598.732 -5.34821 -0.269526 0
M  V30 6419 C 599.888 -6.08352 -1.47168 0
M  V30 6420 H 600.121 -2.9721 0.0732683 0
M  V30 6421 H 597.654 -1.53603 0.156673 0
M  V30 6422 H 599.612 -3.33296 -2.39634 0
M  V30 6423 H 598.273 -2.17173 -2.26925 0
M  V30 6424 H 597.466 -4.55056 -2.16656 0
M  V30 6425 H 597.068 -3.68001 -0.66719 0
M  V30 6426 H 599.36 -6.33507 -2.40157 0
M  V30 6427 H 600.303 -7.0053 -1.03263 0
M  V30 6428 H 600.711 -5.38893 -1.6809 0
M  V30 6429 N 600.109 -0.101901 -1.5727 0
M  V30 6430 C 601.019 0.868647 -2.17926 0
M  V30 6431 C 602.035 1.30527 -1.1506 0
M  V30 6432 O 603.211 1.37178 -1.47459 0
M  V30 6433 C 600.276 2.10727 -2.75309 0
M  V30 6434 C 599.337 1.7242 -3.93154 0
M  V30 6435 C 598.57 2.90377 -4.47791 0
M  V30 6436 O 598.793 4.05305 -4.01353 0
M  V30 6437 O 597.727 2.6845 -5.38719 0
M  V30 6438 H 601.553 0.382544 -3.01281 0
M  V30 6439 H 599.138 0.122812 -1.48894 0
M  V30 6440 H 601.02 2.83303 -3.11958 0
M  V30 6441 H 599.695 2.58376 -1.94996 0
M  V30 6442 H 598.602 0.970039 -3.61305 0
M  V30 6443 H 599.935 1.29528 -4.74851 0
M  V30 6444 N 601.587 1.56661 0.17182 0
M  V30 6445 C 602.998 1.71652 0.734329 0
M  V30 6446 C 603.349 0.712335 1.82812 0
M  V30 6447 O 602.474 -0.126401 2.16031 0
M  V30 6448 C 603.069 3.11226 1.3388 0
M  V30 6449 C 601.628 3.27904 1.84813 0
M  V30 6450 C 600.775 2.67603 0.726917 0
M  V30 6451 H 603.726 1.5861 -0.0535665 0
M  V30 6452 H 603.747 3.09849 2.20849 0
M  V30 6453 H 603.259 3.8429 0.54249 0
M  V30 6454 H 601.36 2.59796 2.6709 0
M  V30 6455 H 601.473 4.35637 1.99392 0
M  V30 6456 H 599.837 2.274 1.14723 0
M  V30 6457 H 600.62 3.43252 -0.0575334 0
M  V30 6458 N 603.065 -0.440357 1.51323 0
M  V30 6459 C 604.028 -1.51679 1.71832 0
M  V30 6460 C 605.028 -1.49648 0.588386 0
M  V30 6461 O 606.218 -1.51724 0.855891 0
M  V30 6462 C 603.35 -2.91228 1.77199 0
M  V30 6463 H 604.543 -1.34799 2.67898 0
M  V30 6464 H 602.096 -0.66883 1.41267 0
M  V30 6465 H 602.831 -3.13516 0.829363 0
M  V30 6466 H 602.616 -2.94107 2.59314 0
M  V30 6467 H 604.106 -3.69321 1.94915 0
M  V30 6468 N 604.543 -1.41418 -0.695603 0
M  V30 6469 C 605.473 -1.46035 -1.82197 0
M  V30 6470 C 606.454 -0.319025 -1.67082 0
M  V30 6471 O 607.639 -0.530462 -1.86815 0
M  V30 6472 C 604.769 -1.34179 -3.20333 0
M  V30 6473 C 603.723 -2.46123 -3.50154 0
M  V30 6474 C 603.049 -2.19332 -4.87645 0
M  V30 6475 C 604.349 -3.88463 -3.49133 0
M  V30 6476 H 606.043 -2.40303 -1.78591 0
M  V30 6477 H 603.589 -1.15663 -0.857797 0
M  V30 6478 H 605.542 -1.36021 -3.98844 0
M  V30 6479 H 604.266 -0.363952 -3.24566 0
M  V30 6480 H 602.925 -2.43563 -2.73994 0
M  V30 6481 H 602.573 -1.19891 -4.88503 0
M  V30 6482 H 602.273 -2.94344 -5.08562 0
M  V30 6483 H 603.797 -2.22889 -5.68465 0
M  V30 6484 H 605.211 -3.92738 -4.17648 0
M  V30 6485 H 603.608 -4.63158 -3.81582 0
M  V30 6486 H 604.678 -4.16617 -2.48109 0
M  V30 6487 N 606.021 0.929856 -1.27246 0
M  V30 6488 C 607.437 1.20542 -1.04603 0
M  V30 6489 C 607.637 2.00276 0.221754 0
M  V30 6490 O 606.693 2.34835 0.927833 0
M  V30 6491 C 608.006 1.95566 -2.28417 0
M  V30 6492 C 609.554 2.08513 -2.33433 0
M  V30 6493 C 610.029 2.86943 -3.5697 0
M  V30 6494 N 611.52 2.94512 -3.57515 0
M  V30 6495 C 612.255 3.55656 -4.49774 0
M  V30 6496 N 611.751 4.18209 -5.52334 0
M  V30 6497 N 613.544 3.53038 -4.37402 0
M  V30 6498 H 605.695 0.397113 -2.08655 0
M  V30 6499 H 607.958 0.238277 -0.917566 0
M  V30 6500 H 607.664 1.44395 -3.20691 0
M  V30 6501 H 607.538 2.9619 -2.33563 0
M  V30 6502 H 609.925 2.58872 -1.41666 0
M  V30 6503 H 610.006 1.07117 -2.32292 0
M  V30 6504 H 609.65 2.37268 -4.49072 0
M  V30 6505 H 609.58 3.8862 -3.55362 0
M  V30 6506 H 612.071 2.50053 -2.83341 0
M  V30 6507 H 612.384 4.62796 -6.18902 0
M  V30 6508 H 610.729 4.16761 -5.56179 0
M  V30 6509 H 613.92 3.0337 -3.56489 0
M  V30 6510 H 614.093 4.004 -5.09493 0
M  V30 6511 N 607.499 1.09233 1.13605 0
M  V30 6512 C 608.462 0.733553 2.17144 0
M  V30 6513 C 609.462 -0.235873 1.59061 0
M  V30 6514 O 610.652 -0.0143167 1.74194 0
M  V30 6515 C 607.784 0.084471 3.40795 0
M  V30 6516 H 608.977 1.65049 2.50397 0
M  V30 6517 H 606.53 0.891264 1.28399 0
M  V30 6518 H 607.265 -0.843795 3.1313 0
M  V30 6519 H 607.05 0.781985 3.84223 0
M  V30 6520 H 608.54 -0.151216 4.17326 0
M  V30 6521 N 608.977 -1.30795 0.87923 0
M  V30 6522 C 610.223 -1.96653 0.495519 0
M  V30 6523 C 610.556 -1.69282 -0.951703 0
M  V30 6524 O 609.831 -0.994374 -1.6716 0
M  V30 6525 C 610.114 -3.51898 0.764174 0
M  V30 6526 C 609.967 -3.88808 2.2616 0
M  V30 6527 C 611.286 -4.39462 0.236825 0
M  V30 6528 H 608.405 -0.7143 0.181507 0
M  V30 6529 H 611.047 -1.54765 1.10217 0
M  V30 6530 H 609.197 -3.87709 0.247841 0
M  V30 6531 H 610.869 -3.63051 2.8459 0
M  V30 6532 H 609.112 -3.37082 2.73053 0
M  V30 6533 H 609.783 -4.97086 2.4002 0
M  V30 6534 H 612.259 -4.10528 0.678683 0
M  V30 6535 H 611.135 -5.47018 0.454176 0
M  V30 6536 H 611.396 -4.33621 -0.861683 0
M  V30 6537 N 610.455 -0.639598 -1.44038 0
M  V30 6538 C 611.695 -0.150902 -2.03842 0
M  V30 6539 C 612.059 1.20744 -1.49281 0
M  V30 6540 O 613.26 1.78875 -2.00642 0
M  V30 6541 C 611.531 -0.146114 -3.57101 0
M  V30 6542 S 613.09 0.276725 -4.37927 0
M  V30 6543 H 609.908 -0.0652447 -0.708 0
M  V30 6544 H 612.51 -0.844886 -1.76301 0
M  V30 6545 H 611.214 -1.13769 -3.94316 0
M  V30 6546 H 610.745 0.568846 -3.89266 0
M  V30 6547 H 612.76 1.51893 -4.7238 0
M  V30 6548 N 611.933 1.52934 -0.380664 0
M  V30 6549 C 612.88 2.26197 0.458641 0
M  V30 6550 C 613.85 1.27462 1.06502 0
M  V30 6551 O 615.035 1.56274 1.09467 0
M  V30 6552 C 612.175 3.06571 1.58456 0
M  V30 6553 C 611.288 4.20222 1.00189 0
M  V30 6554 C 610.423 4.88007 2.09815 0
M  V30 6555 C 609.462 5.93665 1.49092 0
M  V30 6556 N 608.599 6.55081 2.52613 0
M  V30 6557 H 613.439 2.975 -0.172595 0
M  V30 6558 H 610.976 1.4678 -0.0969426 0
M  V30 6559 H 612.934 3.51455 2.24801 0
M  V30 6560 H 611.564 2.37494 2.18624 0
M  V30 6561 H 610.616 3.79714 0.228292 0
M  V30 6562 H 611.928 4.96102 0.518064 0
M  V30 6563 H 611.082 5.36151 2.83948 0
M  V30 6564 H 609.821 4.11632 2.61555 0
M  V30 6565 H 608.826 5.44868 0.7348 0
M  V30 6566 H 610.051 6.71969 0.981582 0
M  V30 6567 H 607.997 5.8155 3.03538 0
M  V30 6568 H 607.914 7.26548 2.08961 0
M  V30 6569 H 609.182 7.07871 3.26402 0
M  V30 6570 N 613.412 0.11024 1.57214 0
M  V30 6571 C 614.689 -0.592956 1.86396 0
M  V30 6572 C 615.069 -1.85379 1.00985 0
M  V30 6573 O 614.417 -2.28337 0.0863592 0
M  V30 6574 C 614.627 -0.893816 3.3736 0
M  V30 6575 C 615.975 -1.25069 4.05762 0
M  V30 6576 O 616.999 -0.984356 3.42329 0
M  V30 6577 O 615.858 -1.75017 5.17718 0
M  V30 6578 H 612.952 -0.29828 0.771335 0
M  V30 6579 H 615.498 0.144083 1.69087 0
M  V30 6580 H 614.27 2.6031e-05 3.913 0
M  V30 6581 H 613.893 -1.68631 3.60068 0
M  V30 6582 N 614.89 -1.56749 -0.16351 0
M  V30 6583 C 616.136 -1.82704 -0.880168 0
M  V30 6584 C 616.469 -0.689311 -1.81555 0
M  V30 6585 O 615.744 0.308224 -1.92042 0
M  V30 6586 C 616.027 -3.19084 -1.66905 0
M  V30 6587 C 615.88 -4.43397 -0.756269 0
M  V30 6588 C 617.199 -3.52493 -2.63509 0
M  V30 6589 H 614.318 -0.664608 -0.318535 0
M  V30 6590 H 616.96 -1.89438 -0.146036 0
M  V30 6591 H 615.11 -3.13475 -2.2949 0
M  V30 6592 H 616.782 -4.61079 -0.14269 0
M  V30 6593 H 615.025 -4.33752 -0.0647944 0
M  V30 6594 H 615.696 -5.3539 -1.34393 0
M  V30 6595 H 618.172 -3.58606 -2.11047 0
M  V30 6596 H 617.048 -4.48979 -3.15767 0
M  V30 6597 H 617.309 -2.77597 -3.44082 0
M  V30 6598 N 616.368 0.432326 -1.51554 0
M  V30 6599 C 617.784 0.769195 -1.39841 0
M  V30 6600 C 617.984 1.95584 -0.484675 0
M  V30 6601 O 617.04 2.52433 0.0582829 0
M  V30 6602 C 618.353 1.04487 -2.81963 0
M  V30 6603 C 619.901 1.149 -2.91148 0
M  V30 6604 C 620.376 1.45758 -4.34187 0
M  V30 6605 N 621.867 1.52671 -4.37317 0
M  V30 6606 C 622.602 1.78129 -5.4503 0
M  V30 6607 N 622.098 2.01345 -6.62897 0
M  V30 6608 N 623.891 1.79953 -5.32516 0
M  V30 6609 H 616.042 -0.349122 -2.09511 0
M  V30 6610 H 618.305 -0.0938113 -0.943347 0
M  V30 6611 H 618.011 0.24557 -3.50842 0
M  V30 6612 H 617.885 1.97119 -3.21596 0
M  V30 6613 H 620.272 1.93891 -2.22464 0
M  V30 6614 H 620.353 0.201568 -2.55005 0
M  V30 6615 H 619.997 0.672917 -5.03423 0
M  V30 6616 H 619.927 2.41715 -4.67848 0
M  V30 6617 H 622.418 1.36612 -3.52343 0
M  V30 6618 H 622.731 2.20155 -7.40778 0
M  V30 6619 H 621.076 1.98657 -6.66003 0
M  V30 6620 H 624.267 1.61337 -4.39418 0
M  V30 6621 H 624.44 1.99455 -6.1654 0
M  V30 6622 N 617.846 1.41785 0.688094 0
M  V30 6623 C 619.095 1.4084 1.44385 0
M  V30 6624 C 619.408 0.0234166 1.95586 0
M  V30 6625 O 620.614 -0.108647 2.71283 0
M  V30 6626 C 619.07 2.47675 2.61123 0
M  V30 6627 C 618.678 3.92116 2.16677 0
M  V30 6628 C 620.422 2.55877 3.38714 0
M  V30 6629 C 618.329 4.90487 3.30419 0
M  V30 6630 H 617.259 0.523787 0.542368 0
M  V30 6631 H 619.91 1.6764 0.74627 0
M  V30 6632 H 618.292 2.14018 3.33185 0
M  V30 6633 H 619.466 4.35059 1.51856 0
M  V30 6634 H 617.781 3.87642 1.5206 0
M  V30 6635 H 620.378 3.26553 4.234 0
M  V30 6636 H 620.721 1.59801 3.84408 0
M  V30 6637 H 621.254 2.88662 2.73714 0
M  V30 6638 H 617.993 5.87994 2.89729 0
M  V30 6639 H 617.513 4.52187 3.94065 0
M  V30 6640 H 619.192 5.11591 3.96085 0
M  V30 6641 N 619.324 -0.923095 1.27737 0
M  V30 6642 C 620.572 -1.66797 1.14119 0
M  V30 6643 C 620.893 -1.92479 -0.312541 0
M  V30 6644 O 620.163 -1.53432 -1.218 0
M  V30 6645 H 618.743 -0.618196 0.419336 0
M  V30 6646 H 621.405 -1.10815 1.60331 0
M  V30 6647 H 620.501 -2.63424 1.67374 0
M  V30 6648 N 620.802 -1.09834 -1.13024 0
M  V30 6649 C 622.03 -0.858902 -1.8823 0
M  V30 6650 C 622.445 0.590164 -1.79339 0
M  V30 6651 O 621.802 1.4065 -1.16292 0
M  V30 6652 C 621.853 -1.29066 -3.37675 0
M  V30 6653 O 621.574 -2.6829 -3.46341 0
M  V30 6654 C 623.075 -1.08421 -4.29837 0
M  V30 6655 H 620.295 -0.308713 -0.595766 0
M  V30 6656 H 622.839 -1.4614 -1.4305 0
M  V30 6657 H 620.994 -0.731961 -3.80422 0
M  V30 6658 H 621.408 -2.86598 -4.39274 0
M  V30 6659 H 622.882 -1.43553 -5.33007 0
M  V30 6660 H 623.359 -0.0223315 -4.39194 0
M  V30 6661 H 623.965 -1.62907 -3.92863 0
M  V30 6662 N 622.28 1.30327 -0.886154 0
M  V30 6663 C 623.529 1.95373 -0.501243 0
M  V30 6664 C 623.842 1.70722 0.954634 0
M  V30 6665 O 625.048 2.29761 1.44644 0
M  V30 6666 C 623.504 3.49828 -0.845493 0
M  V30 6667 C 623.112 3.83296 -2.31922 0
M  V30 6668 C 624.856 4.2118 -0.529838 0
M  V30 6669 C 622.763 5.30935 -2.60504 0
M  V30 6670 H 621.693 0.731274 -0.183722 0
M  V30 6671 H 624.344 1.48258 -1.08129 0
M  V30 6672 H 622.726 3.95522 -0.19452 0
M  V30 6673 H 623.9 3.48508 -3.01461 0
M  V30 6674 H 622.215 3.2505 -2.60253 0
M  V30 6675 H 624.812 5.29825 -0.720401 0
M  V30 6676 H 625.155 4.12902 0.530828 0
M  V30 6677 H 625.688 3.81173 -1.13806 0
M  V30 6678 H 622.427 5.44265 -3.65316 0
M  V30 6679 H 621.947 5.67019 -1.95575 0
M  V30 6680 H 623.626 5.98381 -2.46066 0
M  V30 6681 N 623.758 0.647228 1.43697 0
M  V30 6682 C 624.688 -0.0345631 2.33474 0
M  V30 6683 C 625.669 -0.818193 1.4913 0
M  V30 6684 O 626.854 -0.780867 1.77809 0
M  V30 6685 C 623.984 -1.00576 3.32418 0
M  V30 6686 C 622.938 -0.33266 4.26705 0
M  V30 6687 C 622.264 -1.41489 5.1564 0
M  V30 6688 C 623.564 0.771204 5.16575 0
M  V30 6689 H 625.258 0.715163 2.90733 0
M  V30 6690 H 622.804 0.345364 1.39797 0
M  V30 6691 H 624.757 -1.49159 3.94119 0
M  V30 6692 H 623.481 -1.78657 2.73403 0
M  V30 6693 H 622.14 0.13267 3.6636 0
M  V30 6694 H 621.788 -2.18698 4.52968 0
M  V30 6695 H 621.488 -0.969799 5.79542 0
M  V30 6696 H 623.012 -1.9022 5.80214 0
M  V30 6697 H 624.426 0.36779 5.72119 0
M  V30 6698 H 622.823 1.1404 5.89165 0
M  V30 6699 H 623.893 1.63169 4.56622 0
M  V30 6700 N 625.236 -1.5273 0.388769 0
M  V30 6701 C 626.485 -2.00757 -0.194833 0
M  V30 6702 C 626.798 -1.27951 -1.47946 0
M  V30 6703 O 628.004 -1.66686 -2.14308 0
M  V30 6704 C 626.46 -3.57695 -0.397762 0
M  V30 6705 C 626.068 -4.394 0.873583 0
M  V30 6706 C 627.812 -4.14012 -0.937759 0
M  V30 6707 C 625.719 -5.87938 0.638962 0
M  V30 6708 H 624.649 -0.750101 -0.0765845 0
M  V30 6709 H 627.3 -1.76239 0.511086 0
M  V30 6710 H 625.682 -3.7846 -1.16552 0
M  V30 6711 H 626.856 -4.30403 1.64591 0
M  V30 6712 H 625.171 -3.94301 1.33849 0
M  V30 6713 H 627.768 -5.22645 -1.12899 0
M  V30 6714 H 628.111 -3.7007 -1.90666 0
M  V30 6715 H 628.644 -3.97137 -0.229588 0
M  V30 6716 H 625.383 -6.36202 1.57885 0
M  V30 6717 H 624.903 -5.99726 -0.094443 0
M  V30 6718 H 626.582 -6.46423 0.273299 0
M  V30 6719 N 626.714 -0.118576 -1.57153 0
M  V30 6720 C 627.646 0.862247 -2.12363 0
M  V30 6721 C 628.659 1.23025 -1.06625 0
M  V30 6722 O 629.848 1.17927 -1.33998 0
M  V30 6723 C 626.948 2.16425 -2.60794 0
M  V30 6724 C 626.121 1.96801 -3.90626 0
M  V30 6725 C 625.18 3.10726 -4.2466 0
M  V30 6726 O 624.206 2.83659 -4.93484 0
M  V30 6727 N 625.408 4.37147 -3.81946 0
M  V30 6728 H 628.173 0.390564 -2.97144 0
M  V30 6729 H 625.734 0.0658591 -1.61766 0
M  V30 6730 H 627.726 2.91633 -2.80593 0
M  V30 6731 H 626.296 2.54943 -1.80895 0
M  V30 6732 H 625.516 1.05787 -3.7974 0
M  V30 6733 H 626.804 1.80993 -4.7552 0
M  V30 6734 H 626.202 4.62014 -3.26435 0
M  V30 6735 H 624.759 5.09229 -4.06853 0
M  V30 6736 N 628.193 1.56834 0.155195 0
M  V30 6737 C 629.421 1.87049 0.884326 0
M  V30 6738 C 629.836 0.705839 1.7511 0
M  V30 6739 O 629.193 -0.324641 1.79589 0
M  V30 6740 C 629.244 3.1644 1.74781 0
M  V30 6741 O 628.965 4.28417 0.915978 0
M  V30 6742 C 630.466 3.60113 2.58522 0
M  V30 6743 H 627.686 0.620196 0.25612 0
M  V30 6744 H 630.23 2.03946 0.150445 0
M  V30 6745 H 628.385 3.01321 2.43484 0
M  V30 6746 H 628.799 5.02353 1.50803 0
M  V30 6747 H 630.273 4.53508 3.14698 0
M  V30 6748 H 630.75 2.85005 3.34169 0
M  V30 6749 H 631.356 3.77898 1.95124 0
M  V30 6750 N 629.671 -0.424282 1.51781 0
M  V30 6751 C 630.619 -1.53649 1.74628 0
M  V30 6752 C 631.613 -1.57923 0.612922 0
M  V30 6753 O 632.819 -1.61511 0.794618 0
M  V30 6754 H 629.194 -0.510706 0.551981 0
M  V30 6755 H 631.165 -1.31558 2.67834 0
M  V30 6756 C 629.914 -2.91177 1.9003 0
M  V30 6757 H 629.237 -2.88625 2.76651 0
M  V30 6758 H 630.677 -3.6833 2.10021 0
M  V30 6759 C 629.136 -3.30303 0.663435 0
M  V30 6760 O 629.666 -4.01315 -0.175812 0
M  V30 6761 N 627.872 -2.86201 0.503723 0
M  V30 6762 H 627.419 -2.28583 1.18776 0
M  V30 6763 H 627.377 -3.12741 -0.322575 0
M  V30 6764 N 631.149 -1.42148 -0.680565 0
M  V30 6765 C 632.081 -1.41119 -1.80605 0
M  V30 6766 C 633.094 -0.311099 -1.598 0
M  V30 6767 O 634.283 -0.573813 -1.69026 0
M  V30 6768 C 631.383 -1.18204 -3.17618 0
M  V30 6769 C 630.556 -2.40537 -3.65322 0
M  V30 6770 C 629.615 -2.13254 -4.8105 0
M  V30 6771 O 628.641 -2.8641 -4.91892 0
M  V30 6772 N 629.843 -1.13208 -5.69354 0
M  V30 6773 H 632.608 -2.38128 -1.81975 0
M  V30 6774 H 630.169 -1.36953 -0.863446 0
M  V30 6775 H 632.161 -0.97878 -3.92686 0
M  V30 6776 H 630.731 -0.29738 -3.11182 0
M  V30 6777 H 629.951 -2.76468 -2.80996 0
M  V30 6778 H 631.239 -3.22012 -3.93936 0
M  V30 6779 H 630.637 -0.526893 -5.63241 0
M  V30 6780 H 629.194 -0.988699 -6.44258 0
M  V30 6781 N 632.627 0.916307 -1.28225 0
M  V30 6782 C 633.557 2.0352 -1.14464 0
M  V30 6783 C 634.538 1.70045 -0.0430844 0
M  V30 6784 O 635.723 1.92954 -0.219619 0
M  V30 6785 C 632.853 3.37889 -0.803027 0
M  V30 6786 C 631.807 3.85516 -1.85908 0
M  V30 6787 C 631.133 5.1682 -1.37116 0
M  V30 6788 C 632.433 4.07655 -3.26519 0
M  V30 6789 H 634.127 2.1529 -2.08064 0
M  V30 6790 H 631.673 1.03446 -1.00174 0
M  V30 6791 H 633.626 4.15654 -0.693537 0
M  V30 6792 H 632.35 3.26164 0.168674 0
M  V30 6793 H 631.009 3.09953 -1.95767 0
M  V30 6794 H 630.657 5.01497 -0.38859 0
M  V30 6795 H 630.357 5.49657 -2.07728 0
M  V30 6796 H 631.881 5.97143 -1.27484 0
M  V30 6797 H 633.295 4.75953 -3.19596 0
M  V30 6798 H 631.692 4.51818 -3.94943 0
M  V30 6799 H 632.762 3.12553 -3.70727 0
M  V30 6800 N 634.105 1.10431 1.1244 0
M  V30 6801 C 635.333 0.868872 1.87772 0
M  V30 6802 C 635.748 -0.580645 1.7965 0
M  V30 6803 O 635.105 -1.40031 1.17036 0
M  V30 6804 C 635.156 1.30855 3.36986 0
M  V30 6805 O 634.877 2.70123 3.44914 0
M  V30 6806 C 636.378 1.107 4.29256 0
M  V30 6807 H 633.598 0.311868 0.59412 0
M  V30 6808 H 636.142 1.46897 1.42273 0
M  V30 6809 H 634.297 0.752126 3.80029 0
M  V30 6810 H 634.711 2.88923 4.37748 0
M  V30 6811 H 636.185 1.46378 5.32238 0
M  V30 6812 H 636.662 0.0456228 4.39176 0
M  V30 6813 H 637.268 1.64988 3.91994 0
M  V30 6814 N 635.583 -1.29855 0.893053 0
M  V30 6815 C 636.831 -1.9544 0.514566 0
M  V30 6816 C 637.152 -1.70795 -0.940959 0
M  V30 6817 O 636.422 -1.03601 -1.66264 0
M  V30 6818 H 635.002 -0.723137 0.187302 0
M  V30 6819 H 637.664 -1.58234 1.13789 0
M  V30 6820 H 636.76 -3.04341 0.691581 0
M  V30 6821 N 637.061 -0.65484 -1.43351 0
M  V30 6822 C 637.971 0.0363603 -2.34572 0
M  V30 6823 C 638.987 0.810432 -1.53974 0
M  V30 6824 O 640.163 0.757308 -1.86619 0
M  V30 6825 C 637.228 0.989733 -3.32273 0
M  V30 6826 C 636.289 0.212414 -4.28774 0
M  V30 6827 C 635.522 1.12038 -5.21808 0
M  V30 6828 O 635.745 2.35967 -5.19303 0
M  V30 6829 O 634.679 0.59191 -5.98982 0
M  V30 6830 H 638.505 -0.714527 -2.95175 0
M  V30 6831 H 636.09 -0.415029 -1.4352 0
M  V30 6832 H 637.972 1.53759 -3.92347 0
M  V30 6833 H 636.647 1.72082 -2.74171 0
M  V30 6834 H 635.554 -0.379062 -3.72175 0
M  V30 6835 H 636.887 -0.479138 -4.89862 0
M  V30 6836 N 638.539 1.52521 -0.396863 0
M  V30 6837 C 639.95 1.86547 0.0754868 0
M  V30 6838 C 640.301 1.31621 1.45501 0
M  V30 6839 O 639.426 0.650563 2.0639 0
M  V30 6840 C 640.021 3.38495 0.143754 0
M  V30 6841 C 638.58 3.72205 0.560413 0
M  V30 6842 C 637.727 2.75954 -0.272856 0
M  V30 6843 H 640.678 1.46323 -0.614434 0
M  V30 6844 H 640.699 3.68153 0.961425 0
M  V30 6845 H 640.211 3.78442 -0.860415 0
M  V30 6846 H 638.312 3.3783 1.57167 0
M  V30 6847 H 638.425 4.78074 0.313314 0
M  V30 6848 H 636.789 2.53339 0.263 0
M  V30 6849 H 637.572 3.1874 -1.27515 0
M  V30 6850 N 640.017 0.126909 1.57088 0
M  V30 6851 C 640.927 -0.833867 2.1928 0
M  V30 6852 C 641.943 -1.2868 1.17122 0
M  V30 6853 O 643.119 -1.34815 1.49622 0
M  V30 6854 C 640.184 -2.0632 2.78627 0
M  V30 6855 C 639.245 -1.66143 3.95847 0
M  V30 6856 C 638.478 -2.83217 4.52354 0
M  V30 6857 O 638.701 -3.98868 4.0775 0
M  V30 6858 O 637.635 -2.59846 5.42922 0
M  V30 6859 H 641.461 -0.334564 3.01852 0
M  V30 6860 H 639.046 -0.0991091 1.49071 0
M  V30 6861 H 640.928 -2.78304 3.16425 0
M  V30 6862 H 639.603 -2.55242 1.99082 0
M  V30 6863 H 638.51 -0.912435 3.62802 0
M  V30 6864 H 639.843 -1.21957 4.76852 0
M  V30 6865 N 641.495 -1.56914 -0.146875 0
M  V30 6866 C 642.425 -2.01308 -1.1831 0
M  V30 6867 C 643.406 -0.892664 -1.44795 0
M  V30 6868 O 644.591 -1.16048 -1.55713 0
M  V30 6869 C 641.721 -2.3938 -2.51624 0
M  V30 6870 C 640.675 -3.54608 -2.3966 0
M  V30 6871 C 640.001 -3.78493 -3.77686 0
M  V30 6872 C 641.301 -4.87269 -1.88058 0
M  V30 6873 H 642.995 -2.88123 -0.813964 0
M  V30 6874 H 640.541 -1.38615 -0.3901 0
M  V30 6875 H 642.494 -2.69037 -3.24341 0
M  V30 6876 H 641.218 -1.49502 -2.90373 0
M  V30 6877 H 639.877 -3.25116 -1.69396 0
M  V30 6878 H 639.525 -2.85866 -4.13871 0
M  V30 6879 H 639.225 -4.56039 -3.70543 0
M  V30 6880 H 640.749 -4.10576 -4.51951 0
M  V30 6881 H 642.163 -5.15644 -2.50568 0
M  V30 6882 H 640.56 -5.68622 -1.91805 0
M  V30 6883 H 641.63 -4.77634 -0.836277 0
M  V30 6884 N 642.974 0.416227 -1.52004 0
M  V30 6885 C 643.924 1.50558 -1.7122 0
M  V30 6886 C 644.908 1.50613 -0.56609 0
M  V30 6887 O 646.1 1.56709 -0.822874 0
M  V30 6888 C 643.229 2.88556 -1.85984 0
M  V30 6889 C 642.315 2.93177 -3.06445 0
M  V30 6890 N 642.706 2.67505 -4.29272 0
M  V30 6891 C 641.004 3.24343 -3.06133 0
M  V30 6892 C 641.705 2.78511 -5.10692 0
M  V30 6893 N 640.681 3.11087 -4.45787 0
M  V30 6894 H 644.483 1.29494 -2.63834 0
M  V30 6895 H 641.997 0.62384 -1.4994 0
M  V30 6896 H 643.994 3.66954 -1.97865 0
M  V30 6897 H 642.654 3.10624 -0.945654 0
M  V30 6898 H 643.665 2.42033 -4.57865 0
M  V30 6899 H 640.342 3.52051 -2.24425 0
M  V30 6900 H 641.732 2.62438 -6.18527 0
M  V30 6901 N 644.452 1.42507 0.673017 0
M  V30 6902 C 645.682 1.46261 1.45916 0
M  V30 6903 C 646.09 0.0729724 1.89059 0
M  V30 6904 O 645.433 -0.922987 1.58829 0
M  V30 6905 C 645.495 2.32853 2.73898 0
M  V30 6906 C 645.159 3.80699 2.52819 0
M  V30 6907 C 646.156 4.72307 2.17306 0
M  V30 6908 C 643.841 4.24983 2.67758 0
M  V30 6909 C 645.835 6.06192 1.97003 0
M  V30 6910 C 643.522 5.58927 2.4707 0
M  V30 6911 C 644.52 6.49348 2.11746 0
M  V30 6912 O 644.208 7.80817 1.91259 0
M  V30 6913 H 643.94 0.499561 0.455428 0
M  V30 6914 H 646.494 1.87697 0.834196 0
M  V30 6915 H 644.724 1.86268 3.38882 0
M  V30 6916 H 646.413 2.28041 3.35786 0
M  V30 6917 H 647.179 4.39378 2.05359 0
M  V30 6918 H 643.058 3.54893 2.94231 0
M  V30 6919 H 646.602 6.76731 1.69355 0
M  V30 6920 H 642.499 5.91429 2.58615 0
M  V30 6921 H 643.267 7.92194 2.05843 0
M  V30 6922 N 645.93 -0.909495 1.28709 0
M  V30 6923 C 646.86 -2.0291 1.15542 0
M  V30 6924 C 647.841 -1.7002 0.0521017 0
M  V30 6925 O 649.026 -1.92835 0.229849 0
M  V30 6926 C 646.156 -3.37458 0.820935 0
M  V30 6927 C 645.11 -3.84524 1.87949 0
M  V30 6928 C 644.436 -5.16086 1.39854 0
M  V30 6929 C 645.736 -4.05918 3.28676 0
M  V30 6930 H 647.43 -2.14183 2.09203 0
M  V30 6931 H 644.976 -1.02913 1.00722 0
M  V30 6932 H 646.929 -4.1528 0.715571 0
M  V30 6933 H 645.653 -3.26249 -0.151374 0
M  V30 6934 H 644.312 -3.08911 1.97408 0
M  V30 6935 H 643.96 -5.01284 0.41518 0
M  V30 6936 H 643.66 -5.48547 2.1064 0
M  V30 6937 H 645.184 -5.96459 1.30649 0
M  V30 6938 H 646.598 -4.74252 3.22115 0
M  V30 6939 H 644.995 -4.49717 3.97334 0
M  V30 6940 H 646.065 -3.10583 3.72379 0
M  V30 6941 N 647.408 -1.11026 -1.11852 0
M  V30 6942 C 648.824 -0.843294 -1.35502 0
M  V30 6943 C 649.024 0.534179 -1.9429 0
M  V30 6944 O 648.08 1.28585 -2.17307 0
M  V30 6945 C 649.393 -1.94793 -2.29077 0
M  V30 6946 C 650.941 -1.97709 -2.42652 0
M  V30 6947 C 651.416 -3.07364 -3.39546 0
M  V30 6948 N 652.907 -3.0671 -3.47107 0
M  V30 6949 C 653.642 -3.88197 -4.22008 0
M  V30 6950 N 653.138 -4.79635 -4.99922 0
M  V30 6951 N 654.931 -3.76391 -4.17476 0
M  V30 6952 H 647.082 -1.99805 -0.720538 0
M  V30 6953 H 649.345 -0.868633 -0.379711 0
M  V30 6954 H 649.051 -2.93971 -1.93065 0
M  V30 6955 H 648.925 -1.84039 -3.29256 0
M  V30 6956 H 651.312 -0.991604 -2.77941 0
M  V30 6957 H 651.393 -2.1254 -1.4234 0
M  V30 6958 H 651.037 -4.06136 -3.04985 0
M  V30 6959 H 650.967 -2.89774 -4.39703 0
M  V30 6960 H 653.458 -2.40457 -2.91528 0
M  V30 6961 H 653.771 -5.38357 -5.54429 0
M  V30 6962 H 652.116 -4.8366 -4.99097 0
M  V30 6963 H 655.307 -3.04303 -3.55693 0
M  V30 6964 H 655.48 -4.40131 -4.75593 0
M  V30 6965 N 648.886 1.2938 -0.899927 0
M  V30 6966 C 649.816 2.30144 -0.39446 0
M  V30 6967 C 650.797 1.61611 0.530639 0
M  V30 6968 O 651.982 1.89119 0.441319 0
M  V30 6969 C 649.112 3.45229 0.37868 0
M  V30 6970 C 648.066 4.25564 -0.456012 0
M  V30 6971 C 647.392 5.32848 0.444637 0
M  V30 6972 C 648.692 4.93651 -1.70605 0
M  V30 6973 H 650.386 2.72673 -1.23653 0
M  V30 6974 H 647.932 1.31086 -0.596034 0
M  V30 6975 H 649.885 4.14797 0.743037 0
M  V30 6976 H 648.609 3.01545 1.25453 0
M  V30 6977 H 647.268 3.57704 -0.802704 0
M  V30 6978 H 646.916 4.85408 1.31863 0
M  V30 6979 H 646.616 5.87497 -0.110154 0
M  V30 6980 H 648.14 6.05268 0.805182 0
M  V30 6981 H 649.554 5.55655 -1.41141 0
M  V30 6982 H 647.951 5.58233 -2.20217 0
M  V30 6983 H 649.021 4.18926 -2.4419 0
M  V30 6984 N 650.364 0.662433 1.43002 0
M  V30 6985 C 651.775 0.258315 1.84904 0
M  V30 6986 C 652.126 -1.19703 1.55453 0
M  V30 6987 O 651.251 -1.91484 1.00811 0
M  V30 6988 C 651.846 0.462047 3.35635 0
M  V30 6989 C 650.405 0.112165 3.76233 0
M  V30 6990 C 649.552 0.760479 2.66668 0
M  V30 6991 H 652.503 0.865467 1.33024 0
M  V30 6992 H 652.524 -0.289646 3.79396 0
M  V30 6993 H 652.036 1.52135 3.57039 0
M  V30 6994 H 650.137 -0.944179 3.60439 0
M  V30 6995 H 650.25 0.544058 4.76001 0
M  V30 6996 H 648.614 0.192887 2.53969 0
M  V30 6997 H 649.397 1.82299 2.90898 0
M  V30 6998 N 651.842 -1.52309 0.404946 0
M  V30 6999 C 652.789 -2.26898 -0.422597 0
M  V30 7000 C 653.759 -1.2914 -1.04461 0
M  V30 7001 O 654.944 -1.57996 -1.06967 0
M  V30 7002 C 652.084 -3.09053 -1.53559 0
M  V30 7003 C 651.197 -4.21762 -0.934908 0
M  V30 7004 C 650.332 -4.91283 -2.02025 0
M  V30 7005 C 649.371 -5.95962 -1.39628 0
M  V30 7006 N 648.508 -6.59017 -2.42159 0
M  V30 7007 H 653.348 -2.97188 0.219903 0
M  V30 7008 H 650.885 -1.46607 0.120282 0
M  V30 7009 H 652.843 -3.54987 -2.19181 0
M  V30 7010 H 651.473 -2.40942 -2.14818 0
M  V30 7011 H 650.525 -3.80029 -0.167854 0
M  V30 7012 H 651.837 -4.96864 -0.439073 0
M  V30 7013 H 650.991 -5.40601 -2.75383 0
M  V30 7014 H 649.73 -4.15741 -2.54973 0
M  V30 7015 H 648.735 -5.45968 -0.648023 0
M  V30 7016 H 649.96 -6.73445 -0.874553 0
M  V30 7017 H 647.906 -5.86306 -2.94247 0
M  V30 7018 H 647.823 -7.2978 -1.97376 0
M  V30 7019 H 649.091 -7.12974 -3.15099 0
M  V30 7020 N 653.32 -0.135238 -1.57019 0
M  V30 7021 C 654.597 0.563227 -1.87316 0
M  V30 7022 C 654.977 1.83749 -1.03921 0
M  V30 7023 O 654.325 2.2817 -0.122675 0
M  V30 7024 C 654.535 0.840031 -3.3874 0
M  V30 7025 C 655.883 1.18598 -4.077 0
M  V30 7026 O 656.907 0.92977 -3.43851 0
M  V30 7027 O 655.766 1.66758 -5.20436 0
M  V30 7028 H 652.86 0.285971 -0.775983 0
M  V30 7029 H 655.406 -0.170965 -1.68837 0
M  V30 7030 H 654.178 -0.0622785 -3.9125 0
M  V30 7031 H 653.801 1.62882 -3.62706 0
M  V30 7032 N 654.798 1.5699 0.138552 0
M  V30 7033 C 656.047 1.82998 0.848205 0
M  V30 7034 C 656.36 0.717829 1.81952 0
M  V30 7035 O 657.566 0.863756 2.57394 0
M  V30 7036 C 656.022 3.24379 1.55904 0
M  V30 7037 C 655.63 4.43552 0.62971 0
M  V30 7038 C 657.374 3.59654 2.25498 0
M  V30 7039 C 655.281 5.75957 1.34266 0
M  V30 7040 H 654.211 0.682495 0.320495 0
M  V30 7041 H 656.862 1.83222 0.100924 0
M  V30 7042 H 655.244 3.18567 2.35226 0
M  V30 7043 H 656.418 4.6062 -0.128882 0
M  V30 7044 H 654.733 4.16379 0.0417526 0
M  V30 7045 H 657.33 4.55837 2.79493 0
M  V30 7046 H 657.673 2.86124 3.02388 0
M  V30 7047 H 658.206 3.67164 1.53087 0
M  V30 7048 H 654.945 6.52604 0.615441 0
M  V30 7049 H 654.465 5.62811 2.07375 0
M  V30 7050 H 656.144 6.19046 1.88126 0
M  V30 7051 N 656.276 -0.40816 1.52223 0
M  V30 7052 C 657.501 -1.18127 1.70472 0
M  V30 7053 C 657.926 -1.83491 0.41384 0
M  V30 7054 O 657.284 -1.70047 -0.628778 0
M  V30 7055 C 657.332 -2.21935 2.84213 0
M  V30 7056 O 656.436 -3.28099 2.4985 0
M  V30 7057 H 655.777 -0.344781 0.56747 0
M  V30 7058 H 658.307 -0.478328 1.9893 0
M  V30 7059 H 658.317 -2.66248 3.09153 0
M  V30 7060 H 656.992 -1.73744 3.7787 0
M  V30 7061 H 655.569 -2.89058 2.35584 0
M  V30 7062 N 657.755 -1.42862 -0.66545 0
M  V30 7063 C 659.032 -1.3431 -1.42197 0
M  V30 7064 C 659.412 0.0150265 -2.11095 0
M  V30 7065 O 658.76 1.03101 -2.03918 0
M  V30 7066 C 658.97 -2.51783 -2.41674 0
M  V30 7067 C 660.318 -2.94321 -3.0604 0
M  V30 7068 O 661.342 -2.51741 -2.52001 0
M  V30 7069 O 660.201 -3.68047 -4.03985 0
M  V30 7070 H 657.295 -0.530159 -0.634713 0
M  V30 7071 H 659.841 -1.54888 -0.693386 0
M  V30 7072 H 658.613 -3.42282 -1.89627 0
M  V30 7073 H 658.236 -2.33241 -3.22001 0
M  V30 7074 N 659.233 0.902656 -1.29189 0
M  V30 7075 C 660.51 1.63296 -1.07674 0
M  V30 7076 C 660.89 2.07649 0.380137 0
M  V30 7077 O 660.238 1.82997 1.36837 0
M  V30 7078 C 660.448 2.81603 -2.06158 0
M  V30 7079 C 661.796 3.52359 -2.36914 0
M  V30 7080 O 662.82 2.91767 -2.04329 0
M  V30 7081 O 661.679 4.61586 -2.92576 0
M  V30 7082 H 658.773 0.716889 -0.41231 0
M  V30 7083 H 661.319 0.950984 -1.4055 0
M  V30 7084 H 660.091 2.46004 -3.04299 0
M  V30 7085 H 659.714 3.57508 -1.73993 0
M  V30 7086 N 660.711 1.11618 1.11262 0
M  V30 7087 C 661.661 0.745274 2.15475 0
M  V30 7088 C 662.645 -0.251585 1.58921 0
M  V30 7089 O 663.837 -0.0584093 1.76904 0
M  V30 7090 C 660.966 0.192128 3.42762 0
M  V30 7091 C 660.052 1.21676 4.0627 0
M  V30 7092 N 660.443 2.41158 4.44608 0
M  V30 7093 C 658.741 1.06013 4.33217 0
M  V30 7094 C 659.442 3.0652 4.94389 0
M  V30 7095 N 658.418 2.33994 4.9066 0
M  V30 7096 H 662.22 1.65462 2.42898 0
M  V30 7097 H 659.734 0.995695 1.28295 0
M  V30 7098 H 661.731 -0.0917339 4.16799 0
M  V30 7099 H 660.391 -0.711778 3.16802 0
M  V30 7100 H 661.402 2.786 4.3658 0
M  V30 7101 H 658.079 0.212809 4.16957 0
M  V30 7102 H 659.469 4.08225 5.33669 0
M  V30 7103 N 662.189 -1.289 0.906776 0
M  V30 7104 C 663.435 -1.95558 0.53712 0
M  V30 7105 C 663.768 -1.71262 -0.915582 0
M  V30 7106 O 663.043 -1.02961 -1.65013 0
M  V30 7107 C 663.326 -3.50198 0.838645 0
M  V30 7108 C 663.179 -3.83923 2.34357 0
M  V30 7109 C 664.498 -4.38861 0.329988 0
M  V30 7110 H 661.617 -0.710289 0.196617 0
M  V30 7111 H 664.259 -1.52392 1.13475 0
M  V30 7112 H 662.409 -3.87096 0.330024 0
M  V30 7113 H 664.081 -3.56933 2.92227 0
M  V30 7114 H 662.324 -3.31215 2.80141 0
M  V30 7115 H 662.995 -4.91883 2.5051 0
M  V30 7116 H 665.471 -4.08996 0.765609 0
M  V30 7117 H 664.347 -5.45931 0.570105 0
M  V30 7118 H 664.608 -4.35352 -0.769511 0
M  V30 7119 N 663.667 -0.670007 -1.42649 0
M  V30 7120 C 664.916 -0.187526 -2.00826 0
M  V30 7121 C 665.229 1.21142 -1.53571 0
M  V30 7122 O 666.435 1.79001 -2.04134 0
M  V30 7123 C 664.891 -0.284409 -3.58774 0
M  V30 7124 C 664.499 -1.6871 -4.15019 0
M  V30 7125 C 666.243 0.139605 -4.2427 0
M  V30 7126 C 664.15 -1.73701 -5.65316 0
M  V30 7127 H 663.08 -0.0663468 -0.751075 0
M  V30 7128 H 665.731 -0.834492 -1.63427 0
M  V30 7129 H 664.113 0.430364 -3.93655 0
M  V30 7130 H 665.287 -2.42857 -3.91608 0
M  V30 7131 H 663.602 -2.05855 -3.61957 0
M  V30 7132 H 666.199 0.122398 -5.3456 0
M  V30 7133 H 666.542 1.17403 -3.99402 0
M  V30 7134 H 667.075 -0.523995 -3.94334 0
M  V30 7135 H 663.814 -2.75109 -5.94975 0
M  V30 7136 H 663.334 -1.03903 -5.90732 0
M  V30 7137 H 665.013 -1.48829 -6.2965 0
M  V30 7138 N 665.145 1.52092 -0.413018 0
M  V30 7139 C 666.075 2.30021 0.401567 0
M  V30 7140 C 667.056 1.34395 1.04269 0
M  V30 7141 O 668.241 1.63304 1.05097 0
M  V30 7142 C 665.371 3.12447 1.51638 0
M  V30 7143 C 664.325 4.16153 1.00005 0
M  V30 7144 C 663.651 4.86948 2.20875 0
M  V30 7145 C 664.951 5.22275 0.0513757 0
M  V30 7146 H 666.645 2.98365 -0.248704 0
M  V30 7147 H 664.191 1.4349 -0.121052 0
M  V30 7148 H 666.144 3.65733 2.09326 0
M  V30 7149 H 664.868 2.41879 2.19458 0
M  V30 7150 H 663.527 3.63882 0.445549 0
M  V30 7151 H 663.175 4.12905 2.8726 0
M  V30 7152 H 662.875 5.57057 1.86978 0
M  V30 7153 H 664.399 5.43048 2.79162 0
M  V30 7154 H 665.813 5.70778 0.537176 0
M  V30 7155 H 664.21 5.9977 -0.198977 0
M  V30 7156 H 665.28 4.76611 -0.892736 0
M  V30 7157 N 666.623 0.143563 1.56945 0
M  V30 7158 C 667.556 -0.835367 2.1236 0
M  V30 7159 C 668.534 -1.24466 1.04627 0
M  V30 7160 O 669.718 -1.34138 1.32436 0
M  V30 7161 C 666.845 -2.12123 2.64048 0
M  V30 7162 C 665.891 -1.85812 3.83896 0
M  V30 7163 S 666.724 -1.05222 5.25061 0
M  V30 7164 C 667.88 -2.34935 5.80135 0
M  V30 7165 H 668.113 -0.364109 2.95062 0
M  V30 7166 H 665.646 -0.0706601 1.54238 0
M  V30 7167 H 667.604 -2.85993 2.94479 0
M  V30 7168 H 666.265 -2.56364 1.81483 0
M  V30 7169 H 665.458 -2.81151 4.18294 0
M  V30 7170 H 665.06 -1.20052 3.54208 0
M  V30 7171 H 667.352 -3.3061 5.91357 0
M  V30 7172 H 668.295 -2.05046 6.77762 0
M  V30 7173 H 668.703 -2.45426 5.08356 0
M  V30 7174 N 668.101 -1.57061 -0.130224 0
M  V30 7175 C 669.378 -1.75205 -0.869631 0
M  V30 7176 C 669.758 -0.716063 -1.98584 0
M  V30 7177 O 669.106 0.262032 -2.26993 0
M  V30 7178 C 669.316 -3.19835 -1.39666 0
M  V30 7179 C 670.664 -3.82011 -1.85345 0
M  V30 7180 O 671.688 -3.23368 -1.49371 0
M  V30 7181 O 670.547 -4.85064 -2.51744 0
M  V30 7182 H 667.641 -0.716977 -0.412157 0
M  V30 7183 H 670.187 -1.69311 -0.11484 0
M  V30 7184 H 668.959 -3.86745 -0.595288 0
M  V30 7185 H 668.582 -3.30222 -2.21448 0
M  V30 7186 N 669.579 0.400081 -1.52437 0
M  V30 7187 C 670.819 1.15526 -1.68622 0
M  V30 7188 C 671.183 1.87533 -0.411744 0
M  V30 7189 O 672.384 2.6501 -0.449804 0
M  V30 7190 C 670.655 2.11618 -2.88015 0
M  V30 7191 S 672.214 2.95121 -3.24729 0
M  V30 7192 H 669.032 0.39123 -0.593683 0
M  V30 7193 H 671.634 0.441255 -1.90455 0
M  V30 7194 H 670.338 1.5742 -3.79008 0
M  V30 7195 H 669.869 2.87544 -2.68481 0
M  V30 7196 H 671.884 4.13653 -2.74055 0
M  V30 7197 N 671.057 1.43213 0.657864 0
M  V30 7198 C 672.285 1.48015 1.44566 0
M  V30 7199 C 672.7 0.0965951 1.88553 0
M  V30 7200 O 672.057 -0.892221 1.59203 0
M  V30 7201 C 672.108 2.42199 2.68369 0
M  V30 7202 O 671.829 3.75173 2.26223 0
M  V30 7203 C 673.33 2.56195 3.61772 0
M  V30 7204 H 670.55 0.502861 0.444266 0
M  V30 7205 H 673.094 1.87907 0.806917 0
M  V30 7206 H 671.249 2.05514 3.28394 0
M  V30 7207 H 671.663 4.25776 3.06293 0
M  V30 7208 H 673.137 3.26182 4.4532 0
M  V30 7209 H 673.614 1.60534 4.0881 0
M  V30 7210 H 674.22 2.93671 3.07632 0
M  V30 7211 N 672.536 -0.895792 1.29666 0
M  V30 7212 C 673.782 -1.64908 1.18039 0
M  V30 7213 C 674.115 -1.9236 -0.266682 0
M  V30 7214 O 673.39 -1.53682 -1.19214 0
M  V30 7215 C 673.673 -2.99574 1.99819 0
M  V30 7216 C 673.526 -2.79163 3.52687 0
M  V30 7217 C 674.845 -4.00358 1.82761 0
M  V30 7218 H 671.964 -0.598437 0.430165 0
M  V30 7219 H 674.606 -1.03736 1.59182 0
M  V30 7220 H 672.756 -3.51786 1.64859 0
M  V30 7221 H 674.428 -2.33821 3.9765 0
M  V30 7222 H 672.671 -2.13871 3.77414 0
M  V30 7223 H 673.342 -3.74871 4.05186 0
M  V30 7224 H 675.818 -3.57268 2.13304 0
M  V30 7225 H 674.694 -4.92514 2.42325 0
M  V30 7226 H 674.955 -4.35096 0.783839 0
M  V30 7227 N 674.014 -1.12206 -1.10668 0
M  V30 7228 C 675.239 -0.898938 -1.86906 0
M  V30 7229 C 675.664 0.546346 -1.79991 0
M  V30 7230 O 675.022 1.38655 -1.1681 0
M  V30 7231 C 675.07 -1.37529 -3.33344 0
M  V30 7232 O 674.174 -0.55218 -4.08687 0
M  V30 7233 H 673.515 -0.323163 -0.580053 0
M  V30 7234 H 676.045 -1.49355 -1.39837 0
M  V30 7235 H 676.055 -1.3733 -3.84193 0
M  V30 7236 H 674.73 -2.42767 -3.37693 0
M  V30 7237 H 673.307 -0.620947 -3.67694 0
M  V30 7238 N 675.492 1.28418 -0.913599 0
M  V30 7239 C 676.72 1.99106 -0.562536 0
M  V30 7240 C 677.135 1.68273 0.856137 0
M  V30 7241 O 676.492 0.935401 1.56705 0
M  V30 7242 C 676.543 3.5338 -0.761903 0
M  V30 7243 O 676.264 3.83127 -2.12475 0
M  V30 7244 C 677.765 4.41328 -0.417651 0
M  V30 7245 H 674.985 0.635798 -0.214481 0
M  V30 7246 H 677.529 1.63618 -1.22676 0
M  V30 7247 H 675.684 3.8713 -0.144676 0
M  V30 7248 H 676.098 4.77763 -2.16431 0
M  V30 7249 H 677.572 5.48642 -0.607919 0
M  V30 7250 H 678.049 4.34422 0.646108 0
M  V30 7251 H 678.655 4.13074 -1.01241 0
M  V30 7252 N 676.97 0.677563 1.42291 0
M  V30 7253 C 678.218 0.200578 2.01102 0
M  V30 7254 C 678.539 -1.19803 1.53858 0
M  V30 7255 O 677.809 -1.80496 0.761439 0
M  V30 7256 H 676.389 0.0711634 0.743603 0
M  V30 7257 H 679.051 0.874691 1.7417 0
M  V30 7258 H 678.147 0.204 3.11433 0
M  V30 7259 N 678.448 -1.51871 0.421078 0
M  V30 7260 C 679.411 -2.25914 -0.386712 0
M  V30 7261 C 680.411 -1.28733 -0.963555 0
M  V30 7262 O 681.601 -1.52579 -0.840556 0
M  V30 7263 C 678.733 -3.03853 -1.54551 0
M  V30 7264 H 679.926 -2.98754 0.261978 0
M  V30 7265 H 677.479 -1.5533 0.173862 0
M  V30 7266 H 678.214 -2.35392 -2.23072 0
M  V30 7267 H 677.999 -3.75215 -1.13824 0
M  V30 7268 H 679.489 -3.59984 -2.11663 0
M  V30 7269 N 679.926 -0.151884 -1.56866 0
M  V30 7270 C 680.889 0.771861 -2.15812 0
M  V30 7271 C 681.889 1.17181 -1.10115 0
M  V30 7272 O 683.079 1.09194 -1.35729 0
M  V30 7273 C 680.211 2.04806 -2.7252 0
M  V30 7274 H 681.404 0.259021 -2.98779 0
M  V30 7275 H 678.957 0.097588 -1.55995 0
M  V30 7276 H 679.692 2.60445 -1.93233 0
M  V30 7277 H 679.477 1.77044 -3.49854 0
M  V30 7278 H 680.967 2.70771 -3.1792 0
M  V30 7279 N 681.404 1.57128 0.121893 0
M  V30 7280 C 682.367 1.99197 1.13372 0
M  V30 7281 C 683.367 0.881728 1.3447 0
M  V30 7282 O 684.557 1.14783 1.31036 0
M  V30 7283 C 681.689 2.32963 2.4888 0
M  V30 7284 H 682.882 2.89788 0.772204 0
M  V30 7285 H 680.435 1.51952 0.366093 0
M  V30 7286 H 681.17 1.45243 2.89957 0
M  V30 7287 H 680.955 3.13934 2.34921 0
M  V30 7288 H 682.445 2.66261 3.21706 0
M  V30 7289 N 682.882 -0.391992 1.52647 0
M  V30 7290 C 683.815 -1.50019 1.71958 0
M  V30 7291 C 684.793 -1.5238 0.567365 0
M  V30 7292 O 685.977 -1.70831 0.796806 0
M  V30 7293 C 683.104 -2.88496 1.77447 0
M  V30 7294 C 682.15 -3.03974 2.99169 0
M  V30 7295 S 682.983 -2.75487 4.59203 0
M  V30 7296 C 684.139 -4.16163 4.67503 0
M  V30 7297 H 684.372 -1.33413 2.65685 0
M  V30 7298 H 681.905 -0.584674 1.42902 0
M  V30 7299 H 683.863 -3.68296 1.81296 0
M  V30 7300 H 682.524 -3.02431 0.848188 0
M  V30 7301 H 681.717 -4.05328 2.99542 0
M  V30 7302 H 681.319 -2.32062 2.93297 0
M  V30 7303 H 683.611 -5.10048 4.45934 0
M  V30 7304 H 684.554 -4.20806 5.69498 0
M  V30 7305 H 684.962 -4.01933 3.96371 0
M  V30 7306 N 684.36 -1.4356 -0.65026 0
M  V30 7307 C 685.293 -1.434 -1.77515 0
M  V30 7308 C 686.271 -0.295082 -1.599 0
M  V30 7309 O 687.455 -0.489128 -1.82043 0
M  V30 7310 C 684.582 -1.2484 -3.14853 0
M  V30 7311 C 683.628 -2.42046 -3.51163 0
M  V30 7312 S 684.461 -4.04595 -3.50803 0
M  V30 7313 C 685.617 -3.88424 -4.90793 0
M  V30 7314 H 685.85 -2.38586 -1.77381 0
M  V30 7315 H 683.383 -1.30627 -0.823169 0
M  V30 7316 H 685.341 -1.14819 -3.94115 0
M  V30 7317 H 684.002 -0.311977 -3.12547 0
M  V30 7318 H 683.195 -2.24873 -4.51052 0
M  V30 7319 H 682.797 -2.48708 -2.79321 0
M  V30 7320 H 685.089 -3.50932 -5.79528 0
M  V30 7321 H 686.032 -4.88076 -5.13018 0
M  V30 7322 H 686.44 -3.20829 -4.64467 0
M  V30 7323 N 685.838 0.888903 -1.30139 0
M  V30 7324 C 686.801 1.97576 -1.16174 0
M  V30 7325 C 687.801 1.60525 -0.094086 0
M  V30 7326 O 688.991 1.70812 -0.341889 0
M  V30 7327 C 686.123 3.3188 -0.778983 0
M  V30 7328 H 687.316 2.11393 -2.12728 0
M  V30 7329 H 684.869 1.0748 -1.1348 0
M  V30 7330 H 685.604 3.23765 0.186225 0
M  V30 7331 H 685.389 3.60141 -1.55051 0
M  V30 7332 H 686.879 4.11612 -0.704631 0
M  V30 7333 N 687.317 1.12792 1.10072 0
M  V30 7334 C 688.563 0.886857 1.82381 0
M  V30 7335 C 688.896 -0.58576 1.85155 0
M  V30 7336 O 688.171 -1.43317 1.31493 0
M  V30 7337 C 688.454 1.46703 3.28862 0
M  V30 7338 C 688.307 3.00829 3.34398 0
M  V30 7339 C 689.626 1.12971 4.25353 0
M  V30 7340 H 686.745 0.32362 0.662148 0
M  V30 7341 H 689.387 1.39513 1.28982 0
M  V30 7342 H 687.537 1.03476 3.74466 0
M  V30 7343 H 689.209 3.52764 2.97247 0
M  V30 7344 H 687.452 3.36164 2.74183 0
M  V30 7345 H 688.123 3.36519 4.3756 0
M  V30 7346 H 690.599 1.50313 3.88001 0
M  V30 7347 H 689.475 1.56223 5.26199 0
M  V30 7348 H 689.736 0.0424452 4.4208 0
M  V30 7349 N 688.795 -1.27931 0.920396 0
M  V30 7350 C 690.211 -1.47085 0.619537 0
M  V30 7351 C 690.411 -1.83463 -0.833291 0
M  V30 7352 O 689.467 -1.94363 -1.61181 0
M  V30 7353 C 690.78 -2.56878 1.56314 0
M  V30 7354 C 692.328 -2.70743 1.57058 0
M  V30 7355 C 692.803 -3.83687 2.50097 0
M  V30 7356 N 694.294 -3.9105 2.48262 0
M  V30 7357 C 695.029 -4.77842 3.16945 0
M  V30 7358 N 694.525 -5.69176 3.94982 0
M  V30 7359 N 696.318 -4.71509 3.06 0
M  V30 7360 H 688.469 -1.02601 1.85975 0
M  V30 7361 H 690.732 -0.511682 0.798051 0
M  V30 7362 H 690.438 -2.36923 2.59923 0
M  V30 7363 H 690.312 -3.54117 1.29928 0
M  V30 7364 H 692.699 -2.90083 0.541832 0
M  V30 7365 H 692.78 -1.74015 1.8749 0
M  V30 7366 H 692.424 -3.65101 3.53077 0
M  V30 7367 H 692.354 -4.79827 2.16964 0
M  V30 7368 H 694.845 -3.25738 1.91581 0
M  V30 7369 H 695.158 -6.32245 4.44394 0
M  V30 7370 H 693.503 -5.68995 3.99086 0
M  V30 7371 H 696.694 -3.99151 2.44533 0
M  V30 7372 H 696.867 -5.38933 3.59799 0
M  V30 7373 N 690.273 -0.685099 -1.4193 0
M  V30 7374 C 691.519 -0.211971 -2.01689 0
M  V30 7375 C 691.852 1.18189 -1.54094 0
M  V30 7376 O 691.127 1.79559 -0.747572 0
M  V30 7377 C 691.41 -0.258019 -3.59174 0
M  V30 7378 C 691.263 -1.68807 -4.16922 0
M  V30 7379 C 692.582 0.388044 -4.38386 0
M  V30 7380 H 689.701 -0.0784987 -0.732808 0
M  V30 7381 H 692.343 -0.871837 -1.68816 0
M  V30 7382 H 690.493 0.303832 -3.8731 0
M  V30 7383 H 692.165 -2.30296 -3.99702 0
M  V30 7384 H 690.408 -2.22553 -3.72361 0
M  V30 7385 H 691.079 -1.6719 -5.26072 0
M  V30 7386 H 693.555 -0.0903432 -4.16002 0
M  V30 7387 H 692.431 0.325232 -5.47936 0
M  V30 7388 H 692.692 1.4672 -4.17044 0
M  V30 7389 N 691.751 1.51645 -0.429126 0
M  V30 7390 C 692.681 2.30434 0.377148 0
M  V30 7391 C 693.662 1.35493 1.02838 0
M  V30 7392 O 694.847 1.6441 1.03359 0
M  V30 7393 C 691.977 3.14038 1.48315 0
M  V30 7394 C 690.931 4.1719 0.955855 0
M  V30 7395 C 690.257 4.89263 2.15698 0
M  V30 7396 C 691.557 5.223 -0.00402136 0
M  V30 7397 H 693.251 2.98085 -0.280336 0
M  V30 7398 H 690.797 1.43354 -0.136265 0
M  V30 7399 H 692.75 3.67933 2.05435 0
M  V30 7400 H 691.474 2.44193 2.16881 0
M  V30 7401 H 690.133 3.64335 0.406929 0
M  V30 7402 H 689.781 4.15929 2.82864 0
M  V30 7403 H 689.481 5.59009 1.81059 0
M  V30 7404 H 691.005 5.45978 2.73387 0
M  V30 7405 H 692.419 5.71315 0.476607 0
M  V30 7406 H 690.816 5.99525 -0.26258 0
M  V30 7407 H 691.886 4.75638 -0.943236 0
M  V30 7408 N 693.229 0.160201 1.56784 0
M  V30 7409 C 694.159 -0.770264 2.2043 0
M  V30 7410 C 695.14 -1.24736 1.15651 0
M  V30 7411 O 696.325 -1.30253 1.44041 0
M  V30 7412 C 693.455 -2.00427 2.83631 0
M  V30 7413 C 692.409 -1.66345 3.94352 0
M  V30 7414 C 691.735 -2.97119 4.4455 0
M  V30 7415 C 693.035 -0.899972 5.14488 0
M  V30 7416 H 694.729 -0.239783 2.98438 0
M  V30 7417 H 692.275 -0.113891 1.43549 0
M  V30 7418 H 694.228 -2.66012 3.26827 0
M  V30 7419 H 692.952 -2.5587 2.02973 0
M  V30 7420 H 691.611 -1.03133 3.51794 0
M  V30 7421 H 691.259 -3.5058 3.60698 0
M  V30 7422 H 690.959 -2.75073 5.19238 0
M  V30 7423 H 692.483 -3.63753 4.90425 0
M  V30 7424 H 693.897 -1.45818 5.54446 0
M  V30 7425 H 692.294 -0.778968 5.95023 0
M  V30 7426 H 693.364 0.105827 4.84785 0
M  V30 7427 N 694.707 -1.5719 -0.113559 0
M  V30 7428 C 695.984 -1.76117 -0.850999 0
M  V30 7429 C 696.364 -0.737085 -1.97814 0
M  V30 7430 O 695.712 0.237942 -2.27258 0
M  V30 7431 C 695.922 -3.21298 -1.36266 0
M  V30 7432 C 697.27 -3.83955 -1.81283 0
M  V30 7433 O 698.294 -3.24934 -1.45933 0
M  V30 7434 O 697.153 -4.87707 -2.46585 0
M  V30 7435 H 694.247 -0.721308 -0.404529 0
M  V30 7436 H 696.793 -1.69423 -0.0968756 0
M  V30 7437 H 695.565 -3.87355 -0.554235 0
M  V30 7438 H 695.188 -3.32552 -2.17933 0
M  V30 7439 N 696.185 0.383891 -1.52853 0
M  V30 7440 C 697.135 1.46892 -1.74375 0
M  V30 7441 C 698.119 1.49378 -0.597909 0
M  V30 7442 O 699.311 1.54929 -0.855929 0
M  V30 7443 C 696.44 2.84547 -1.92063 0
M  V30 7444 C 695.526 2.8661 -3.12594 0
M  V30 7445 N 695.917 2.58339 -4.3485 0
M  V30 7446 C 694.215 3.17777 -3.12944 0
M  V30 7447 C 694.916 2.67616 -5.16485 0
M  V30 7448 N 693.892 3.01561 -4.52285 0
M  V30 7449 H 697.694 1.23869 -2.66522 0
M  V30 7450 H 695.208 0.591895 -1.51229 0
M  V30 7451 H 697.205 3.62674 -2.05604 0
M  V30 7452 H 695.865 3.08549 -1.01133 0
M  V30 7453 H 696.876 2.32266 -4.62896 0
M  V30 7454 H 693.553 3.47211 -2.31842 0
M  V30 7455 H 694.943 2.4926 -6.23955 0
M  V30 7456 N 697.663 1.43903 0.642637 0
M  V30 7457 C 698.94 1.36556 1.40043 0
M  V30 7458 C 699.32 0.0185588 2.11092 0
M  V30 7459 O 698.668 -0.998438 2.05532 0
M  V30 7460 C 698.878 2.55596 2.37638 0
M  V30 7461 C 700.226 2.99153 3.01318 0
M  V30 7462 O 701.25 2.55719 2.47965 0
M  V30 7463 O 700.109 3.74427 3.98078 0
M  V30 7464 H 697.203 0.540189 0.626198 0
M  V30 7465 H 699.749 1.55971 0.668657 0
M  V30 7466 H 698.521 3.45256 1.84158 0
M  V30 7467 H 698.144 2.38334 3.18249 0
M  V30 7468 N 699.141 -0.881989 1.30609 0
M  V30 7469 C 700.387 -1.63647 1.19781 0
M  V30 7470 C 700.72 -1.92632 -0.246265 0
M  V30 7471 O 699.995 -1.54938 -1.17577 0
M  V30 7472 C 700.278 -2.97437 2.02985 0
M  V30 7473 C 700.131 -2.75406 3.55628 0
M  V30 7474 C 701.45 -3.98397 1.86997 0
M  V30 7475 H 698.569 -0.593841 0.436488 0
M  V30 7476 H 701.211 -1.02041 1.60273 0
M  V30 7477 H 699.361 -3.50018 1.68581 0
M  V30 7478 H 701.033 -2.2959 4.00107 0
M  V30 7479 H 699.276 -2.09856 3.79662 0
M  V30 7480 H 699.947 -3.70552 4.09139 0
M  V30 7481 H 702.423 -3.54986 2.17081 0
M  V30 7482 H 701.299 -4.89916 2.47536 0
M  V30 7483 H 701.56 -4.3424 0.829943 0
M  V30 7484 N 700.619 -1.13374 -1.09472 0
M  V30 7485 C 702.03 -0.90801 -1.63132 0
M  V30 7486 C 702.381 0.555576 -1.8817 0
M  V30 7487 O 701.506 1.42218 -1.63104 0
M  V30 7488 C 702.101 -1.64182 -2.96361 0
M  V30 7489 C 700.66 -1.46197 -3.46848 0
M  V30 7490 C 699.807 -1.67134 -2.21273 0
M  V30 7491 H 702.758 -1.2871 -0.928411 0
M  V30 7492 H 702.779 -1.09863 -3.64294 0
M  V30 7493 H 702.291 -2.707 -2.78106 0
M  V30 7494 H 700.392 -0.419788 -3.70228 0
M  V30 7495 H 700.505 -2.22472 -4.24315 0
M  V30 7496 H 698.869 -1.09616 -2.29905 0
M  V30 7497 H 699.652 -2.74971 -2.05538 0
M  V30 7498 N 702.098 1.27442 -0.927168 0
M  V30 7499 C 703.008 2.30599 -0.431448 0
M  V30 7500 C 704.024 1.67028 0.48761 0
M  V30 7501 O 705.2 1.97962 0.370546 0
M  V30 7502 C 702.265 3.45327 0.308292 0
M  V30 7503 C 701.326 4.24418 -0.645615 0
M  V30 7504 C 700.559 5.33667 0.0589164 0
M  V30 7505 O 700.782 5.5589 1.27838 0
M  V30 7506 O 699.716 5.98774 -0.612638 0
M  V30 7507 H 703.542 2.75036 -1.28797 0
M  V30 7508 H 701.127 1.32382 -0.692495 0
M  V30 7509 H 703.009 4.15107 0.725555 0
M  V30 7510 H 701.684 3.02945 1.14043 0
M  V30 7511 H 700.591 3.57174 -1.11255 0
M  V30 7512 H 701.924 4.70512 -1.44496 0
M  V30 7513 N 703.576 0.692616 1.41565 0
M  V30 7514 C 704.853 0.150496 1.9502 0
M  V30 7515 C 705.233 -1.33881 1.63215 0
M  V30 7516 O 704.581 -2.08378 0.937598 0
M  V30 7517 C 704.791 0.438636 3.46233 0
M  V30 7518 C 706.139 0.364777 4.2303 0
M  V30 7519 O 707.163 0.373383 3.54238 0
M  V30 7520 O 706.022 0.32234 5.45549 0
M  V30 7521 H 703.116 0.0132454 0.826894 0
M  V30 7522 H 705.662 0.768574 1.51298 0
M  V30 7523 H 704.434 1.46962 3.62654 0
M  V30 7524 H 704.057 -0.210562 3.97042 0
M  V30 7525 N 705.054 -1.51416 0.437162 0
M  V30 7526 C 706.001 -2.27743 -0.374374 0
M  V30 7527 C 706.971 -1.31327 -1.01698 0
M  V30 7528 O 708.156 -1.60229 -1.03592 0
M  V30 7529 C 705.296 -3.12241 -1.46969 0
M  V30 7530 C 704.409 -4.23651 -0.845236 0
M  V30 7531 C 703.544 -4.95458 -1.91559 0
M  V30 7532 C 702.583 -5.98789 -1.26956 0
M  V30 7533 N 701.72 -6.64005 -2.28126 0
M  V30 7534 H 706.56 -2.96654 0.282892 0
M  V30 7535 H 704.097 -1.46319 0.151352 0
M  V30 7536 H 706.055 -3.59556 -2.11602 0
M  V30 7537 H 704.685 -2.45445 -2.09659 0
M  V30 7538 H 703.737 -3.803 -0.0872059 0
M  V30 7539 H 705.049 -4.97683 -0.333582 0
M  V30 7540 H 704.203 -5.46321 -2.63854 0
M  V30 7541 H 702.942 -4.21055 -2.46097 0
M  V30 7542 H 701.947 -5.47219 -0.53207 0
M  V30 7543 H 703.172 -6.75149 -0.731509 0
M  V30 7544 H 701.118 -5.92415 -2.81745 0
M  V30 7545 H 701.035 -7.33802 -1.81852 0
M  V30 7546 H 702.303 -7.19498 -2.99905 0
M  V30 7547 N 706.532 -0.168513 -1.56696 0
M  V30 7548 C 707.781 0.477233 -1.95973 0
M  V30 7549 C 708.094 1.64578 -1.05704 0
M  V30 7550 O 709.3 2.35758 -1.3465 0
M  V30 7551 C 707.756 0.900413 -3.48455 0
M  V30 7552 C 707.364 -0.242382 -4.47344 0
M  V30 7553 C 709.108 1.51474 -3.96555 0
M  V30 7554 C 707.015 0.200272 -5.91061 0
M  V30 7555 H 705.945 0.182061 -0.73169 0
M  V30 7556 H 708.596 -0.256297 -1.81701 0
M  V30 7557 H 706.978 1.68984 -3.58135 0
M  V30 7558 H 708.152 -1.01967 -4.49377 0
M  V30 7559 H 706.467 -0.766484 -4.09285 0
M  V30 7560 H 709.064 1.85792 -5.01384 0
M  V30 7561 H 709.407 2.41163 -3.39332 0
M  V30 7562 H 709.94 0.789802 -3.89881 0
M  V30 7563 H 706.679 -0.661775 -6.52151 0
M  V30 7564 H 706.199 0.942979 -5.92341 0
M  V30 7565 H 707.878 0.645088 -6.43776 0
M  V30 7566 N 708.01 1.57248 0.105221 0
M  V30 7567 C 709.257 1.8557 0.810552 0
M  V30 7568 C 709.585 0.755595 1.79223 0
M  V30 7569 O 708.84 -0.251788 1.94073 0
M  V30 7570 C 709.139 3.20437 1.58287 0
M  V30 7571 C 708.805 4.44716 0.744235 0
M  V30 7572 C 707.467 4.78458 0.513013 0
M  V30 7573 C 709.819 5.20953 0.160578 0
M  V30 7574 C 707.147 5.8587 -0.311894 0
M  V30 7575 C 709.499 6.29235 -0.651596 0
M  V30 7576 C 708.163 6.615 -0.893005 0
M  V30 7577 H 707.433 0.67905 0.296602 0
M  V30 7578 H 710.08 1.91363 0.0723968 0
M  V30 7579 H 708.385 3.10283 2.39232 0
M  V30 7580 H 710.082 3.39576 2.13282 0
M  V30 7581 H 706.672 4.18287 0.934555 0
M  V30 7582 H 710.856 4.95226 0.3264 0
M  V30 7583 H 706.112 6.09286 -0.508012 0
M  V30 7584 H 710.286 6.87484 -1.11077 0
M  V30 7585 H 707.913 7.44562 -1.53401 0
M  V30 7586 N 709.488 -0.375779 1.53054 0
M  V30 7587 C 710.418 -1.46598 1.81745 0
M  V30 7588 C 711.399 -1.56337 0.670286 0
M  V30 7589 O 712.584 -1.71071 0.919158 0
M  V30 7590 C 709.714 -2.84058 1.99821 0
M  V30 7591 C 708.668 -2.8915 3.15557 0
M  V30 7592 C 707.994 -4.29187 3.18908 0
M  V30 7593 C 709.294 -2.57595 4.54359 0
M  V30 7594 H 710.988 -1.22837 2.73041 0
M  V30 7595 H 708.534 -0.589485 1.31381 0
M  V30 7596 H 710.487 -3.60342 2.18475 0
M  V30 7597 H 709.211 -3.09184 1.05226 0
M  V30 7598 H 707.87 -2.15316 2.96706 0
M  V30 7599 H 707.518 -4.51374 2.2197 0
M  V30 7600 H 707.218 -4.33512 3.96662 0
M  V30 7601 H 708.742 -5.07359 3.39734 0
M  V30 7602 H 710.156 -3.23595 4.73243 0
M  V30 7603 H 708.553 -2.73252 5.34279 0
M  V30 7604 H 709.623 -1.52882 4.60169 0
M  V30 7605 N 710.966 -1.44241 -0.634997 0
M  V30 7606 C 711.896 -1.53632 -1.7584 0
M  V30 7607 C 712.877 -0.389603 -1.65578 0
M  V30 7608 O 714.062 -0.609219 -1.84397 0
M  V30 7609 C 711.192 -1.47644 -3.14354 0
M  V30 7610 C 710.146 -2.60752 -3.394 0
M  V30 7611 C 709.472 -2.39817 -4.77904 0
M  V30 7612 C 710.772 -4.02921 -3.32343 0
M  V30 7613 H 712.466 -2.47662 -1.68238 0
M  V30 7614 H 710.012 -1.19197 -0.807969 0
M  V30 7615 H 711.965 -1.52815 -3.92716 0
M  V30 7616 H 710.689 -0.501284 -3.2273 0
M  V30 7617 H 709.348 -2.54965 -2.63417 0
M  V30 7618 H 708.996 -1.40502 -4.82978 0
M  V30 7619 H 708.696 -3.15649 -4.9562 0
M  V30 7620 H 710.22 -2.46799 -5.585 0
M  V30 7621 H 711.634 -4.10098 -4.00615 0
M  V30 7622 H 710.031 -4.78925 -3.61595 0
M  V30 7623 H 711.101 -4.26766 -2.30215 0
M  V30 7624 N 712.444 0.87505 -1.31075 0
M  V30 7625 C 713.669 1.66583 -1.23551 0
M  V30 7626 C 714.094 1.87067 0.19686 0
M  V30 7627 O 713.452 1.40877 1.1412 0
M  V30 7628 C 713.5 3.01401 -1.97965 0
M  V30 7629 O 712.604 3.90923 -1.31351 0
M  V30 7630 H 711.945 0.508645 -0.426821 0
M  V30 7631 H 714.475 1.09139 -1.7306 0
M  V30 7632 H 714.485 3.51374 -2.07366 0
M  V30 7633 H 713.16 2.85812 -3.02133 0
M  V30 7634 H 711.737 3.49369 -1.30368 0
M  V30 7635 N 713.922 1.13953 1.08869 0
M  V30 7636 C 714.852 0.844824 2.17681 0
M  V30 7637 C 715.833 -0.198213 1.68941 0
M  V30 7638 O 717.018 -0.0559073 1.9412 0
M  V30 7639 C 714.148 0.316325 3.45856 0
M  V30 7640 C 713.102 1.29426 4.07962 0
M  V30 7641 C 712.428 0.625275 5.31031 0
M  V30 7642 C 713.728 2.65484 4.49795 0
M  V30 7643 H 715.422 1.75471 2.42591 0
M  V30 7644 H 712.968 0.845116 1.16592 0
M  V30 7645 H 714.921 0.0977876 4.21287 0
M  V30 7646 H 713.645 -0.628972 3.20486 0
M  V30 7647 H 712.304 1.49889 3.34558 0
M  V30 7648 H 711.952 -0.325678 5.01945 0
M  V30 7649 H 711.652 1.27777 5.73539 0
M  V30 7650 H 713.176 0.416152 6.0918 0
M  V30 7651 H 714.59 2.48957 5.16424 0
M  V30 7652 H 712.987 3.26963 5.03205 0
M  V30 7653 H 714.057 3.22717 3.61914 0
M  V30 7654 N 715.4 -1.26948 0.933913 0
M  V30 7655 C 716.33 -2.29017 0.45534 0
M  V30 7656 C 717.311 -1.62961 -0.487605 0
M  V30 7657 O 718.496 -1.90223 -0.391022 0
M  V30 7658 C 715.626 -3.46112 -0.287015 0
M  V30 7659 C 714.58 -4.24205 0.568682 0
M  V30 7660 C 713.906 -5.3384 -0.303206 0
M  V30 7661 C 715.206 -4.88954 1.83633 0
M  V30 7662 H 716.9 -2.69298 1.30839 0
M  V30 7663 H 714.446 -1.29459 0.630579 0
M  V30 7664 H 716.399 -4.16622 -0.6328 0
M  V30 7665 H 715.123 -3.04765 -1.17414 0
M  V30 7666 H 713.782 -3.5545 0.897261 0
M  V30 7667 H 713.43 -4.88734 -1.18947 0
M  V30 7668 H 713.13 -5.86998 0.265879 0
M  V30 7669 H 714.654 -6.0719 -0.644423 0
M  V30 7670 H 716.068 -5.51717 1.55823 0
M  V30 7671 H 714.465 -5.52198 2.34941 0
M  V30 7672 H 715.535 -4.12305 2.55211 0
M  V30 7673 N 716.879 -0.700114 -1.41195 0
M  V30 7674 C 717.812 0.0129614 -2.28196 0
M  V30 7675 C 718.79 0.783367 -1.42486 0
M  V30 7676 O 719.974 0.773238 -1.71911 0
M  V30 7677 C 717.101 1.02575 -3.22794 0
M  V30 7678 C 716.147 0.347977 -4.25078 0
M  V30 7679 S 716.98 -0.912938 -5.27661 0
M  V30 7680 C 718.136 0.0981362 -6.25823 0
M  V30 7681 H 718.369 -0.724927 -2.88326 0
M  V30 7682 H 715.902 -0.490554 -1.464 0
M  V30 7683 H 717.86 1.60491 -3.77826 0
M  V30 7684 H 716.521 1.73624 -2.61751 0
M  V30 7685 H 715.714 1.11305 -4.91556 0
M  V30 7686 H 715.316 -0.15823 -3.73665 0
M  V30 7687 H 717.608 0.949965 -6.70807 0
M  V30 7688 H 718.551 -0.532838 -7.06092 0
M  V30 7689 H 718.959 0.454944 -5.62664 0
M  V30 7690 N 718.357 1.51182 -0.445186 0
M  V30 7691 C 719.32 2.26501 0.350722 0
M  V30 7692 C 720.32 1.3025 0.942952 0
M  V30 7693 O 721.51 1.53897 0.816175 0
M  V30 7694 C 718.642 3.06274 1.49697 0
M  V30 7695 H 719.835 2.98299 -0.309474 0
M  V30 7696 H 717.388 1.55034 -0.198551 0
M  V30 7697 H 718.123 2.38911 2.19299 0
M  V30 7698 H 717.908 3.76979 1.0784 0
M  V30 7699 H 719.398 3.63306 2.05909 0
M  V30 7700 N 719.835 0.176821 1.56605 0
M  V30 7701 C 720.745 -0.763682 2.21822 0
M  V30 7702 C 721.761 -1.24889 1.21156 0
M  V30 7703 O 722.937 -1.29987 1.53836 0
M  V30 7704 C 720.002 -1.97352 2.8505 0
M  V30 7705 C 719.063 -1.53466 4.00932 0
M  V30 7706 C 718.296 -2.68682 4.61135 0
M  V30 7707 O 718.519 -3.85694 4.20234 0
M  V30 7708 O 717.453 -2.42442 5.50913 0
M  V30 7709 H 721.279 -0.238363 3.02763 0
M  V30 7710 H 718.864 -0.0516331 1.49311 0
M  V30 7711 H 720.746 -2.68096 3.25119 0
M  V30 7712 H 719.421 -2.48779 2.07101 0
M  V30 7713 H 718.328 -0.796551 3.65521 0
M  V30 7714 H 719.661 -1.06724 4.8049 0
M  V30 7715 N 721.313 -1.57302 -0.09688 0
M  V30 7716 C 722.246 -1.97179 -1.14872 0
M  V30 7717 C 723.224 -0.844734 -1.38935 0
M  V30 7718 O 724.408 -1.10487 -1.52725 0
M  V30 7719 C 721.535 -2.28703 -2.49826 0
M  V30 7720 C 720.581 -3.51158 -2.42054 0
M  V30 7721 S 721.414 -5.0294 -1.83879 0
M  V30 7722 C 722.57 -5.37639 -3.2046 0
M  V30 7723 H 722.803 -2.86088 -0.808771 0
M  V30 7724 H 720.336 -1.51368 -0.304492 0
M  V30 7725 H 722.294 -2.47541 -3.27466 0
M  V30 7726 H 720.955 -1.40368 -2.8099 0
M  V30 7727 H 720.148 -3.70651 -3.41517 0
M  V30 7728 H 719.75 -3.31821 -1.72543 0
M  V30 7729 H 722.042 -5.34175 -4.16729 0
M  V30 7730 H 722.985 -6.38677 -3.05773 0
M  V30 7731 H 723.393 -4.651 -3.19909 0
M  V30 7732 N 722.791 0.367657 -1.53252 0
M  V30 7733 C 724.039 1.10832 -1.68999 0
M  V30 7734 C 724.36 1.89894 -0.443306 0
M  V30 7735 O 723.63 1.88235 0.54262 0
M  V30 7736 H 722.21 0.412153 -0.623008 0
M  V30 7737 H 724.872 0.414775 -1.90435 0
M  V30 7738 H 723.968 1.7993 -2.55013 0
M  V30 7739 N 724.269 1.44576 0.627338 0
M  V30 7740 C 725.515 1.47777 1.38888 0
M  V30 7741 C 725.848 0.111406 1.9388 0
M  V30 7742 O 725.123 -0.87149 1.73883 0
M  V30 7743 C 725.406 2.54119 2.55138 0
M  V30 7744 C 725.259 4.00128 2.0547 0
M  V30 7745 C 726.578 2.56929 3.57317 0
M  V30 7746 H 723.697 0.538048 0.50366 0
M  V30 7747 H 726.339 1.76277 0.708978 0
M  V30 7748 H 724.489 2.29948 3.13139 0
M  V30 7749 H 726.161 4.35444 1.5227 0
M  V30 7750 H 724.404 4.11724 1.36623 0
M  V30 7751 H 725.075 4.7019 2.89181 0
M  V30 7752 H 727.551 2.78536 3.09122 0
M  V30 7753 H 726.427 3.33234 4.36173 0
M  V30 7754 H 726.688 1.6127 4.11636 0
M  V30 7755 N 725.747 -0.868086 1.31537 0
M  V30 7756 C 726.697 -1.96321 1.1594 0
M  V30 7757 C 727.681 -1.60748 0.0698962 0
M  V30 7758 O 728.873 -1.74524 0.295011 0
M  V30 7759 C 726.002 -3.32073 0.870789 0
M  V30 7760 C 725.088 -3.73907 2.00136 0
M  V30 7761 N 725.479 -3.87685 3.24859 0
M  V30 7762 C 723.777 -4.03433 1.90152 0
M  V30 7763 C 724.478 -4.23454 3.98825 0
M  V30 7764 N 723.454 -4.34242 3.27009 0
M  V30 7765 H 727.256 -2.05088 2.10514 0
M  V30 7766 H 724.77 -1.059 1.23122 0
M  V30 7767 H 726.767 -4.10279 0.740034 0
M  V30 7768 H 725.427 -3.24631 -0.0667068 0
M  V30 7769 H 726.438 -3.72363 3.59953 0
M  V30 7770 H 723.115 -4.0437 1.03879 0
M  V30 7771 H 724.505 -4.41696 5.06314 0
M  V30 7772 N 727.225 -1.14528 -1.08264 0
M  V30 7773 C 728.45 -0.938381 -1.84957 0
M  V30 7774 C 728.875 0.508044 -1.81109 0
M  V30 7775 O 728.233 1.36146 -1.19724 0
M  V30 7776 C 728.281 -1.44568 -3.30352 0
M  V30 7777 O 727.385 -0.638745 -4.07423 0
M  V30 7778 H 726.726 -0.335394 -0.573068 0
M  V30 7779 H 729.256 -1.52287 -1.36637 0
M  V30 7780 H 729.266 -1.45449 -3.81194 0
M  V30 7781 H 727.941 -2.49876 -3.32468 0
M  V30 7782 H 726.518 -0.698801 -3.66294 0
M  V30 7783 N 728.703 1.26451 -0.940633 0
M  V30 7784 C 729.949 1.94065 -0.58878 0
M  V30 7785 C 730.282 1.7363 0.869853 0
M  V30 7786 O 729.557 1.073 1.62225 0
M  V30 7787 C 729.84 3.47852 -0.931199 0
M  V30 7788 C 729.693 3.77575 -2.44453 0
M  V30 7789 C 731.012 4.37832 -0.446229 0
M  V30 7790 H 728.131 0.704827 -0.21538 0
M  V30 7791 H 730.773 1.4933 -1.17475 0
M  V30 7792 H 728.923 3.86085 -0.432539 0
M  V30 7793 H 730.595 3.49059 -3.01588 0
M  V30 7794 H 728.838 3.23671 -2.88825 0
M  V30 7795 H 729.509 4.85068 -2.63464 0
M  V30 7796 H 731.985 4.06822 -0.873778 0
M  V30 7797 H 730.861 5.44228 -0.714648 0
M  V30 7798 H 731.122 4.37239 0.653815 0
M  V30 7799 N 730.181 0.707592 1.40822 0
M  V30 7800 C 731.144 0.0587224 2.29125 0
M  V30 7801 C 732.144 -0.695624 1.44975 0
M  V30 7802 O 733.334 -0.528718 1.65983 0
M  V30 7803 C 730.466 -0.926939 3.28056 0
M  V30 7804 H 731.659 0.836349 2.88002 0
M  V30 7805 H 729.212 0.471778 1.4901 0
M  V30 7806 H 729.947 -1.7319 2.74182 0
M  V30 7807 H 729.732 -0.389015 3.90165 0
M  V30 7808 H 731.222 -1.37837 3.94196 0
M  V30 7809 N 731.66 -1.50943 0.453197 0
M  V30 7810 C 732.89 -2.06328 -0.105981 0
M  V30 7811 C 733.298 -1.31909 -1.35634 0
M  V30 7812 O 732.641 -0.376607 -1.79798 0
M  V30 7813 C 732.703 -3.5631 -0.477868 0
M  V30 7814 C 732.367 -4.52093 0.667925 0
M  V30 7815 C 733.364 -4.96421 1.54475 0
M  V30 7816 C 731.049 -4.95001 0.853168 0
M  V30 7817 C 733.043 -5.82346 2.59138 0
M  V30 7818 C 730.73 -5.80713 1.90305 0
M  V30 7819 C 731.728 -6.24284 2.77053 0
M  V30 7820 O 731.416 -7.08291 3.80236 0
M  V30 7821 H 731.148 -0.675986 -0.00427247 0
M  V30 7822 H 733.702 -1.95314 0.635738 0
M  V30 7823 H 731.932 -3.65163 -1.27252 0
M  V30 7824 H 733.621 -3.94138 -0.970039 0
M  V30 7825 H 734.387 -4.63953 1.41324 0
M  V30 7826 H 730.266 -4.60619 0.187482 0
M  V30 7827 H 733.81 -6.16276 3.2688 0
M  V30 7828 H 729.707 -6.12593 2.03469 0
M  V30 7829 H 730.475 -7.26504 3.77007 0
M  V30 7830 N 733.138 -0.185124 -1.56509 0
M  V30 7831 C 734.101 0.72591 -2.17401 0
M  V30 7832 C 735.101 1.14819 -1.12575 0
M  V30 7833 O 736.291 1.0629 -1.38015 0
M  V30 7834 C 733.423 1.98979 -2.76803 0
M  V30 7835 H 734.616 0.195588 -2.99262 0
M  V30 7836 H 732.169 0.0644772 -1.56167 0
M  V30 7837 H 732.904 2.56287 -1.98714 0
M  V30 7838 H 732.689 1.69583 -3.53531 0
M  V30 7839 H 734.179 2.63966 -3.23592 0
M  V30 7840 N 734.616 1.57351 0.0885366 0
M  V30 7841 C 735.863 1.86419 0.790824 0
M  V30 7842 C 736.191 0.774561 1.78412 0
M  V30 7843 O 735.446 -0.23119 1.9433 0
M  V30 7844 C 735.745 3.22098 1.5488 0
M  V30 7845 C 735.411 4.4548 0.697025 0
M  V30 7846 C 734.073 4.78975 0.462237 0
M  V30 7847 C 736.425 5.21094 0.105315 0
M  V30 7848 C 733.753 5.85507 -0.374016 0
M  V30 7849 C 736.105 6.28509 -0.718298 0
M  V30 7850 C 734.769 6.60515 -0.963116 0
M  V30 7851 H 734.039 0.682157 0.289383 0
M  V30 7852 H 736.686 1.91429 0.0520961 0
M  V30 7853 H 734.991 3.12803 2.35927 0
M  V30 7854 H 736.688 3.41819 2.09669 0
M  V30 7855 H 733.278 4.19255 0.890137 0
M  V30 7856 H 737.462 4.95544 0.273856 0
M  V30 7857 H 732.718 6.08713 -0.572606 0
M  V30 7858 H 736.892 6.86268 -1.18362 0
M  V30 7859 H 734.519 7.42893 -1.6129 0
M  V30 7860 N 736.094 -0.359525 1.53444 0
M  V30 7861 C 737.505 -0.936009 1.61542 0
M  V30 7862 C 737.856 -1.90069 0.486633 0
M  V30 7863 O 736.981 -2.12929 -0.386047 0
M  V30 7864 C 737.576 -1.70441 2.92806 0
M  V30 7865 C 736.135 -2.23015 3.03218 0
M  V30 7866 C 735.282 -1.04438 2.56881 0
M  V30 7867 H 738.233 -0.138134 1.58098 0
M  V30 7868 H 738.254 -2.56609 2.80948 0
M  V30 7869 H 737.766 -1.00205 3.74941 0
M  V30 7870 H 735.867 -2.96475 2.25684 0
M  V30 7871 H 735.98 -2.50481 4.08407 0
M  V30 7872 H 734.344 -1.41314 2.11902 0
M  V30 7873 H 735.127 -0.356905 3.4144 0
M  V30 7874 N 737.572 -1.44907 -0.619662 0
M  V30 7875 C 738.988 -1.29046 -0.939107 0
M  V30 7876 C 739.188 -0.23462 -2.00129 0
M  V30 7877 O 738.244 0.37558 -2.49691 0
M  V30 7878 C 739.557 -2.66567 -1.39149 0
M  V30 7879 C 741.105 -2.74368 -1.50635 0
M  V30 7880 C 741.58 -4.12386 -1.99253 0
M  V30 7881 N 743.071 -4.1462 -2.06506 0
M  V30 7882 C 743.806 -5.18272 -2.4532 0
M  V30 7883 N 743.302 -6.32278 -2.83189 0
M  V30 7884 N 745.095 -5.05628 -2.45554 0
M  V30 7885 H 737.246 -2.12239 0.0826135 0
M  V30 7886 H 739.509 -0.947652 -0.0256829 0
M  V30 7887 H 739.215 -3.4496 -0.685254 0
M  V30 7888 H 739.089 -2.94224 -2.36034 0
M  V30 7889 H 741.476 -1.96287 -2.20353 0
M  V30 7890 H 741.557 -2.50439 -0.520963 0
M  V30 7891 H 741.201 -4.90947 -1.30127 0
M  V30 7892 H 741.131 -4.33699 -2.98684 0
M  V30 7893 H 743.622 -3.32343 -1.79878 0
M  V30 7894 H 743.935 -7.07172 -3.11652 0
M  V30 7895 H 742.28 -6.35699 -2.80913 0
M  V30 7896 H 745.471 -4.15613 -2.15367 0
M  V30 7897 H 745.644 -5.86529 -2.75478 0
M  V30 7898 N 739.05 0.861098 -1.31996 0
M  V30 7899 C 740.296 1.61721 -1.22369 0
M  V30 7900 C 740.629 1.93 0.215587 0
M  V30 7901 O 739.904 1.56789 1.15098 0
M  V30 7902 C 740.187 2.9417 -2.07691 0
M  V30 7903 C 740.04 2.69714 -3.59965 0
M  V30 7904 C 741.359 3.95372 -1.93312 0
M  V30 7905 H 738.478 0.586822 -0.44588 0
M  V30 7906 H 741.12 0.994788 -1.61876 0
M  V30 7907 H 739.27 3.47292 -1.74128 0
M  V30 7908 H 740.942 2.23196 -4.03709 0
M  V30 7909 H 739.185 2.03789 -3.82952 0
M  V30 7910 H 739.856 3.63996 -4.14983 0
M  V30 7911 H 742.332 3.51487 -2.22701 0
M  V30 7912 H 741.208 4.85916 -2.55298 0
M  V30 7913 H 741.469 4.32865 -0.898922 0
M  V30 7914 N 740.528 1.15101 1.07655 0
M  V30 7915 C 741.944 0.893004 1.32279 0
M  V30 7916 C 742.144 -0.461701 1.96139 0
M  V30 7917 O 741.2 -1.20431 2.21929 0
M  V30 7918 C 742.513 2.03161 2.21689 0
M  V30 7919 C 744.061 2.06579 2.35147 0
M  V30 7920 C 744.536 3.19754 3.27905 0
M  V30 7921 N 746.027 3.19382 3.35484 0
M  V30 7922 C 746.762 4.03592 4.07309 0
M  V30 7923 N 746.258 4.97859 4.81776 0
M  V30 7924 N 748.051 3.91626 4.03219 0
M  V30 7925 H 740.202 2.02341 0.645886 0
M  V30 7926 H 742.465 0.882127 0.347211 0
M  V30 7927 H 742.171 3.00934 1.82021 0
M  V30 7928 H 742.045 1.96132 3.22199 0
M  V30 7929 H 744.432 1.09408 2.74069 0
M  V30 7930 H 744.513 2.17676 1.34353 0
M  V30 7931 H 744.157 4.17175 2.89702 0
M  V30 7932 H 744.087 3.05893 4.28645 0
M  V30 7933 H 746.578 2.51112 2.82403 0
M  V30 7934 H 746.891 5.58563 5.34067 0
M  V30 7935 H 745.236 5.0185 4.80803 0
M  V30 7936 H 748.427 3.17295 3.44154 0
M  V30 7937 H 748.6 4.57479 4.5893 0
M  V30 7938 N 742.006 -1.2595 0.947325 0
M  V30 7939 C 743.255 -1.92759 0.593887 0
M  V30 7940 C 743.568 -1.75083 -0.872093 0
M  V30 7941 O 744.774 -2.36401 -1.33518 0
M  V30 7942 C 743.23 -3.45395 1.01144 0
M  V30 7943 C 742.838 -3.71795 2.49946 0
M  V30 7944 C 744.582 -4.18173 0.730185 0
M  V30 7945 C 742.489 -5.17901 2.85539 0
M  V30 7946 H 741.419 -0.721676 0.218403 0
M  V30 7947 H 744.07 -1.4293 1.15079 0
M  V30 7948 H 742.452 -3.94143 0.383007 0
M  V30 7949 H 743.626 -3.33728 3.17746 0
M  V30 7950 H 741.941 -3.12263 2.75465 0
M  V30 7951 H 744.538 -5.25784 0.972367 0
M  V30 7952 H 744.881 -4.14964 -0.333223 0
M  V30 7953 H 745.414 -3.75309 1.31862 0
M  V30 7954 H 742.153 -5.26216 3.90867 0
M  V30 7955 H 741.673 -5.57042 2.22406 0
M  V30 7956 H 743.352 -5.8596 2.74336 0
M  V30 7957 N 743.484 -0.715051 -1.40445 0
M  V30 7958 C 744.733 -0.251322 -2.00128 0
M  V30 7959 C 745.046 1.16194 -1.57347 0
M  V30 7960 O 746.252 1.72416 -2.09726 0
M  V30 7961 C 744.708 -0.398407 -3.57688 0
M  V30 7962 C 744.316 -1.81828 -4.09442 0
M  V30 7963 C 746.06 0.00455625 -4.245 0
M  V30 7964 C 743.967 -1.91598 -5.59503 0
M  V30 7965 H 742.897 -0.0902081 -0.748584 0
M  V30 7966 H 745.548 -0.886062 -1.6069 0
M  V30 7967 H 743.93 0.304908 -3.94824 0
M  V30 7968 H 745.104 -2.55193 -3.83684 0
M  V30 7969 H 743.419 -2.17266 -3.55225 0
M  V30 7970 H 746.016 -0.0477303 -5.34679 0
M  V30 7971 H 746.359 1.04636 -4.02935 0
M  V30 7972 H 746.892 -0.649184 -3.92467 0
M  V30 7973 H 743.631 -2.93898 -5.85922 0
M  V30 7974 H 743.151 -1.22644 -5.87127 0
M  V30 7975 H 744.83 -1.68785 -6.24596 0
M  V30 7976 N 744.962 1.50701 -0.461195 0
M  V30 7977 C 746.19 2.06681 0.0951756 0
M  V30 7978 C 746.605 1.32615 1.34382 0
M  V30 7979 O 745.962 0.392531 1.78229 0
M  V30 7980 C 746.013 3.59354 0.393316 0
M  V30 7981 O 745.734 4.30626 -0.805797 0
M  V30 7982 C 747.235 4.31926 0.997744 0
M  V30 7983 H 744.455 0.670995 -0.00267259 0
M  V30 7984 H 746.999 1.93991 -0.647137 0
M  V30 7985 H 745.154 3.7188 1.08555 0
M  V30 7986 H 745.568 5.21667 -0.544409 0
M  V30 7987 H 747.042 5.39756 1.15619 0
M  V30 7988 H 747.519 3.91772 1.98523 0
M  V30 7989 H 748.125 4.23905 0.344188 0
M  V30 7990 N 746.441 0.193421 1.56409 0
M  V30 7991 C 747.669 -0.451438 2.01915 0
M  V30 7992 C 748.084 -1.55306 1.07357 0
M  V30 7993 O 747.441 -1.82333 0.0781512 0
M  V30 7994 C 747.492 -1.00931 3.47124 0
M  V30 7995 O 747.213 0.0483623 4.38073 0
M  V30 7996 C 748.714 -1.73021 4.0814 0
M  V30 7997 H 745.934 -0.113495 0.661332 0
M  V30 7998 H 748.478 0.301636 2.02263 0
M  V30 7999 H 746.633 -1.71277 3.47481 0
M  V30 8000 H 747.047 -0.366644 5.23217 0
M  V30 8001 H 748.521 -2.07289 5.11601 0
M  V30 8002 H 748.998 -2.6333 3.51502 0
M  V30 8003 H 749.604 -1.07264 4.11551 0
M  V30 8004 N 747.919 -1.57396 -0.0801906 0
M  V30 8005 C 748.882 -2.02133 -1.0805 0
M  V30 8006 C 749.882 -0.91707 -1.32085 0
M  V30 8007 O 751.072 -1.18217 -1.27947 0
M  V30 8008 C 748.204 -2.39479 -2.42616 0
M  V30 8009 H 749.397 -2.91733 -0.6951 0
M  V30 8010 H 746.95 -1.52869 -0.325677 0
M  V30 8011 H 747.685 -1.52879 -2.86004 0
M  V30 8012 H 747.47 -3.20052 -2.26515 0
M  V30 8013 H 748.96 -2.74697 -3.14534 0
M  V30 8014 N 749.397 0.351382 -1.53633 0
M  V30 8015 C 750.643 1.09411 -1.70754 0
M  V30 8016 C 750.976 1.88544 -0.465293 0
M  V30 8017 O 750.251 1.86923 0.537608 0
M  V30 8018 C 750.534 2.04173 -2.96623 0
M  V30 8019 C 750.387 1.28556 -4.31038 0
M  V30 8020 C 751.706 3.04102 -3.18136 0
M  V30 8021 H 748.825 0.396373 -0.621335 0
M  V30 8022 H 751.467 0.373464 -1.86293 0
M  V30 8023 H 749.617 2.65625 -2.83506 0
M  V30 8024 H 751.289 0.697786 -4.55992 0
M  V30 8025 H 749.532 0.587498 -4.29803 0
M  V30 8026 H 750.203 1.97989 -5.15271 0
M  V30 8027 H 752.679 2.5276 -3.30532 0
M  V30 8028 H 751.555 3.67616 -4.07615 0
M  V30 8029 H 751.816 3.75053 -2.34068 0
M  V30 8030 N 750.875 1.45233 0.611969 0
M  V30 8031 C 752.152 1.39495 1.37115 0
M  V30 8032 C 752.532 0.0633303 2.11005 0
M  V30 8033 O 751.88 -0.954617 2.07604 0
M  V30 8034 C 752.09 2.60579 2.32163 0
M  V30 8035 C 753.438 3.05477 2.94905 0
M  V30 8036 O 754.462 2.60921 2.42485 0
M  V30 8037 O 753.321 3.82787 3.90047 0
M  V30 8038 H 750.415 0.55335 0.614599 0
M  V30 8039 H 752.961 1.57355 0.635423 0
M  V30 8040 H 751.733 3.49085 1.76793 0
M  V30 8041 H 751.356 2.45031 3.13122 0
M  V30 8042 N 752.353 -0.854086 1.3245 0
M  V30 8043 C 753.3 -1.96271 1.21434 0
M  V30 8044 C 754.27 -1.6582 0.0963851 0
M  V30 8045 O 755.455 -1.88851 0.27203 0
M  V30 8046 C 752.595 -3.31939 0.943952 0
M  V30 8047 C 751.708 -3.74885 2.14675 0
M  V30 8048 C 750.843 -4.99347 1.81179 0
M  V30 8049 C 749.882 -5.34785 2.97777 0
M  V30 8050 N 749.019 -6.50425 2.6437 0
M  V30 8051 H 753.859 -2.05025 2.16261 0
M  V30 8052 H 751.396 -1.00348 1.07558 0
M  V30 8053 H 753.354 -4.10076 0.767675 0
M  V30 8054 H 751.984 -3.22784 0.0324763 0
M  V30 8055 H 751.036 -2.92396 2.43328 0
M  V30 8056 H 752.348 -3.97068 3.01891 0
M  V30 8057 H 751.502 -5.85193 1.60107 0
M  V30 8058 H 750.241 -4.79101 0.911777 0
M  V30 8059 H 749.246 -4.47451 3.1948 0
M  V30 8060 H 750.471 -5.56988 3.88511 0
M  V30 8061 H 748.417 -6.31695 1.7691 0
M  V30 8062 H 748.334 -6.7263 3.45116 0
M  V30 8063 H 749.602 -7.39422 2.46729 0
M  V30 8064 N 753.831 -1.1567 -1.07043 0
M  V30 8065 C 755.247 -0.900006 -1.31803 0
M  V30 8066 C 755.447 0.451293 -1.96381 0
M  V30 8067 O 754.503 1.19252 -2.22565 0
M  V30 8068 C 755.816 -2.04334 -2.20609 0
M  V30 8069 C 757.364 -2.07823 -2.34048 0
M  V30 8070 C 757.839 -3.21488 -3.26204 0
M  V30 8071 N 759.33 -3.21156 -3.33786 0
M  V30 8072 C 760.065 -4.05746 -4.05163 0
M  V30 8073 N 759.561 -5.00407 -4.79129 0
M  V30 8074 N 761.354 -3.93759 -4.01136 0
M  V30 8075 H 753.505 -2.02681 -0.635146 0
M  V30 8076 H 755.768 -0.883956 -0.342528 0
M  V30 8077 H 755.474 -3.01895 -1.80423 0
M  V30 8078 H 755.348 -1.97838 -3.21154 0
M  V30 8079 H 757.735 -1.1086 -2.73485 0
M  V30 8080 H 757.816 -2.18386 -1.33197 0
M  V30 8081 H 757.46 -4.18706 -2.87485 0
M  V30 8082 H 757.39 -3.08162 -4.27017 0
M  V30 8083 H 759.881 -2.52606 -2.81067 0
M  V30 8084 H 760.194 -5.61387 -5.31097 0
M  V30 8085 H 758.539 -5.04393 -4.78135 0
M  V30 8086 H 761.73 -3.19115 -3.42466 0
M  V30 8087 H 761.903 -4.59906 -4.56498 0
M  V30 8088 N 755.309 1.25446 -0.953992 0
M  V30 8089 C 756.555 1.9343 -0.60933 0
M  V30 8090 C 756.888 1.74542 0.851388 0
M  V30 8091 O 756.163 1.09014 1.61078 0
M  V30 8092 C 756.446 3.46844 -0.968041 0
M  V30 8093 C 756.299 3.74961 -2.48444 0
M  V30 8094 C 757.618 4.37334 -0.492641 0
M  V30 8095 H 754.737 0.702502 -0.222844 0
M  V30 8096 H 757.379 1.48076 -1.19053 0
M  V30 8097 H 755.529 3.85604 -0.473465 0
M  V30 8098 H 757.201 3.45841 -3.05273 0
M  V30 8099 H 755.444 3.20589 -2.92241 0
M  V30 8100 H 756.115 4.82246 -2.68594 0
M  V30 8101 H 758.591 4.05873 -0.916878 0
M  V30 8102 H 757.467 5.43439 -0.772331 0
M  V30 8103 H 757.728 4.37908 0.607403 0
M  V30 8104 N 756.787 0.722489 1.40064 0
M  V30 8105 C 757.735 0.063329 2.32514 0
M  V30 8106 C 758.729 -0.73953 1.52405 0
M  V30 8107 O 759.935 -0.642122 1.68157 0
M  V30 8108 H 756.31 0.00167692 0.751998 0
M  V30 8109 H 758.281 0.859656 2.85749 0
M  V30 8110 C 757.03 -0.839219 3.3742 0
M  V30 8111 H 756.353 -0.230836 3.99133 0
M  V30 8112 H 757.793 -1.26827 4.04587 0
M  V30 8113 C 756.252 -1.96783 2.73456 0
M  V30 8114 O 756.782 -3.05933 2.60323 0
M  V30 8115 N 754.988 -1.75351 2.31734 0
M  V30 8116 H 754.535 -0.865787 2.42615 0
M  V30 8117 H 754.493 -2.51043 1.89275 0
M  V30 8118 N 758.265 -1.50454 0.469181 0
M  V30 8119 C 759.542 -1.9504 -0.147955 0
M  V30 8120 C 759.922 -1.40946 -1.57154 0
M  V30 8121 O 759.27 -0.609663 -2.20217 0
M  V30 8122 C 759.48 -3.48875 -0.0932198 0
M  V30 8123 C 760.828 -4.23655 -0.283056 0
M  V30 8124 O 761.852 -3.55795 -0.169892 0
M  V30 8125 O 760.711 -5.44102 -0.511396 0
M  V30 8126 H 757.805 -0.819283 -0.11271 0
M  V30 8127 H 760.351 -1.6123 0.529446 0
M  V30 8128 H 759.123 -3.80791 0.900784 0
M  V30 8129 H 758.746 -3.89217 -0.812161 0
M  V30 8130 N 759.743 -0.201713 -1.56304 0
M  V30 8131 C 760.673 0.71155 -2.22394 0
M  V30 8132 C 761.654 1.21625 -1.18917 0
M  V30 8133 O 762.839 1.26388 -1.47444 0
M  V30 8134 C 759.969 1.92837 -2.88845 0
M  V30 8135 C 758.923 1.55831 -3.98623 0
M  V30 8136 C 758.249 2.85228 -4.52271 0
M  V30 8137 C 759.549 0.763249 -5.16693 0
M  V30 8138 H 761.243 0.160573 -2.98969 0
M  V30 8139 H 758.789 0.0757916 -1.438 0
M  V30 8140 H 760.742 2.57253 -3.33764 0
M  V30 8141 H 759.466 2.50398 -2.09686 0
M  V30 8142 H 758.125 0.9377 -3.54405 0
M  V30 8143 H 757.773 3.40893 -3.69866 0
M  V30 8144 H 757.473 2.6121 -5.26349 0
M  V30 8145 H 758.997 3.50622 -4.99897 0
M  V30 8146 H 760.411 1.31066 -5.58117 0
M  V30 8147 H 758.808 0.620935 -5.96879 0
M  V30 8148 H 759.878 -0.234322 -4.84334 0
M  V30 8149 N 761.222 1.57436 0.0718424 0
M  V30 8150 C 762.469 1.87248 0.771007 0
M  V30 8151 C 762.797 0.793441 1.7758 0
M  V30 8152 O 762.052 -0.210565 1.94564 0
M  V30 8153 C 762.351 3.23723 1.51455 0
M  V30 8154 C 762.017 4.46194 0.649736 0
M  V30 8155 C 760.679 4.79438 0.411409 0
M  V30 8156 C 763.031 5.21176 0.05004 0
M  V30 8157 C 760.359 5.85077 -0.436096 0
M  V30 8158 C 762.711 6.27712 -0.784919 0
M  V30 8159 C 761.375 6.59457 -1.03312 0
M  V30 8160 H 760.645 0.685188 0.282132 0
M  V30 8161 H 763.292 1.91474 0.0317896 0
M  V30 8162 H 761.597 3.15287 2.32597 0
M  V30 8163 H 763.294 3.44023 2.06031 0
M  V30 8164 H 759.884 4.20175 0.84562 0
M  V30 8165 H 764.068 4.95806 0.221282 0
M  V30 8166 H 759.324 6.08071 -0.637136 0
M  V30 8167 H 763.498 6.84974 -1.25635 0
M  V30 8168 H 761.125 7.4114 -1.6916 0
M  V30 8169 N 762.7 -0.34323 1.53817 0
M  V30 8170 C 764.116 -0.686355 1.44088 0
M  V30 8171 C 764.316 -1.92426 0.597882 0
M  V30 8172 O 763.372 -2.52343 0.0889918 0
M  V30 8173 C 764.685 -0.878698 2.87575 0
M  V30 8174 C 766.233 -0.977296 2.97352 0
M  V30 8175 C 766.708 -1.20195 4.41947 0
M  V30 8176 N 768.199 -1.26915 4.45474 0
M  V30 8177 C 768.934 -1.46049 5.54488 0
M  V30 8178 N 768.43 -1.62354 6.73508 0
M  V30 8179 N 770.223 -1.48599 5.42102 0
M  V30 8180 H 762.374 0.470679 2.07119 0
M  V30 8181 H 764.637 0.148652 0.936273 0
M  V30 8182 H 764.343 -0.040602 3.51677 0
M  V30 8183 H 764.217 -1.78034 3.32541 0
M  V30 8184 H 766.604 -1.80591 2.3339 0
M  V30 8185 H 766.685 -0.0525498 2.55746 0
M  V30 8186 H 766.329 -0.378262 5.06489 0
M  V30 8187 H 766.259 -2.14027 4.81145 0
M  V30 8188 H 768.75 -1.15837 3.59708 0
M  V30 8189 H 769.063 -1.76591 7.52353 0
M  V30 8190 H 767.408 -1.5949 6.76453 0
M  V30 8191 H 770.599 -1.35443 4.48077 0
M  V30 8192 H 770.772 -1.6317 6.2712 0
M  V30 8193 N 764.178 -1.45556 -0.604258 0
M  V30 8194 C 765.427 -1.49019 -1.35928 0
M  V30 8195 C 765.74 -0.137409 -1.95117 0
M  V30 8196 O 766.946 -0.0497032 -2.71455 0
M  V30 8197 C 765.402 -2.62477 -2.46239 0
M  V30 8198 C 765.01 -4.04082 -1.93447 0
M  V30 8199 C 766.754 -2.7519 -3.23219 0
M  V30 8200 C 764.661 -5.08917 -3.0126 0
M  V30 8201 H 763.591 -0.554518 -0.510907 0
M  V30 8202 H 766.242 -1.71705 -0.647262 0
M  V30 8203 H 764.624 -2.3308 -3.2014 0
M  V30 8204 H 765.798 -4.43173 -1.26232 0
M  V30 8205 H 764.113 -3.95849 -1.29201 0
M  V30 8206 H 766.71 -3.50683 -4.0364 0
M  V30 8207 H 767.053 -1.81941 -3.74437 0
M  V30 8208 H 767.586 -3.04129 -2.56418 0
M  V30 8209 H 764.325 -6.03886 -2.54955 0
M  V30 8210 H 763.845 -4.74393 -3.67031 0
M  V30 8211 H 765.524 -5.33814 -3.65584 0
M  V30 8212 N 765.656 0.84705 -1.32902 0
M  V30 8213 C 766.905 1.59667 -1.23245 0
M  V30 8214 C 767.218 1.94551 0.202349 0
M  V30 8215 O 768.424 2.68218 0.420847 0
M  V30 8216 C 766.88 2.8795 -2.15901 0
M  V30 8217 C 766.488 2.60461 -3.64505 0
M  V30 8218 C 768.232 3.65968 -2.15098 0
M  V30 8219 C 766.139 3.84791 -4.49099 0
M  V30 8220 H 765.069 0.599167 -0.457728 0
M  V30 8221 H 767.72 0.934662 -1.57912 0
M  V30 8222 H 766.102 3.55648 -1.74157 0
M  V30 8223 H 767.276 2.01026 -4.14639 0
M  V30 8224 H 765.591 1.9576 -3.67515 0
M  V30 8225 H 768.188 4.58241 -2.75534 0
M  V30 8226 H 768.531 4.00275 -1.14392 0
M  V30 8227 H 769.064 3.05184 -2.55162 0
M  V30 8228 H 765.803 3.55621 -5.50649 0
M  V30 8229 H 765.323 4.43594 -4.03713 0
M  V30 8230 H 767.002 4.52454 -4.62487 0
M  V30 8231 N 767.134 1.16236 1.06428 0
M  V30 8232 C 768.545 0.950942 1.60667 0
M  V30 8233 C 768.896 -0.505491 1.89576 0
M  V30 8234 O 768.021 -1.37843 1.66818 0
M  V30 8235 C 768.616 1.71982 2.91904 0
M  V30 8236 C 767.175 1.55342 3.4285 0
M  V30 8237 C 766.322 1.72942 2.16763 0
M  V30 8238 H 769.273 1.31126 0.893959 0
M  V30 8239 H 769.294 1.19483 3.61253 0
M  V30 8240 H 768.806 2.77978 2.70831 0
M  V30 8241 H 766.907 0.5178 3.68985 0
M  V30 8242 H 767.02 2.33643 4.18267 0
M  V30 8243 H 765.384 1.15673 2.26918 0
M  V30 8244 H 766.167 2.80324 1.98175 0
M  V30 8245 N 768.612 -1.24939 0.960631 0
M  V30 8246 C 769.86 -1.92437 0.617441 0
M  V30 8247 C 770.181 -1.75543 -0.849101 0
M  V30 8248 O 769.451 -1.12269 -1.60538 0
M  V30 8249 H 768.031 -0.712192 0.225371 0
M  V30 8250 H 770.693 -1.5198 1.22017 0
M  V30 8251 H 769.789 -3.00247 0.851933 0
M  V30 8252 N 770.09 -0.729906 -1.39679 0
M  V30 8253 C 771.339 -0.272534 -1.9985 0
M  V30 8254 C 771.652 1.14519 -1.58571 0
M  V30 8255 O 772.858 1.70182 -2.11543 0
M  V30 8256 C 771.314 -0.436322 -3.57245 0
M  V30 8257 C 770.922 -1.86161 -4.0749 0
M  V30 8258 C 772.666 -0.0404679 -4.24481 0
M  V30 8259 C 770.573 -1.97522 -5.5744 0
M  V30 8260 H 769.503 -0.0981428 -0.747585 0
M  V30 8261 H 772.154 -0.903056 -1.59741 0
M  V30 8262 H 770.536 0.263015 -3.95126 0
M  V30 8263 H 771.71 -2.59248 -3.80955 0
M  V30 8264 H 770.025 -2.21021 -3.529 0
M  V30 8265 H 772.622 -0.104437 -5.34598 0
M  V30 8266 H 772.965 1.00357 -4.04023 0
M  V30 8267 H 773.498 -0.690774 -3.91757 0
M  V30 8268 H 770.237 -3.00096 -5.82771 0
M  V30 8269 H 769.757 -1.28864 -5.85794 0
M  V30 8270 H 771.436 -1.754 -6.22771 0
M  V30 8271 N 771.568 1.50203 -0.477153 0
M  V30 8272 C 772.816 2.01959 0.0755889 0
M  V30 8273 C 773.137 1.3608 1.39668 0
M  V30 8274 O 772.407 0.508136 1.89195 0
M  V30 8275 H 770.987 0.74636 0.0309248 0
M  V30 8276 H 773.649 1.84473 -0.628959 0
M  V30 8277 H 772.745 3.11305 0.222683 0
M  V30 8278 N 773.046 0.209999 1.56195 0
M  V30 8279 C 773.994 -0.721416 2.2113 0
M  V30 8280 C 774.988 -1.20852 1.18706 0
M  V30 8281 O 776.194 -1.16968 1.36815 0
M  V30 8282 H 772.569 -0.251033 0.708863 0
M  V30 8283 H 774.54 -0.150193 2.98022 0
M  V30 8284 C 773.289 -1.92392 2.89621 0
M  V30 8285 H 772.612 -1.5582 3.68185 0
M  V30 8286 H 774.052 -2.55367 3.38473 0
M  V30 8287 C 772.511 -2.77208 1.91461 0
M  V30 8288 O 773.041 -3.75603 1.42426 0
M  V30 8289 N 771.247 -2.43006 1.59363 0
M  V30 8290 H 770.794 -1.63047 1.99433 0
M  V30 8291 H 770.752 -3.00036 0.939449 0
M  V30 8292 N 774.524 -1.57472 -0.0634922 0
M  V30 8293 C 775.771 -1.87654 -0.761066 0
M  V30 8294 C 776.099 -0.802847 -1.77157 0
M  V30 8295 O 775.354 0.200244 -1.94673 0
M  V30 8296 C 775.653 -3.24521 -1.49736 0
M  V30 8297 C 775.319 -4.46532 -0.626065 0
M  V30 8298 C 773.981 -4.7965 -0.385978 0
M  V30 8299 C 776.333 -5.21195 -0.0224001 0
M  V30 8300 C 773.661 -5.84837 0.467118 0
M  V30 8301 C 776.013 -6.27286 0.818198 0
M  V30 8302 C 774.677 -6.58899 1.06808 0
M  V30 8303 H 773.947 -0.686675 -0.278494 0
M  V30 8304 H 776.594 -1.91488 -0.0216348 0
M  V30 8305 H 774.899 -3.16516 -2.30921 0
M  V30 8306 H 776.596 -3.45111 -2.04204 0
M  V30 8307 H 773.186 -4.20618 -0.823325 0
M  V30 8308 H 777.37 -4.95917 -0.194985 0
M  V30 8309 H 772.626 -6.07725 0.669375 0
M  V30 8310 H 776.8 -6.84298 1.29265 0
M  V30 8311 H 774.427 -7.40233 1.73088 0
M  V30 8312 N 776.003 0.335068 -1.53997 0
M  V30 8313 C 777.251 1.07223 -1.71312 0
M  V30 8314 C 777.572 1.88911 -0.483486 0
M  V30 8315 O 776.842 1.89344 0.50257 0
M  V30 8316 H 775.422 0.398846 -0.63161 0
M  V30 8317 H 778.084 0.374288 -1.91272 0
M  V30 8318 H 777.18 1.7448 -2.58772 0
M  V30 8319 N 777.481 1.45874 0.596531 0
M  V30 8320 C 778.758 1.40942 1.35627 0
M  V30 8321 C 779.138 0.0857066 2.10926 0
M  V30 8322 O 778.486 -0.932544 2.08605 0
M  V30 8323 C 778.696 2.63027 2.29386 0
M  V30 8324 C 780.044 3.08588 2.91649 0
M  V30 8325 O 781.068 2.63478 2.39704 0
M  V30 8326 O 779.927 3.86902 3.85965 0
M  V30 8327 H 777.021 0.559838 0.608696 0
M  V30 8328 H 779.567 1.5802 0.618698 0
M  V30 8329 H 778.339 3.5094 1.7308 0
M  V30 8330 H 777.962 2.48338 3.10506 0
M  V30 8331 N 778.959 -0.83999 1.33349 0
M  V30 8332 C 780.375 -1.13049 1.12659 0
M  V30 8333 C 780.575 -2.01328 -0.0832613 0
M  V30 8334 O 779.631 -2.40669 -0.763856 0
M  V30 8335 C 780.944 -1.79366 2.41347 0
M  V30 8336 C 782.492 -1.91937 2.47243 0
M  V30 8337 C 782.967 -2.6167 3.75889 0
M  V30 8338 N 784.458 -2.69184 3.76954 0
M  V30 8339 C 785.193 -3.23827 4.73206 0
M  V30 8340 N 784.689 -3.79166 5.79832 0
M  V30 8341 N 786.482 -3.22068 4.60683 0
M  V30 8342 H 778.633 -0.252432 2.10895 0
M  V30 8343 H 780.896 -0.174501 0.931801 0
M  V30 8344 H 780.602 -1.2196 3.29877 0
M  V30 8345 H 780.476 -2.79396 2.53412 0
M  V30 8346 H 782.863 -2.48498 1.59163 0
M  V30 8347 H 782.944 -0.908604 2.39119 0
M  V30 8348 H 782.588 -2.05769 4.64351 0
M  V30 8349 H 782.518 -3.63217 3.81289 0
M  V30 8350 H 785.009 -2.2994 2.99893 0
M  V30 8351 H 785.322 -4.19061 6.49313 0
M  V30 8352 H 783.667 -3.77457 5.83568 0
M  V30 8353 H 786.858 -2.78092 3.7654 0
M  V30 8354 H 787.031 -3.64351 5.35866 0
M  V30 8355 N 780.437 -1.16799 -1.0581 0
M  V30 8356 C 781.667 -0.975454 -1.82122 0
M  V30 8357 C 782.075 0.479584 -1.83021 0
M  V30 8358 O 781.418 1.34471 -1.25153 0
M  V30 8359 C 781.48 -1.43209 -3.29744 0
M  V30 8360 C 781.144 -2.908 -3.5254 0
M  V30 8361 C 782.141 -3.88775 -3.45181 0
M  V30 8362 C 779.826 -3.28832 -3.79703 0
M  V30 8363 C 781.82 -5.22782 -3.64661 0
M  V30 8364 C 779.507 -4.63007 -3.98832 0
M  V30 8365 C 780.505 -5.59791 -3.91309 0
M  V30 8366 O 780.193 -6.9154 -4.09911 0
M  V30 8367 H 779.925 -0.345655 -0.580947 0
M  V30 8368 H 782.479 -1.55355 -1.34365 0
M  V30 8369 H 780.709 -0.797504 -3.78387 0
M  V30 8370 H 782.398 -1.2062 -3.87564 0
M  V30 8371 H 783.164 -3.60738 -3.2418 0
M  V30 8372 H 779.043 -2.54073 -3.84666 0
M  V30 8373 H 782.587 -5.98312 -3.58705 0
M  V30 8374 H 778.484 -4.90752 -4.19324 0
M  V30 8375 H 779.252 -6.98188 -4.27172 0
M  V30 8376 N 781.915 1.24427 -0.967243 0
M  V30 8377 C 783.162 1.92487 -0.62888 0
M  V30 8378 C 783.49 1.75623 0.835871 0
M  V30 8379 O 782.745 1.1027 1.61675 0
M  V30 8380 C 783.044 3.44568 -0.949096 0
M  V30 8381 C 782.71 3.816 -2.40192 0
M  V30 8382 C 781.372 3.9142 -2.799 0
M  V30 8383 C 783.724 3.99715 -3.34481 0
M  V30 8384 C 781.052 4.16771 -4.12939 0
M  V30 8385 C 783.404 4.26562 -4.67148 0
M  V30 8386 C 782.068 4.34601 -5.06634 0
M  V30 8387 H 781.338 0.704361 -0.230124 0
M  V30 8388 H 783.985 1.4772 -1.21864 0
M  V30 8389 H 782.29 3.90819 -0.277085 0
M  V30 8390 H 783.987 3.95436 -0.665692 0
M  V30 8391 H 780.577 3.74522 -2.08402 0
M  V30 8392 H 784.761 3.91531 -3.04987 0
M  V30 8393 H 780.017 4.21214 -4.43158 0
M  V30 8394 H 784.191 4.39523 -5.40178 0
M  V30 8395 H 781.818 4.53998 -6.09746 0
M  V30 8396 N 783.393 0.737304 1.3929 0
M  V30 8397 C 784.641 0.285691 2.00071 0
M  V30 8398 C 784.962 -1.13169 1.58801 0
M  V30 8399 O 784.232 -1.77104 0.837308 0
M  V30 8400 H 782.812 0.102638 0.739915 0
M  V30 8401 H 785.474 0.947775 1.70303 0
M  V30 8402 H 784.57 0.335906 3.10287 0
M  V30 8403 N 784.871 -1.49948 0.485112 0
M  V30 8404 C 786.099 -2.06806 -0.0622824 0
M  V30 8405 C 786.514 -1.34736 -1.32256 0
M  V30 8406 O 785.871 -0.420836 -1.77582 0
M  V30 8407 C 785.922 -3.59934 -0.336096 0
M  V30 8408 O 785.643 -4.29289 0.874203 0
M  V30 8409 C 787.144 -4.33459 -0.928903 0
M  V30 8410 H 784.364 -0.670867 0.0133472 0
M  V30 8411 H 786.908 -1.92937 0.677917 0
M  V30 8412 H 785.063 -3.7356 -1.02625 0
M  V30 8413 H 785.477 -5.20735 0.627332 0
M  V30 8414 H 786.951 -5.41527 -1.07017 0
M  V30 8415 H 787.428 -3.94881 -1.92265 0
M  V30 8416 H 788.034 -4.24399 -0.276705 0
M  V30 8417 N 786.349 -0.21828 -1.56081 0
M  V30 8418 C 787.626 0.463143 -1.90038 0
M  V30 8419 C 788.006 1.77982 -1.13515 0
M  V30 8420 O 787.354 2.27199 -0.24345 0
M  V30 8421 C 787.564 0.659292 -3.42716 0
M  V30 8422 C 788.912 0.968203 -4.13414 0
M  V30 8423 O 789.936 0.746195 -3.48296 0
M  V30 8424 O 788.795 1.38936 -5.28544 0
M  V30 8425 H 785.889 0.244435 -0.790051 0
M  V30 8426 H 788.435 -0.260221 -1.67693 0
M  V30 8427 H 787.207 -0.269584 -3.9037 0
M  V30 8428 H 786.83 1.43426 -3.7083 0
M  V30 8429 N 787.827 1.57504 0.0551401 0
M  V30 8430 C 788.79 2.03826 1.04821 0
M  V30 8431 C 789.79 0.937968 1.30609 0
M  V30 8432 O 790.98 1.20237 1.2605 0
M  V30 8433 C 788.112 2.43309 2.38775 0
M  V30 8434 H 789.305 2.92802 0.6486 0
M  V30 8435 H 786.858 1.53368 0.301315 0
M  V30 8436 H 787.593 1.5741 2.83536 0
M  V30 8437 H 787.378 3.23615 2.21395 0
M  V30 8438 H 788.868 2.79666 3.10124 0
M  V30 8439 N 789.305 -0.326896 1.54172 0
M  V30 8440 C 790.551 -1.06681 1.72473 0
M  V30 8441 C 790.884 -1.87779 0.49523 0
M  V30 8442 O 790.159 -1.87754 -0.507803 0
M  V30 8443 C 790.442 -1.99429 2.99834 0
M  V30 8444 C 790.295 -1.21682 4.33028 0
M  V30 8445 C 791.614 -2.99002 3.22933 0
M  V30 8446 H 788.733 -0.386438 0.627563 0
M  V30 8447 H 791.375 -0.343779 1.86864 0
M  V30 8448 H 789.525 -2.61081 2.87696 0
M  V30 8449 H 791.197 -0.625153 4.57044 0
M  V30 8450 H 789.44 -0.519045 4.30684 0
M  V30 8451 H 790.111 -1.89766 5.18356 0
M  V30 8452 H 792.587 -2.4747 3.34511 0
M  V30 8453 H 791.463 -3.61085 4.13412 0
M  V30 8454 H 791.724 -3.71281 2.40006 0
M  V30 8455 N 790.784 -1.46188 -0.588786 0
M  V30 8456 C 792.195 -1.45421 -1.17088 0
M  V30 8457 C 792.546 -0.191801 -1.9526 0
M  V30 8458 O 791.671 0.705497 -2.04577 0
M  V30 8459 C 792.266 -2.63467 -2.13004 0
M  V30 8460 C 790.825 -2.6576 -2.6655 0
M  V30 8461 C 789.972 -2.38002 -1.42304 0
M  V30 8462 H 792.923 -1.54156 -0.377052 0
M  V30 8463 H 792.944 -2.38638 -2.96365 0
M  V30 8464 H 792.456 -3.55331 -1.56081 0
M  V30 8465 H 790.557 -1.77952 -3.27359 0
M  V30 8466 H 790.67 -3.65545 -3.09699 0
M  V30 8467 H 789.034 -1.87936 -1.71907 0
M  V30 8468 H 789.817 -3.32035 -0.872209 0
M  V30 8469 N 792.262 0.832906 -1.33792 0
M  V30 8470 C 793.539 1.57359 -1.16178 0
M  V30 8471 C 793.919 2.09372 0.269532 0
M  V30 8472 O 793.267 1.89993 1.26944 0
M  V30 8473 C 793.477 2.70279 -2.20795 0
M  V30 8474 C 794.825 3.39305 -2.55259 0
M  V30 8475 O 795.849 2.80526 -2.19508 0
M  V30 8476 O 794.708 4.45428 -3.16632 0
M  V30 8477 H 791.802 0.694025 -0.449731 0
M  V30 8478 H 794.348 0.875144 -1.45394 0
M  V30 8479 H 793.12 2.29527 -3.16911 0
M  V30 8480 H 792.743 3.47782 -1.927 0
M  V30 8481 N 793.74 1.17359 1.05189 0
M  V30 8482 C 794.988 0.960087 1.77839 0
M  V30 8483 C 795.309 -0.512554 1.88143 0
M  V30 8484 O 794.579 -1.3721 1.39822 0
M  V30 8485 H 793.159 0.352234 0.658741 0
M  V30 8486 H 795.821 1.47834 1.27008 0
M  V30 8487 H 794.917 1.38843 2.79516 0
M  V30 8488 N 795.218 -1.23913 0.973828 0
M  V30 8489 C 796.443 -1.96735 0.656511 0
M  V30 8490 C 796.868 -1.71682 -0.768571 0
M  V30 8491 O 796.226 -0.984267 -1.52256 0
M  V30 8492 C 796.274 -3.48004 0.944735 0
M  V30 8493 O 795.378 -4.12387 0.0333357 0
M  V30 8494 H 794.719 -0.616119 0.247575 0
M  V30 8495 H 797.249 -1.57525 1.30564 0
M  V30 8496 H 797.259 -3.98424 0.87876 0
M  V30 8497 H 795.934 -3.65567 1.98328 0
M  V30 8498 H 794.511 -3.72585 0.153157 0
M  V30 8499 N 796.696 -0.74468 -1.38897 0
M  V30 8500 C 797.973 -0.222773 -1.94327 0
M  V30 8501 C 798.353 1.27731 -1.68071 0
M  V30 8502 O 797.701 2.04754 -1.01429 0
M  V30 8503 C 797.911 -0.566836 -3.44366 0
M  V30 8504 C 799.259 -0.521531 -4.21385 0
M  V30 8505 O 800.283 -0.504599 -3.52608 0
M  V30 8506 O 799.142 -0.524595 -5.43976 0
M  V30 8507 H 796.236 -0.0439259 -0.825833 0
M  V30 8508 H 798.782 -0.824197 -1.48341 0
M  V30 8509 H 797.554 -1.60321 -3.56949 0
M  V30 8510 H 797.177 0.0630577 -3.9755 0
M  V30 8511 N 798.174 1.49689 -0.493057 0
M  V30 8512 C 799.084 2.32746 0.294358 0
M  V30 8513 C 800.1 1.44117 0.975003 0
M  V30 8514 O 801.276 1.77149 0.958138 0
M  V30 8515 C 798.341 3.19358 1.34949 0
M  V30 8516 C 797.402 4.2383 0.683122 0
M  V30 8517 C 796.635 5.06303 1.68798 0
M  V30 8518 O 796.858 4.90172 2.91698 0
M  V30 8519 O 795.792 5.88826 1.24768 0
M  V30 8520 H 799.618 3.01247 -0.385254 0
M  V30 8521 H 797.203 1.47216 -0.254519 0
M  V30 8522 H 799.085 3.73037 1.96014 0
M  V30 8523 H 797.76 2.53561 2.01217 0
M  V30 8524 H 796.667 3.74086 0.0329351 0
M  V30 8525 H 798 4.9216 0.0630192 0
M  V30 8526 N 799.652 0.226554 1.55963 0
M  V30 8527 C 800.562 -0.692725 2.24139 0
M  V30 8528 C 801.578 -1.20971 1.25068 0
M  V30 8529 O 802.754 -1.25027 1.57893 0
M  V30 8530 C 799.819 -1.88183 2.91184 0
M  V30 8531 C 798.88 -1.40633 4.05612 0
M  V30 8532 C 798.113 -2.53875 4.6945 0
M  V30 8533 O 798.336 -3.72129 4.32292 0
M  V30 8534 O 797.27 -2.24792 5.58348 0
M  V30 8535 H 801.096 -0.141921 3.03368 0
M  V30 8536 H 798.681 -0.0041049 1.49399 0
M  V30 8537 H 800.563 -2.57617 3.33484 0
M  V30 8538 H 799.238 -2.42064 2.14911 0
M  V30 8539 H 798.145 -0.67986 3.67871 0
M  V30 8540 H 799.478 -0.913838 4.83642 0
M  V30 8541 N 801.13 -1.57531 -0.0467866 0
M  V30 8542 C 802.04 -2.08768 -1.07018 0
M  V30 8543 C 803.056 -1.02245 -1.40791 0
M  V30 8544 O 804.232 -1.33873 -1.50466 0
M  V30 8545 C 801.297 -2.54221 -2.35738 0
M  V30 8546 C 800.358 -3.75152 -2.08709 0
M  V30 8547 C 799.591 -4.18428 -3.31291 0
M  V30 8548 O 799.814 -3.61365 -4.4133 0
M  V30 8549 O 798.748 -5.11018 -3.18032 0
M  V30 8550 H 802.574 -2.96334 -0.664812 0
M  V30 8551 H 800.159 -1.47074 -0.262605 0
M  V30 8552 H 802.041 -2.83866 -3.11445 0
M  V30 8553 H 800.716 -1.69774 -2.75605 0
M  V30 8554 H 799.623 -3.50553 -1.30627 0
M  V30 8555 H 800.956 -4.60528 -1.73708 0
M  V30 8556 N 802.608 0.318715 -1.54344 0
M  V30 8557 C 803.854 1.05765 -1.73037 0
M  V30 8558 C 804.187 1.87514 -0.505181 0
M  V30 8559 O 803.462 1.88021 0.497838 0
M  V30 8560 C 803.745 1.97836 -3.00887 0
M  V30 8561 C 803.598 1.19384 -4.33668 0
M  V30 8562 C 804.917 2.97285 -3.24514 0
M  V30 8563 H 802.036 0.383104 -0.629603 0
M  V30 8564 H 804.678 0.333864 -1.87044 0
M  V30 8565 H 802.828 2.59552 -2.89076 0
M  V30 8566 H 804.5 0.600906 -4.57369 0
M  V30 8567 H 802.743 0.496198 -4.30953 0
M  V30 8568 H 803.414 1.87014 -5.19355 0
M  V30 8569 H 805.89 2.45693 -3.35819 0
M  V30 8570 H 804.766 3.58887 -4.15321 0
M  V30 8571 H 805.027 3.70003 -2.41971 0
M  V30 8572 N 804.086 1.46499 0.581025 0
M  V30 8573 C 805.049 1.5677 1.672 0
M  V30 8574 C 806.049 0.444716 1.54528 0
M  V30 8575 O 807.239 0.709074 1.59116 0
M  V30 8576 C 804.371 1.4896 3.06633 0
M  V30 8577 H 805.564 2.54 1.5945 0
M  V30 8578 H 803.117 1.34334 0.799003 0
M  V30 8579 H 803.852 0.530168 3.19937 0
M  V30 8580 H 803.637 2.30439 3.17239 0
M  V30 8581 H 805.127 1.59237 3.86048 0
M  V30 8582 N 805.565 -0.825799 1.34232 0
M  V30 8583 C 806.795 -1.61129 1.29309 0
M  V30 8584 C 807.203 -1.88714 -0.135589 0
M  V30 8585 O 806.546 -1.47703 -1.09222 0
M  V30 8586 C 806.608 -2.97866 2.01287 0
M  V30 8587 C 806.272 -2.9319 3.50555 0
M  V30 8588 C 807.269 -2.67978 4.45515 0
M  V30 8589 C 804.954 -3.12913 3.92926 0
M  V30 8590 C 806.948 -2.62536 5.80822 0
M  V30 8591 C 804.635 -3.07096 5.28333 0
M  V30 8592 C 805.633 -2.8194 6.22092 0
M  V30 8593 O 805.321 -2.7605 7.55018 0
M  V30 8594 H 805.053 -0.507652 0.446391 0
M  V30 8595 H 807.607 -1.03575 1.77374 0
M  V30 8596 H 805.837 -3.57327 1.47832 0
M  V30 8597 H 807.526 -3.58848 1.89691 0
M  V30 8598 H 808.292 -2.52478 4.14101 0
M  V30 8599 H 804.171 -3.3151 3.20347 0
M  V30 8600 H 807.715 -2.42821 6.53975 0
M  V30 8601 H 803.612 -3.22148 5.59367 0
M  V30 8602 H 804.38 -2.91798 7.6472 0
M  V30 8603 N 807.043 -1.17915 -1.04565 0
M  V30 8604 C 808.271 -0.99616 -1.8134 0
M  V30 8605 C 808.686 0.455509 -1.83223 0
M  V30 8606 O 808.043 1.31636 -1.26405 0
M  V30 8607 C 808.094 -1.53758 -3.27171 0
M  V30 8608 O 807.815 -2.93241 -3.25486 0
M  V30 8609 C 809.316 -1.40007 -4.2061 0
M  V30 8610 H 806.536 -0.352055 -0.571225 0
M  V30 8611 H 809.08 -1.56349 -1.31815 0
M  V30 8612 H 807.235 -1.01213 -3.73945 0
M  V30 8613 H 807.649 -3.18392 -4.16805 0
M  V30 8614 H 809.123 -1.82695 -5.2089 0
M  V30 8615 H 809.6 -0.348054 -4.37819 0
M  V30 8616 H 810.206 -1.916 -3.79697 0
M  V30 8617 N 808.521 1.23394 -0.980386 0
M  V30 8618 C 809.769 1.91431 -0.647978 0
M  V30 8619 C 810.09 1.76871 0.821066 0
M  V30 8620 O 809.36 1.14808 1.58732 0
M  V30 8621 H 807.94 0.708516 -0.236673 0
M  V30 8622 H 810.602 1.50019 -1.2442 0
M  V30 8623 H 809.698 2.98854 -0.899592 0
M  V30 8624 O 810.038 0.889354 1.34806 0
M  V30 8625 H 810.729 0.496436 1.8723 0
M  V30 END ATOM
M  V30 BEGIN BOND
M  V30 END BOND
M  V30 END CTAB
M  END
$$$$
