drugbank_target|Q6NUS8 UDP-glucuronosyltransferase 3A1 (DB01852; DB04216)
 OpenBabel12092120473D

  0  0  0     0  0            999 V3000
M  V30 BEGIN CTAB
M  V30 COUNTS 8390 8502 0 0 0
M  V30 BEGIN ATOM
M  V30 1 H -0.908 1.98254 -0.117106 0
M  V30 2 N 0 1.576 0 0
M  V30 3 C 0.933 2.03868 1.02534 0
M  V30 4 C 1.911 0.928543 1.3348 0
M  V30 5 O 3.095 1.19667 1.45644 0
M  V30 6 C 0.222 2.43627 2.35294 0
M  V30 7 C -0.732 3.65373 2.2001 0
M  V30 8 S 0.101 5.13292 1.52614 0
M  V30 9 C 1.257 5.56322 2.86805 0
M  V30 10 H 1.49 2.90518 0.631377 0
M  V30 11 H -0.977 1.52953 0.210867 0
M  V30 12 H 0.981 2.67203 3.11629 0
M  V30 13 H -0.358 1.57376 2.7183 0
M  V30 14 H -1.165 3.90944 3.18086 0
M  V30 15 H -1.563 3.418 1.51819 0
M  V30 16 H 0.729 5.58782 3.83104 0
M  V30 17 H 1.672 6.56266 2.65933 0
M  V30 18 H 2.08 4.83886 2.90714 0
M  V30 19 N 1.4781 -0.272755 1.55222 0
M  V30 20 C 2.7241 -1.00581 1.761 0
M  V30 21 C 3.0571 -1.85932 0.560625 0
M  V30 22 O 2.3321 -1.89416 -0.441801 0
M  V30 23 C 2.6151 -1.88816 3.06628 0
M  V30 24 C 2.4681 -1.06457 4.37021 0
M  V30 25 C 3.7871 -2.8752 3.33197 0
M  V30 26 H 0.9061 -0.364244 0.640699 0
M  V30 27 H 3.5481 -0.278189 1.87952 0
M  V30 28 H 1.6981 -2.50856 2.96654 0
M  V30 29 H 3.3701 -0.464863 4.58952 0
M  V30 30 H 1.6131 -0.368043 4.32236 0
M  V30 31 H 2.2841 -1.71514 5.24678 0
M  V30 32 H 4.7601 -2.35615 3.42965 0
M  V30 33 H 3.6361 -3.46399 4.25792 0
M  V30 34 H 3.8971 -3.62657 2.52849 0
M  V30 35 N 2.9562 -1.48159 -0.537278 0
M  V30 36 C 4.2042 -1.55497 -1.29094 0
M  V30 37 C 4.5252 -0.227454 -1.93669 0
M  V30 38 O 3.7952 0.750386 -1.80959 0
M  V30 39 H 2.3752 -0.572832 -0.47945 0
M  V30 40 H 5.0372 -1.84579 -0.625818 0
M  V30 41 H 4.1332 -2.33216 -2.07405 0
M  V30 42 N 4.4343 0.785586 -1.36625 0
M  V30 43 C 5.3663 1.90711 -1.2713 0
M  V30 44 C 6.3793 1.61688 -0.189986 0
M  V30 45 O 7.5683 1.72864 -0.445014 0
M  V30 46 C 4.6683 3.25611 -0.939713 0
M  V30 47 C 3.8413 3.82385 -2.12369 0
M  V30 48 C 2.9003 4.95732 -1.76456 0
M  V30 49 O 1.9263 5.12047 -2.48589 0
M  V30 50 N 3.1283 5.76258 -0.700492 0
M  V30 51 H 5.8933 1.99376 -2.23762 0
M  V30 52 H 3.4543 0.964041 -1.30069 0
M  V30 53 H 5.4463 3.98937 -0.680554 0
M  V30 54 H 4.0163 3.12538 -0.0624074 0
M  V30 55 H 3.2363 3.01001 -2.54543 0
M  V30 56 H 4.5243 4.17047 -2.9146 0
M  V30 57 H 3.9223 5.65609 -0.101624 0
M  V30 58 H 2.4793 6.4987 -0.501165 0
M  V30 59 N 5.9124 1.20967 1.01018 0
M  V30 60 C 7.3284 0.965905 1.27053 0
M  V30 61 C 7.5284 -0.350785 1.98423 0
M  V30 62 O 6.5844 -1.07773 2.28344 0
M  V30 63 C 7.8974 2.15294 2.09926 0
M  V30 64 C 9.4454 2.19463 2.23171 0
M  V30 65 C 9.9204 3.3767 3.09424 0
M  V30 66 N 11.4114 3.37724 3.17012 0
M  V30 67 C 12.1464 4.25837 3.83993 0
M  V30 68 N 11.6424 5.24138 4.53047 0
M  V30 69 N 13.4354 4.1366 3.80581 0
M  V30 70 H 5.5864 2.0565 0.531194 0
M  V30 71 H 7.8494 0.90024 0.297106 0
M  V30 72 H 7.5554 3.10684 1.64828 0
M  V30 73 H 7.4294 2.13923 3.10672 0
M  V30 74 H 9.8164 1.24632 2.6749 0
M  V30 75 H 9.8974 2.2488 1.21912 0
M  V30 76 H 9.5414 4.32791 2.65808 0
M  V30 77 H 9.4714 3.29491 4.10784 0
M  V30 78 H 11.9624 2.6658 2.6785 0
M  V30 79 H 12.2754 5.87684 5.01844 0
M  V30 80 H 10.6204 5.28068 4.5185 0
M  V30 81 H 13.8114 3.36127 3.25785 0
M  V30 82 H 13.9844 4.82538 4.32505 0
M  V30 83 N 7.3905 -1.2043 1.01659 0
M  V30 84 C 8.6365 -1.90079 0.706963 0
M  V30 85 C 8.9695 -1.78648 -0.761474 0
M  V30 86 O 8.2445 -1.17069 -1.55323 0
M  V30 87 C 8.5275 -3.41469 1.14327 0
M  V30 88 C 8.3805 -3.61833 2.67201 0
M  V30 89 C 9.6995 -4.34261 0.714529 0
M  V30 90 H 6.8185 -0.690254 0.2583 0
M  V30 91 H 9.4605 -1.41826 1.26433 0
M  V30 92 H 7.6105 -3.82696 0.669056 0
M  V30 93 H 9.2825 -3.2986 3.22475 0
M  V30 94 H 7.5255 -3.05304 3.08175 0
M  V30 95 H 8.1965 -4.67955 2.92783 0
M  V30 96 H 10.6725 -4.00682 1.12221 0
M  V30 97 H 9.5485 -5.38806 1.04784 0
M  V30 98 H 9.8095 -4.40431 -0.383799 0
M  V30 99 N 8.8686 -0.792821 -1.36206 0
M  V30 100 C 9.7986 -0.207853 -2.32573 0
M  V30 101 C 10.7796 0.659055 -1.56813 0
M  V30 102 O 11.9646 0.592176 -1.84951 0
M  V30 103 C 9.0946 0.655449 -3.41059 0
M  V30 104 C 8.0486 -0.111842 -4.27854 0
M  V30 105 C 7.3746 0.872274 -5.27537 0
M  V30 106 C 8.6746 -1.30299 -5.05786 0
M  V30 107 H 10.3686 -1.01294 -2.81744 0
M  V30 108 H 7.9146 -0.48854 -1.3546 0
M  V30 109 H 9.8676 1.07464 -4.07467 0
M  V30 110 H 8.5916 1.49328 -2.90463 0
M  V30 111 H 7.2506 -0.512053 -3.63006 0
M  V30 112 H 6.8986 1.70523 -4.73214 0
M  V30 113 H 6.5986 0.363291 -5.86476 0
M  V30 114 H 8.1226 1.28996 -5.96818 0
M  V30 115 H 9.5366 -0.959379 -5.65216 0
M  V30 116 H 7.9336 -1.7455 -5.74154 0
M  V30 117 H 9.0036 -2.09663 -4.37229 0
M  V30 118 N 10.3467 1.47872 -0.545128 0
M  V30 119 C 11.2767 2.32661 0.197793 0
M  V30 120 C 12.2577 1.43041 0.920504 0
M  V30 121 O 13.4427 1.71912 0.90333 0
M  V30 122 C 10.5727 3.24569 1.23582 0
M  V30 123 C 9.5267 4.23333 0.630323 0
M  V30 124 C 8.8527 5.0448 1.77211 0
M  V30 125 C 10.1527 5.20704 -0.407974 0
M  V30 126 H 11.8467 2.95024 -0.510045 0
M  V30 127 H 9.3927 1.4187 -0.246731 0
M  V30 128 H 11.3457 3.8272 1.76362 0
M  V30 129 H 10.0697 2.60236 1.97344 0
M  V30 130 H 8.7287 3.6639 0.123922 0
M  V30 131 H 8.3767 4.36561 2.49847 0
M  V30 132 H 8.0767 5.71339 1.37281 0
M  V30 133 H 9.6007 5.65487 2.3034 0
M  V30 134 H 11.0147 5.7329 0.033305 0
M  V30 135 H 9.4117 5.95699 -0.725486 0
M  V30 136 H 10.4817 4.66917 -1.30828 0
M  V30 137 N 11.8248 0.280983 1.55075 0
M  V30 138 C 12.7548 -0.597469 2.25727 0
M  V30 139 C 13.7358 -1.15417 1.24952 0
M  V30 140 O 14.9208 -1.18722 1.53684 0
M  V30 141 C 12.0508 -1.7789 2.98283 0
M  V30 142 C 11.0048 -1.35347 4.06036 0
M  V30 143 C 10.3308 -2.61846 4.66198 0
M  V30 144 C 11.6308 -0.499354 5.19907 0
M  V30 145 H 13.3248 -0.00824265 2.99399 0
M  V30 146 H 10.8708 -0.0025244 1.44 0
M  V30 147 H 12.8238 -2.39937 3.46422 0
M  V30 148 H 11.5478 -2.39405 2.22155 0
M  V30 149 H 10.2068 -0.756156 3.58717 0
M  V30 150 H 9.8548 -3.21632 3.86732 0
M  V30 151 H 9.5548 -2.3409 5.38958 0
M  V30 152 H 11.0788 -3.24732 5.1709 0
M  V30 153 H 12.4928 -1.02498 5.64063 0
M  V30 154 H 10.8898 -0.316424 5.99265 0
M  V30 155 H 11.9598 0.480459 4.82514 0
M  V30 156 N 13.3029 -1.57598 0.00835791 0
M  V30 157 C 14.5489 -1.91211 -0.675732 0
M  V30 158 C 14.8819 -0.883139 -1.72958 0
M  V30 159 O 14.1569 0.097016 -1.94258 0
M  V30 160 C 14.4399 -3.35379 -1.31123 0
M  V30 161 C 14.2929 -4.48999 -0.268356 0
M  V30 162 C 15.6119 -3.7912 -2.23508 0
M  V30 163 H 12.7309 -0.695374 -0.244179 0
M  V30 164 H 15.3729 -1.89901 0.0613655 0
M  V30 165 H 13.5229 -3.36626 -1.93946 0
M  V30 166 H 15.1949 -4.59887 0.360844 0
M  V30 167 H 13.4379 -4.31873 0.408482 0
M  V30 168 H 14.1089 -5.46851 -0.752218 0
M  V30 169 H 16.5849 -3.79477 -1.70693 0
M  V30 170 H 15.4609 -4.80729 -2.64936 0
M  V30 171 H 15.7219 -3.13455 -3.11766 0
M  V30 172 N 14.781 0.264519 -1.55364 0
M  V30 173 C 15.744 1.31046 -1.88042 0
M  V30 174 C 16.744 1.41943 -0.755569 0
M  V30 175 O 17.934 1.40947 -1.02369 0
M  V30 176 C 15.066 2.69067 -2.09323 0
M  V30 177 H 16.259 1.03297 -2.81549 0
M  V30 178 H 13.812 0.502989 -1.47986 0
M  V30 179 H 14.547 3.01982 -1.18226 0
M  V30 180 H 14.332 2.62542 -2.91229 0
M  V30 181 H 15.822 3.44623 -2.35848 0
M  V30 182 N 16.2591 1.48442 0.529413 0
M  V30 183 C 17.5061 1.56488 1.28521 0
M  V30 184 C 17.8341 0.239042 1.93025 0
M  V30 185 O 17.0891 -0.770713 1.79885 0
M  V30 186 C 17.3881 2.6523 2.39558 0
M  V30 187 C 17.0541 4.07648 1.92702 0
M  V30 188 C 15.7161 4.46411 1.79641 0
M  V30 189 C 18.0681 4.96896 1.573 0
M  V30 190 C 15.3961 5.72226 1.29514 0
M  V30 191 C 17.7481 6.23202 1.08636 0
M  V30 192 C 16.4121 6.60821 0.941919 0
M  V30 193 H 15.6821 0.572631 0.470292 0
M  V30 194 H 18.3291 1.82161 0.59072 0
M  V30 195 H 16.6341 2.33419 3.14679 0
M  V30 196 H 18.3311 2.68671 2.97686 0
M  V30 197 H 14.9211 3.77036 2.03819 0
M  V30 198 H 19.1051 4.67626 1.66251 0
M  V30 199 H 14.3611 6.00097 1.17019 0
M  V30 200 H 18.5351 6.91753 0.803136 0
M  V30 201 H 16.1621 7.58198 0.5513 0
M  V30 202 N 17.7372 -0.778329 1.37039 0
M  V30 203 C 18.6672 -1.90546 1.34962 0
M  V30 204 C 19.6482 -1.68681 0.219274 0
M  V30 205 O 20.8332 -1.89634 0.418624 0
M  V30 206 C 17.9632 -3.27734 1.14925 0
M  V30 207 C 16.9172 -3.64147 2.24902 0
M  V30 208 C 16.2432 -4.99806 1.89996 0
M  V30 209 C 17.5432 -3.71579 3.67051 0
M  V30 210 H 19.2372 -1.92541 2.29277 0
M  V30 211 H 16.7832 -0.924948 1.10366 0
M  V30 212 H 18.7362 -4.06215 1.12104 0
M  V30 213 H 17.4602 -3.26154 0.170631 0
M  V30 214 H 16.1192 -2.8797 2.26868 0
M  V30 215 H 15.7672 -4.94759 0.906796 0
M  V30 216 H 15.4672 -5.25139 2.63634 0
M  V30 217 H 16.9912 -5.80694 1.88749 0
M  V30 218 H 18.4052 -4.40227 3.67251 0
M  V30 219 H 16.8022 -4.08405 4.39688 0
M  V30 220 H 17.8722 -2.72404 4.01154 0
M  V30 221 N 19.2153 -1.21501 -1.00376 0
M  V30 222 C 20.1453 -0.999478 -2.11028 0
M  V30 223 C 21.1263 0.0759671 -1.6993 0
M  V30 224 O 22.3113 -0.0841106 -1.94018 0
M  V30 225 C 19.4413 -0.564709 -3.42678 0
M  V30 226 C 18.3953 -1.58486 -3.97576 0
M  V30 227 C 17.7213 -1.00628 -5.25146 0
M  V30 228 C 19.0213 -2.97204 -4.29496 0
M  V30 229 H 20.7153 -1.92495 -2.29317 0
M  V30 230 H 18.2613 -0.92693 -1.102 0
M  V30 231 H 20.2143 -0.401091 -4.19487 0
M  V30 232 H 18.9383 0.396411 -3.24185 0
M  V30 233 H 17.5973 -1.73606 -3.22888 0
M  V30 234 H 17.2453 -0.0368439 -5.02987 0
M  V30 235 H 16.9453 -1.68771 -5.62841 0
M  V30 236 H 18.4693 -0.854015 -6.04598 0
M  V30 237 H 19.8833 -2.8552 -4.97143 0
M  V30 238 H 18.2803 -3.62372 -4.78338 0
M  V30 239 H 19.3503 -3.47956 -3.3772 0
M  V30 240 N 20.6934 1.19889 -1.02296 0
M  V30 241 C 21.9184 1.9393 -0.735237 0
M  V30 242 C 22.3434 1.74639 0.698782 0
M  V30 243 O 21.7014 1.04481 1.48167 0
M  V30 244 C 21.7494 3.43916 -1.08417 0
M  V30 245 O 20.8534 4.11917 -0.199446 0
M  V30 246 H 20.1944 0.605645 -0.272196 0
M  V30 247 H 22.7244 1.52137 -1.36804 0
M  V30 248 H 22.7344 3.9456 -1.03856 0
M  V30 249 H 21.4094 3.5728 -2.12894 0
M  V30 250 H 19.9864 3.71666 -0.303136 0
M  V30 251 N 22.1715 0.800033 1.35784 0
M  V30 252 C 23.4195 0.376597 1.9856 0
M  V30 253 C 23.7405 -1.05812 1.63795 0
M  V30 254 O 23.0105 -1.73103 0.917171 0
M  V30 255 H 21.5905 0.136261 0.734467 0
M  V30 256 H 24.2525 1.02442 1.65806 0
M  V30 257 H 23.3485 0.477002 3.08433 0
M  V30 258 N 23.6496 -1.47581 0.552962 0
M  V30 259 C 24.8956 -2.02782 0.0273648 0
M  V30 260 C 25.2286 -1.42687 -1.31734 0
M  V30 261 O 24.5036 -0.580897 -1.85623 0
M  V30 262 C 24.7866 -3.60031 -0.0702371 0
M  V30 263 C 24.6396 -4.30566 1.30126 0
M  V30 264 C 25.9586 -4.33028 -0.785771 0
M  V30 265 H 23.0776 -0.736912 0.0114185 0
M  V30 266 H 25.7196 -1.76056 0.714432 0
M  V30 267 H 23.8696 -3.82932 -0.655382 0
M  V30 268 H 25.5416 -4.19018 1.92929 0
M  V30 269 H 23.7846 -3.91086 1.87709 0
M  V30 270 H 24.4556 -5.39114 1.18573 0
M  V30 271 H 26.9316 -4.15095 -0.288982 0
M  V30 272 H 25.8076 -5.42695 -0.823013 0
M  V30 273 H 26.0686 -4.01945 -1.841 0
M  V30 274 N 25.1277 -0.289203 -1.54924 0
M  V30 275 C 26.0577 0.58549 -2.2604 0
M  V30 276 C 27.0387 1.14753 -1.25562 0
M  V30 277 O 28.2237 1.17906 -1.54311 0
M  V30 278 C 25.3537 1.76305 -2.99222 0
M  V30 279 C 24.3077 1.33191 -4.06748 0
M  V30 280 C 23.6337 2.5937 -4.6758 0
M  V30 281 C 24.9337 0.471775 -5.20165 0
M  V30 282 H 26.6277 -0.00763532 -2.99399 0
M  V30 283 H 24.1737 -0.00511229 -1.43999 0
M  V30 284 H 26.1267 2.38097 -3.47689 0
M  V30 285 H 24.8507 2.38223 -2.23422 0
M  V30 286 H 23.5097 0.737121 -3.59113 0
M  V30 287 H 23.1577 3.19576 -3.88433 0
M  V30 288 H 22.8577 2.31228 -5.40192 0
M  V30 289 H 24.3817 3.21985 -5.18804 0
M  V30 290 H 25.7957 0.995056 -5.64599 0
M  V30 291 H 24.1927 0.284639 -5.99425 0
M  V30 292 H 25.2627 -0.506041 -4.82252 0
M  V30 293 N 26.6058 1.57591 -0.0167156 0
M  V30 294 C 27.5358 2.12496 0.967858 0
M  V30 295 C 28.5168 1.03807 1.34752 0
M  V30 296 O 29.7018 1.31577 1.42833 0
M  V30 297 C 26.8318 2.64194 2.25431 0
M  V30 298 C 25.7858 3.77559 2.01576 0
M  V30 299 C 25.1118 4.15636 3.36379 0
M  V30 300 C 26.4118 5.04151 1.36489 0
M  V30 301 H 28.1058 2.95013 0.510643 0
M  V30 302 H 25.6518 1.41915 0.244181 0
M  V30 303 H 27.6048 3.01236 2.94678 0
M  V30 304 H 26.3288 1.78821 2.73296 0
M  V30 305 H 24.9878 3.40937 1.34751 0
M  V30 306 H 24.6358 3.27263 3.81979 0
M  V30 307 H 24.3358 4.92022 3.21229 0
M  V30 308 H 25.8598 4.5525 4.06915 0
M  V30 309 H 27.2738 5.38857 1.95718 0
M  V30 310 H 25.6708 5.85453 1.31776 0
M  V30 311 H 26.7408 4.83733 0.336219 0
M  V30 312 N 28.0839 -0.256276 1.55502 0
M  V30 313 C 29.3089 -1.00766 1.81276 0
M  V30 314 C 29.7339 -1.78524 0.59252 0
M  V30 315 O 29.0919 -1.75413 -0.45827 0
M  V30 316 C 29.1399 -1.92869 3.04687 0
M  V30 317 O 28.2439 -3.019 2.80945 0
M  V30 318 H 27.5849 -0.287224 0.598664 0
M  V30 319 H 30.1149 -0.280109 2.02674 0
M  V30 320 H 30.1249 -2.34511 3.33869 0
M  V30 321 H 28.7999 -1.35689 3.93143 0
M  V30 322 H 27.3769 -2.64454 2.62904 0
M  V30 323 N 29.562 -1.4872 -0.521534 0
M  V30 324 C 30.472 -1.66569 -1.65203 0
M  V30 325 C 31.488 -0.548197 -1.65139 0
M  V30 326 O 32.664 -0.820339 -1.83936 0
M  V30 327 C 29.729 -1.70917 -3.01642 0
M  V30 328 C 28.79 -2.94356 -3.12495 0
M  V30 329 C 28.023 -2.98487 -4.42426 0
M  V30 330 O 28.246 -2.10786 -5.30024 0
M  V30 331 O 27.18 -3.90746 -4.57822 0
M  V30 332 H 31.006 -2.62298 -1.5308 0
M  V30 333 H 28.591 -1.3222 -0.695565 0
M  V30 334 H 30.473 -1.7625 -3.82771 0
M  V30 335 H 29.148 -0.783633 -3.14071 0
M  V30 336 H 28.055 -2.94552 -2.3063 0
M  V30 337 H 29.388 -3.86322 -3.04986 0
M  V30 338 N 31.0401 0.771051 -1.3745 0
M  V30 339 C 32.0031 1.86598 -1.33093 0
M  V30 340 C 33.0031 1.59076 -0.234845 0
M  V30 341 O 34.1931 1.67145 -0.490732 0
M  V30 342 C 31.3251 3.23747 -1.06773 0
M  V30 343 H 32.5181 1.91873 -2.30488 0
M  V30 344 H 30.0711 0.970876 -1.2249 0
M  V30 345 H 30.8061 3.24148 -0.099129 0
M  V30 346 H 30.5911 3.45115 -1.86112 0
M  V30 347 H 32.0811 4.03824 -1.06377 0
M  V30 348 N 32.5182 1.22032 0.997298 0
M  V30 349 C 33.4812 0.987909 2.06816 0
M  V30 350 C 34.4812 -0.0440084 1.6074 0
M  V30 351 O 35.6712 0.194053 1.73116 0
M  V30 352 C 32.8032 0.49132 3.37341 0
M  V30 353 H 33.9962 1.93803 2.28868 0
M  V30 354 H 31.5492 1.03838 1.16822 0
M  V30 355 H 32.2842 -0.463364 3.20973 0
M  V30 356 H 32.0692 1.23575 3.72118 0
M  V30 357 H 33.5592 0.348824 4.16141 0
M  V30 358 N 33.9963 -1.19345 1.0293 0
M  V30 359 C 34.9433 -2.2258 0.610464 0
M  V30 360 C 35.9133 -1.6179 -0.375946 0
M  V30 361 O 37.0983 -1.88844 -0.272511 0
M  V30 362 C 34.2383 -3.45085 -0.0321473 0
M  V30 363 C 33.3513 -4.20258 1.00035 0
M  V30 364 C 32.4863 -5.3019 0.32746 0
M  V30 365 C 31.5253 -5.97121 1.34584 0
M  V30 366 N 30.6623 -6.98615 0.698726 0
M  V30 367 H 35.5023 -2.57764 1.49538 0
M  V30 368 H 33.0393 -1.26644 0.748311 0
M  V30 369 H 34.9973 -4.15061 -0.421966 0
M  V30 370 H 33.6273 -3.10555 -0.88064 0
M  V30 371 H 32.6793 -3.49223 1.50823 0
M  V30 372 H 33.9913 -4.66175 1.77433 0
M  V30 373 H 33.1453 -6.06587 -0.11718 0
M  V30 374 H 31.8843 -4.85345 -0.478713 0
M  V30 375 H 30.8893 -5.19474 1.80074 0
M  V30 376 H 32.1143 -6.4405 2.15352 0
M  V30 377 H 30.0603 -6.55942 -0.0873471 0
M  V30 378 H 29.9773 -7.42724 1.41058 0
M  V30 379 H 31.2453 -7.79004 0.278102 0
M  V30 380 N 35.4744 -0.807222 -1.35358 0
M  V30 381 C 36.7234 -0.384376 -1.98004 0
M  V30 382 C 37.0364 1.0543 -1.64754 0
M  V30 383 O 38.2424 1.58029 -2.20769 0
M  V30 384 C 36.6984 -0.636326 -3.5423 0
M  V30 385 C 36.3064 -2.08759 -3.96388 0
M  V30 386 C 38.0504 -0.278869 -4.23583 0
M  V30 387 C 35.9574 -2.28525 -5.45463 0
M  V30 388 H 34.8874 -0.139986 -0.740891 0
M  V30 389 H 37.5384 -0.991369 -1.54415 0
M  V30 390 H 35.9204 0.0406256 -3.95979 0
M  V30 391 H 37.0944 -2.8024 -3.6579 0
M  V30 392 H 35.4094 -2.40497 -3.39926 0
M  V30 393 H 38.0064 -0.404599 -5.33167 0
M  V30 394 H 38.3494 0.775012 -4.09022 0
M  V30 395 H 38.8824 -0.909764 -3.87257 0
M  V30 396 H 35.6214 -3.32361 -5.64992 0
M  V30 397 H 35.1414 -1.61569 -5.77629 0
M  V30 398 H 36.8204 -2.10109 -6.11934 0
M  V30 399 N 36.9525 1.47285 -0.560781 0
M  V30 400 C 37.8825 2.32857 0.173105 0
M  V30 401 C 38.8635 1.44009 0.905281 0
M  V30 402 O 40.0485 1.7286 0.885046 0
M  V30 403 C 37.1785 3.25861 1.20133 0
M  V30 404 C 36.1325 4.23978 0.585388 0
M  V30 405 C 35.4585 5.06332 1.7185 0
M  V30 406 C 36.7585 5.20242 -0.463178 0
M  V30 407 H 38.4525 2.94466 -0.541307 0
M  V30 408 H 35.9985 1.41601 -0.261764 0
M  V30 409 H 37.9515 3.84569 1.72293 0
M  V30 410 H 36.6755 2.62315 1.94573 0
M  V30 411 H 35.3345 3.66501 0.085054 0
M  V30 412 H 34.9825 4.39186 2.45203 0
M  V30 413 H 34.6825 5.72762 1.31213 0
M  V30 414 H 36.2065 5.67899 2.24329 0
M  V30 415 H 37.6205 5.73293 -0.027502 0
M  V30 416 H 36.0175 5.94896 -0.788627 0
M  V30 417 H 37.0875 4.65504 -1.35773 0
M  V30 418 N 38.4306 0.297415 1.54768 0
M  V30 419 C 39.6586 -0.315623 2.04478 0
M  V30 420 C 40.0736 -1.47792 1.17486 0
M  V30 421 O 39.4306 -1.81404 0.19971 0
M  V30 422 C 39.4816 -0.7753 3.53088 0
M  V30 423 O 39.2026 0.340732 4.36773 0
M  V30 424 C 40.7036 -1.45386 4.18781 0
M  V30 425 H 37.9236 -0.0690887 0.667434 0
M  V30 426 H 40.4676 0.436003 1.99798 0
M  V30 427 H 38.6226 -1.47696 3.58141 0
M  V30 428 H 39.0366 -0.0165035 5.24497 0
M  V30 429 H 40.5106 -1.72669 5.24299 0
M  V30 430 H 40.9876 -2.39275 3.68299 0
M  V30 431 H 41.5936 -0.795475 4.17795 0
M  V30 432 N 39.9087 -1.5758 0.0250728 0
M  V30 433 C 41.1577 -1.90811 -0.653767 0
M  V30 434 C 41.4707 -0.90273 -1.73523 0
M  V30 435 O 42.6767 -1.12614 -2.47043 0
M  V30 436 C 41.1327 -3.38804 -1.21409 0
M  V30 437 C 40.7407 -4.47692 -0.166126 0
M  V30 438 C 42.4847 -3.81108 -1.86967 0
M  V30 439 C 40.3917 -5.86779 -0.737856 0
M  V30 440 H 39.3217 -0.712063 -0.247956 0
M  V30 441 H 41.9727 -1.83281 0.0897137 0
M  V30 442 H 40.3547 -3.41252 -2.00905 0
M  V30 443 H 41.5287 -4.56797 0.606079 0
M  V30 444 H 39.8437 -4.14565 0.390466 0
M  V30 445 H 42.4407 -4.82375 -2.30692 0
M  V30 446 H 42.7837 -3.15953 -2.71071 0
M  V30 447 H 43.3167 -3.81065 -1.14167 0
M  V30 448 H 40.0557 -6.55468 0.0649577 0
M  V30 449 H 39.5757 -5.81288 -1.47864 0
M  V30 450 H 41.2547 -6.35223 -1.22884 0
M  V30 451 N 41.3868 0.248026 -1.55636 0
M  V30 452 C 42.6118 0.998028 -1.81808 0
M  V30 453 C 43.0368 1.78207 -0.601979 0
M  V30 454 O 42.3948 1.75653 0.448961 0
M  V30 455 C 42.4428 1.9125 -3.05705 0
M  V30 456 O 41.5468 3.00406 -2.82542 0
M  V30 457 H 40.8878 0.284045 -0.600179 0
M  V30 458 H 43.4178 0.269357 -2.02819 0
M  V30 459 H 43.4278 2.32737 -3.35108 0
M  V30 460 H 42.1028 1.33602 -3.93857 0
M  V30 461 H 40.6798 2.63056 -2.64303 0
M  V30 462 N 42.8649 1.48995 0.513639 0
M  V30 463 C 44.0929 1.61531 1.29288 0
M  V30 464 C 44.5079 0.281801 1.86685 0
M  V30 465 O 43.8649 -0.731111 1.67215 0
M  V30 466 C 43.9159 2.67449 2.43215 0
M  V30 467 O 43.6369 3.95626 1.88179 0
M  V30 468 C 45.1379 2.90575 3.34785 0
M  V30 469 H 42.3579 0.544165 0.392588 0
M  V30 470 H 44.9019 1.9494 0.617956 0
M  V30 471 H 43.0569 2.36853 3.0656 0
M  V30 472 H 43.4709 4.53868 2.62876 0
M  V30 473 H 44.9449 3.68449 4.11035 0
M  V30 474 H 45.4219 2.00011 3.91015 0
M  V30 475 H 46.0279 3.22538 2.77218 0
M  V30 476 N 44.343 -0.763751 1.37857 0
M  V30 477 C 45.273 -1.89103 1.36975 0
M  V30 478 C 46.254 -1.68439 0.237152 0
M  V30 479 O 47.439 -1.8918 0.438713 0
M  V30 480 C 44.569 -3.26496 1.18395 0
M  V30 481 C 43.523 -3.61741 2.28751 0
M  V30 482 C 42.849 -4.97762 1.95286 0
M  V30 483 C 44.149 -3.67665 3.70972 0
M  V30 484 H 45.843 -1.90099 2.31307 0
M  V30 485 H 43.389 -0.91319 1.11341 0
M  V30 486 H 45.342 -4.05003 1.16406 0
M  V30 487 H 44.066 -3.25955 0.205215 0
M  V30 488 H 42.725 -2.85547 2.29909 0
M  V30 489 H 42.373 -4.93769 0.959221 0
M  V30 490 H 42.073 -5.22313 2.69189 0
M  V30 491 H 43.597 -5.7866 1.94898 0
M  V30 492 H 45.011 -4.36307 3.719 0
M  V30 493 H 43.408 -4.03718 4.43995 0
M  V30 494 H 44.478 -2.68134 4.0402 0
M  V30 495 N 45.8211 -1.22559 -0.990812 0
M  V30 496 C 47.0691 -1.04933 -1.72724 0
M  V30 497 C 47.3901 0.416158 -1.90508 0
M  V30 498 O 46.6601 1.29918 -1.46622 0
M  V30 499 H 45.2401 -0.385296 -0.639965 0
M  V30 500 H 47.9021 -1.54105 -1.19322 0
M  V30 501 H 46.9981 -1.52886 -2.72089 0
M  V30 502 N 47.2992 1.18797 -1.03562 0
M  V30 503 C 48.5472 1.88278 -0.734569 0
M  V30 504 C 48.8682 1.8043 0.739586 0
M  V30 505 O 48.1382 1.21925 1.53333 0
M  V30 506 H 46.7182 0.696991 -0.268725 0
M  V30 507 H 49.3802 1.44192 -1.31129 0
M  V30 508 H 48.4762 2.94443 -1.03489 0
M  V30 509 N 48.7773 0.814389 1.34928 0
M  V30 510 C 50.0023 0.410097 2.03305 0
M  V30 511 C 50.4273 -0.973464 1.60951 0
M  V30 512 O 49.7853 -1.63185 0.789964 0
M  V30 513 C 49.8333 0.51049 3.56968 0
M  V30 514 O 48.9373 -0.473035 4.09678 0
M  V30 515 H 48.2783 0.170088 0.641846 0
M  V30 516 H 50.8083 1.10244 1.72358 0
M  V30 517 H 50.8183 0.383135 4.06197 0
M  V30 518 H 49.4933 1.51963 3.87144 0
M  V30 519 H 48.0703 -0.305272 3.71648 0
M  V30 520 N 50.2554 -1.46986 0.568584 0
M  V30 521 C 51.2054 -2.27179 -0.193339 0
M  V30 522 C 52.1894 -1.35035 -0.874895 0
M  V30 523 O 53.3814 -1.5931 -0.771322 0
M  V30 524 C 50.5104 -3.21063 -1.21546 0
M  V30 525 C 49.5964 -4.2069 -0.536738 0
M  V30 526 N 49.9874 -5.04218 0.399673 0
M  V30 527 C 48.2854 -4.38961 -0.789254 0
M  V30 528 C 48.9864 -5.76242 0.795017 0
M  V30 529 N 47.9624 -5.434 0.1473 0
M  V30 530 H 51.7644 -2.89146 0.526458 0
M  V30 531 H 49.2784 -1.57664 0.389342 0
M  V30 532 H 51.2754 -3.77209 -1.77536 0
M  V30 533 H 49.9354 -2.60654 -1.93623 0
M  V30 534 H 50.9464 -5.12077 0.774454 0
M  V30 535 H 47.6234 -3.89713 -1.49767 0
M  V30 536 H 49.0134 -6.53417 1.56513 0
M  V30 537 N 51.7335 -0.305618 -1.54608 0
M  V30 538 C 52.9635 0.304333 -2.04346 0
M  V30 539 C 53.3715 1.47715 -1.18224 0
M  V30 540 O 52.7145 1.82591 -0.201577 0
M  V30 541 C 52.7765 0.819031 -3.50046 0
M  V30 542 C 52.4405 -0.22912 -4.56425 0
M  V30 543 C 53.4375 -1.05914 -5.08997 0
M  V30 544 C 51.1225 -0.372148 -5.0092 0
M  V30 545 C 53.1165 -2.01809 -6.04609 0
M  V30 546 C 50.8035 -1.33454 -5.9635 0
M  V30 547 C 51.8015 -2.15599 -6.48079 0
M  V30 548 O 51.4895 -3.10205 -7.41639 0
M  V30 549 H 51.2215 0.0693996 -0.672428 0
M  V30 550 H 53.7755 -0.444548 -2.00532 0
M  V30 551 H 52.0055 1.61852 -3.51199 0
M  V30 552 H 53.6945 1.34537 -3.82955 0
M  V30 553 H 54.4605 -0.959538 -4.75413 0
M  V30 554 H 50.3395 0.257304 -4.60281 0
M  V30 555 H 53.8835 -2.65966 -6.44909 0
M  V30 556 H 49.7805 -1.43485 -6.29351 0
M  V30 557 H 50.5485 -3.05237 -7.59455 0
M  V30 558 N 53.2116 1.57565 -0.0334293 0
M  V30 559 C 54.1416 2.13511 0.945265 0
M  V30 560 C 55.1226 1.05231 1.33643 0
M  V30 561 O 56.3076 1.33084 1.41429 0
M  V30 562 C 53.4376 2.6657 2.22616 0
M  V30 563 C 52.3916 3.79676 1.97561 0
M  V30 564 C 51.7176 4.1918 3.31952 0
M  V30 565 C 53.0176 5.0557 1.31135 0
M  V30 566 H 54.7116 2.95538 0.479325 0
M  V30 567 H 52.2576 1.42166 0.229115 0
M  V30 568 H 54.2106 3.04344 2.91466 0
M  V30 569 H 52.9346 1.8171 2.71384 0
M  V30 570 H 51.5936 3.42347 1.31127 0
M  V30 571 H 51.2416 3.31296 3.78487 0
M  V30 572 H 50.9416 4.95402 3.15992 0
M  V30 573 H 52.4656 4.59541 4.02063 0
M  V30 574 H 53.8796 5.40903 1.89992 0
M  V30 575 H 52.2766 5.86818 1.25559 0
M  V30 576 H 53.3466 4.84062 0.284894 0
M  V30 577 N 54.6897 -0.239769 1.55765 0
M  V30 578 C 55.6197 -1.30052 1.9393 0
M  V30 579 C 56.6007 -1.49839 0.805132 0
M  V30 580 O 57.7857 -1.62328 1.06599 0
M  V30 581 C 54.9157 -2.65391 2.2402 0
M  V30 582 C 53.8697 -2.60289 3.39755 0
M  V30 583 C 53.1957 -3.99489 3.55405 0
M  V30 584 C 54.4957 -2.16654 4.75246 0
M  V30 585 H 56.1897 -0.983573 2.82783 0
M  V30 586 H 53.7357 -0.471701 1.36055 0
M  V30 587 H 55.6887 -3.3974 2.49308 0
M  V30 588 H 54.4127 -2.98736 1.32 0
M  V30 589 H 53.0717 -1.88398 3.14487 0
M  V30 590 H 52.7197 -4.30112 2.60793 0
M  V30 591 H 52.4197 -3.96962 4.33238 0
M  V30 592 H 53.9437 -4.75528 3.83022 0
M  V30 593 H 55.3577 -2.80737 4.99859 0
M  V30 594 H 53.7547 -2.25223 5.56232 0
M  V30 595 H 54.8247 -1.11835 4.71827 0
M  V30 596 N 56.1678 -1.49265 -0.50573 0
M  V30 597 C 57.0978 -1.68495 -1.61653 0
M  V30 598 C 58.0788 -0.53366 -1.61512 0
M  V30 599 O 59.2638 -0.76897 -1.78327 0
M  V30 600 C 56.3938 -1.74709 -3.00157 0
M  V30 601 C 55.3478 -2.89581 -3.15162 0
M  V30 602 C 54.6738 -2.80903 -4.5497 0
M  V30 603 C 55.9738 -4.30578 -2.95634 0
M  V30 604 H 57.6678 -2.61493 -1.45814 0
M  V30 605 H 55.2138 -1.25838 -0.70005 0
M  V30 606 H 57.1668 -1.86748 -3.77761 0
M  V30 607 H 55.8908 -0.783067 -3.17074 0
M  V30 608 H 54.5498 -2.77136 -2.39982 0
M  V30 609 H 54.1978 -1.82419 -4.68756 0
M  V30 610 H 53.8978 -3.57999 -4.65951 0
M  V30 611 H 55.4218 -2.94944 -5.34641 0
M  V30 612 H 56.8358 -4.4373 -3.63011 0
M  V30 613 H 55.2328 -5.0886 -3.18091 0
M  V30 614 H 56.3028 -4.45352 -1.91806 0
M  V30 615 N 57.6459 0.756429 -1.3826 0
M  V30 616 C 58.9229 1.50584 -1.24835 0
M  V30 617 C 59.3029 2.10556 0.151485 0
M  V30 618 O 58.6509 1.96825 1.1607 0
M  V30 619 C 58.8609 2.57448 -2.3563 0
M  V30 620 C 60.2089 3.24429 -2.73917 0
M  V30 621 O 61.2329 2.67751 -2.34921 0
M  V30 622 O 60.0919 4.26937 -3.41156 0
M  V30 623 H 57.1859 0.667664 -0.48801 0
M  V30 624 H 59.7319 0.792083 -1.5008 0
M  V30 625 H 58.5039 2.11362 -3.29305 0
M  V30 626 H 58.1269 3.36408 -2.11933 0
M  V30 627 N 59.124 1.23083 0.984299 0
M  V30 628 C 60.54 0.992637 1.24975 0
M  V30 629 C 60.74 -0.308618 1.99123 0
M  V30 630 O 59.796 -1.02905 2.30579 0
M  V30 631 C 61.109 2.19698 2.05312 0
M  V30 632 C 62.657 2.24147 2.18465 0
M  V30 633 C 63.132 3.44157 3.02192 0
M  V30 634 N 64.623 3.44372 3.09777 0
M  V30 635 C 65.358 4.33886 3.74874 0
M  V30 636 N 64.854 5.3363 4.41827 0
M  V30 637 N 66.647 4.21639 3.71721 0
M  V30 638 H 58.798 2.06731 0.487453 0
M  V30 639 H 61.061 0.906339 0.277944 0
M  V30 640 H 60.767 3.1411 1.58201 0
M  V30 641 H 60.641 2.20465 3.06064 0
M  V30 642 H 63.028 1.30277 2.64786 0
M  V30 643 H 63.109 2.27415 1.17115 0
M  V30 644 H 62.753 4.38332 2.56568 0
M  V30 645 H 62.683 3.3813 4.03702 0
M  V30 646 H 65.174 2.72201 2.62135 0
M  V30 647 H 65.487 5.98196 4.89266 0
M  V30 648 H 63.832 5.37534 4.40548 0
M  V30 649 H 67.023 3.42962 3.18582 0
M  V30 650 H 67.196 4.91604 4.22173 0
M  V30 651 N 60.6021 -1.18246 1.0419 0
M  V30 652 C 61.8481 -1.88536 0.747122 0
M  V30 653 C 62.1811 -1.80223 -0.723409 0
M  V30 654 O 61.4561 -1.20337 -1.52804 0
M  V30 655 C 61.7391 -3.38968 1.21544 0
M  V30 656 C 61.5921 -3.56084 2.74816 0
M  V30 657 C 62.9111 -4.32648 0.806482 0
M  V30 658 H 60.0301 -0.684619 0.272883 0
M  V30 659 H 62.6721 -1.39113 1.29413 0
M  V30 660 H 60.8221 -3.8119 0.750081 0
M  V30 661 H 62.4941 -3.22946 3.29399 0
M  V30 662 H 60.7371 -2.98699 3.14582 0
M  V30 663 H 61.4081 -4.61639 3.02644 0
M  V30 664 H 63.8841 -3.98211 1.20695 0
M  V30 665 H 62.7601 -5.36462 1.1619 0
M  V30 666 H 63.0211 -4.41146 -0.29029 0
M  V30 667 N 62.0802 -0.821533 -1.34494 0
M  V30 668 C 63.3052 -0.420873 -2.03085 0
M  V30 669 C 63.7302 0.964915 -1.61465 0
M  V30 670 O 63.0882 1.62763 -0.798607 0
M  V30 671 C 63.1362 -0.529414 -3.56693 0
M  V30 672 O 62.2402 0.451302 -4.09923 0
M  V30 673 H 61.5812 -0.173489 -0.640935 0
M  V30 674 H 64.1112 -1.11157 -1.71771 0
M  V30 675 H 64.1212 -0.404671 -4.05988 0
M  V30 676 H 62.7962 -1.54014 -3.86332 0
M  V30 677 H 61.3732 0.285558 -3.71805 0
M  V30 678 N 63.5583 1.46682 -0.576371 0
M  V30 679 C 64.4903 2.28341 0.198231 0
M  V30 680 C 65.5033 1.38141 0.861453 0
M  V30 681 O 66.6923 1.62797 0.732082 0
M  V30 682 C 63.7923 3.12986 1.29972 0
M  V30 683 C 62.9653 4.31271 0.729639 0
M  V30 684 C 62.0243 4.97363 1.71803 0
M  V30 685 O 61.0503 5.55156 1.25658 0
M  V30 686 N 62.2523 4.93796 3.05198 0
M  V30 687 H 65.0173 2.9546 -0.502324 0
M  V30 688 H 62.5783 1.56525 -0.413715 0
M  V30 689 H 64.5703 3.54066 1.96008 0
M  V30 690 H 63.1403 2.47984 1.90323 0
M  V30 691 H 62.3603 3.94052 -0.108012 0
M  V30 692 H 63.6483 5.07739 0.328438 0
M  V30 693 H 63.0463 4.48077 3.45317 0
M  V30 694 H 61.6033 5.38837 3.6674 0
M  V30 695 N 65.0364 0.313813 1.54444 0
M  V30 696 C 66.2854 -0.292519 1.99568 0
M  V30 697 C 66.5984 -1.54011 1.20582 0
M  V30 698 O 67.8044 -2.22183 1.56035 0
M  V30 699 C 66.2604 -0.571752 3.55329 0
M  V30 700 C 65.8684 0.658229 4.43138 0
M  V30 701 C 67.6124 -1.13857 4.08946 0
M  V30 702 C 65.5194 0.351439 5.90355 0
M  V30 703 H 64.4494 -0.113079 0.745472 0
M  V30 704 H 67.1004 0.424518 1.78522 0
M  V30 705 H 65.4824 -1.34872 3.72325 0
M  V30 706 H 66.6564 1.43403 4.37918 0
M  V30 707 H 64.9714 1.14458 4.0036 0
M  V30 708 H 67.5684 -1.38257 5.16516 0
M  V30 709 H 67.9114 -2.08489 3.6033 0
M  V30 710 H 68.4444 -0.423015 3.95544 0
M  V30 711 H 65.1834 1.26667 6.43145 0
M  V30 712 H 64.7034 -0.386842 5.98551 0
M  V30 713 H 66.3824 -0.0423134 6.46986 0
M  V30 714 N 66.5145 -1.57545 0.0417849 0
M  V30 715 C 67.4445 -2.14009 -0.933929 0
M  V30 716 C 68.4255 -1.05938 -1.33083 0
M  V30 717 O 69.6105 -1.33833 -1.40721 0
M  V30 718 C 66.7405 -2.67747 -2.21199 0
M  V30 719 C 65.6945 -3.80718 -1.95544 0
M  V30 720 C 65.0205 -4.20935 -3.29724 0
M  V30 721 C 66.3205 -5.06258 -1.28452 0
M  V30 722 H 68.0145 -2.95788 -0.463645 0
M  V30 723 H 65.5605 -1.42285 -0.221573 0
M  V30 724 H 67.5135 -3.05886 -2.89848 0
M  V30 725 H 66.2375 -1.83147 -2.70416 0
M  V30 726 H 64.8965 -3.43037 -1.2931 0
M  V30 727 H 64.5445 -3.33298 -3.76724 0
M  V30 728 H 64.2445 -4.9707 -3.13361 0
M  V30 729 H 65.7685 -4.61666 -3.9962 0
M  V30 730 H 67.1825 -5.41903 -1.8712 0
M  V30 731 H 65.5795 -5.87475 -1.22445 0
M  V30 732 H 66.6495 -4.84207 -0.259219 0
M  V30 733 N 67.9926 0.231505 -1.5589 0
M  V30 734 C 68.9246 1.31006 -1.8807 0
M  V30 735 C 69.9376 1.43539 -0.768145 0
M  V30 736 O 71.1266 1.44614 -1.04638 0
M  V30 737 C 68.2266 2.68688 -2.06543 0
M  V30 738 C 67.3996 2.78228 -3.37502 0
M  V30 739 C 66.4586 3.96857 -3.4553 0
M  V30 740 O 65.4846 3.85662 -4.18633 0
M  V30 741 N 66.6866 5.1072 -2.75944 0
M  V30 742 H 69.4516 1.03731 -2.81176 0
M  V30 743 H 67.0126 0.421573 -1.56315 0
M  V30 744 H 69.0046 3.46412 -2.09239 0
M  V30 745 H 67.5746 2.88605 -1.20109 0
M  V30 746 H 66.7946 1.87059 -3.46991 0
M  V30 747 H 68.0826 2.81564 -4.23791 0
M  V30 748 H 67.4806 5.2271 -2.16311 0
M  V30 749 H 66.0376 5.86523 -2.84314 0
M  V30 750 N 69.4707 1.49531 0.497807 0
M  V30 751 C 70.3807 1.69176 1.62532 0
M  V30 752 C 71.3967 0.5744 1.64246 0
M  V30 753 O 72.5727 0.849497 1.82608 0
M  V30 754 C 69.6377 1.75695 2.98885 0
M  V30 755 C 68.6987 2.9929 3.07773 0
M  V30 756 C 67.9317 3.05488 4.37622 0
M  V30 757 O 68.1547 2.19192 5.26603 0
M  V30 758 O 67.0887 3.9798 4.51548 0
M  V30 759 H 70.9147 2.647 1.48887 0
M  V30 760 H 68.4997 1.3331 0.674441 0
M  V30 761 H 70.3817 1.82317 3.79919 0
M  V30 762 H 69.0567 0.8335 3.12785 0
M  V30 763 H 67.9637 2.98183 2.25915 0
M  V30 764 H 69.2967 3.91125 2.98801 0
M  V30 765 N 70.9488 -0.749086 1.3866 0
M  V30 766 C 71.8988 -1.85368 1.32751 0
M  V30 767 C 72.8828 -1.59511 0.210945 0
M  V30 768 O 74.0748 -1.71255 0.447299 0
M  V30 769 C 71.2038 -3.23131 1.15935 0
M  V30 770 C 70.2898 -3.54864 2.32233 0
M  V30 771 N 70.6808 -3.57625 3.57684 0
M  V30 772 C 68.9788 -3.85154 2.24883 0
M  V30 773 C 69.6798 -3.86753 4.34508 0
M  V30 774 N 68.6558 -4.03812 3.63918 0
M  V30 775 H 72.4578 -1.85787 2.27729 0
M  V30 776 H 69.9718 -0.946658 1.31955 0
M  V30 777 H 71.9688 -4.02185 1.09786 0
M  V30 778 H 70.6288 -3.23961 0.218947 0
M  V30 779 H 71.6398 -3.39276 3.91295 0
M  V30 780 H 68.3168 -3.93672 1.39027 0
M  V30 781 H 69.7068 -3.95474 5.43185 0
M  V30 782 N 72.4269 -1.23603 -0.977757 0
M  V30 783 C 73.6749 -1.06759 -1.71601 0
M  V30 784 C 73.9959 0.395929 -1.90938 0
M  V30 785 O 73.2659 1.28356 -1.47992 0
M  V30 786 H 71.8459 -0.392062 -0.635843 0
M  V30 787 H 74.5079 -1.55362 -1.1768 0
M  V30 788 H 73.6039 -1.55763 -2.70452 0
M  V30 789 N 73.905 1.17692 -1.04816 0
M  V30 790 C 74.855 2.1952 -0.616042 0
M  V30 791 C 75.839 1.57147 0.345485 0
M  V30 792 O 77.031 1.76245 0.163325 0
M  V30 793 C 74.16 3.43298 0.0116917 0
M  V30 794 C 73.246 4.12777 -0.973435 0
M  V30 795 N 73.637 4.5814 -2.14339 0
M  V30 796 C 71.935 4.38747 -0.80108 0
M  V30 797 C 72.636 5.11713 -2.7663 0
M  V30 798 N 71.612 5.03686 -2.04453 0
M  V30 799 H 75.414 2.52293 -1.5075 0
M  V30 800 H 72.928 1.3398 -0.917776 0
M  V30 801 H 74.925 4.15519 0.339006 0
M  V30 802 H 73.585 3.12018 0.898593 0
M  V30 803 H 74.596 4.52349 -2.52191 0
M  V30 804 H 71.273 4.17485 0.0350934 0
M  V30 805 H 72.663 5.56962 -3.75823 0
M  V30 806 N 75.3831 0.828654 1.34056 0
M  V30 807 C 76.3311 0.242973 2.31327 0
M  V30 808 C 77.3251 -0.61944 1.57668 0
M  V30 809 O 78.5311 -0.51014 1.7262 0
M  V30 810 H 74.9061 0.059834 0.749616 0
M  V30 811 H 76.8771 1.07809 2.78244 0
M  V30 812 C 75.6261 -0.575733 3.429 0
M  V30 813 H 74.9491 0.0785582 3.99723 0
M  V30 814 H 76.3891 -0.951547 4.13185 0
M  V30 815 C 74.8481 -1.75044 2.87856 0
M  V30 816 O 75.3781 -2.84882 2.83205 0
M  V30 817 N 73.5841 -1.56903 2.44602 0
M  V30 818 H 73.1311 -0.675547 2.48584 0
M  V30 819 H 73.0891 -2.35652 2.08124 0
M  V30 820 N 76.8612 -1.46375 0.584142 0
M  V30 821 C 78.1072 -2.02678 0.0703716 0
M  V30 822 C 78.4402 -1.4545 -1.28678 0
M  V30 823 O 77.7152 -0.62014 -1.84349 0
M  V30 824 C 77.9982 -3.60099 0.00614674 0
M  V30 825 C 77.8512 -4.27709 1.3923 0
M  V30 826 C 79.1702 -4.34598 -0.693742 0
M  V30 827 H 76.2892 -0.736504 0.027047 0
M  V30 828 H 78.9312 -1.74501 0.751615 0
M  V30 829 H 77.0812 -3.84236 -0.574009 0
M  V30 830 H 78.7532 -4.14832 2.01773 0
M  V30 831 H 76.9962 -3.87016 1.95962 0
M  V30 832 H 77.6672 -5.36478 1.29982 0
M  V30 833 H 80.1432 -4.15615 -0.200869 0
M  V30 834 H 79.0192 -5.44318 -0.707714 0
M  V30 835 H 79.2802 -4.05759 -1.75533 0
M  V30 836 N 78.3393 -0.321999 -1.54275 0
M  V30 837 C 79.5673 0.283052 -2.04955 0
M  V30 838 C 79.9823 1.45904 -1.19823 0
M  V30 839 O 79.3393 1.81063 -0.228545 0
M  V30 840 C 79.3903 0.719028 -3.54277 0
M  V30 841 O 79.1113 -0.410175 -4.36176 0
M  V30 842 C 80.6123 1.38705 -4.21041 0
M  V30 843 H 77.8323 0.0584616 -0.668448 0
M  V30 844 H 80.3763 -0.467734 -1.99079 0
M  V30 845 H 78.5313 1.41979 -3.60445 0
M  V30 846 H 78.9453 -0.0669416 -5.24457 0
M  V30 847 H 80.4193 1.64306 -5.2698 0
M  V30 848 H 80.8963 2.33385 -3.72059 0
M  V30 849 H 81.5023 0.728906 -4.19007 0
M  V30 850 N 79.8174 1.5752 -0.0501392 0
M  V30 851 C 80.7504 2.07026 0.959962 0
M  V30 852 C 81.7284 0.970539 1.30458 0
M  V30 853 O 82.9124 1.2424 1.41763 0
M  V30 854 C 80.0394 2.5099 2.27424 0
M  V30 855 C 79.0854 3.72188 2.08275 0
M  V30 856 S 79.9184 5.17888 1.36207 0
M  V30 857 C 81.0744 5.65165 2.6896 0
M  V30 858 H 81.3074 2.9238 0.538631 0
M  V30 859 H 78.8404 1.53547 0.162099 0
M  V30 860 H 80.7984 2.76982 3.02971 0
M  V30 861 H 79.4594 1.65944 2.66686 0
M  V30 862 H 78.6524 4.00866 3.05487 0
M  V30 863 H 78.2544 3.46457 1.40868 0
M  V30 864 H 80.5464 5.70687 3.65133 0
M  V30 865 H 81.4894 6.64394 2.4492 0
M  V30 866 H 81.8974 4.9289 2.75172 0
M  V30 867 N 81.2955 -0.223234 1.56011 0
M  V30 868 C 82.2255 -1.27988 1.95298 0
M  V30 869 C 83.2065 -1.48976 0.820979 0
M  V30 870 O 84.3915 -1.61188 1.08315 0
M  V30 871 C 81.5215 -2.63 2.26822 0
M  V30 872 C 80.4755 -2.56671 3.42497 0
M  V30 873 C 79.8015 -3.95697 3.59622 0
M  V30 874 C 81.1015 -2.11601 4.77517 0
M  V30 875 H 82.7955 -0.953525 2.8381 0
M  V30 876 H 80.3415 -0.457244 1.36548 0
M  V30 877 H 82.2945 -3.37077 2.52898 0
M  V30 878 H 81.0185 -2.9732 1.35161 0
M  V30 879 H 79.6775 -1.85051 3.16467 0
M  V30 880 H 79.3255 -4.27322 2.6534 0
M  V30 881 H 79.0255 -3.92345 4.37424 0
M  V30 882 H 80.5495 -4.71438 3.88044 0
M  V30 883 H 81.9635 -2.7542 5.02809 0
M  V30 884 H 80.3605 -2.19311 5.5859 0
M  V30 885 H 81.4305 -1.06824 4.72987 0
M  V30 886 N 82.7736 -1.49793 -0.48987 0
M  V30 887 C 83.7236 -1.63673 -1.5873 0
M  V30 888 C 84.7076 -0.491956 -1.53195 0
M  V30 889 O 85.8996 -0.745461 -1.60536 0
M  V30 890 C 83.0286 -1.71689 -2.97284 0
M  V30 891 C 82.1146 -2.91781 -3.07774 0
M  V30 892 N 82.5056 -4.15714 -2.88124 0
M  V30 893 C 80.8036 -2.89949 -3.38889 0
M  V30 894 C 81.5046 -4.965 -3.03088 0
M  V30 895 N 80.4806 -4.30083 -3.3246 0
M  V30 896 H 84.2826 -2.57204 -1.42208 0
M  V30 897 H 81.7966 -1.46719 -0.69623 0
M  V30 898 H 83.7936 -1.79732 -3.76168 0
M  V30 899 H 82.4536 -0.793024 -3.14867 0
M  V30 900 H 83.4646 -4.45515 -2.64077 0
M  V30 901 H 80.1416 -2.06987 -3.62578 0
M  V30 902 H 81.5316 -6.04991 -2.92294 0
M  V30 903 N 84.2517 0.741722 -1.39055 0
M  V30 904 C 85.1837 1.8657 -1.33133 0
M  V30 905 C 86.1967 1.61001 -0.241329 0
M  V30 906 O 87.3857 1.7136 -0.499784 0
M  V30 907 C 84.4857 3.22457 -1.04283 0
M  V30 908 C 83.6587 3.75435 -2.24427 0
M  V30 909 C 82.7177 4.89867 -1.92138 0
M  V30 910 O 81.7437 5.03879 -2.64754 0
M  V30 911 N 82.9457 5.73738 -0.88347 0
M  V30 912 H 85.7107 1.92156 -2.29991 0
M  V30 913 H 83.2717 0.922172 -1.3307 0
M  V30 914 H 85.2637 3.9657 -0.807128 0
M  V30 915 H 83.8337 3.12181 -0.161807 0
M  V30 916 H 83.0537 2.92751 -2.6399 0
M  V30 917 H 84.3417 4.07563 -3.04581 0
M  V30 918 H 83.7397 5.64999 -0.281517 0
M  V30 919 H 82.2967 6.47947 -0.707662 0
M  V30 920 N 85.7298 1.2412 0.971189 0
M  V30 921 C 86.9548 1.10667 1.75407 0
M  V30 922 C 87.3798 -0.337048 1.85056 0
M  V30 923 O 86.7378 -1.24396 1.31892 0
M  V30 924 C 86.7858 1.74726 3.15441 0
M  V30 925 O 85.8898 1.01566 3.99697 0
M  V30 926 H 85.2308 0.387341 0.539317 0
M  V30 927 H 87.7608 1.64358 1.2185 0
M  V30 928 H 87.7708 1.80341 3.6598 0
M  V30 929 H 86.4458 2.79773 3.07734 0
M  V30 930 H 85.0228 1.03713 3.58187 0
M  V30 931 N 87.2079 -1.17134 1.05439 0
M  V30 932 C 88.4559 -1.87085 0.764429 0
M  V30 933 C 88.7769 -1.81584 -0.710787 0
M  V30 934 O 88.0469 -1.24349 -1.51374 0
M  V30 935 H 86.6269 -0.692627 0.279779 0
M  V30 936 H 89.2889 -1.42087 1.33406 0
M  V30 937 H 88.3849 -2.92759 1.0816 0
M  V30 938 N 88.686 -0.835752 -1.33615 0
M  V30 939 C 89.633 -0.26473 -2.29277 0
M  V30 940 C 90.603 0.617712 -1.54187 0
M  V30 941 O 91.788 0.556641 -1.825 0
M  V30 942 C 88.928 0.556777 -3.40579 0
M  V30 943 C 88.041 -0.349339 -4.30585 0
M  V30 944 C 87.176 0.482969 -5.29 0
M  V30 945 C 86.215 -0.421732 -6.10645 0
M  V30 946 N 85.352 0.372262 -7.01112 0
M  V30 947 H 90.192 -1.08582 -2.77514 0
M  V30 948 H 87.729 -0.546927 -1.36554 0
M  V30 949 H 89.687 1.04852 -4.03809 0
M  V30 950 H 88.317 1.34286 -2.93542 0
M  V30 951 H 87.369 -0.959372 -3.68104 0
M  V30 952 H 88.681 -1.04445 -4.87742 0
M  V30 953 H 87.835 1.03866 -5.97743 0
M  V30 954 H 86.574 1.21153 -4.72412 0
M  V30 955 H 85.579 -0.989464 -5.40823 0
M  V30 956 H 86.804 -1.14861 -6.69316 0
M  V30 957 H 84.75 1.08426 -6.46977 0
M  V30 958 H 84.667 -0.264198 -7.55538 0
M  V30 959 H 85.935 0.910293 -7.74167 0
M  V30 960 N 90.1641 1.46063 -0.591896 0
M  V30 961 C 91.4111 2.02338 -0.0809991 0
M  V30 962 C 91.7391 1.46228 1.28249 0
M  V30 963 O 90.9941 0.620818 1.85592 0
M  V30 964 C 91.2931 3.57391 0.0249813 0
M  V30 965 C 90.9591 4.32583 -1.27211 0
M  V30 966 C 89.6211 4.52844 -1.62745 0
M  V30 967 C 91.9731 4.75687 -2.13005 0
M  V30 968 C 89.3011 5.13462 -2.83855 0
M  V30 969 C 91.6531 5.37644 -3.3335 0
M  V30 970 C 90.3171 5.5613 -3.69155 0
M  V30 971 H 89.5871 0.740407 -0.0296397 0
M  V30 972 H 92.2341 1.75321 -0.770374 0
M  V30 973 H 90.5391 3.83597 0.797537 0
M  V30 974 H 92.2361 3.98621 0.436184 0
M  V30 975 H 88.8261 4.17116 -0.985499 0
M  V30 976 H 93.0101 4.59782 -1.86855 0
M  V30 977 H 88.2661 5.25965 -3.11722 0
M  V30 978 H 92.4401 5.7 -4.00092 0
M  V30 979 H 90.0671 6.0287 -4.63089 0
M  V30 980 N 91.6422 0.330177 1.54103 0
M  V30 981 C 92.5722 -0.525353 2.27513 0
M  V30 982 C 93.5532 -1.11383 1.2856 0
M  V30 983 O 94.7382 -1.13773 1.57383 0
M  V30 984 C 91.8682 -1.6831 3.03791 0
M  V30 985 C 90.8222 -1.2236 4.10137 0
M  V30 986 C 90.1482 -2.46882 4.74293 0
M  V30 987 C 91.4482 -0.333697 5.21233 0
M  V30 988 H 93.1422 0.087013 2.99274 0
M  V30 989 H 90.6882 0.0432893 1.43935 0
M  V30 990 H 92.6412 -2.28795 3.5388 0
M  V30 991 H 91.3652 -2.32216 2.29659 0
M  V30 992 H 90.0242 -0.64165 3.60941 0
M  V30 993 H 89.6722 -3.09165 3.96769 0
M  V30 994 H 89.3722 -2.16825 5.46133 0
M  V30 995 H 90.8962 -3.08117 5.27159 0
M  V30 996 H 92.3102 -0.845013 5.67038 0
M  V30 997 H 90.7072 -0.125612 5.99969 0
M  V30 998 H 91.7772 0.633724 4.80741 0
M  V30 999 N 93.1203 -1.57491 0.0584922 0
M  V30 1000 C 94.3693 -1.92155 -0.613146 0
M  V30 1001 C 94.6823 -0.939334 -1.71569 0
M  V30 1002 O 95.8883 -1.17829 -2.44599 0
M  V30 1003 C 94.3443 -3.41303 -1.14195 0
M  V30 1004 C 93.9523 -4.47944 -0.0711265 0
M  V30 1005 C 95.6963 -3.84988 -1.78841 0
M  V30 1006 C 93.6033 -5.88212 -0.613225 0
M  V30 1007 H 92.5333 -0.717162 -0.232796 0
M  V30 1008 H 95.1843 -1.83049 0.12857 0
M  V30 1009 H 93.5663 -3.45437 -1.93621 0
M  V30 1010 H 94.7403 -4.55408 0.702836 0
M  V30 1011 H 93.0553 -4.13644 0.478313 0
M  V30 1012 H 95.6523 -4.87159 -2.20408 0
M  V30 1013 H 95.9953 -3.21632 -2.64308 0
M  V30 1014 H 96.5283 -3.83401 -1.06059 0
M  V30 1015 H 93.2673 -6.55183 0.203978 0
M  V30 1016 H 92.7873 -5.84294 -1.35501 0
M  V30 1017 H 94.4663 -6.37687 -1.09383 0
M  V30 1018 N 94.5984 0.214957 -1.56127 0
M  V30 1019 C 96.0094 0.781386 -1.69562 0
M  V30 1020 C 96.3604 1.84707 -0.66165 0
M  V30 1021 O 95.4854 2.156 0.185927 0
M  V30 1022 C 96.0804 1.42411 -3.07416 0
M  V30 1023 C 94.6394 1.93786 -3.22683 0
M  V30 1024 C 93.7864 0.800438 -2.65496 0
M  V30 1025 H 96.7374 -0.00980633 -1.58697 0
M  V30 1026 H 96.7584 2.29309 -3.0364 0
M  V30 1027 H 96.2704 0.64826 -3.82648 0
M  V30 1028 H 94.3714 2.74152 -2.52332 0
M  V30 1029 H 94.4844 2.1133 -4.29973 0
M  V30 1030 H 92.8484 1.2095 -2.2415 0
M  V30 1031 H 93.6314 0.0371471 -3.4328 0
M  V30 1032 N 96.0765 1.50051 0.48192 0
M  V30 1033 C 97.3535 1.51009 1.2432 0
M  V30 1034 C 97.7335 0.248587 2.09631 0
M  V30 1035 O 97.0815 -0.768409 2.15192 0
M  V30 1036 C 97.2915 2.79981 2.08355 0
M  V30 1037 C 98.6395 3.3022 2.66908 0
M  V30 1038 O 99.6635 2.81228 2.18607 0
M  V30 1039 O 98.5225 4.15595 3.54884 0
M  V30 1040 H 95.6165 0.605239 0.563573 0
M  V30 1041 H 98.1625 1.62332 0.494627 0
M  V30 1042 H 96.9345 3.63275 1.45419 0
M  V30 1043 H 96.5575 2.7161 2.90368 0
M  V30 1044 N 97.5546 -0.734337 1.39446 0
M  V30 1045 C 98.8036 -1.48937 1.36017 0
M  V30 1046 C 99.1166 -1.95557 -0.0409005 0
M  V30 1047 O 100.323 -2.70779 -0.19778 0
M  V30 1048 C 98.7786 -2.69125 2.38955 0
M  V30 1049 C 98.3866 -2.29452 3.8478 0
M  V30 1050 C 100.131 -3.46944 2.44603 0
M  V30 1051 C 98.0376 -3.46366 4.79358 0
M  V30 1052 H 96.9676 -0.559296 0.505672 0
M  V30 1053 H 99.6186 -0.800983 1.65095 0
M  V30 1054 H 98.0006 -3.40041 2.02948 0
M  V30 1055 H 99.1746 -1.66077 4.29831 0
M  V30 1056 H 97.4896 -1.64723 3.82433 0
M  V30 1057 H 100.087 -4.33907 3.12456 0
M  V30 1058 H 100.43 -3.89454 1.47076 0
M  V30 1059 H 100.963 -2.83056 2.79507 0
M  V30 1060 H 97.7016 -3.08905 5.78151 0
M  V30 1061 H 97.2216 -4.08719 4.38986 0
M  V30 1062 H 98.9006 -4.12691 4.98292 0
M  V30 1063 N 99.0327 -1.24633 -0.964593 0
M  V30 1064 C 99.9797 -1.04144 -2.05968 0
M  V30 1065 C 100.95 0.046262 -1.66036 0
M  V30 1066 O 102.135 -0.108972 -1.90489 0
M  V30 1067 C 99.2747 -0.65563 -3.38815 0
M  V30 1068 C 98.3877 -1.81714 -3.91923 0
M  V30 1069 C 97.5227 -1.37662 -5.13052 0
M  V30 1070 C 96.5617 -2.50788 -5.58365 0
M  V30 1071 N 95.6987 -2.07582 -6.70712 0
M  V30 1072 H 100.539 -1.9787 -2.22827 0
M  V30 1073 H 98.0757 -0.9855 -1.09208 0
M  V30 1074 H 100.034 -0.412954 -4.15151 0
M  V30 1075 H 98.6637 0.244627 -3.21872 0
M  V30 1076 H 97.7157 -2.1734 -3.12198 0
M  V30 1077 H 99.0277 -2.66705 -4.21509 0
M  V30 1078 H 98.1817 -1.093 -5.96773 0
M  V30 1079 H 96.9207 -0.497293 -4.85158 0
M  V30 1080 H 95.9257 -2.79906 -4.73215 0
M  V30 1081 H 97.1507 -3.39283 -5.88272 0
M  V30 1082 H 95.0967 -1.22051 -6.44546 0
M  V30 1083 H 95.0137 -2.86125 -6.99763 0
M  V30 1084 H 96.2817 -1.82369 -7.57867 0
M  V30 1085 N 100.511 1.16574 -1.06058 0
M  V30 1086 C 101.421 2.2452 -0.680282 0
M  V30 1087 C 102.437 1.71348 0.302604 0
M  V30 1088 O 103.613 2.00822 0.152513 0
M  V30 1089 C 100.678 3.46629 -0.0700315 0
M  V30 1090 C 99.7388 4.14849 -1.10448 0
M  V30 1091 C 98.9718 5.31129 -0.523256 0
M  V30 1092 O 99.1948 5.66514 0.664709 0
M  V30 1093 O 98.1288 5.88526 -1.26179 0
M  V30 1094 H 101.955 2.59355 -1.58015 0
M  V30 1095 H 99.5398 1.24043 -0.832694 0
M  V30 1096 H 101.422 4.20543 0.268667 0
M  V30 1097 H 100.097 3.13573 0.803353 0
M  V30 1098 H 99.0038 3.42916 -1.49532 0
M  V30 1099 H 100.337 4.51954 -1.94931 0
M  V30 1100 N 101.989 0.842826 1.3317 0
M  V30 1101 C 102.899 0.281444 2.32906 0
M  V30 1102 C 103.915 -0.594587 1.63526 0
M  V30 1103 O 105.091 -0.49777 1.95152 0
M  V30 1104 C 102.156 -0.530929 3.42611 0
M  V30 1105 C 101.217 0.369843 4.27704 0
M  V30 1106 C 100.45 -0.403853 5.3217 0
M  V30 1107 O 100.673 -1.63513 5.46461 0
M  V30 1108 O 99.6069 0.224199 6.01482 0
M  V30 1109 H 103.433 1.10744 2.82789 0
M  V30 1110 H 101.018 0.60545 1.36582 0
M  V30 1111 H 102.9 -0.992437 4.09547 0
M  V30 1112 H 101.575 -1.33392 2.94938 0
M  V30 1113 H 100.482 0.879275 3.6362 0
M  V30 1114 H 101.815 1.13771 4.78871 0
M  V30 1115 N 103.467 -1.45747 0.599634 0
M  V30 1116 C 104.377 -2.34262 -0.125888 0
M  V30 1117 C 105.393 -1.50768 -0.868625 0
M  V30 1118 O 106.569 -1.83592 -0.828003 0
M  V30 1119 C 103.634 -3.28252 -1.11587 0
M  V30 1120 C 102.695 -4.27651 -0.375956 0
M  V30 1121 C 101.928 -5.1715 -1.31877 0
M  V30 1122 O 102.151 -5.09916 -2.55621 0
M  V30 1123 O 101.085 -5.96286 -0.820157 0
M  V30 1124 H 104.911 -2.97688 0.601315 0
M  V30 1125 H 102.496 -1.44999 0.359934 0
M  V30 1126 H 104.378 -3.86191 -1.68626 0
M  V30 1127 H 103.053 -2.67401 -1.82424 0
M  V30 1128 H 101.96 -3.7335 0.236698 0
M  V30 1129 H 103.293 -4.91334 0.29177 0
M  V30 1130 N 104.945 -0.338344 -1.53925 0
M  V30 1131 C 105.892 0.520845 -2.24846 0
M  V30 1132 C 106.862 1.09976 -1.24477 0
M  V30 1133 O 108.047 1.13735 -1.53196 0
M  V30 1134 C 105.187 1.6685 -3.02084 0
M  V30 1135 C 104.3 1.11739 -4.17299 0
M  V30 1136 C 103.435 2.23193 -4.82036 0
M  V30 1137 C 102.474 1.65407 -5.89328 0
M  V30 1138 N 101.611 2.70582 -6.47866 0
M  V30 1139 H 106.451 -0.0904881 -2.97863 0
M  V30 1140 H 103.988 -0.0564282 -1.46992 0
M  V30 1141 H 105.946 2.34407 -3.45122 0
M  V30 1142 H 104.576 2.2509 -2.31375 0
M  V30 1143 H 103.628 0.332919 -3.7894 0
M  V30 1144 H 104.94 0.654677 -4.94485 0
M  V30 1145 H 104.094 2.98626 -5.28117 0
M  V30 1146 H 102.833 2.72807 -4.04262 0
M  V30 1147 H 101.838 0.884779 -5.42634 0
M  V30 1148 H 103.063 1.16652 -6.69006 0
M  V30 1149 H 101.009 3.1946 -5.72959 0
M  V30 1150 H 100.926 2.28917 -7.20509 0
M  V30 1151 H 102.194 3.45799 -6.98601 0
M  V30 1152 N 106.423 1.57458 -0.0668435 0
M  V30 1153 C 107.648 1.9804 0.616027 0
M  V30 1154 C 108.073 0.944771 1.62652 0
M  V30 1155 O 107.431 -0.0902094 1.81075 0
M  V30 1156 C 107.479 3.37665 1.26549 0
M  V30 1157 O 106.583 3.36701 2.38131 0
M  V30 1158 H 105.924 0.644719 0.158849 0
M  V30 1159 H 108.454 2.04121 -0.139891 0
M  V30 1160 H 108.464 3.7474 1.6135 0
M  V30 1161 H 107.139 4.12573 0.525016 0
M  V30 1162 H 105.716 3.1139 2.0516 0
M  V30 1163 N 107.901 -0.206675 1.56239 0
M  V30 1164 C 109.131 -0.943975 1.83773 0
M  V30 1165 C 109.539 -1.77841 0.645703 0
M  V30 1166 O 108.882 -1.79403 -0.395008 0
M  V30 1167 C 108.944 -1.899 3.05251 0
M  V30 1168 C 108.608 -1.24764 4.39639 0
M  V30 1169 C 109.605 -0.630216 5.16066 0
M  V30 1170 C 107.29 -1.25496 4.8637 0
M  V30 1171 C 109.284 -0.0287946 6.37393 0
M  V30 1172 C 106.971 -0.649698 6.07637 0
M  V30 1173 C 107.969 -0.0376845 6.8299 0
M  V30 1174 O 107.657 0.55812 8.0196 0
M  V30 1175 H 107.389 -0.281508 0.614597 0
M  V30 1176 H 109.943 -0.222458 2.04192 0
M  V30 1177 H 108.173 -2.6599 2.80689 0
M  V30 1178 H 109.862 -2.5031 3.1953 0
M  V30 1179 H 110.628 -0.616785 4.81062 0
M  V30 1180 H 106.507 -1.72072 4.27683 0
M  V30 1181 H 110.051 0.449518 6.9615 0
M  V30 1182 H 105.948 -0.660592 6.42111 0
M  V30 1183 H 106.716 0.453891 8.17241 0
M  V30 1184 N 109.379 -1.50304 -0.473955 0
M  V30 1185 C 110.311 -1.65109 -1.58971 0
M  V30 1186 C 111.324 -0.532676 -1.53839 0
M  V30 1187 O 112.513 -0.805751 -1.59279 0
M  V30 1188 C 109.613 -1.61684 -2.97845 0
M  V30 1189 C 108.786 -2.8951 -3.27876 0
M  V30 1190 C 107.845 -2.78768 -4.4629 0
M  V30 1191 O 106.871 -3.52722 -4.46739 0
M  V30 1192 N 108.073 -1.9213 -5.47783 0
M  V30 1193 H 110.838 -2.61347 -1.46689 0
M  V30 1194 H 108.399 -1.47732 -0.662324 0
M  V30 1195 H 110.391 -1.52114 -3.75024 0
M  V30 1196 H 108.961 -0.731925 -3.03911 0
M  V30 1197 H 108.181 -3.13228 -2.39336 0
M  V30 1198 H 109.469 -3.74199 -3.4475 0
M  V30 1199 H 108.867 -1.31353 -5.50239 0
M  V30 1200 H 107.424 -1.88466 -6.23958 0
M  V30 1201 N 110.857 0.726932 -1.39834 0
M  V30 1202 C 112.103 1.48884 -1.377 0
M  V30 1203 C 112.436 1.94185 0.0244852 0
M  V30 1204 O 111.711 1.67361 0.990986 0
M  V30 1205 C 111.994 2.72288 -2.3565 0
M  V30 1206 C 111.847 2.32956 -3.84775 0
M  V30 1207 C 113.166 3.74414 -2.31306 0
M  V30 1208 H 110.285 0.540062 -0.5015 0
M  V30 1209 H 112.927 0.830547 -1.70886 0
M  V30 1210 H 111.077 3.28457 -2.07481 0
M  V30 1211 H 112.749 1.82356 -4.23726 0
M  V30 1212 H 110.992 1.65088 -4.01159 0
M  V30 1213 H 111.663 3.21362 -4.4881 0
M  V30 1214 H 114.139 3.27849 -2.56231 0
M  V30 1215 H 113.015 4.58414 -3.01907 0
M  V30 1216 H 113.276 4.21909 -1.32081 0
M  V30 1217 N 112.336 1.25143 0.95797 0
M  V30 1218 C 113.585 1.0909 1.69654 0
M  V30 1219 C 113.898 -0.368548 1.92097 0
M  V30 1220 O 115.104 -0.649455 2.63618 0
M  V30 1221 C 113.56 1.90395 3.05414 0
M  V30 1222 C 113.168 3.4081 2.90779 0
M  V30 1223 C 114.912 1.82901 3.83076 0
M  V30 1224 C 112.819 4.14423 4.21909 0
M  V30 1225 H 111.749 0.404625 0.636235 0
M  V30 1226 H 114.4 1.4931 1.06672 0
M  V30 1227 H 112.782 1.42996 3.69281 0
M  V30 1228 H 113.956 3.95859 2.35865 0
M  V30 1229 H 112.271 3.49361 2.26575 0
M  V30 1230 H 114.868 2.35196 4.80195 0
M  V30 1231 H 115.211 0.796224 4.08615 0
M  V30 1232 H 115.744 2.28033 3.25954 0
M  V30 1233 H 112.483 5.18102 4.01561 0
M  V30 1234 H 112.003 3.64159 4.76601 0
M  V30 1235 H 113.682 4.21956 4.90471 0
M  V30 1236 N 113.814 -1.1601 1.06675 0
M  V30 1237 C 115.23 -1.38622 0.790948 0
M  V30 1238 C 115.43 -1.92109 -0.607965 0
M  V30 1239 O 114.486 -2.12239 -1.36787 0
M  V30 1240 C 115.799 -2.36347 1.85905 0
M  V30 1241 C 117.347 -2.50023 1.88301 0
M  V30 1242 C 117.822 -3.51033 2.94176 0
M  V30 1243 N 119.313 -3.58563 2.93235 0
M  V30 1244 C 120.048 -4.36521 3.71803 0
M  V30 1245 N 119.544 -5.17869 4.602 0
M  V30 1246 N 121.337 -4.31541 3.60178 0
M  V30 1247 H 113.488 -0.796294 1.96908 0
M  V30 1248 H 115.751 -0.412597 0.853503 0
M  V30 1249 H 115.457 -2.04147 2.86386 0
M  V30 1250 H 115.331 -3.36042 1.71334 0
M  V30 1251 H 117.718 -2.81524 0.884769 0
M  V30 1252 H 117.799 -1.5035 2.06951 0
M  V30 1253 H 117.443 -3.20268 3.94196 0
M  V30 1254 H 117.373 -4.50445 2.72776 0
M  V30 1255 H 119.864 -3.00496 2.29152 0
M  V30 1256 H 120.177 -5.74578 5.16797 0
M  V30 1257 H 118.522 -5.17199 4.64253 0
M  V30 1258 H 121.713 -3.67051 2.90502 0
M  V30 1259 H 121.886 -4.9205 4.21653 0
M  V30 1260 N 115.292 -0.849877 -1.32721 0
M  V30 1261 C 116.538 -0.460855 -1.9811 0
M  V30 1262 C 116.893 0.971716 -1.66059 0
M  V30 1263 O 116.186 1.67184 -0.935944 0
M  V30 1264 C 116.38 -0.631272 -3.51781 0
M  V30 1265 C 116.209 -2.07886 -3.98765 0
M  V30 1266 C 114.979 -2.71637 -4.26077 0
M  V30 1267 C 117.177 -3.04889 -4.14182 0
M  V30 1268 N 115.159 -4.07356 -4.59276 0
M  V30 1269 C 116.53 -4.25583 -4.50865 0
M  V30 1270 C 118.585 -3.01148 -3.96503 0
M  V30 1271 C 117.288 -5.43027 -4.71714 0
M  V30 1272 C 119.314 -4.17832 -4.18533 0
M  V30 1273 C 118.676 -5.37284 -4.55528 0
M  V30 1274 H 114.775 -0.217283 -0.751207 0
M  V30 1275 H 117.359 -1.10026 -1.60631 0
M  V30 1276 H 115.53 -0.0215966 -3.88394 0
M  V30 1277 H 117.262 -0.212614 -4.04141 0
M  V30 1278 H 114.017 -2.22705 -4.17971 0
M  V30 1279 H 114.441 -4.77351 -4.80068 0
M  V30 1280 H 119.083 -2.0992 -3.67006 0
M  V30 1281 H 116.801 -6.34791 -5.00066 0
M  V30 1282 H 120.387 -4.16368 -4.06361 0
M  V30 1283 H 119.267 -6.26071 -4.72234 0
M  V30 1284 N 116.77 1.45427 -0.607355 0
M  V30 1285 C 118.017 2.02241 -0.102455 0
M  V30 1286 C 118.345 1.4758 1.26691 0
M  V30 1287 O 117.6 0.640468 1.84923 0
M  V30 1288 C 117.899 3.57398 -0.0129263 0
M  V30 1289 C 117.565 4.3121 -1.31792 0
M  V30 1290 C 116.227 4.51092 -1.67539 0
M  V30 1291 C 118.579 4.73401 -2.18039 0
M  V30 1292 C 115.907 5.10422 -2.89285 0
M  V30 1293 C 118.259 5.34078 -3.39034 0
M  V30 1294 C 116.923 5.52184 -3.75033 0
M  V30 1295 H 116.193 0.740051 -0.037491 0
M  V30 1296 H 118.84 1.74494 -0.788926 0
M  V30 1297 H 117.145 3.84421 0.756806 0
M  V30 1298 H 118.842 3.99061 0.393881 0
M  V30 1299 H 115.432 4.16047 -1.02968 0
M  V30 1300 H 119.616 4.57774 -1.91721 0
M  V30 1301 H 114.872 5.22629 -3.17283 0
M  V30 1302 H 119.046 5.65724 -4.06115 0
M  V30 1303 H 116.673 5.97925 -4.69457 0
M  V30 1304 N 118.248 0.346503 1.53744 0
M  V30 1305 C 119.473 -0.253074 2.0585 0
M  V30 1306 C 119.898 -1.43202 1.21962 0
M  V30 1307 O 119.256 -1.79783 0.234073 0
M  V30 1308 C 119.304 -0.643193 3.54817 0
M  V30 1309 O 118.408 -1.74286 3.73762 0
M  V30 1310 H 117.749 -0.0413583 0.662711 0
M  V30 1311 H 120.279 0.501574 1.98357 0
M  V30 1312 H 120.289 -0.919526 3.97503 0
M  V30 1313 H 118.964 0.218966 4.15323 0
M  V30 1314 H 117.541 -1.46356 3.42979 0
M  V30 1315 N 119.726 -1.57421 0.075193 0
M  V30 1316 C 121.137 -1.81021 -0.456964 0
M  V30 1317 C 121.488 -0.98936 -1.69429 0
M  V30 1318 O 120.613 -0.212865 -2.15351 0
M  V30 1319 C 121.208 -3.28329 -0.83581 0
M  V30 1320 C 119.767 -3.52764 -1.31281 0
M  V30 1321 C 118.914 -2.75676 -0.299648 0
M  V30 1322 H 121.865 -1.55822 0.300856 0
M  V30 1323 H 121.886 -3.40564 -1.69696 0
M  V30 1324 H 121.398 -3.88046 0.0649238 0
M  V30 1325 H 119.499 -2.98355 -2.23193 0
M  V30 1326 H 119.612 -4.61451 -1.28839 0
M  V30 1327 H 117.976 -2.42538 -0.777641 0
M  V30 1328 H 118.759 -3.38132 0.593417 0
M  V30 1329 N 121.204 0.198386 -1.56346 0
M  V30 1330 C 122.114 1.2664 -1.97483 0
M  V30 1331 C 123.13 1.49989 -0.882002 0
M  V30 1332 O 124.306 1.62668 -1.18748 0
M  V30 1333 C 121.371 2.59141 -2.30319 0
M  V30 1334 C 120.432 2.43892 -3.53292 0
M  V30 1335 C 119.665 3.70074 -3.84553 0
M  V30 1336 O 119.888 4.74101 -3.1715 0
M  V30 1337 O 118.822 3.658 -4.7799 0
M  V30 1338 H 122.648 0.947304 -2.88548 0
M  V30 1339 H 120.233 0.403123 -1.43859 0
M  V30 1340 H 122.115 3.37352 -2.5253 0
M  V30 1341 H 120.79 2.90684 -1.42423 0
M  V30 1342 H 119.697 1.63803 -3.36332 0
M  V30 1343 H 121.03 2.17282 -4.41644 0
M  V30 1344 N 122.682 1.50554 0.465978 0
M  V30 1345 C 123.959 1.5232 1.22712 0
M  V30 1346 C 124.339 0.270807 2.09356 0
M  V30 1347 O 123.687 -0.745541 2.15995 0
M  V30 1348 C 123.897 2.82175 2.05374 0
M  V30 1349 C 125.245 3.33033 2.6339 0
M  V30 1350 O 126.269 2.83531 2.15612 0
M  V30 1351 O 125.128 4.19336 3.50456 0
M  V30 1352 H 122.222 0.611183 0.557122 0
M  V30 1353 H 124.768 1.62847 0.477381 0
M  V30 1354 H 123.54 3.64797 1.41558 0
M  V30 1355 H 123.163 2.74675 2.87471 0
M  V30 1356 N 124.16 -0.719506 1.40217 0
M  V30 1357 C 125.11 -1.8251 1.36653 0
M  V30 1358 C 126.094 -1.59028 0.244732 0
M  V30 1359 O 127.286 -1.70268 0.483524 0
M  V30 1360 C 124.415 -3.20599 1.22763 0
M  V30 1361 C 123.501 -3.49858 2.39708 0
M  V30 1362 N 123.892 -3.49957 3.6519 0
M  V30 1363 C 122.19 -3.80297 2.33002 0
M  V30 1364 C 122.891 -3.77449 4.42614 0
M  V30 1365 N 121.867 -3.96002 3.72402 0
M  V30 1366 H 125.669 -1.80914 2.31619 0
M  V30 1367 H 123.183 -0.918455 1.33933 0
M  V30 1368 H 125.18 -3.99766 1.18292 0
M  V30 1369 H 123.84 -3.23424 0.287614 0
M  V30 1370 H 124.851 -3.309 3.98404 0
M  V30 1371 H 121.528 -3.90635 1.47346 0
M  V30 1372 H 122.918 -3.83863 5.51451 0
M  V30 1373 N 125.638 -1.25649 -0.95132 0
M  V30 1374 C 126.57 -1.02112 -2.05197 0
M  V30 1375 C 127.583 0.0150571 -1.62793 0
M  V30 1376 O 128.772 -0.223874 -1.77091 0
M  V30 1377 C 125.872 -0.522361 -3.3485 0
M  V30 1378 C 125.045 -1.62546 -4.06076 0
M  V30 1379 C 124.104 -1.12649 -5.14001 0
M  V30 1380 O 123.13 -1.82156 -5.39266 0
M  V30 1381 N 124.332 0.03047 -5.80492 0
M  V30 1382 H 127.097 -1.96885 -2.25957 0
M  V30 1383 H 124.658 -1.16899 -1.1201 0
M  V30 1384 H 126.65 -0.172961 -4.0433 0
M  V30 1385 H 125.22 0.33151 -3.10837 0
M  V30 1386 H 124.44 -2.14628 -3.30649 0
M  V30 1387 H 125.728 -2.36644 -4.50419 0
M  V30 1388 H 125.126 0.611169 -5.62389 0
M  V30 1389 H 123.683 0.320875 -6.5101 0
M  V30 1390 N 127.117 1.15442 -1.07289 0
M  V30 1391 C 128.064 2.20161 -0.692653 0
M  V30 1392 C 129.034 1.63073 0.31564 0
M  V30 1393 O 130.219 1.89725 0.202235 0
M  V30 1394 C 127.359 3.44967 -0.0959509 0
M  V30 1395 C 126.472 4.16256 -1.15564 0
M  V30 1396 C 125.607 5.28609 -0.524011 0
M  V30 1397 C 124.646 5.91715 -1.56653 0
M  V30 1398 N 123.783 6.9554 -0.957531 0
M  V30 1399 H 128.623 2.52037 -1.59002 0
M  V30 1400 H 126.16 1.2378 -0.794798 0
M  V30 1401 H 128.118 4.16341 0.267628 0
M  V30 1402 H 126.748 3.1361 0.764772 0
M  V30 1403 H 125.8 3.43385 -1.6368 0
M  V30 1404 H 127.112 4.59268 -1.94613 0
M  V30 1405 H 126.266 6.06604 -0.108032 0
M  V30 1406 H 125.005 4.86787 0.29825 0
M  V30 1407 H 124.01 5.12433 -1.9923 0
M  V30 1408 H 125.235 6.35614 -2.39107 0
M  V30 1409 H 123.181 6.55814 -0.156162 0
M  V30 1410 H 123.098 7.36977 -1.68526 0
M  V30 1411 H 124.366 7.77435 -0.567032 0
M  V30 1412 N 128.595 0.856903 1.32268 0
M  V30 1413 C 130.011 0.547061 1.49931 0
M  V30 1414 C 130.211 -0.921781 1.7918 0
M  V30 1415 O 129.267 -1.70469 1.8627 0
M  V30 1416 C 130.58 1.43599 2.64196 0
M  V30 1417 C 132.128 1.43665 2.78081 0
M  V30 1418 C 132.603 2.31085 3.95428 0
M  V30 1419 N 134.094 2.28893 4.02694 0
M  V30 1420 C 134.829 2.93262 4.92732 0
M  V30 1421 N 134.325 3.66751 5.87763 0
M  V30 1422 N 136.118 2.82638 4.85873 0
M  V30 1423 H 128.269 1.8075 1.11549 0
M  V30 1424 H 130.532 0.772144 0.549997 0
M  V30 1425 H 130.238 2.48058 2.49319 0
M  V30 1426 H 130.112 1.12502 3.60032 0
M  V30 1427 H 132.499 0.399701 2.92381 0
M  V30 1428 H 132.58 1.7878 1.82952 0
M  V30 1429 H 132.224 3.34849 3.81888 0
M  V30 1430 H 132.154 1.93302 4.89839 0
M  V30 1431 H 134.645 1.75466 3.34694 0
M  V30 1432 H 134.958 4.13027 6.53168 0
M  V30 1433 H 133.303 3.70859 5.87783 0
M  V30 1434 H 136.494 2.24774 4.10602 0
M  V30 1435 H 136.667 3.33084 5.55841 0
M  V30 1436 N 130.073 -1.45103 0.615059 0
M  V30 1437 C 131.322 -2.01396 0.110718 0
M  V30 1438 C 131.635 -1.48834 -1.26916 0
M  V30 1439 O 132.841 -1.97152 -1.86664 0
M  V30 1440 C 131.297 -3.59599 0.14723 0
M  V30 1441 C 130.905 -4.21158 1.52743 0
M  V30 1442 C 132.649 -4.23428 -0.30148 0
M  V30 1443 C 130.556 -5.71535 1.51992 0
M  V30 1444 H 129.486 -0.753061 0.0376241 0
M  V30 1445 H 132.137 -1.66494 0.77149 0
M  V30 1446 H 130.519 -3.91724 -0.580339 0
M  V30 1447 H 131.693 -4.00594 2.2773 0
M  V30 1448 H 130.008 -3.69552 1.91886 0
M  V30 1449 H 132.605 -5.33703 -0.326392 0
M  V30 1450 H 132.948 -3.94629 -1.32565 0
M  V30 1451 H 133.481 -3.96047 0.373065 0
M  V30 1452 H 130.22 -6.05044 2.52193 0
M  V30 1453 H 129.74 -5.94268 0.81274 0
M  V30 1454 H 131.419 -6.34873 1.24681 0
M  V30 1455 N 131.551 -0.354651 -1.53558 0
M  V30 1456 C 132.498 0.496968 -2.25386 0
M  V30 1457 C 133.468 1.0865 -1.25636 0
M  V30 1458 O 134.653 1.12104 -1.54394 0
M  V30 1459 C 131.793 1.63637 -3.03837 0
M  V30 1460 C 130.906 1.07307 -4.18461 0
M  V30 1461 C 130.041 2.18068 -4.84376 0
M  V30 1462 C 129.08 1.59147 -5.91049 0
M  V30 1463 N 128.217 2.63695 -6.50699 0
M  V30 1464 H 133.057 -0.122075 -2.9775 0
M  V30 1465 H 130.594 -0.0720154 -1.46924 0
M  V30 1466 H 132.552 2.30734 -3.47589 0
M  V30 1467 H 131.182 2.22623 -2.33749 0
M  V30 1468 H 130.234 0.292708 -3.79272 0
M  V30 1469 H 131.546 0.602193 -4.95152 0
M  V30 1470 H 130.7 2.93007 -5.31255 0
M  V30 1471 H 129.439 2.68504 -4.07133 0
M  V30 1472 H 128.444 0.827175 -5.43542 0
M  V30 1473 H 129.669 1.09549 -6.70206 0
M  V30 1474 H 127.615 3.13365 -5.76315 0
M  V30 1475 H 127.532 2.21263 -7.22896 0
M  V30 1476 H 128.8 3.3837 -7.02229 0
M  V30 1477 N 133.029 1.57378 -0.0835403 0
M  V30 1478 C 133.976 2.13384 0.879539 0
M  V30 1479 C 134.946 1.04936 1.28754 0
M  V30 1480 O 136.131 1.32662 1.37133 0
M  V30 1481 C 133.271 2.70932 2.13752 0
M  V30 1482 C 132.384 3.93575 1.7811 0
M  V30 1483 C 131.519 4.39326 2.98607 0
M  V30 1484 C 130.558 5.54587 2.59037 0
M  V30 1485 N 129.695 5.95243 3.72331 0
M  V30 1486 H 134.535 2.9537 0.395076 0
M  V30 1487 H 132.072 1.45953 0.183349 0
M  V30 1488 H 134.03 3.02411 2.87408 0
M  V30 1489 H 132.66 1.91693 2.59718 0
M  V30 1490 H 131.712 3.68483 0.94469 0
M  V30 1491 H 133.024 4.77258 1.45005 0
M  V30 1492 H 132.178 4.72528 3.80529 0
M  V30 1493 H 130.917 3.5452 3.34913 0
M  V30 1494 H 129.922 5.21024 1.75539 0
M  V30 1495 H 131.147 6.41133 2.23887 0
M  V30 1496 H 129.093 5.13385 4.08378 0
M  V30 1497 H 129.01 6.73694 3.43034 0
M  V30 1498 H 130.278 6.33072 4.54797 0
M  V30 1499 N 134.507 -0.190092 1.56449 0
M  V30 1500 C 135.457 -1.23977 1.91347 0
M  V30 1501 C 136.441 -1.40747 0.779693 0
M  V30 1502 O 137.633 -1.43033 1.04262 0
M  V30 1503 C 134.762 -2.58347 2.26079 0
M  V30 1504 C 133.848 -2.4535 3.45925 0
M  V30 1505 N 134.239 -2.02039 4.63696 0
M  V30 1506 C 132.537 -2.76229 3.50162 0
M  V30 1507 C 133.238 -2.01053 5.4585 0
M  V30 1508 N 132.214 -2.42747 4.8639 0
M  V30 1509 H 136.016 -0.896318 2.79899 0
M  V30 1510 H 133.53 -0.398496 1.57435 0
M  V30 1511 H 135.527 -3.34173 2.49267 0
M  V30 1512 H 134.187 -2.93512 1.38856 0
M  V30 1513 H 135.198 -1.7267 4.88268 0
M  V30 1514 H 131.875 -3.15556 2.73369 0
M  V30 1515 H 133.265 -1.69426 6.50188 0
M  V30 1516 N 135.985 -1.50799 -0.457987 0
M  V30 1517 C 137.232 -1.62442 -1.20908 0
M  V30 1518 C 137.56 -0.330865 -1.91665 0
M  V30 1519 O 136.815 0.68401 -1.83357 0
M  V30 1520 C 137.114 -2.76358 -2.2663 0
M  V30 1521 C 136.78 -4.16378 -1.73033 0
M  V30 1522 C 135.442 -4.54473 -1.58138 0
M  V30 1523 C 137.794 -5.03836 -1.33413 0
M  V30 1524 C 135.122 -5.77754 -1.02065 0
M  V30 1525 C 137.474 -6.27676 -0.78778 0
M  V30 1526 C 136.138 -6.64562 -0.625561 0
M  V30 1527 H 135.408 -0.594417 -0.442435 0
M  V30 1528 H 138.055 -1.84772 -0.503136 0
M  V30 1529 H 136.36 -2.48167 -3.03184 0
M  V30 1530 H 138.057 -2.82568 -2.84528 0
M  V30 1531 H 134.647 -3.86331 -1.85598 0
M  V30 1532 H 138.831 -4.75026 -1.4375 0
M  V30 1533 H 134.087 -6.04997 -0.882547 0
M  V30 1534 H 138.261 -6.94797 -0.472177 0
M  V30 1535 H 135.888 -7.59965 -0.188926 0
M  V30 1536 N 137.463 0.71206 -1.40597 0
M  V30 1537 C 138.74 1.46536 -1.29563 0
M  V30 1538 C 139.12 2.10931 0.0844217 0
M  V30 1539 O 138.468 2.00418 1.0975 0
M  V30 1540 C 138.678 2.49821 -2.43701 0
M  V30 1541 C 140.026 3.15551 -2.841 0
M  V30 1542 O 141.05 2.60142 -2.4332 0
M  V30 1543 O 139.909 4.15867 -3.54566 0
M  V30 1544 H 137.003 0.651801 -0.509004 0
M  V30 1545 H 139.549 0.743935 -1.52524 0
M  V30 1546 H 138.321 2.00778 -3.35863 0
M  V30 1547 H 137.944 3.29495 -2.22528 0
M  V30 1548 N 138.941 1.26152 0.944643 0
M  V30 1549 C 140.166 1.14363 1.7302 0
M  V30 1550 C 140.591 -0.29772 1.85729 0
M  V30 1551 O 139.949 -1.2157 1.34501 0
M  V30 1552 C 139.997 1.81378 3.11664 0
M  V30 1553 O 139.101 1.10022 3.97453 0
M  V30 1554 H 138.442 0.398694 0.53098 0
M  V30 1555 H 140.972 1.66906 1.18337 0
M  V30 1556 H 140.982 1.88064 3.62072 0
M  V30 1557 H 139.657 2.86237 3.0173 0
M  V30 1558 H 138.234 1.11287 3.55907 0
M  V30 1559 N 140.419 -1.14872 1.07899 0
M  V30 1560 C 141.649 -1.89386 0.825631 0
M  V30 1561 C 142.057 -1.78565 -0.625406 0
M  V30 1562 O 141.4 -1.13918 -1.44113 0
M  V30 1563 C 141.462 -3.40206 1.16191 0
M  V30 1564 C 141.126 -3.74812 2.61467 0
M  V30 1565 C 142.123 -3.75367 3.59716 0
M  V30 1566 C 139.808 -4.0495 2.97189 0
M  V30 1567 C 141.802 -4.05574 4.9172 0
M  V30 1568 C 139.489 -4.34821 4.29388 0
M  V30 1569 C 140.487 -4.35116 5.26463 0
M  V30 1570 O 140.175 -4.64267 6.56286 0
M  V30 1571 H 139.907 -0.606894 0.297751 0
M  V30 1572 H 142.461 -1.46438 1.44031 0
M  V30 1573 H 140.691 -3.8358 0.490214 0
M  V30 1574 H 142.38 -3.96018 0.890193 0
M  V30 1575 H 143.146 -3.52176 3.33462 0
M  V30 1576 H 139.025 -4.03876 2.22273 0
M  V30 1577 H 142.569 -4.05719 5.67484 0
M  V30 1578 H 138.466 -4.5748 4.55392 0
M  V30 1579 H 139.234 -4.82007 6.61522 0
M  V30 1580 N 141.898 -0.863906 -1.31812 0
M  V30 1581 C 143.147 -0.46801 -1.96195 0
M  V30 1582 C 143.46 0.983474 -1.69077 0
M  V30 1583 O 144.666 1.48523 -2.27273 0
M  V30 1584 C 143.122 -0.785995 -3.51212 0
M  V30 1585 C 142.73 -2.25383 -3.87178 0
M  V30 1586 C 144.474 -0.458274 -4.22019 0
M  V30 1587 C 142.381 -2.51455 -5.3528 0
M  V30 1588 H 141.311 -0.171283 -0.734287 0
M  V30 1589 H 143.962 -1.05597 -1.50072 0
M  V30 1590 H 142.344 -0.127359 -3.95795 0
M  V30 1591 H 143.518 -2.95502 -3.53575 0
M  V30 1592 H 141.833 -2.54698 -3.2942 0
M  V30 1593 H 144.43 -0.630369 -5.30971 0
M  V30 1594 H 144.773 0.600834 -4.11941 0
M  V30 1595 H 145.306 -1.07319 -3.8305 0
M  V30 1596 H 142.045 -3.56025 -5.50387 0
M  V30 1597 H 141.565 -1.85923 -5.70257 0
M  V30 1598 H 143.244 -2.35874 -6.02472 0
M  V30 1599 N 143.376 1.44774 -0.622745 0
M  V30 1600 C 144.286 2.34433 0.0886031 0
M  V30 1601 C 145.302 1.52131 0.844529 0
M  V30 1602 O 146.478 1.84886 0.798691 0
M  V30 1603 C 143.543 3.29986 1.0635 0
M  V30 1604 C 142.604 4.28195 0.307873 0
M  V30 1605 C 141.837 5.19183 1.23633 0
M  V30 1606 O 142.06 5.13918 2.47476 0
M  V30 1607 O 140.994 5.97515 0.725189 0
M  V30 1608 H 144.82 2.96693 -0.648599 0
M  V30 1609 H 142.405 1.44408 -0.382957 0
M  V30 1610 H 144.287 3.88825 1.6246 0
M  V30 1611 H 142.962 2.70269 1.78146 0
M  V30 1612 H 141.869 3.72927 -0.296064 0
M  V30 1613 H 143.202 4.90808 -0.3699 0
M  V30 1614 N 144.854 0.36279 1.53368 0
M  V30 1615 C 146.082 -0.228613 2.05633 0
M  V30 1616 C 146.497 -1.42676 1.23649 0
M  V30 1617 O 145.854 -1.80394 0.27647 0
M  V30 1618 C 145.905 -0.624845 3.56059 0
M  V30 1619 O 145.626 0.525675 4.34935 0
M  V30 1620 C 147.127 -1.27493 4.24571 0
M  V30 1621 H 144.347 -0.0407183 0.669763 0
M  V30 1622 H 146.891 0.520352 1.97769 0
M  V30 1623 H 145.046 -1.32373 3.64083 0
M  V30 1624 H 145.46 0.205969 5.24095 0
M  V30 1625 H 146.934 -1.50277 5.31151 0
M  V30 1626 H 147.411 -2.23439 3.78116 0
M  V30 1627 H 148.017 -0.617558 4.20792 0
M  V30 1628 N 146.332 -1.57332 0.0918853 0
M  V30 1629 C 147.295 -2.12708 -0.85369 0
M  V30 1630 C 148.295 -1.05561 -1.213 0
M  V30 1631 O 149.485 -1.31461 -1.14296 0
M  V30 1632 C 146.617 -2.64503 -2.15061 0
M  V30 1633 H 147.81 -2.97573 -0.3729 0
M  V30 1634 H 145.363 -1.55509 -0.157072 0
M  V30 1635 H 146.098 -1.83149 -2.67632 0
M  V30 1636 H 145.883 -3.4284 -1.90272 0
M  V30 1637 H 147.373 -3.07351 -2.82711 0
M  V30 1638 N 147.81 0.181792 -1.56548 0
M  V30 1639 C 148.74 1.22765 -1.98623 0
M  V30 1640 C 149.721 1.46747 -0.860189 0
M  V30 1641 O 150.906 1.58259 -1.12551 0
M  V30 1642 C 148.036 2.56894 -2.33715 0
M  V30 1643 C 146.99 2.475 -3.49182 0
M  V30 1644 C 146.316 3.86023 -3.69986 0
M  V30 1645 C 147.616 1.98866 -4.82959 0
M  V30 1646 H 149.31 0.877942 -2.86239 0
M  V30 1647 H 146.856 0.42088 -1.37712 0
M  V30 1648 H 148.809 3.30253 -2.61746 0
M  V30 1649 H 147.533 2.93632 -1.42997 0
M  V30 1650 H 146.192 1.76596 -3.21262 0
M  V30 1651 H 145.84 4.20136 -2.76576 0
M  V30 1652 H 145.54 3.80609 -4.47672 0
M  V30 1653 H 147.064 4.60984 -4.00407 0
M  V30 1654 H 148.478 2.61992 -5.09934 0
M  V30 1655 H 146.875 2.04424 -5.64208 0
M  V30 1656 H 147.945 0.942465 -4.75653 0
M  V30 1657 N 149.288 1.51039 0.449983 0
M  V30 1658 C 150.565 1.53612 1.21089 0
M  V30 1659 C 150.945 0.292997 2.09057 0
M  V30 1660 O 150.293 -0.72259 2.16774 0
M  V30 1661 C 150.503 2.84337 2.0237 0
M  V30 1662 C 151.851 3.35807 2.59843 0
M  V30 1663 O 152.875 2.85802 2.12593 0
M  V30 1664 O 151.734 4.23029 3.45989 0
M  V30 1665 H 148.828 0.617057 0.550608 0
M  V30 1666 H 151.374 1.63344 0.460082 0
M  V30 1667 H 150.146 3.66278 1.37681 0
M  V30 1668 H 149.769 2.77708 2.84542 0
M  V30 1669 N 150.766 -0.704594 1.40972 0
M  V30 1670 C 152.014 -1.46169 1.39568 0
M  V30 1671 C 152.335 -1.95 0.00253745 0
M  V30 1672 O 151.605 -1.71095 -0.954114 0
M  V30 1673 H 150.185 -0.542326 0.513704 0
M  V30 1674 H 152.847 -0.834553 1.76128 0
M  V30 1675 H 151.943 -2.32922 2.07735 0
M  V30 1676 N 152.244 -1.26651 -0.937939 0
M  V30 1677 C 153.66 -1.03834 -1.21205 0
M  V30 1678 C 153.86 0.234502 -2.00131 0
M  V30 1679 O 152.916 0.942767 -2.3424 0
M  V30 1680 C 154.229 -2.27167 -1.97017 0
M  V30 1681 C 155.777 -2.32101 -2.09996 0
M  V30 1682 C 156.252 -3.55136 -2.8921 0
M  V30 1683 N 157.743 -3.55632 -2.96783 0
M  V30 1684 C 158.478 -4.475 -3.58512 0
M  V30 1685 N 157.974 -5.4966 -4.21717 0
M  V30 1686 N 159.767 -4.35145 -3.55816 0
M  V30 1687 H 151.918 -2.08398 -0.410391 0
M  V30 1688 H 154.181 -0.916031 -0.244114 0
M  V30 1689 H 153.887 -3.19765 -1.46434 0
M  V30 1690 H 153.761 -2.31672 -2.97671 0
M  V30 1691 H 156.148 -1.40015 -2.59769 0
M  V30 1692 H 156.229 -2.31605 -1.08594 0
M  V30 1693 H 155.873 -4.47553 -2.40123 0
M  V30 1694 H 155.803 -3.5288 -3.90875 0
M  V30 1695 H 158.294 -2.81743 -2.51852 0
M  V30 1696 H 158.607 -6.15943 -4.66727 0
M  V30 1697 H 156.952 -5.53514 -4.20294 0
M  V30 1698 H 160.143 -3.5455 -3.05634 0
M  V30 1699 H 160.316 -5.06934 -4.03636 0
M  V30 1700 N 153.722 1.14298 -1.08507 0
M  V30 1701 C 154.669 2.19414 -0.715965 0
M  V30 1702 C 155.639 1.63399 0.298326 0
M  V30 1703 O 156.824 1.89929 0.182101 0
M  V30 1704 C 153.964 3.44845 -0.132534 0
M  V30 1705 C 153.077 4.15007 -1.19973 0
M  V30 1706 C 152.212 5.28024 -0.580048 0
M  V30 1707 C 151.251 5.9002 -1.62921 0
M  V30 1708 N 150.388 6.94485 -1.03125 0
M  V30 1709 H 155.228 2.50336 -1.61666 0
M  V30 1710 H 152.765 1.2293 -0.807882 0
M  V30 1711 H 154.723 4.16601 0.223454 0
M  V30 1712 H 153.353 3.14403 0.731467 0
M  V30 1713 H 152.405 3.41629 -1.67313 0
M  V30 1714 H 153.717 4.57178 -1.99473 0
M  V30 1715 H 152.871 6.06455 -0.172364 0
M  V30 1716 H 151.61 4.87076 0.246603 0
M  V30 1717 H 150.615 5.10291 -2.04654 0
M  V30 1718 H 151.84 6.33042 -2.45835 0
M  V30 1719 H 149.786 6.55612 -0.225711 0
M  V30 1720 H 149.703 7.35148 -1.76334 0
M  V30 1721 H 150.971 7.7679 -0.649458 0
M  V30 1722 N 155.201 0.870884 1.31352 0
M  V30 1723 C 156.111 0.330783 2.32256 0
M  V30 1724 C 157.127 -0.559767 1.6475 0
M  V30 1725 O 158.303 -0.456263 1.96164 0
M  V30 1726 C 155.368 -0.458137 3.4366 0
M  V30 1727 C 154.429 0.460482 4.26823 0
M  V30 1728 C 153.662 -0.290881 5.32907 0
M  V30 1729 O 153.885 -1.51885 5.49806 0
M  V30 1730 O 152.819 0.351732 6.00871 0
M  V30 1731 H 156.645 1.16718 2.80376 0
M  V30 1732 H 154.23 0.634285 1.35267 0
M  V30 1733 H 156.112 -0.905343 4.1156 0
M  V30 1734 H 154.787 -1.27106 2.97701 0
M  V30 1735 H 153.694 0.956207 3.61673 0
M  V30 1736 H 155.027 1.23903 4.7635 0
M  V30 1737 N 156.679 -1.44442 0.630414 0
M  V30 1738 C 157.904 -2.06927 0.139944 0
M  V30 1739 C 158.329 -1.46795 -1.17613 0
M  V30 1740 O 157.687 -0.569144 -1.72135 0
M  V30 1741 C 157.735 -3.6058 0.0379581 0
M  V30 1742 O 156.839 -3.99937 -1.0062 0
M  V30 1743 H 156.18 -0.658608 0.0844483 0
M  V30 1744 H 158.71 -1.85327 0.866891 0
M  V30 1745 H 158.72 -4.07714 -0.152856 0
M  V30 1746 H 157.395 -4.03728 0.998809 0
M  V30 1747 H 155.972 -3.64436 -0.79001 0
M  V30 1748 N 158.157 -0.370918 -1.53173 0
M  V30 1749 C 159.067 0.480823 -2.2962 0
M  V30 1750 C 160.083 1.08789 -1.35798 0
M  V30 1751 O 161.259 1.09768 -1.68858 0
M  V30 1752 C 158.324 1.60227 -3.07454 0
M  V30 1753 C 157.385 1.0222 -4.16953 0
M  V30 1754 C 156.618 2.0902 -4.91066 0
M  V30 1755 O 156.841 3.30222 -4.65091 0
M  V30 1756 O 155.775 1.71778 -5.76867 0
M  V30 1757 H 159.601 -0.141421 -3.03371 0
M  V30 1758 H 157.186 -0.135146 -1.48787 0
M  V30 1759 H 159.068 2.25417 -3.56041 0
M  V30 1760 H 157.743 2.20982 -2.36535 0
M  V30 1761 H 156.65 0.334064 -3.72605 0
M  V30 1762 H 157.983 0.459131 -4.90054 0
M  V30 1763 N 159.635 1.57281 -0.100228 0
M  V30 1764 C 160.598 2.13158 0.842398 0
M  V30 1765 C 161.598 1.06202 1.20738 0
M  V30 1766 O 162.788 1.32066 1.13597 0
M  V30 1767 C 159.92 2.65639 2.13655 0
M  V30 1768 H 161.113 2.97766 0.357114 0
M  V30 1769 H 158.666 1.5559 0.148823 0
M  V30 1770 H 159.401 1.84566 2.66657 0
M  V30 1771 H 159.186 3.43844 1.88451 0
M  V30 1772 H 160.676 3.08846 2.81077 0
M  V30 1773 N 161.113 -0.173488 1.56642 0
M  V30 1774 C 162.043 -1.2171 1.99271 0
M  V30 1775 C 163.024 -1.46289 0.867959 0
M  V30 1776 O 164.209 -1.5766 1.13388 0
M  V30 1777 C 161.339 -2.55651 2.35074 0
M  V30 1778 C 160.293 -2.45645 3.50489 0
M  V30 1779 C 159.619 -3.84056 3.72028 0
M  V30 1780 C 160.919 -1.96302 4.84007 0
M  V30 1781 H 162.613 -0.86275 2.867 0
M  V30 1782 H 160.159 -0.413571 1.37933 0
M  V30 1783 H 162.112 -3.2886 2.63494 0
M  V30 1784 H 160.836 -2.92869 1.44552 0
M  V30 1785 H 159.495 -1.7489 3.22194 0
M  V30 1786 H 159.143 -4.18664 2.788 0
M  V30 1787 H 158.843 -3.7823 4.49684 0
M  V30 1788 H 160.367 -4.58854 4.02846 0
M  V30 1789 H 161.781 -2.59284 5.11317 0
M  V30 1790 H 160.178 -2.01429 5.65284 0
M  V30 1791 H 161.248 -0.917226 4.76146 0
M  V30 1792 N 162.591 -1.51276 -0.441967 0
M  V30 1793 C 163.837 -1.63958 -1.19355 0
M  V30 1794 C 164.17 -0.352543 -1.90973 0
M  V30 1795 O 163.445 0.647627 -1.83401 0
M  V30 1796 C 163.728 -2.83979 -2.21422 0
M  V30 1797 C 163.581 -4.22646 -1.53918 0
M  V30 1798 C 164.9 -2.99521 -3.22451 0
M  V30 1799 H 162.019 -0.596709 -0.432559 0
M  V30 1800 H 164.661 -1.83748 -0.483398 0
M  V30 1801 H 162.811 -2.67237 -2.81987 0
M  V30 1802 H 164.483 -4.51045 -0.967256 0
M  V30 1803 H 162.726 -4.25558 -0.841615 0
M  V30 1804 H 163.397 -5.02609 -2.28229 0
M  V30 1805 H 165.873 -3.14944 -2.71937 0
M  V30 1806 H 164.749 -3.85072 -3.91166 0
M  V30 1807 H 165.01 -2.11391 -3.88287 0
M  V30 1808 N 164.069 0.697108 -1.41344 0
M  V30 1809 C 165.016 1.81106 -1.43071 0
M  V30 1810 C 165.986 1.63632 -0.285275 0
M  V30 1811 O 167.171 1.84504 -0.486091 0
M  V30 1812 C 164.311 3.18975 -1.31715 0
M  V30 1813 C 163.424 3.47892 -2.56115 0
M  V30 1814 C 162.559 4.75367 -2.37064 0
M  V30 1815 C 161.598 4.97247 -3.56948 0
M  V30 1816 N 160.735 6.15947 -3.36977 0
M  V30 1817 H 165.575 1.78965 -2.38276 0
M  V30 1818 H 163.112 0.873975 -1.18322 0
M  V30 1819 H 165.07 3.98615 -1.23133 0
M  V30 1820 H 163.7 3.20297 -0.401183 0
M  V30 1821 H 162.752 2.62669 -2.75153 0
M  V30 1822 H 164.064 3.59962 -3.45295 0
M  V30 1823 H 163.218 5.63059 -2.25941 0
M  V30 1824 H 161.957 4.65541 -1.45338 0
M  V30 1825 H 160.962 4.08004 -3.68527 0
M  V30 1826 H 162.187 5.08934 -4.49626 0
M  V30 1827 H 160.133 6.07336 -2.47949 0
M  V30 1828 H 160.05 6.28777 -4.19732 0
M  V30 1829 H 161.318 7.06377 -3.29623 0
M  V30 1830 N 165.547 1.27147 0.931209 0
M  V30 1831 C 166.477 1.12081 2.04842 0
M  V30 1832 C 167.458 0.0232364 1.70084 0
M  V30 1833 O 168.643 0.197085 1.93197 0
M  V30 1834 C 165.773 0.76354 3.38803 0
M  V30 1835 C 164.727 1.81396 3.87659 0
M  V30 1836 C 164.053 1.31075 5.18385 0
M  V30 1837 C 165.353 3.21739 4.11438 0
M  V30 1838 H 167.047 2.05537 2.17703 0
M  V30 1839 H 164.593 0.989603 1.04608 0
M  V30 1840 H 166.546 0.644982 4.16435 0
M  V30 1841 H 165.27 -0.206727 3.25945 0
M  V30 1842 H 163.929 1.92136 3.12217 0
M  V30 1843 H 163.577 0.330037 5.01916 0
M  V30 1844 H 163.277 2.013 5.52044 0
M  V30 1845 H 164.801 1.20506 5.98591 0
M  V30 1846 H 166.215 3.14019 4.79651 0
M  V30 1847 H 164.612 3.89644 4.56397 0
M  V30 1848 H 165.682 3.67054 3.16859 0
M  V30 1849 N 167.025 -1.13721 1.09112 0
M  V30 1850 C 167.958 -2.18094 0.67158 0
M  V30 1851 C 168.936 -1.59414 -0.320299 0
M  V30 1852 O 170.12 -1.87183 -0.222444 0
M  V30 1853 C 167.247 -3.38698 -0.0111189 0
M  V30 1854 C 166.293 -4.15966 0.942055 0
M  V30 1855 S 167.126 -4.7604 2.45246 0
M  V30 1856 C 168.282 -5.99994 1.78208 0
M  V30 1857 H 168.515 -2.53344 1.55577 0
M  V30 1858 H 166.048 -1.24967 0.906789 0
M  V30 1859 H 168.006 -4.08559 -0.398716 0
M  V30 1860 H 166.667 -3.01756 -0.871905 0
M  V30 1861 H 165.86 -5.02318 0.411396 0
M  V30 1862 H 165.462 -3.51745 1.2709 0
M  V30 1863 H 167.754 -6.68441 1.10424 0
M  V30 1864 H 168.697 -6.57662 2.62463 0
M  V30 1865 H 169.105 -5.50432 1.25238 0
M  V30 1866 N 168.503 -0.877838 -1.30888 0
M  V30 1867 C 169.413 -0.343096 -2.32078 0
M  V30 1868 C 170.429 0.551022 -1.65045 0
M  V30 1869 O 171.605 0.445854 -1.96403 0
M  V30 1870 C 168.67 0.439905 -3.43898 0
M  V30 1871 C 167.731 -0.483111 -4.26573 0
M  V30 1872 C 166.964 0.262616 -5.33053 0
M  V30 1873 O 167.187 1.48967 -5.50604 0
M  V30 1874 O 166.121 -0.383593 -6.00676 0
M  V30 1875 H 169.947 -1.18203 -2.79753 0
M  V30 1876 H 167.532 -0.64145 -1.34929 0
M  V30 1877 H 169.414 0.883504 -4.12034 0
M  V30 1878 H 168.089 1.25526 -2.98371 0
M  V30 1879 H 166.996 -0.975374 -3.61161 0
M  V30 1880 H 168.329 -1.26427 -4.75686 0
M  V30 1881 N 169.982 1.44106 -0.638065 0
M  V30 1882 C 171.231 2.01194 -0.142744 0
M  V30 1883 C 171.544 1.50835 1.24532 0
M  V30 1884 O 172.75 2.00096 1.83504 0
M  V30 1885 C 171.206 3.59319 -0.20442 0
M  V30 1886 C 170.814 4.18674 -1.59423 0
M  V30 1887 C 172.558 4.23854 0.234079 0
M  V30 1888 C 170.465 5.69045 -1.61065 0
M  V30 1889 H 169.395 0.752367 -0.0495998 0
M  V30 1890 H 172.046 1.65246 -0.797881 0
M  V30 1891 H 170.428 3.92598 0.517946 0
M  V30 1892 H 171.602 3.96921 -2.34074 0
M  V30 1893 H 169.917 3.66453 -1.97741 0
M  V30 1894 H 172.514 5.34155 0.241443 0
M  V30 1895 H 172.857 3.96688 1.2627 0
M  V30 1896 H 173.39 3.95403 -0.436025 0
M  V30 1897 H 170.129 6.00956 -2.61787 0
M  V30 1898 H 169.649 5.929 -0.90718 0
M  V30 1899 H 171.328 6.32809 -1.34766 0
M  V30 1900 N 171.46 0.379036 1.52974 0
M  V30 1901 C 172.707 -0.206421 2.01445 0
M  V30 1902 C 173.035 -1.47668 1.26587 0
M  V30 1903 O 172.29 -1.92514 0.351675 0
M  V30 1904 C 172.589 -0.53096 3.53434 0
M  V30 1905 C 172.255 0.646546 4.46241 0
M  V30 1906 C 170.917 0.969604 4.7133 0
M  V30 1907 C 173.269 1.43479 5.01062 0
M  V30 1908 C 170.597 2.08263 5.48492 0
M  V30 1909 C 172.949 2.53834 5.7944 0
M  V30 1910 C 171.613 2.86659 6.02812 0
M  V30 1911 H 170.883 -0.0755349 0.73714 0
M  V30 1912 H 173.53 0.514271 1.84465 0
M  V30 1913 H 171.835 -1.33285 3.68432 0
M  V30 1914 H 173.532 -0.996417 3.88423 0
M  V30 1915 H 170.122 0.384734 4.2687 0
M  V30 1916 H 174.306 1.19844 4.81613 0
M  V30 1917 H 169.562 2.34078 5.64816 0
M  V30 1918 H 173.736 3.15319 6.20924 0
M  V30 1919 H 171.363 3.73026 6.62387 0
M  V30 1920 N 172.938 -1.57226 0.108567 0
M  V30 1921 C 174.186 -1.94448 -0.550853 0
M  V30 1922 C 174.507 -0.992074 -1.67878 0
M  V30 1923 O 173.777 -0.0465 -1.95845 0
M  V30 1924 H 172.357 -0.717897 -0.206479 0
M  V30 1925 H 175.019 -1.94112 0.175062 0
M  V30 1926 H 174.115 -2.97218 -0.952259 0
M  V30 1927 N 174.416 0.165178 -1.56732 0
M  V30 1928 C 175.644 0.896218 -1.86482 0
M  V30 1929 C 176.059 1.75555 -0.694675 0
M  V30 1930 O 175.416 1.79379 0.33607 0
M  V30 1931 C 175.467 1.76792 -3.1532 0
M  V30 1932 O 175.188 0.943239 -4.27825 0
M  V30 1933 C 176.689 2.6081 -3.58459 0
M  V30 1934 H 173.909 0.260064 -0.618553 0
M  V30 1935 H 176.453 0.163428 -2.03846 0
M  V30 1936 H 174.608 2.45398 -2.99764 0
M  V30 1937 H 175.022 1.53998 -5.01383 0
M  V30 1938 H 176.496 3.17579 -4.51495 0
M  V30 1939 H 176.973 3.35977 -2.82872 0
M  V30 1940 H 177.579 1.97526 -3.76648 0
M  V30 1941 N 175.894 1.51508 0.433938 0
M  V30 1942 C 176.826 1.69266 1.54537 0
M  V30 1943 C 177.839 0.573276 1.52373 0
M  V30 1944 O 179.028 0.847698 1.57087 0
M  V30 1945 C 176.128 1.69524 2.93453 0
M  V30 1946 C 175.301 2.98101 3.20085 0
M  V30 1947 C 174.36 2.90502 4.38742 0
M  V30 1948 O 173.386 3.64442 4.3723 0
M  V30 1949 N 174.588 2.06586 5.42496 0
M  V30 1950 H 177.353 2.65145 1.39708 0
M  V30 1951 H 174.914 1.49437 0.622922 0
M  V30 1952 H 176.906 1.62004 3.70859 0
M  V30 1953 H 175.476 0.812245 3.01863 0
M  V30 1954 H 174.696 3.19464 2.30947 0
M  V30 1955 H 175.984 3.83207 3.34708 0
M  V30 1956 H 175.382 1.45896 5.46563 0
M  V30 1957 H 173.939 2.04943 6.18742 0
M  V30 1958 N 177.372 -0.689602 1.41712 0
M  V30 1959 C 178.612 -1.46184 1.42862 0
M  V30 1960 C 178.976 -1.91962 0.0382204 0
M  V30 1961 O 180.177 -2.68694 -0.0755019 0
M  V30 1962 C 178.448 -2.6371 2.4123 0
M  V30 1963 S 180.007 -3.52768 2.6096 0
M  V30 1964 H 176.825 -0.49947 0.506015 0
M  V30 1965 H 179.427 -0.804107 1.78198 0
M  V30 1966 H 178.131 -2.28293 3.41044 0
M  V30 1967 H 177.662 -3.3437 2.07269 0
M  V30 1968 H 179.677 -4.59146 1.88148 0
M  V30 1969 N 178.85 -1.27639 -0.924453 0
M  V30 1970 C 180.075 -1.17101 -1.71179 0
M  V30 1971 C 180.5 0.268134 -1.86179 0
M  V30 1972 O 179.858 1.19415 -1.36418 0
M  V30 1973 C 179.906 -1.86313 -3.08739 0
M  V30 1974 O 179.01 -1.16331 -3.95652 0
M  V30 1975 H 178.351 -0.407091 -0.524569 0
M  V30 1976 H 180.881 -1.68767 -1.15666 0
M  V30 1977 H 180.891 -1.938 -3.59034 0
M  V30 1978 H 179.566 -2.91001 -2.97138 0
M  V30 1979 H 178.143 -1.16935 -3.54091 0
M  V30 1980 N 180.328 1.1314 -1.09713 0
M  V30 1981 C 181.558 1.88048 -0.855656 0
M  V30 1982 C 181.966 1.79537 0.596919 0
M  V30 1983 O 181.309 1.16196 1.42282 0
M  V30 1984 C 181.371 3.38314 -1.21589 0
M  V30 1985 C 181.035 3.70605 -2.67397 0
M  V30 1986 C 182.032 3.69596 -3.65643 0
M  V30 1987 C 179.717 4.0017 -3.03593 0
M  V30 1988 C 181.711 3.977 -4.9811 0
M  V30 1989 C 179.398 4.27935 -4.36251 0
M  V30 1990 C 180.396 4.26685 -5.33318 0
M  V30 1991 O 180.084 4.53767 -6.63589 0
M  V30 1992 H 179.816 0.60208 -0.307368 0
M  V30 1993 H 182.37 1.44128 -1.46343 0
M  V30 1994 H 180.6 3.82752 -0.551177 0
M  V30 1995 H 182.289 3.94552 -0.953083 0
M  V30 1996 H 183.055 3.46826 -3.39023 0
M  V30 1997 H 178.934 4.00289 -2.2867 0
M  V30 1998 H 182.478 3.9664 -5.73866 0
M  V30 1999 H 178.375 4.50178 -4.62613 0
M  V30 2000 H 179.143 4.71422 -6.69107 0
M  V30 2001 N 181.806 0.884767 1.30421 0
M  V30 2002 C 182.736 0.367574 2.30589 0
M  V30 2003 C 183.717 -0.549464 1.60981 0
M  V30 2004 O 184.902 -0.46336 1.88591 0
M  V30 2005 C 182.032 -0.418944 3.44764 0
M  V30 2006 C 180.986 0.406316 4.26067 0
M  V30 2007 C 180.312 -0.506793 5.32293 0
M  V30 2008 C 181.612 1.64832 4.95608 0
M  V30 2009 H 183.306 1.20462 2.74097 0
M  V30 2010 H 180.852 0.580695 1.31772 0
M  V30 2011 H 182.805 -0.791395 4.13902 0
M  V30 2012 H 181.529 -1.28964 3.0006 0
M  V30 2013 H 180.188 0.760903 3.58617 0
M  V30 2014 H 179.836 -1.37519 4.83836 0
M  V30 2015 H 179.536 0.0415828 5.87585 0
M  V30 2016 H 181.06 -0.875764 6.04287 0
M  V30 2017 H 182.474 1.34646 5.57264 0
M  V30 2018 H 180.871 2.13688 5.60765 0
M  V30 2019 H 181.941 2.39284 4.21748 0
M  V30 2020 N 183.284 -1.43765 0.645699 0
M  V30 2021 C 184.214 -2.33471 -0.0370477 0
M  V30 2022 C 185.195 -1.49042 -0.819779 0
M  V30 2023 O 186.38 -1.77726 -0.782758 0
M  V30 2024 C 183.51 -3.32311 -1.0093 0
M  V30 2025 C 182.464 -4.2667 -0.337201 0
M  V30 2026 C 181.79 -5.1549 -1.42037 0
M  V30 2027 C 183.09 -5.16657 0.765706 0
M  V30 2028 H 184.784 -2.90809 0.712069 0
M  V30 2029 H 182.33 -1.39834 0.343876 0
M  V30 2030 H 184.283 -3.9396 -1.49578 0
M  V30 2031 H 183.007 -2.73213 -1.78948 0
M  V30 2032 H 181.666 -3.66374 0.128771 0
M  V30 2033 H 181.314 -4.52735 -2.1918 0
M  V30 2034 H 181.014 -5.79438 -0.975966 0
M  V30 2035 H 182.538 -5.80012 -1.90838 0
M  V30 2036 H 183.952 -5.72158 0.361702 0
M  V30 2037 H 182.349 -5.89286 1.13413 0
M  V30 2038 H 183.419 -4.56796 1.62683 0
M  V30 2039 N 184.763 -0.387143 -1.52771 0
M  V30 2040 C 185.988 0.198407 -2.06449 0
M  V30 2041 C 186.413 1.39918 -1.25716 0
M  V30 2042 O 185.771 1.79099 -0.281657 0
M  V30 2043 C 185.819 0.548893 -3.56398 0
M  V30 2044 O 184.923 1.64315 -3.78252 0
M  V30 2045 H 184.264 0.0237731 -0.663574 0
M  V30 2046 H 186.794 -0.553989 -1.96957 0
M  V30 2047 H 186.804 0.813812 -3.99801 0
M  V30 2048 H 185.479 -0.329005 -4.14597 0
M  V30 2049 H 184.056 1.37211 -3.46738 0
M  V30 2050 N 186.241 1.57166 -0.116904 0
M  V30 2051 C 187.657 1.5779 0.239693 0
M  V30 2052 C 187.857 1.1295 1.66867 0
M  V30 2053 O 186.913 0.81592 2.38954 0
M  V30 2054 C 188.226 3.00699 0.00828202 0
M  V30 2055 C 189.774 3.12912 0.0743438 0
M  V30 2056 C 190.249 4.57817 -0.129348 0
M  V30 2057 N 191.74 4.63139 -0.075247 0
M  V30 2058 C 192.475 5.73023 -0.207788 0
M  V30 2059 N 191.971 6.91665 -0.396382 0
M  V30 2060 N 193.764 5.61906 -0.14751 0
M  V30 2061 H 185.915 1.84615 -1.05029 0
M  V30 2062 H 188.178 0.85311 -0.41341 0
M  V30 2063 H 187.884 3.37784 -0.979531 0
M  V30 2064 H 187.758 3.69848 0.741077 0
M  V30 2065 H 190.145 2.75686 1.05268 0
M  V30 2066 H 190.226 2.4631 -0.690297 0
M  V30 2067 H 189.87 4.95742 -1.10465 0
M  V30 2068 H 189.8 5.22507 0.655253 0
M  V30 2069 H 192.291 3.7784 0.0670898 0
M  V30 2070 H 192.604 7.71255 -0.488437 0
M  V30 2071 H 190.949 6.93654 -0.432329 0
M  V30 2072 H 194.14 4.681 -0.00115036 0
M  V30 2073 H 194.313 6.47501 -0.254247 0
M  V30 2074 N 187.719 -0.156864 1.56817 0
M  V30 2075 C 188.666 -1.19394 1.97519 0
M  V30 2076 C 189.636 -1.4322 0.841265 0
M  V30 2077 O 190.821 -1.55719 1.10255 0
M  V30 2078 C 187.961 -2.52483 2.35258 0
M  V30 2079 C 187.074 -2.35914 3.61896 0
M  V30 2080 C 186.209 -3.61969 3.88782 0
M  V30 2081 C 185.248 -3.40395 5.08722 0
M  V30 2082 N 184.385 -4.58556 5.31668 0
M  V30 2083 H 189.225 -0.839845 2.85921 0
M  V30 2084 H 186.762 -0.403264 1.41464 0
M  V30 2085 H 188.72 -3.30071 2.55165 0
M  V30 2086 H 187.35 -2.85859 1.49949 0
M  V30 2087 H 186.402 -1.49429 3.49821 0
M  V30 2088 H 187.714 -2.15926 4.49641 0
M  V30 2089 H 186.868 -4.47989 4.09135 0
M  V30 2090 H 185.607 -3.84951 2.9944 0
M  V30 2091 H 184.612 -2.52763 4.88253 0
M  V30 2092 H 185.837 -3.18822 5.99608 0
M  V30 2093 H 183.783 -4.81729 4.45279 0
M  V30 2094 H 183.7 -4.41535 6.13664 0
M  V30 2095 H 184.968 -5.45817 5.5651 0
M  V30 2096 N 189.197 -1.51736 -0.425897 0
M  V30 2097 C 190.474 -1.55519 -1.1863 0
M  V30 2098 C 190.854 -0.326219 -2.08564 0
M  V30 2099 O 190.202 0.688012 -2.17896 0
M  V30 2100 C 190.412 -2.87521 -1.9782 0
M  V30 2101 C 191.76 -3.39899 -2.54468 0
M  V30 2102 O 192.784 -2.89148 -2.08019 0
M  V30 2103 O 191.643 -4.2848 -3.39215 0
M  V30 2104 H 188.737 -0.625739 -0.540721 0
M  V30 2105 H 191.283 -1.64055 -0.434038 0
M  V30 2106 H 190.055 -3.68422 -1.31836 0
M  V30 2107 H 189.678 -2.822 -2.80088 0
M  V30 2108 N 190.675 0.682077 -1.42076 0
M  V30 2109 C 191.924 1.43786 -1.41451 0
M  V30 2110 C 192.237 1.95574 -0.0317074 0
M  V30 2111 O 193.443 2.71326 0.0971462 0
M  V30 2112 C 191.899 2.60071 -2.48779 0
M  V30 2113 C 191.507 2.15013 -3.93031 0
M  V30 2114 C 193.251 3.37626 -2.57311 0
M  V30 2115 C 191.158 3.28336 -4.91883 0
M  V30 2116 H 190.088 0.540143 -0.526082 0
M  V30 2117 H 192.739 0.739157 -1.67955 0
M  V30 2118 H 191.121 3.32275 -2.15429 0
M  V30 2119 H 192.295 1.5001 -4.35699 0
M  V30 2120 H 190.61 1.50416 -3.88284 0
M  V30 2121 H 193.207 4.22012 -3.28345 0
M  V30 2122 H 193.55 3.83727 -1.61429 0
M  V30 2123 H 194.083 2.72488 -2.89819 0
M  V30 2124 H 190.822 2.87234 -5.89217 0
M  V30 2125 H 190.342 3.92145 -4.53853 0
M  V30 2126 H 192.021 3.93913 -5.13265 0
M  V30 2127 N 192.153 1.28127 0.917671 0
M  V30 2128 C 193.086 1.06039 2.02067 0
M  V30 2129 C 194.064 -0.0223285 1.62585 0
M  V30 2130 O 195.248 0.124823 1.88086 0
M  V30 2131 C 192.375 0.610596 3.33151 0
M  V30 2132 C 191.421 1.68937 3.91615 0
M  V30 2133 S 192.254 3.28437 4.22953 0
M  V30 2134 C 193.41 2.85283 5.57103 0
M  V30 2135 H 193.643 1.99425 2.20493 0
M  V30 2136 H 191.176 1.12071 1.06205 0
M  V30 2137 H 193.134 0.357778 4.08938 0
M  V30 2138 H 191.795 -0.303364 3.12632 0
M  V30 2139 H 190.988 1.32619 4.86239 0
M  V30 2140 H 190.59 1.89478 3.2245 0
M  V30 2141 H 192.882 2.3121 6.36827 0
M  V30 2142 H 193.825 3.7869 5.98331 0
M  V30 2143 H 194.233 2.24118 5.18104 0
M  V30 2144 N 193.631 -1.12557 1.10312 0
M  V30 2145 C 194.908 -1.80363 0.756878 0
M  V30 2146 C 195.288 -1.97067 -0.756824 0
M  V30 2147 O 194.636 -1.54601 -1.68259 0
M  V30 2148 C 194.846 -3.14812 1.50647 0
M  V30 2149 C 196.194 -3.90029 1.67817 0
M  V30 2150 O 197.218 -3.24464 1.46974 0
M  V30 2151 O 196.077 -5.07652 2.02365 0
M  V30 2152 H 193.171 -0.780667 0.272926 0
M  V30 2153 H 195.717 -1.19404 1.20586 0
M  V30 2154 H 194.489 -2.97936 2.53672 0
M  V30 2155 H 194.112 -3.83478 1.05026 0
M  V30 2156 N 195.109 -0.891671 -1.2995 0
M  V30 2157 C 196.334 -0.527932 -2.00568 0
M  V30 2158 C 196.759 0.877969 -1.66353 0
M  V30 2159 O 196.117 1.58301 -0.883762 0
M  V30 2160 C 196.165 -0.717745 -3.53385 0
M  V30 2161 O 195.269 0.233376 -4.11739 0
M  V30 2162 H 194.61 -0.20722 -0.630837 0
M  V30 2163 H 197.14 -1.20105 -1.65638 0
M  V30 2164 H 197.15 -0.619307 -4.03272 0
M  V30 2165 H 195.825 -1.74276 -3.77625 0
M  V30 2166 H 194.402 0.0880706 -3.72796 0
M  V30 2167 N 196.587 1.43421 -0.653314 0
M  V30 2168 C 197.517 2.33487 0.0246656 0
M  V30 2169 C 198.498 1.49475 0.811863 0
M  V30 2170 O 199.683 1.78139 0.773322 0
M  V30 2171 C 196.813 3.32841 0.99166 0
M  V30 2172 C 195.767 4.26842 0.314568 0
M  V30 2173 C 195.093 5.16236 1.39302 0
M  V30 2174 C 196.393 5.16243 -0.793095 0
M  V30 2175 H 198.087 2.90427 -0.727481 0
M  V30 2176 H 195.633 1.39649 -0.351287 0
M  V30 2177 H 197.586 3.94747 1.47487 0
M  V30 2178 H 196.31 2.74158 1.77497 0
M  V30 2179 H 194.969 3.663 -0.148199 0
M  V30 2180 H 194.617 4.53891 2.16776 0
M  V30 2181 H 194.317 5.79948 0.945223 0
M  V30 2182 H 195.841 5.81015 1.87759 0
M  V30 2183 H 197.255 5.71958 -0.392039 0
M  V30 2184 H 195.652 5.88676 -1.16536 0
M  V30 2185 H 196.722 4.55927 -1.65103 0
M  V30 2186 N 198.065 0.39524 1.52563 0
M  V30 2187 C 199.012 -0.437036 2.26624 0
M  V30 2188 C 199.982 -1.05281 1.28472 0
M  V30 2189 O 201.167 -1.07971 1.57311 0
M  V30 2190 C 198.307 -1.55524 3.08069 0
M  V30 2191 C 197.42 -0.961745 4.21158 0
M  V30 2192 C 196.555 -2.05149 4.89987 0
M  V30 2193 C 195.594 -1.4342 5.95061 0
M  V30 2194 N 194.731 -2.46351 6.57462 0
M  V30 2195 H 199.571 0.200976 2.97322 0
M  V30 2196 H 197.108 0.110944 1.46681 0
M  V30 2197 H 199.066 -2.21437 3.53584 0
M  V30 2198 H 197.696 -2.16348 2.3957 0
M  V30 2199 H 196.748 -0.192048 3.79915 0
M  V30 2200 H 198.06 -0.470701 4.96574 0
M  V30 2201 H 197.214 -2.78819 5.38837 0
M  V30 2202 H 195.953 -2.57615 4.14109 0
M  V30 2203 H 194.958 -0.682774 5.45544 0
M  V30 2204 H 196.183 -0.917416 6.72875 0
M  V30 2205 H 194.129 -2.97975 5.8442 0
M  V30 2206 H 194.046 -2.02019 7.28508 0
M  V30 2207 H 195.314 -3.19633 7.10954 0
M  V30 2208 N 199.544 -1.57102 0.125237 0
M  V30 2209 C 200.492 -2.16905 -0.839927 0
M  V30 2210 C 201.486 -1.11998 -1.27094 0
M  V30 2211 O 202.692 -1.3029 -1.24195 0
M  V30 2212 H 199.067 -0.694252 -0.288995 0
M  V30 2213 H 201.038 -2.96774 -0.311115 0
M  V30 2214 C 199.787 -2.78795 -2.07771 0
M  V30 2215 H 199.11 -3.59221 -1.755 0
M  V30 2216 H 200.55 -3.2417 -2.73295 0
M  V30 2217 C 199.009 -1.76193 -2.87155 0
M  V30 2218 O 199.539 -1.21909 -3.82755 0
M  V30 2219 N 197.745 -1.45991 -2.51267 0
M  V30 2220 H 197.292 -1.90325 -1.73592 0
M  V30 2221 H 197.25 -0.775844 -3.04677 0
M  V30 2222 N 201.022 0.148545 -1.56898 0
M  V30 2223 C 201.932 1.20293 -2.01412 0
M  V30 2224 C 202.948 1.47107 -0.929273 0
M  V30 2225 O 204.124 1.58807 -1.23863 0
M  V30 2226 C 201.189 2.51682 -2.38447 0
M  V30 2227 C 200.25 2.32529 -3.60872 0
M  V30 2228 C 199.483 3.57653 -3.96132 0
M  V30 2229 O 199.706 4.63771 -3.32073 0
M  V30 2230 O 198.64 3.50408 -4.89385 0
M  V30 2231 H 202.466 0.855025 -2.91416 0
M  V30 2232 H 200.051 0.357151 -1.45068 0
M  V30 2233 H 201.933 3.29147 -2.63135 0
M  V30 2234 H 200.608 2.86006 -1.51599 0
M  V30 2235 H 199.515 1.53019 -3.41373 0
M  V30 2236 H 200.848 2.03121 -4.48333 0
M  V30 2237 N 202.5 1.5196 0.417844 0
M  V30 2238 C 203.448 1.75278 1.52907 0
M  V30 2239 C 204.442 0.619611 1.57662 0
M  V30 2240 O 205.648 0.801457 1.61173 0
M  V30 2241 H 202.023 0.554141 0.508362 0
M  V30 2242 H 203.994 2.68389 1.30422 0
M  V30 2243 C 202.743 1.91262 2.90369 0
M  V30 2244 H 202.066 2.77872 2.8745 0
M  V30 2245 H 203.506 2.11581 3.67436 0
M  V30 2246 C 201.965 0.677431 3.30019 0
M  V30 2247 O 202.495 -0.158799 4.01386 0
M  V30 2248 N 200.701 0.515851 2.85985 0
M  V30 2249 H 200.248 1.19744 2.28077 0
M  V30 2250 H 200.206 -0.309315 3.12875 0
M  V30 2251 N 203.978 -0.674533 1.42435 0
M  V30 2252 C 205.208 -1.46071 1.46105 0
M  V30 2253 C 205.616 -1.89067 0.0709605 0
M  V30 2254 O 204.959 -1.58731 -0.924677 0
M  V30 2255 C 205.021 -2.74145 2.32561 0
M  V30 2256 C 204.685 -2.53224 3.8043 0
M  V30 2257 C 205.682 -2.17809 4.72075 0
M  V30 2258 C 203.367 -2.6821 4.24698 0
M  V30 2259 C 205.361 -1.97648 6.05982 0
M  V30 2260 C 203.048 -2.47665 5.58664 0
M  V30 2261 C 204.046 -2.12437 6.49122 0
M  V30 2262 O 203.734 -1.9209 7.80613 0
M  V30 2263 H 203.466 -0.455959 0.499076 0
M  V30 2264 H 206.02 -0.836193 1.87609 0
M  V30 2265 H 204.25 -3.3908 1.85908 0
M  V30 2266 H 205.939 -3.36028 2.27683 0
M  V30 2267 H 206.705 -2.05826 4.39159 0
M  V30 2268 H 202.584 -2.94609 3.54579 0
M  V30 2269 H 206.128 -1.70075 6.7655 0
M  V30 2270 H 202.025 -2.59244 5.91154 0
M  V30 2271 H 202.793 -2.06686 7.91974 0
M  V30 2272 N 205.456 -1.28612 -0.910864 0
M  V30 2273 C 206.733 -1.06632 -1.63979 0
M  V30 2274 C 207.113 0.393351 -2.07403 0
M  V30 2275 O 206.461 1.37999 -1.82122 0
M  V30 2276 C 206.671 -2.0436 -2.8291 0
M  V30 2277 C 208.019 -2.34666 -3.5386 0
M  V30 2278 O 209.043 -2.02467 -2.93062 0
M  V30 2279 O 207.902 -2.89631 -4.63439 0
M  V30 2280 H 204.996 -0.407737 -0.7195 0
M  V30 2281 H 207.542 -1.39942 -0.959914 0
M  V30 2282 H 206.314 -3.02727 -2.47936 0
M  V30 2283 H 205.937 -1.71714 -3.58609 0
M  V30 2284 N 206.934 1.1197 -1.10907 0
M  V30 2285 C 207.864 2.19928 -0.784473 0
M  V30 2286 C 208.845 1.6833 0.244726 0
M  V30 2287 O 210.03 1.93892 0.109418 0
M  V30 2288 C 207.16 3.46597 -0.220827 0
M  V30 2289 C 206.114 4.11376 -1.18127 0
M  V30 2290 C 205.44 5.32554 -0.478594 0
M  V30 2291 C 206.74 4.56945 -2.52979 0
M  V30 2292 H 208.434 2.47337 -1.68715 0
M  V30 2293 H 205.98 1.18879 -0.812642 0
M  V30 2294 H 207.933 4.21396 0.0184278 0
M  V30 2295 H 206.657 3.1863 0.717113 0
M  V30 2296 H 205.316 3.38564 -1.40606 0
M  V30 2297 H 204.964 5.00856 0.463976 0
M  V30 2298 H 204.664 5.76844 -1.11912 0
M  V30 2299 H 206.188 6.10096 -0.248 0
M  V30 2300 H 207.602 5.23093 -2.3462 0
M  V30 2301 H 205.999 5.1203 -3.12962 0
M  V30 2302 H 207.069 3.70676 -3.12614 0
M  V30 2303 N 208.412 0.89855 1.29475 0
M  V30 2304 C 209.658 0.524658 1.95896 0
M  V30 2305 C 209.991 -0.926468 1.70676 0
M  V30 2306 O 209.266 -1.65665 1.01908 0
M  V30 2307 C 209.549 0.81633 3.50725 0
M  V30 2308 C 209.402 2.31907 3.85408 0
M  V30 2309 C 210.721 0.302038 4.39062 0
M  V30 2310 H 207.84 0.19209 0.711527 0
M  V30 2311 H 210.482 1.12502 1.53112 0
M  V30 2312 H 208.632 0.305369 3.87298 0
M  V30 2313 H 210.304 2.89949 3.58786 0
M  V30 2314 H 208.547 2.78027 3.32992 0
M  V30 2315 H 209.218 2.47373 4.93468 0
M  V30 2316 H 211.694 0.739551 4.09475 0
M  V30 2317 H 210.57 0.535331 5.46283 0
M  V30 2318 H 210.831 -0.797216 4.34853 0
M  V30 2319 N 209.89 -1.43072 0.660911 0
M  V30 2320 C 211.137 -2.01721 0.177445 0
M  V30 2321 C 211.465 -1.5218 -1.21126 0
M  V30 2322 O 210.72 -0.708659 -1.82419 0
M  V30 2323 C 211.019 -3.57103 0.145563 0
M  V30 2324 C 210.685 -4.26021 1.47705 0
M  V30 2325 C 209.347 -4.44563 1.84165 0
M  V30 2326 C 211.699 -4.64983 2.35458 0
M  V30 2327 C 209.027 -4.99334 3.0803 0
M  V30 2328 C 211.379 -5.21127 3.58622 0
M  V30 2329 C 210.043 -5.37884 3.95268 0
M  V30 2330 H 209.313 -0.73815 0.0649317 0
M  V30 2331 H 211.96 -1.71446 0.853144 0
M  V30 2332 H 210.265 -3.86965 -0.61361 0
M  V30 2333 H 211.962 -4.00248 -0.2455 0
M  V30 2334 H 208.552 -4.11939 1.18339 0
M  V30 2335 H 212.736 -4.50343 2.08579 0
M  V30 2336 H 207.992 -5.10493 3.36462 0
M  V30 2337 H 212.166 -5.50262 4.26831 0
M  V30 2338 H 209.793 -5.80089 4.91325 0
M  V30 2339 N 211.368 -0.403325 -1.52352 0
M  V30 2340 C 212.614 0.174605 -2.02047 0
M  V30 2341 C 212.947 1.45282 -1.28867 0
M  V30 2342 O 212.222 1.90483 -0.393257 0
M  V30 2343 C 212.505 0.428238 -3.57545 0
M  V30 2344 C 212.358 -0.866248 -4.4138 0
M  V30 2345 C 213.677 1.21287 -4.23057 0
M  V30 2346 H 210.796 0.0619851 -0.734389 0
M  V30 2347 H 213.438 -0.53565 -1.82293 0
M  V30 2348 H 211.588 1.03327 -3.74507 0
M  V30 2349 H 213.26 -1.50265 -4.3614 0
M  V30 2350 H 211.503 -1.47851 -4.07827 0
M  V30 2351 H 212.174 -0.643249 -5.48239 0
M  V30 2352 H 214.65 0.700703 -4.10158 0
M  V30 2353 H 213.526 1.35909 -5.31808 0
M  V30 2354 H 213.787 2.23193 -3.81625 0
M  V30 2355 N 212.846 1.57033 -0.133567 0
M  V30 2356 C 213.756 2.19632 0.824564 0
M  V30 2357 C 214.772 1.17666 1.28182 0
M  V30 2358 O 215.948 1.50193 1.3418 0
M  V30 2359 C 213.013 2.79499 2.05137 0
M  V30 2360 C 212.074 3.96548 1.64464 0
M  V30 2361 C 211.307 4.5355 2.81297 0
M  V30 2362 O 211.53 4.09438 3.97136 0
M  V30 2363 O 210.464 5.44018 2.57542 0
M  V30 2364 H 214.29 3.01991 0.321766 0
M  V30 2365 H 211.875 1.49112 0.0927889 0
M  V30 2366 H 213.757 3.17602 2.7696 0
M  V30 2367 H 212.432 2.00162 2.54395 0
M  V30 2368 H 211.339 3.63186 0.897048 0
M  V30 2369 H 212.672 4.77364 1.19934 0
M  V30 2370 N 214.325 -0.140222 1.56975 0
M  V30 2371 C 215.288 -1.15689 1.97861 0
M  V30 2372 C 216.288 -1.3549 0.865974 0
M  V30 2373 O 217.478 -1.32367 1.13246 0
M  V30 2374 C 214.61 -2.51582 2.30042 0
M  V30 2375 H 215.803 -0.805971 2.88867 0
M  V30 2376 H 213.356 -0.383801 1.51515 0
M  V30 2377 H 214.091 -2.91632 1.41849 0
M  V30 2378 H 213.876 -2.38569 3.11171 0
M  V30 2379 H 215.366 -3.24792 2.62488 0
M  V30 2380 N 215.803 -1.52179 -0.40978 0
M  V30 2381 C 217.05 -1.66206 -1.15679 0
M  V30 2382 C 217.378 -0.391674 -1.90516 0
M  V30 2383 O 216.633 0.62533 -1.8544 0
M  V30 2384 C 216.932 -2.83428 -2.17723 0
M  V30 2385 C 216.598 -4.21672 -1.59699 0
M  V30 2386 C 215.26 -4.59274 -1.43599 0
M  V30 2387 C 217.612 -5.07825 -1.17317 0
M  V30 2388 C 214.94 -5.80709 -0.836328 0
M  V30 2389 C 217.292 -6.29864 -0.587691 0
M  V30 2390 C 215.956 -6.66216 -0.413818 0
M  V30 2391 H 215.226 -0.608192 -0.423301 0
M  V30 2392 H 217.873 -1.86279 -0.444097 0
M  V30 2393 H 216.178 -2.57687 -2.95135 0
M  V30 2394 H 217.875 -2.91477 -2.75394 0
M  V30 2395 H 214.465 -3.9204 -1.73213 0
M  V30 2396 H 218.649 -4.79359 -1.28565 0
M  V30 2397 H 213.905 -6.07498 -0.689626 0
M  V30 2398 H 218.079 -6.95948 -0.250894 0
M  V30 2399 H 215.706 -7.60182 0.0529471 0
M  V30 2400 N 217.281 0.66697 -1.42791 0
M  V30 2401 C 218.558 1.4234 -1.34159 0
M  V30 2402 C 218.938 2.11093 0.0172729 0
M  V30 2403 O 218.286 2.03808 1.03318 0
M  V30 2404 C 218.496 2.41942 -2.51526 0
M  V30 2405 C 219.844 3.06353 -2.93995 0
M  V30 2406 O 220.868 2.52269 -2.51473 0
M  V30 2407 O 219.727 4.04376 -3.67617 0
M  V30 2408 H 216.821 0.635277 -0.529483 0
M  V30 2409 H 219.367 0.695034 -1.54814 0
M  V30 2410 H 218.139 1.89991 -3.42081 0
M  V30 2411 H 217.762 3.22249 -2.32898 0
M  V30 2412 N 218.759 1.29093 0.90403 0
M  V30 2413 C 220.006 1.16813 1.65411 0
M  V30 2414 C 220.334 -0.28128 1.92455 0
M  V30 2415 O 219.589 -1.22006 1.53013 0
M  V30 2416 C 219.888 1.92224 3.01305 0
M  V30 2417 C 219.554 3.41968 2.93885 0
M  V30 2418 C 218.216 3.82807 2.91569 0
M  V30 2419 C 220.568 4.37409 2.83413 0
M  V30 2420 C 217.896 5.1741 2.76594 0
M  V30 2421 C 220.248 5.72097 2.69977 0
M  V30 2422 C 218.912 6.12199 2.66024 0
M  V30 2423 H 218.182 0.42745 0.605283 0
M  V30 2424 H 220.829 1.59981 1.05254 0
M  V30 2425 H 219.134 1.41635 3.65304 0
M  V30 2426 H 220.831 1.80131 3.58265 0
M  V30 2427 H 217.421 3.09504 2.96488 0
M  V30 2428 H 221.605 4.06813 2.84283 0
M  V30 2429 H 216.861 5.47596 2.71935 0
M  V30 2430 H 221.035 6.45704 2.60844 0
M  V30 2431 H 218.662 7.16448 2.54178 0
M  V30 2432 N 220.237 -1.11381 1.11499 0
M  V30 2433 C 221.477 -1.84763 0.874188 0
M  V30 2434 C 221.841 -1.82726 -0.589496 0
M  V30 2435 O 223.042 -2.51562 -0.947089 0
M  V30 2436 C 221.313 -3.27931 1.42112 0
M  V30 2437 S 222.872 -4.18557 1.31739 0
M  V30 2438 H 219.69 -0.637115 0.315603 0
M  V30 2439 H 222.292 -1.34097 1.42261 0
M  V30 2440 H 220.996 -3.26978 2.48019 0
M  V30 2441 H 220.527 -3.83665 0.869761 0
M  V30 2442 H 222.542 -4.95396 0.282335 0
M  V30 2443 N 221.715 -0.905404 -1.28997 0
M  V30 2444 C 222.94 -0.549175 -1.99997 0
M  V30 2445 C 223.365 0.860276 -1.67275 0
M  V30 2446 O 222.723 1.57355 -0.900502 0
M  V30 2447 C 222.771 -0.755185 -3.52604 0
M  V30 2448 O 221.875 0.189692 -4.11964 0
M  V30 2449 H 221.216 -0.213899 -0.628604 0
M  V30 2450 H 223.746 -1.21856 -1.64354 0
M  V30 2451 H 223.756 -0.662045 -4.02593 0
M  V30 2452 H 222.431 -1.78271 -3.75755 0
M  V30 2453 H 221.008 0.0485257 -3.72868 0
M  V30 2454 N 223.193 1.4272 -0.668489 0
M  V30 2455 C 224.44 2.01624 -0.18814 0
M  V30 2456 C 224.768 1.5282 1.20317 0
M  V30 2457 O 224.023 0.718323 1.8204 0
M  V30 2458 C 224.322 3.57021 -0.164499 0
M  V30 2459 C 223.988 4.25232 -1.49962 0
M  V30 2460 C 222.65 4.4358 -1.8652 0
M  V30 2461 C 225.002 4.63727 -2.37921 0
M  V30 2462 C 222.33 4.97694 -3.10674 0
M  V30 2463 C 224.682 5.19218 -3.6138 0
M  V30 2464 C 223.346 5.3578 -3.98115 0
M  V30 2465 H 222.616 0.737795 -0.0688454 0
M  V30 2466 H 225.263 1.70991 -0.862225 0
M  V30 2467 H 223.568 3.87285 0.593079 0
M  V30 2468 H 225.265 4.00372 0.224271 0
M  V30 2469 H 221.855 4.11306 -1.20522 0
M  V30 2470 H 226.039 4.4923 -2.10964 0
M  V30 2471 H 221.295 5.08702 -3.39164 0
M  V30 2472 H 225.469 5.4799 -4.29743 0
M  V30 2473 H 223.096 5.77475 -4.94395 0
M  V30 2474 N 224.671 0.411399 1.52136 0
M  V30 2475 C 225.601 -0.404015 2.29978 0
M  V30 2476 C 226.582 -1.04412 1.34284 0
M  V30 2477 O 227.767 -1.0527 1.63192 0
M  V30 2478 C 224.897 -1.5197 3.12286 0
M  V30 2479 C 223.851 -1.00448 4.16046 0
M  V30 2480 C 223.177 -2.21393 4.86712 0
M  V30 2481 C 224.477 -0.0569336 5.22269 0
M  V30 2482 H 226.171 0.245529 2.98392 0
M  V30 2483 H 223.717 0.119525 1.43503 0
M  V30 2484 H 225.67 -2.09715 3.6551 0
M  V30 2485 H 224.394 -2.19716 2.41646 0
M  V30 2486 H 223.053 -0.449421 3.63835 0
M  V30 2487 H 222.701 -2.87699 4.12599 0
M  V30 2488 H 222.401 -1.87571 5.56858 0
M  V30 2489 H 223.925 -2.7974 5.4275 0
M  V30 2490 H 225.339 -0.54325 5.7072 0
M  V30 2491 H 223.736 0.192594 5.99791 0
M  V30 2492 H 224.806 0.887663 4.76706 0
M  V30 2493 N 226.149 -1.5696 0.141893 0
M  V30 2494 C 227.398 -1.95135 -0.510427 0
M  V30 2495 C 227.711 -1.02896 -1.66348 0
M  V30 2496 O 228.917 -1.30629 -2.38009 0
M  V30 2497 C 227.373 -3.46876 -0.959427 0
M  V30 2498 C 226.981 -4.47691 0.166419 0
M  V30 2499 C 228.725 -3.93927 -1.58183 0
M  V30 2500 C 226.632 -5.90636 -0.300565 0
M  V30 2501 H 225.562 -0.728494 -0.194454 0
M  V30 2502 H 228.213 -1.8211 0.22542 0
M  V30 2503 H 226.595 -3.55215 -1.75038 0
M  V30 2504 H 227.769 -4.51043 0.94325 0
M  V30 2505 H 226.084 -4.10527 0.696905 0
M  V30 2506 H 228.681 -4.98158 -1.94275 0
M  V30 2507 H 229.024 -3.3519 -2.46888 0
M  V30 2508 H 229.557 -3.88484 -0.855863 0
M  V30 2509 H 226.296 -6.5318 0.550989 0
M  V30 2510 H 225.816 -5.90655 -1.04338 0
M  V30 2511 H 227.495 -6.42588 -0.754265 0
M  V30 2512 N 227.627 0.131896 -1.57047 0
M  V30 2513 C 228.59 1.14638 -1.98471 0
M  V30 2514 C 229.59 1.35029 -0.873148 0
M  V30 2515 O 230.78 1.31764 -1.13946 0
M  V30 2516 C 227.912 2.50358 -2.31373 0
M  V30 2517 H 229.105 0.79064 -2.8929 0
M  V30 2518 H 226.658 0.375761 -1.51716 0
M  V30 2519 H 227.393 2.90876 -1.43393 0
M  V30 2520 H 227.178 2.36915 -3.12432 0
M  V30 2521 H 228.668 3.23395 -2.64207 0
M  V30 2522 N 229.106 1.52395 0.401703 0
M  V30 2523 C 230.016 1.7917 1.51444 0
M  V30 2524 C 231.032 0.677691 1.6026 0
M  V30 2525 O 232.208 0.963909 1.76835 0
M  V30 2526 C 229.273 1.94347 2.87107 0
M  V30 2527 C 228.334 3.18257 2.88116 0
M  V30 2528 C 227.567 3.32701 4.17308 0
M  V30 2529 O 227.79 2.52238 5.11598 0
M  V30 2530 O 226.724 4.25891 4.25324 0
M  V30 2531 H 230.55 2.73633 1.31752 0
M  V30 2532 H 228.135 1.3733 0.588296 0
M  V30 2533 H 230.017 2.06109 3.67555 0
M  V30 2534 H 228.692 1.03073 3.06851 0
M  V30 2535 H 227.599 3.11947 2.06494 0
M  V30 2536 H 228.932 4.09336 2.73322 0
M  V30 2537 N 230.584 -0.659388 1.43143 0
M  V30 2538 C 231.531 -1.77249 1.47822 0
M  V30 2539 C 232.501 -1.62818 0.328558 0
M  V30 2540 O 233.686 -1.83151 0.534838 0
M  V30 2541 C 230.826 -3.15371 1.40126 0
M  V30 2542 C 229.939 -3.4098 2.65249 0
M  V30 2543 C 229.074 -4.68915 2.49584 0
M  V30 2544 C 228.113 -4.87608 3.70006 0
M  V30 2545 N 227.25 -6.06796 3.53189 0
M  V30 2546 H 232.09 -1.72584 2.42938 0
M  V30 2547 H 229.627 -0.842297 1.20598 0
M  V30 2548 H 231.585 -3.9521 1.33659 0
M  V30 2549 H 230.215 -3.19121 0.485964 0
M  V30 2550 H 229.267 -2.55282 2.8202 0
M  V30 2551 H 230.579 -3.50681 3.54717 0
M  V30 2552 H 229.733 -5.56871 2.4079 0
M  V30 2553 H 228.472 -4.61524 1.5763 0
M  V30 2554 H 227.477 -3.9809 3.79215 0
M  V30 2555 H 228.702 -4.96834 4.62961 0
M  V30 2556 H 226.648 -6.00549 2.63965 0
M  V30 2557 H 226.565 -6.17428 4.36255 0
M  V30 2558 H 227.833 -6.9739 3.48236 0
M  V30 2559 N 232.062 -1.29571 -0.897171 0
M  V30 2560 C 232.992 -1.17473 -2.01798 0
M  V30 2561 C 233.973 -0.068323 -1.69963 0
M  V30 2562 O 235.158 -0.248239 -1.92607 0
M  V30 2563 C 232.288 -0.853099 -3.36659 0
M  V30 2564 C 231.242 -1.9161 -3.82713 0
M  V30 2565 C 230.568 -1.44773 -5.14728 0
M  V30 2566 C 231.868 -3.32535 -4.02763 0
M  V30 2567 H 233.562 -2.11237 -2.12177 0
M  V30 2568 H 231.108 -1.01699 -1.01948 0
M  V30 2569 H 233.061 -0.755165 -4.14578 0
M  V30 2570 H 231.785 0.120236 -3.26379 0
M  V30 2571 H 230.444 -2.00346 -3.07013 0
M  V30 2572 H 230.092 -0.462995 -5.00865 0
M  V30 2573 H 229.792 -2.15865 -5.46513 0
M  V30 2574 H 231.316 -1.36334 -5.95185 0
M  V30 2575 H 232.73 -3.26626 -4.71156 0
M  V30 2576 H 231.127 -4.01607 -4.45905 0
M  V30 2577 H 232.197 -3.75326 -3.07016 0
M  V30 2578 N 233.54 1.10788 -1.12088 0
M  V30 2579 C 234.786 1.82942 -0.875226 0
M  V30 2580 C 235.119 1.84779 0.597538 0
M  V30 2581 O 234.394 1.30578 1.44152 0
M  V30 2582 C 234.677 3.29789 -1.44606 0
M  V30 2583 C 234.53 3.36307 -2.98693 0
M  V30 2584 C 235.849 4.26064 -1.10261 0
M  V30 2585 H 232.968 0.664195 -0.319397 0
M  V30 2586 H 235.61 1.29867 -1.38689 0
M  V30 2587 H 233.76 3.75118 -1.01089 0
M  V30 2588 H 235.432 2.99487 -3.50864 0
M  V30 2589 H 233.675 2.76318 -3.34411 0
M  V30 2590 H 234.346 4.39694 -3.33726 0
M  V30 2591 H 236.822 3.88951 -1.4784 0
M  V30 2592 H 235.698 5.27183 -1.52869 0
M  V30 2593 H 235.959 4.42098 -0.0142953 0
M  V30 2594 N 235.018 0.912232 1.28515 0
M  V30 2595 C 235.965 0.397954 2.27343 0
M  V30 2596 C 236.935 -0.526766 1.57526 0
M  V30 2597 O 238.12 -0.449292 1.85435 0
M  V30 2598 C 235.26 -0.357263 3.43246 0
M  V30 2599 C 234.373 0.599788 4.27816 0
M  V30 2600 C 233.508 -0.173725 5.30916 0
M  V30 2601 C 232.547 0.777039 6.07148 0
M  V30 2602 N 231.684 0.0371398 7.0209 0
M  V30 2603 H 236.524 1.24577 2.70711 0
M  V30 2604 H 234.061 0.625612 1.33133 0
M  V30 2605 H 236.019 -0.8113 4.09236 0
M  V30 2606 H 234.649 -1.16943 3.00872 0
M  V30 2607 H 233.701 1.17235 3.61884 0
M  V30 2608 H 235.013 1.32704 4.80823 0
M  V30 2609 H 234.167 -0.688394 6.02782 0
M  V30 2610 H 232.906 -0.934041 4.78672 0
M  V30 2611 H 231.911 1.3031 5.34134 0
M  V30 2612 H 233.136 1.53689 6.61481 0
M  V30 2613 H 231.082 -0.705213 6.52198 0
M  V30 2614 H 230.999 0.704249 7.52713 0
M  V30 2615 H 232.267 -0.457383 7.78157 0
M  V30 2616 N 236.496 -1.42363 0.676048 0
M  V30 2617 C 237.907 -1.84649 0.275948 0
M  V30 2618 C 238.258 -1.56588 -1.18214 0
M  V30 2619 O 237.383 -1.02634 -1.90513 0
M  V30 2620 C 237.978 -3.35178 0.494053 0
M  V30 2621 C 236.537 -3.76109 0.148061 0
M  V30 2622 C 235.684 -2.65931 0.785891 0
M  V30 2623 H 238.635 -1.32192 0.878121 0
M  V30 2624 H 238.656 -3.79655 -0.25343 0
M  V30 2625 H 238.168 -3.55571 1.55535 0
M  V30 2626 H 236.269 -3.61323 -0.909742 0
M  V30 2627 H 236.382 -4.7546 0.589454 0
M  V30 2628 H 234.746 -2.53773 0.217113 0
M  V30 2629 H 235.529 -2.89146 1.85067 0
M  V30 2630 N 237.974 -0.419461 -1.51915 0
M  V30 2631 C 239.221 0.152939 -2.01922 0
M  V30 2632 C 239.549 1.4426 -1.30458 0
M  V30 2633 O 238.804 1.91514 -0.402593 0
M  V30 2634 C 239.103 0.437067 -3.54717 0
M  V30 2635 C 238.769 -0.764632 -4.44369 0
M  V30 2636 C 237.431 -1.09423 -4.68594 0
M  V30 2637 C 239.783 -1.56713 -4.97082 0
M  V30 2638 C 237.111 -2.22732 -5.42777 0
M  V30 2639 C 239.463 -2.69107 -5.72507 0
M  V30 2640 C 238.127 -3.02541 -5.95 0
M  V30 2641 H 237.397 0.0559644 -0.738884 0
M  V30 2642 H 240.044 -0.562998 -1.83037 0
M  V30 2643 H 238.349 1.23469 -3.71837 0
M  V30 2644 H 240.046 0.893083 -3.90928 0
M  V30 2645 H 236.636 -0.497775 -4.257 0
M  V30 2646 H 240.82 -1.32571 -4.78266 0
M  V30 2647 H 236.076 -2.48971 -5.58411 0
M  V30 2648 H 240.25 -3.31671 -6.12346 0
M  V30 2649 H 237.877 -3.90457 -6.52264 0
M  V30 2650 N 239.452 1.56882 -0.150215 0
M  V30 2651 C 240.698 1.96518 0.500834 0
M  V30 2652 C 241.031 1.03527 1.64304 0
M  V30 2653 O 240.306 0.0782751 1.94342 0
M  V30 2654 C 240.589 3.45822 1.00395 0
M  V30 2655 C 240.442 4.49591 -0.136983 0
M  V30 2656 C 241.761 3.97704 1.88467 0
M  V30 2657 H 238.88 0.714535 0.18058 0
M  V30 2658 H 241.522 1.88577 -0.232091 0
M  V30 2659 H 239.672 3.5272 1.62851 0
M  V30 2660 H 241.344 4.5477 -0.77343 0
M  V30 2661 H 239.587 4.26441 -0.795652 0
M  V30 2662 H 240.258 5.51402 0.256815 0
M  V30 2663 H 242.734 3.93304 1.35834 0
M  V30 2664 H 241.61 5.0263 2.20578 0
M  V30 2665 H 241.871 3.40252 2.82279 0
M  V30 2666 N 240.93 -0.123565 1.57115 0
M  V30 2667 C 241.893 -1.13583 1.99076 0
M  V30 2668 C 242.893 -1.34564 0.880296 0
M  V30 2669 O 244.083 -1.31158 1.14644 0
M  V30 2670 C 241.215 -2.49128 2.32698 0
M  V30 2671 H 242.408 -0.775287 2.89706 0
M  V30 2672 H 239.961 -0.36771 1.51913 0
M  V30 2673 H 240.696 -2.90111 1.44934 0
M  V30 2674 H 240.481 -2.35255 3.13684 0
M  V30 2675 H 241.971 -3.2199 2.65918 0
M  V30 2676 N 242.408 -1.52605 -0.393616 0
M  V30 2677 C 243.657 -1.66649 -1.13627 0
M  V30 2678 C 243.97 -0.410364 -1.91247 0
M  V30 2679 O 245.176 -0.430854 -2.68059 0
M  V30 2680 C 243.632 -2.9449 -2.06891 0
M  V30 2681 C 243.24 -4.27266 -1.34714 0
M  V30 2682 C 244.984 -3.17899 -2.81319 0
M  V30 2683 C 242.891 -5.46217 -2.26717 0
M  V30 2684 H 241.821 -0.62084 -0.427871 0
M  V30 2685 H 244.472 -1.791 -0.399428 0
M  V30 2686 H 242.854 -2.75774 -2.84191 0
M  V30 2687 H 244.028 -4.56518 -0.626714 0
M  V30 2688 H 242.343 -4.10081 -0.722643 0
M  V30 2689 H 244.94 -4.03949 -3.50328 0
M  V30 2690 H 245.283 -2.32777 -3.45139 0
M  V30 2691 H 245.816 -3.37159 -2.11113 0
M  V30 2692 H 242.555 -6.33733 -1.67521 0
M  V30 2693 H 242.075 -5.21283 -2.96689 0
M  V30 2694 H 243.754 -5.7991 -2.86903 0
M  V30 2695 N 243.887 0.651787 -1.4349 0
M  V30 2696 C 244.817 1.77621 -1.51569 0
M  V30 2697 C 245.798 1.66022 -0.370253 0
M  V30 2698 O 246.983 1.85095 -0.587658 0
M  V30 2699 C 244.113 3.16056 -1.43966 0
M  V30 2700 C 243.067 3.4242 -2.56774 0
M  V30 2701 C 242.393 4.8067 -2.34223 0
M  V30 2702 C 243.693 3.37023 -3.99015 0
M  V30 2703 H 245.387 1.71117 -2.45681 0
M  V30 2704 H 242.933 0.821825 -1.18246 0
M  V30 2705 H 244.886 3.94472 -1.48221 0
M  V30 2706 H 243.61 3.23293 -0.463586 0
M  V30 2707 H 242.269 2.66375 -2.51873 0
M  V30 2708 H 241.917 4.84585 -1.34856 0
M  V30 2709 H 241.617 4.9927 -3.09844 0
M  V30 2710 H 243.141 5.61342 -2.40265 0
M  V30 2711 H 244.555 4.05374 -4.05395 0
M  V30 2712 H 242.952 3.67159 -4.74673 0
M  V30 2713 H 244.022 2.3518 -4.2405 0
M  V30 2714 N 245.365 1.30045 0.890287 0
M  V30 2715 C 246.776 1.16738 1.45702 0
M  V30 2716 C 247.127 -0.233939 1.948 0
M  V30 2717 O 246.252 -1.13021 1.84541 0
M  V30 2718 C 246.847 2.11313 2.64825 0
M  V30 2719 C 245.406 2.02001 3.17604 0
M  V30 2720 C 244.553 2.01699 1.90296 0
M  V30 2721 H 247.504 1.42392 0.700726 0
M  V30 2722 H 247.525 1.69086 3.40867 0
M  V30 2723 H 247.037 3.13294 2.2906 0
M  V30 2724 H 245.138 1.03142 3.5804 0
M  V30 2725 H 245.251 2.90128 3.81264 0
M  V30 2726 H 243.615 1.46427 2.08402 0
M  V30 2727 H 244.398 3.05402 1.56795 0
M  V30 2728 N 246.843 -1.10192 1.12674 0
M  V30 2729 C 248.071 -1.85983 0.906527 0
M  V30 2730 C 248.486 -1.80783 -0.544333 0
M  V30 2731 O 247.843 -1.19834 -1.37645 0
M  V30 2732 C 247.894 -3.34281 1.37618 0
M  V30 2733 O 247.615 -3.39401 2.77017 0
M  V30 2734 C 249.116 -4.26938 1.19325 0
M  V30 2735 H 246.336 -0.587716 0.323775 0
M  V30 2736 H 248.88 -1.39284 1.49734 0
M  V30 2737 H 247.035 -3.78436 0.828539 0
M  V30 2738 H 247.449 -4.31838 2.97684 0
M  V30 2739 H 248.923 -5.29181 1.57071 0
M  V30 2740 H 249.4 -4.38995 0.134097 0
M  V30 2741 H 250.006 -3.8859 1.72852 0
M  V30 2742 N 248.321 -0.919034 -1.28029 0
M  V30 2743 C 249.549 -0.570971 -1.98866 0
M  V30 2744 C 249.964 0.848996 -1.68634 0
M  V30 2745 O 249.321 1.56307 -0.942036 0
M  V30 2746 C 249.372 -0.776876 -3.53054 0
M  V30 2747 O 249.093 -2.14097 -3.82222 0
M  V30 2748 C 250.594 -0.436356 -4.41147 0
M  V30 2749 H 247.814 -0.217175 -0.634883 0
M  V30 2750 H 250.358 -1.23368 -1.63097 0
M  V30 2751 H 248.513 -0.161085 -3.87065 0
M  V30 2752 H 248.927 -2.18455 -4.76841 0
M  V30 2753 H 250.401 -0.63117 -5.4838 0
M  V30 2754 H 250.878 0.627686 -4.34692 0
M  V30 2755 H 251.484 -1.02991 -4.12641 0
M  V30 2756 N 249.799 1.42003 -0.683588 0
M  V30 2757 C 251.046 2.01413 -0.209514 0
M  V30 2758 C 251.374 1.54088 1.1869 0
M  V30 2759 O 250.629 0.737591 1.81268 0
M  V30 2760 C 250.928 3.56827 -0.202357 0
M  V30 2761 C 250.594 4.23617 -1.54464 0
M  V30 2762 C 249.256 4.41577 -1.91215 0
M  V30 2763 C 251.608 4.61178 -2.42826 0
M  V30 2764 C 248.936 4.9437 -3.15935 0
M  V30 2765 C 251.288 5.15355 -3.66867 0
M  V30 2766 C 249.952 5.31528 -4.03776 0
M  V30 2767 H 249.222 0.737023 -0.0766668 0
M  V30 2768 H 251.869 1.70067 -0.880312 0
M  V30 2769 H 250.174 3.87892 0.551969 0
M  V30 2770 H 251.871 4.00588 0.181793 0
M  V30 2771 H 248.461 4.10004 -1.24877 0
M  V30 2772 H 252.645 4.46968 -2.15717 0
M  V30 2773 H 247.901 5.05076 -3.44541 0
M  V30 2774 H 252.075 5.43402 -4.35531 0
M  V30 2775 H 249.702 5.72199 -5.00492 0
M  V30 2776 N 251.277 0.427512 1.51691 0
M  V30 2777 C 252.525 -0.141948 2.01601 0
M  V30 2778 C 252.846 -1.44067 1.31414 0
M  V30 2779 O 252.116 -1.90763 0.445658 0
M  V30 2780 H 250.696 -0.0554468 0.744939 0
M  V30 2781 H 253.358 0.567968 1.86441 0
M  V30 2782 H 252.454 -0.324913 3.10404 0
M  V30 2783 N 252.755 -1.56801 0.158532 0
M  V30 2784 C 253.98 -2.01295 -0.499516 0
M  V30 2785 C 254.405 -1.03799 -1.56867 0
M  V30 2786 O 253.763 -0.0155162 -1.81293 0
M  V30 2787 C 253.811 -3.44469 -1.06647 0
M  V30 2788 O 252.915 -3.50012 -2.18095 0
M  V30 2789 H 252.256 -0.652884 -0.12099 0
M  V30 2790 H 254.786 -2.02958 0.258661 0
M  V30 2791 H 254.796 -3.8351 -1.39227 0
M  V30 2792 H 253.471 -4.14932 -0.283581 0
M  V30 2793 H 252.048 -3.22822 -1.86656 0
M  V30 2794 N 254.233 0.115231 -1.57178 0
M  V30 2795 C 255.163 1.1423 -2.03651 0
M  V30 2796 C 256.144 1.42967 -0.921655 0
M  V30 2797 O 257.329 1.53343 -1.19162 0
M  V30 2798 C 254.459 2.4675 -2.44401 0
M  V30 2799 C 253.413 2.32467 -3.59365 0
M  V30 2800 C 252.739 3.69984 -3.86026 0
M  V30 2801 C 254.039 1.78203 -4.90959 0
M  V30 2802 H 255.733 0.755749 -2.89705 0
M  V30 2803 H 253.279 0.362093 -1.39373 0
M  V30 2804 H 255.232 3.18854 -2.75517 0
M  V30 2805 H 253.956 2.87302 -1.55322 0
M  V30 2806 H 252.615 1.62811 -3.28463 0
M  V30 2807 H 252.263 4.08028 -2.94147 0
M  V30 2808 H 251.963 3.61279 -4.63412 0
M  V30 2809 H 253.487 4.43587 -4.19599 0
M  V30 2810 H 254.901 2.40128 -5.20587 0
M  V30 2811 H 253.298 1.8031 -5.72371 0
M  V30 2812 H 254.368 0.739876 -4.79222 0
M  V30 2813 N 255.711 1.52812 0.385517 0
M  V30 2814 C 256.988 1.5861 1.14465 0
M  V30 2815 C 257.368 0.381402 2.07626 0
M  V30 2816 O 256.716 -0.629999 2.19643 0
M  V30 2817 C 256.926 2.92664 1.90128 0
M  V30 2818 C 258.274 3.46526 2.45367 0
M  V30 2819 O 259.298 2.94562 2.0028 0
M  V30 2820 O 258.157 4.37323 3.27736 0
M  V30 2821 H 255.251 0.639855 0.523941 0
M  V30 2822 H 257.797 1.65149 0.390389 0
M  V30 2823 H 256.569 3.71788 1.22022 0
M  V30 2824 H 256.192 2.89527 2.72507 0
M  V30 2825 N 257.189 -0.644168 1.43834 0
M  V30 2826 C 258.436 -1.40395 1.4593 0
M  V30 2827 C 258.764 -1.94305 0.0869658 0
M  V30 2828 O 258.019 -1.73288 -0.909378 0
M  V30 2829 C 258.318 -2.59615 2.45631 0
M  V30 2830 C 257.984 -2.2407 3.91284 0
M  V30 2831 C 256.646 -2.14089 4.30952 0
M  V30 2832 C 258.998 -1.95775 4.83034 0
M  V30 2833 C 256.326 -1.73981 5.6031 0
M  V30 2834 C 258.678 -1.57163 6.12766 0
M  V30 2835 C 257.342 -1.45713 6.51402 0
M  V30 2836 H 256.612 -0.513741 0.533995 0
M  V30 2837 H 259.259 -0.731724 1.76969 0
M  V30 2838 H 257.564 -3.32011 2.08028 0
M  V30 2839 H 259.261 -3.17834 2.44504 0
M  V30 2840 H 255.851 -2.32753 3.59895 0
M  V30 2841 H 260.035 -2.02403 4.53152 0
M  V30 2842 H 255.291 -1.63709 5.89075 0
M  V30 2843 H 259.465 -1.34303 6.83327 0
M  V30 2844 H 257.092 -1.14406 7.51542 0
M  V30 2845 N 258.668 -1.30515 -0.883378 0
M  V30 2846 C 259.916 -1.19194 -1.63209 0
M  V30 2847 C 260.237 0.253205 -1.93349 0
M  V30 2848 O 259.507 1.17025 -1.57105 0
M  V30 2849 H 258.087 -0.438148 -0.605009 0
M  V30 2850 H 260.749 -1.63663 -1.05832 0
M  V30 2851 H 259.845 -1.75396 -2.58153 0
M  V30 2852 N 260.146 1.09593 -1.13257 0
M  V30 2853 C 261.076 2.18214 -0.830946 0
M  V30 2854 C 262.057 1.68812 0.208966 0
M  V30 2855 O 263.242 1.9408 0.0682666 0
M  V30 2856 C 260.372 3.46051 -0.294296 0
M  V30 2857 C 259.326 4.08778 -1.26826 0
M  V30 2858 C 258.652 5.31419 -0.591449 0
M  V30 2859 C 259.952 4.51476 -2.62615 0
M  V30 2860 H 261.646 2.43703 -1.73923 0
M  V30 2861 H 259.192 1.17128 -0.837675 0
M  V30 2862 H 261.145 4.2134 -0.0709606 0
M  V30 2863 H 259.869 3.20079 0.649366 0
M  V30 2864 H 258.528 3.35505 -1.47756 0
M  V30 2865 H 258.176 5.01727 0.357633 0
M  V30 2866 H 257.876 5.74341 -1.24123 0
M  V30 2867 H 259.4 6.09433 -0.377355 0
M  V30 2868 H 260.814 5.17999 -2.45663 0
M  V30 2869 H 259.211 5.05277 -3.23752 0
M  V30 2870 H 260.281 3.63962 -3.20406 0
M  V30 2871 N 261.624 0.925811 1.2754 0
M  V30 2872 C 263.035 0.610102 1.7645 0
M  V30 2873 C 263.386 -0.874723 1.75622 0
M  V30 2874 O 262.511 -1.68444 1.35851 0
M  V30 2875 C 263.106 1.10073 3.20421 0
M  V30 2876 C 261.665 0.835723 3.67005 0
M  V30 2877 C 260.812 1.26054 2.46993 0
M  V30 2878 H 263.763 1.10579 1.13833 0
M  V30 2879 H 263.784 0.447557 3.77859 0
M  V30 2880 H 263.296 2.18143 3.20991 0
M  V30 2881 H 261.397 -0.231249 3.71882 0
M  V30 2882 H 261.51 1.45193 4.56569 0
M  V30 2883 H 259.874 0.679111 2.45479 0
M  V30 2884 H 260.657 2.34984 2.50275 0
M  V30 2885 N 263.102 -1.41638 0.69111 0
M  V30 2886 C 264.327 -2.06148 0.227583 0
M  V30 2887 C 264.752 -1.51652 -1.11281 0
M  V30 2888 O 264.11 -0.64164 -1.69566 0
M  V30 2889 C 264.158 -3.60095 0.190858 0
M  V30 2890 O 263.262 -4.03845 -0.835664 0
M  V30 2891 H 262.603 -0.654434 0.112306 0
M  V30 2892 H 265.133 -1.81484 0.944714 0
M  V30 2893 H 265.143 -4.07995 0.020207 0
M  V30 2894 H 263.818 -3.99129 1.16915 0
M  V30 2895 H 262.395 -3.67458 -0.63473 0
M  V30 2896 N 264.58 -0.43555 -1.51462 0
M  V30 2897 C 265.991 0.0279871 -1.86679 0
M  V30 2898 C 266.342 1.42104 -1.35281 0
M  V30 2899 O 265.467 2.04667 -0.702878 0
M  V30 2900 C 266.062 0.0575626 -3.38751 0
M  V30 2901 C 264.621 0.465507 -3.7351 0
M  V30 2902 C 263.768 -0.342996 -2.75171 0
M  V30 2903 H 266.719 -0.651473 -1.44712 0
M  V30 2904 H 266.74 0.867421 -3.70481 0
M  V30 2905 H 266.252 -0.956448 -3.7613 0
M  V30 2906 H 264.353 1.48519 -3.41721 0
M  V30 2907 H 264.466 0.191546 -4.78717 0
M  V30 2908 H 262.83 0.198442 -2.53926 0
M  V30 2909 H 263.613 -1.35585 -3.15391 0
M  V30 2910 N 266.058 1.56714 -0.166846 0
M  V30 2911 C 266.988 2.20754 0.760913 0
M  V30 2912 C 267.969 1.16178 1.24244 0
M  V30 2913 O 269.154 1.44592 1.29641 0
M  V30 2914 C 266.284 2.84478 1.99223 0
M  V30 2915 C 265.238 3.95053 1.64672 0
M  V30 2916 C 264.564 4.45805 2.95232 0
M  V30 2917 C 265.864 5.14865 0.878155 0
M  V30 2918 H 267.558 2.98537 0.22713 0
M  V30 2919 H 265.104 1.43596 0.107805 0
M  V30 2920 H 267.057 3.27951 2.64624 0
M  V30 2921 H 265.781 2.04056 2.55007 0
M  V30 2922 H 264.44 3.52228 1.01641 0
M  V30 2923 H 264.088 3.62181 3.49047 0
M  V30 2924 H 263.788 5.204 2.7287 0
M  V30 2925 H 265.312 4.91962 3.6167 0
M  V30 2926 H 266.726 5.55059 1.43466 0
M  V30 2927 H 265.123 5.95348 0.753738 0
M  V30 2928 H 266.193 4.84735 -0.126377 0
M  V30 2929 N 267.536 -0.106894 1.57237 0
M  V30 2930 C 268.761 -0.830287 1.90055 0
M  V30 2931 C 269.186 -1.72064 0.75998 0
M  V30 2932 O 268.544 -1.78982 -0.288991 0
M  V30 2933 C 268.592 -1.6295 3.21683 0
M  V30 2934 O 267.696 -2.73748 3.08441 0
M  V30 2935 H 267.037 -0.228855 0.623315 0
M  V30 2936 H 269.567 -0.085658 2.04421 0
M  V30 2937 H 269.577 -2.01621 3.54701 0
M  V30 2938 H 268.252 -0.975989 4.04286 0
M  V30 2939 H 266.829 -2.38192 2.86913 0
M  V30 2940 N 269.014 -1.53014 -0.377408 0
M  V30 2941 C 270.244 -1.72265 -1.14054 0
M  V30 2942 C 270.652 -0.44601 -1.83868 0
M  V30 2943 O 269.995 0.590095 -1.73964 0
M  V30 2944 C 270.057 -2.82492 -2.22348 0
M  V30 2945 C 269.721 -4.23233 -1.72402 0
M  V30 2946 C 270.718 -5.05992 -1.19448 0
M  V30 2947 C 268.403 -4.696 -1.78273 0
M  V30 2948 C 270.397 -6.33203 -0.730268 0
M  V30 2949 C 268.084 -5.96792 -1.31464 0
M  V30 2950 C 269.082 -6.78424 -0.789297 0
M  V30 2951 O 268.77 -8.0323 -0.328077 0
M  V30 2952 H 268.502 -0.579873 -0.347453 0
M  V30 2953 H 271.056 -2.00502 -0.445882 0
M  V30 2954 H 269.286 -2.49702 -2.95272 0
M  V30 2955 H 270.975 -2.90034 -2.83963 0
M  V30 2956 H 271.741 -4.71349 -1.14259 0
M  V30 2957 H 267.62 -4.06142 -2.18106 0
M  V30 2958 H 271.164 -6.96868 -0.319542 0
M  V30 2959 H 267.061 -6.30937 -1.36342 0
M  V30 2960 H 267.829 -8.1727 -0.448493 0
M  V30 2961 N 270.492 0.636531 -1.44174 0
M  V30 2962 C 271.738 1.39826 -1.4689 0
M  V30 2963 C 272.071 1.93947 -0.0990585 0
M  V30 2964 O 271.346 1.73325 0.882544 0
M  V30 2965 C 271.629 2.56751 -2.5249 0
M  V30 2966 C 271.482 2.08014 -3.98811 0
M  V30 2967 C 272.801 3.58946 -2.54649 0
M  V30 2968 H 269.92 0.507075 -0.53483 0
M  V30 2969 H 272.562 0.720188 -1.75822 0
M  V30 2970 H 270.712 3.14597 -2.2795 0
M  V30 2971 H 272.384 1.5504 -4.34466 0
M  V30 2972 H 270.627 1.39242 -4.10846 0
M  V30 2973 H 271.298 2.92169 -4.68339 0
M  V30 2974 H 273.774 3.1089 -2.76563 0
M  V30 2975 H 272.65 4.38286 -3.3045 0
M  V30 2976 H 272.911 4.12655 -1.58646 0
M  V30 2977 N 271.97 1.30982 0.876444 0
M  V30 2978 C 273.381 1.18277 1.44456 0
M  V30 2979 C 273.732 -0.213265 1.95037 0
M  V30 2980 O 272.857 -1.11057 1.85729 0
M  V30 2981 C 273.452 2.1411 2.62569 0
M  V30 2982 C 272.011 2.05358 3.15444 0
M  V30 2983 C 271.158 2.03706 1.88146 0
M  V30 2984 H 274.109 1.43127 0.685584 0
M  V30 2985 H 274.13 1.72692 3.39054 0
M  V30 2986 H 273.642 3.15706 2.25724 0
M  V30 2987 H 271.743 1.06934 3.56926 0
M  V30 2988 H 271.856 2.94156 3.78166 0
M  V30 2989 H 270.22 1.48629 2.06837 0
M  V30 2990 H 271.003 3.07047 1.53547 0
M  V30 2991 N 273.449 -1.08991 1.13837 0
M  V30 2992 C 274.695 -1.81526 0.90422 0
M  V30 2993 C 275.028 -1.85706 -0.568066 0
M  V30 2994 O 274.303 -1.32855 -1.42056 0
M  V30 2995 C 274.586 -3.27447 1.49835 0
M  V30 2996 C 274.439 -3.31512 3.04006 0
M  V30 2997 C 275.758 -4.24256 1.17025 0
M  V30 2998 H 272.877 -0.659029 0.329923 0
M  V30 2999 H 275.519 -1.27644 1.40737 0
M  V30 3000 H 273.669 -3.73462 1.07044 0
M  V30 3001 H 275.341 -2.93867 3.55584 0
M  V30 3002 H 273.584 -2.70963 3.38765 0
M  V30 3003 H 274.255 -4.34329 3.40679 0
M  V30 3004 H 276.731 -3.86549 1.54009 0
M  V30 3005 H 275.607 -5.24684 1.61237 0
M  V30 3006 H 275.868 -4.42019 0.0846274 0
M  V30 3007 N 274.927 -0.932562 -1.27047 0
M  V30 3008 C 276.174 -0.575559 -1.94148 0
M  V30 3009 C 276.502 0.883984 -1.73251 0
M  V30 3010 O 275.757 1.64655 -1.0577 0
M  V30 3011 C 276.056 -0.853713 -3.47054 0
M  V30 3012 C 275.722 -2.29577 -3.88079 0
M  V30 3013 C 274.384 -2.68999 -3.9899 0
M  V30 3014 C 276.736 -3.23331 -4.08787 0
M  V30 3015 C 274.064 -4.01289 -4.28 0
M  V30 3016 C 276.416 -4.55207 -4.39282 0
M  V30 3017 C 275.08 -4.94457 -4.48407 0
M  V30 3018 H 274.35 -0.210612 -0.710439 0
M  V30 3019 H 276.997 -1.17744 -1.51025 0
M  V30 3020 H 275.302 -0.169204 -3.91434 0
M  V30 3021 H 276.999 -0.55639 -3.97121 0
M  V30 3022 H 273.589 -1.97994 -3.80127 0
M  V30 3023 H 277.773 -2.94074 -3.99793 0
M  V30 3024 H 273.029 -4.31374 -4.33275 0
M  V30 3025 H 277.203 -5.27852 -4.54252 0
M  V30 3026 H 274.83 -5.96994 -4.7064 0
M  V30 3027 N 276.405 1.4127 -0.698611 0
M  V30 3028 C 277.816 1.84187 -0.305289 0
M  V30 3029 C 278.167 1.58449 1.15708 0
M  V30 3030 O 277.292 1.05651 1.88856 0
M  V30 3031 C 277.887 3.3435 -0.547314 0
M  V30 3032 C 276.446 3.75826 -0.207878 0
M  V30 3033 C 275.593 2.64647 -0.828099 0
M  V30 3034 H 278.544 1.30778 -0.89904 0
M  V30 3035 H 278.565 3.8001 0.192998 0
M  V30 3036 H 278.077 3.53051 -1.61172 0
M  V30 3037 H 276.178 3.62725 0.852143 0
M  V30 3038 H 276.291 4.74462 -0.665021 0
M  V30 3039 H 274.655 2.53395 -0.257458 0
M  V30 3040 H 275.438 2.86165 -1.89643 0
M  V30 3041 N 277.883 0.443576 1.51229 0
M  V30 3042 C 279.108 -0.121648 2.07043 0
M  V30 3043 C 279.533 -1.35156 1.30823 0
M  V30 3044 O 278.891 -1.7793 0.347934 0
M  V30 3045 C 278.939 -0.41624 3.5819 0
M  V30 3046 O 278.043 -1.50163 3.8409 0
M  V30 3047 H 277.384 0.000871367 0.663999 0
M  V30 3048 H 279.914 0.626706 1.94765 0
M  V30 3049 H 279.924 -0.664867 4.02546 0
M  V30 3050 H 278.599 0.482653 4.1309 0
M  V30 3051 H 277.176 -1.24248 3.51592 0
M  V30 3052 N 279.361 -1.56624 0.175154 0
M  V30 3053 C 280.291 -2.21155 -0.749195 0
M  V30 3054 C 281.272 -1.16836 -1.23626 0
M  V30 3055 O 282.457 -1.45277 -1.28873 0
M  V30 3056 C 279.587 -2.8553 -1.97711 0
M  V30 3057 C 278.541 -3.95921 -1.62575 0
M  V30 3058 C 277.867 -4.47365 -2.92864 0
M  V30 3059 C 279.167 -5.15323 -0.850838 0
M  V30 3060 H 280.861 -2.98653 -0.211295 0
M  V30 3061 H 278.407 -1.43651 -0.100188 0
M  V30 3062 H 280.36 -3.2935 -2.62881 0
M  V30 3063 H 279.084 -2.05406 -2.53921 0
M  V30 3064 H 277.743 -3.52762 -0.997719 0
M  V30 3065 H 277.391 -3.64027 -3.47122 0
M  V30 3066 H 277.091 -5.21839 -2.70106 0
M  V30 3067 H 278.615 -4.93873 -3.59056 0
M  V30 3068 H 280.029 -5.55812 -1.40521 0
M  V30 3069 H 278.426 -5.95739 -0.722154 0
M  V30 3070 H 279.496 -4.84661 0.152082 0
M  V30 3071 N 280.839 0.0985539 -1.57292 0
M  V30 3072 C 281.769 1.12064 -2.04851 0
M  V30 3073 C 282.75 1.41981 -0.936767 0
M  V30 3074 O 283.935 1.52071 -1.20781 0
M  V30 3075 C 281.065 2.44144 -2.47004 0
M  V30 3076 C 280.019 2.28643 -3.6181 0
M  V30 3077 C 279.345 3.65869 -3.89929 0
M  V30 3078 C 280.645 1.72986 -4.92822 0
M  V30 3079 H 282.339 0.724979 -2.9049 0
M  V30 3080 H 279.885 0.34729 -1.39749 0
M  V30 3081 H 281.838 3.15914 -2.78884 0
M  V30 3082 H 280.562 2.85639 -1.5836 0
M  V30 3083 H 279.221 1.59318 -3.30172 0
M  V30 3084 H 278.869 4.04885 -2.98458 0
M  V30 3085 H 278.569 3.56344 -4.67218 0
M  V30 3086 H 280.093 4.39112 -4.2428 0
M  V30 3087 H 281.507 2.34593 -5.23105 0
M  V30 3088 H 279.904 1.74229 -5.74251 0
M  V30 3089 H 280.974 0.689007 -4.7998 0
M  V30 3090 N 282.317 1.53212 0.369288 0
M  V30 3091 C 283.545 1.73119 1.13303 0
M  V30 3092 C 283.96 0.458455 1.83149 0
M  V30 3093 O 283.317 -0.568403 1.73423 0
M  V30 3094 C 283.368 2.89413 2.16616 0
M  V30 3095 O 283.089 4.11761 1.49614 0
M  V30 3096 C 284.59 3.21161 3.05566 0
M  V30 3097 H 281.81 0.579107 0.338934 0
M  V30 3098 H 284.354 1.99942 0.429338 0
M  V30 3099 H 282.509 2.64994 2.82589 0
M  V30 3100 H 282.923 4.76858 2.18419 0
M  V30 3101 H 284.397 4.05949 3.74045 0
M  V30 3102 H 284.874 2.36369 3.70171 0
M  V30 3103 H 285.48 3.47492 2.45213 0
M  V30 3104 N 283.795 -0.628877 1.44509 0
M  V30 3105 C 285.072 -1.38733 1.37886 0
M  V30 3106 C 285.452 -2.11065 0.0387008 0
M  V30 3107 O 284.8 -2.06476 -0.97878 0
M  V30 3108 C 285.01 -2.35188 2.57852 0
M  V30 3109 C 286.358 -2.9845 3.02014 0
M  V30 3110 O 287.382 -2.45513 2.58073 0
M  V30 3111 O 286.241 -3.94487 3.78209 0
M  V30 3112 H 283.335 -0.621015 0.54614 0
M  V30 3113 H 285.881 -0.653744 1.56602 0
M  V30 3114 H 284.653 -1.80855 3.46998 0
M  V30 3115 H 284.276 -3.1596 2.4136 0
M  V30 3116 N 285.273 -1.31445 -0.869486 0
M  V30 3117 C 286.223 -1.15731 -1.96444 0
M  V30 3118 C 287.207 -0.0681855 -1.60755 0
M  V30 3119 O 288.399 -0.293154 -1.74555 0
M  V30 3120 C 285.528 -0.867255 -3.32165 0
M  V30 3121 C 284.614 -1.99738 -3.74119 0
M  V30 3122 N 285.005 -3.24447 -3.88031 0
M  V30 3123 C 283.303 -1.89723 -4.03635 0
M  V30 3124 C 284.004 -3.98374 -4.23879 0
M  V30 3125 N 282.98 -3.26547 -4.3459 0
M  V30 3126 H 286.782 -2.10296 -2.05312 0
M  V30 3127 H 284.296 -1.23009 -1.06031 0
M  V30 3128 H 286.293 -0.735668 -4.10358 0
M  V30 3129 H 284.953 0.0701614 -3.24624 0
M  V30 3130 H 285.964 -3.59557 -3.72746 0
M  V30 3131 H 282.641 -1.03449 -4.04481 0
M  V30 3132 H 284.031 -5.05844 -4.42235 0
M  V30 3133 N 286.751 1.08385 -1.14413 0
M  V30 3134 C 287.684 2.14642 -0.774871 0
M  V30 3135 C 288.662 1.60761 0.243876 0
M  V30 3136 O 289.846 1.88031 0.132883 0
M  V30 3137 C 286.973 3.38366 -0.150491 0
M  V30 3138 C 286.019 4.10997 -1.13945 0
M  V30 3139 S 286.852 4.63797 -2.67679 0
M  V30 3140 C 288.008 5.90808 -2.06631 0
M  V30 3141 H 288.241 2.45633 -1.67487 0
M  V30 3142 H 285.774 1.20498 -0.96538 0
M  V30 3143 H 287.732 4.09996 0.203334 0
M  V30 3144 H 286.393 3.05572 0.72694 0
M  V30 3145 H 285.586 4.99783 -0.65059 0
M  V30 3146 H 285.188 3.4528 -1.43727 0
M  V30 3147 H 287.48 6.62411 -1.4219 0
M  V30 3148 H 288.423 6.4439 -2.93542 0
M  V30 3149 H 288.831 5.4383 -1.51357 0
M  V30 3150 N 288.23 0.939286 1.26551 0
M  V30 3151 C 289.507 0.5038 1.89001 0
M  V30 3152 C 289.887 -1.01854 1.84903 0
M  V30 3153 O 289.235 -1.87773 1.30206 0
M  V30 3154 C 289.445 1.063 3.32417 0
M  V30 3155 C 290.793 1.13051 4.09273 0
M  V30 3156 O 291.817 1.01345 3.41479 0
M  V30 3157 O 290.676 1.31233 5.30509 0
M  V30 3158 H 287.77 0.163897 0.810597 0
M  V30 3159 H 290.316 1.03173 1.34735 0
M  V30 3160 H 289.088 2.10665 3.29752 0
M  V30 3161 H 288.711 0.517408 3.94219 0
M  V30 3162 N 289.708 -1.40897 0.706093 0
M  V30 3163 C 290.955 -2.01054 0.241531 0
M  V30 3164 C 291.283 -1.55956 -1.16223 0
M  V30 3165 O 290.538 -0.766336 -1.80072 0
M  V30 3166 C 290.837 -3.5646 0.259099 0
M  V30 3167 C 290.503 -4.21106 1.61184 0
M  V30 3168 C 289.165 -4.38479 1.98216 0
M  V30 3169 C 291.517 -4.57256 2.50132 0
M  V30 3170 C 288.845 -4.89282 3.2376 0
M  V30 3171 C 291.197 -5.09454 3.7502 0
M  V30 3172 C 289.861 -5.25037 4.12181 0
M  V30 3173 H 289.131 -0.73571 0.0883825 0
M  V30 3174 H 291.778 -1.68645 0.907257 0
M  V30 3175 H 290.083 -3.88721 -0.490189 0
M  V30 3176 H 291.78 -4.00826 -0.11804 0
M  V30 3177 H 288.37 -4.07966 1.31384 0
M  V30 3178 H 292.554 -4.43479 2.228 0
M  V30 3179 H 287.81 -4.99531 3.52532 0
M  V30 3180 H 291.984 -5.36404 4.44121 0
M  V30 3181 H 289.611 -5.64164 5.09532 0
M  V30 3182 N 291.186 -0.45159 -1.50991 0
M  V30 3183 C 292.432 0.102439 -2.03142 0
M  V30 3184 C 292.787 1.39138 -1.32884 0
M  V30 3185 O 292.08 1.86493 -0.439438 0
M  V30 3186 C 292.274 0.361728 -3.55565 0
M  V30 3187 C 292.103 -0.900535 -4.40591 0
M  V30 3188 C 290.873 -1.43821 -4.844 0
M  V30 3189 C 293.071 -1.79063 -4.82121 0
M  V30 3190 N 291.053 -2.65153 -5.53685 0
M  V30 3191 C 292.424 -2.84991 -5.50618 0
M  V30 3192 C 294.479 -1.80334 -4.64095 0
M  V30 3193 C 293.182 -3.92155 -6.02998 0
M  V30 3194 C 295.208 -2.86442 -5.17402 0
M  V30 3195 C 294.57 -3.9109 -5.85857 0
M  V30 3196 H 290.669 -0.00204537 -0.781997 0
M  V30 3197 H 293.253 -0.615446 -1.84717 0
M  V30 3198 H 291.424 1.04865 -3.73976 0
M  V30 3199 H 293.156 0.908372 -3.94374 0
M  V30 3200 H 289.911 -0.990117 -4.63135 0
M  V30 3201 H 290.335 -3.26717 -5.92946 0
M  V30 3202 H 294.977 -1.00753 -4.1062 0
M  V30 3203 H 292.695 -4.72565 -6.55521 0
M  V30 3204 H 296.281 -2.88386 -5.05297 0
M  V30 3205 H 295.161 -4.71845 -6.26364 0
M  V30 3206 N 292.664 1.56529 -0.183458 0
M  V30 3207 C 293.912 1.96855 0.457452 0
M  V30 3208 C 294.233 1.07104 1.62953 0
M  V30 3209 O 293.503 0.139887 1.954 0
M  V30 3210 H 292.083 0.72693 0.171992 0
M  V30 3211 H 294.745 1.93056 -0.267476 0
M  V30 3212 H 293.841 3.01423 0.809368 0
M  V30 3213 N 294.142 -0.090211 1.57342 0
M  V30 3214 C 295.558 -0.444547 1.53284 0
M  V30 3215 C 295.758 -1.80238 0.900914 0
M  V30 3216 O 294.814 -2.4759 0.495513 0
M  V30 3217 C 296.127 -0.402543 2.97993 0
M  V30 3218 C 297.675 -0.48405 3.09234 0
M  V30 3219 C 298.15 -0.472144 4.5556 0
M  V30 3220 N 299.641 -0.532757 4.60126 0
M  V30 3221 C 300.376 -0.545462 5.708 0
M  V30 3222 N 299.872 -0.514082 6.9089 0
M  V30 3223 N 301.665 -0.59064 5.58988 0
M  V30 3224 H 293.816 0.799121 1.96794 0
M  V30 3225 H 296.079 0.297965 0.899956 0
M  V30 3226 H 295.785 0.528106 3.47712 0
M  V30 3227 H 295.659 -1.21969 3.56936 0
M  V30 3228 H 298.046 -1.40512 2.595 0
M  V30 3229 H 298.127 0.361328 2.53235 0
M  V30 3230 H 297.771 0.445 5.05947 0
M  V30 3231 H 297.701 -1.3348 5.09402 0
M  V30 3232 H 300.192 -0.562006 3.73698 0
M  V30 3233 H 300.505 -0.527195 7.71 0
M  V30 3234 H 298.85 -0.481054 6.93333 0
M  V30 3235 H 302.041 -0.61272 4.64073 0
M  V30 3236 H 302.214 -0.597073 6.45243 0
M  V30 3237 N 295.62 -1.53406 -0.361157 0
M  V30 3238 C 296.866 -1.70054 -1.10496 0
M  V30 3239 C 297.199 -0.453278 -1.88836 0
M  V30 3240 O 296.474 0.5495 -1.86576 0
M  V30 3241 C 296.757 -2.95317 -2.06058 0
M  V30 3242 C 296.61 -4.3021 -1.31298 0
M  V30 3243 C 297.929 -3.16193 -3.06121 0
M  V30 3244 H 295.048 -0.618799 -0.400321 0
M  V30 3245 H 297.69 -1.86052 -0.385318 0
M  V30 3246 H 295.84 -2.81809 -2.67425 0
M  V30 3247 H 297.512 -4.55538 -0.726807 0
M  V30 3248 H 295.755 -4.29421 -0.614853 0
M  V30 3249 H 296.426 -5.14 -2.01265 0
M  V30 3250 H 298.902 -3.28916 -2.5486 0
M  V30 3251 H 297.778 -4.05266 -3.70204 0
M  V30 3252 H 298.039 -2.31676 -3.76535 0
M  V30 3253 N 297.098 0.621204 -1.44841 0
M  V30 3254 C 298.045 1.73267 -1.5247 0
M  V30 3255 C 299.015 1.6189 -0.371611 0
M  V30 3256 O 300.2 1.81668 -0.58321 0
M  V30 3257 C 297.34 3.11545 -1.48438 0
M  V30 3258 C 296.453 3.33827 -2.74196 0
M  V30 3259 C 295.588 4.62133 -2.61929 0
M  V30 3260 C 294.627 4.77627 -3.82804 0
M  V30 3261 N 293.764 5.97219 -3.69153 0
M  V30 3262 H 298.604 1.66082 -2.47428 0
M  V30 3263 H 296.141 0.810026 -1.22788 0
M  V30 3264 H 298.099 3.91528 -1.4409 0
M  V30 3265 H 296.729 3.1772 -0.570402 0
M  V30 3266 H 295.781 2.47715 -2.88689 0
M  V30 3267 H 297.093 3.41153 -3.6389 0
M  V30 3268 H 296.247 5.50291 -2.5547 0
M  V30 3269 H 294.986 4.57182 -1.69811 0
M  V30 3270 H 293.991 3.87896 -3.89637 0
M  V30 3271 H 295.216 4.84385 -4.75971 0
M  V30 3272 H 293.162 5.93339 -2.79794 0
M  V30 3273 H 293.079 6.05644 -4.52472 0
M  V30 3274 H 294.347 6.87912 -3.66603 0
M  V30 3275 N 298.576 1.31904 0.862503 0
M  V30 3276 C 299.524 1.20125 1.9918 0
M  V30 3277 C 300.518 0.107824 1.69056 0
M  V30 3278 O 301.724 0.270223 1.7796 0
M  V30 3279 H 298.099 0.372148 0.65346 0
M  V30 3280 H 300.07 2.15652 2.06244 0
M  V30 3281 C 298.819 0.933099 3.34946 0
M  V30 3282 H 298.142 1.76664 3.5865 0
M  V30 3283 H 299.582 0.890892 4.14535 0
M  V30 3284 C 298.041 -0.364172 3.34926 0
M  V30 3285 O 298.571 -1.37858 3.77304 0
M  V30 3286 N 296.777 -0.383362 2.8806 0
M  V30 3287 H 296.324 0.442651 2.53768 0
M  V30 3288 H 296.282 -1.25123 2.8843 0
M  V30 3289 N 300.054 -1.07777 1.14986 0
M  V30 3290 C 301.301 -1.8029 0.922056 0
M  V30 3291 C 301.629 -1.86531 -0.55105 0
M  V30 3292 O 300.884 -1.34189 -1.42449 0
M  V30 3293 C 301.183 -3.25495 1.47608 0
M  V30 3294 C 300.849 -3.39361 2.96893 0
M  V30 3295 C 299.511 -3.42852 3.37647 0
M  V30 3296 C 301.863 -3.42512 3.92854 0
M  V30 3297 C 299.191 -3.47094 4.73015 0
M  V30 3298 C 301.543 -3.4829 5.28088 0
M  V30 3299 C 300.207 -3.50058 5.68345 0
M  V30 3300 H 299.477 -0.659727 0.337404 0
M  V30 3301 H 302.124 -1.26854 1.43459 0
M  V30 3302 H 300.429 -3.81683 0.88463 0
M  V30 3303 H 302.126 -3.80168 1.27568 0
M  V30 3304 H 298.716 -3.37339 2.64387 0
M  V30 3305 H 302.9 -3.3904 3.62444 0
M  V30 3306 H 298.156 -3.46758 5.03556 0
M  V30 3307 H 302.33 -3.49675 6.02246 0
M  V30 3308 H 299.957 -3.53097 6.73221 0
M  V30 3309 N 301.532 -0.945985 -1.26051 0
M  V30 3310 C 302.462 -0.477172 -2.28572 0
M  V30 3311 C 303.443 0.472032 -1.63419 0
M  V30 3312 O 304.628 0.372853 -1.90587 0
M  V30 3313 C 301.758 0.253975 -3.4637 0
M  V30 3314 C 300.712 -0.609135 -4.23643 0
M  V30 3315 C 300.038 0.252252 -5.34105 0
M  V30 3316 C 301.338 -1.8829 -4.8718 0
M  V30 3317 H 303.032 -1.33402 -2.68038 0
M  V30 3318 H 300.578 -0.642904 -1.28852 0
M  V30 3319 H 302.531 0.593016 -4.17207 0
M  V30 3320 H 301.255 1.145 -3.05871 0
M  V30 3321 H 299.914 -0.931138 -3.54578 0
M  V30 3322 H 299.562 1.14278 -4.89846 0
M  V30 3323 H 299.262 -0.32188 -5.86718 0
M  V30 3324 H 300.786 0.586454 -6.07777 0
M  V30 3325 H 302.2 -1.61081 -5.50205 0
M  V30 3326 H 300.597 -2.40199 -5.49931 0
M  V30 3327 H 301.667 -2.59134 -4.09851 0
M  V30 3328 N 303.011 1.40521 -0.713556 0
M  V30 3329 C 303.944 2.28198 -0.00881422 0
M  V30 3330 C 304.922 1.43227 0.769735 0
M  V30 3331 O 306.106 1.72641 0.756799 0
M  V30 3332 C 303.233 3.23758 0.994899 0
M  V30 3333 C 302.279 4.25391 0.3074 0
M  V30 3334 S 303.112 5.26765 -0.963247 0
M  V30 3335 C 304.268 6.25888 0.0384143 0
M  V30 3336 H 304.501 2.87622 -0.752407 0
M  V30 3337 H 302.034 1.45925 -0.504502 0
M  V30 3338 H 303.992 3.79341 1.56879 0
M  V30 3339 H 302.653 2.63396 1.71118 0
M  V30 3340 H 301.846 4.92596 1.0661 0
M  V30 3341 H 301.448 3.73497 -0.193879 0
M  V30 3342 H 303.74 6.71683 0.885912 0
M  V30 3343 H 304.683 7.05552 -0.60019 0
M  V30 3344 H 305.091 5.63072 0.401233 0
M  V30 3345 N 304.489 0.459591 1.5075 0
M  V30 3346 C 305.736 -0.0993495 2.02256 0
M  V30 3347 C 306.064 -1.40751 1.34237 0
M  V30 3348 O 305.319 -1.90379 0.453228 0
M  V30 3349 C 305.618 -0.342866 3.55752 0
M  V30 3350 C 305.284 0.88218 4.42186 0
M  V30 3351 C 303.946 1.21808 4.65528 0
M  V30 3352 C 306.298 1.69837 4.92752 0
M  V30 3353 C 303.626 2.37045 5.36681 0
M  V30 3354 C 305.978 2.84192 5.65171 0
M  V30 3355 C 304.642 3.1821 5.8677 0
M  V30 3356 H 303.912 -0.0363545 0.740108 0
M  V30 3357 H 306.559 0.611329 1.8148 0
M  V30 3358 H 304.864 -1.13567 3.7498 0
M  V30 3359 H 306.561 -0.789121 3.93159 0
M  V30 3360 H 303.151 0.610467 4.2423 0
M  V30 3361 H 307.335 1.45205 4.74583 0
M  V30 3362 H 302.591 2.63689 5.51614 0
M  V30 3363 H 306.765 3.4779 6.03337 0
M  V30 3364 H 304.392 4.07613 6.41682 0
M  V30 3365 N 305.967 -1.56429 0.191757 0
M  V30 3366 C 307.214 -1.97485 -0.447891 0
M  V30 3367 C 307.542 -1.07852 -1.61859 0
M  V30 3368 O 306.797 -0.116903 -1.95351 0
M  V30 3369 C 307.096 -3.44449 -0.953384 0
M  V30 3370 C 306.762 -4.50781 0.103586 0
M  V30 3371 C 305.424 -4.79584 0.394023 0
M  V30 3372 C 307.776 -5.1471 0.819946 0
M  V30 3373 C 305.104 -5.69607 1.40585 0
M  V30 3374 C 307.456 -6.05827 1.8209 0
M  V30 3375 C 306.12 -6.32987 2.11857 0
M  V30 3376 H 305.39 -0.722648 -0.163895 0
M  V30 3377 H 308.037 -1.89322 0.28802 0
M  V30 3378 H 306.342 -3.49666 -1.76751 0
M  V30 3379 H 308.039 -3.73569 -1.45765 0
M  V30 3380 H 304.629 -4.28394 -0.132951 0
M  V30 3381 H 308.813 -4.92552 0.608789 0
M  V30 3382 H 304.069 -5.88926 1.64243 0
M  V30 3383 H 308.243 -6.54424 2.38123 0
M  V30 3384 H 305.87 -7.02544 2.90407 0
M  V30 3385 N 307.445 0.0818655 -1.57387 0
M  V30 3386 C 308.67 0.799946 -1.91352 0
M  V30 3387 C 309.095 1.70833 -0.787258 0
M  V30 3388 O 308.453 1.79419 0.26048 0
M  V30 3389 C 308.501 1.57812 -3.24234 0
M  V30 3390 O 307.605 2.68806 -3.12757 0
M  V30 3391 H 306.946 0.21891 -0.626877 0
M  V30 3392 H 309.476 0.0531256 -2.04531 0
M  V30 3393 H 309.486 1.95952 -3.57864 0
M  V30 3394 H 308.161 0.911548 -4.05788 0
M  V30 3395 H 306.738 2.33597 -2.90666 0
M  V30 3396 N 308.923 1.53595 0.353017 0
M  V30 3397 C 310.17 1.70385 1.09431 0
M  V30 3398 C 310.498 0.462113 1.88931 0
M  V30 3399 O 309.753 -0.556074 1.87633 0
M  V30 3400 C 310.052 2.91313 2.07054 0
M  V30 3401 C 309.718 4.27308 1.43939 0
M  V30 3402 C 308.38 4.64287 1.26454 0
M  V30 3403 C 310.732 5.11829 0.983883 0
M  V30 3404 C 308.06 5.83412 0.620226 0
M  V30 3405 C 310.412 6.31611 0.353516 0
M  V30 3406 C 309.076 6.67293 0.166272 0
M  V30 3407 H 308.346 0.623484 0.400436 0
M  V30 3408 H 310.993 1.87799 0.374655 0
M  V30 3409 H 309.298 2.68463 2.85368 0
M  V30 3410 H 310.995 3.01497 2.64387 0
M  V30 3411 H 307.585 3.98198 1.58543 0
M  V30 3412 H 311.769 4.838 1.10685 0
M  V30 3413 H 307.025 6.09639 0.463681 0
M  V30 3414 H 311.199 6.964 -0.00757555 0
M  V30 3415 H 308.826 7.59461 -0.335047 0
M  V30 3416 N 310.401 -0.613514 1.45168 0
M  V30 3417 C 311.626 -1.40437 1.52618 0
M  V30 3418 C 312.051 -1.87438 0.157707 0
M  V30 3419 O 311.409 -1.59791 -0.856537 0
M  V30 3420 C 311.457 -2.58894 2.51011 0
M  V30 3421 O 310.561 -3.59326 2.02382 0
M  V30 3422 H 309.902 -0.419506 0.514695 0
M  V30 3423 H 312.432 -0.747215 1.90467 0
M  V30 3424 H 312.442 -3.06214 2.69624 0
M  V30 3425 H 311.117 -2.24032 3.50403 0
M  V30 3426 H 309.694 -3.18695 1.93618 0
M  V30 3427 N 311.879 -1.3236 -0.855495 0
M  V30 3428 C 313.295 -1.11332 -1.14356 0
M  V30 3429 C 313.495 0.106751 -2.01217 0
M  V30 3430 O 312.551 0.791891 -2.39761 0
M  V30 3431 C 313.864 -2.39237 -1.82171 0
M  V30 3432 C 315.412 -2.44986 -1.9481 0
M  V30 3433 C 315.887 -3.7281 -2.66039 0
M  V30 3434 N 317.378 -3.73787 -2.73565 0
M  V30 3435 C 318.113 -4.69394 -3.29327 0
M  V30 3436 N 317.609 -5.75367 -3.85907 0
M  V30 3437 N 319.402 -4.56893 -3.27423 0
M  V30 3438 H 311.553 -2.10586 -0.277027 0
M  V30 3439 H 313.816 -0.929701 -0.185364 0
M  V30 3440 H 313.522 -3.28431 -1.25802 0
M  V30 3441 H 313.396 -2.50134 -2.82335 0
M  V30 3442 H 315.783 -1.56252 -2.50338 0
M  V30 3443 H 315.864 -2.38043 -0.936448 0
M  V30 3444 H 315.508 -4.61918 -2.11174 0
M  V30 3445 H 315.438 -3.77024 -3.67642 0
M  V30 3446 H 317.929 -2.97189 -2.33424 0
M  V30 3447 H 318.242 -6.44378 -4.26611 0
M  V30 3448 H 316.587 -5.79123 -3.84242 0
M  V30 3449 H 319.778 -3.73269 -2.82467 0
M  V30 3450 H 319.951 -5.31577 -3.7058 0
M  V30 3451 N 313.357 1.07166 -1.15556 0
M  V30 3452 C 314.582 1.84053 -0.955988 0
M  V30 3453 C 315.007 1.81586 0.490739 0
M  V30 3454 O 314.365 1.21018 1.34997 0
M  V30 3455 C 314.413 3.28957 -1.47714 0
M  V30 3456 O 313.517 4.06795 -0.677593 0
M  V30 3457 H 312.858 0.569842 -0.340847 0
M  V30 3458 H 315.388 1.35178 -1.53584 0
M  V30 3459 H 315.398 3.79788 -1.4908 0
M  V30 3460 H 314.073 3.30068 -2.53037 0
M  V30 3461 H 312.65 3.6561 -0.733721 0
M  V30 3462 N 314.835 0.952656 1.25548 0
M  V30 3463 C 315.767 0.428609 2.25157 0
M  V30 3464 C 316.78 -0.454428 1.56329 0
M  V30 3465 O 317.969 -0.263023 1.76552 0
M  V30 3466 C 315.069 -0.401972 3.36508 0
M  V30 3467 C 314.242 0.467601 4.34893 0
M  V30 3468 C 313.301 -0.30445 5.25319 0
M  V30 3469 O 312.327 0.296473 5.68427 0
M  V30 3470 N 313.529 -1.59805 5.5807 0
M  V30 3471 H 316.294 1.28497 2.70756 0
M  V30 3472 H 313.855 0.822798 1.39433 0
M  V30 3473 H 315.847 -0.926134 3.9396 0
M  V30 3474 H 314.417 -1.15918 2.90313 0
M  V30 3475 H 313.637 1.17288 3.76347 0
M  V30 3476 H 314.925 1.06119 4.97611 0
M  V30 3477 H 314.323 -2.10823 5.24948 0
M  V30 3478 H 312.88 -2.06822 6.18116 0
M  V30 3479 N 316.313 -1.40141 0.720998 0
M  V30 3480 C 317.559 -2.01572 0.272075 0
M  V30 3481 C 317.914 -1.5616 -1.12391 0
M  V30 3482 O 317.207 -0.774198 -1.75262 0
M  V30 3483 C 317.401 -3.56165 0.296892 0
M  V30 3484 C 317.23 -4.16584 1.69375 0
M  V30 3485 C 316 -4.49783 2.30269 0
M  V30 3486 C 318.198 -4.41076 2.64493 0
M  V30 3487 N 316.18 -4.95626 3.62254 0
M  V30 3488 C 317.551 -4.88971 3.81192 0
M  V30 3489 C 319.606 -4.23122 2.62435 0
M  V30 3490 C 318.309 -5.20796 4.96149 0
M  V30 3491 C 320.335 -4.56052 3.76524 0
M  V30 3492 C 319.697 -5.04141 4.91956 0
M  V30 3493 H 315.796 -0.768343 0.145511 0
M  V30 3494 H 318.38 -1.70287 0.943959 0
M  V30 3495 H 316.551 -3.86868 -0.344578 0
M  V30 3496 H 318.283 -4.04346 -0.169254 0
M  V30 3497 H 315.038 -4.37101 1.82318 0
M  V30 3498 H 315.462 -5.22923 4.29977 0
M  V30 3499 H 320.104 -3.85158 1.74393 0
M  V30 3500 H 317.822 -5.57672 5.84831 0
M  V30 3501 H 321.408 -4.43796 3.76213 0
M  V30 3502 H 320.288 -5.29142 5.78774 0
M  V30 3503 N 317.792 -0.46758 -1.50504 0
M  V30 3504 C 319.069 0.15003 -1.95024 0
M  V30 3505 C 319.449 1.57304 -1.40779 0
M  V30 3506 O 318.797 2.20281 -0.607319 0
M  V30 3507 C 319.007 0.0969324 -3.48865 0
M  V30 3508 C 320.355 0.287565 -4.23625 0
M  V30 3509 O 321.379 0.173678 -3.55776 0
M  V30 3510 O 320.238 0.517186 -5.44047 0
M  V30 3511 H 317.332 0.113582 -0.819163 0
M  V30 3512 H 319.878 -0.52773 -1.61286 0
M  V30 3513 H 318.65 -0.896732 -3.80886 0
M  V30 3514 H 318.273 0.816303 -3.8913 0
M  V30 3515 N 319.27 1.56325 -0.20005 0
M  V30 3516 C 320.203 2.15234 0.758267 0
M  V30 3517 C 321.181 1.09046 1.20614 0
M  V30 3518 O 322.365 1.37186 1.29276 0
M  V30 3519 C 319.492 2.71524 2.02466 0
M  V30 3520 C 318.538 3.90345 1.71852 0
M  V30 3521 S 319.371 5.28513 0.862249 0
M  V30 3522 C 320.527 5.88227 2.13868 0
M  V30 3523 H 320.76 2.96183 0.2575 0
M  V30 3524 H 318.293 1.54393 0.0150099 0
M  V30 3525 H 320.251 3.04598 2.75191 0
M  V30 3526 H 318.912 1.90607 2.49655 0
M  V30 3527 H 318.105 4.28158 2.65888 0
M  V30 3528 H 317.707 3.58306 1.07205 0
M  V30 3529 H 319.999 6.02891 3.09076 0
M  V30 3530 H 320.942 6.84714 1.80479 0
M  V30 3531 H 321.35 5.16874 2.2694 0
M  V30 3532 N 320.748 -0.0735177 1.57428 0
M  V30 3533 C 321.68 -1.11423 2.00294 0
M  V30 3534 C 322.693 -1.35084 0.908637 0
M  V30 3535 O 323.882 -1.33355 1.18654 0
M  V30 3536 C 320.982 -2.46548 2.32523 0
M  V30 3537 C 320.155 -2.42867 3.63778 0
M  V30 3538 C 319.214 -3.60087 3.83697 0
M  V30 3539 O 318.24 -3.41595 4.55304 0
M  V30 3540 N 319.442 -4.80372 3.25919 0
M  V30 3541 H 322.207 -0.749206 2.90184 0
M  V30 3542 H 319.768 -0.262195 1.59763 0
M  V30 3543 H 321.76 -3.23607 2.43024 0
M  V30 3544 H 320.33 -2.75059 1.48531 0
M  V30 3545 H 319.55 -1.51206 3.64047 0
M  V30 3546 H 320.838 -2.37506 4.49965 0
M  V30 3547 H 320.236 -4.983 2.67795 0
M  V30 3548 H 318.793 -5.54948 3.41871 0
M  V30 3549 N 322.226 -1.5378 -0.344866 0
M  V30 3550 C 323.451 -1.75211 -1.10977 0
M  V30 3551 C 323.876 -0.48936 -1.81623 0
M  V30 3552 O 323.234 0.557925 -1.72502 0
M  V30 3553 C 323.282 -2.93147 -2.09993 0
M  V30 3554 O 322.386 -2.63203 -3.17487 0
M  V30 3555 H 321.727 -0.581241 -0.321021 0
M  V30 3556 H 324.257 -2.00738 -0.395661 0
M  V30 3557 H 324.267 -3.19898 -2.53237 0
M  V30 3558 H 322.942 -3.84731 -1.5797 0
M  V30 3559 H 321.519 -2.47336 -2.79069 0
M  V30 3560 N 323.704 0.605807 -1.45491 0
M  V30 3561 C 324.932 1.39136 -1.5313 0
M  V30 3562 C 325.347 1.88082 -0.164507 0
M  V30 3563 O 324.704 1.62316 0.834247 0
M  V30 3564 C 324.755 2.59463 -2.51716 0
M  V30 3565 O 324.476 2.12551 -3.83084 0
M  V30 3566 C 325.977 3.52301 -2.6907 0
M  V30 3567 H 323.197 0.425849 -0.51855 0
M  V30 3568 H 325.741 0.73865 -1.90694 0
M  V30 3569 H 323.896 3.20772 -2.17219 0
M  V30 3570 H 324.31 2.90744 -4.36541 0
M  V30 3571 H 325.784 4.33271 -3.42024 0
M  V30 3572 H 326.261 4.02757 -1.75167 0
M  V30 3573 H 326.867 2.96845 -3.04571 0
M  V30 3574 N 325.182 1.32811 0.848464 0
M  V30 3575 C 326.429 1.23724 1.60308 0
M  V30 3576 C 326.757 -0.1994 1.93475 0
M  V30 3577 O 326.012 -1.15406 1.5805 0
M  V30 3578 C 326.311 2.04831 2.92881 0
M  V30 3579 C 325.977 3.54125 2.79117 0
M  V30 3580 C 324.639 3.94829 2.7507 0
M  V30 3581 C 326.991 4.49036 2.64606 0
M  V30 3582 C 324.319 5.28675 2.544 0
M  V30 3583 C 326.671 5.83033 2.4547 0
M  V30 3584 C 325.335 6.22931 2.39819 0
M  V30 3585 H 324.605 0.452737 0.586609 0
M  V30 3586 H 327.252 1.64301 0.983743 0
M  V30 3587 H 325.557 1.57001 3.58968 0
M  V30 3588 H 327.254 1.95164 3.50303 0
M  V30 3589 H 323.844 3.21801 2.83094 0
M  V30 3590 H 328.028 4.18505 2.66772 0
M  V30 3591 H 323.284 5.58637 2.48465 0
M  V30 3592 H 327.458 6.56186 2.33222 0
M  V30 3593 H 325.085 7.26584 2.23562 0
M  V30 3594 N 326.66 -1.06551 1.16123 0
M  V30 3595 C 327.937 -1.76097 0.85142 0
M  V30 3596 C 328.317 -2.00802 -0.6513 0
M  V30 3597 O 327.665 -1.63302 -1.59827 0
M  V30 3598 C 327.875 -3.06384 1.67122 0
M  V30 3599 C 329.223 -3.80585 1.88255 0
M  V30 3600 O 330.247 -3.16218 1.63966 0
M  V30 3601 O 329.106 -4.96212 2.2899 0
M  V30 3602 H 326.2 -0.765102 0.313923 0
M  V30 3603 H 328.746 -1.12844 1.26745 0
M  V30 3604 H 327.518 -2.84071 2.69108 0
M  V30 3605 H 327.141 -3.77371 1.25206 0
M  V30 3606 N 328.138 -0.959301 -1.25041 0
M  V30 3607 C 329.086 -0.474437 -2.2771 0
M  V30 3608 C 330.08 0.457697 -1.631 0
M  V30 3609 O 331.286 0.333912 -1.76876 0
M  V30 3610 H 327.661 -0.134936 -0.739795 0
M  V30 3611 H 329.632 -1.35251 -2.65988 0
M  V30 3612 C 328.381 0.227884 -3.46952 0
M  V30 3613 H 327.704 -0.480248 -3.96905 0
M  V30 3614 H 329.144 0.531091 -4.20661 0
M  V30 3615 C 327.603 1.452 -3.04004 0
M  V30 3616 O 328.133 2.54949 -3.10426 0
M  V30 3617 N 326.339 1.31502 -2.59144 0
M  V30 3618 H 325.886 0.422065 -2.54119 0
M  V30 3619 H 325.844 2.13521 -2.30773 0
M  V30 3620 N 329.616 1.39756 -0.72842 0
M  V30 3621 C 330.844 2.04948 -0.283528 0
M  V30 3622 C 331.259 1.54908 1.0793 0
M  V30 3623 O 330.616 0.711135 1.68075 0
M  V30 3624 C 330.667 3.60498 -0.268957 0
M  V30 3625 O 330.388 4.08695 -1.57798 0
M  V30 3626 C 331.889 4.4288 0.192912 0
M  V30 3627 H 329.109 0.659243 -0.125056 0
M  V30 3628 H 331.653 1.78927 -0.990226 0
M  V30 3629 H 329.808 3.85444 0.388801 0
M  V30 3630 H 330.222 5.02977 -1.48709 0
M  V30 3631 H 331.696 5.51791 0.151952 0
M  V30 3632 H 332.173 4.21418 1.23708 0
M  V30 3633 H 332.779 4.23069 -0.435039 0
M  V30 3634 N 331.094 0.475555 1.50254 0
M  V30 3635 C 332.343 -0.0795996 2.01543 0
M  V30 3636 C 332.656 -1.4038 1.36209 0
M  V30 3637 O 333.862 -2.04415 1.7868 0
M  V30 3638 C 332.318 -0.192363 3.59386 0
M  V30 3639 C 331.926 1.12367 4.33679 0
M  V30 3640 C 333.67 -0.699238 4.18701 0
M  V30 3641 C 331.577 0.974453 5.83317 0
M  V30 3642 H 330.507 -0.0335228 0.753254 0
M  V30 3643 H 333.158 0.611128 1.73025 0
M  V30 3644 H 331.54 -0.946974 3.84511 0
M  V30 3645 H 332.714 1.88958 4.20276 0
M  V30 3646 H 331.029 1.562 3.85993 0
M  V30 3647 H 333.626 -0.827978 5.28251 0
M  V30 3648 H 333.969 -1.69171 3.80377 0
M  V30 3649 H 334.502 -0.00188807 3.978 0
M  V30 3650 H 331.241 1.94042 6.26121 0
M  V30 3651 H 330.761 0.248998 5.99283 0
M  V30 3652 H 332.44 0.642867 6.43798 0
M  V30 3653 N 332.573 -1.56217 0.208337 0
M  V30 3654 C 333.52 -2.19699 -0.707192 0
M  V30 3655 C 334.49 -1.14836 -1.20008 0
M  V30 3656 O 335.675 -1.4314 -1.26157 0
M  V30 3657 C 332.815 -2.87061 -1.91546 0
M  V30 3658 C 331.928 -4.06483 -1.46271 0
M  V30 3659 C 331.063 -4.61665 -2.62752 0
M  V30 3660 C 330.102 -5.73417 -2.14147 0
M  V30 3661 N 329.239 -6.22948 -3.23853 0
M  V30 3662 H 334.079 -2.97575 -0.159111 0
M  V30 3663 H 331.616 -1.46948 -0.0667874 0
M  V30 3664 H 333.574 -3.24294 -2.62468 0
M  V30 3665 H 332.204 -2.11725 -2.43664 0
M  V30 3666 H 331.256 -3.74825 -0.648886 0
M  V30 3667 H 332.568 -4.87271 -1.06622 0
M  V30 3668 H 331.722 -5.01272 -3.41776 0
M  V30 3669 H 330.461 -3.80013 -3.05682 0
M  V30 3670 H 329.466 -5.33326 -1.33581 0
M  V30 3671 H 330.691 -6.56897 -1.72232 0
M  V30 3672 H 328.637 -5.44213 -3.6629 0
M  V30 3673 H 328.554 -6.98823 -2.88414 0
M  V30 3674 H 329.822 -6.6721 -4.03052 0
M  V30 3675 N 334.051 0.0651679 -1.57465 0
M  V30 3676 C 334.961 1.09448 -2.07505 0
M  V30 3677 C 335.977 1.41974 -1.00595 0
M  V30 3678 O 337.153 1.52018 -1.32107 0
M  V30 3679 C 334.218 2.38689 -2.51453 0
M  V30 3680 C 333.279 2.13073 -3.72691 0
M  V30 3681 C 332.512 3.36152 -4.14533 0
M  V30 3682 O 332.735 4.45517 -3.56189 0
M  V30 3683 O 331.669 3.23974 -5.07272 0
M  V30 3684 H 335.495 0.69935 -2.95538 0
M  V30 3685 H 333.08 0.279752 -1.46757 0
M  V30 3686 H 334.962 3.14736 -2.80212 0
M  V30 3687 H 333.637 2.77568 -1.66546 0
M  V30 3688 H 332.544 1.34709 -3.49005 0
M  V30 3689 H 333.877 1.79071 -4.5847 0
M  V30 3690 N 335.529 1.53961 0.336706 0
M  V30 3691 C 336.479 1.7881 1.41461 0
M  V30 3692 C 337.463 0.643561 1.47469 0
M  V30 3693 O 338.655 0.903166 1.52223 0
M  V30 3694 C 335.784 2.00722 2.78506 0
M  V30 3695 C 334.87 3.2126 2.76862 0
M  V30 3696 N 335.261 4.42588 2.44845 0
M  V30 3697 C 333.559 3.22568 3.08004 0
M  V30 3698 C 334.26 5.2447 2.51607 0
M  V30 3699 N 333.236 4.61344 2.87511 0
M  V30 3700 H 337.038 2.70205 1.15615 0
M  V30 3701 H 334.552 1.52978 0.545112 0
M  V30 3702 H 336.549 2.1666 3.5618 0
M  V30 3703 H 335.209 1.10573 3.05293 0
M  V30 3704 H 336.22 4.69819 2.17922 0
M  V30 3705 H 332.897 2.42409 3.39918 0
M  V30 3706 H 334.287 6.31324 2.29955 0
M  V30 3707 N 337.007 -0.598083 1.45811 0
M  V30 3708 C 338.254 -1.35681 1.50323 0
M  V30 3709 C 338.582 -1.9393 0.148739 0
M  V30 3710 O 337.837 -1.76094 -0.853787 0
M  V30 3711 C 338.136 -2.51669 2.53766 0
M  V30 3712 C 337.802 -2.11508 3.98215 0
M  V30 3713 C 336.464 -2.0027 4.37545 0
M  V30 3714 C 338.816 -1.80308 4.89018 0
M  V30 3715 C 336.144 -1.56067 5.65562 0
M  V30 3716 C 338.496 -1.37589 6.17456 0
M  V30 3717 C 337.16 -1.24916 6.55708 0
M  V30 3718 H 336.43 -0.496492 0.550069 0
M  V30 3719 H 339.077 -0.675052 1.79207 0
M  V30 3720 H 337.382 -3.25225 2.18486 0
M  V30 3721 H 339.079 -3.09895 2.54492 0
M  V30 3722 H 335.669 -2.21185 3.67117 0
M  V30 3723 H 339.853 -1.87884 4.59362 0
M  V30 3724 H 335.109 -1.44886 5.93985 0
M  V30 3725 H 339.283 -1.12495 6.87254 0
M  V30 3726 H 336.91 -0.904386 7.54801 0
M  V30 3727 N 338.485 -1.33259 -0.841409 0
M  V30 3728 C 339.896 -1.22066 -1.41269 0
M  V30 3729 C 340.247 0.161479 -1.95534 0
M  V30 3730 O 339.372 1.06094 -1.88608 0
M  V30 3731 C 339.967 -2.20996 -2.568 0
M  V30 3732 C 338.526 -2.13649 -3.09888 0
M  V30 3733 C 337.673 -2.08623 -1.82679 0
M  V30 3734 H 340.624 -1.44895 -0.647395 0
M  V30 3735 H 340.645 -1.81621 -3.34356 0
M  V30 3736 H 340.157 -3.2158 -2.17274 0
M  V30 3737 H 338.258 -1.16359 -3.53965 0
M  V30 3738 H 338.371 -3.04079 -3.70234 0
M  V30 3739 H 336.735 -1.54061 -2.02824 0
M  V30 3740 H 337.518 -3.1101 -1.45353 0
M  V30 3741 N 339.963 1.05934 -1.16686 0
M  V30 3742 C 340.873 2.17014 -0.891183 0
M  V30 3743 C 341.889 1.73453 0.137907 0
M  V30 3744 O 343.065 2.01361 -0.039592 0
M  V30 3745 C 340.13 3.44384 -0.400099 0
M  V30 3746 C 339.191 4.02433 -1.49486 0
M  V30 3747 C 338.424 5.23723 -1.02711 0
M  V30 3748 O 338.647 5.7027 0.121716 0
M  V30 3749 O 337.581 5.7382 -1.81699 0
M  V30 3750 H 341.407 2.43113 -1.82015 0
M  V30 3751 H 338.992 1.15541 -0.947132 0
M  V30 3752 H 340.874 4.21189 -0.133392 0
M  V30 3753 H 339.549 3.19802 0.500817 0
M  V30 3754 H 338.456 3.27102 -1.81535 0
M  V30 3755 H 339.789 4.31317 -2.37121 0
M  V30 3756 N 341.441 0.965919 1.2453 0
M  V30 3757 C 342.689 0.625593 1.92174 0
M  V30 3758 C 343.01 -0.841652 1.75901 0
M  V30 3759 O 342.28 -1.60061 1.12948 0
M  V30 3760 H 340.86 0.228388 0.71123 0
M  V30 3761 H 343.522 1.2266 1.51461 0
M  V30 3762 H 342.618 0.864653 2.99884 0
M  V30 3763 N 342.919 -1.39368 0.735821 0
M  V30 3764 C 344.144 -2.05319 0.293052 0
M  V30 3765 C 344.569 -1.55115 -1.064 0
M  V30 3766 O 343.927 -0.695261 -1.67439 0
M  V30 3767 C 343.975 -3.59305 0.305323 0
M  V30 3768 O 343.079 -4.06299 -0.706761 0
M  V30 3769 H 342.42 -0.650529 0.13307 0
M  V30 3770 H 344.95 -1.78386 1.00197 0
M  V30 3771 H 344.96 -4.07724 0.149997 0
M  V30 3772 H 343.635 -3.95207 1.29553 0
M  V30 3773 H 342.212 -3.69292 -0.517504 0
M  V30 3774 N 344.397 -0.483516 -1.5 0
M  V30 3775 C 345.813 -0.138404 -1.58999 0
M  V30 3776 C 346.013 1.35597 -1.4905 0
M  V30 3777 O 345.069 2.13039 -1.35539 0
M  V30 3778 C 346.382 -0.699658 -2.92447 0
M  V30 3779 C 347.93 -0.664195 -3.05872 0
M  V30 3780 C 348.405 -1.20321 -4.41913 0
M  V30 3781 N 349.896 -1.16315 -4.48358 0
M  V30 3782 C 350.631 -1.55058 -5.52037 0
M  V30 3783 N 350.127 -2.01311 -6.62907 0
M  V30 3784 N 351.92 -1.46584 -5.42651 0
M  V30 3785 H 344.071 -1.45529 -1.5471 0
M  V30 3786 H 346.334 -0.60258 -0.731848 0
M  V30 3787 H 346.04 -1.747 -3.05242 0
M  V30 3788 H 345.914 -0.150194 -3.76901 0
M  V30 3789 H 348.301 0.374272 -2.92717 0
M  V30 3790 H 348.382 -1.25061 -2.23144 0
M  V30 3791 H 348.026 -2.24037 -4.55818 0
M  V30 3792 H 347.956 -0.592896 -5.23252 0
M  V30 3793 H 350.447 -0.824058 -3.68806 0
M  V30 3794 H 350.76 -2.2899 -7.38095 0
M  V30 3795 H 349.105 -2.05273 -6.63994 0
M  V30 3796 H 352.296 -1.10281 -4.54924 0
M  V30 3797 H 352.469 -1.77103 -6.23329 0
M  V30 3798 N 345.875 1.56104 -0.216619 0
M  V30 3799 C 347.286 1.844 0.292128 0
M  V30 3800 C 347.637 1.13788 1.59833 0
M  V30 3801 O 346.762 0.405888 2.12559 0
M  V30 3802 C 347.357 3.3452 0.53681 0
M  V30 3803 C 345.916 3.63151 0.989876 0
M  V30 3804 C 345.063 2.77255 0.0502302 0
M  V30 3805 H 348.014 1.52481 -0.439926 0
M  V30 3806 H 348.035 3.54459 1.38345 0
M  V30 3807 H 347.547 3.85885 -0.414031 0
M  V30 3808 H 345.648 3.17238 1.95425 0
M  V30 3809 H 345.761 4.71177 0.867698 0
M  V30 3810 H 344.125 2.48555 0.556117 0
M  V30 3811 H 344.908 3.31416 -0.89544 0
M  V30 3812 N 347.353 -0.0568162 1.57498 0
M  V30 3813 C 348.599 -0.75422 1.88253 0
M  V30 3814 C 348.932 -1.76461 0.810865 0
M  V30 3815 O 348.207 -1.93691 -0.177259 0
M  V30 3816 C 348.49 -1.44878 3.2967 0
M  V30 3817 C 348.343 -0.453789 4.47505 0
M  V30 3818 C 349.662 -2.38994 3.69554 0
M  V30 3819 H 346.781 -0.272724 0.684683 0
M  V30 3820 H 349.423 -0.0172113 1.89992 0
M  V30 3821 H 347.573 -2.077 3.28318 0
M  V30 3822 H 349.245 0.170371 4.60985 0
M  V30 3823 H 347.488 0.229552 4.33192 0
M  V30 3824 H 348.159 -0.977699 5.43273 0
M  V30 3825 H 350.635 -1.86239 3.72095 0
M  V30 3826 H 349.511 -2.84587 4.69363 0
M  V30 3827 H 349.772 -3.24461 3.00296 0
M  V30 3828 N 348.832 -1.54138 -0.328536 0
M  V30 3829 C 349.762 -1.86167 -1.40939 0
M  V30 3830 C 350.743 -0.718044 -1.54202 0
M  V30 3831 O 351.928 -0.971328 -1.68163 0
M  V30 3832 C 349.058 -2.08461 -2.77779 0
M  V30 3833 C 348.012 -3.24299 -2.7931 0
M  V30 3834 C 347.338 -3.31955 -4.19178 0
M  V30 3835 C 348.638 -4.62065 -2.43502 0
M  V30 3836 H 350.332 -2.76689 -1.14383 0
M  V30 3837 H 347.878 -1.33132 -0.548806 0
M  V30 3838 H 349.831 -2.29453 -3.53454 0
M  V30 3839 H 348.555 -1.14684 -3.05802 0
M  V30 3840 H 347.214 -3.03187 -2.0609 0
M  V30 3841 H 346.862 -2.35745 -4.44335 0
M  V30 3842 H 346.562 -4.09805 -4.2111 0
M  V30 3843 H 348.086 -3.55175 -4.96672 0
M  V30 3844 H 349.5 -4.8297 -3.08889 0
M  V30 3845 H 347.897 -5.42429 -2.56693 0
M  V30 3846 H 348.967 -4.64652 -1.38659 0
M  V30 3847 N 350.31 0.590341 -1.46126 0
M  V30 3848 C 351.535 1.37991 -1.54833 0
M  V30 3849 C 351.96 1.87163 -0.187506 0
M  V30 3850 O 351.318 1.61133 0.831008 0
M  V30 3851 C 351.366 2.54867 -2.55098 0
M  V30 3852 O 350.47 3.56061 -2.08073 0
M  V30 3853 H 349.811 0.411265 -0.521303 0
M  V30 3854 H 352.341 0.716819 -1.91632 0
M  V30 3855 H 352.351 3.01886 -2.74461 0
M  V30 3856 H 351.026 2.18429 -3.53923 0
M  V30 3857 H 349.603 3.15574 -1.98664 0
M  V30 3858 N 351.788 1.33704 0.83433 0
M  V30 3859 C 352.738 1.20899 1.93306 0
M  V30 3860 C 353.722 0.110783 1.60518 0
M  V30 3861 O 354.914 0.339331 1.73717 0
M  V30 3862 C 352.043 0.955018 3.29749 0
M  V30 3863 C 351.129 2.09587 3.68692 0
M  V30 3864 N 351.52 3.34621 3.79292 0
M  V30 3865 C 349.818 2.00358 3.98463 0
M  V30 3866 C 350.519 4.09472 4.13167 0
M  V30 3867 N 349.495 3.37954 4.25779 0
M  V30 3868 H 353.297 2.15665 1.99664 0
M  V30 3869 H 350.811 1.25777 1.02732 0
M  V30 3870 H 352.808 0.844208 4.08263 0
M  V30 3871 H 351.468 0.0159317 3.24696 0
M  V30 3872 H 352.479 3.69313 3.63082 0
M  V30 3873 H 349.156 1.14137 4.01596 0
M  V30 3874 H 350.546 5.17391 4.28668 0
M  V30 3875 N 353.266 -1.05314 1.17247 0
M  V30 3876 C 354.196 -2.1498 0.911362 0
M  V30 3877 C 355.177 -1.69471 -0.146169 0
M  V30 3878 O 356.362 -1.942 0.003812 0
M  V30 3879 C 353.492 -3.4472 0.422528 0
M  V30 3880 C 352.446 -4.03789 1.4191 0
M  V30 3881 C 351.772 -5.28858 0.788274 0
M  V30 3882 C 353.072 -4.41418 2.7919 0
M  V30 3883 H 354.766 -2.3708 1.82848 0
M  V30 3884 H 352.312 -1.13938 0.880569 0
M  V30 3885 H 354.265 -4.20787 0.227289 0
M  V30 3886 H 352.989 -3.22269 -0.530123 0
M  V30 3887 H 351.648 -3.2979 1.60106 0
M  V30 3888 H 351.296 -5.02709 -0.171173 0
M  V30 3889 H 350.996 -5.69338 1.45353 0
M  V30 3890 H 352.52 -6.07612 0.603282 0
M  V30 3891 H 353.934 -5.08524 2.64719 0
M  V30 3892 H 352.331 -4.92913 3.42282 0
M  V30 3893 H 353.401 -3.51819 3.33693 0
M  V30 3894 N 354.744 -0.972509 -1.24016 0
M  V30 3895 C 355.674 -0.525548 -2.27509 0
M  V30 3896 C 356.655 0.437262 -1.64384 0
M  V30 3897 O 357.84 0.332343 -1.91335 0
M  V30 3898 C 354.97 0.180448 -3.46831 0
M  V30 3899 C 353.924 -0.698859 -4.22256 0
M  V30 3900 C 353.25 0.138903 -5.3452 0
M  V30 3901 C 354.55 -1.98582 -4.83076 0
M  V30 3902 H 356.244 -1.39058 -2.65148 0
M  V30 3903 H 353.79 -0.67009 -1.27459 0
M  V30 3904 H 355.743 0.504387 -4.18371 0
M  V30 3905 H 354.467 1.07987 -3.08231 0
M  V30 3906 H 353.126 -1.00614 -3.52523 0
M  V30 3907 H 352.774 1.03862 -4.9216 0
M  V30 3908 H 352.474 -0.446259 -5.85903 0
M  V30 3909 H 353.998 0.457404 -6.08884 0
M  V30 3910 H 355.412 -1.72715 -5.46665 0
M  V30 3911 H 353.809 -2.5181 -5.44713 0
M  V30 3912 H 354.879 -2.67769 -4.04262 0
M  V30 3913 N 356.222 1.38976 -0.743202 0
M  V30 3914 C 357.152 2.33171 -0.123873 0
M  V30 3915 C 358.133 1.54336 0.71516 0
M  V30 3916 O 359.318 1.82696 0.658467 0
M  V30 3917 C 356.448 3.38474 0.777978 0
M  V30 3918 C 355.402 4.27979 0.0424758 0
M  V30 3919 C 354.728 5.2405 1.06189 0
M  V30 3920 C 356.028 5.10155 -1.1198 0
M  V30 3921 H 357.722 2.85213 -0.910709 0
M  V30 3922 H 355.268 1.37133 -0.439388 0
M  V30 3923 H 357.221 4.03328 1.22084 0
M  V30 3924 H 355.945 2.84891 1.59702 0
M  V30 3925 H 354.604 3.64616 -0.380853 0
M  V30 3926 H 354.252 4.66758 1.87472 0
M  V30 3927 H 353.952 5.84785 0.574485 0
M  V30 3928 H 355.476 5.9178 1.50428 0
M  V30 3929 H 356.89 5.68307 -0.75499 0
M  V30 3930 H 355.287 5.80073 -1.53738 0
M  V30 3931 H 356.357 4.44504 -1.93764 0
M  V30 3932 N 357.7 0.491464 1.49741 0
M  V30 3933 C 358.647 -0.292027 2.28945 0
M  V30 3934 C 359.617 -0.968973 1.34908 0
M  V30 3935 O 360.802 -0.97748 1.6386 0
M  V30 3936 C 357.942 -1.35617 3.17336 0
M  V30 3937 C 357.055 -0.691957 4.26422 0
M  V30 3938 C 356.19 -1.73572 5.02042 0
M  V30 3939 C 355.229 -1.05286 6.02977 0
M  V30 3940 N 354.366 -2.0404 6.71798 0
M  V30 3941 H 359.206 0.389654 2.95442 0
M  V30 3942 H 356.743 0.204003 1.45679 0
M  V30 3943 H 358.701 -1.98502 3.66951 0
M  V30 3944 H 357.331 -2.00674 2.52844 0
M  V30 3945 H 356.383 0.0499523 3.80367 0
M  V30 3946 H 357.695 -0.153946 4.98562 0
M  V30 3947 H 356.849 -2.43987 5.55478 0
M  V30 3948 H 355.588 -2.30757 4.29654 0
M  V30 3949 H 354.593 -0.334446 5.48782 0
M  V30 3950 H 355.818 -0.487636 6.77347 0
M  V30 3951 H 353.764 -2.60205 6.02187 0
M  V30 3952 H 353.681 -1.55279 7.39881 0
M  V30 3953 H 354.949 -2.73772 7.29842 0
M  V30 3954 N 359.178 -1.55987 0.224894 0
M  V30 3955 C 360.141 -2.19178 -0.670348 0
M  V30 3956 C 361.141 -1.15461 -1.11917 0
M  V30 3957 O 362.331 -1.40675 -1.02743 0
M  V30 3958 C 359.463 -2.81777 -1.9187 0
M  V30 3959 H 360.656 -2.99662 -0.119364 0
M  V30 3960 H 358.209 -1.5628 -0.0247128 0
M  V30 3961 H 358.944 -2.05172 -2.51147 0
M  V30 3962 H 358.729 -3.57732 -1.60531 0
M  V30 3963 H 360.219 -3.30205 -2.55645 0
M  V30 3964 N 360.656 0.0484629 -1.57525 0
M  V30 3965 C 361.566 1.07241 -2.08654 0
M  V30 3966 C 362.582 1.409 -1.02095 0
M  V30 3967 O 363.758 1.50609 -1.33712 0
M  V30 3968 C 360.823 2.36008 -2.5397 0
M  V30 3969 C 359.884 2.09108 -3.7493 0
M  V30 3970 C 359.117 3.31736 -4.18075 0
M  V30 3971 O 359.34 4.41714 -3.60895 0
M  V30 3972 O 358.274 3.18576 -5.10679 0
M  V30 3973 H 362.1 0.667965 -2.96263 0
M  V30 3974 H 359.685 0.26417 -1.47046 0
M  V30 3975 H 361.567 3.11747 -2.83535 0
M  V30 3976 H 360.242 2.75786 -1.69481 0
M  V30 3977 H 359.149 1.31 -3.50414 0
M  V30 3978 H 360.482 1.74198 -4.60343 0
M  V30 3979 N 362.134 1.5431 0.320358 0
M  V30 3980 C 363.064 1.86912 1.3995 0
M  V30 3981 C 364.045 0.726211 1.53819 0
M  V30 3982 O 365.23 0.980233 1.67646 0
M  V30 3983 C 362.36 2.09932 2.7667 0
M  V30 3984 C 361.314 3.25776 2.77586 0
M  V30 3985 C 360.64 3.34173 4.17412 0
M  V30 3986 C 361.94 4.6335 2.41048 0
M  V30 3987 H 363.634 2.77292 1.12914 0
M  V30 3988 H 361.18 1.33421 0.541738 0
M  V30 3989 H 363.133 2.31324 3.52232 0
M  V30 3990 H 361.857 1.16304 3.0519 0
M  V30 3991 H 360.516 3.04276 2.04479 0
M  V30 3992 H 360.164 2.38098 4.43078 0
M  V30 3993 H 359.864 4.12033 4.18931 0
M  V30 3994 H 361.388 3.57803 4.94782 0
M  V30 3995 H 362.802 4.84602 3.06324 0
M  V30 3996 H 361.199 5.43782 2.53813 0
M  V30 3997 H 362.269 4.65381 1.36193 0
M  V30 3998 N 363.613 -0.582584 1.46437 0
M  V30 3999 C 364.859 -1.34064 1.52965 0
M  V30 4000 C 365.214 -1.91566 0.178968 0
M  V30 4001 O 364.507 -1.73526 -0.812365 0
M  V30 4002 C 364.701 -2.48964 2.56421 0
M  V30 4003 C 364.53 -2.02717 4.01417 0
M  V30 4004 C 363.3 -1.87728 4.69134 0
M  V30 4005 C 365.498 -1.58675 4.8921 0
M  V30 4006 N 363.48 -1.35554 5.98747 0
M  V30 4007 C 364.851 -1.18093 6.08649 0
M  V30 4008 C 366.906 -1.46494 4.75861 0
M  V30 4009 C 365.609 -0.665427 7.16215 0
M  V30 4010 C 367.635 -0.96347 5.83499 0
M  V30 4011 C 366.997 -0.567432 7.02111 0
M  V30 4012 H 363.096 -0.483551 0.614575 0
M  V30 4013 H 365.68 -0.663309 1.83053 0
M  V30 4014 H 363.851 -3.1426 2.28244 0
M  V30 4015 H 365.583 -3.15913 2.52944 0
M  V30 4016 H 362.338 -2.09678 4.24655 0
M  V30 4017 H 362.762 -1.11628 6.67734 0
M  V30 4018 H 367.404 -1.75731 3.8455 0
M  V30 4019 H 365.122 -0.360639 8.07295 0
M  V30 4020 H 368.708 -0.873129 5.75211 0
M  V30 4021 H 367.588 -0.185389 7.83981 0
M  V30 4022 N 365.091 -1.34144 -0.827227 0
M  V30 4023 C 366.338 -1.26258 -1.58319 0
M  V30 4024 C 366.666 0.168595 -1.93768 0
M  V30 4025 O 365.921 1.12877 -1.59866 0
M  V30 4026 C 366.22 -2.09464 -2.89585 0
M  V30 4027 C 365.886 -3.58521 -2.73448 0
M  V30 4028 C 364.548 -3.99155 -2.68754 0
M  V30 4029 C 366.9 -4.53189 -2.57428 0
M  V30 4030 C 364.228 -5.32656 -2.45957 0
M  V30 4031 C 366.58 -5.86864 -2.36163 0
M  V30 4032 C 365.244 -6.26667 -2.29879 0
M  V30 4033 H 364.514 -0.462013 -0.579332 0
M  V30 4034 H 367.161 -1.65845 -0.95748 0
M  V30 4035 H 365.466 -1.62692 -3.56425 0
M  V30 4036 H 367.163 -2.00712 -3.47154 0
M  V30 4037 H 363.753 -3.26264 -2.77939 0
M  V30 4038 H 367.937 -4.22696 -2.60081 0
M  V30 4039 H 363.193 -5.62519 -2.39546 0
M  V30 4040 H 367.367 -6.59813 -2.22754 0
M  V30 4041 H 364.994 -7.30049 -2.11975 0
M  V30 4042 N 366.569 1.04691 -1.17803 0
M  V30 4043 C 367.815 1.78045 -0.970969 0
M  V30 4044 C 368.148 1.87686 0.498751 0
M  V30 4045 O 367.423 1.38035 1.37027 0
M  V30 4046 C 367.706 3.2166 -1.61884 0
M  V30 4047 C 367.559 3.20001 -3.161 0
M  V30 4048 C 368.878 4.1962 -1.3269 0
M  V30 4049 H 365.997 0.64633 -0.354155 0
M  V30 4050 H 368.639 1.22333 -1.45378 0
M  V30 4051 H 366.789 3.69232 -1.20831 0
M  V30 4052 H 368.461 2.80467 -3.66246 0
M  V30 4053 H 366.704 2.58203 -3.48588 0
M  V30 4054 H 367.375 4.21386 -3.56564 0
M  V30 4055 H 369.851 3.80567 -1.68249 0
M  V30 4056 H 368.727 5.18339 -1.80599 0
M  V30 4057 H 368.988 4.414 -0.248622 0
M  V30 4058 N 368.047 0.979072 1.23499 0
M  V30 4059 C 368.995 0.510604 2.26926 0
M  V30 4060 C 369.989 -0.431691 1.63807 0
M  V30 4061 O 371.195 -0.30573 1.77385 0
M  V30 4062 H 367.57 0.146688 0.737554 0
M  V30 4063 H 369.541 1.39466 2.63803 0
M  V30 4064 C 368.29 -0.172658 3.47271 0
M  V30 4065 H 367.613 0.543331 3.96091 0
M  V30 4066 H 369.053 -0.464101 4.21452 0
M  V30 4067 C 367.512 -1.40345 3.06276 0
M  V30 4068 O 368.042 -2.49978 3.14442 0
M  V30 4069 N 366.248 -1.27362 2.61203 0
M  V30 4070 H 365.795 -0.381584 2.54758 0
M  V30 4071 H 365.753 -2.09822 2.34141 0
M  V30 4072 N 369.525 -1.3858 0.750561 0
M  V30 4073 C 370.75 -2.04997 0.314812 0
M  V30 4074 C 371.175 -1.56235 -1.04749 0
M  V30 4075 O 370.533 -0.712981 -1.66692 0
M  V30 4076 C 370.581 -3.58961 0.343415 0
M  V30 4077 O 369.685 -4.07025 -0.663628 0
M  V30 4078 H 369.026 -0.649081 0.139962 0
M  V30 4079 H 371.556 -1.77313 1.02084 0
M  V30 4080 H 371.566 -4.07542 0.193233 0
M  V30 4081 H 370.241 -3.93811 1.33738 0
M  V30 4082 H 368.818 -3.6982 -0.478307 0
M  V30 4083 N 371.003 -0.499398 -1.49478 0
M  V30 4084 C 372.28 0.108629 -1.95298 0
M  V30 4085 C 372.66 1.54282 -1.44084 0
M  V30 4086 O 372.008 2.18944 -0.653908 0
M  V30 4087 C 372.218 0.0229111 -3.48992 0
M  V30 4088 C 373.566 0.197643 -4.2414 0
M  V30 4089 O 374.59 0.0981735 -3.56065 0
M  V30 4090 O 373.449 0.401669 -5.45022 0
M  V30 4091 H 370.543 0.096181 -0.821388 0
M  V30 4092 H 373.089 -0.561822 -1.6013 0
M  V30 4093 H 371.861 -0.977321 -3.78899 0
M  V30 4094 H 371.484 0.733579 -3.90774 0
M  V30 4095 N 372.481 1.55866 -0.233164 0
M  V30 4096 C 373.728 1.98603 0.395374 0
M  V30 4097 C 374.056 1.12105 1.58942 0
M  V30 4098 O 373.311 0.168656 1.94972 0
M  V30 4099 C 373.61 3.46856 0.861724 0
M  V30 4100 C 373.276 4.50348 -0.223066 0
M  V30 4101 C 371.938 4.78371 -0.521038 0
M  V30 4102 C 374.29 5.12355 -0.956124 0
M  V30 4103 C 371.618 5.6568 -1.55638 0
M  V30 4104 C 373.97 6.00786 -1.98089 0
M  V30 4105 C 372.634 6.27148 -2.28565 0
M  V30 4106 H 371.904 0.726739 0.144677 0
M  V30 4107 H 374.551 1.88491 -0.338114 0
M  V30 4108 H 372.856 3.5423 1.67418 0
M  V30 4109 H 374.553 3.77302 1.35809 0
M  V30 4110 H 371.143 4.28596 0.0193234 0
M  V30 4111 H 375.327 4.90765 -0.739166 0
M  V30 4112 H 370.583 5.84365 -1.798 0
M  V30 4113 H 374.757 6.4788 -2.55391 0
M  V30 4114 H 372.384 6.94597 -3.08932 0
M  V30 4115 N 373.959 -0.0401083 1.57549 0
M  V30 4116 C 374.922 -1.02871 2.04817 0
M  V30 4117 C 375.922 -1.29708 0.950388 0
M  V30 4118 O 377.112 -1.24897 1.21435 0
M  V30 4119 C 374.244 -2.36443 2.45576 0
M  V30 4120 H 375.437 -0.620631 2.93408 0
M  V30 4121 H 372.99 -0.286667 1.53649 0
M  V30 4122 H 373.725 -2.82021 1.60108 0
M  V30 4123 H 373.51 -2.18296 3.25713 0
M  V30 4124 H 375 -3.07441 2.82612 0
M  V30 4125 N 375.437 -1.54477 -0.31217 0
M  V30 4126 C 376.684 -1.73227 -1.04875 0
M  V30 4127 C 377.012 -0.512042 -1.87639 0
M  V30 4128 O 376.267 0.506131 -1.89042 0
M  V30 4129 C 376.566 -2.967 -1.99258 0
M  V30 4130 C 376.232 -4.30974 -1.32559 0
M  V30 4131 C 374.894 -4.67477 -1.141 0
M  V30 4132 C 377.246 -5.14258 -0.847835 0
M  V30 4133 C 374.574 -5.84852 -0.465326 0
M  V30 4134 C 376.926 -6.32327 -0.185931 0
M  V30 4135 C 375.59 -6.67499 0.0107077 0
M  V30 4136 H 374.86 -0.633881 -0.383765 0
M  V30 4137 H 377.507 -1.88727 -0.324731 0
M  V30 4138 H 375.812 -2.75935 -2.7815 0
M  V30 4139 H 377.509 -3.08401 -2.563 0
M  V30 4140 H 374.099 -4.02262 -1.4793 0
M  V30 4141 H 378.283 -4.86565 -0.978192 0
M  V30 4142 H 373.539 -6.10654 -0.301883 0
M  V30 4143 H 377.713 -6.96135 0.192211 0
M  V30 4144 H 375.34 -7.58306 0.536287 0
M  V30 4145 N 376.915 0.57481 -1.46744 0
M  V30 4146 C 378.192 1.3352 -1.4294 0
M  V30 4147 C 378.572 2.10775 -0.117009 0
M  V30 4148 O 377.92 2.09966 0.901474 0
M  V30 4149 C 378.13 2.25456 -2.66403 0
M  V30 4150 C 379.478 2.87035 -3.12883 0
M  V30 4151 O 380.502 2.35766 -2.67007 0
M  V30 4152 O 379.361 3.80179 -3.92589 0
M  V30 4153 H 376.455 0.600318 -0.568812 0
M  V30 4154 H 379.001 0.595171 -1.58921 0
M  V30 4155 H 377.773 1.67851 -3.53471 0
M  V30 4156 H 377.396 3.06785 -2.52921 0
M  V30 4157 N 378.394 1.34581 0.820102 0
M  V30 4158 C 379.641 1.27096 1.57648 0
M  V30 4159 C 379.969 -0.158317 1.93855 0
M  V30 4160 O 379.224 -1.12028 1.60463 0
M  V30 4161 C 379.523 2.10997 2.8847 0
M  V30 4162 C 379.189 3.59966 2.71543 0
M  V30 4163 C 377.851 4.00575 2.66634 0
M  V30 4164 C 380.203 4.54548 2.55021 0
M  V30 4165 C 377.531 5.33953 2.43128 0
M  V30 4166 C 379.883 5.88109 2.33047 0
M  V30 4167 C 378.547 6.27878 2.26552 0
M  V30 4168 H 377.817 0.465078 0.576874 0
M  V30 4169 H 380.464 1.6635 0.948671 0
M  V30 4170 H 378.769 1.6458 3.55557 0
M  V30 4171 H 380.466 2.0255 3.46084 0
M  V30 4172 H 377.056 3.27733 2.76205 0
M  V30 4173 H 381.24 4.24069 2.57835 0
M  V30 4174 H 376.496 5.63781 2.3656 0
M  V30 4175 H 380.67 6.60985 2.19251 0
M  V30 4176 H 378.297 7.31162 2.081 0
M  V30 4177 N 379.872 -1.04064 1.18357 0
M  V30 4178 C 380.835 -2.10243 0.912707 0
M  V30 4179 C 381.835 -1.60477 -0.101928 0
M  V30 4180 O 383.025 -1.73703 0.131517 0
M  V30 4181 C 380.157 -3.38893 0.369387 0
M  V30 4182 H 381.35 -2.35706 1.85426 0
M  V30 4183 H 378.903 -1.20489 0.995594 0
M  V30 4184 H 379.638 -3.19094 -0.578776 0
M  V30 4185 H 379.423 -3.76331 1.1008 0
M  V30 4186 H 380.913 -4.17128 0.198575 0
M  V30 4187 N 381.35 -0.985608 -1.22978 0
M  V30 4188 C 382.766 -0.695104 -1.43668 0
M  V30 4189 C 382.966 0.736866 -1.87543 0
M  V30 4190 O 382.022 1.50868 -2.02473 0
M  V30 4191 C 383.335 -1.69447 -2.48412 0
M  V30 4192 C 384.883 -1.70909 -2.62219 0
M  V30 4193 C 385.358 -2.6969 -3.70178 0
M  V30 4194 N 386.849 -2.6824 -3.77626 0
M  V30 4195 C 387.584 -3.41339 -4.60733 0
M  V30 4196 N 387.08 -4.24015 -5.4789 0
M  V30 4197 N 388.873 -3.30079 -4.54977 0
M  V30 4198 H 381.024 -1.91054 -0.928016 0
M  V30 4199 H 383.287 -0.823553 -0.469536 0
M  V30 4200 H 382.993 -2.7188 -2.23102 0
M  V30 4201 H 382.867 -1.48147 -3.46889 0
M  V30 4202 H 385.254 -0.691785 -2.86877 0
M  V30 4203 H 385.335 -1.96276 -1.6404 0
M  V30 4204 H 384.979 -3.71566 -3.46268 0
M  V30 4205 H 384.909 -2.41595 -4.67909 0
M  V30 4206 H 387.4 -2.08243 -3.15346 0
M  V30 4207 H 387.713 -4.76636 -6.08308 0
M  V30 4208 H 386.058 -4.28104 -5.47496 0
M  V30 4209 H 389.249 -2.64937 -3.85909 0
M  V30 4210 H 389.422 -3.87308 -5.19516 0
M  V30 4211 N 382.828 1.3818 -0.7579 0
M  V30 4212 C 384.239 1.82726 -0.383134 0
M  V30 4213 C 384.59 1.63214 1.08884 0
M  V30 4214 O 383.715 1.13566 1.84205 0
M  V30 4215 C 384.31 3.31728 -0.688631 0
M  V30 4216 C 382.869 3.74606 -0.367091 0
M  V30 4217 C 382.016 2.60896 -0.939599 0
M  V30 4218 H 384.967 1.26847 -0.953699 0
M  V30 4219 H 384.988 3.80487 0.0316492 0
M  V30 4220 H 384.5 3.45898 -1.76001 0
M  V30 4221 H 382.601 3.66013 0.697532 0
M  V30 4222 H 382.714 4.71215 -0.865658 0
M  V30 4223 H 381.078 2.52075 -0.3647 0
M  V30 4224 H 381.861 2.77864 -2.0161 0
M  V30 4225 N 384.306 0.507319 1.49211 0
M  V30 4226 C 385.236 -0.256939 2.32082 0
M  V30 4227 C 386.217 -0.956609 1.40652 0
M  V30 4228 O 387.402 -0.946788 1.69557 0
M  V30 4229 C 384.532 -1.31802 3.21318 0
M  V30 4230 C 383.486 -0.737855 4.21592 0
M  V30 4231 C 382.812 -1.89992 4.99807 0
M  V30 4232 C 384.112 0.275325 5.21574 0
M  V30 4233 H 385.806 0.434798 2.96226 0
M  V30 4234 H 383.352 0.210546 1.42452 0
M  V30 4235 H 385.305 -1.86045 3.78107 0
M  V30 4236 H 384.029 -2.03903 2.5513 0
M  V30 4237 H 382.688 -0.217126 3.65956 0
M  V30 4238 H 382.336 -2.60877 4.30061 0
M  V30 4239 H 382.036 -1.51777 5.6766 0
M  V30 4240 H 383.56 -2.44657 5.59442 0
M  V30 4241 H 384.974 -0.179193 5.7302 0
M  V30 4242 H 383.371 0.573649 5.97352 0
M  V30 4243 H 384.441 1.18903 4.70096 0
M  V30 4244 N 385.784 -1.5574 0.241426 0
M  V30 4245 C 386.714 -2.24133 -0.654722 0
M  V30 4246 C 387.695 -1.21974 -1.1856 0
M  V30 4247 O 388.88 -1.50612 -1.22595 0
M  V30 4248 C 386.01 -2.93659 -1.85423 0
M  V30 4249 C 384.964 -4.0246 -1.45636 0
M  V30 4250 C 384.29 -4.59383 -2.73626 0
M  V30 4251 C 385.59 -5.18468 -0.631506 0
M  V30 4252 H 387.284 -2.99281 -0.0844353 0
M  V30 4253 H 384.83 -1.43947 -0.0391707 0
M  V30 4254 H 386.783 -3.40203 -2.48676 0
M  V30 4255 H 385.507 -2.15991 -2.44981 0
M  V30 4256 H 384.166 -3.56676 -0.847202 0
M  V30 4257 H 383.814 -3.78422 -3.3137 0
M  V30 4258 H 383.514 -5.32826 -2.4773 0
M  V30 4259 H 385.038 -5.08658 -3.37786 0
M  V30 4260 H 386.452 -5.61272 -1.1682 0
M  V30 4261 H 384.849 -5.98266 -0.468831 0
M  V30 4262 H 385.919 -4.8358 0.357506 0
M  V30 4263 N 387.262 0.0317525 -1.57568 0
M  V30 4264 C 388.673 0.578692 -1.77505 0
M  V30 4265 C 389.024 1.75749 -0.872164 0
M  V30 4266 O 388.149 2.16298 -0.0663106 0
M  V30 4267 C 388.744 1.05658 -3.21904 0
M  V30 4268 C 387.303 1.54906 -3.43047 0
M  V30 4269 C 386.45 0.485939 -2.73009 0
M  V30 4270 H 389.401 -0.194475 -1.57504 0
M  V30 4271 H 389.422 1.92404 -3.28269 0
M  V30 4272 H 388.934 0.198422 -3.87592 0
M  V30 4273 H 387.035 2.42915 -2.82529 0
M  V30 4274 H 387.148 1.59841 -4.5165 0
M  V30 4275 H 385.512 0.940354 -2.36705 0
M  V30 4276 H 386.295 -0.362709 -3.41379 0
M  V30 4277 N 388.74 1.54641 0.303973 0
M  V30 4278 C 389.688 1.86137 1.39484 0
M  V30 4279 C 390.682 0.734854 1.52631 0
M  V30 4280 O 391.888 0.918803 1.54784 0
M  V30 4281 H 388.263 0.590324 0.465856 0
M  V30 4282 H 390.234 2.77324 1.10154 0
M  V30 4283 C 388.983 2.12274 2.75382 0
M  V30 4284 H 388.306 2.98429 2.66046 0
M  V30 4285 H 389.746 2.38254 3.5073 0
M  V30 4286 C 388.205 0.920365 3.24085 0
M  V30 4287 O 388.735 0.139377 4.01458 0
M  V30 4288 N 386.941 0.726566 2.81371 0
M  V30 4289 H 386.488 1.36332 2.18567 0
M  V30 4290 H 386.446 -0.0763799 3.14307 0
M  V30 4291 N 390.218 -0.567019 1.47046 0
M  V30 4292 C 391.446 -1.35027 1.56765 0
M  V30 4293 C 391.861 -1.8758 0.214316 0
M  V30 4294 O 391.218 -1.64471 -0.790919 0
M  V30 4295 C 391.269 -2.52698 2.58507 0
M  V30 4296 O 390.99 -2.0232 3.88585 0
M  V30 4297 C 392.491 -3.45043 2.78316 0
M  V30 4298 H 389.711 -0.41195 0.529658 0
M  V30 4299 H 392.255 -0.687832 1.92585 0
M  V30 4300 H 390.41 -3.149 2.25648 0
M  V30 4301 H 390.824 -2.79068 4.44096 0
M  V30 4302 H 392.298 -4.2405 3.53391 0
M  V30 4303 H 392.775 -3.97971 1.85784 0
M  V30 4304 H 393.381 -2.88665 3.12334 0
M  V30 4305 N 391.696 -1.35014 -0.812953 0
M  V30 4306 C 392.942 -1.2812 -1.57204 0
M  V30 4307 C 393.275 0.145869 -1.93651 0
M  V30 4308 O 392.55 1.0937 -1.60836 0
M  V30 4309 C 392.833 -2.18162 -2.86492 0
M  V30 4310 C 392.686 -3.69454 -2.56561 0
M  V30 4311 C 394.005 -2.07439 -3.88145 0
M  V30 4312 H 391.124 -0.466746 -0.570366 0
M  V30 4313 H 393.766 -1.65357 -0.935783 0
M  V30 4314 H 391.916 -1.86535 -3.40789 0
M  V30 4315 H 393.588 -4.11493 -2.08497 0
M  V30 4316 H 391.831 -3.9005 -1.89851 0
M  V30 4317 H 392.502 -4.27835 -3.48799 0
M  V30 4318 H 394.978 -2.35228 -3.4323 0
M  V30 4319 H 393.854 -2.7265 -4.76396 0
M  V30 4320 H 394.115 -1.05439 -4.29343 0
M  V30 4321 N 393.175 1.03435 -1.18907 0
M  V30 4322 C 394.405 1.8012 -1.01195 0
M  V30 4323 C 394.813 1.8395 0.442613 0
M  V30 4324 O 394.156 1.27836 1.31923 0
M  V30 4325 C 394.218 3.26792 -1.49823 0
M  V30 4326 C 393.882 3.46609 -2.97844 0
M  V30 4327 C 394.879 3.37278 -3.95651 0
M  V30 4328 C 392.564 3.73001 -3.36416 0
M  V30 4329 C 394.558 3.54054 -5.30023 0
M  V30 4330 C 392.245 3.89423 -4.70949 0
M  V30 4331 C 393.243 3.79951 -5.67562 0
M  V30 4332 O 392.931 3.95895 -6.99659 0
M  V30 4333 H 392.663 0.573865 -0.357289 0
M  V30 4334 H 395.217 1.31207 -1.58031 0
M  V30 4335 H 393.447 3.76703 -0.873578 0
M  V30 4336 H 395.136 3.85055 -1.28404 0
M  V30 4337 H 395.902 3.16846 -3.67197 0
M  V30 4338 H 391.781 3.79469 -2.61772 0
M  V30 4339 H 395.325 3.46577 -6.05417 0
M  V30 4340 H 391.222 4.09351 -4.99101 0
M  V30 4341 H 391.99 4.13019 -7.06653 0
M  V30 4342 N 394.653 0.992116 1.22453 0
M  V30 4343 C 395.902 0.662992 1.90492 0
M  V30 4344 C 396.215 -0.808407 1.78113 0
M  V30 4345 O 397.421 -1.24908 2.41061 0
M  V30 4346 C 395.877 1.1353 3.41524 0
M  V30 4347 C 395.485 2.63187 3.62542 0
M  V30 4348 C 397.229 0.880465 4.15269 0
M  V30 4349 C 395.136 3.04024 5.0727 0
M  V30 4350 H 394.066 0.244278 0.713333 0
M  V30 4351 H 396.717 1.20157 1.38688 0
M  V30 4352 H 395.099 0.52485 3.92506 0
M  V30 4353 H 396.273 3.2957 3.22056 0
M  V30 4354 H 394.588 2.86543 3.02129 0
M  V30 4355 H 397.185 1.16128 5.21937 0
M  V30 4356 H 397.528 -0.183408 4.15896 0
M  V30 4357 H 398.061 1.45307 3.70312 0
M  V30 4358 H 394.8 4.09584 5.11782 0
M  V30 4359 H 394.32 2.42343 5.48662 0
M  V30 4360 H 395.999 2.95282 5.75689 0
M  V30 4361 N 396.131 -1.37776 0.765217 0
M  V30 4362 C 397.379 -1.99454 0.325943 0
M  V30 4363 C 397.7 -1.61049 -1.09947 0
M  V30 4364 O 396.97 -0.872821 -1.75381 0
M  V30 4365 H 395.55 -0.737697 0.117525 0
M  V30 4366 H 398.212 -1.68359 0.981895 0
M  V30 4367 H 397.308 -3.09547 0.398353 0
M  V30 4368 N 397.609 -0.515225 -1.4894 0
M  V30 4369 C 398.857 0.0241671 -2.02086 0
M  V30 4370 C 399.178 1.3616 -1.3959 0
M  V30 4371 O 398.448 1.87841 -0.556121 0
M  V30 4372 H 397.028 0.0119203 -0.746905 0
M  V30 4373 H 399.69 -0.675702 -1.82812 0
M  V30 4374 H 398.786 0.143385 -3.1177 0
M  V30 4375 N 399.087 1.5561 -0.249682 0
M  V30 4376 C 400.017 2.24477 0.642826 0
M  V30 4377 C 400.998 1.22601 1.17911 0
M  V30 4378 O 402.183 1.5126 1.21795 0
M  V30 4379 C 399.313 2.94638 1.83863 0
M  V30 4380 C 398.267 4.03227 1.435 0
M  V30 4381 C 397.593 4.60828 2.71186 0
M  V30 4382 C 398.893 5.18796 0.604002 0
M  V30 4383 H 400.587 2.99321 0.0685625 0
M  V30 4384 H 398.133 1.43965 0.0315363 0
M  V30 4385 H 400.086 3.41517 2.46868 0
M  V30 4386 H 398.81 2.17287 2.43832 0
M  V30 4387 H 397.469 3.57121 0.828275 0
M  V30 4388 H 397.117 3.80174 3.29358 0
M  V30 4389 H 396.817 5.34132 2.44901 0
M  V30 4390 H 398.341 5.10442 3.35084 0
M  V30 4391 H 399.755 5.61883 1.13842 0
M  V30 4392 H 398.152 5.98506 0.437097 0
M  V30 4393 H 399.222 4.83384 -0.383147 0
M  V30 4394 N 400.565 -0.0233959 1.57583 0
M  V30 4395 C 401.498 -1.05549 2.02323 0
M  V30 4396 C 402.476 -1.34843 0.908626 0
M  V30 4397 O 403.66 -1.47404 1.17491 0
M  V30 4398 C 400.787 -2.38885 2.40108 0
M  V30 4399 C 399.833 -2.2541 3.62067 0
M  V30 4400 S 400.666 -1.60217 5.1097 0
M  V30 4401 C 401.822 -2.95032 5.52003 0
M  V30 4402 H 402.055 -0.674435 2.89549 0
M  V30 4403 H 399.588 -0.23355 1.52623 0
M  V30 4404 H 401.546 -3.15562 2.62547 0
M  V30 4405 H 400.207 -2.74137 1.53323 0
M  V30 4406 H 399.4 -3.23854 3.86179 0
M  V30 4407 H 399.002 -1.56876 3.39508 0
M  V30 4408 H 401.294 -3.91357 5.53033 0
M  V30 4409 H 402.237 -2.75646 6.52246 0
M  V30 4410 H 402.645 -2.97865 4.79517 0
M  V30 4411 N 402.043 -1.548 -0.295768 0
M  V30 4412 C 402.953 -1.89177 -1.38742 0
M  V30 4413 C 403.969 -0.786481 -1.55211 0
M  V30 4414 O 405.145 -1.08344 -1.69775 0
M  V30 4415 C 402.21 -2.13663 -2.73036 0
M  V30 4416 C 401.271 -3.37349 -2.65508 0
M  V30 4417 C 400.504 -3.60658 -3.93398 0
M  V30 4418 O 400.727 -2.86882 -4.93006 0
M  V30 4419 O 399.661 -4.54179 -3.94975 0
M  V30 4420 H 403.487 -2.82059 -1.12589 0
M  V30 4421 H 401.072 -1.41056 -0.492295 0
M  V30 4422 H 402.954 -2.3094 -3.52484 0
M  V30 4423 H 401.629 -1.23967 -2.99022 0
M  V30 4424 H 400.536 -3.25431 -1.84514 0
M  V30 4425 H 401.869 -4.27192 -2.44474 0
M  V30 4426 N 403.521 0.559213 -1.47345 0
M  V30 4427 C 404.468 1.66645 -1.59682 0
M  V30 4428 C 405.438 1.60168 -0.43994 0
M  V30 4429 O 406.623 1.79031 -0.659736 0
M  V30 4430 C 403.763 3.04969 -1.61518 0
M  V30 4431 C 402.876 3.21897 -2.88108 0
M  V30 4432 C 402.011 4.50608 -2.81294 0
M  V30 4433 C 401.05 4.60961 -4.02717 0
M  V30 4434 N 400.187 5.81024 -3.94151 0
M  V30 4435 H 405.027 1.55439 -2.54249 0
M  V30 4436 H 402.564 0.757219 -1.26113 0
M  V30 4437 H 404.522 3.85064 -1.60566 0
M  V30 4438 H 403.152 3.15015 -0.704645 0
M  V30 4439 H 402.204 2.35248 -2.98936 0
M  V30 4440 H 403.516 3.25412 -3.78032 0
M  V30 4441 H 402.67 5.3896 -2.7858 0
M  V30 4442 H 401.409 4.49568 -1.89049 0
M  V30 4443 H 400.414 3.71021 -4.05738 0
M  V30 4444 H 401.639 4.63761 -4.96087 0
M  V30 4445 H 399.585 5.80938 -3.04708 0
M  V30 4446 H 399.502 5.85909 -4.77752 0
M  V30 4447 H 400.77 6.71744 -3.9545 0
M  V30 4448 N 404.999 1.35443 0.805782 0
M  V30 4449 C 406.41 1.25768 1.37983 0
M  V30 4450 C 406.761 -0.10958 1.95894 0
M  V30 4451 O 405.886 -1.01056 1.91355 0
M  V30 4452 C 406.481 2.27727 2.5085 0
M  V30 4453 C 405.04 2.2179 3.04115 0
M  V30 4454 C 404.187 2.13393 1.77084 0
M  V30 4455 H 407.138 1.4656 0.608752 0
M  V30 4456 H 407.159 1.90422 3.29424 0
M  V30 4457 H 406.671 3.27227 2.08671 0
M  V30 4458 H 404.772 1.25703 3.50756 0
M  V30 4459 H 404.885 3.13788 3.62042 0
M  V30 4460 H 403.249 1.59384 1.98668 0
M  V30 4461 H 404.032 3.14755 1.37056 0
M  V30 4462 N 406.477 -1.02803 1.19454 0
M  V30 4463 C 407.726 -1.7562 0.991996 0
M  V30 4464 C 408.039 -1.89672 -0.477901 0
M  V30 4465 O 409.245 -2.59468 -0.799287 0
M  V30 4466 C 407.701 -3.15812 1.72601 0
M  V30 4467 C 407.309 -3.0981 3.23607 0
M  V30 4468 C 409.053 -3.92918 1.60674 0
M  V30 4469 C 406.96 -4.44939 3.89594 0
M  V30 4470 H 405.89 -0.658352 0.367543 0
M  V30 4471 H 408.541 -1.15044 1.42959 0
M  V30 4472 H 406.923 -3.7686 1.21624 0
M  V30 4473 H 408.097 -2.58138 3.81709 0
M  V30 4474 H 406.412 -2.46201 3.35819 0
M  V30 4475 H 409.009 -4.9287 2.07323 0
M  V30 4476 H 409.352 -4.12502 0.561025 0
M  V30 4477 H 409.885 -3.38472 2.09001 0
M  V30 4478 H 406.624 -4.30559 4.94267 0
M  V30 4479 H 406.144 -4.96664 3.36281 0
M  V30 4480 H 407.823 -5.1382 3.93189 0
M  V30 4481 N 407.956 -0.998596 -1.21925 0
M  V30 4482 C 408.903 -0.553621 -2.24062 0
M  V30 4483 C 409.873 0.416999 -1.6078 0
M  V30 4484 O 411.058 0.320482 -1.88089 0
M  V30 4485 C 408.198 0.119959 -3.44891 0
M  V30 4486 C 407.311 -0.893077 -4.22668 0
M  V30 4487 C 406.446 -0.192424 -5.30851 0
M  V30 4488 C 405.485 -1.19344 -6.00353 0
M  V30 4489 N 404.622 -0.520707 -7.00166 0
M  V30 4490 H 409.462 -1.4293 -2.61486 0
M  V30 4491 H 406.999 -0.715838 -1.28507 0
M  V30 4492 H 408.957 0.527459 -4.13852 0
M  V30 4493 H 407.587 0.959389 -3.08214 0
M  V30 4494 H 406.639 -1.41886 -3.52948 0
M  V30 4495 H 407.951 -1.65512 -4.70539 0
M  V30 4496 H 407.105 0.271515 -6.06092 0
M  V30 4497 H 405.844 0.602075 -4.83969 0
M  V30 4498 H 404.849 -1.66795 -5.23889 0
M  V30 4499 H 406.074 -1.98891 -6.49322 0
M  V30 4500 H 404.02 0.254252 -6.55507 0
M  V30 4501 H 403.937 -1.2211 -7.46073 0
M  V30 4502 H 405.205 -0.0797596 -7.79459 0
M  V30 4503 N 409.434 1.37368 -0.772513 0
M  V30 4504 C 410.845 1.8231 -0.402493 0
M  V30 4505 C 411.196 1.6436 1.07146 0
M  V30 4506 O 410.321 1.15514 1.82991 0
M  V30 4507 C 410.916 3.30979 -0.723776 0
M  V30 4508 C 409.475 3.74195 -0.406802 0
M  V30 4509 C 408.622 2.59885 -0.967218 0
M  V30 4510 H 411.573 1.25829 -0.967099 0
M  V30 4511 H 411.594 3.80499 -0.00870832 0
M  V30 4512 H 411.106 3.44011 -1.7966 0
M  V30 4513 H 409.207 3.66732 0.658673 0
M  V30 4514 H 409.32 4.7027 -0.915588 0
M  V30 4515 H 407.684 2.51674 -0.391416 0
M  V30 4516 H 408.467 2.7571 -2.04546 0
M  V30 4517 N 410.912 0.523116 1.48665 0
M  V30 4518 C 412.158 -0.0134963 2.02796 0
M  V30 4519 C 412.491 -1.34582 1.40004 0
M  V30 4520 O 411.766 -1.86756 0.543381 0
M  V30 4521 C 412.049 -0.14276 3.59817 0
M  V30 4522 C 411.902 1.21425 4.331 0
M  V30 4523 C 413.221 -0.872856 4.31357 0
M  V30 4524 H 410.34 -0.00343074 0.736992 0
M  V30 4525 H 412.982 0.678816 1.7746 0
M  V30 4526 H 411.132 -0.732401 3.81534 0
M  V30 4527 H 412.804 1.84447 4.2282 0
M  V30 4528 H 411.047 1.79791 3.94788 0
M  V30 4529 H 411.718 1.07687 5.41394 0
M  V30 4530 H 414.194 -0.372555 4.14429 0
M  V30 4531 H 413.07 -0.932185 5.40927 0
M  V30 4532 H 413.331 -1.92161 3.98154 0
M  V30 4533 N 412.39 -1.55475 0.257931 0
M  V30 4534 C 413.801 -1.8511 -0.243135 0
M  V30 4535 C 414.152 -1.17986 -1.5676 0
M  V30 4536 O 413.277 -0.462102 -2.11409 0
M  V30 4537 C 413.872 -3.35826 -0.447929 0
M  V30 4538 C 412.431 -3.65647 -0.893245 0
M  V30 4539 C 411.578 -2.7729 0.0232965 0
M  V30 4540 H 414.529 -1.51261 0.480199 0
M  V30 4541 H 414.55 -3.58002 -1.28898 0
M  V30 4542 H 414.062 -3.84652 0.516196 0
M  V30 4543 H 412.163 -3.22308 -1.86945 0
M  V30 4544 H 412.276 -4.73312 -0.742469 0
M  V30 4545 H 410.64 -2.49942 -0.490021 0
M  V30 4546 H 411.423 -3.28926 0.982994 0
M  V30 4547 N 413.868 0.0150385 -1.57593 0
M  V30 4548 C 414.8 1.03912 -2.04291 0
M  V30 4549 C 415.813 1.31618 -0.958146 0
M  V30 4550 O 417.002 1.28859 -1.23522 0
M  V30 4551 C 414.102 2.37749 -2.41514 0
M  V30 4552 C 413.275 2.29198 -3.72541 0
M  V30 4553 C 412.334 3.45598 -3.96797 0
M  V30 4554 O 411.36 3.24461 -4.67668 0
M  V30 4555 N 412.562 4.67945 -3.43523 0
M  V30 4556 H 415.327 0.64099 -2.92765 0
M  V30 4557 H 412.888 0.20272 -1.60626 0
M  V30 4558 H 414.88 3.14364 -2.54867 0
M  V30 4559 H 413.45 2.69357 -1.58637 0
M  V30 4560 H 412.67 1.3759 -3.69408 0
M  V30 4561 H 413.958 2.20642 -4.5847 0
M  V30 4562 H 413.356 4.88017 -2.86104 0
M  V30 4563 H 411.913 5.41878 -3.62232 0
M  V30 4564 N 415.346 1.54954 0.287554 0
M  V30 4565 C 416.623 1.65569 1.04146 0
M  V30 4566 C 417.003 0.512672 2.0478 0
M  V30 4567 O 416.351 -0.489038 2.23205 0
M  V30 4568 C 416.561 3.04163 1.71131 0
M  V30 4569 C 417.909 3.61429 2.22832 0
M  V30 4570 O 418.933 3.06702 1.81141 0
M  V30 4571 O 417.792 4.57281 2.9926 0
M  V30 4572 H 414.886 0.671881 0.482188 0
M  V30 4573 H 417.432 1.67297 0.28457 0
M  V30 4574 H 416.204 3.78796 0.981303 0
M  V30 4575 H 415.827 3.06271 2.53543 0
M  V30 4576 N 416.824 -0.551391 1.4764 0
M  V30 4577 C 417.754 -1.66757 1.63445 0
M  V30 4578 C 418.735 -1.63077 0.483742 0
M  V30 4579 O 419.92 -1.80607 0.71377 0
M  V30 4580 C 417.05 -3.05387 1.65396 0
M  V30 4581 C 416.004 -3.23918 2.79752 0
M  V30 4582 C 415.33 -4.63393 2.66779 0
M  V30 4583 C 416.63 -3.08735 4.21284 0
M  V30 4584 H 418.324 -1.53786 2.56886 0
M  V30 4585 H 415.87 -0.738415 1.23626 0
M  V30 4586 H 417.823 -3.83325 1.75043 0
M  V30 4587 H 416.547 -3.19332 0.685195 0
M  V30 4588 H 415.206 -2.48391 2.69625 0
M  V30 4589 H 414.854 -4.74144 1.67918 0
M  V30 4590 H 414.554 -4.7674 3.43501 0
M  V30 4591 H 416.078 -5.43458 2.78364 0
M  V30 4592 H 417.492 -3.76484 4.32357 0
M  V30 4593 H 415.889 -3.33588 4.98838 0
M  V30 4594 H 416.959 -2.0541 4.39243 0
M  V30 4595 N 418.302 -1.35869 -0.798587 0
M  V30 4596 C 419.579 -1.20145 -1.54352 0
M  V30 4597 C 419.959 0.216161 -2.0999 0
M  V30 4598 O 419.307 1.22068 -1.93162 0
M  V30 4599 C 419.517 -2.27602 -2.64572 0
M  V30 4600 C 420.865 -2.63811 -3.32699 0
M  V30 4601 O 421.889 -2.26576 -2.74849 0
M  V30 4602 O 420.748 -3.27866 -4.37226 0
M  V30 4603 H 417.842 -0.467248 -0.682355 0
M  V30 4604 H 420.388 -1.47574 -0.837859 0
M  V30 4605 H 419.16 -3.2265 -2.21388 0
M  V30 4606 H 418.783 -2.01488 -3.42766 0
M  V30 4607 N 419.78 1.02168 -1.19998 0
M  V30 4608 C 420.728 2.12717 -0.940967 0
M  V30 4609 C 421.722 1.69069 0.105841 0
M  V30 4610 O 422.928 1.79946 -0.0440583 0
M  V30 4611 H 419.303 0.695108 -0.28693 0
M  V30 4612 H 421.274 2.3175 -1.87975 0
M  V30 4613 C 420.023 3.44027 -0.504049 0
M  V30 4614 H 419.346 3.78036 -1.30112 0
M  V30 4615 H 420.786 4.22452 -0.361991 0
M  V30 4616 C 419.245 3.27678 0.782878 0
M  V30 4617 O 419.775 3.56949 1.84256 0
M  V30 4618 N 417.981 2.80943 0.742921 0
M  V30 4619 H 417.528 2.57322 -0.119687 0
M  V30 4620 H 417.486 2.70385 1.60435 0
M  V30 4621 N 421.258 1.00505 1.21394 0
M  V30 4622 C 422.505 0.687774 1.90462 0
M  V30 4623 C 422.833 -0.78147 1.7811 0
M  V30 4624 O 422.088 -1.58208 1.1519 0
M  V30 4625 C 422.387 1.0546 3.41486 0
M  V30 4626 C 422.053 2.51812 3.74034 0
M  V30 4627 C 420.715 2.91804 3.82628 0
M  V30 4628 C 423.067 3.46614 3.8924 0
M  V30 4629 C 420.395 4.2556 4.03876 0
M  V30 4630 C 422.747 4.80044 4.11995 0
M  V30 4631 C 421.411 5.19759 4.18816 0
M  V30 4632 H 420.681 0.251674 0.696951 0
M  V30 4633 H 423.328 1.26349 1.43903 0
M  V30 4634 H 421.633 0.397133 3.89782 0
M  V30 4635 H 423.33 0.786976 3.93202 0
M  V30 4636 H 419.92 2.1982 3.67936 0
M  V30 4637 H 424.104 3.16883 3.81967 0
M  V30 4638 H 419.36 4.55901 4.07387 0
M  V30 4639 H 423.534 5.53439 4.22704 0
M  V30 4640 H 421.161 6.23418 4.35033 0
M  V30 4641 N 422.737 -1.36956 0.779787 0
M  V30 4642 C 423.986 -1.98738 0.344405 0
M  V30 4643 C 424.299 -1.62596 -1.08728 0
M  V30 4644 O 425.505 -2.1754 -1.62445 0
M  V30 4645 C 423.961 -3.5544 0.564829 0
M  V30 4646 C 423.569 -4.00514 2.0073 0
M  V30 4647 C 425.313 -4.24059 0.193471 0
M  V30 4648 C 423.22 -5.49957 2.17489 0
M  V30 4649 H 422.15 -0.743561 0.12503 0
M  V30 4650 H 424.801 -1.56381 0.960057 0
M  V30 4651 H 423.183 -3.95817 -0.120397 0
M  V30 4652 H 424.357 -3.71362 2.72814 0
M  V30 4653 H 422.672 -3.44703 2.336 0
M  V30 4654 H 425.269 -5.33874 0.297097 0
M  V30 4655 H 425.612 -4.07378 -0.857263 0
M  V30 4656 H 426.145 -3.89012 0.831556 0
M  V30 4657 H 422.884 -5.71574 3.2091 0
M  V30 4658 H 422.404 -5.80767 1.49899 0
M  V30 4659 H 424.083 -6.16043 1.97738 0
M  V30 4660 N 424.215 -0.530993 -1.48385 0
M  V30 4661 C 425.178 0.220497 -2.28137 0
M  V30 4662 C 426.178 0.866851 -1.35434 0
M  V30 4663 O 427.368 0.726746 -1.58316 0
M  V30 4664 C 424.5 1.31921 -3.1434 0
M  V30 4665 H 425.693 -0.479714 -2.96038 0
M  V30 4666 H 423.246 -0.286968 -1.53643 0
M  V30 4667 H 423.981 2.05264 -2.51072 0
M  V30 4668 H 423.766 0.86085 -3.82533 0
M  V30 4669 H 425.256 1.84776 -3.74497 0
M  V30 4670 N 425.693 1.55336 -0.266172 0
M  V30 4671 C 426.641 2.23587 0.641228 0
M  V30 4672 C 427.635 1.22986 1.16494 0
M  V30 4673 O 428.841 1.40943 1.1196 0
M  V30 4674 H 425.216 0.717452 0.225315 0
M  V30 4675 H 427.187 2.9837 0.0426561 0
M  V30 4676 C 425.936 2.96369 1.81826 0
M  V30 4677 H 425.259 3.73563 1.42445 0
M  V30 4678 H 426.699 3.47459 2.42998 0
M  V30 4679 C 425.158 2.0133 2.70125 0
M  V30 4680 O 425.688 1.55875 3.70224 0
M  V30 4681 N 423.894 1.6802 2.37102 0
M  V30 4682 H 423.441 2.05181 1.55751 0
M  V30 4683 H 423.399 1.047 2.96454 0
M  V30 4684 N 427.171 -0.0066808 1.57599 0
M  V30 4685 C 428.418 -0.69292 1.90276 0
M  V30 4686 C 428.746 -1.74148 0.866192 0
M  V30 4687 O 428.001 -1.95268 -0.129933 0
M  V30 4688 C 428.3 -1.37939 3.29708 0
M  V30 4689 C 427.966 -0.464679 4.48499 0
M  V30 4690 C 426.628 -0.212809 4.80729 0
M  V30 4691 C 428.98 0.16551 5.20937 0
M  V30 4692 C 426.308 0.677653 5.82773 0
M  V30 4693 C 428.66 1.04381 6.23929 0
M  V30 4694 C 427.324 1.30492 6.54621 0
M  V30 4695 H 426.594 -0.253558 0.696268 0
M  V30 4696 H 429.241 0.0474123 1.91441 0
M  V30 4697 H 427.546 -2.1936 3.24636 0
M  V30 4698 H 429.243 -1.9163 3.52249 0
M  V30 4699 H 425.833 -0.671153 4.23313 0
M  V30 4700 H 430.017 -0.0160756 4.96297 0
M  V30 4701 H 425.273 0.88803 6.04917 0
M  V30 4702 H 429.447 1.53851 6.79193 0
M  V30 4703 H 427.074 1.99662 7.33512 0
M  V30 4704 N 428.649 -1.55105 -0.279332 0
M  V30 4705 C 429.897 -1.75066 -1.00977 0
M  V30 4706 C 430.218 -0.551276 -1.87045 0
M  V30 4707 O 429.488 0.433984 -1.91032 0
M  V30 4708 H 428.068 -0.645578 -0.375816 0
M  V30 4709 H 430.73 -1.92497 -0.305089 0
M  V30 4710 H 429.826 -2.64894 -1.65038 0
M  V30 4711 N 430.127 0.543554 -1.4793 0
M  V30 4712 C 431.404 1.30458 -1.4574 0
M  V30 4713 C 431.784 2.1048 -0.161692 0
M  V30 4714 O 431.132 2.11831 0.856734 0
M  V30 4715 C 431.342 2.19754 -2.71126 0
M  V30 4716 C 432.69 2.80334 -3.18901 0
M  V30 4717 O 433.714 2.30049 -2.71948 0
M  V30 4718 O 432.573 3.71766 -4.00565 0
M  V30 4719 H 429.667 0.588117 -0.581418 0
M  V30 4720 H 432.213 0.561328 -1.60147 0
M  V30 4721 H 430.985 1.60316 -3.56952 0
M  V30 4722 H 430.608 3.01351 -2.59371 0
M  V30 4723 N 431.605 1.3629 0.791371 0
M  V30 4724 C 432.568 1.30309 1.88553 0
M  V30 4725 C 433.568 0.211204 1.59407 0
M  V30 4726 O 434.758 0.465865 1.67855 0
M  V30 4727 C 431.89 1.01956 3.25297 0
M  V30 4728 H 433.083 2.27614 1.95273 0
M  V30 4729 H 430.636 1.21035 0.988953 0
M  V30 4730 H 431.371 0.050998 3.2426 0
M  V30 4731 H 431.156 1.80968 3.4784 0
M  V30 4732 H 432.646 1.0037 4.05359 0
M  V30 4733 N 433.083 -1.0153 1.20538 0
M  V30 4734 C 434.331 -1.74803 1.01432 0
M  V30 4735 C 434.652 -1.8963 -0.454456 0
M  V30 4736 O 433.922 -1.43975 -1.32846 0
M  V30 4737 H 432.502 -0.647598 0.372324 0
M  V30 4738 H 435.164 -1.22402 1.5167 0
M  V30 4739 H 434.26 -2.75114 1.47373 0
M  V30 4740 N 434.561 -1.01147 -1.20859 0
M  V30 4741 C 435.808 -0.697865 -1.90095 0
M  V30 4742 C 436.136 0.772014 -1.78522 0
M  V30 4743 O 435.391 1.57595 -1.16027 0
M  V30 4744 C 435.69 -1.0727 -3.40922 0
M  V30 4745 C 435.356 -2.53792 -3.72693 0
M  V30 4746 C 434.018 -2.93829 -3.81075 0
M  V30 4747 C 436.37 -3.48674 -3.87397 0
M  V30 4748 C 433.698 -4.27696 -4.01613 0
M  V30 4749 C 436.05 -4.82223 -4.09444 0
M  V30 4750 C 434.714 -5.21973 -4.16054 0
M  V30 4751 H 433.984 -0.255367 -0.695607 0
M  V30 4752 H 436.631 -1.27111 -1.43231 0
M  V30 4753 H 434.936 -0.417799 -3.89566 0
M  V30 4754 H 436.633 -0.807818 -3.92779 0
M  V30 4755 H 433.223 -2.21768 -3.66765 0
M  V30 4756 H 437.407 -3.18904 -3.80281 0
M  V30 4757 H 432.663 -4.58055 -4.04964 0
M  V30 4758 H 436.837 -5.55672 -4.19763 0
M  V30 4759 H 434.464 -6.25717 -4.31721 0
M  V30 4760 N 436.039 1.36541 -0.78704 0
M  V30 4761 C 437.285 1.99599 -0.358872 0
M  V30 4762 C 437.618 1.62323 1.06606 0
M  V30 4763 O 436.893 0.876858 1.73613 0
M  V30 4764 C 437.176 3.56327 -0.519944 0
M  V30 4765 C 437.029 4.03464 -1.98839 0
M  V30 4766 C 438.348 4.4005 0.0664737 0
M  V30 4767 H 435.467 0.725107 -0.131869 0
M  V30 4768 H 438.109 1.6199 -0.992936 0
M  V30 4769 H 436.259 3.88495 0.0198321 0
M  V30 4770 H 437.931 3.81793 -2.58905 0
M  V30 4771 H 436.174 3.55092 -2.49183 0
M  V30 4772 H 436.845 5.12439 -2.05207 0
M  V30 4773 H 439.321 4.14228 -0.394267 0
M  V30 4774 H 438.197 5.48847 -0.0762682 0
M  V30 4775 H 438.458 4.26655 1.15835 0
M  V30 4776 N 437.518 0.538854 1.48102 0
M  V30 4777 C 438.448 -0.207654 2.32575 0
M  V30 4778 C 439.429 -0.926559 1.4265 0
M  V30 4779 O 440.614 -0.91061 1.71527 0
M  V30 4780 C 437.744 -1.24957 3.24042 0
M  V30 4781 C 436.698 -0.648263 4.23062 0
M  V30 4782 C 436.024 -1.79348 5.03725 0
M  V30 4783 C 437.324 0.385897 5.20872 0
M  V30 4784 H 439.018 0.497534 2.95237 0
M  V30 4785 H 436.564 0.240715 1.41974 0
M  V30 4786 H 438.517 -1.77983 3.81969 0
M  V30 4787 H 437.241 -1.98446 2.59397 0
M  V30 4788 H 435.9 -0.139452 3.66335 0
M  V30 4789 H 435.548 -2.51696 4.35498 0
M  V30 4790 H 435.248 -1.39702 5.70751 0
M  V30 4791 H 436.772 -2.32735 5.64506 0
M  V30 4792 H 438.186 -0.057607 5.73271 0
M  V30 4793 H 436.583 0.700227 5.96001 0
M  V30 4794 H 437.653 1.28848 4.67468 0
M  V30 4795 N 438.996 -1.55193 0.274407 0
M  V30 4796 C 440.242 -1.99877 -0.343086 0
M  V30 4797 C 440.575 -1.16256 -1.55558 0
M  V30 4798 O 439.85 -0.232462 -1.93106 0
M  V30 4799 C 440.133 -3.52706 -0.725965 0
M  V30 4800 C 439.986 -4.47081 0.493818 0
M  V30 4801 C 441.305 -4.11422 -1.56268 0
M  V30 4802 H 438.424 -0.726625 -0.123229 0
M  V30 4803 H 441.066 -1.86136 0.38121 0
M  V30 4804 H 439.216 -3.64546 -1.34307 0
M  V30 4805 H 440.888 -4.47186 1.13237 0
M  V30 4806 H 439.131 -4.1877 1.13201 0
M  V30 4807 H 439.802 -5.51699 0.18217 0
M  V30 4808 H 442.278 -4.02855 -1.04151 0
M  V30 4809 H 441.154 -5.18568 -1.79939 0
M  V30 4810 H 441.415 -3.61607 -2.54348 0
M  V30 4811 N 440.474 -0.00167713 -1.576 0
M  V30 4812 C 441.437 0.974046 -2.07473 0
M  V30 4813 C 442.437 1.27143 -0.984444 0
M  V30 4814 O 443.627 1.21633 -1.24703 0
M  V30 4815 C 440.759 2.29849 -2.51759 0
M  V30 4816 H 441.952 0.54262 -2.9495 0
M  V30 4817 H 439.505 0.245829 -1.54355 0
M  V30 4818 H 440.24 2.77677 -1.67529 0
M  V30 4819 H 440.025 2.09584 -3.31386 0
M  V30 4820 H 441.515 2.9984 -2.90664 0
M  V30 4821 N 441.952 1.55251 0.271103 0
M  V30 4822 C 443.199 1.75946 1.00245 0
M  V30 4823 C 443.527 0.561611 1.86215 0
M  V30 4824 O 442.782 -0.455832 1.90317 0
M  V30 4825 C 443.081 3.01879 1.91321 0
M  V30 4826 C 442.747 4.34337 1.21086 0
M  V30 4827 C 441.409 4.70338 1.01666 0
M  V30 4828 C 443.761 5.16325 0.71119 0
M  V30 4829 C 441.089 5.8588 0.310099 0
M  V30 4830 C 443.441 6.32597 0.0182157 0
M  V30 4831 C 442.105 6.67236 -0.18768 0
M  V30 4832 H 441.375 0.643833 0.366824 0
M  V30 4833 H 444.022 1.89521 0.27458 0
M  V30 4834 H 442.327 2.83212 2.70736 0
M  V30 4835 H 444.024 3.15088 2.48033 0
M  V30 4836 H 440.614 4.06043 1.37213 0
M  V30 4837 H 444.798 4.88987 0.848844 0
M  V30 4838 H 440.054 6.1124 0.139873 0
M  V30 4839 H 444.228 6.9538 -0.376711 0
M  V30 4840 H 441.855 7.56618 -0.73715 0
M  V30 4841 N 443.43 -0.535701 1.48216 0
M  V30 4842 C 444.678 -1.28928 1.55634 0
M  V30 4843 C 444.999 -1.93645 0.229514 0
M  V30 4844 O 444.269 -1.81038 -0.74846 0
M  V30 4845 H 442.849 -0.47884 0.573342 0
M  V30 4846 H 445.511 -0.623853 1.84646 0
M  V30 4847 H 444.607 -2.07157 2.33436 0
M  V30 4848 N 444.908 -1.36708 -0.784132 0
M  V30 4849 C 446.133 -1.34565 -1.5782 0
M  V30 4850 C 446.558 0.0695257 -1.87971 0
M  V30 4851 O 445.916 1.04302 -1.48293 0
M  V30 4852 C 445.964 -2.17952 -2.87279 0
M  V30 4853 O 445.068 -1.57563 -3.81114 0
M  V30 4854 H 444.409 -0.460337 -0.478524 0
M  V30 4855 H 446.939 -1.80064 -0.971495 0
M  V30 4856 H 446.949 -2.30721 -3.365 0
M  V30 4857 H 445.624 -3.20823 -2.64661 0
M  V30 4858 H 444.201 -1.53764 -3.39722 0
M  V30 4859 N 446.386 1.0089 -1.21074 0
M  V30 4860 C 447.319 2.09279 -0.909806 0
M  V30 4861 C 448.297 1.61986 0.141145 0
M  V30 4862 O 449.481 1.88495 0.0130332 0
M  V30 4863 C 446.608 3.36723 -0.365374 0
M  V30 4864 C 445.654 4.02919 -1.39852 0
M  V30 4865 S 446.487 4.45835 -2.96633 0
M  V30 4866 C 447.643 5.76471 -2.43786 0
M  V30 4867 H 447.876 2.34484 -1.82769 0
M  V30 4868 H 445.409 1.14115 -1.04006 0
M  V30 4869 H 447.367 4.10459 -0.0578203 0
M  V30 4870 H 446.028 3.09577 0.531136 0
M  V30 4871 H 445.221 4.94634 -0.967117 0
M  V30 4872 H 444.823 3.35441 -1.65395 0
M  V30 4873 H 447.115 6.52027 -1.84029 0
M  V30 4874 H 448.058 6.24418 -3.33928 0
M  V30 4875 H 448.466 5.33104 -1.85636 0
M  V30 4876 N 447.864 1.01787 1.20321 0
M  V30 4877 C 448.794 0.609625 2.25401 0
M  V30 4878 C 449.775 -0.375951 1.65893 0
M  V30 4879 O 450.96 -0.261101 1.92437 0
M  V30 4880 C 448.09 -0.0515995 3.47262 0
M  V30 4881 C 447.044 0.855095 4.19371 0
M  V30 4882 C 446.37 0.0595757 5.34667 0
M  V30 4883 C 447.67 2.16374 4.75373 0
M  V30 4884 H 449.364 1.48803 2.59804 0
M  V30 4885 H 446.91 0.716934 1.24884 0
M  V30 4886 H 448.863 -0.348764 4.19954 0
M  V30 4887 H 447.587 -0.964726 3.12027 0
M  V30 4888 H 446.246 1.13628 3.48546 0
M  V30 4889 H 445.894 -0.85524 4.95676 0
M  V30 4890 H 445.594 0.663406 5.83843 0
M  V30 4891 H 447.118 -0.231105 6.10162 0
M  V30 4892 H 448.532 1.92885 5.39878 0
M  V30 4893 H 446.929 2.71853 5.34991 0
M  V30 4894 H 447.999 2.82589 3.94045 0
M  V30 4895 N 449.342 -1.36122 0.79427 0
M  V30 4896 C 450.29 -2.31871 0.184023 0
M  V30 4897 C 451.284 -1.56041 -0.659365 0
M  V30 4898 O 452.49 -1.71266 -0.553906 0
M  V30 4899 H 448.865 -0.750896 0.0407373 0
M  V30 4900 H 450.836 -2.80898 1.00693 0
M  V30 4901 C 449.585 -3.41324 -0.662813 0
M  V30 4902 H 448.908 -3.99793 -0.0231944 0
M  V30 4903 H 450.348 -4.10629 -1.05639 0
M  V30 4904 C 448.807 -2.83308 -1.82313 0
M  V30 4905 O 449.337 -2.75863 -2.91997 0
M  V30 4906 N 447.543 -2.40529 -1.63077 0
M  V30 4907 H 447.09 -2.46785 -0.738591 0
M  V30 4908 H 447.048 -2.02059 -2.40872 0
M  V30 4909 N 450.82 -0.546701 -1.47814 0
M  V30 4910 C 452.048 -0.0232857 -2.06887 0
M  V30 4911 C 452.463 1.26571 -1.4009 0
M  V30 4912 O 451.82 1.7569 -0.493906 0
M  V30 4913 C 451.871 0.186975 -3.61016 0
M  V30 4914 O 451.592 -1.05097 -4.25307 0
M  V30 4915 C 453.093 0.748872 -4.36929 0
M  V30 4916 H 450.313 -0.0410763 -0.669742 0
M  V30 4917 H 452.857 -0.757117 -1.89968 0
M  V30 4918 H 451.012 0.870903 -3.77484 0
M  V30 4919 H 451.426 -0.842121 -5.17695 0
M  V30 4920 H 452.9 0.845334 -5.45489 0
M  V30 4921 H 453.377 1.75772 -4.02493 0
M  V30 4922 H 453.983 0.100979 -4.2518 0
M  V30 4923 N 452.299 1.55045 -0.282633 0
M  V30 4924 C 453.249 2.19514 0.616249 0
M  V30 4925 C 454.233 1.16216 1.11277 0
M  V30 4926 O 455.425 1.42004 1.05659 0
M  V30 4927 C 452.554 2.92548 1.7964 0
M  V30 4928 C 451.64 4.03142 1.31671 0
M  V30 4929 N 452.031 5.0276 0.553695 0
M  V30 4930 C 450.329 4.1635 1.59903 0
M  V30 4931 C 451.03 5.80923 0.30054 0
M  V30 4932 N 450.006 5.3651 0.875116 0
M  V30 4933 H 453.808 2.93889 0.0255363 0
M  V30 4934 H 451.322 1.62169 -0.0865362 0
M  V30 4935 H 453.319 3.37188 2.45173 0
M  V30 4936 H 451.979 2.19685 2.39099 0
M  V30 4937 H 452.99 5.17512 0.20032 0
M  V30 4938 H 449.667 3.54682 2.20243 0
M  V30 4939 H 451.057 6.7118 -0.311053 0
M  V30 4940 N 453.777 0.010035 1.57597 0
M  V30 4941 C 454.709 -1.00649 2.05918 0
M  V30 4942 C 455.722 -1.30077 0.978964 0
M  V30 4943 O 456.911 -1.26878 1.25556 0
M  V30 4944 C 454.011 -2.33876 2.45265 0
M  V30 4945 C 453.184 -2.23242 3.7614 0
M  V30 4946 C 452.243 -3.39242 4.02245 0
M  V30 4947 O 451.269 -3.1698 4.72771 0
M  V30 4948 N 452.471 -4.6242 3.50924 0
M  V30 4949 H 455.236 -0.594333 2.93748 0
M  V30 4950 H 452.797 -0.17714 1.60928 0
M  V30 4951 H 454.789 -3.1027 2.59836 0
M  V30 4952 H 453.359 -2.66799 1.62902 0
M  V30 4953 H 452.579 -1.31696 3.71551 0
M  V30 4954 H 453.867 -2.13321 4.61922 0
M  V30 4955 H 453.265 -4.83404 2.93832 0
M  V30 4956 H 451.822 -5.36046 3.70807 0
M  V30 4957 N 455.255 -1.55392 -0.262866 0
M  V30 4958 C 456.48 -1.80847 -1.01533 0
M  V30 4959 C 456.905 -0.584946 -1.78774 0
M  V30 4960 O 456.263 0.465701 -1.75217 0
M  V30 4961 C 456.311 -3.03866 -1.94159 0
M  V30 4962 O 455.415 -2.79662 -3.03089 0
M  V30 4963 H 454.756 -0.597441 -0.289759 0
M  V30 4964 H 457.286 -2.02553 -0.288698 0
M  V30 4965 H 457.296 -3.32872 -2.35924 0
M  V30 4966 H 455.971 -3.92564 -1.37354 0
M  V30 4967 H 454.548 -2.61781 -2.65566 0
M  V30 4968 N 456.733 0.527833 -1.48498 0
M  V30 4969 C 457.665 1.6482 -1.5927 0
M  V30 4970 C 458.678 1.55659 -0.476869 0
M  V30 4971 O 459.867 1.62081 -0.747806 0
M  V30 4972 C 456.967 3.0348 -1.50842 0
M  V30 4973 C 456.14 3.381 -2.77502 0
M  V30 4974 C 455.199 4.5605 -2.62497 0
M  V30 4975 O 454.225 4.59165 -3.36387 0
M  V30 4976 N 455.427 5.54353 -1.72257 0
M  V30 4977 H 458.192 1.56015 -2.55889 0
M  V30 4978 H 455.753 0.715152 -1.45249 0
M  V30 4979 H 457.745 3.80264 -1.38496 0
M  V30 4980 H 456.315 3.06352 -0.621887 0
M  V30 4981 H 455.535 2.50473 -3.04396 0
M  V30 4982 H 456.823 3.58017 -3.61527 0
M  V30 4983 H 456.221 5.54617 -1.11431 0
M  V30 4984 H 454.778 6.30347 -1.65849 0
M  V30 4985 N 458.211 1.37122 0.776871 0
M  V30 4986 C 459.121 1.34651 1.9211 0
M  V30 4987 C 460.137 0.246824 1.7224 0
M  V30 4988 O 461.313 0.48134 1.95563 0
M  V30 4989 C 458.378 1.14748 3.2716 0
M  V30 4990 C 457.439 2.34308 3.5972 0
M  V30 4991 C 456.672 2.15345 4.88326 0
M  V30 4992 O 456.895 1.13507 5.58992 0
M  V30 4993 O 455.829 3.03414 5.1983 0
M  V30 4994 H 459.655 2.31013 1.97146 0
M  V30 4995 H 457.24 1.17799 0.918901 0
M  V30 4996 H 459.122 1.05616 4.0795 0
M  V30 4997 H 457.797 0.214562 3.22988 0
M  V30 4998 H 456.704 2.49011 2.79185 0
M  V30 4999 H 458.037 3.26149 3.68629 0
M  V30 5000 N 459.689 -1.00246 1.21608 0
M  V30 5001 C 460.935 -1.74319 1.03638 0
M  V30 5002 C 461.268 -1.89408 -0.428749 0
M  V30 5003 O 460.543 -1.43026 -1.3181 0
M  V30 5004 C 460.826 -3.15431 1.73711 0
M  V30 5005 C 460.679 -3.08049 3.27759 0
M  V30 5006 C 461.998 -4.14407 1.48173 0
M  V30 5007 H 459.117 -0.632741 0.377899 0
M  V30 5008 H 461.759 -1.16853 1.49818 0
M  V30 5009 H 459.909 -3.64493 1.34452 0
M  V30 5010 H 461.581 -2.66681 3.76403 0
M  V30 5011 H 459.824 -2.45088 3.57931 0
M  V30 5012 H 460.495 -4.07862 3.71958 0
M  V30 5013 H 462.971 -3.74061 1.82258 0
M  V30 5014 H 461.847 -5.11279 1.99713 0
M  V30 5015 H 462.108 -4.40174 0.412273 0
M  V30 5016 N 461.167 -1.02423 -1.1978 0
M  V30 5017 C 462.097 -0.62157 -2.25075 0
M  V30 5018 C 463.078 0.367148 -1.6609 0
M  V30 5019 O 464.263 0.250892 -1.92573 0
M  V30 5020 C 461.393 0.0331826 -3.47284 0
M  V30 5021 C 460.347 -0.877323 -4.18912 0
M  V30 5022 C 459.673 -0.0879296 -5.34628 0
M  V30 5023 C 460.973 -2.18892 -4.74219 0
M  V30 5024 H 462.667 -1.50179 -2.59011 0
M  V30 5025 H 460.213 -0.723547 -1.24502 0
M  V30 5026 H 462.166 0.326488 -4.20133 0
M  V30 5027 H 460.89 0.948164 -3.12534 0
M  V30 5028 H 459.549 -1.15475 -3.47938 0
M  V30 5029 H 459.197 0.828941 -4.96123 0
M  V30 5030 H 458.897 -0.694359 -5.83483 0
M  V30 5031 H 460.421 0.198743 -6.10276 0
M  V30 5032 H 461.835 -1.95746 -5.38847 0
M  V30 5033 H 460.232 -2.74686 -5.33542 0
M  V30 5034 H 461.302 -2.84674 -3.92541 0
M  V30 5035 N 462.645 1.35699 -0.801477 0
M  V30 5036 C 463.592 2.29876 -0.206294 0
M  V30 5037 C 464.562 1.52565 0.656752 0
M  V30 5038 O 465.747 1.81024 0.602906 0
M  V30 5039 C 462.887 3.39052 0.643272 0
M  V30 5040 C 462 4.31335 -0.239644 0
M  V30 5041 C 461.135 5.27599 0.61744 0
M  V30 5042 C 460.174 6.11521 -0.26619 0
M  V30 5043 N 459.311 6.99938 0.550571 0
M  V30 5044 H 464.151 2.80187 -1.01484 0
M  V30 5045 H 461.688 1.37902 -0.511997 0
M  V30 5046 H 463.646 4.0101 1.15094 0
M  V30 5047 H 462.276 2.9003 1.41713 0
M  V30 5048 H 461.328 3.70426 -0.865381 0
M  V30 5049 H 462.64 4.90243 -0.919985 0
M  V30 5050 H 461.794 5.94906 1.19045 0
M  V30 5051 H 460.533 4.69176 1.33137 0
M  V30 5052 H 459.538 5.43166 -0.851507 0
M  V30 5053 H 460.763 6.72022 -0.9779 0
M  V30 5054 H 458.709 6.44008 1.24856 0
M  V30 5055 H 458.626 7.55966 -0.071832 0
M  V30 5056 H 459.894 7.71599 1.10702 0
M  V30 5057 N 464.123 0.554532 1.47522 0
M  V30 5058 C 465.07 -0.19466 2.29978 0
M  V30 5059 C 466.04 -0.910882 1.38896 0
M  V30 5060 O 467.225 -0.907102 1.67858 0
M  V30 5061 C 464.365 -1.22035 3.22802 0
M  V30 5062 C 463.478 -0.510474 4.28973 0
M  V30 5063 C 462.613 -1.52123 5.08952 0
M  V30 5064 C 461.652 -0.796173 6.069 0
M  V30 5065 N 460.789 -1.75363 6.79847 0
M  V30 5066 H 465.629 0.51461 2.93523 0
M  V30 5067 H 463.166 0.265607 1.44682 0
M  V30 5068 H 465.124 -1.8276 3.7504 0
M  V30 5069 H 463.754 -1.89769 2.61127 0
M  V30 5070 H 462.806 0.211234 3.79813 0
M  V30 5071 H 464.118 0.0576503 4.98767 0
M  V30 5072 H 463.272 -2.20207 5.65326 0
M  V30 5073 H 462.011 -2.12327 4.39054 0
M  V30 5074 H 461.016 -0.101388 5.49707 0
M  V30 5075 H 462.241 -0.199911 6.78806 0
M  V30 5076 H 460.187 -2.3443 6.12682 0
M  V30 5077 H 460.104 -1.23759 7.45801 0
M  V30 5078 H 461.372 -2.4257 7.40797 0
M  V30 5079 N 465.601 -1.54893 0.290851 0
M  V30 5080 C 466.534 -2.19289 -0.631489 0
M  V30 5081 C 467.512 -1.15893 -1.14051 0
M  V30 5082 O 468.696 -1.4449 -1.21058 0
M  V30 5083 C 465.823 -2.82866 -1.86291 0
M  V30 5084 C 464.869 -3.997 -1.48801 0
M  V30 5085 S 465.702 -5.32641 -0.552644 0
M  V30 5086 C 466.858 -5.99696 -1.79209 0
M  V30 5087 H 467.091 -2.9718 -0.0843791 0
M  V30 5088 H 464.624 -1.54218 0.075031 0
M  V30 5089 H 466.582 -3.20124 -2.56964 0
M  V30 5090 H 465.243 -2.04839 -2.38117 0
M  V30 5091 H 464.436 -4.42932 -2.40473 0
M  V30 5092 H 464.038 -3.63947 -0.861321 0
M  V30 5093 H 466.33 -6.19886 -2.734 0
M  V30 5094 H 467.273 -6.94071 -1.40251 0
M  V30 5095 H 467.681 -5.29226 -1.96419 0
M  V30 5096 N 467.08 -0.0183926 -1.57589 0
M  V30 5097 C 468.03 0.975944 -2.06057 0
M  V30 5098 C 469.014 1.29204 -0.958908 0
M  V30 5099 O 470.206 1.27995 -1.22255 0
M  V30 5100 C 467.335 2.26194 -2.58247 0
M  V30 5101 C 466.421 1.97467 -3.75323 0
M  V30 5102 N 466.812 1.38968 -4.86335 0
M  V30 5103 C 465.11 2.27515 -3.83605 0
M  V30 5104 C 465.811 1.27131 -5.67638 0
M  V30 5105 N 464.787 1.76319 -5.14211 0
M  V30 5106 H 468.589 0.518444 -2.89291 0
M  V30 5107 H 466.103 0.18688 -1.61321 0
M  V30 5108 H 468.1 2.98289 -2.91255 0
M  V30 5109 H 466.76 2.7258 -1.76438 0
M  V30 5110 H 467.771 1.06608 -5.06809 0
M  V30 5111 H 464.448 2.76649 -3.12684 0
M  V30 5112 H 465.838 0.819882 -6.66879 0
M  V30 5113 N 468.558 1.5553 0.254621 0
M  V30 5114 C 469.506 1.9048 1.33492 0
M  V30 5115 C 470.5 0.78304 1.50216 0
M  V30 5116 O 471.706 0.967582 1.51782 0
M  V30 5117 H 468.081 0.604846 0.44684 0
M  V30 5118 H 470.052 2.80688 1.01275 0
M  V30 5119 C 468.801 2.20928 2.68489 0
M  V30 5120 H 468.124 3.06742 2.56417 0
M  V30 5121 H 469.564 2.49291 3.42972 0
M  V30 5122 C 468.023 1.023 3.20993 0
M  V30 5123 O 468.553 0.267027 4.00811 0
M  V30 5124 N 466.759 0.815714 2.78917 0
M  V30 5125 H 466.306 1.43217 2.14119 0
M  V30 5126 H 466.264 0.0236532 3.14391 0
M  V30 5127 N 470.036 -0.519951 1.48776 0
M  V30 5128 C 470.999 -1.60574 1.6355 0
M  V30 5129 C 471.999 -1.52557 0.508234 0
M  V30 5130 O 473.189 -1.56047 0.774262 0
M  V30 5131 C 470.321 -3.00211 1.61512 0
M  V30 5132 H 471.514 -1.4881 2.60376 0
M  V30 5133 H 469.067 -0.742772 1.37523 0
M  V30 5134 H 469.802 -3.17471 0.662009 0
M  V30 5135 H 469.587 -3.07439 2.43359 0
M  V30 5136 H 471.077 -3.79134 1.75064 0
M  V30 5137 N 471.514 -1.37532 -0.769588 0
M  V30 5138 C 472.761 -1.3286 -1.52822 0
M  V30 5139 C 473.089 0.0862597 -1.94309 0
M  V30 5140 O 472.344 1.05995 -1.6451 0
M  V30 5141 C 472.643 -2.21558 -2.8044 0
M  V30 5142 C 472.309 -3.69796 -2.57996 0
M  V30 5143 C 470.971 -4.10194 -2.51583 0
M  V30 5144 C 473.323 -4.63699 -2.37976 0
M  V30 5145 C 470.651 -5.42608 -2.23144 0
M  V30 5146 C 473.003 -5.96353 -2.1106 0
M  V30 5147 C 471.667 -6.35853 -2.03093 0
M  V30 5148 H 470.937 -0.486168 -0.559215 0
M  V30 5149 H 473.584 -1.69757 -0.886277 0
M  V30 5150 H 471.889 -1.77663 -3.49204 0
M  V30 5151 H 473.586 -2.15256 -3.38328 0
M  V30 5152 H 470.176 -3.37759 -2.63851 0
M  V30 5153 H 474.36 -4.33346 -2.41919 0
M  V30 5154 H 469.616 -5.72173 -2.15472 0
M  V30 5155 H 473.79 -6.68667 -1.94568 0
M  V30 5156 H 471.417 -7.38382 -1.8082 0
M  V30 5157 N 472.992 0.995999 -1.22138 0
M  V30 5158 C 473.955 2.06711 -0.990109 0
M  V30 5159 C 474.955 1.60744 0.0422978 0
M  V30 5160 O 476.145 1.73095 -0.195895 0
M  V30 5161 C 473.277 3.37288 -0.49491 0
M  V30 5162 H 474.47 2.28661 -1.94047 0
M  V30 5163 H 472.023 1.16711 -1.03963 0
M  V30 5164 H 472.758 3.21022 0.459948 0
M  V30 5165 H 472.543 3.71986 -1.23971 0
M  V30 5166 H 474.033 4.16103 -0.353253 0
M  V30 5167 N 474.47 1.03057 1.19235 0
M  V30 5168 C 475.42 0.583386 2.2041 0
M  V30 5169 C 476.404 -0.368776 1.56617 0
M  V30 5170 O 477.596 -0.189471 1.75983 0
M  V30 5171 C 474.725 -0.0626534 3.43243 0
M  V30 5172 C 473.811 0.91205 4.14177 0
M  V30 5173 N 474.202 2.07514 4.61272 0
M  V30 5174 C 472.5 0.735859 4.39888 0
M  V30 5175 C 473.201 2.69003 5.15764 0
M  V30 5176 N 472.177 1.96954 5.06666 0
M  V30 5177 H 475.979 1.46988 2.54503 0
M  V30 5178 H 473.493 0.897785 1.35328 0
M  V30 5179 H 475.49 -0.400653 4.1497 0
M  V30 5180 H 474.15 -0.944813 3.1065 0
M  V30 5181 H 475.161 2.45448 4.56043 0
M  V30 5182 H 471.838 -0.0970656 4.17387 0
M  V30 5183 H 473.228 3.67514 5.6248 0
M  V30 5184 N 475.948 -1.35272 0.808662 0
M  V30 5185 C 476.878 -2.32315 0.234981 0
M  V30 5186 C 477.859 -1.57572 -0.64071 0
M  V30 5187 O 479.044 -1.8563 -0.570551 0
M  V30 5188 C 476.174 -3.41801 -0.615601 0
M  V30 5189 C 475.128 -4.27694 0.161767 0
M  V30 5190 C 474.454 -5.28519 -0.810649 0
M  V30 5191 C 475.754 -5.04231 1.36193 0
M  V30 5192 H 477.448 -2.80543 1.04575 0
M  V30 5193 H 474.994 -1.3488 0.504315 0
M  V30 5194 H 476.947 -4.08693 -1.02702 0
M  V30 5195 H 475.671 -2.92186 -1.45928 0
M  V30 5196 H 474.33 -3.62384 0.554382 0
M  V30 5197 H 473.978 -4.75171 -1.64988 0
M  V30 5198 H 473.678 -5.8686 -0.294822 0
M  V30 5199 H 475.202 -5.98283 -1.22023 0
M  V30 5200 H 476.616 -5.64058 1.02528 0
M  V30 5201 H 475.013 -5.72077 1.81239 0
M  V30 5202 H 476.083 -4.34753 2.14751 0
M  V30 5203 N 477.426 -0.562348 -1.47226 0
M  V30 5204 C 478.837 -0.130325 -1.86245 0
M  V30 5205 C 479.188 1.30128 -1.46838 0
M  V30 5206 O 478.313 1.97974 -0.873805 0
M  V30 5207 C 478.908 -0.229738 -3.3802 0
M  V30 5208 C 477.467 0.14728 -3.76112 0
M  V30 5209 C 476.614 -0.574971 -2.71274 0
M  V30 5210 H 479.565 -0.771773 -1.3867 0
M  V30 5211 H 479.586 0.550316 -3.76499 0
M  V30 5212 H 479.098 -1.27178 -3.66671 0
M  V30 5213 H 477.199 1.19023 -3.53078 0
M  V30 5214 H 477.312 -0.214858 -4.78618 0
M  V30 5215 H 475.676 -0.0174756 -2.54694 0
M  V30 5216 H 476.459 -1.61827 -3.02766 0
M  V30 5217 N 478.904 1.54736 -0.299062 0
M  V30 5218 C 479.836 2.20891 0.61153 0
M  V30 5219 C 480.849 1.20104 1.09904 0
M  V30 5220 O 482.038 1.46707 1.01683 0
M  V30 5221 C 479.138 2.84018 1.84897 0
M  V30 5222 C 478.311 4.10719 1.50428 0
M  V30 5223 C 477.37 4.57667 2.59667 0
M  V30 5224 O 476.396 5.2291 2.24842 0
M  V30 5225 N 477.598 4.29821 3.90172 0
M  V30 5226 H 480.363 2.99666 0.0452001 0
M  V30 5227 H 477.924 1.61446 -0.121178 0
M  V30 5228 H 479.916 3.1236 2.5732 0
M  V30 5229 H 478.486 2.09095 2.32375 0
M  V30 5230 H 477.706 3.89408 0.612781 0
M  V30 5231 H 478.994 4.93223 1.24934 0
M  V30 5232 H 478.392 3.77549 4.21276 0
M  V30 5233 H 476.949 4.62877 4.58899 0
M  V30 5234 N 480.382 0.0267497 1.57577 0
M  V30 5235 C 481.63 -0.651116 1.91324 0
M  V30 5236 C 481.951 -1.72804 0.90353 0
M  V30 5237 O 481.221 -1.95822 -0.0552946 0
M  V30 5238 H 479.801 -0.243491 0.706202 0
M  V30 5239 H 482.463 0.0739935 1.94759 0
M  V30 5240 H 481.559 -1.10536 2.9187 0
M  V30 5241 N 481.861 -1.55662 -0.24637 0
M  V30 5242 C 483.107 -1.77782 -0.975779 0
M  V30 5243 C 483.44 -0.592103 -1.84953 0
M  V30 5244 O 482.715 0.409588 -1.90138 0
M  V30 5245 C 482.998 -3.09788 -1.83584 0
M  V30 5246 C 482.851 -4.38764 -0.990241 0
M  V30 5247 C 484.17 -3.38029 -2.81823 0
M  V30 5248 H 481.289 -0.646789 -0.353317 0
M  V30 5249 H 483.931 -1.88398 -0.246248 0
M  V30 5250 H 482.081 -3.00869 -2.45784 0
M  V30 5251 H 483.753 -4.59675 -0.386897 0
M  V30 5252 H 481.996 -4.32798 -0.294626 0
M  V30 5253 H 482.667 -5.27514 -1.62584 0
M  V30 5254 H 485.143 -3.46915 -2.2976 0
M  V30 5255 H 484.019 -4.3161 -3.39122 0
M  V30 5256 H 484.28 -2.58968 -3.58313 0
M  V30 5257 N 483.339 0.512053 -1.4905 0
M  V30 5258 C 484.588 1.26343 -1.57227 0
M  V30 5259 C 484.901 1.93876 -0.259155 0
M  V30 5260 O 486.107 2.70612 -0.219358 0
M  V30 5261 C 484.563 2.29343 -2.77362 0
M  V30 5262 C 484.171 1.67799 -4.15388 0
M  V30 5263 C 485.915 3.05378 -2.94864 0
M  V30 5264 C 483.822 2.68845 -5.2676 0
M  V30 5265 H 482.752 0.475231 -0.585382 0
M  V30 5266 H 485.403 0.53862 -1.75417 0
M  V30 5267 H 483.785 3.04938 -2.52643 0
M  V30 5268 H 484.959 0.982715 -4.50199 0
M  V30 5269 H 483.274 1.04194 -4.03153 0
M  V30 5270 H 485.871 3.80921 -3.75238 0
M  V30 5271 H 486.214 3.62327 -2.05 0
M  V30 5272 H 486.747 2.36898 -3.19569 0
M  V30 5273 H 483.486 2.16692 -6.18647 0
M  V30 5274 H 483.006 3.36647 -4.96416 0
M  V30 5275 H 484.685 3.31487 -5.5563 0
M  V30 5276 N 484.817 1.37938 0.762283 0
M  V30 5277 C 486.063 1.34873 1.52253 0
M  V30 5278 C 486.418 -0.0635972 1.92295 0
M  V30 5279 O 485.711 -1.02434 1.61919 0
M  V30 5280 C 485.905 2.23042 2.79261 0
M  V30 5281 C 485.734 3.72706 2.51635 0
M  V30 5282 C 484.504 4.41771 2.45289 0
M  V30 5283 C 486.702 4.65345 2.18994 0
M  V30 5284 N 484.684 5.76921 2.09846 0
M  V30 5285 C 486.055 5.88943 1.9377 0
M  V30 5286 C 488.11 4.53636 2.0523 0
M  V30 5287 C 486.813 7.02142 1.5617 0
M  V30 5288 C 488.839 5.6673 1.69031 0
M  V30 5289 C 488.201 6.89383 1.44673 0
M  V30 5290 H 484.3 0.548818 0.557067 0
M  V30 5291 H 486.884 1.73247 0.888458 0
M  V30 5292 H 485.055 1.8687 3.40491 0
M  V30 5293 H 486.787 2.11165 3.45241 0
M  V30 5294 H 483.542 3.94883 2.61465 0
M  V30 5295 H 483.966 6.4837 1.94794 0
M  V30 5296 H 488.608 3.5937 2.2274 0
M  V30 5297 H 486.326 7.96334 1.37399 0
M  V30 5298 H 489.912 5.59645 1.59026 0
M  V30 5299 H 488.792 7.75411 1.17079 0
M  V30 5300 N 486.295 -0.989507 1.22664 0
M  V30 5301 C 487.523 -1.76496 1.07967 0
M  V30 5302 C 487.938 -1.85148 -0.369543 0
M  V30 5303 O 487.295 -1.32408 -1.25596 0
M  V30 5304 C 487.346 -3.19642 1.68853 0
M  V30 5305 O 487.067 -3.11453 3.08105 0
M  V30 5306 C 488.568 -4.13621 1.59475 0
M  V30 5307 H 485.788 -0.55418 0.378319 0
M  V30 5308 H 488.332 -1.24378 1.62328 0
M  V30 5309 H 486.487 -3.68816 1.18547 0
M  V30 5310 H 486.901 -4.01499 3.37489 0
M  V30 5311 H 488.375 -5.11801 2.06795 0
M  V30 5312 H 488.852 -4.35718 0.55191 0
M  V30 5313 H 489.458 -3.70346 2.09103 0
M  V30 5314 N 487.773 -1.03688 -1.18687 0
M  V30 5315 C 489.013 -0.746858 -1.90267 0
M  V30 5316 C 489.377 0.712075 -1.78307 0
M  V30 5317 O 490.578 1.11553 -2.44559 0
M  V30 5318 C 488.849 -1.19543 -3.36815 0
M  V30 5319 S 490.408 -1.03047 -4.26529 0
M  V30 5320 H 487.226 -0.271663 -0.657054 0
M  V30 5321 H 489.828 -1.32838 -1.43437 0
M  V30 5322 H 488.532 -2.2527 -3.43047 0
M  V30 5323 H 488.063 -0.607533 -3.88681 0
M  V30 5324 H 490.078 0.0543232 -4.9617 0
M  V30 5325 N 489.251 1.34841 -0.815825 0
M  V30 5326 C 490.183 2.28409 -0.190265 0
M  V30 5327 C 491.196 1.50705 0.615771 0
M  V30 5328 O 492.385 1.72822 0.446616 0
M  V30 5329 C 489.485 3.30441 0.752446 0
M  V30 5330 C 488.658 4.37399 -0.00922152 0
M  V30 5331 C 487.717 5.19234 0.853351 0
M  V30 5332 O 486.743 5.68404 0.300919 0
M  V30 5333 N 487.945 5.38248 2.17416 0
M  V30 5334 H 490.71 2.82732 -0.994114 0
M  V30 5335 H 488.271 1.47289 -0.672129 0
M  V30 5336 H 490.263 3.82084 1.33394 0
M  V30 5337 H 488.833 2.76565 1.45707 0
M  V30 5338 H 488.053 3.86567 -0.771979 0
M  V30 5339 H 489.341 5.05992 -0.533807 0
M  V30 5340 H 488.739 4.99961 2.6468 0
M  V30 5341 H 487.296 5.93035 2.70467 0
M  V30 5342 N 490.729 0.570148 1.46925 0
M  V30 5343 C 491.954 0.0542592 2.07329 0
M  V30 5344 C 492.379 -1.23582 1.41806 0
M  V30 5345 O 491.737 -1.74341 0.497479 0
M  V30 5346 C 491.785 -0.111175 3.60429 0
M  V30 5347 O 490.889 -1.17071 3.95434 0
M  V30 5348 H 490.23 0.0571425 0.661537 0
M  V30 5349 H 492.76 0.789516 1.88753 0
M  V30 5350 H 492.77 -0.321315 4.06733 0
M  V30 5351 H 491.445 0.831012 4.07513 0
M  V30 5352 H 490.022 -0.940029 3.60857 0
M  V30 5353 N 492.207 -1.54576 0.307264 0
M  V30 5354 C 493.432 -2.05139 -0.305379 0
M  V30 5355 C 493.857 -1.18278 -1.46259 0
M  V30 5356 O 493.215 -0.188243 -1.8032 0
M  V30 5357 C 493.263 -3.53066 -0.733283 0
M  V30 5358 O 492.367 -3.69206 -1.83741 0
M  V30 5359 H 491.708 -0.661444 -0.0582105 0
M  V30 5360 H 494.238 -1.99569 0.450931 0
M  V30 5361 H 494.248 -3.95034 -1.02039 0
M  V30 5362 H 492.923 -4.15746 0.113198 0
M  V30 5363 H 491.5 -3.39143 -1.55037 0
M  V30 5364 N 493.685 -0.035106 -1.57561 0
M  V30 5365 C 494.635 0.954034 -2.0708 0
M  V30 5366 C 495.619 1.2818 -0.972558 0
M  V30 5367 O 496.811 1.26691 -1.23606 0
M  V30 5368 C 493.94 2.23442 -2.60631 0
M  V30 5369 C 493.026 1.93475 -3.77396 0
M  V30 5370 N 493.417 1.33802 -4.87781 0
M  V30 5371 C 491.715 2.23434 -3.85996 0
M  V30 5372 C 492.416 1.21103 -5.68954 0
M  V30 5373 N 491.392 1.70855 -5.16052 0
M  V30 5374 H 495.194 0.487731 -2.89825 0
M  V30 5375 H 492.708 0.169759 -1.6151 0
M  V30 5376 H 494.705 2.95183 -2.94402 0
M  V30 5377 H 493.365 2.70693 -1.79319 0
M  V30 5378 H 494.376 1.01227 -5.07911 0
M  V30 5379 H 491.053 2.73317 -3.15601 0
M  V30 5380 H 492.443 0.749105 -6.67711 0
M  V30 5381 N 495.163 1.55791 0.238111 0
M  V30 5382 C 496.409 1.79211 0.962035 0
M  V30 5383 C 496.764 0.605463 1.82625 0
M  V30 5384 O 496.057 -0.40104 1.87356 0
M  V30 5385 C 496.251 3.05869 1.84875 0
M  V30 5386 C 496.08 4.36739 1.07186 0
M  V30 5387 C 494.85 4.99346 0.773424 0
M  V30 5388 C 497.048 5.1237 0.445168 0
M  V30 5389 N 495.03 6.13894 -0.0266037 0
M  V30 5390 C 496.401 6.19613 -0.219023 0
M  V30 5391 C 498.456 4.96622 0.356522 0
M  V30 5392 C 497.159 7.1282 -0.963358 0
M  V30 5393 C 499.185 5.90214 -0.374304 0
M  V30 5394 C 498.547 6.96872 -1.0271 0
M  V30 5395 H 494.646 0.707627 0.332849 0
M  V30 5396 H 497.23 1.93284 0.234368 0
M  V30 5397 H 495.401 2.93108 2.54837 0
M  V30 5398 H 497.133 3.17547 2.5089 0
M  V30 5399 H 493.888 4.60948 1.08738 0
M  V30 5400 H 494.312 6.75727 -0.414968 0
M  V30 5401 H 498.954 4.14232 0.846878 0
M  V30 5402 H 496.672 7.94704 -1.46529 0
M  V30 5403 H 500.258 5.80106 -0.443678 0
M  V30 5404 H 499.138 7.68045 -1.58358 0
M  V30 5405 N 496.642 -0.504142 1.49319 0
M  V30 5406 C 498.053 -1.08572 1.51885 0
M  V30 5407 C 498.404 -1.93842 0.303255 0
M  V30 5408 O 497.529 -2.0828 -0.58724 0
M  V30 5409 C 498.124 -1.97574 2.75227 0
M  V30 5410 C 496.683 -2.509 2.80581 0
M  V30 5411 C 495.83 -1.28447 2.45757 0
M  V30 5412 H 498.781 -0.288194 1.56061 0
M  V30 5413 H 498.802 -2.82219 2.55211 0
M  V30 5414 H 498.314 -1.35486 3.63683 0
M  V30 5415 H 496.415 -3.16636 1.96398 0
M  V30 5416 H 496.528 -2.88268 3.82673 0
M  V30 5417 H 494.892 -1.60868 1.97468 0
M  V30 5418 H 495.675 -0.68072 3.36483 0
M  V30 5419 N 498.12 -1.38341 -0.754957 0
M  V30 5420 C 499.536 -1.19508 -1.05783 0
M  V30 5421 C 499.736 -0.0428005 -2.01455 0
M  V30 5422 O 498.792 0.611861 -2.44975 0
M  V30 5423 C 500.105 -2.52091 -1.63923 0
M  V30 5424 C 501.653 -2.58762 -1.76101 0
M  V30 5425 C 502.128 -3.91517 -2.37652 0
M  V30 5426 N 503.619 -3.93049 -2.45085 0
M  V30 5427 C 504.354 -4.9253 -2.93602 0
M  V30 5428 N 503.85 -6.02408 -3.42165 0
M  V30 5429 N 505.643 -4.79921 -2.92629 0
M  V30 5430 H 497.794 -2.1206 -0.120056 0
M  V30 5431 H 500.057 -0.94089 -0.11589 0
M  V30 5432 H 499.763 -3.36858 -1.01093 0
M  V30 5433 H 499.637 -2.70388 -2.63003 0
M  V30 5434 H 502.024 -1.74391 -2.38058 0
M  V30 5435 H 502.105 -2.44333 -0.757294 0
M  V30 5436 H 501.749 -4.76309 -1.76329 0
M  V30 5437 H 501.679 -4.03256 -3.38662 0
M  V30 5438 H 504.17 -3.13685 -2.10736 0
M  V30 5439 H 504.483 -6.74248 -3.77637 0
M  V30 5440 H 502.828 -6.0603 -3.40225 0
M  V30 5441 H 506.019 -3.93194 -2.54001 0
M  V30 5442 H 506.192 -5.57601 -3.30128 0
M  V30 5443 N 499.598 0.982988 -1.23187 0
M  V30 5444 C 500.875 1.69814 -0.970707 0
M  V30 5445 C 501.255 2.04811 0.511424 0
M  V30 5446 O 500.603 1.73924 1.48198 0
M  V30 5447 C 500.813 2.94143 -1.87831 0
M  V30 5448 C 502.161 3.66712 -2.14026 0
M  V30 5449 O 503.185 3.04171 -1.8536 0
M  V30 5450 O 502.044 4.79258 -2.62629 0
M  V30 5451 H 499.138 0.741659 -0.365884 0
M  V30 5452 H 501.684 1.03844 -1.34218 0
M  V30 5453 H 500.456 2.64858 -2.88038 0
M  V30 5454 H 500.079 3.6785 -1.50905 0
M  V30 5455 N 501.076 1.04316 1.18135 0
M  V30 5456 C 502.322 0.749128 1.88457 0
M  V30 5457 C 502.655 -0.72149 1.803 0
M  V30 5458 O 501.93 -1.52676 1.205 0
M  V30 5459 C 502.213 1.21905 3.38838 0
M  V30 5460 C 502.066 2.75195 3.55792 0
M  V30 5461 C 503.385 0.811085 4.32561 0
M  V30 5462 H 500.504 0.273611 0.684329 0
M  V30 5463 H 503.146 1.29561 1.38975 0
M  V30 5464 H 501.296 0.754137 3.8111 0
M  V30 5465 H 502.968 3.29743 3.22595 0
M  V30 5466 H 501.211 3.14899 2.98364 0
M  V30 5467 H 501.882 3.03135 4.61317 0
M  V30 5468 H 504.358 1.21118 3.98082 0
M  V30 5469 H 503.234 1.16761 5.36338 0
M  V30 5470 H 503.495 -0.285596 4.41177 0
M  V30 5471 N 502.554 -1.34406 0.822964 0
M  V30 5472 C 503.504 -2.26963 0.217208 0
M  V30 5473 C 504.488 -1.48536 -0.618545 0
M  V30 5474 O 505.68 -1.7056 -0.473118 0
M  V30 5475 C 502.809 -3.37655 -0.619973 0
M  V30 5476 C 501.895 -4.23495 0.226411 0
M  V30 5477 N 502.286 -4.88876 1.29744 0
M  V30 5478 C 500.584 -4.45999 0.0107554 0
M  V30 5479 C 501.285 -5.52642 1.81553 0
M  V30 5480 N 500.261 -5.31949 1.11942 0
M  V30 5481 H 504.063 -2.75017 1.03647 0
M  V30 5482 H 501.577 -1.48126 0.665777 0
M  V30 5483 H 503.574 -4.02932 -1.07011 0
M  V30 5484 H 502.234 -2.91151 -1.43739 0
M  V30 5485 H 503.245 -4.89886 1.68024 0
M  V30 5486 H 499.922 -4.10253 -0.774495 0
M  V30 5487 H 501.312 -6.14755 2.71156 0
M  V30 5488 N 504.032 -0.577932 -1.46621 0
M  V30 5489 C 504.962 0.145917 -2.33044 0
M  V30 5490 C 505.943 0.888412 -1.45056 0
M  V30 5491 O 507.128 0.864812 -1.73881 0
M  V30 5492 C 504.258 1.16322 -3.27241 0
M  V30 5493 C 503.212 0.535868 -4.24632 0
M  V30 5494 C 502.538 1.65929 -5.08303 0
M  V30 5495 C 503.838 -0.523861 -5.19666 0
M  V30 5496 H 505.532 -0.575636 -2.93814 0
M  V30 5497 H 503.078 -0.278272 -1.41286 0
M  V30 5498 H 505.031 1.67793 -3.86553 0
M  V30 5499 H 503.755 1.91498 -2.64567 0
M  V30 5500 H 502.414 0.0422759 -3.66576 0
M  V30 5501 H 502.062 2.40061 -4.42018 0
M  V30 5502 H 501.762 1.2452 -5.74255 0
M  V30 5503 H 503.286 2.17686 -5.70478 0
M  V30 5504 H 504.7 -0.0944059 -5.73222 0
M  V30 5505 H 503.097 -0.858 -5.93935 0
M  V30 5506 H 504.167 -1.41197 -4.63887 0
M  V30 5507 N 505.51 1.54411 -0.315457 0
M  V30 5508 C 506.473 2.22713 0.54142 0
M  V30 5509 C 507.473 1.2179 1.04995 0
M  V30 5510 O 508.663 1.46426 0.943667 0
M  V30 5511 C 505.795 2.92485 1.75116 0
M  V30 5512 H 506.988 2.99849 -0.0555508 0
M  V30 5513 H 504.541 1.56159 -0.0664453 0
M  V30 5514 H 505.276 2.19466 2.38758 0
M  V30 5515 H 505.061 3.66483 1.39401 0
M  V30 5516 H 506.551 3.44548 2.35959 0
M  V30 5517 N 506.988 0.0434614 1.5754 0
M  V30 5518 C 508.216 -0.641835 1.96693 0
M  V30 5519 C 508.631 -1.64832 0.920652 0
M  V30 5520 O 507.988 -1.82247 -0.095993 0
M  V30 5521 C 508.039 -1.33557 3.35924 0
M  V30 5522 O 507.76 -0.369403 4.3654 0
M  V30 5523 C 509.261 -2.11135 3.89791 0
M  V30 5524 H 506.481 -0.176013 0.647503 0
M  V30 5525 H 509.025 0.107478 2.04217 0
M  V30 5526 H 507.18 -2.03617 3.29574 0
M  V30 5527 H 507.594 -0.863674 5.1734 0
M  V30 5528 H 509.068 -2.55107 4.89514 0
M  V30 5529 H 509.545 -2.95634 3.24803 0
M  V30 5530 H 510.151 -1.46002 3.99454 0
M  V30 5531 N 508.466 -1.55915 -0.229846 0
M  V30 5532 C 509.414 -1.9258 -1.30444 0
M  V30 5533 C 510.408 -0.806839 -1.48951 0
M  V30 5534 O 511.614 -0.991606 -1.50224 0
M  V30 5535 H 507.989 -0.611878 -0.437161 0
M  V30 5536 H 509.96 -2.82264 -0.96797 0
M  V30 5537 C 508.709 -2.25171 -2.6494 0
M  V30 5538 H 508.032 -3.10782 -2.51504 0
M  V30 5539 H 509.472 -2.54716 -3.38963 0
M  V30 5540 C 507.931 -1.07394 -3.19324 0
M  V30 5541 O 508.461 -0.330759 -4.00336 0
M  V30 5542 N 506.667 -0.859984 -2.77584 0
M  V30 5543 H 506.214 -1.46605 -2.11813 0
M  V30 5544 H 506.172 -0.0736671 -3.14314 0
M  V30 5545 N 509.944 0.496216 -1.49584 0
M  V30 5546 C 511.19 1.25189 -1.59548 0
M  V30 5547 C 511.523 1.9212 -0.283466 0
M  V30 5548 O 510.798 1.80947 0.713324 0
M  V30 5549 C 511.081 2.31516 -2.75812 0
M  V30 5550 C 510.934 1.69054 -4.16822 0
M  V30 5551 C 512.253 3.3304 -2.87702 0
M  V30 5552 H 509.372 0.45379 -0.580727 0
M  V30 5553 H 512.014 0.549327 -1.81886 0
M  V30 5554 H 510.164 2.91438 -2.56897 0
M  V30 5555 H 511.836 1.12923 -4.47265 0
M  V30 5556 H 510.079 0.994485 -4.22247 0
M  V30 5557 H 510.75 2.462 -4.94054 0
M  V30 5558 H 513.226 2.83114 -3.04936 0
M  V30 5559 H 512.102 4.04794 -3.7072 0
M  V30 5560 H 512.363 3.95655 -1.97255 0
M  V30 5561 N 511.423 1.38739 0.74761 0
M  V30 5562 C 512.37 1.36449 1.86146 0
M  V30 5563 C 513.34 0.226098 1.64554 0
M  V30 5564 O 514.525 0.41926 1.86137 0
M  V30 5565 C 511.665 1.2013 3.23516 0
M  V30 5566 C 510.778 2.43407 3.56899 0
M  V30 5567 C 509.913 2.19773 4.83605 0
M  V30 5568 C 508.952 3.3879 5.09792 0
M  V30 5569 N 508.089 3.14553 6.27695 0
M  V30 5570 H 512.929 2.3167 1.87438 0
M  V30 5571 H 510.466 1.15094 0.916063 0
M  V30 5572 H 512.424 1.08683 4.02795 0
M  V30 5573 H 511.054 0.285453 3.21535 0
M  V30 5574 H 510.106 2.65504 2.72418 0
M  V30 5575 H 511.418 3.32094 3.72176 0
M  V30 5576 H 510.572 2.05496 5.70838 0
M  V30 5577 H 509.311 1.28461 4.70478 0
M  V30 5578 H 508.316 3.53579 4.21025 0
M  V30 5579 H 509.541 4.30986 5.24812 0
M  V30 5580 H 507.487 2.25893 6.1588 0
M  V30 5581 H 507.404 3.96791 6.435 0
M  V30 5582 H 508.672 3.03943 7.17801 0
M  V30 5583 N 512.901 -0.976442 1.23707 0
M  V30 5584 C 514.15 -1.71254 1.06559 0
M  V30 5585 C 514.463 -1.91528 -0.397024 0
M  V30 5586 O 515.669 -2.62625 -0.688518 0
M  V30 5587 C 514.125 -3.08207 1.8584 0
M  V30 5588 C 513.733 -2.95806 3.36456 0
M  V30 5589 C 515.477 -3.85749 1.77194 0
M  V30 5590 C 513.384 -4.28015 4.08114 0
M  V30 5591 H 512.314 -0.642171 0.395136 0
M  V30 5592 H 514.965 -1.08877 1.4771 0
M  V30 5593 H 513.347 -3.71363 1.37498 0
M  V30 5594 H 514.521 -2.41716 3.92314 0
M  V30 5595 H 512.836 -2.31736 3.45959 0
M  V30 5596 H 515.433 -4.83633 2.28041 0
M  V30 5597 H 515.776 -4.09752 0.735477 0
M  V30 5598 H 516.309 -3.29303 2.23169 0
M  V30 5599 H 513.048 -4.09208 5.12083 0
M  V30 5600 H 512.568 -4.81955 3.57043 0
M  V30 5601 H 514.247 -4.96681 4.14629 0
M  V30 5602 N 514.379 -1.04941 -1.1758 0
M  V30 5603 C 515.625 -0.759112 -1.88057 0
M  V30 5604 C 515.958 0.711918 -1.8068 0
M  V30 5605 O 515.233 1.52035 -1.21308 0
M  V30 5606 C 515.516 -1.237 -3.38187 0
M  V30 5607 C 515.369 -2.77078 -3.54327 0
M  V30 5608 C 516.688 -0.834014 -4.32125 0
M  V30 5609 H 513.807 -0.277237 -0.682868 0
M  V30 5610 H 516.449 -1.30296 -1.38286 0
M  V30 5611 H 514.599 -0.774337 -3.80705 0
M  V30 5612 H 516.271 -3.31449 -3.20842 0
M  V30 5613 H 514.514 -3.16477 -2.96689 0
M  V30 5614 H 515.185 -3.05577 -4.59703 0
M  V30 5615 H 517.661 -1.23228 -3.97434 0
M  V30 5616 H 516.537 -1.19603 -5.35711 0
M  V30 5617 H 516.798 0.262195 -4.41322 0
M  V30 5618 N 515.857 1.33968 -0.830081 0
M  V30 5619 C 517.134 1.92554 -0.343858 0
M  V30 5620 C 517.514 1.7573 1.16971 0
M  V30 5621 O 516.862 1.14035 1.98011 0
M  V30 5622 C 517.072 3.40147 -0.781073 0
M  V30 5623 C 518.42 4.17299 -0.78402 0
M  V30 5624 O 519.444 3.48762 -0.724112 0
M  V30 5625 O 518.303 5.39631 -0.863739 0
M  V30 5626 H 515.397 0.821469 -0.0954827 0
M  V30 5627 H 517.943 1.42897 -0.915348 0
M  V30 5628 H 516.715 3.46225 -1.82329 0
M  V30 5629 H 516.338 3.97166 -0.18567 0
M  V30 5630 N 517.335 0.585699 1.46312 0
M  V30 5631 C 518.581 0.0808731 2.03239 0
M  V30 5632 C 518.936 -1.26609 1.44872 0
M  V30 5633 O 518.229 -1.81779 0.60556 0
M  V30 5634 C 518.423 -0.0401312 3.57377 0
M  V30 5635 C 518.252 1.29356 4.30694 0
M  V30 5636 C 517.022 1.86849 4.69484 0
M  V30 5637 C 519.22 2.21742 4.64042 0
M  V30 5638 N 517.202 3.13926 5.27564 0
M  V30 5639 C 518.573 3.33408 5.22723 0
M  V30 5640 C 520.628 2.21386 4.45974 0
M  V30 5641 C 519.331 4.44852 5.65242 0
M  V30 5642 C 521.357 3.31862 4.89511 0
M  V30 5643 C 520.719 4.42248 5.48266 0
M  V30 5644 H 516.818 0.072443 0.778637 0
M  V30 5645 H 519.402 0.779254 1.78426 0
M  V30 5646 H 517.573 -0.707686 3.81898 0
M  V30 5647 H 519.305 -0.549615 4.00951 0
M  V30 5648 H 516.06 1.40307 4.52339 0
M  V30 5649 H 516.484 3.78775 5.61122 0
M  V30 5650 H 521.126 1.37314 3.99881 0
M  V30 5651 H 518.844 5.29665 6.10312 0
M  V30 5652 H 522.43 3.32708 4.7728 0
M  V30 5653 H 521.31 5.26323 5.81338 0
M  V30 5654 N 518.813 -1.54241 0.323641 0
M  V30 5655 C 519.743 -2.27289 -0.534993 0
M  V30 5656 C 520.724 -1.28087 -1.11927 0
M  V30 5657 O 521.909 -1.56899 -1.14439 0
M  V30 5658 C 519.039 -3.03075 -1.69596 0
M  V30 5659 C 517.993 -4.09614 -1.24098 0
M  V30 5660 C 517.319 -4.73242 -2.4889 0
M  V30 5661 C 518.619 -5.21087 -0.355789 0
M  V30 5662 H 520.313 -2.99308 0.0743257 0
M  V30 5663 H 517.859 -1.43952 0.0371874 0
M  V30 5664 H 519.812 -3.52907 -2.30293 0
M  V30 5665 H 518.536 -2.28673 -2.33187 0
M  V30 5666 H 517.195 -3.60666 -0.656945 0
M  V30 5667 H 516.843 -3.95455 -3.10845 0
M  V30 5668 H 516.543 -5.45209 -2.19138 0
M  V30 5669 H 518.067 -5.25848 -3.10348 0
M  V30 5670 H 519.481 -5.66675 -0.869042 0
M  V30 5671 H 517.878 -5.9991 -0.151045 0
M  V30 5672 H 518.948 -4.81005 0.613339 0
M  V30 5673 N 520.291 -0.0518155 -1.57515 0
M  V30 5674 C 521.702 0.483787 -1.80323 0
M  V30 5675 C 522.053 1.70879 -0.964099 0
M  V30 5676 O 521.178 2.15643 -0.180872 0
M  V30 5677 C 521.773 0.884459 -3.27052 0
M  V30 5678 C 520.332 1.36504 -3.50776 0
M  V30 5679 C 519.479 0.340539 -2.75201 0
M  V30 5680 H 522.43 -0.277691 -1.56252 0
M  V30 5681 H 522.451 1.74733 -3.38007 0
M  V30 5682 H 521.963 -0.00731093 -3.88099 0
M  V30 5683 H 520.064 2.27598 -2.95009 0
M  V30 5684 H 520.177 1.35675 -4.59488 0
M  V30 5685 H 518.541 0.81356 -2.41357 0
M  V30 5686 H 519.324 -0.543156 -3.38976 0
M  V30 5687 N 521.769 1.56035 0.221574 0
M  V30 5688 C 522.701 1.889 1.29805 0
M  V30 5689 C 523.714 0.777269 1.43047 0
M  V30 5690 O 524.903 1.05557 1.43945 0
M  V30 5691 C 522.003 2.0825 2.67367 0
M  V30 5692 C 521.176 3.39267 2.76073 0
M  V30 5693 C 520.235 3.48049 3.94649 0
M  V30 5694 O 519.261 4.2108 3.82988 0
M  V30 5695 N 520.463 2.79191 5.08953 0
M  V30 5696 H 523.228 2.81831 1.01938 0
M  V30 5697 H 520.789 1.5658 0.411612 0
M  V30 5698 H 522.781 2.11441 3.45072 0
M  V30 5699 H 521.351 1.21944 2.87834 0
M  V30 5700 H 520.571 3.48175 1.84846 0
M  V30 5701 H 521.859 4.25575 2.7886 0
M  V30 5702 H 521.257 2.19635 5.21322 0
M  V30 5703 H 519.814 2.88043 5.84701 0
M  V30 5704 N 523.247 -0.488276 1.49845 0
M  V30 5705 C 524.472 -1.26997 1.63971 0
M  V30 5706 C 524.897 -1.85427 0.315994 0
M  V30 5707 O 524.255 -1.66475 -0.718032 0
M  V30 5708 C 524.303 -2.36689 2.72049 0
M  V30 5709 O 523.407 -3.40882 2.32107 0
M  V30 5710 H 522.748 -0.374376 0.548396 0
M  V30 5711 H 525.278 -0.583104 1.96115 0
M  V30 5712 H 525.288 -2.82262 2.94605 0
M  V30 5713 H 523.963 -1.93529 3.68129 0
M  V30 5714 H 522.54 -3.01139 2.19931 0
M  V30 5715 N 524.725 -1.39134 -0.740242 0
M  V30 5716 C 526.002 -1.26584 -1.49117 0
M  V30 5717 C 526.382 0.126902 -2.10718 0
M  V30 5718 O 525.73 1.13765 -1.98166 0
M  V30 5719 C 525.94 -2.38619 -2.54681 0
M  V30 5720 C 527.288 -2.77685 -3.21211 0
M  V30 5721 O 528.312 -2.38029 -2.64991 0
M  V30 5722 O 527.171 -3.46115 -4.22926 0
M  V30 5723 H 524.265 -0.495769 -0.661923 0
M  V30 5724 H 526.811 -1.50995 -0.774514 0
M  V30 5725 H 525.583 -3.3175 -2.07504 0
M  V30 5726 H 525.206 -2.15845 -3.33911 0
M  V30 5727 N 526.204 0.969867 -1.24223 0
M  V30 5728 C 527.134 2.08191 -1.05729 0
M  V30 5729 C 528.115 1.70075 0.0290765 0
M  V30 5730 O 529.3 1.93712 -0.137583 0
M  V30 5731 C 526.43 3.40991 -0.658995 0
M  V30 5732 C 525.384 3.93054 -1.69389 0
M  V30 5733 C 524.71 5.22171 -1.15072 0
M  V30 5734 C 526.01 4.21137 -3.08935 0
M  V30 5735 H 527.704 2.23921 -1.98746 0
M  V30 5736 H 525.25 1.07602 -0.956967 0
M  V30 5737 H 527.203 4.18221 -0.51662 0
M  V30 5738 H 525.927 3.25155 0.30686 0
M  V30 5739 H 524.586 3.17977 -1.82444 0
M  V30 5740 H 524.234 5.02694 -0.175539 0
M  V30 5741 H 523.934 5.57973 -1.84229 0
M  V30 5742 H 525.458 6.02013 -1.02042 0
M  V30 5743 H 526.872 4.8908 -2.99121 0
M  V30 5744 H 525.269 4.68163 -3.75425 0
M  V30 5745 H 526.339 3.27996 -3.57137 0
M  V30 5746 N 527.682 1.05563 1.17022 0
M  V30 5747 C 528.612 0.681026 2.23348 0
M  V30 5748 C 529.593 -0.322983 1.67005 0
M  V30 5749 O 530.778 -0.199746 1.9317 0
M  V30 5750 C 527.908 0.0589053 3.4725 0
M  V30 5751 C 526.862 0.988082 4.16438 0
M  V30 5752 C 526.188 0.229646 5.34207 0
M  V30 5753 C 527.488 2.31388 4.68249 0
M  V30 5754 H 529.182 1.56993 2.54938 0
M  V30 5755 H 526.728 0.756302 1.2254 0
M  V30 5756 H 528.681 -0.214982 4.20851 0
M  V30 5757 H 527.405 -0.864968 3.14938 0
M  V30 5758 H 526.064 1.24659 3.44754 0
M  V30 5759 H 525.712 -0.697111 4.98146 0
M  V30 5760 H 525.412 0.848815 5.81437 0
M  V30 5761 H 526.936 -0.0368694 6.10589 0
M  V30 5762 H 528.35 2.09964 5.33468 0
M  V30 5763 H 526.747 2.88736 5.26072 0
M  V30 5764 H 527.817 2.94982 3.84855 0
M  V30 5765 N 529.16 -1.33526 0.837174 0
M  V30 5766 C 530.123 -2.27551 0.274421 0
M  V30 5767 C 531.123 -1.50886 -0.555881 0
M  V30 5768 O 532.313 -1.70227 -0.369918 0
M  V30 5769 C 529.445 -3.35332 -0.613605 0
M  V30 5770 H 530.638 -2.78837 1.10408 0
M  V30 5771 H 528.191 -1.439 0.610126 0
M  V30 5772 H 528.926 -2.89285 -1.46577 0
M  V30 5773 H 528.711 -3.92095 -0.0195341 0
M  V30 5774 H 530.201 -4.05433 -1.00068 0
M  V30 5775 N 530.638 -0.59345 -1.46 0
M  V30 5776 C 531.588 0.154751 -2.27474 0
M  V30 5777 C 532.572 0.851849 -1.365 0
M  V30 5778 O 533.764 0.744171 -1.60596 0
M  V30 5779 C 530.893 1.16079 -3.2308 0
M  V30 5780 C 529.979 0.465256 -4.2154 0
M  V30 5781 N 530.37 -0.485197 -5.03467 0
M  V30 5782 C 528.668 0.714634 -4.40237 0
M  V30 5783 C 529.369 -0.892709 -5.74809 0
M  V30 5784 N 528.345 -0.239511 -5.43072 0
M  V30 5785 H 532.147 -0.57546 -2.88211 0
M  V30 5786 H 529.661 -0.416046 -1.5698 0
M  V30 5787 H 531.658 1.71108 -3.80168 0
M  V30 5788 H 530.318 1.89171 -2.63903 0
M  V30 5789 H 531.329 -0.861258 -5.10689 0
M  V30 5790 H 528.006 1.43131 -3.92199 0
M  V30 5791 H 529.396 -1.67581 -6.50666 0
M  V30 5792 N 532.116 1.54067 -0.331816 0
M  V30 5793 C 533.527 1.86059 0.15454 0
M  V30 5794 C 533.878 1.25331 1.50952 0
M  V30 5795 O 533.003 0.562441 2.08963 0
M  V30 5796 C 533.598 3.37581 0.287192 0
M  V30 5797 C 532.157 3.69493 0.717773 0
M  V30 5798 C 531.304 2.76863 -0.155569 0
M  V30 5799 H 534.255 1.48797 -0.55182 0
M  V30 5800 H 534.276 3.63744 1.11671 0
M  V30 5801 H 533.788 3.81751 -0.699131 0
M  V30 5802 H 531.889 3.3086 1.71354 0
M  V30 5803 H 532.002 4.76315 0.5158 0
M  V30 5804 H 530.366 2.51995 0.370213 0
M  V30 5805 H 531.149 3.23861 -1.13881 0
M  V30 5806 N 533.594 0.0601682 1.57485 0
M  V30 5807 C 534.819 -0.624416 1.97777 0
M  V30 5808 C 535.244 -1.63051 0.937867 0
M  V30 5809 O 534.602 -1.81036 -0.0978845 0
M  V30 5810 C 534.65 -1.27979 3.37126 0
M  V30 5811 O 533.754 -2.39556 3.35688 0
M  V30 5812 H 533.095 -0.161581 0.64404 0
M  V30 5813 H 535.625 0.131237 2.04179 0
M  V30 5814 H 535.635 -1.62937 3.74053 0
M  V30 5815 H 534.31 -0.542501 4.12347 0
M  V30 5816 H 532.887 -2.06478 3.10517 0
M  V30 5817 N 535.072 -1.5615 -0.213296 0
M  V30 5818 C 536.321 -1.78743 -0.93455 0
M  V30 5819 C 536.634 -0.630199 -1.8517 0
M  V30 5820 O 537.84 -0.739966 -2.61222 0
M  V30 5821 C 536.296 -3.16571 -1.71203 0
M  V30 5822 C 535.904 -4.40043 -0.840617 0
M  V30 5823 C 537.648 -3.48485 -2.42401 0
M  V30 5824 C 535.555 -5.68895 -1.61592 0
M  V30 5825 H 534.485 -0.666426 -0.352692 0
M  V30 5826 H 537.136 -1.82532 -0.188227 0
M  V30 5827 H 535.518 -3.06981 -2.50157 0
M  V30 5828 H 536.692 -4.6071 -0.0910326 0
M  V30 5829 H 535.007 -4.15706 -0.240365 0
M  V30 5830 H 537.604 -4.41983 -3.00924 0
M  V30 5831 H 537.947 -2.71371 -3.15695 0
M  V30 5832 H 538.48 -3.59442 -1.7043 0
M  V30 5833 H 535.219 -6.48925 -0.926106 0
M  V30 5834 H 534.739 -5.52275 -2.33991 0
M  V30 5835 H 536.418 -6.09365 -2.17447 0
M  V30 5836 N 536.55 0.480323 -1.50102 0
M  V30 5837 C 537.966 0.813295 -1.37323 0
M  V30 5838 C 538.166 1.97027 -0.422206 0
M  V30 5839 O 537.222 2.5212 0.138563 0
M  V30 5840 C 538.535 1.13404 -2.78496 0
M  V30 5841 C 540.083 1.24104 -2.87345 0
M  V30 5842 C 540.558 1.59497 -4.29331 0
M  V30 5843 N 542.049 1.66507 -4.32238 0
M  V30 5844 C 542.784 1.95378 -5.39087 0
M  V30 5845 N 542.28 2.22333 -6.56155 0
M  V30 5846 N 544.073 1.96803 -5.26522 0
M  V30 5847 H 536.224 -0.282291 -2.10516 0
M  V30 5848 H 538.487 -0.063752 -0.945854 0
M  V30 5849 H 538.193 0.357064 -3.49883 0
M  V30 5850 H 538.067 2.07251 -3.15162 0
M  V30 5851 H 540.454 2.00871 -2.16183 0
M  V30 5852 H 540.535 0.282593 -2.54234 0
M  V30 5853 H 540.179 0.832736 -5.01027 0
M  V30 5854 H 540.109 2.56477 -4.59921 0
M  V30 5855 H 542.6 1.47753 -3.47818 0
M  V30 5856 H 542.913 2.43611 -7.33399 0
M  V30 5857 H 541.258 2.19745 -6.59346 0
M  V30 5858 H 544.449 1.75235 -4.34062 0
M  V30 5859 H 544.622 2.18969 -6.09883 0
M  V30 5860 N 538.028 1.39524 0.732853 0
M  V30 5861 C 538.958 1.41153 1.86005 0
M  V30 5862 C 539.939 0.274614 1.67869 0
M  V30 5863 O 541.124 0.480745 1.88155 0
M  V30 5864 C 538.254 1.25638 3.23778 0
M  V30 5865 C 537.208 2.36752 3.56556 0
M  V30 5866 C 536.534 2.06326 4.93289 0
M  V30 5867 C 537.834 3.79069 3.5931 0
M  V30 5868 H 539.528 2.35484 1.84899 0
M  V30 5869 H 537.074 1.13348 0.888162 0
M  V30 5870 H 539.027 1.25398 4.0231 0
M  V30 5871 H 537.751 0.277772 3.25417 0
M  V30 5872 H 536.41 2.36213 2.80355 0
M  V30 5873 H 536.058 1.06897 4.9151 0
M  V30 5874 H 535.758 2.80757 5.16187 0
M  V30 5875 H 537.282 2.07739 5.74175 0
M  V30 5876 H 538.696 3.81526 4.27914 0
M  V30 5877 H 537.093 4.52878 3.93728 0
M  V30 5878 H 538.163 4.09893 2.59068 0
M  V30 5879 N 539.506 -0.963266 1.24736 0
M  V30 5880 C 540.753 -1.7068 1.0897 0
M  V30 5881 C 541.081 -1.90934 -0.370751 0
M  V30 5882 O 540.336 -1.47155 -1.29011 0
M  V30 5883 C 540.635 -3.09944 1.7796 0
M  V30 5884 C 540.301 -3.09518 3.27887 0
M  V30 5885 C 538.963 -3.09109 3.68789 0
M  V30 5886 C 541.315 -3.03509 4.23712 0
M  V30 5887 C 538.643 -3.00429 5.03944 0
M  V30 5888 C 540.995 -2.96371 5.5888 0
M  V30 5889 C 539.659 -2.94293 5.99123 0
M  V30 5890 H 538.929 -0.624564 0.398749 0
M  V30 5891 H 541.576 -1.12603 1.54896 0
M  V30 5892 H 539.881 -3.71513 1.2444 0
M  V30 5893 H 541.578 -3.66278 1.63222 0
M  V30 5894 H 538.168 -3.10603 2.95337 0
M  V30 5895 H 542.352 -3.0295 3.93109 0
M  V30 5896 H 537.608 -2.97183 5.34314 0
M  V30 5897 H 541.782 -2.90681 6.32833 0
M  V30 5898 H 539.409 -2.87322 7.03811 0
M  V30 5899 N 540.985 -1.06182 -1.16461 0
M  V30 5900 C 542.231 -0.779015 -1.87241 0
M  V30 5901 C 542.564 0.692715 -1.81425 0
M  V30 5902 O 541.839 1.5074 -1.22913 0
M  V30 5903 C 542.122 -1.2728 -3.36856 0
M  V30 5904 C 541.975 -2.80821 -3.51368 0
M  V30 5905 C 543.294 -0.879799 -4.31216 0
M  V30 5906 H 540.413 -0.284464 -0.679889 0
M  V30 5907 H 543.055 -1.31755 -1.36896 0
M  V30 5908 H 541.205 -0.814673 -3.79862 0
M  V30 5909 H 542.877 -3.34833 -3.17308 0
M  V30 5910 H 541.12 -3.19606 -2.93316 0
M  V30 5911 H 541.791 -3.10435 -4.56436 0
M  V30 5912 H 544.267 -1.27436 -3.96105 0
M  V30 5913 H 543.143 -1.25278 -5.34412 0
M  V30 5914 H 543.404 0.215372 -4.41575 0
M  V30 5915 N 542.463 1.3308 -0.844243 0
M  V30 5916 C 543.691 2.01808 -0.456203 0
M  V30 5917 C 544.106 1.63498 0.944131 0
M  V30 5918 O 543.463 0.85102 1.61443 0
M  V30 5919 C 543.514 3.56922 -0.573513 0
M  V30 5920 O 543.235 3.93851 -1.91868 0
M  V30 5921 C 544.736 4.42922 -0.183125 0
M  V30 5922 H 541.956 0.646273 -0.180477 0
M  V30 5923 H 544.5 1.69891 -1.1383 0
M  V30 5924 H 542.655 3.87352 0.0607367 0
M  V30 5925 H 543.069 4.88564 -1.90802 0
M  V30 5926 H 544.543 5.51093 -0.316241 0
M  V30 5927 H 545.02 4.30386 0.875477 0
M  V30 5928 H 545.626 4.1786 -0.792027 0
M  V30 5929 N 543.941 0.601185 1.45683 0
M  V30 5930 C 544.891 -0.142686 2.27553 0
M  V30 5931 C 545.875 -0.844598 1.3695 0
M  V30 5932 O 547.067 -0.735644 1.60988 0
M  V30 5933 C 544.196 -1.14364 3.23691 0
M  V30 5934 C 543.282 -0.442894 4.21781 0
M  V30 5935 N 543.673 0.51189 5.03203 0
M  V30 5936 C 541.971 -0.691277 4.4061 0
M  V30 5937 C 542.672 0.92318 5.74328 0
M  V30 5938 N 541.648 0.268308 5.42937 0
M  V30 5939 H 545.45 0.590736 2.87902 0
M  V30 5940 H 542.964 0.424365 1.56757 0
M  V30 5941 H 544.961 -1.6909 3.8107 0
M  V30 5942 H 543.621 -1.87768 2.64902 0
M  V30 5943 H 544.632 0.888329 5.10225 0
M  V30 5944 H 541.309 -1.41049 3.92952 0
M  V30 5945 H 542.699 1.71029 6.49768 0
M  V30 5946 N 545.419 -1.53889 0.339982 0
M  V30 5947 C 546.667 -2.00458 -0.257112 0
M  V30 5948 C 546.988 -1.22953 -1.51353 0
M  V30 5949 O 546.258 -0.335734 -1.93002 0
M  V30 5950 H 544.838 -0.740544 -0.0979965 0
M  V30 5951 H 547.5 -1.89386 0.460317 0
M  V30 5952 H 546.596 -3.08035 -0.502057 0
M  V30 5953 N 546.897 -0.0685191 -1.57451 0
M  V30 5954 C 548.145 0.60016 -1.92983 0
M  V30 5955 C 548.466 1.70348 -0.949028 0
M  V30 5956 O 547.736 1.959 0.00335647 0
M  V30 5957 H 546.316 0.224682 -0.712409 0
M  V30 5958 H 548.978 -0.125605 -1.94495 0
M  V30 5959 H 548.074 1.02759 -2.94698 0
M  V30 5960 N 548.375 1.56261 0.205012 0
M  V30 5961 C 549.307 1.90266 1.27795 0
M  V30 5962 C 550.32 0.792397 1.42214 0
M  V30 5963 O 551.509 1.07077 1.42817 0
M  V30 5964 C 548.609 2.11074 2.65143 0
M  V30 5965 C 547.782 3.42176 2.7246 0
M  V30 5966 C 546.841 3.52216 3.90936 0
M  V30 5967 O 545.867 4.25119 3.78501 0
M  V30 5968 N 547.069 2.84573 5.05963 0
M  V30 5969 H 549.834 2.82896 0.989434 0
M  V30 5970 H 547.395 1.57008 0.394981 0
M  V30 5971 H 549.387 2.15089 3.4281 0
M  V30 5972 H 547.957 1.2499 2.86524 0
M  V30 5973 H 547.177 3.50116 1.81142 0
M  V30 5974 H 548.465 4.28509 2.74331 0
M  V30 5975 H 547.863 2.25152 5.18963 0
M  V30 5976 H 546.42 2.94228 5.81613 0
M  V30 5977 N 549.853 -0.472356 1.50355 0
M  V30 5978 C 550.801 -1.59126 1.69651 0
M  V30 5979 C 551.795 -1.59793 0.56237 0
M  V30 5980 O 553.001 -1.63957 0.742832 0
M  V30 5981 H 549.376 -0.528008 0.535454 0
M  V30 5982 H 551.347 -1.40013 2.63513 0
M  V30 5983 C 550.096 -2.97075 1.8067 0
M  V30 5984 H 549.419 -2.9728 2.67329 0
M  V30 5985 H 550.859 -3.74825 1.98197 0
M  V30 5986 C 549.318 -3.32247 0.558016 0
M  V30 5987 O 549.848 -4.00553 -0.303399 0
M  V30 5988 N 548.054 -2.87659 0.412415 0
M  V30 5989 H 547.601 -2.32246 1.11443 0
M  V30 5990 H 547.559 -3.11556 -0.421908 0
M  V30 5991 N 551.331 -1.39911 -0.725443 0
M  V30 5992 C 552.556 -1.41137 -1.5197 0
M  V30 5993 C 552.981 -0.010262 -1.88097 0
M  V30 5994 O 552.339 0.979184 -1.52583 0
M  V30 5995 C 552.387 -2.2994 -2.77777 0
M  V30 5996 O 551.491 -1.73586 -3.74088 0
M  V30 5997 H 550.832 -0.480219 -0.458569 0
M  V30 5998 H 553.362 -1.84023 -0.894249 0
M  V30 5999 H 553.372 -2.44785 -3.26411 0
M  V30 6000 H 552.047 -3.31759 -2.50816 0
M  V30 6001 H 550.624 -1.68035 -3.32894 0
M  V30 6002 N 552.809 0.956637 -1.25245 0
M  V30 6003 C 554.055 1.70352 -1.10036 0
M  V30 6004 C 554.388 1.90869 0.358156 0
M  V30 6005 O 553.663 1.47819 1.26411 0
M  V30 6006 C 553.946 3.08766 -1.85298 0
M  V30 6007 C 553.799 2.95672 -3.38966 0
M  V30 6008 C 555.118 4.08622 -1.63451 0
M  V30 6009 H 552.237 0.618279 -0.401123 0
M  V30 6010 H 554.879 1.11212 -1.54051 0
M  V30 6011 H 553.029 3.59252 -1.47887 0
M  V30 6012 H 554.701 2.52527 -3.86041 0
M  V30 6013 H 552.944 2.31634 -3.6678 0
M  V30 6014 H 553.615 3.93776 -3.86839 0
M  V30 6015 H 556.091 3.67038 -1.96015 0
M  V30 6016 H 554.967 5.03514 -2.18551 0
M  V30 6017 H 555.228 4.3834 -0.575357 0
M  V30 6018 N 554.287 1.06798 1.15896 0
M  V30 6019 C 555.22 0.627503 2.19403 0
M  V30 6020 C 556.198 -0.352352 1.58736 0
M  V30 6021 O 557.382 -0.260111 1.86697 0
M  V30 6022 C 554.509 -0.079356 3.38607 0
M  V30 6023 C 553.555 0.858057 4.17779 0
M  V30 6024 S 554.388 2.35605 4.80885 0
M  V30 6025 C 555.544 1.66083 6.03463 0
M  V30 6026 H 555.777 1.50441 2.56427 0
M  V30 6027 H 553.31 0.881427 1.26768 0
M  V30 6028 H 555.268 -0.48095 4.07673 0
M  V30 6029 H 553.929 -0.932524 2.99938 0
M  V30 6030 H 553.122 0.310108 5.03045 0
M  V30 6031 H 552.724 1.19977 3.54234 0
M  V30 6032 H 555.016 0.969337 6.7053 0
M  V30 6033 H 555.959 2.49159 6.62816 0
M  V30 6034 H 556.367 1.14122 5.52844 0
M  V30 6035 N 555.766 -1.3263 0.851289 0
M  V30 6036 C 556.676 -2.32722 0.296268 0
M  V30 6037 C 557.692 -1.63901 -0.584162 0
M  V30 6038 O 558.868 -1.95465 -0.485334 0
M  V30 6039 C 555.933 -3.42942 -0.509103 0
M  V30 6040 C 554.994 -4.2746 0.397069 0
M  V30 6041 C 554.227 -5.32416 -0.36996 0
M  V30 6042 O 554.45 -5.47491 -1.6003 0
M  V30 6043 O 553.384 -6.01327 0.262493 0
M  V30 6044 H 557.21 -2.82078 1.12543 0
M  V30 6045 H 554.795 -1.36194 0.614135 0
M  V30 6046 H 556.677 -4.1017 -0.96634 0
M  V30 6047 H 555.352 -2.95781 -1.31512 0
M  V30 6048 H 554.259 -3.63053 0.902411 0
M  V30 6049 H 555.592 -4.78136 1.16818 0
M  V30 6050 N 557.244 -0.608902 -1.45362 0
M  V30 6051 C 558.207 0.0992563 -2.28985 0
M  V30 6052 C 559.207 0.793841 -1.39838 0
M  V30 6053 O 560.397 0.641804 -1.61946 0
M  V30 6054 C 557.529 1.15073 -3.20891 0
M  V30 6055 H 558.722 -0.635964 -2.93079 0
M  V30 6056 H 556.275 -0.368007 -1.51906 0
M  V30 6057 H 557.01 1.91667 -2.616 0
M  V30 6058 H 556.795 0.656867 -3.86559 0
M  V30 6059 H 558.285 1.64665 -3.83765 0
M  V30 6060 N 558.722 1.53707 -0.348139 0
M  V30 6061 C 559.971 2.0017 0.247992 0
M  V30 6062 C 560.284 1.23983 1.51286 0
M  V30 6063 O 561.49 1.60946 2.18652 0
M  V30 6064 C 559.946 3.56515 0.492459 0
M  V30 6065 C 559.554 4.41562 -0.756777 0
M  V30 6066 C 561.298 4.11381 1.0472 0
M  V30 6067 C 559.205 5.89426 -0.482856 0
M  V30 6068 H 558.135 0.747806 0.0964452 0
M  V30 6069 H 560.786 1.77532 -0.464179 0
M  V30 6070 H 559.168 3.75236 1.26545 0
M  V30 6071 H 560.342 4.34615 -1.53122 0
M  V30 6072 H 558.657 3.97711 -1.23348 0
M  V30 6073 H 561.254 5.19468 1.26717 0
M  V30 6074 H 561.597 3.64885 2.00411 0
M  V30 6075 H 562.13 3.96389 0.334801 0
M  V30 6076 H 558.869 6.40164 -1.40962 0
M  V30 6077 H 558.389 5.99264 0.253416 0
M  V30 6078 H 560.068 6.4692 -0.101816 0
M  V30 6079 N 560.2 0.0768682 1.57412 0
M  V30 6080 C 561.616 -0.279772 1.57129 0
M  V30 6081 C 561.816 -1.69688 1.08666 0
M  V30 6082 O 560.872 -2.40953 0.754843 0
M  V30 6083 C 562.185 -0.0848055 3.0058 0
M  V30 6084 C 563.733 -0.153954 3.12621 0
M  V30 6085 C 564.208 0.0127946 4.57998 0
M  V30 6086 N 565.699 -0.0426435 4.6318 0
M  V30 6087 C 566.434 0.0618892 5.73367 0
M  V30 6088 N 565.93 0.220229 6.9245 0
M  V30 6089 N 567.723 0.00446072 5.621 0
M  V30 6090 H 559.874 1.00297 1.87228 0
M  V30 6091 H 562.137 0.391565 0.863354 0
M  V30 6092 H 561.843 0.89325 3.40168 0
M  V30 6093 H 561.717 -0.834961 3.67843 0
M  V30 6094 H 564.104 -1.1225 2.72917 0
M  V30 6095 H 564.185 0.627389 2.47987 0
M  V30 6096 H 563.829 0.978128 4.98392 0
M  V30 6097 H 563.759 -0.788016 5.20671 0
M  V30 6098 H 566.25 -0.163226 3.77547 0
M  V30 6099 H 566.563 0.291999 7.72248 0
M  V30 6100 H 564.908 0.255658 6.9453 0
M  V30 6101 H 568.099 -0.117979 4.67951 0
M  V30 6102 H 568.272 0.0893796 6.47938 0
M  V30 6103 N 561.678 -1.56367 -0.196722 0
M  V30 6104 C 562.628 -1.9082 -1.24787 0
M  V30 6105 C 563.612 -0.773719 -1.41076 0
M  V30 6106 O 564.804 -1.03655 -1.43474 0
M  V30 6107 C 561.933 -2.24982 -2.59303 0
M  V30 6108 C 561.019 -3.44882 -2.46814 0
M  V30 6109 N 561.41 -4.62835 -2.04003 0
M  V30 6110 C 559.708 -3.48988 -2.77711 0
M  V30 6111 C 560.409 -5.44993 -2.03366 0
M  V30 6112 N 559.385 -4.85356 -2.44807 0
M  V30 6113 H 563.187 -2.79516 -0.908175 0
M  V30 6114 H 560.701 -1.57265 -0.405166 0
M  V30 6115 H 562.698 -2.47848 -3.35227 0
M  V30 6116 H 561.358 -1.37611 -2.94098 0
M  V30 6117 H 562.369 -4.87532 -1.74738 0
M  V30 6118 H 559.046 -2.72029 -3.16712 0
M  V30 6119 H 560.436 -6.49464 -1.72181 0
M  V30 6120 N 563.156 0.464375 -1.50603 0
M  V30 6121 C 564.404 1.21356 -1.61608 0
M  V30 6122 C 564.725 1.92329 -0.321643 0
M  V30 6123 O 563.995 1.84403 0.661232 0
M  V30 6124 H 562.575 0.45094 -0.595535 0
M  V30 6125 H 565.237 0.535046 -1.87412 0
M  V30 6126 H 564.333 1.95783 -2.43054 0
M  V30 6127 N 564.634 1.40294 0.718013 0
M  V30 6128 C 565.88 1.38645 1.48005 0
M  V30 6129 C 566.213 -0.0121202 1.94196 0
M  V30 6130 O 565.488 -0.980309 1.67989 0
M  V30 6131 C 565.771 2.37379 2.70782 0
M  V30 6132 C 565.624 3.8625 2.30501 0
M  V30 6133 C 566.943 2.33685 3.72933 0
M  V30 6134 H 564.062 0.504928 0.536858 0
M  V30 6135 H 566.704 1.71411 0.819649 0
M  V30 6136 H 564.854 2.09568 3.27129 0
M  V30 6137 H 566.526 4.24879 1.79655 0
M  V30 6138 H 564.769 4.02202 1.6253 0
M  V30 6139 H 565.44 4.50847 3.18498 0
M  V30 6140 H 567.916 2.58314 3.2621 0
M  V30 6141 H 566.792 3.0482 4.56482 0
M  V30 6142 H 567.053 1.34765 4.21059 0
M  V30 6143 N 566.112 -0.949982 1.2575 0
M  V30 6144 C 567.523 -1.50989 1.09815 0
M  V30 6145 C 567.874 -1.93497 -0.324556 0
M  V30 6146 O 566.999 -1.79068 -1.21506 0
M  V30 6147 C 567.594 -2.74394 1.98729 0
M  V30 6148 C 566.153 -3.26682 1.86965 0
M  V30 6149 C 565.3 -1.99498 1.92603 0
M  V30 6150 H 568.251 -0.766387 1.38968 0
M  V30 6151 H 568.272 -3.48383 1.53001 0
M  V30 6152 H 567.784 -2.43425 3.02268 0
M  V30 6153 H 565.885 -3.62461 0.863279 0
M  V30 6154 H 565.998 -3.94383 2.72027 0
M  V30 6155 H 564.362 -2.15005 1.36546 0
M  V30 6156 H 565.145 -1.70871 2.97755 0
M  V30 6157 N 567.59 -1.07411 -1.15328 0
M  V30 6158 C 568.523 -0.63913 -2.19067 0
M  V30 6159 C 569.501 0.343929 -1.58921 0
M  V30 6160 O 570.685 0.250207 -1.86832 0
M  V30 6161 C 567.812 0.0613977 -3.38644 0
M  V30 6162 C 566.858 -0.880201 -4.17318 0
M  V30 6163 S 567.691 -2.38152 -4.79629 0
M  V30 6164 C 568.847 -1.69281 -6.02573 0
M  V30 6165 H 569.08 -1.51799 -2.55626 0
M  V30 6166 H 566.613 -0.888138 -1.26299 0
M  V30 6167 H 568.571 0.459323 -4.07922 0
M  V30 6168 H 567.232 0.916605 -3.00428 0
M  V30 6169 H 566.425 -0.336781 -5.02874 0
M  V30 6170 H 566.027 -1.21854 -3.53592 0
M  V30 6171 H 568.319 -1.00488 -6.70006 0
M  V30 6172 H 569.262 -2.52671 -6.61485 0
M  V30 6173 H 569.67 -1.17053 -5.52231 0
M  V30 6174 N 569.068 1.32177 -0.85831 0
M  V30 6175 C 570.314 1.97417 -0.46417 0
M  V30 6176 C 570.647 1.67746 0.978514 0
M  V30 6177 O 569.922 0.967654 1.68721 0
M  V30 6178 C 570.205 3.53069 -0.708094 0
M  V30 6179 C 570.058 3.92357 -2.19946 0
M  V30 6180 C 571.377 4.39783 -0.166881 0
M  V30 6181 H 568.496 0.717097 -0.17012 0
M  V30 6182 H 571.138 1.56499 -1.07741 0
M  V30 6183 H 569.288 3.88054 -0.186128 0
M  V30 6184 H 570.96 3.67533 -2.78779 0
M  V30 6185 H 569.203 3.41384 -2.67656 0
M  V30 6186 H 569.874 5.00841 -2.32082 0
M  V30 6187 H 572.35 4.11556 -0.613285 0
M  V30 6188 H 571.226 5.47671 -0.367093 0
M  V30 6189 H 571.487 4.32196 0.930559 0
M  V30 6190 N 570.547 0.616602 1.45037 0
M  V30 6191 C 571.795 0.115103 2.01772 0
M  V30 6192 C 572.116 -1.2622 1.48639 0
M  V30 6193 O 571.386 -1.83563 0.684199 0
M  V30 6194 H 569.966 0.0395607 0.745952 0
M  V30 6195 H 572.628 0.800032 1.77723 0
M  V30 6196 H 571.724 0.0717274 3.12018 0
M  V30 6197 N 572.025 -1.5352 0.356285 0
M  V30 6198 C 572.955 -2.28372 -0.486661 0
M  V30 6199 C 573.936 -1.30432 -1.09185 0
M  V30 6200 O 575.121 -1.59291 -1.11085 0
M  V30 6201 C 572.251 -3.06604 -1.63129 0
M  V30 6202 C 571.205 -4.12154 -1.15381 0
M  V30 6203 C 570.531 -4.78415 -2.38796 0
M  V30 6204 C 571.831 -5.21724 -0.245179 0
M  V30 6205 H 573.525 -2.99083 0.137797 0
M  V30 6206 H 571.071 -1.43841 0.0677134 0
M  V30 6207 H 573.024 -3.57712 -2.22755 0
M  V30 6208 H 571.748 -2.33568 -2.28284 0
M  V30 6209 H 570.407 -3.61978 -0.580294 0
M  V30 6210 H 570.055 -4.01959 -3.02387 0
M  V30 6211 H 569.755 -5.49734 -2.07524 0
M  V30 6212 H 571.279 -5.32313 -2.99125 0
M  V30 6213 H 572.693 -5.68391 -0.748646 0
M  V30 6214 H 571.09 -6.00095 -0.0237608 0
M  V30 6215 H 572.16 -4.79596 0.715229 0
M  V30 6216 N 573.503 -0.0852151 -1.57369 0
M  V30 6217 C 574.914 0.445428 -1.81309 0
M  V30 6218 C 575.265 1.68795 -1.00013 0
M  V30 6219 O 574.39 2.15211 -0.226573 0
M  V30 6220 C 574.985 0.814887 -3.28854 0
M  V30 6221 C 573.544 1.29032 -3.53592 0
M  V30 6222 C 572.691 0.282089 -2.75861 0
M  V30 6223 H 575.642 -0.310771 -1.55627 0
M  V30 6224 H 575.663 1.67524 -3.41637 0
M  V30 6225 H 575.175 -0.0896309 -3.87996 0
M  V30 6226 H 573.276 2.21289 -2.9977 0
M  V30 6227 H 573.389 1.25898 -4.62262 0
M  V30 6228 H 571.753 0.762182 -2.43029 0
M  V30 6229 H 572.536 -0.614936 -3.37748 0
M  V30 6230 N 574.981 1.5647 0.188427 0
M  V30 6231 C 576.227 1.81281 0.909124 0
M  V30 6232 C 576.56 0.66034 1.82628 0
M  V30 6233 O 575.835 -0.338737 1.91528 0
M  V30 6234 C 576.118 3.16388 1.7196 0
M  V30 6235 C 575.971 4.42137 0.826714 0
M  V30 6236 C 577.29 3.48256 2.69083 0
M  V30 6237 H 574.409 0.659457 0.329068 0
M  V30 6238 H 577.051 1.89182 0.176156 0
M  V30 6239 H 575.201 3.09784 2.34448 0
M  V30 6240 H 576.873 4.60794 0.216025 0
M  V30 6241 H 575.116 4.33594 0.133792 0
M  V30 6242 H 575.787 5.33184 1.42893 0
M  V30 6243 H 578.263 3.55203 2.16726 0
M  V30 6244 H 577.139 4.43899 3.2287 0
M  V30 6245 H 577.4 2.72088 3.48455 0
M  V30 6246 N 576.459 -0.456382 1.50847 0
M  V30 6247 C 577.407 -1.57318 1.71329 0
M  V30 6248 C 578.401 -1.59187 0.579287 0
M  V30 6249 O 579.607 -1.6316 0.76018 0
M  V30 6250 H 575.982 -0.5223 0.541024 0
M  V30 6251 H 577.953 -1.3721 2.64983 0
M  V30 6252 C 576.702 -2.95142 1.83811 0
M  V30 6253 H 576.025 -2.94428 2.70467 0
M  V30 6254 H 577.465 -3.72702 2.02161 0
M  V30 6255 C 575.924 -3.31636 0.593224 0
M  V30 6256 O 576.454 -4.00852 -0.260898 0
M  V30 6257 N 574.66 -2.87205 0.442902 0
M  V30 6258 H 574.207 -2.31051 1.13901 0
M  V30 6259 H 574.165 -3.11986 -0.38884 0
M  V30 6260 N 577.937 -1.40673 -0.710563 0
M  V30 6261 C 579.185 -1.38947 -1.46759 0
M  V30 6262 C 579.506 0.00572879 -1.94999 0
M  V30 6263 O 578.776 0.961358 -1.70689 0
M  V30 6264 H 577.356 -0.5114 -0.544499 0
M  V30 6265 H 580.018 -1.75773 -0.842012 0
M  V30 6266 H 579.114 -2.06745 -2.33801 0
M  V30 6267 N 579.415 0.9433 -1.26252 0
M  V30 6268 C 580.692 1.66639 -1.02424 0
M  V30 6269 C 581.072 2.06335 0.446006 0
M  V30 6270 O 580.42 1.78551 1.42589 0
M  V30 6271 C 580.63 2.88019 -1.97094 0
M  V30 6272 C 581.978 3.59718 -2.25584 0
M  V30 6273 O 583.002 2.9812 -1.94943 0
M  V30 6274 O 581.861 4.7066 -2.77743 0
M  V30 6275 H 578.955 0.729643 -0.389294 0
M  V30 6276 H 581.501 0.995218 -1.37454 0
M  V30 6277 H 580.273 2.5556 -2.96319 0
M  V30 6278 H 579.896 3.62863 -1.62532 0
M  V30 6279 N 580.893 1.08022 1.14757 0
M  V30 6280 C 581.825 0.664566 2.19354 0
M  V30 6281 C 582.838 -0.286374 1.60261 0
M  V30 6282 O 584.027 -0.0746362 1.78344 0
M  V30 6283 C 581.127 -0.0434634 3.38872 0
M  V30 6284 C 580.3 0.925381 4.27499 0
M  V30 6285 C 579.359 0.253398 5.2559 0
M  V30 6286 O 578.385 0.896581 5.62094 0
M  V30 6287 N 579.587 -0.998263 5.71852 0
M  V30 6288 H 582.352 1.56438 2.55631 0
M  V30 6289 H 579.913 0.965788 1.29939 0
M  V30 6290 H 581.905 -0.503857 4.01551 0
M  V30 6291 H 580.475 -0.845321 3.00954 0
M  V30 6292 H 579.695 1.56472 3.61815 0
M  V30 6293 H 580.983 1.58203 4.8358 0
M  V30 6294 H 580.381 -1.54063 5.44317 0
M  V30 6295 H 578.938 -1.40222 6.36538 0
M  V30 6296 N 582.371 -1.3172 0.865308 0
M  V30 6297 C 583.321 -2.26157 0.289305 0
M  V30 6298 C 584.305 -1.50428 -0.570977 0
M  V30 6299 O 585.497 -1.71978 -0.418617 0
M  V30 6300 C 582.626 -3.39457 -0.512237 0
M  V30 6301 C 581.712 -4.22561 0.361028 0
M  V30 6302 N 582.103 -4.84501 1.45231 0
M  V30 6303 C 580.401 -4.45739 0.152641 0
M  V30 6304 C 581.102 -5.46586 1.99043 0
M  V30 6305 N 580.078 -5.28119 1.28809 0
M  V30 6306 H 583.88 -2.71581 1.12344 0
M  V30 6307 H 581.394 -1.45932 0.712565 0
M  V30 6308 H 583.391 -4.06133 -0.941379 0
M  V30 6309 H 582.051 -2.95577 -1.34404 0
M  V30 6310 H 583.062 -4.84293 1.83524 0
M  V30 6311 H 579.739 -4.1251 -0.643583 0
M  V30 6312 H 581.129 -6.05817 2.90577 0
M  V30 6313 N 583.85 -0.624285 -1.44708 0
M  V30 6314 C 585.098 -0.125802 -2.01708 0
M  V30 6315 C 585.418 1.2543 -1.49306 0
M  V30 6316 O 584.689 1.83198 -0.693924 0
M  V30 6317 H 583.269 -0.0435161 -0.745731 0
M  V30 6318 H 585.931 -0.809446 -1.77296 0
M  V30 6319 H 585.027 -0.0882734 -3.11975 0
M  V30 6320 N 585.328 1.53329 -0.364422 0
M  V30 6321 C 586.276 2.27212 0.497737 0
M  V30 6322 C 587.27 1.30146 1.08437 0
M  V30 6323 O 588.476 1.47778 1.0277 0
M  V30 6324 H 584.851 0.730329 0.179232 0
M  V30 6325 H 586.822 2.98037 -0.147182 0
M  V30 6326 C 585.571 3.07333 1.6261 0
M  V30 6327 H 584.894 3.81866 1.184 0
M  V30 6328 H 586.334 3.62209 2.20409 0
M  V30 6329 C 584.793 2.18102 2.56775 0
M  V30 6330 O 585.323 1.79104 3.59562 0
M  V30 6331 N 583.529 1.82759 2.25937 0
M  V30 6332 H 583.076 2.14671 1.42387 0
M  V30 6333 H 583.034 1.23342 2.89196 0
M  V30 6334 N 586.806 0.0935595 1.57322 0
M  V30 6335 C 587.739 -0.902505 2.09595 0
M  V30 6336 C 588.717 -1.27732 1.00615 0
M  V30 6337 O 589.901 -1.38283 1.28102 0
M  V30 6338 C 587.028 -2.20416 2.57166 0
M  V30 6339 C 586.074 -1.97932 3.7779 0
M  V30 6340 S 586.907 -1.21873 5.21447 0
M  V30 6341 C 588.063 -2.53273 5.72367 0
M  V30 6342 H 588.296 -0.457797 2.93754 0
M  V30 6343 H 585.829 -0.119694 1.53935 0
M  V30 6344 H 587.787 -2.95217 2.85232 0
M  V30 6345 H 586.448 -2.62008 1.73235 0
M  V30 6346 H 585.641 -2.94316 4.09138 0
M  V30 6347 H 585.243 -1.3126 3.5021 0
M  V30 6348 H 587.535 -3.49256 5.8054 0
M  V30 6349 H 588.478 -2.26505 6.70896 0
M  V30 6350 H 588.886 -2.61475 5.00291 0
M  V30 6351 N 588.284 -1.56567 -0.180126 0
M  V30 6352 C 589.53 -1.81761 -0.899497 0
M  V30 6353 C 589.863 -0.670015 -1.82276 0
M  V30 6354 O 589.138 0.328575 -1.91705 0
M  V30 6355 C 589.421 -3.17296 -1.7028 0
M  V30 6356 C 589.274 -4.4257 -0.803255 0
M  V30 6357 C 590.593 -3.49678 -2.67233 0
M  V30 6358 H 587.712 -0.661192 -0.325567 0
M  V30 6359 H 590.354 -1.89272 -0.16612 0
M  V30 6360 H 588.504 -3.11023 -2.32802 0
M  V30 6361 H 590.176 -4.60902 -0.191585 0
M  V30 6362 H 588.419 -4.33658 -0.110796 0
M  V30 6363 H 589.09 -5.33935 -1.40064 0
M  V30 6364 H 591.566 -3.56347 -2.14839 0
M  V30 6365 H 590.442 -4.45605 -3.20511 0
M  V30 6366 H 590.703 -2.73932 -3.47007 0
M  V30 6367 N 589.762 0.448376 -1.51087 0
M  V30 6368 C 591.178 0.783984 -1.39017 0
M  V30 6369 C 591.378 1.96087 -0.463904 0
M  V30 6370 O 590.434 2.52357 0.0850534 0
M  V30 6371 C 591.747 1.07471 -2.80839 0
M  V30 6372 C 593.295 1.17981 -2.89913 0
M  V30 6373 C 593.77 1.50354 -4.32617 0
M  V30 6374 N 595.261 1.57301 -4.35673 0
M  V30 6375 C 595.996 1.839 -5.4311 0
M  V30 6376 N 595.492 2.08365 -6.60724 0
M  V30 6377 N 597.285 1.8559 -5.30578 0
M  V30 6378 H 589.436 -0.326881 -2.0987 0
M  V30 6379 H 591.699 -0.0838006 -0.944289 0
M  V30 6380 H 591.405 0.282768 -3.50561 0
M  V30 6381 H 591.279 2.00519 -3.19487 0
M  V30 6382 H 593.666 1.9624 -2.20395 0
M  V30 6383 H 593.747 0.228603 -2.54776 0
M  V30 6384 H 593.391 0.726273 -5.0268 0
M  V30 6385 H 593.321 2.46663 -4.65258 0
M  V30 6386 H 595.812 1.40342 -3.50874 0
M  V30 6387 H 596.125 2.27999 -7.38401 0
M  V30 6388 H 594.47 2.0571 -6.63859 0
M  V30 6389 H 597.661 1.65989 -4.37682 0
M  V30 6390 H 597.834 2.05983 -6.1439 0
M  V30 6391 N 591.24 1.41047 0.703093 0
M  V30 6392 C 592.486 1.40207 1.46526 0
M  V30 6393 C 592.819 0.00847763 1.94198 0
M  V30 6394 O 592.094 -0.962437 1.69019 0
M  V30 6395 C 592.377 2.40238 2.6825 0
M  V30 6396 C 592.23 3.88674 2.26391 0
M  V30 6397 C 593.549 2.37627 3.70434 0
M  V30 6398 H 590.668 0.510594 0.531472 0
M  V30 6399 H 593.31 1.72271 0.801422 0
M  V30 6400 H 591.46 2.13026 3.24888 0
M  V30 6401 H 593.132 4.2676 1.75138 0
M  V30 6402 H 591.375 4.03903 1.58255 0
M  V30 6403 H 592.046 4.542 3.13698 0
M  V30 6404 H 594.522 2.61759 3.23452 0
M  V30 6405 H 593.398 3.09645 4.53223 0
M  V30 6406 H 593.659 1.39223 4.19606 0
M  V30 6407 N 592.718 -0.936591 1.26751 0
M  V30 6408 C 593.964 -1.6858 1.12733 0
M  V30 6409 C 594.297 -1.91414 -0.327745 0
M  V30 6410 O 593.572 -1.49812 -1.24043 0
M  V30 6411 C 593.855 -3.05779 1.90187 0
M  V30 6412 C 593.708 -2.90242 3.43627 0
M  V30 6413 C 595.027 -4.0597 1.69931 0
M  V30 6414 H 592.146 -0.61182 0.410908 0
M  V30 6415 H 594.788 -1.08747 1.55801 0
M  V30 6416 H 592.938 -3.56853 1.53584 0
M  V30 6417 H 594.61 -2.46354 3.9001 0
M  V30 6418 H 592.853 -2.2577 3.70419 0
M  V30 6419 H 593.524 -3.87572 3.93055 0
M  V30 6420 H 596 -3.63874 2.0183 0
M  V30 6421 H 594.876 -4.99974 2.26534 0
M  V30 6422 H 595.137 -4.37369 0.64502 0
M  V30 6423 N 594.196 -1.08629 -1.14182 0
M  V30 6424 C 595.159 -0.722027 -2.1753 0
M  V30 6425 C 596.159 0.244305 -1.58933 0
M  V30 6426 O 597.349 0.0235545 -1.74184 0
M  V30 6427 C 594.481 -0.0663966 -3.40835 0
M  V30 6428 H 595.674 -1.63719 -2.51269 0
M  V30 6429 H 593.227 -0.884442 -1.28869 0
M  V30 6430 H 593.962 0.860389 -3.12678 0
M  V30 6431 H 593.747 -0.761598 -3.84632 0
M  V30 6432 H 595.237 0.173346 -4.1724 0
M  V30 6433 N 595.674 1.31259 -0.872281 0
M  V30 6434 C 596.621 2.28459 -0.327857 0
M  V30 6435 C 597.591 1.55831 0.574957 0
M  V30 6436 O 598.776 1.83965 0.506101 0
M  V30 6437 C 595.916 3.41985 0.462644 0
M  V30 6438 C 595.029 4.29458 -0.467949 0
M  V30 6439 C 594.164 5.30131 0.336903 0
M  V30 6440 C 593.203 6.0925 -0.58997 0
M  V30 6441 N 592.34 7.01872 0.178775 0
M  V30 6442 H 597.18 2.74414 -1.16193 0
M  V30 6443 H 594.717 1.34994 -0.584376 0
M  V30 6444 H 596.675 4.06547 0.936759 0
M  V30 6445 H 595.305 2.97134 1.2614 0
M  V30 6446 H 594.357 3.65318 -1.06052 0
M  V30 6447 H 595.669 4.84677 -1.17856 0
M  V30 6448 H 594.823 6.0038 0.873427 0
M  V30 6449 H 593.562 4.75573 1.08079 0
M  V30 6450 H 592.567 5.37889 -1.13823 0
M  V30 6451 H 593.792 6.65894 -1.33275 0
M  V30 6452 H 591.738 6.49721 0.905435 0
M  V30 6453 H 591.655 7.54522 -0.472452 0
M  V30 6454 H 592.923 7.76382 0.696454 0
M  V30 6455 N 597.152 0.631951 1.44375 0
M  V30 6456 C 598.1 -0.0846693 2.32446 0
M  V30 6457 C 599.094 -0.834957 1.47393 0
M  V30 6458 O 600.3 -0.747764 1.63733 0
M  V30 6459 H 596.675 -0.0461508 0.750583 0
M  V30 6460 H 598.646 0.67619 2.90638 0
M  V30 6461 C 597.395 -1.05211 3.314 0
M  V30 6462 H 596.718 -0.484203 3.96857 0
M  V30 6463 H 598.158 -1.523 3.95703 0
M  V30 6464 C 596.617 -2.13776 2.60387 0
M  V30 6465 O 597.147 -3.21869 2.4034 0
M  V30 6466 N 595.353 -1.89733 2.20113 0
M  V30 6467 H 594.9 -1.01833 2.36618 0
M  V30 6468 H 594.858 -2.62572 1.72926 0
M  V30 6469 N 598.631 -1.53133 0.372548 0
M  V30 6470 C 599.861 -2.05476 -0.215202 0
M  V30 6471 C 600.269 -1.24534 -1.42436 0
M  V30 6472 O 599.612 -0.280771 -1.81542 0
M  V30 6473 C 599.674 -3.53276 -0.666068 0
M  V30 6474 C 599.338 -4.54998 0.427342 0
M  V30 6475 C 600.335 -5.03911 1.27944 0
M  V30 6476 C 598.02 -4.98828 0.589579 0
M  V30 6477 C 600.014 -5.95263 2.27905 0
M  V30 6478 C 597.701 -5.89984 1.59255 0
M  V30 6479 C 598.699 -6.38093 2.43571 0
M  V30 6480 O 598.387 -7.27451 3.42156 0
M  V30 6481 H 598.119 -0.67481 -0.040099 0
M  V30 6482 H 600.673 -1.98409 0.531312 0
M  V30 6483 H 598.903 -3.57904 -1.4643 0
M  V30 6484 H 600.592 -3.88442 -1.1776 0
M  V30 6485 H 601.358 -4.70792 1.16532 0
M  V30 6486 H 597.237 -4.60965 -0.0569456 0
M  V30 6487 H 600.781 -6.32736 2.93753 0
M  V30 6488 H 596.678 -6.22518 1.70711 0
M  V30 6489 H 597.446 -7.45467 3.37967 0
M  V30 6490 N 600.109 -0.101901 -1.5727 0
M  V30 6491 C 601.357 0.559091 -1.94213 0
M  V30 6492 C 601.678 1.68297 -0.984948 0
M  V30 6493 O 600.948 1.95863 -0.0381975 0
M  V30 6494 H 599.528 0.20952 -0.717015 0
M  V30 6495 H 602.19 -0.166831 -1.94185 0
M  V30 6496 H 601.286 0.96485 -2.96811 0
M  V30 6497 N 601.587 1.56661 0.17182 0
M  V30 6498 C 602.833 1.82235 0.889845 0
M  V30 6499 C 603.166 0.679673 1.81918 0
M  V30 6500 O 602.441 -0.318404 1.91876 0
M  V30 6501 C 602.724 3.18195 1.68595 0
M  V30 6502 C 602.577 4.42989 0.779773 0
M  V30 6503 C 603.896 3.5109 2.65375 0
M  V30 6504 H 601.015 0.66291 0.322056 0
M  V30 6505 H 603.657 1.89358 0.15608 0
M  V30 6506 H 601.807 3.12253 2.3115 0
M  V30 6507 H 603.479 4.60997 0.16714 0
M  V30 6508 H 601.722 4.33711 0.0877964 0
M  V30 6509 H 602.393 5.3467 1.3723 0
M  V30 6510 H 604.869 3.57482 2.12946 0
M  V30 6511 H 603.745 4.47298 3.18144 0
M  V30 6512 H 604.006 2.75768 3.45549 0
M  V30 6513 N 603.065 -0.440357 1.51323 0
M  V30 6514 C 604.29 -1.21716 1.67928 0
M  V30 6515 C 604.715 -1.84328 0.374826 0
M  V30 6516 O 604.073 -1.68675 -0.664706 0
M  V30 6517 C 604.121 -2.27914 2.79442 0
M  V30 6518 O 603.225 -3.33325 2.42834 0
M  V30 6519 H 602.566 -0.35674 0.560029 0
M  V30 6520 H 605.096 -0.520417 1.97871 0
M  V30 6521 H 605.106 -2.72746 3.03436 0
M  V30 6522 H 603.781 -1.8172 3.741 0
M  V30 6523 H 602.358 -2.9399 2.294 0
M  V30 6524 N 604.543 -1.41418 -0.695603 0
M  V30 6525 C 605.792 -1.40073 -1.4513 0
M  V30 6526 C 606.105 -0.0130439 -1.95596 0
M  V30 6527 O 607.311 0.123032 -2.71221 0
M  V30 6528 C 605.767 -2.46286 -2.62433 0
M  V30 6529 C 605.375 -3.90962 -2.18753 0
M  V30 6530 C 607.119 -2.54077 -3.40066 0
M  V30 6531 C 605.026 -4.88728 -3.33015 0
M  V30 6532 H 603.956 -0.520903 -0.545138 0
M  V30 6533 H 606.607 -1.67242 -0.75515 0
M  V30 6534 H 604.989 -2.12248 -3.34315 0
M  V30 6535 H 606.163 -4.34248 -1.54161 0
M  V30 6536 H 604.478 -3.86831 -1.54114 0
M  V30 6537 H 607.075 -3.24303 -4.25125 0
M  V30 6538 H 607.418 -1.5776 -3.8525 0
M  V30 6539 H 607.951 -2.87206 -2.75241 0
M  V30 6540 H 604.69 -5.86449 -2.92844 0
M  V30 6541 H 604.21 -4.50091 -3.96457 0
M  V30 6542 H 605.889 -5.09483 -3.98793 0
M  V30 6543 N 606.021 0.929856 -1.27246 0
M  V30 6544 C 607.437 1.20542 -1.04603 0
M  V30 6545 C 607.637 2.00276 0.221754 0
M  V30 6546 O 606.693 2.34835 0.927833 0
M  V30 6547 C 608.006 1.95566 -2.28417 0
M  V30 6548 C 609.554 2.08513 -2.33433 0
M  V30 6549 C 610.029 2.86943 -3.5697 0
M  V30 6550 N 611.52 2.94512 -3.57515 0
M  V30 6551 C 612.255 3.55656 -4.49774 0
M  V30 6552 N 611.751 4.18209 -5.52334 0
M  V30 6553 N 613.544 3.53038 -4.37402 0
M  V30 6554 H 605.695 0.397113 -2.08655 0
M  V30 6555 H 607.958 0.238277 -0.917566 0
M  V30 6556 H 607.664 1.44395 -3.20691 0
M  V30 6557 H 607.538 2.9619 -2.33563 0
M  V30 6558 H 609.925 2.58872 -1.41666 0
M  V30 6559 H 610.006 1.07117 -2.32292 0
M  V30 6560 H 609.65 2.37268 -4.49072 0
M  V30 6561 H 609.58 3.8862 -3.55362 0
M  V30 6562 H 612.071 2.50053 -2.83341 0
M  V30 6563 H 612.384 4.62796 -6.18902 0
M  V30 6564 H 610.729 4.16761 -5.56179 0
M  V30 6565 H 613.92 3.0337 -3.56489 0
M  V30 6566 H 614.093 4.004 -5.09493 0
M  V30 6567 N 607.499 1.09233 1.13605 0
M  V30 6568 C 608.429 0.751738 2.21068 0
M  V30 6569 C 609.41 -0.269688 1.67948 0
M  V30 6570 O 610.595 -0.13819 1.93708 0
M  V30 6571 C 607.725 0.16935 3.46887 0
M  V30 6572 C 606.679 1.12007 4.13084 0
M  V30 6573 C 606.005 0.399483 5.33206 0
M  V30 6574 C 607.305 2.46168 4.6065 0
M  V30 6575 H 608.999 1.65024 2.49815 0
M  V30 6576 H 606.545 0.794905 1.20072 0
M  V30 6577 H 608.498 -0.0809824 4.21322 0
M  V30 6578 H 607.222 -0.764335 3.1753 0
M  V30 6579 H 605.881 1.35564 3.40614 0
M  V30 6580 H 605.529 -0.538277 5.00112 0
M  V30 6581 H 605.229 1.03337 5.78442 0
M  V30 6582 H 606.753 0.157403 6.10397 0
M  V30 6583 H 608.167 2.26829 5.26518 0
M  V30 6584 H 606.564 3.05326 5.1662 0
M  V30 6585 H 607.634 3.07076 3.75276 0
M  V30 6586 N 608.977 -1.30795 0.87923 0
M  V30 6587 C 609.925 -2.30231 0.331112 0
M  V30 6588 C 610.919 -1.59918 -0.558794 0
M  V30 6589 O 612.125 -1.74441 -0.443866 0
M  V30 6590 H 608.5 -0.746785 0.088409 0
M  V30 6591 H 610.471 -2.73925 1.18353 0
M  V30 6592 C 609.22 -3.44848 -0.444401 0
M  V30 6593 H 608.543 -3.99131 0.231106 0
M  V30 6594 H 609.983 -4.16516 -0.793109 0
M  V30 6595 C 608.442 -2.94329 -1.63926 0
M  V30 6596 O 608.972 -2.93875 -2.73862 0
M  V30 6597 N 607.178 -2.50413 -1.4745 0
M  V30 6598 H 606.725 -2.50982 -0.58015 0
M  V30 6599 H 606.683 -2.16969 -2.27534 0
M  V30 6600 N 610.455 -0.639598 -1.44038 0
M  V30 6601 C 611.387 0.0987684 -2.28987 0
M  V30 6602 C 612.4 0.80058 -1.41755 0
M  V30 6603 O 613.589 0.660611 -1.65826 0
M  V30 6604 C 610.689 1.16242 -3.18341 0
M  V30 6605 C 609.862 0.541447 -4.34036 0
M  V30 6606 C 608.921 1.50017 -5.04362 0
M  V30 6607 O 607.947 1.01403 -5.60095 0
M  V30 6608 N 609.149 2.83441 -5.06598 0
M  V30 6609 H 611.914 -0.630305 -2.92997 0
M  V30 6610 H 609.475 -0.481376 -1.54578 0
M  V30 6611 H 611.467 1.80429 -3.62253 0
M  V30 6612 H 610.037 1.79362 -2.56024 0
M  V30 6613 H 609.257 -0.27923 -3.9321 0
M  V30 6614 H 610.545 0.107379 -5.08687 0
M  V30 6615 H 609.943 3.2551 -4.62666 0
M  V30 6616 H 608.5 3.42966 -5.54272 0
M  V30 6617 N 611.933 1.52934 -0.380664 0
M  V30 6618 C 613.179 2.01765 0.20458 0
M  V30 6619 C 613.512 1.26696 1.47179 0
M  V30 6620 O 612.787 0.364936 1.91046 0
M  V30 6621 C 613.07 3.56869 0.481269 0
M  V30 6622 C 612.923 4.42617 -0.800629 0
M  V30 6623 C 614.242 4.2121 1.27554 0
M  V30 6624 H 611.361 0.733388 0.0728803 0
M  V30 6625 H 614.003 1.83068 -0.50853 0
M  V30 6626 H 612.153 3.72932 1.08875 0
M  V30 6627 H 613.825 4.38323 -1.43773 0
M  V30 6628 H 612.068 4.09977 -1.4178 0
M  V30 6629 H 612.739 5.49134 -0.561791 0
M  V30 6630 H 615.215 4.09072 0.761514 0
M  V30 6631 H 614.091 5.29732 1.43788 0
M  V30 6632 H 614.352 3.78269 2.28833 0
M  V30 6633 N 613.412 0.11024 1.57214 0
M  V30 6634 C 614.64 -0.557834 1.99238 0
M  V30 6635 C 615.055 -1.60778 0.989734 0
M  V30 6636 O 614.412 -1.82491 -0.0186092 0
M  V30 6637 C 614.463 -1.19189 3.41286 0
M  V30 6638 O 614.184 -0.183919 4.37714 0
M  V30 6639 C 615.685 -1.94413 3.98395 0
M  V30 6640 H 612.905 -0.148392 0.654386 0
M  V30 6641 H 615.449 0.193996 2.03578 0
M  V30 6642 H 613.604 -1.89456 3.37913 0
M  V30 6643 H 614.018 -0.643475 5.20538 0
M  V30 6644 H 615.492 -2.34116 4.99894 0
M  V30 6645 H 615.969 -2.81592 3.3705 0
M  V30 6646 H 616.575 -1.28928 4.05287 0
M  V30 6647 N 614.89 -1.56749 -0.16351 0
M  V30 6648 C 615.853 -1.96121 -1.18613 0
M  V30 6649 C 616.853 -0.845765 -1.36761 0
M  V30 6650 O 618.043 -1.11268 -1.34033 0
M  V30 6651 C 615.175 -2.26282 -2.54969 0
M  V30 6652 H 616.368 -2.87639 -0.848764 0
M  V30 6653 H 613.921 -1.50928 -0.406251 0
M  V30 6654 H 614.656 -1.37504 -2.93706 0
M  V30 6655 H 614.441 -3.07595 -2.43162 0
M  V30 6656 H 615.931 -2.57638 -3.28653 0
M  V30 6657 N 616.368 0.432326 -1.51554 0
M  V30 6658 C 617.645 1.19288 -1.55015 0
M  V30 6659 C 618.025 2.08701 -0.317375 0
M  V30 6660 O 617.373 2.17602 0.697243 0
M  V30 6661 C 617.583 1.99037 -2.86679 0
M  V30 6662 C 618.931 2.55907 -3.38817 0
M  V30 6663 O 619.955 2.09243 -2.88263 0
M  V30 6664 O 618.814 3.41029 -4.27038 0
M  V30 6665 H 615.908 0.543369 -0.623441 0
M  V30 6666 H 618.454 0.440988 -1.6387 0
M  V30 6667 H 617.226 1.33397 -3.6786 0
M  V30 6668 H 616.849 2.81281 -2.8101 0
M  V30 6669 N 617.846 1.41785 0.688094 0
M  V30 6670 C 619.074 1.44915 1.47673 0
M  V30 6671 C 619.489 0.0565786 1.88715 0
M  V30 6672 O 618.846 -0.92579 1.57275 0
M  V30 6673 C 618.897 2.36452 2.73446 0
M  V30 6674 O 618.618 3.7029 2.34131 0
M  V30 6675 C 620.119 2.48463 3.67125 0
M  V30 6676 H 617.339 0.493324 0.454832 0
M  V30 6677 H 619.883 1.86153 0.846594 0
M  V30 6678 H 618.038 1.98502 3.3268 0
M  V30 6679 H 618.452 4.19183 3.15255 0
M  V30 6680 H 619.926 3.16662 4.52138 0
M  V30 6681 H 620.403 1.51826 4.12123 0
M  V30 6682 H 621.009 2.8708 3.13792 0
M  V30 6683 N 619.324 -0.923095 1.27737 0
M  V30 6684 C 620.254 -2.04124 1.13383 0
M  V30 6685 C 621.235 -1.70066 0.0340658 0
M  V30 6686 O 622.42 -1.93068 0.209383 0
M  V30 6687 C 619.55 -3.3831 0.785097 0
M  V30 6688 C 618.504 -3.86496 1.8386 0
M  V30 6689 C 617.83 -5.1754 1.34373 0
M  V30 6690 C 619.13 -4.09381 3.24353 0
M  V30 6691 H 620.824 -2.1639 2.06919 0
M  V30 6692 H 618.37 -1.03976 0.996243 0
M  V30 6693 H 620.323 -4.16016 0.671485 0
M  V30 6694 H 619.047 -3.2607 -0.185969 0
M  V30 6695 H 617.706 -3.10987 1.9412 0
M  V30 6696 H 617.354 -5.01696 0.361989 0
M  V30 6697 H 617.054 -5.50751 2.04811 0
M  V30 6698 H 618.578 -5.97811 1.24315 0
M  V30 6699 H 619.992 -4.77641 3.17067 0
M  V30 6700 H 618.389 -4.53906 3.92542 0
M  V30 6701 H 619.459 -3.14515 3.69064 0
M  V30 6702 N 620.802 -1.09834 -1.13024 0
M  V30 6703 C 622.03 -0.858902 -1.8823 0
M  V30 6704 C 622.445 0.590164 -1.79339 0
M  V30 6705 O 621.802 1.4065 -1.16292 0
M  V30 6706 C 621.853 -1.29066 -3.37675 0
M  V30 6707 O 621.574 -2.6829 -3.46341 0
M  V30 6708 C 623.075 -1.08421 -4.29837 0
M  V30 6709 H 620.295 -0.308713 -0.595766 0
M  V30 6710 H 622.839 -1.4614 -1.4305 0
M  V30 6711 H 620.994 -0.731961 -3.80422 0
M  V30 6712 H 621.408 -2.86598 -4.39274 0
M  V30 6713 H 622.882 -1.43553 -5.33007 0
M  V30 6714 H 623.359 -0.0223315 -4.39194 0
M  V30 6715 H 623.965 -1.62907 -3.92863 0
M  V30 6716 N 622.28 1.30327 -0.886154 0
M  V30 6717 C 623.21 2.30549 -0.370028 0
M  V30 6718 C 624.191 1.61039 0.547751 0
M  V30 6719 O 625.376 1.8864 0.461353 0
M  V30 6720 C 622.506 3.44808 0.415275 0
M  V30 6721 C 621.46 4.26024 -0.41085 0
M  V30 6722 C 620.786 5.32347 0.501128 0
M  V30 6723 C 622.086 4.95433 -1.65359 0
M  V30 6724 H 623.78 2.73969 -1.20754 0
M  V30 6725 H 621.326 1.3171 -0.582097 0
M  V30 6726 H 623.279 4.13986 0.78699 0
M  V30 6727 H 622.003 3.00197 1.28644 0
M  V30 6728 H 620.662 3.58535 -0.764719 0
M  V30 6729 H 620.31 4.83982 1.37004 0
M  V30 6730 H 620.01 5.87581 -0.0478356 0
M  V30 6731 H 621.534 6.0438 0.869333 0
M  V30 6732 H 622.948 5.5712 -1.35239 0
M  V30 6733 H 621.345 5.60537 -2.14284 0
M  V30 6734 H 622.415 4.21493 -2.39733 0
M  V30 6735 N 623.758 0.647228 1.43697 0
M  V30 6736 C 624.986 0.16575 2.06235 0
M  V30 6737 C 625.401 -1.1662 1.48476 0
M  V30 6738 O 624.758 -1.7187 0.613762 0
M  V30 6739 C 624.809 0.0621651 3.61447 0
M  V30 6740 O 624.53 1.34146 4.17057 0
M  V30 6741 C 626.031 -0.446102 4.4105 0
M  V30 6742 H 623.251 0.0871158 0.665321 0
M  V30 6743 H 625.795 0.886183 1.84301 0
M  V30 6744 H 623.95 -0.608794 3.82587 0
M  V30 6745 H 624.364 1.19675 5.10664 0
M  V30 6746 H 625.838 -0.46755 5.50016 0
M  V30 6747 H 626.315 -1.47627 4.13646 0
M  V30 6748 H 626.921 0.192159 4.24866 0
M  V30 6749 N 625.236 -1.5273 0.388769 0
M  V30 6750 C 626.169 -2.22861 -0.490752 0
M  V30 6751 C 627.147 -1.22912 -1.06449 0
M  V30 6752 O 628.331 -1.51896 -1.11624 0
M  V30 6753 C 625.458 -2.94141 -1.67925 0
M  V30 6754 C 624.504 -4.08355 -1.23081 0
M  V30 6755 S 625.337 -5.35077 -0.212786 0
M  V30 6756 C 626.493 -6.09879 -1.40708 0
M  V30 6757 H 626.726 -2.97115 0.104787 0
M  V30 6758 H 624.259 -1.53428 0.172956 0
M  V30 6759 H 626.217 -3.35818 -2.36085 0
M  V30 6760 H 624.878 -2.19568 -2.24608 0
M  V30 6761 H 624.071 -4.57328 -2.11818 0
M  V30 6762 H 623.673 -3.68688 -0.628121 0
M  V30 6763 H 625.965 -6.36018 -2.33424 0
M  V30 6764 H 626.908 -7.01586 -0.958271 0
M  V30 6765 H 627.316 -5.40646 -1.62364 0
M  V30 6766 N 626.714 -0.118576 -1.57153 0
M  V30 6767 C 627.661 0.831789 -2.1529 0
M  V30 6768 C 628.631 1.26385 -1.07778 0
M  V30 6769 O 629.816 1.34144 -1.35684 0
M  V30 6770 C 626.956 2.07664 -2.75626 0
M  V30 6771 C 626.069 1.69298 -3.97444 0
M  V30 6772 C 625.204 2.88747 -4.45868 0
M  V30 6773 C 624.243 2.46619 -5.60219 0
M  V30 6774 N 623.38 3.5898 -6.03389 0
M  V30 6775 H 628.22 0.329183 -2.96176 0
M  V30 6776 H 625.757 0.150792 -1.46325 0
M  V30 6777 H 627.715 2.80601 -3.08738 0
M  V30 6778 H 626.345 2.55384 -1.97431 0
M  V30 6779 H 625.397 0.862374 -3.70496 0
M  V30 6780 H 626.709 1.34338 -4.80369 0
M  V30 6781 H 625.863 3.69909 -4.80887 0
M  V30 6782 H 624.602 3.26933 -3.61892 0
M  V30 6783 H 623.607 1.63889 -5.24805 0
M  V30 6784 H 624.832 2.0955 -6.45961 0
M  V30 6785 H 622.778 3.9684 -5.22354 0
M  V30 6786 H 622.695 3.27942 -6.81168 0
M  V30 6787 H 623.963 4.40583 -6.43045 0
M  V30 6788 N 628.193 1.56834 0.155195 0
M  V30 6789 C 629.125 1.94235 1.21677 0
M  V30 6790 C 630.138 0.83724 1.39621 0
M  V30 6791 O 631.327 1.11567 1.39338 0
M  V30 6792 C 628.427 2.19402 2.58294 0
M  V30 6793 C 627.6 3.50671 2.61436 0
M  V30 6794 C 626.659 3.64475 3.79532 0
M  V30 6795 O 625.685 4.36945 3.64784 0
M  V30 6796 N 626.887 3.00526 4.96653 0
M  V30 6797 H 629.652 2.85901 0.898932 0
M  V30 6798 H 627.213 1.58185 0.34483 0
M  V30 6799 H 629.205 2.25886 3.35794 0
M  V30 6800 H 627.775 1.34042 2.82403 0
M  V30 6801 H 626.995 3.55702 1.69912 0
M  V30 6802 H 628.283 4.3702 2.60559 0
M  V30 6803 H 627.681 2.41549 5.11538 0
M  V30 6804 H 626.238 3.12583 5.71958 0
M  V30 6805 N 629.671 -0.424282 1.51781 0
M  V30 6806 C 630.917 -1.17434 1.6534 0
M  V30 6807 C 631.25 -1.90549 0.374806 0
M  V30 6808 O 630.525 -1.84145 -0.626179 0
M  V30 6809 C 630.808 -2.18093 2.86544 0
M  V30 6810 C 630.661 -1.48975 4.24413 0
M  V30 6811 C 631.98 -3.18934 3.03264 0
M  V30 6812 H 629.099 -0.425566 0.601716 0
M  V30 6813 H 631.741 -0.461921 1.84299 0
M  V30 6814 H 629.891 -2.78849 2.7051 0
M  V30 6815 H 631.563 -0.914551 4.52143 0
M  V30 6816 H 629.806 -0.791893 4.26511 0
M  V30 6817 H 630.477 -2.22347 5.05238 0
M  V30 6818 H 632.953 -2.68243 3.18096 0
M  V30 6819 H 631.829 -3.86645 3.89611 0
M  V30 6820 H 632.09 -3.85793 2.15908 0
M  V30 6821 N 631.149 -1.42148 -0.680565 0
M  V30 6822 C 632.398 -1.41604 -1.43636 0
M  V30 6823 C 632.711 -0.0337887 -1.95571 0
M  V30 6824 O 633.917 0.0942588 -2.71336 0
M  V30 6825 C 632.373 -2.49056 -2.59806 0
M  V30 6826 C 631.981 -3.9326 -2.14594 0
M  V30 6827 C 633.725 -2.5767 -3.37352 0
M  V30 6828 C 631.632 -4.92232 -3.27813 0
M  V30 6829 H 630.562 -0.526656 -0.539583 0
M  V30 6830 H 633.213 -1.68033 -0.737369 0
M  V30 6831 H 631.595 -2.15782 -3.32045 0
M  V30 6832 H 632.769 -4.35858 -1.49546 0
M  V30 6833 H 631.084 -3.88443 -1.50002 0
M  V30 6834 H 633.681 -3.28794 -4.21662 0
M  V30 6835 H 634.024 -1.61837 -3.83555 0
M  V30 6836 H 634.557 -2.90109 -2.72179 0
M  V30 6837 H 631.296 -5.89522 -2.86607 0
M  V30 6838 H 630.816 -4.5427 -3.91661 0
M  V30 6839 H 632.495 -5.13684 -3.93367 0
M  V30 6840 N 632.627 0.916307 -1.28225 0
M  V30 6841 C 633.537 2.05165 -1.13775 0
M  V30 6842 C 634.553 1.73879 -0.0649418 0
M  V30 6843 O 635.729 1.99531 -0.273722 0
M  V30 6844 C 632.794 3.37385 -0.798267 0
M  V30 6845 C 631.855 3.82296 -1.95316 0
M  V30 6846 C 631.088 5.08206 -1.62978 0
M  V30 6847 O 631.311 5.6781 -0.542948 0
M  V30 6848 O 630.245 5.48768 -2.47261 0
M  V30 6849 H 634.071 2.20273 -2.09078 0
M  V30 6850 H 631.656 1.0373 -1.07519 0
M  V30 6851 H 633.538 4.16773 -0.62278 0
M  V30 6852 H 632.213 3.23458 0.125139 0
M  V30 6853 H 631.12 3.03746 -2.18378 0
M  V30 6854 H 632.453 4.00782 -2.85718 0
M  V30 6855 N 634.105 1.10431 1.1244 0
M  V30 6856 C 635.382 0.758797 1.80282 0
M  V30 6857 C 635.762 -0.754727 1.97147 0
M  V30 6858 O 635.11 -1.68094 1.54779 0
M  V30 6859 C 635.32 1.50982 3.14651 0
M  V30 6860 C 636.668 1.68232 3.8985 0
M  V30 6861 O 637.692 1.47319 3.24308 0
M  V30 6862 O 636.551 2.02905 5.07437 0
M  V30 6863 H 633.645 0.273756 0.780376 0
M  V30 6864 H 636.191 1.20713 1.19275 0
M  V30 6865 H 634.963 2.53989 2.97666 0
M  V30 6866 H 634.586 1.05435 3.83366 0
M  V30 6867 N 635.583 -1.29855 0.893053 0
M  V30 6868 C 636.53 -2.27909 0.364161 0
M  V30 6869 C 637.5 -1.56726 -0.550093 0
M  V30 6870 O 638.685 -1.84747 -0.47677 0
M  V30 6871 C 635.825 -3.42678 -0.408178 0
M  V30 6872 C 634.938 -4.28659 0.536212 0
M  V30 6873 C 634.073 -5.30599 -0.252521 0
M  V30 6874 C 633.112 -6.08234 0.686822 0
M  V30 6875 N 632.249 -7.02068 -0.0670902 0
M  V30 6876 H 637.089 -2.72531 1.20544 0
M  V30 6877 H 634.626 -1.34047 0.605779 0
M  V30 6878 H 636.584 -4.07986 -0.871962 0
M  V30 6879 H 635.214 -2.99103 -1.21397 0
M  V30 6880 H 634.266 -3.63584 1.1185 0
M  V30 6881 H 635.578 -4.8274 1.25552 0
M  V30 6882 H 634.732 -6.01694 -0.777801 0
M  V30 6883 H 633.471 -4.77233 -1.005 0
M  V30 6884 H 632.476 -5.3601 1.22366 0
M  V30 6885 H 633.701 -6.63689 1.43852 0
M  V30 6886 H 631.647 -6.5108 -0.801955 0
M  V30 6887 H 631.564 -7.53675 0.59243 0
M  V30 6888 H 632.832 -7.77392 -0.572851 0
M  V30 6889 N 637.061 -0.65484 -1.43351 0
M  V30 6890 C 638.477 -0.32255 -1.56307 0
M  V30 6891 C 638.677 1.17324 -1.63821 0
M  V30 6892 O 637.733 1.95813 -1.59417 0
M  V30 6893 C 639.046 -1.03533 -2.82314 0
M  V30 6894 C 640.594 -1.01574 -2.9606 0
M  V30 6895 C 641.069 -1.70945 -4.24902 0
M  V30 6896 N 642.56 -1.67716 -4.3177 0
M  V30 6897 C 643.295 -2.18265 -5.30234 0
M  V30 6898 N 642.791 -2.7711 -6.34966 0
M  V30 6899 N 644.584 -2.08756 -5.21898 0
M  V30 6900 H 636.735 -1.62549 -1.36717 0
M  V30 6901 H 638.998 -0.683676 -0.656727 0
M  V30 6902 H 638.704 -2.09045 -2.8283 0
M  V30 6903 H 638.578 -0.587913 -3.7259 0
M  V30 6904 H 640.965 0.0309834 -2.95084 0
M  V30 6905 H 641.046 -1.50186 -2.07069 0
M  V30 6906 H 640.69 -2.75574 -4.26639 0
M  V30 6907 H 640.62 -1.19797 -5.12793 0
M  V30 6908 H 643.111 -1.24777 -3.56706 0
M  V30 6909 H 643.424 -3.13353 -7.06421 0
M  V30 6910 H 641.769 -2.81171 -6.35585 0
M  V30 6911 H 644.96 -1.62488 -4.38994 0
M  V30 6912 H 645.133 -2.48459 -5.98475 0
M  V30 6913 N 638.539 1.52521 -0.396863 0
M  V30 6914 C 639.769 2.05792 0.182485 0
M  V30 6915 C 640.177 1.26784 1.40436 0
M  V30 6916 O 639.52 0.309617 1.81072 0
M  V30 6917 C 639.582 3.54291 0.609781 0
M  V30 6918 C 639.246 4.5426 -0.499674 0
M  V30 6919 C 640.243 5.01812 -1.35944 0
M  V30 6920 C 637.928 4.97827 -0.668864 0
M  V30 6921 C 639.922 5.91562 -2.37346 0
M  V30 6922 C 637.609 5.87376 -1.68621 0
M  V30 6923 C 638.607 6.34137 -2.53692 0
M  V30 6924 O 638.295 7.21915 -3.53686 0
M  V30 6925 H 638.027 0.675362 0.0293583 0
M  V30 6926 H 640.581 1.97539 -0.56281 0
M  V30 6927 H 638.811 3.60188 1.40717 0
M  V30 6928 H 640.5 3.90267 1.11565 0
M  V30 6929 H 641.266 4.68879 -1.24008 0
M  V30 6930 H 637.145 4.60997 -0.0163971 0
M  V30 6931 H 640.689 6.27983 -3.03782 0
M  V30 6932 H 636.586 6.19723 -1.80593 0
M  V30 6933 H 637.354 7.39996 -3.49784 0
M  V30 6934 N 640.017 0.126909 1.57088 0
M  V30 6935 C 640.964 -0.82036 2.15728 0
M  V30 6936 C 641.934 -1.25811 1.08447 0
M  V30 6937 O 643.119 -1.33422 1.36393 0
M  V30 6938 C 640.259 -2.06199 2.76724 0
M  V30 6939 C 639.372 -1.67188 3.98337 0
M  V30 6940 C 638.507 -2.86378 4.47393 0
M  V30 6941 C 637.546 -2.43644 5.61519 0
M  V30 6942 N 636.683 -3.55775 6.05284 0
M  V30 6943 H 641.523 -0.313472 2.96347 0
M  V30 6944 H 639.06 -0.14303 1.46403 0
M  V30 6945 H 641.018 -2.78959 3.10222 0
M  V30 6946 H 639.648 -2.54333 1.98782 0
M  V30 6947 H 638.7 -0.842714 3.70948 0
M  V30 6948 H 640.012 -1.31789 4.81075 0
M  V30 6949 H 639.166 -3.67353 4.82842 0
M  V30 6950 H 637.905 -3.25009 3.63621 0
M  V30 6951 H 636.91 -1.61104 5.25667 0
M  V30 6952 H 638.135 -2.06122 6.47063 0
M  V30 6953 H 636.081 -3.94065 5.24451 0
M  V30 6954 H 635.998 -3.24325 6.82898 0
M  V30 6955 H 637.266 -4.37166 6.45373 0
M  V30 6956 N 641.495 -1.56914 -0.146875 0
M  V30 6957 C 642.72 -1.87881 -0.878386 0
M  V30 6958 C 643.145 -0.715945 -1.73942 0
M  V30 6959 O 642.503 0.334447 -1.78189 0
M  V30 6960 C 642.551 -3.17431 -1.71084 0
M  V30 6961 O 641.655 -3.01374 -2.81509 0
M  V30 6962 H 640.996 -0.617289 -0.244644 0
M  V30 6963 H 643.526 -2.04136 -0.137654 0
M  V30 6964 H 643.536 -3.49455 -2.10582 0
M  V30 6965 H 642.211 -4.01671 -1.07856 0
M  V30 6966 H 640.788 -2.80758 -2.45416 0
M  V30 6967 N 642.974 0.416227 -1.52004 0
M  V30 6968 C 643.937 1.48926 -1.74223 0
M  V30 6969 C 644.937 1.48693 -0.612119 0
M  V30 6970 O 646.127 1.50343 -0.879921 0
M  V30 6971 C 643.259 2.88372 -1.81809 0
M  V30 6972 H 644.452 1.3052 -2.70008 0
M  V30 6973 H 642.005 0.646271 -1.42313 0
M  V30 6974 H 642.74 3.12157 -0.879135 0
M  V30 6975 H 642.525 2.89944 -2.6396 0
M  V30 6976 H 644.015 3.66173 -2.00766 0
M  V30 6977 N 644.452 1.42507 0.673017 0
M  V30 6978 C 645.698 1.43284 1.43519 0
M  V30 6979 C 646.031 0.049668 1.94136 0
M  V30 6980 O 645.306 -0.926369 1.71022 0
M  V30 6981 C 645.589 2.45874 2.63093 0
M  V30 6982 C 645.442 3.93388 2.18096 0
M  V30 6983 C 646.761 2.45431 3.6531 0
M  V30 6984 H 643.88 0.521752 0.520522 0
M  V30 6985 H 646.522 1.73932 0.764701 0
M  V30 6986 H 644.672 2.19869 3.20296 0
M  V30 6987 H 646.344 4.30379 1.66046 0
M  V30 6988 H 644.587 4.07169 1.49652 0
M  V30 6989 H 645.258 4.60752 3.03993 0
M  V30 6990 H 647.734 2.68561 3.17827 0
M  V30 6991 H 646.61 3.19189 4.46553 0
M  V30 6992 H 646.871 1.48092 4.16559 0
M  V30 6993 N 645.93 -0.909495 1.28709 0
M  V30 6994 C 647.176 -1.66151 1.16283 0
M  V30 6995 C 647.509 -1.92067 -0.287069 0
M  V30 6996 O 646.784 -1.52409 -1.20837 0
M  V30 6997 C 647.067 -3.01676 1.9663 0
M  V30 6998 C 646.92 -2.82888 3.49707 0
M  V30 6999 C 648.239 -4.02274 1.78504 0
M  V30 7000 H 645.358 -0.602966 0.423793 0
M  V30 7001 H 648 -1.05418 1.58073 0
M  V30 7002 H 646.15 -3.53515 1.61119 0
M  V30 7003 H 647.822 -2.38026 3.95147 0
M  V30 7004 H 646.065 -2.17862 3.75125 0
M  V30 7005 H 646.736 -3.79147 4.01187 0
M  V30 7006 H 649.212 -3.59511 2.09503 0
M  V30 7007 H 648.088 -4.95056 2.37088 0
M  V30 7008 H 648.349 -4.35903 0.737647 0
M  V30 7009 N 647.408 -1.11026 -1.11852 0
M  V30 7010 C 648.371 -0.768006 -2.1595 0
M  V30 7011 C 649.371 0.210538 -1.59416 0
M  V30 7012 O 650.561 -0.0133978 -1.74195 0
M  V30 7013 C 647.693 -0.138678 -3.40618 0
M  V30 7014 H 648.886 -1.69012 -2.4774 0
M  V30 7015 H 646.439 -0.911578 -1.26964 0
M  V30 7016 H 647.174 0.793872 -3.14433 0
M  V30 7017 H 646.959 -0.843012 -3.8293 0
M  V30 7018 H 648.449 0.0848039 -4.17514 0
M  V30 7019 N 648.886 1.2938 -0.899927 0
M  V30 7020 C 649.849 2.25983 -0.382677 0
M  V30 7021 C 650.849 1.53366 0.483259 0
M  V30 7022 O 652.039 1.71798 0.28828 0
M  V30 7023 C 649.171 3.37878 0.452915 0
M  V30 7024 H 650.364 2.73252 -1.23586 0
M  V30 7025 H 647.917 1.40825 -0.678088 0
M  V30 7026 H 648.652 2.95949 1.32608 0
M  V30 7027 H 648.437 3.91742 -0.167562 0
M  V30 7028 H 649.927 4.09746 0.806107 0
M  V30 7029 N 650.364 0.662433 1.43002 0
M  V30 7030 C 651.589 0.186003 2.06564 0
M  V30 7031 C 652.014 -1.14314 1.49379 0
M  V30 7032 O 651.372 -1.70824 0.607346 0
M  V30 7033 C 651.42 0.118269 3.60406 0
M  V30 7034 O 650.524 -0.916859 4.02079 0
M  V30 7035 H 649.865 0.0990981 0.656563 0
M  V30 7036 H 652.395 0.907958 1.8335 0
M  V30 7037 H 652.405 -0.0619981 4.07953 0
M  V30 7038 H 651.08 1.08849 4.01403 0
M  V30 7039 H 649.657 -0.708635 3.66105 0
M  V30 7040 N 651.842 -1.52309 0.404946 0
M  V30 7041 C 653.088 -2.02065 -0.172455 0
M  V30 7042 C 653.421 -1.29022 -1.45145 0
M  V30 7043 O 652.696 -0.395284 -1.90441 0
M  V30 7044 C 652.979 -3.5759 -0.424433 0
M  V30 7045 C 652.832 -4.41287 0.870945 0
M  V30 7046 C 654.151 -4.23186 -1.20837 0
M  V30 7047 H 651.27 -0.734454 -0.0612035 0
M  V30 7048 H 653.912 -1.82236 0.53759 0
M  V30 7049 H 652.062 -3.74617 -1.02929 0
M  V30 7050 H 653.734 -4.3598 1.50729 0
M  V30 7051 H 651.977 -4.07669 1.48284 0
M  V30 7052 H 652.648 -5.48171 0.649083 0
M  V30 7053 H 655.124 -4.10232 -0.696338 0
M  V30 7054 H 654 -5.31953 -1.35343 0
M  V30 7055 H 654.261 -3.81862 -2.22786 0
M  V30 7056 N 653.32 -0.135238 -1.57019 0
M  V30 7057 C 654.569 0.518694 -1.94917 0
M  V30 7058 C 654.882 1.66783 -1.0219 0
M  V30 7059 O 656.088 2.38561 -1.29619 0
M  V30 7060 C 654.544 0.974123 -3.46466 0
M  V30 7061 C 654.152 -0.147439 -4.47757 0
M  V30 7062 C 655.896 1.59851 -3.93253 0
M  V30 7063 C 653.803 0.325599 -5.90503 0
M  V30 7064 H 652.733 0.19754 -0.727663 0
M  V30 7065 H 655.384 -0.217698 -1.82204 0
M  V30 7066 H 653.766 1.76542 -3.5447 0
M  V30 7067 H 654.94 -0.924122 -4.51438 0
M  V30 7068 H 653.255 -0.679496 -4.10818 0
M  V30 7069 H 655.852 1.96385 -4.9733 0
M  V30 7070 H 656.195 2.48306 -3.3414 0
M  V30 7071 H 656.728 0.872323 -3.88118 0
M  V30 7072 H 653.467 -0.523295 -6.53408 0
M  V30 7073 H 652.987 1.06841 -5.90208 0
M  V30 7074 H 654.666 0.781498 -6.42263 0
M  V30 7075 N 654.798 1.5699 0.138552 0
M  V30 7076 C 655.728 2.01933 1.17241 0
M  V30 7077 C 656.709 0.90033 1.44319 0
M  V30 7078 O 657.894 1.16872 1.55095 0
M  V30 7079 C 655.024 2.40711 2.50351 0
M  V30 7080 C 653.978 3.55874 2.37776 0
M  V30 7081 C 653.304 3.80491 3.75674 0
M  V30 7082 C 654.604 4.8826 1.85472 0
M  V30 7083 H 656.298 2.88551 0.798672 0
M  V30 7084 H 653.844 1.3882 0.382743 0
M  V30 7085 H 655.797 2.70754 3.22909 0
M  V30 7086 H 654.521 1.5104 2.89576 0
M  V30 7087 H 653.18 3.2601 1.67669 0
M  V30 7088 H 652.828 2.88057 4.12349 0
M  V30 7089 H 652.528 4.57998 3.68119 0
M  V30 7090 H 654.052 4.12967 4.49767 0
M  V30 7091 H 655.466 5.16965 2.4783 0
M  V30 7092 H 653.863 5.69631 1.88787 0
M  V30 7093 H 654.933 4.78071 0.810935 0
M  V30 7094 N 656.276 -0.40816 1.52223 0
M  V30 7095 C 657.226 -1.49648 1.72016 0
M  V30 7096 C 658.21 -1.50311 0.574069 0
M  V30 7097 O 659.402 -1.56271 0.831173 0
M  V30 7098 C 656.531 -2.87566 1.87512 0
M  V30 7099 C 655.617 -2.91547 3.07995 0
M  V30 7100 N 656.008 -2.65225 4.30685 0
M  V30 7101 C 654.306 -3.22715 3.07849 0
M  V30 7102 C 655.007 -2.75799 5.12162 0
M  V30 7103 N 653.983 -3.08719 4.4743 0
M  V30 7104 H 657.785 -1.28093 2.64517 0
M  V30 7105 H 655.299 -0.61588 1.50269 0
M  V30 7106 H 657.296 -3.65899 1.99809 0
M  V30 7107 H 655.956 -3.10118 0.962114 0
M  V30 7108 H 656.967 -2.39601 4.59142 0
M  V30 7109 H 653.644 -3.50856 2.26289 0
M  V30 7110 H 655.034 -2.59155 6.1991 0
M  V30 7111 N 657.755 -1.42862 -0.66545 0
M  V30 7112 C 658.98 -1.47456 -1.45848 0
M  V30 7113 C 659.405 -0.0900312 -1.87884 0
M  V30 7114 O 658.763 0.913587 -1.56599 0
M  V30 7115 C 658.811 -2.41514 -2.67774 0
M  V30 7116 O 657.915 -1.89296 -3.66389 0
M  V30 7117 H 657.256 -0.499236 -0.437789 0
M  V30 7118 H 659.786 -1.8765 -0.815394 0
M  V30 7119 H 659.796 -2.58409 -3.15735 0
M  V30 7120 H 658.471 -3.42099 -2.36519 0
M  V30 7121 H 657.048 -1.82003 -3.25468 0
M  V30 7122 N 659.233 0.902656 -1.29189 0
M  V30 7123 C 660.165 2.01149 -1.09872 0
M  V30 7124 C 661.178 1.62732 -0.0471046 0
M  V30 7125 O 662.367 1.76107 -0.29132 0
M  V30 7126 C 659.467 3.32612 -0.649818 0
M  V30 7127 C 658.64 3.99574 -1.7793 0
M  V30 7128 C 657.699 5.09325 -1.32191 0
M  V30 7129 O 656.725 5.31919 -2.02611 0
M  V30 7130 N 657.927 5.80185 -0.191171 0
M  V30 7131 H 660.692 2.18276 -2.05368 0
M  V30 7132 H 658.253 1.07466 -1.2109 0
M  V30 7133 H 660.245 4.03375 -0.327199 0
M  V30 7134 H 658.815 3.11876 0.212597 0
M  V30 7135 H 658.035 3.22213 -2.27095 0
M  V30 7136 H 659.323 4.41056 -2.53668 0
M  V30 7137 H 658.721 5.64312 0.396016 0
M  V30 7138 H 657.278 6.5176 0.0721001 0
M  V30 7139 N 660.711 1.11618 1.11262 0
M  V30 7140 C 662.122 0.881942 1.64556 0
M  V30 7141 C 662.473 -0.585442 1.87262 0
M  V30 7142 O 661.598 -1.44795 1.60821 0
M  V30 7143 C 662.193 1.59446 2.98935 0
M  V30 7144 C 660.752 1.40661 3.4913 0
M  V30 7145 C 659.899 1.63593 2.23903 0
M  V30 7146 H 662.85 1.27217 0.94877 0
M  V30 7147 H 662.871 1.04054 3.65996 0
M  V30 7148 H 662.383 2.66241 2.82378 0
M  V30 7149 H 660.484 0.360835 3.70849 0
M  V30 7150 H 660.597 2.15693 4.27801 0
M  V30 7151 H 658.961 1.05944 2.3162 0
M  V30 7152 H 659.744 2.71666 2.09886 0
M  V30 7153 N 662.189 -1.289 0.906776 0
M  V30 7154 C 663.119 -2.29932 0.406659 0
M  V30 7155 C 664.1 -1.6189 -0.522061 0
M  V30 7156 O 665.285 -1.8935 -0.431283 0
M  V30 7157 C 662.415 -3.45425 -0.360366 0
M  V30 7158 C 661.369 -4.25316 0.478574 0
M  V30 7159 C 660.695 -5.33076 -0.416373 0
M  V30 7160 C 661.995 -4.92739 1.7322 0
M  V30 7161 H 663.689 -2.72013 1.25097 0
M  V30 7162 H 661.235 -1.30768 0.602977 0
M  V30 7163 H 663.188 -4.15186 -0.721029 0
M  V30 7164 H 661.912 -3.02206 -1.23852 0
M  V30 7165 H 660.571 -3.57273 0.821662 0
M  V30 7166 H 660.219 -4.86101 -1.29287 0
M  V30 7167 H 659.919 -5.8743 0.141309 0
M  V30 7168 H 661.443 -6.05686 -0.773072 0
M  V30 7169 H 662.857 -5.54898 1.44086 0
M  V30 7170 H 661.254 -5.57057 2.23175 0
M  V30 7171 H 662.324 -4.17625 2.46408 0
M  V30 7172 N 663.667 -0.670007 -1.42649 0
M  V30 7173 C 664.892 -0.196955 -2.06463 0
M  V30 7174 C 665.317 1.1352 -1.49983 0
M  V30 7175 O 664.675 1.705 -0.616397 0
M  V30 7176 C 664.723 -0.137381 -3.60338 0
M  V30 7177 O 663.827 0.895523 -4.02559 0
M  V30 7178 H 663.168 -0.102579 -0.656029 0
M  V30 7179 H 665.698 -0.917669 -1.82866 0
M  V30 7180 H 665.708 0.0403625 -4.0798 0
M  V30 7181 H 664.383 -1.10977 -4.0082 0
M  V30 7182 H 662.96 0.689209 -3.66476 0
M  V30 7183 N 665.145 1.52092 -0.413018 0
M  V30 7184 C 666.556 1.86617 0.0556967 0
M  V30 7185 C 666.907 1.33156 1.44097 0
M  V30 7186 O 666.032 0.672417 2.05688 0
M  V30 7187 C 666.627 3.38628 0.107844 0
M  V30 7188 C 665.186 3.72778 0.520904 0
M  V30 7189 C 664.333 2.75649 -0.302109 0
M  V30 7190 H 667.284 1.45663 -0.629919 0
M  V30 7191 H 667.305 3.69152 0.922324 0
M  V30 7192 H 666.817 3.77508 -0.900506 0
M  V30 7193 H 664.918 3.39478 1.53575 0
M  V30 7194 H 665.031 4.7838 0.262591 0
M  V30 7195 H 663.395 2.53603 0.236115 0
M  V30 7196 H 664.178 3.17369 -1.30888 0
M  V30 7197 N 666.623 0.143563 1.56945 0
M  V30 7198 C 667.586 -0.783295 2.154 0
M  V30 7199 C 668.586 -1.17763 1.09492 0
M  V30 7200 O 669.776 -1.09912 1.35148 0
M  V30 7201 C 666.908 -2.06248 2.7143 0
M  V30 7202 H 668.101 -0.274863 2.98638 0
M  V30 7203 H 665.654 -0.105859 1.55941 0
M  V30 7204 H 666.389 -2.61466 1.91849 0
M  V30 7205 H 666.174 -1.78897 3.4891 0
M  V30 7206 H 667.664 -2.72453 3.16479 0
M  V30 7207 N 668.101 -1.57061 -0.130224 0
M  V30 7208 C 669.033 -1.96147 -1.18571 0
M  V30 7209 C 670.046 -0.859347 -1.38272 0
M  V30 7210 O 671.235 -1.13769 -1.37545 0
M  V30 7211 C 668.335 -2.23484 -2.54771 0
M  V30 7212 C 667.508 -3.54786 -2.55824 0
M  V30 7213 C 666.567 -3.70467 -3.73686 0
M  V30 7214 O 665.593 -4.42693 -3.57787 0
M  V30 7215 N 666.795 -3.08389 -4.91809 0
M  V30 7216 H 669.56 -2.87295 -0.853333 0
M  V30 7217 H 667.121 -1.58714 -0.319621 0
M  V30 7218 H 669.113 -2.312 -3.32158 0
M  V30 7219 H 667.683 -1.38518 -2.80235 0
M  V30 7220 H 666.903 -3.5836 -1.64232 0
M  V30 7221 H 668.191 -4.4111 -2.53573 0
M  V30 7222 H 667.589 -2.49656 -5.0763 0
M  V30 7223 H 666.146 -3.21642 -5.66912 0
M  V30 7224 N 669.579 0.400081 -1.52437 0
M  V30 7225 C 670.995 0.739359 -1.41441 0
M  V30 7226 C 671.195 1.94512 -0.526053 0
M  V30 7227 O 670.251 2.525 0.00472502 0
M  V30 7228 C 671.564 0.984824 -2.84116 0
M  V30 7229 C 673.112 1.08698 -2.93519 0
M  V30 7230 C 673.587 1.36515 -4.37181 0
M  V30 7231 N 675.078 1.43361 -4.40457 0
M  V30 7232 C 675.813 1.66528 -5.48686 0
M  V30 7233 N 675.309 1.87239 -6.67018 0
M  V30 7234 N 677.102 1.68617 -5.36213 0
M  V30 7235 H 669.253 -0.393484 -2.08723 0
M  V30 7236 H 671.516 -0.1138 -0.941145 0
M  V30 7237 H 671.222 0.171096 -3.51284 0
M  V30 7238 H 671.096 1.90253 -3.25705 0
M  V30 7239 H 673.483 1.89129 -2.26526 0
M  V30 7240 H 673.564 0.147432 -2.55375 0
M  V30 7241 H 673.208 0.565982 -5.04737 0
M  V30 7242 H 673.138 2.31737 -4.7287 0
M  V30 7243 H 675.629 1.29108 -3.55161 0
M  V30 7244 H 675.942 2.04392 -7.45281 0
M  V30 7245 H 674.287 1.84486 -6.70067 0
M  V30 7246 H 677.478 1.5198 -4.42741 0
M  V30 7247 H 677.651 1.86332 -6.20632 0
M  V30 7248 N 671.057 1.43213 0.657864 0
M  V30 7249 C 671.987 1.50815 1.78262 0
M  V30 7250 C 672.968 0.363211 1.66177 0
M  V30 7251 O 674.153 0.579806 1.85343 0
M  V30 7252 C 671.283 1.42625 3.16663 0
M  V30 7253 C 670.237 2.5532 3.43505 0
M  V30 7254 C 669.563 2.32184 4.81658 0
M  V30 7255 C 670.863 3.97583 3.38711 0
M  V30 7256 H 672.557 2.44954 1.72157 0
M  V30 7257 H 670.103 1.17896 0.82683 0
M  V30 7258 H 672.056 1.46548 3.95097 0
M  V30 7259 H 670.78 0.449877 3.23487 0
M  V30 7260 H 669.439 2.50742 2.6744 0
M  V30 7261 H 669.087 1.32801 4.85153 0
M  V30 7262 H 668.787 3.07724 5.00579 0
M  V30 7263 H 670.311 2.37883 5.62356 0
M  V30 7264 H 671.725 4.03673 4.07089 0
M  V30 7265 H 670.122 4.73112 3.69168 0
M  V30 7266 H 671.192 4.23049 2.36976 0
M  V30 7267 N 672.536 -0.895792 1.29666 0
M  V30 7268 C 673.782 -1.64908 1.18039 0
M  V30 7269 C 674.115 -1.9236 -0.266682 0
M  V30 7270 O 673.39 -1.53682 -1.19214 0
M  V30 7271 C 673.673 -2.99574 1.99819 0
M  V30 7272 C 673.526 -2.79163 3.52687 0
M  V30 7273 C 674.845 -4.00358 1.82761 0
M  V30 7274 H 671.964 -0.598437 0.430165 0
M  V30 7275 H 674.606 -1.03736 1.59182 0
M  V30 7276 H 672.756 -3.51786 1.64859 0
M  V30 7277 H 674.428 -2.33821 3.9765 0
M  V30 7278 H 672.671 -2.13871 3.77414 0
M  V30 7279 H 673.342 -3.74871 4.05186 0
M  V30 7280 H 675.818 -3.57268 2.13304 0
M  V30 7281 H 674.694 -4.92514 2.42325 0
M  V30 7282 H 674.955 -4.35096 0.783839 0
M  V30 7283 N 674.014 -1.12206 -1.10668 0
M  V30 7284 C 675.262 -0.874144 -1.82217 0
M  V30 7285 C 675.583 0.601736 -1.85484 0
M  V30 7286 O 674.853 1.43725 -1.33116 0
M  V30 7287 H 673.433 -0.320404 -0.674797 0
M  V30 7288 H 676.095 -1.41606 -1.33917 0
M  V30 7289 H 675.191 -1.25349 -2.85822 0
M  V30 7290 N 675.492 1.28418 -0.913599 0
M  V30 7291 C 676.738 1.95627 -0.556933 0
M  V30 7292 C 677.093 1.706 0.889565 0
M  V30 7293 O 676.386 1.01637 1.6242 0
M  V30 7294 C 676.58 3.48283 -0.802099 0
M  V30 7295 C 676.409 3.88151 -2.27088 0
M  V30 7296 C 675.179 4.1232 -2.92096 0
M  V30 7297 C 677.377 3.98819 -3.24728 0
M  V30 7298 N 675.359 4.3886 -4.29272 0
M  V30 7299 C 676.73 4.29571 -4.47067 0
M  V30 7300 C 678.785 3.81342 -3.20129 0
M  V30 7301 C 677.488 4.44667 -5.65388 0
M  V30 7302 C 679.514 3.97656 -4.37749 0
M  V30 7303 C 678.876 4.2878 -5.58862 0
M  V30 7304 H 674.975 0.739715 -0.253664 0
M  V30 7305 H 677.559 1.55074 -1.1773 0
M  V30 7306 H 675.73 3.87826 -0.211007 0
M  V30 7307 H 677.462 4.02623 -0.409478 0
M  V30 7308 H 674.217 4.06611 -2.42826 0
M  V30 7309 H 674.641 4.56214 -5.00198 0
M  V30 7310 H 679.283 3.56331 -2.2757 0
M  V30 7311 H 677.001 4.68509 -6.58426 0
M  V30 7312 H 680.587 3.85569 -4.35692 0
M  V30 7313 H 679.467 4.41136 -6.48359 0
M  V30 7314 N 676.97 0.677563 1.42291 0
M  V30 7315 C 678.219 0.198173 2.00724 0
M  V30 7316 C 678.532 -1.20325 1.54211 0
M  V30 7317 O 679.738 -1.77916 2.05081 0
M  V30 7318 C 678.194 0.303432 3.58619 0
M  V30 7319 C 677.802 1.70909 4.14119 0
M  V30 7320 C 679.546 -0.117103 4.24338 0
M  V30 7321 C 677.453 1.76696 5.64387 0
M  V30 7322 H 676.383 0.070329 0.750713 0
M  V30 7323 H 679.034 0.843147 1.62982 0
M  V30 7324 H 677.416 -0.409482 3.93877 0
M  V30 7325 H 678.59 2.44931 3.90315 0
M  V30 7326 H 676.905 2.07771 3.6086 0
M  V30 7327 H 679.502 -0.0940471 5.34617 0
M  V30 7328 H 679.845 -1.15283 4.00019 0
M  V30 7329 H 680.378 0.5449 3.9405 0
M  V30 7330 H 677.117 2.7826 5.93508 0
M  V30 7331 H 676.637 1.07034 5.90173 0
M  V30 7332 H 678.316 1.52166 6.28852 0
M  V30 7333 N 678.448 -1.51871 0.421078 0
M  V30 7334 C 679.725 -1.9447 -0.20993 0
M  V30 7335 C 680.105 -1.35875 -1.61558 0
M  V30 7336 O 679.453 -0.539294 -2.22045 0
M  V30 7337 C 679.663 -3.48402 -0.204165 0
M  V30 7338 C 681.011 -4.2254 -0.417696 0
M  V30 7339 O 682.035 -3.55074 -0.282999 0
M  V30 7340 O 680.894 -5.422 -0.684239 0
M  V30 7341 H 677.988 -0.815283 -0.138718 0
M  V30 7342 H 680.534 -1.62832 0.477884 0
M  V30 7343 H 679.306 -3.83464 0.779183 0
M  V30 7344 H 678.929 -3.86436 -0.935576 0
M  V30 7345 N 679.926 -0.151884 -1.56866 0
M  V30 7346 C 680.876 0.797799 -2.13586 0
M  V30 7347 C 681.86 1.20613 -1.06496 0
M  V30 7348 O 683.052 1.17173 -1.32663 0
M  V30 7349 C 680.181 2.03493 -2.76488 0
M  V30 7350 C 679.267 1.64948 -3.90708 0
M  V30 7351 N 679.658 0.972513 -4.96363 0
M  V30 7352 C 677.956 1.94186 -4.01507 0
M  V30 7353 C 678.657 0.785661 -5.7637 0
M  V30 7354 N 677.633 1.32105 -5.27304 0
M  V30 7355 H 681.435 0.271403 -2.92644 0
M  V30 7356 H 678.949 0.049487 -1.62325 0
M  V30 7357 H 680.946 2.72532 -3.15487 0
M  V30 7358 H 679.606 2.56646 -1.98904 0
M  V30 7359 H 680.617 0.632724 -5.1402 0
M  V30 7360 H 677.294 2.49154 -3.35005 0
M  V30 7361 H 678.684 0.251749 -6.71428 0
M  V30 7362 N 681.404 1.57128 0.121893 0
M  V30 7363 C 682.653 1.83888 0.828748 0
M  V30 7364 C 682.966 0.737087 1.81181 0
M  V30 7365 O 684.172 0.891007 2.56463 0
M  V30 7366 C 682.628 3.26014 1.52455 0
M  V30 7367 C 682.236 4.44195 0.58263 0
M  V30 7368 C 683.98 3.62025 2.21671 0
M  V30 7369 C 681.887 5.77349 1.28149 0
M  V30 7370 H 680.817 0.685856 0.313238 0
M  V30 7371 H 683.468 1.83319 0.0814851 0
M  V30 7372 H 681.85 3.21044 2.31834 0
M  V30 7373 H 683.024 4.60457 -0.177729 0
M  V30 7374 H 681.339 4.164 -0.00241228 0
M  V30 7375 H 683.936 4.58776 2.74643 0
M  V30 7376 H 684.279 2.89315 2.99337 0
M  V30 7377 H 684.812 3.68767 1.49184 0
M  V30 7378 H 681.551 6.53221 0.546189 0
M  V30 7379 H 681.071 5.64978 2.01394 0
M  V30 7380 H 682.75 6.21006 1.81549 0
M  V30 7381 N 682.882 -0.391992 1.52647 0
M  V30 7382 C 683.812 -1.48517 1.8018 0
M  V30 7383 C 684.793 -1.57039 0.653667 0
M  V30 7384 O 685.978 -1.72036 0.900962 0
M  V30 7385 C 683.108 -2.86161 1.96797 0
M  V30 7386 C 682.062 -2.92481 3.12472 0
M  V30 7387 C 681.388 -4.32546 3.14338 0
M  V30 7388 C 682.688 -2.624 4.51601 0
M  V30 7389 H 684.382 -1.25726 2.71723 0
M  V30 7390 H 681.928 -0.603387 1.30749 0
M  V30 7391 H 683.881 -3.62639 2.14641 0
M  V30 7392 H 682.605 -3.10283 1.01941 0
M  V30 7393 H 681.264 -2.18451 2.94406 0
M  V30 7394 H 680.912 -4.53703 2.1717 0
M  V30 7395 H 680.612 -4.37695 3.92042 0
M  V30 7396 H 682.136 -5.10934 3.34333 0
M  V30 7397 H 683.55 -3.28596 4.69785 0
M  V30 7398 H 681.947 -2.78903 5.3135 0
M  V30 7399 H 683.017 -1.57754 4.58521 0
M  V30 7400 N 684.36 -1.4356 -0.65026 0
M  V30 7401 C 685.292 -1.44918 -1.77571 0
M  V30 7402 C 686.305 -0.344925 -1.59104 0
M  V30 7403 O 687.494 -0.609537 -1.6777 0
M  V30 7404 C 684.594 -1.24914 -3.15039 0
M  V30 7405 C 683.767 -2.48232 -3.60138 0
M  V30 7406 C 682.826 -2.23409 -4.76419 0
M  V30 7407 O 681.852 -2.9678 -4.85706 0
M  V30 7408 N 683.054 -1.25259 -5.66825 0
M  V30 7409 H 685.819 -2.41935 -1.76883 0
M  V30 7410 H 683.38 -1.38754 -0.834202 0
M  V30 7411 H 685.372 -1.06185 -3.90521 0
M  V30 7412 H 683.942 -0.363319 -3.10481 0
M  V30 7413 H 683.162 -2.82366 -2.75069 0
M  V30 7414 H 684.45 -3.30296 -3.87017 0
M  V30 7415 H 683.848 -0.646246 -5.61997 0
M  V30 7416 H 682.405 -1.12513 -6.42016 0
M  V30 7417 N 685.838 0.888903 -1.30139 0
M  V30 7418 C 687.066 1.67358 -1.21651 0
M  V30 7419 C 687.481 1.87499 0.221246 0
M  V30 7420 O 686.838 1.41969 1.14677 0
M  V30 7421 C 686.889 3.05213 -1.93719 0
M  V30 7422 O 686.61 2.85984 -3.31881 0
M  V30 7423 C 688.111 3.9964 -1.9184 0
M  V30 7424 H 685.331 0.522365 -0.42116 0
M  V30 7425 H 687.875 1.11086 -1.71698 0
M  V30 7426 H 686.03 3.5823 -1.4748 0
M  V30 7427 H 686.444 3.73411 -3.68327 0
M  V30 7428 H 687.918 4.93749 -2.46811 0
M  V30 7429 H 688.395 4.29955 -0.896409 0
M  V30 7430 H 689.001 3.52558 -2.37872 0
M  V30 7431 N 687.317 1.12792 1.10072 0
M  V30 7432 C 688.565 0.883796 1.81751 0
M  V30 7433 C 688.886 -0.591891 1.858 0
M  V30 7434 O 688.156 -1.43017 1.33876 0
M  V30 7435 H 686.736 0.323978 0.673088 0
M  V30 7436 H 689.398 1.42314 1.33164 0
M  V30 7437 H 688.494 1.26863 2.85153 0
M  V30 7438 N 688.795 -1.27931 0.920396 0
M  V30 7439 C 690.043 -1.94304 0.555906 0
M  V30 7440 C 690.364 -1.72753 -0.904519 0
M  V30 7441 O 689.634 -1.07104 -1.64029 0
M  V30 7442 H 688.214 -0.719001 0.202599 0
M  V30 7443 H 690.876 -1.55785 1.1712 0
M  V30 7444 H 689.972 -3.02806 0.755981 0
M  V30 7445 N 690.273 -0.685099 -1.4193 0
M  V30 7446 C 691.236 -0.0222632 -2.29189 0
M  V30 7447 C 692.236 0.7186 -1.4385 0
M  V30 7448 O 693.426 0.555058 -1.6512 0
M  V30 7449 C 690.558 0.979013 -3.2654 0
M  V30 7450 H 691.751 -0.790424 -2.89296 0
M  V30 7451 H 689.304 -0.448012 -1.49742 0
M  V30 7452 H 690.039 1.77531 -2.71392 0
M  V30 7453 H 689.824 0.451037 -3.89497 0
M  V30 7454 H 691.314 1.44091 -3.91954 0
M  V30 7455 N 691.751 1.51645 -0.429126 0
M  V30 7456 C 692.979 2.06433 0.138994 0
M  V30 7457 C 693.394 1.29735 1.37165 0
M  V30 7458 O 692.751 0.354638 1.79021 0
M  V30 7459 C 692.802 3.58439 0.469452 0
M  V30 7460 O 692.523 4.32238 -0.714273 0
M  V30 7461 C 694.024 4.29712 1.08914 0
M  V30 7462 H 691.244 0.6709 0.0115608 0
M  V30 7463 H 693.788 1.9532 -0.605843 0
M  V30 7464 H 691.943 3.69494 1.16419 0
M  V30 7465 H 692.357 5.22704 -0.433633 0
M  V30 7466 H 693.831 5.37182 1.27042 0
M  V30 7467 H 694.308 3.87473 2.06788 0
M  V30 7468 H 694.914 4.2308 0.434028 0
M  V30 7469 N 693.229 0.160201 1.56784 0
M  V30 7470 C 694.179 -0.786461 2.14007 0
M  V30 7471 C 695.163 -1.20046 1.07134 0
M  V30 7472 O 696.355 -1.16468 1.33283 0
M  V30 7473 C 693.484 -2.02024 2.77563 0
M  V30 7474 C 692.57 -1.62874 3.91578 0
M  V30 7475 N 692.961 -0.946176 4.96871 0
M  V30 7476 C 691.259 -1.92054 4.02531 0
M  V30 7477 C 691.96 -0.755084 5.76778 0
M  V30 7478 N 690.936 -1.29307 5.27997 0
M  V30 7479 H 694.738 -0.255879 2.92784 0
M  V30 7480 H 692.252 -0.0408778 1.62349 0
M  V30 7481 H 694.249 -2.70855 3.16928 0
M  V30 7482 H 692.909 -2.55587 2.00263 0
M  V30 7483 H 693.92 -0.605455 5.14349 0
M  V30 7484 H 690.597 -2.47374 3.36322 0
M  V30 7485 H 691.987 -0.216138 6.71552 0
M  V30 7486 N 694.707 -1.5719 -0.113559 0
M  V30 7487 C 695.637 -2.03772 -1.14013 0
M  V30 7488 C 696.618 -0.923176 -1.42869 0
M  V30 7489 O 697.803 -1.19325 -1.53216 0
M  V30 7490 C 694.933 -2.44663 -2.4649 0
M  V30 7491 C 693.887 -3.59612 -2.32085 0
M  V30 7492 C 693.213 -3.8642 -3.69573 0
M  V30 7493 C 694.513 -4.91149 -1.7768 0
M  V30 7494 H 696.207 -2.89785 -0.752665 0
M  V30 7495 H 693.753 -1.39412 -0.360609 0
M  V30 7496 H 695.706 -2.75857 -3.18561 0
M  V30 7497 H 694.43 -1.55628 -2.87137 0
M  V30 7498 H 693.089 -3.28636 -1.62461 0
M  V30 7499 H 692.737 -2.94581 -4.07715 0
M  V30 7500 H 692.437 -4.63797 -3.60786 0
M  V30 7501 H 693.961 -4.2007 -4.4314 0
M  V30 7502 H 695.375 -5.20843 -2.39574 0
M  V30 7503 H 693.772 -5.72562 -1.79701 0
M  V30 7504 H 694.842 -4.79301 -0.734776 0
M  V30 7505 N 696.185 0.383891 -1.52853 0
M  V30 7506 C 697.132 1.46924 -1.77995 0
M  V30 7507 C 698.102 1.53958 -0.623396 0
M  V30 7508 O 699.287 1.70134 -0.863657 0
M  V30 7509 C 696.427 2.84093 -1.95921 0
M  V30 7510 C 695.54 2.86171 -3.23621 0
M  V30 7511 C 694.675 4.14799 -3.31836 0
M  V30 7512 C 693.714 4.10948 -4.53639 0
M  V30 7513 N 692.851 5.31192 -4.59107 0
M  V30 7514 H 697.691 1.24786 -2.70615 0
M  V30 7515 H 695.228 0.605265 -1.34071 0
M  V30 7516 H 697.186 3.63755 -2.04299 0
M  V30 7517 H 695.816 3.04671 -1.06656 0
M  V30 7518 H 694.868 1.9885 -3.24288 0
M  V30 7519 H 696.18 2.79194 -4.13343 0
M  V30 7520 H 695.334 5.02867 -3.39425 0
M  V30 7521 H 694.073 4.24505 -2.40097 0
M  V30 7522 H 693.078 3.21268 -4.46169 0
M  V30 7523 H 694.303 4.0286 -5.467 0
M  V30 7524 H 692.249 5.41518 -3.70262 0
M  V30 7525 H 692.166 5.26311 -5.42708 0
M  V30 7526 H 693.434 6.21143 -4.70958 0
M  V30 7527 N 697.663 1.43903 0.642637 0
M  V30 7528 C 699.074 1.40975 1.22404 0
M  V30 7529 C 699.425 0.1192 1.95838 0
M  V30 7530 O 698.55 -0.780939 2.01818 0
M  V30 7531 C 699.145 2.5538 2.22636 0
M  V30 7532 C 697.704 2.55684 2.76229 0
M  V30 7533 C 696.851 2.32556 1.51039 0
M  V30 7534 H 699.802 1.5265 0.434006 0
M  V30 7535 H 699.823 2.27474 3.05017 0
M  V30 7536 H 699.335 3.49294 1.69161 0
M  V30 7537 H 697.436 1.65679 3.33738 0
M  V30 7538 H 697.549 3.53799 3.23053 0
M  V30 7539 H 695.913 1.81427 1.78764 0
M  V30 7540 H 696.696 3.28569 0.99484 0
M  V30 7541 N 699.141 -0.881989 1.30609 0
M  V30 7542 C 700.371 -1.66469 1.22359 0
M  V30 7543 C 700.779 -1.87969 -0.215507 0
M  V30 7544 O 700.122 -1.42938 -1.15388 0
M  V30 7545 C 700.184 -3.06135 1.88472 0
M  V30 7546 C 699.848 -3.07795 3.37804 0
M  V30 7547 C 700.845 -2.86633 4.33749 0
M  V30 7548 C 698.53 -3.29297 3.793 0
M  V30 7549 C 700.524 -2.86934 5.69164 0
M  V30 7550 C 698.211 -3.29228 5.14832 0
M  V30 7551 C 699.209 -3.08071 6.09574 0
M  V30 7552 O 698.897 -3.07824 7.4263 0
M  V30 7553 H 698.629 -0.526129 0.424458 0
M  V30 7554 H 701.183 -1.11004 1.72821 0
M  V30 7555 H 699.413 -3.63276 1.32543 0
M  V30 7556 H 701.102 -3.66571 1.74301 0
M  V30 7557 H 701.868 -2.69814 4.0302 0
M  V30 7558 H 697.747 -3.44799 3.05998 0
M  V30 7559 H 701.291 -2.70339 6.43088 0
M  V30 7560 H 697.188 -3.45583 5.452 0
M  V30 7561 H 697.956 -3.2397 7.51656 0
M  V30 7562 N 700.619 -1.13374 -1.09472 0
M  V30 7563 C 701.582 -0.813639 -2.14272 0
M  V30 7564 C 702.582 0.176677 -1.59826 0
M  V30 7565 O 703.772 -0.0503441 -1.74127 0
M  V30 7566 C 700.904 -0.210897 -3.40247 0
M  V30 7567 H 702.097 -1.74229 -2.44099 0
M  V30 7568 H 699.65 -0.938304 -1.25002 0
M  V30 7569 H 700.385 0.726998 -3.16046 0
M  V30 7570 H 700.17 -0.924048 -3.81056 0
M  V30 7571 H 701.66 -0.00377603 -4.176 0
M  V30 7572 N 702.098 1.27442 -0.927168 0
M  V30 7573 C 703.345 1.94391 -0.567324 0
M  V30 7574 C 703.673 1.72875 0.891321 0
M  V30 7575 O 702.928 1.05071 1.65102 0
M  V30 7576 C 703.227 3.47413 -0.838994 0
M  V30 7577 C 702.893 3.89049 -2.2793 0
M  V30 7578 C 701.555 4.00127 -2.67305 0
M  V30 7579 C 703.907 4.10154 -3.21595 0
M  V30 7580 C 701.235 4.29697 -3.99471 0
M  V30 7581 C 703.587 4.41208 -4.53341 0
M  V30 7582 C 702.251 4.50499 -4.92551 0
M  V30 7583 H 701.521 0.711325 -0.207598 0
M  V30 7584 H 704.168 1.51523 -1.17103 0
M  V30 7585 H 702.473 3.91503 -0.152609 0
M  V30 7586 H 704.17 3.97354 -0.53955 0
M  V30 7587 H 700.76 3.80962 -1.96381 0
M  V30 7588 H 704.944 4.01036 -2.92377 0
M  V30 7589 H 700.2 4.35099 -4.29533 0
M  V30 7590 H 704.374 4.56486 -5.25922 0
M  V30 7591 H 702.001 4.73167 -5.94994 0
M  V30 7592 N 703.576 0.692616 1.41565 0
M  V30 7593 C 704.508 -0.0137132 2.29196 0
M  V30 7594 C 705.521 -0.747417 1.44629 0
M  V30 7595 O 706.71 -0.598611 1.68163 0
M  V30 7596 C 703.81 -1.04347 3.22436 0
M  V30 7597 C 702.983 -0.379985 4.35746 0
M  V30 7598 C 702.042 -1.31195 5.09583 0
M  V30 7599 O 701.068 -0.805455 5.63472 0
M  V30 7600 N 702.27 -2.64443 5.16769 0
M  V30 7601 H 705.035 0.738614 2.90456 0
M  V30 7602 H 702.596 0.538415 1.52685 0
M  V30 7603 H 704.588 -1.6686 3.687 0
M  V30 7604 H 703.158 -1.69736 2.62504 0
M  V30 7605 H 702.378 0.424975 3.91903 0
M  V30 7606 H 703.666 0.0814904 5.08735 0
M  V30 7607 H 703.064 -3.08114 4.74428 0
M  V30 7608 H 701.621 -3.22159 5.66619 0
M  V30 7609 N 705.054 -1.51416 0.437162 0
M  V30 7610 C 705.986 -2.255 -0.410171 0
M  V30 7611 C 706.999 -1.29511 -0.986444 0
M  V30 7612 O 708.188 -1.55266 -0.880614 0
M  V30 7613 C 705.288 -2.99511 -1.58575 0
M  V30 7614 C 704.461 -4.22595 -1.12839 0
M  V30 7615 C 703.52 -4.79187 -2.17407 0
M  V30 7616 O 702.546 -5.4103 -1.76849 0
M  V30 7617 N 703.748 -4.63204 -3.49889 0
M  V30 7618 H 706.513 -2.98856 0.224783 0
M  V30 7619 H 704.074 -1.59699 0.266041 0
M  V30 7620 H 706.066 -3.34258 -2.28152 0
M  V30 7621 H 704.636 -2.29167 -2.12606 0
M  V30 7622 H 703.856 -3.93344 -0.259695 0
M  V30 7623 H 705.144 -5.02468 -0.800196 0
M  V30 7624 H 704.542 -4.13945 -3.85573 0
M  V30 7625 H 703.099 -5.02313 -4.15361 0
M  V30 7626 N 706.532 -0.168513 -1.56696 0
M  V30 7627 C 707.943 0.348694 -1.83415 0
M  V30 7628 C 708.294 1.63257 -1.0882 0
M  V30 7629 O 707.419 2.13707 -0.340333 0
M  V30 7630 C 708.014 0.639423 -3.32711 0
M  V30 7631 C 706.573 1.10108 -3.59935 0
M  V30 7632 C 705.72 0.135464 -2.76969 0
M  V30 7633 H 708.671 -0.392829 -1.53761 0
M  V30 7634 H 708.692 1.49179 -3.50037 0
M  V30 7635 H 708.204 -0.295173 -3.86976 0
M  V30 7636 H 706.305 2.05088 -3.11079 0
M  V30 7637 H 706.418 1.01218 -4.68286 0
M  V30 7638 H 704.782 0.632286 -2.46727 0
M  V30 7639 H 705.565 -0.793104 -3.34013 0
M  V30 7640 N 708.01 1.57248 0.105221 0
M  V30 7641 C 709.256 1.86719 0.806692 0
M  V30 7642 C 709.611 0.758061 1.76837 0
M  V30 7643 O 708.904 -0.240812 1.90081 0
M  V30 7644 C 709.098 3.20437 1.58287 0
M  V30 7645 C 708.927 4.44252 0.697864 0
M  V30 7646 C 707.697 5.04104 0.347444 0
M  V30 7647 C 709.895 5.14299 0.00933014 0
M  V30 7648 N 707.877 6.1146 -0.546786 0
M  V30 7649 C 709.248 6.15528 -0.74336 0
M  V30 7650 C 711.303 4.97857 -0.0656505 0
M  V30 7651 C 710.006 7.02091 -1.56401 0
M  V30 7652 C 712.032 5.84919 -0.873167 0
M  V30 7653 C 711.394 6.8566 -1.61401 0
M  V30 7654 H 707.493 0.73329 0.271679 0
M  V30 7655 H 710.077 1.94575 0.0697152 0
M  V30 7656 H 708.248 3.13651 2.29079 0
M  V30 7657 H 709.98 3.37668 2.23075 0
M  V30 7658 H 706.735 4.68505 0.692817 0
M  V30 7659 H 707.159 6.69779 -0.986157 0
M  V30 7660 H 711.801 4.19919 0.492768 0
M  V30 7661 H 709.519 7.79427 -2.13353 0
M  V30 7662 H 713.105 5.74259 -0.933724 0
M  V30 7663 H 711.985 7.5186 -2.2288 0
M  V30 7664 N 709.488 -0.375779 1.53054 0
M  V30 7665 C 710.438 -1.45965 1.75152 0
M  V30 7666 C 711.422 -1.49059 0.605823 0
M  V30 7667 O 712.614 -1.54472 0.864133 0
M  V30 7668 C 709.743 -2.83524 1.93569 0
M  V30 7669 C 708.829 -2.84949 3.1411 0
M  V30 7670 N 709.22 -2.56029 4.36214 0
M  V30 7671 C 707.518 -3.16113 3.14625 0
M  V30 7672 C 708.219 -2.64873 5.17897 0
M  V30 7673 N 707.195 -2.99159 4.53878 0
M  V30 7674 H 710.997 -1.22454 2.67175 0
M  V30 7675 H 708.511 -0.583867 1.51541 0
M  V30 7676 H 710.508 -3.61578 2.07525 0
M  V30 7677 H 709.168 -3.08008 1.02768 0
M  V30 7678 H 710.179 -2.29808 4.64121 0
M  V30 7679 H 706.856 -3.45977 2.3368 0
M  V30 7680 H 708.246 -2.45947 6.25268 0
M  V30 7681 N 710.966 -1.44241 -0.634997 0
M  V30 7682 C 711.876 -1.53293 -1.77591 0
M  V30 7683 C 712.892 -0.418831 -1.68884 0
M  V30 7684 O 714.068 -0.675619 -1.8973 0
M  V30 7685 C 711.133 -1.47075 -3.13958 0
M  V30 7686 C 710.194 -2.69304 -3.34326 0
M  V30 7687 C 709.427 -2.63374 -4.64187 0
M  V30 7688 O 709.65 -1.69161 -5.44739 0
M  V30 7689 O 708.584 -3.54166 -4.86673 0
M  V30 7690 H 712.41 -2.49673 -1.72908 0
M  V30 7691 H 709.995 -1.26445 -0.795745 0
M  V30 7692 H 711.877 -1.46117 -3.95257 0
M  V30 7693 H 710.552 -0.538373 -3.19192 0
M  V30 7694 H 709.459 -2.75831 -2.52721 0
M  V30 7695 H 710.792 -3.61576 -3.33951 0
M  V30 7696 N 712.444 0.87505 -1.31075 0
M  V30 7697 C 713.376 1.98773 -1.14114 0
M  V30 7698 C 714.389 1.62595 -0.0816119 0
M  V30 7699 O 715.578 1.75449 -0.32861 0
M  V30 7700 C 712.678 3.31159 -0.720224 0
M  V30 7701 C 711.851 3.9571 -1.86366 0
M  V30 7702 C 710.91 5.06407 -1.42965 0
M  V30 7703 O 709.936 5.27501 -2.13848 0
M  V30 7704 N 711.138 5.79649 -0.314194 0
M  V30 7705 H 713.903 2.1387 -2.09951 0
M  V30 7706 H 711.464 1.04873 -1.23342 0
M  V30 7707 H 713.456 4.0259 -0.412687 0
M  V30 7708 H 712.026 3.12257 0.146396 0
M  V30 7709 H 711.246 3.17324 -2.33879 0
M  V30 7710 H 712.534 4.35576 -2.62966 0
M  V30 7711 H 711.932 5.65025 0.276228 0
M  V30 7712 H 710.489 6.51766 -0.0661641 0
M  V30 7713 N 713.922 1.13953 1.08869 0
M  V30 7714 C 715.152 0.926825 1.84644 0
M  V30 7715 C 715.56 -0.527941 1.81685 0
M  V30 7716 O 714.903 -1.37742 1.21543 0
M  V30 7717 C 714.965 1.34416 3.33426 0
M  V30 7718 C 714.629 2.81351 3.60126 0
M  V30 7719 C 715.626 3.79486 3.55368 0
M  V30 7720 C 713.311 3.1865 3.88288 0
M  V30 7721 C 715.305 5.1293 3.78393 0
M  V30 7722 C 712.992 4.5227 4.10968 0
M  V30 7723 C 713.99 5.4922 4.06013 0
M  V30 7724 O 713.678 6.80429 4.28102 0
M  V30 7725 H 713.41 0.33013 0.589907 0
M  V30 7726 H 715.964 1.51738 1.38436 0
M  V30 7727 H 714.194 0.696901 3.80368 0
M  V30 7728 H 715.883 1.10302 3.90626 0
M  V30 7729 H 716.649 3.52017 3.3363 0
M  V30 7730 H 712.528 2.43785 3.91267 0
M  V30 7731 H 716.072 5.88591 3.74442 0
M  V30 7732 H 711.969 4.79462 4.32188 0
M  V30 7733 H 712.737 6.86617 4.45533 0
M  V30 7734 N 715.4 -1.26948 0.933913 0
M  V30 7735 C 716.33 -2.29017 0.45534 0
M  V30 7736 C 717.311 -1.62961 -0.487605 0
M  V30 7737 O 718.496 -1.90223 -0.391022 0
M  V30 7738 C 715.626 -3.46112 -0.287015 0
M  V30 7739 C 714.58 -4.24205 0.568682 0
M  V30 7740 C 713.906 -5.3384 -0.303206 0
M  V30 7741 C 715.206 -4.88954 1.83633 0
M  V30 7742 H 716.9 -2.69298 1.30839 0
M  V30 7743 H 714.446 -1.29459 0.630579 0
M  V30 7744 H 716.399 -4.16622 -0.6328 0
M  V30 7745 H 715.123 -3.04765 -1.17414 0
M  V30 7746 H 713.782 -3.5545 0.897261 0
M  V30 7747 H 713.43 -4.88734 -1.18947 0
M  V30 7748 H 713.13 -5.86998 0.265879 0
M  V30 7749 H 714.654 -6.0719 -0.644423 0
M  V30 7750 H 716.068 -5.51717 1.55823 0
M  V30 7751 H 714.465 -5.52198 2.34941 0
M  V30 7752 H 715.535 -4.12305 2.55211 0
M  V30 7753 N 716.879 -0.700114 -1.41195 0
M  V30 7754 C 718.128 -0.230082 -2.00383 0
M  V30 7755 C 718.441 1.17857 -1.56106 0
M  V30 7756 O 719.647 1.74631 -2.07885 0
M  V30 7757 C 718.103 -0.360447 -3.5809 0
M  V30 7758 C 717.711 -1.77475 -4.11347 0
M  V30 7759 C 719.455 0.0495799 -4.24471 0
M  V30 7760 C 717.362 -1.85653 -5.61504 0
M  V30 7761 H 716.292 -0.0822633 -0.749499 0
M  V30 7762 H 718.943 -0.868969 -1.6162 0
M  V30 7763 H 717.325 0.346768 -3.94479 0
M  V30 7764 H 718.499 -2.51109 -3.86369 0
M  V30 7765 H 716.814 -2.13486 -3.57509 0
M  V30 7766 H 719.411 0.00898219 -5.34699 0
M  V30 7767 H 719.754 1.08904 -4.01803 0
M  V30 7768 H 720.287 -0.607521 -3.93134 0
M  V30 7769 H 717.026 -2.87667 -5.89006 0
M  V30 7770 H 716.546 -1.1641 -5.88395 0
M  V30 7771 H 718.225 -1.62151 -6.26351 0
M  V30 7772 N 718.357 1.51182 -0.445186 0
M  V30 7773 C 719.634 1.9478 0.178965 0
M  V30 7774 C 720.014 1.38428 1.59376 0
M  V30 7775 O 719.362 0.574552 2.21159 0
M  V30 7776 C 719.572 3.48683 0.148711 0
M  V30 7777 C 720.92 4.23152 0.35042 0
M  V30 7778 O 721.944 3.55479 0.226474 0
M  V30 7779 O 720.803 5.4322 0.597893 0
M  V30 7780 H 717.897 0.817387 0.12573 0
M  V30 7781 H 720.443 1.62051 -0.503729 0
M  V30 7782 H 719.215 3.82176 -0.84009 0
M  V30 7783 H 718.838 3.87875 0.873979 0
M  V30 7784 N 719.835 0.176821 1.56605 0
M  V30 7785 C 721.081 -0.467406 1.9734 0
M  V30 7786 C 721.414 -1.62523 1.06301 0
M  V30 7787 O 720.689 -1.94182 0.11125 0
M  V30 7788 C 720.972 -0.945106 3.47476 0
M  V30 7789 C 720.825 0.213273 4.49294 0
M  V30 7790 C 722.144 -1.8169 4.00845 0
M  V30 7791 H 719.263 -0.168426 0.717497 0
M  V30 7792 H 721.905 0.264065 1.88156 0
M  V30 7793 H 720.055 -1.56841 3.55434 0
M  V30 7794 H 721.727 0.850508 4.53392 0
M  V30 7795 H 719.97 0.867918 4.25029 0
M  V30 7796 H 720.641 -0.163187 5.51759 0
M  V30 7797 H 723.117 -1.29139 3.95553 0
M  V30 7798 H 721.993 -2.12015 5.06301 0
M  V30 7799 H 722.254 -2.76463 3.44994 0
M  V30 7800 N 721.313 -1.57302 -0.09688 0
M  V30 7801 C 722.56 -1.85997 -0.800699 0
M  V30 7802 C 722.888 -0.765089 -1.7882 0
M  V30 7803 O 722.143 0.241492 -1.94204 0
M  V30 7804 C 722.442 -3.21272 -1.56586 0
M  V30 7805 C 722.108 -4.45104 -0.72064 0
M  V30 7806 C 720.77 -4.78723 -0.487632 0
M  V30 7807 C 723.122 -5.2103 -0.132948 0
M  V30 7808 C 720.45 -5.85697 0.34296 0
M  V30 7809 C 722.802 -6.28881 0.684957 0
M  V30 7810 C 721.466 -6.61017 0.928073 0
M  V30 7811 H 720.736 -0.680613 -0.292997 0
M  V30 7812 H 723.383 -1.91399 -0.0622474 0
M  V30 7813 H 721.688 -3.11547 -2.37583 0
M  V30 7814 H 723.385 -3.40702 -2.11478 0
M  V30 7815 H 719.975 -4.18777 -0.912359 0
M  V30 7816 H 724.159 -4.95392 -0.300132 0
M  V30 7817 H 719.415 -6.09008 0.540317 0
M  V30 7818 H 723.589 -6.86886 1.14721 0
M  V30 7819 H 721.216 -7.43738 1.57348 0
M  V30 7820 N 722.791 0.367657 -1.53252 0
M  V30 7821 C 724.037 1.11216 -1.69584 0
M  V30 7822 C 724.37 1.89026 -0.445269 0
M  V30 7823 O 723.645 1.86342 0.557404 0
M  V30 7824 C 723.928 2.07308 -2.94441 0
M  V30 7825 C 723.781 1.3312 -4.2965 0
M  V30 7826 C 725.1 3.07459 -3.14892 0
M  V30 7827 H 722.219 0.40294 -0.617096 0
M  V30 7828 H 724.861 0.393201 -1.85887 0
M  V30 7829 H 723.011 2.68617 -2.80673 0
M  V30 7830 H 724.683 0.746111 -4.55226 0
M  V30 7831 H 722.926 0.633051 -4.29156 0
M  V30 7832 H 723.597 2.03443 -5.13142 0
M  V30 7833 H 726.073 2.56252 -3.27832 0
M  V30 7834 H 724.949 3.71919 -4.03693 0
M  V30 7835 H 725.21 3.77514 -2.30077 0
M  V30 7836 N 724.269 1.44576 0.627338 0
M  V30 7837 C 725.516 1.47558 1.38682 0
M  V30 7838 C 725.844 0.109636 1.94191 0
M  V30 7839 O 725.099 -0.889092 1.74338 0
M  V30 7840 C 725.398 2.48644 2.56731 0
M  V30 7841 C 725.064 3.93873 2.19489 0
M  V30 7842 C 723.726 4.33421 2.09045 0
M  V30 7843 C 726.078 4.85286 1.90124 0
M  V30 7844 C 723.406 5.62303 1.6743 0
M  V30 7845 C 725.758 6.14559 1.50001 0
M  V30 7846 C 724.422 6.53058 1.38101 0
M  V30 7847 H 723.692 0.539955 0.507474 0
M  V30 7848 H 726.339 1.77811 0.711021 0
M  V30 7849 H 724.644 2.11889 3.29561 0
M  V30 7850 H 726.341 2.48197 3.14959 0
M  V30 7851 H 722.931 3.62587 2.28537 0
M  V30 7852 H 727.115 4.55483 1.971 0
M  V30 7853 H 722.371 5.90945 1.56823 0
M  V30 7854 H 726.545 6.84848 1.26319 0
M  V30 7855 H 724.172 7.52826 1.05628 0
M  V30 7856 N 725.747 -0.868086 1.31537 0
M  V30 7857 C 726.677 -1.99131 1.21939 0
M  V30 7858 C 727.658 -1.69768 0.106166 0
M  V30 7859 O 728.843 -1.92006 0.291081 0
M  V30 7860 C 725.973 -3.34676 0.927879 0
M  V30 7861 C 724.927 -3.7835 2.00088 0
M  V30 7862 C 724.253 -5.11375 1.56203 0
M  V30 7863 C 725.553 -3.95256 3.41424 0
M  V30 7864 H 727.247 -2.07419 2.15911 0
M  V30 7865 H 724.793 -0.996569 1.03945 0
M  V30 7866 H 726.746 -4.12793 0.847327 0
M  V30 7867 H 725.47 -3.26565 -0.0475042 0
M  V30 7868 H 724.129 -3.02474 2.07135 0
M  V30 7869 H 723.777 -4.99709 0.57445 0
M  V30 7870 H 723.477 -5.41568 2.27985 0
M  V30 7871 H 725.001 -5.92001 1.49558 0
M  V30 7872 H 726.415 -4.63764 3.3704 0
M  V30 7873 H 724.812 -4.36849 4.1144 0
M  V30 7874 H 725.882 -2.98579 3.82072 0
M  V30 7875 N 727.225 -1.14528 -1.08264 0
M  V30 7876 C 728.155 -0.856356 -2.1723 0
M  V30 7877 C 729.136 0.189251 -1.69044 0
M  V30 7878 O 730.321 0.0456119 -1.94146 0
M  V30 7879 C 727.451 -0.334662 -3.45684 0
M  V30 7880 C 726.405 -1.31588 -4.0727 0
M  V30 7881 C 725.731 -0.653428 -5.30692 0
M  V30 7882 C 727.031 -2.67866 -4.48381 0
M  V30 7883 H 728.725 -1.76755 -2.41657 0
M  V30 7884 H 726.271 -0.851287 -1.16143 0
M  V30 7885 H 728.224 -0.120128 -4.21229 0
M  V30 7886 H 726.948 0.611967 -3.20815 0
M  V30 7887 H 725.607 -1.51661 -3.33758 0
M  V30 7888 H 725.255 0.299054 -5.0211 0
M  V30 7889 H 724.955 -1.30817 -5.72853 0
M  V30 7890 H 726.479 -0.448453 -6.08951 0
M  V30 7891 H 727.893 -2.51692 -5.15096 0
M  V30 7892 H 726.29 -3.29627 -5.01464 0
M  V30 7893 H 727.36 -3.24632 -3.60198 0
M  V30 7894 N 728.703 1.26451 -0.940633 0
M  V30 7895 C 729.951 1.93395 -0.586748 0
M  V30 7896 C 730.272 1.7417 0.876921 0
M  V30 7897 O 729.542 1.097 1.62304 0
M  V30 7898 H 728.122 0.715687 -0.214012 0
M  V30 7899 H 730.784 1.53902 -1.19584 0
M  V30 7900 H 729.88 3.01565 -0.804059 0
M  V30 7901 N 730.181 0.707592 1.40822 0
M  V30 7902 C 731.111 0.0644925 2.33411 0
M  V30 7903 C 732.092 -0.754205 1.52466 0
M  V30 7904 O 733.277 -0.704749 1.80961 0
M  V30 7905 C 730.407 -0.863865 3.36385 0
M  V30 7906 C 729.361 -0.15138 4.27732 0
M  V30 7907 C 728.687 -1.19491 5.21177 0
M  V30 7908 C 729.987 0.989607 5.12839 0
M  V30 7909 H 731.681 0.837829 2.87438 0
M  V30 7910 H 729.227 0.404346 1.38207 0
M  V30 7911 H 731.18 -1.32309 4.0009 0
M  V30 7912 H 729.904 -1.66901 2.80734 0
M  V30 7913 H 728.563 0.287937 3.65467 0
M  V30 7914 H 728.211 -1.9929 4.61836 0
M  V30 7915 H 727.911 -0.723123 5.83134 0
M  V30 7916 H 729.435 -1.6544 5.8776 0
M  V30 7917 H 730.849 0.610114 5.70044 0
M  V30 7918 H 729.246 1.38926 5.83798 0
M  V30 7919 H 730.316 1.82389 4.49291 0
M  V30 7920 N 731.66 -1.50943 0.453197 0
M  V30 7921 C 732.888 -2.06628 -0.106135 0
M  V30 7922 C 733.303 -1.31901 -1.35084 0
M  V30 7923 O 732.66 -0.383074 -1.78434 0
M  V30 7924 C 732.711 -3.5914 -0.412368 0
M  V30 7925 O 732.432 -4.31047 0.782948 0
M  V30 7926 C 733.933 -4.31391 -1.02064 0
M  V30 7927 H 731.153 -0.670999 -0.000885896 0
M  V30 7928 H 733.697 -1.94331 0.63684 0
M  V30 7929 H 731.852 -3.71299 -1.10526 0
M  V30 7930 H 732.266 -5.21948 0.516736 0
M  V30 7931 H 733.74 -5.39135 -1.1848 0
M  V30 7932 H 734.217 -3.90714 -2.00598 0
M  V30 7933 H 734.823 -4.23716 -0.366664 0
M  V30 7934 N 733.138 -0.185124 -1.56509 0
M  V30 7935 C 734.068 0.735098 -2.21627 0
M  V30 7936 C 735.049 1.2288 -1.1762 0
M  V30 7937 O 736.234 1.27945 -1.46095 0
M  V30 7938 C 733.364 1.95889 -2.86783 0
M  V30 7939 C 732.318 1.6005 -3.96948 0
M  V30 7940 C 731.644 2.90009 -4.4922 0
M  V30 7941 C 732.944 0.818008 -5.15855 0
M  V30 7942 H 734.638 0.192274 -2.98782 0
M  V30 7943 H 732.184 0.0910393 -1.43712 0
M  V30 7944 H 734.137 2.60779 -3.31017 0
M  V30 7945 H 732.861 2.52608 -2.07018 0
M  V30 7946 H 731.52 0.975237 -3.5339 0
M  V30 7947 H 731.168 3.44797 -3.6623 0
M  V30 7948 H 730.868 2.66778 -5.23549 0
M  V30 7949 H 732.392 3.55904 -4.9615 0
M  V30 7950 H 733.806 1.36979 -5.56695 0
M  V30 7951 H 732.203 0.684207 -5.96187 0
M  V30 7952 H 733.273 -0.182939 -4.84555 0
M  V30 7953 N 734.616 1.57351 0.0885366 0
M  V30 7954 C 735.864 1.86051 0.789262 0
M  V30 7955 C 736.185 0.774763 1.78948 0
M  V30 7956 O 735.455 -0.198324 1.94894 0
M  V30 7957 H 734.035 0.686508 0.294475 0
M  V30 7958 H 736.697 1.94779 0.0686055 0
M  V30 7959 H 735.793 2.83007 1.31581 0
M  V30 7960 N 736.094 -0.359525 1.53444 0
M  V30 7961 C 737.322 -1.12198 1.73837 0
M  V30 7962 C 737.737 -1.82854 0.470107 0
M  V30 7963 O 737.094 -1.73781 -0.557349 0
M  V30 7964 C 737.145 -2.14769 2.90786 0
M  V30 7965 O 736.866 -1.46989 4.12706 0
M  V30 7966 C 738.367 -3.03514 3.231 0
M  V30 7967 H 735.587 -0.33524 0.581253 0
M  V30 7968 H 738.131 -0.416598 2.00212 0
M  V30 7969 H 736.286 -2.80896 2.66788 0
M  V30 7970 H 736.7 -2.15378 4.78239 0
M  V30 7971 H 738.174 -3.71453 4.08322 0
M  V30 7972 H 738.651 -3.68658 2.38721 0
M  V30 7973 H 739.257 -2.42996 3.49046 0
M  V30 7974 N 737.572 -1.44907 -0.619662 0
M  V30 7975 C 738.505 -1.47133 -1.74434 0
M  V30 7976 C 739.483 -0.328933 -1.59238 0
M  V30 7977 O 740.667 -0.527632 -1.80965 0
M  V30 7978 C 737.794 -1.31491 -3.12134 0
M  V30 7979 C 736.84 -2.49441 -3.4595 0
M  V30 7980 S 737.673 -4.11945 -3.42142 0
M  V30 7981 C 738.829 -3.98747 -4.82443 0
M  V30 7982 H 739.062 -2.42295 -1.7228 0
M  V30 7983 H 736.595 -1.32343 -0.795276 0
M  V30 7984 H 738.553 -1.23153 -3.91591 0
M  V30 7985 H 737.214 -0.378203 -3.11815 0
M  V30 7986 H 736.407 -2.3439 -4.46181 0
M  V30 7987 H 736.009 -2.54577 -2.73982 0
M  V30 7988 H 738.301 -3.63145 -5.71954 0
M  V30 7989 H 739.244 -4.98848 -5.0255 0
M  V30 7990 H 739.652 -3.30608 -4.57557 0
M  V30 7991 N 739.05 0.861098 -1.31996 0
M  V30 7992 C 740.296 1.61707 -1.23379 0
M  V30 7993 C 740.651 1.91315 0.204026 0
M  V30 7994 O 739.944 1.53997 1.13998 0
M  V30 7995 C 740.138 2.94822 -2.02027 0
M  V30 7996 C 739.967 2.78212 -3.5331 0
M  V30 7997 C 738.737 2.76933 -4.22654 0
M  V30 7998 C 740.935 2.52432 -4.48088 0
M  V30 7999 N 738.917 2.51466 -5.60034 0
M  V30 8000 C 740.288 2.36312 -5.73198 0
M  V30 8001 C 742.343 2.37848 -4.37416 0
M  V30 8002 C 741.046 2.0709 -6.88844 0
M  V30 8003 C 743.072 2.10016 -5.52854 0
M  V30 8004 C 742.434 1.94691 -6.7696 0
M  V30 8005 H 738.533 0.595703 -0.506618 0
M  V30 8006 H 741.117 1.01275 -1.66287 0
M  V30 8007 H 739.288 3.53243 -1.61474 0
M  V30 8008 H 741.02 3.59756 -1.85358 0
M  V30 8009 H 737.775 2.89638 -3.74709 0
M  V30 8010 H 738.199 2.41679 -6.32392 0
M  V30 8011 H 742.841 2.4842 -3.42122 0
M  V30 8012 H 740.559 1.95256 -7.84156 0
M  V30 8013 H 744.145 1.99519 -5.46519 0
M  V30 8014 H 743.025 1.7346 -7.64775 0
M  V30 8015 N 740.528 1.15101 1.07655 0
M  V30 8016 C 741.458 0.867864 2.16773 0
M  V30 8017 C 742.439 -0.180283 1.69142 0
M  V30 8018 O 743.624 -0.0353152 1.94168 0
M  V30 8019 C 740.754 0.35299 3.45501 0
M  V30 8020 C 739.708 1.33746 4.06566 0
M  V30 8021 C 739.034 0.681562 5.30338 0
M  V30 8022 C 740.334 2.7024 4.46954 0
M  V30 8023 H 742.028 1.78034 2.40716 0
M  V30 8024 H 739.574 0.857435 1.15689 0
M  V30 8025 H 741.527 0.142465 4.21159 0
M  V30 8026 H 740.251 -0.594945 3.21135 0
M  V30 8027 H 738.91 1.53429 3.32949 0
M  V30 8028 H 738.558 -0.272422 5.02262 0
M  V30 8029 H 738.258 1.33853 5.72151 0
M  V30 8030 H 739.782 0.48074 6.08705 0
M  V30 8031 H 741.196 2.5442 5.13754 0
M  V30 8032 H 739.593 3.32282 4.99709 0
M  V30 8033 H 740.663 3.26537 3.58471 0
M  V30 8034 N 742.006 -1.2595 0.947325 0
M  V30 8035 C 743.246 -1.95218 0.605743 0
M  V30 8036 C 743.61 -1.72624 -0.84054 0
M  V30 8037 O 744.811 -2.35748 -1.29136 0
M  V30 8038 C 743.082 -3.44654 0.94596 0
M  V30 8039 S 744.641 -4.32922 0.715849 0
M  V30 8040 H 741.459 -0.675159 0.222894 0
M  V30 8041 H 744.061 -1.52766 1.21995 0
M  V30 8042 H 742.765 -3.586 1.99585 0
M  V30 8043 H 742.296 -3.92082 0.321718 0
M  V30 8044 H 744.311 -4.94445 -0.416959 0
M  V30 8045 N 743.484 -0.715051 -1.40445 0
M  V30 8046 C 744.732 -0.253826 -2.005 0
M  V30 8047 C 745.053 1.15681 -1.5698 0
M  V30 8048 O 744.323 1.78414 -0.809027 0
M  V30 8049 H 742.903 -0.0908537 -0.741454 0
M  V30 8050 H 745.565 -0.920561 -1.7179 0
M  V30 8051 H 744.661 -0.286499 -3.10782 0
M  V30 8052 N 744.962 1.50701 -0.461195 0
M  V30 8053 C 745.909 2.2831 0.338094 0
M  V30 8054 C 746.879 1.32928 0.995957 0
M  V30 8055 O 748.064 1.61857 1.0103 0
M  V30 8056 C 745.204 3.14539 1.41983 0
M  V30 8057 C 744.317 4.24942 0.77773 0
M  V30 8058 C 743.452 4.98443 1.83652 0
M  V30 8059 C 742.491 6.00733 1.17413 0
M  V30 8060 N 741.628 6.6755 2.17533 0
M  V30 8061 H 746.468 2.96167 -0.330051 0
M  V30 8062 H 744.005 1.4606 -0.174611 0
M  V30 8063 H 745.963 3.62877 2.05855 0
M  V30 8064 H 744.593 2.48749 2.05727 0
M  V30 8065 H 743.645 3.80391 0.0266924 0
M  V30 8066 H 744.957 4.98151 0.254362 0
M  V30 8067 H 744.111 5.50449 2.55129 0
M  V30 8068 H 742.85 4.24917 2.39367 0
M  V30 8069 H 741.855 5.47997 0.444944 0
M  V30 8070 H 743.08 6.76227 0.624006 0
M  V30 8071 H 741.026 5.96823 2.72284 0
M  V30 8072 H 740.943 7.36603 1.70154 0
M  V30 8073 H 742.211 7.24178 2.88421 0
M  V30 8074 N 746.441 0.193421 1.56409 0
M  V30 8075 C 747.371 -0.723334 2.22014 0
M  V30 8076 C 748.352 -1.22254 1.1827 0
M  V30 8077 O 749.537 -1.27168 1.46771 0
M  V30 8078 C 746.667 -1.94366 2.87818 0
M  V30 8079 C 745.621 -1.57943 3.97791 0
M  V30 8080 C 744.947 -2.87623 4.50752 0
M  V30 8081 C 746.247 -0.790639 5.16281 0
M  V30 8082 H 747.941 -0.176426 2.9888 0
M  V30 8083 H 745.487 -0.0834166 1.43758 0
M  V30 8084 H 747.44 -2.5902 3.32396 0
M  V30 8085 H 746.164 -2.51507 2.08355 0
M  V30 8086 H 744.823 -0.956482 3.53903 0
M  V30 8087 H 744.471 -3.4285 3.68053 0
M  V30 8088 H 744.171 -2.63998 5.24956 0
M  V30 8089 H 745.695 -3.53268 4.9803 0
M  V30 8090 H 747.109 -1.34024 5.57414 0
M  V30 8091 H 745.506 -0.65258 5.96541 0
M  V30 8092 H 746.576 0.208633 4.84451 0
M  V30 8093 N 747.919 -1.57396 -0.0801906 0
M  V30 8094 C 748.849 -2.06145 -1.09665 0
M  V30 8095 C 749.83 -0.953273 -1.40878 0
M  V30 8096 O 751.015 -1.22548 -1.50651 0
M  V30 8097 C 748.145 -2.49836 -2.41245 0
M  V30 8098 C 747.099 -3.64454 -2.24405 0
M  V30 8099 C 746.425 -3.94172 -3.61293 0
M  V30 8100 C 747.725 -4.94807 -1.67223 0
M  V30 8101 H 749.419 -2.91316 -0.691028 0
M  V30 8102 H 746.965 -1.40145 -0.330957 0
M  V30 8103 H 748.918 -2.82552 -3.12638 0
M  V30 8104 H 747.642 -1.61683 -2.83771 0
M  V30 8105 H 746.301 -3.32008 -1.55454 0
M  V30 8106 H 745.949 -3.03163 -4.01374 0
M  V30 8107 H 745.649 -4.71345 -3.50867 0
M  V30 8108 H 747.173 -4.29376 -4.3413 0
M  V30 8109 H 748.587 -5.25807 -2.28472 0
M  V30 8110 H 746.984 -5.76245 -1.67515 0
M  V30 8111 H 748.054 -4.80751 -0.632944 0
M  V30 8112 N 749.397 0.351382 -1.53633 0
M  V30 8113 C 750.645 1.09034 -1.70165 0
M  V30 8114 C 750.966 1.89413 -0.463422 0
M  V30 8115 O 750.236 1.888 0.522624 0
M  V30 8116 H 748.816 0.405522 -0.627344 0
M  V30 8117 H 751.478 0.394554 -1.90865 0
M  V30 8118 H 750.574 1.77215 -2.56907 0
M  V30 8119 N 750.875 1.45233 0.611969 0
M  V30 8120 C 752.121 1.49242 1.37312 0
M  V30 8121 C 752.454 0.131963 1.93751 0
M  V30 8122 O 751.729 -0.852999 1.74798 0
M  V30 8123 C 752.012 2.56811 2.52428 0
M  V30 8124 C 751.865 4.02284 2.01215 0
M  V30 8125 C 753.184 2.60705 3.54572 0
M  V30 8126 H 750.303 0.54336 0.497925 0
M  V30 8127 H 752.945 1.77019 0.690242 0
M  V30 8128 H 751.095 2.33256 3.10683 0
M  V30 8129 H 752.767 4.37035 1.47643 0
M  V30 8130 H 751.01 4.1315 1.32248 0
M  V30 8131 H 751.681 4.7323 2.84178 0
M  V30 8132 H 754.157 2.81799 3.06151 0
M  V30 8133 H 753.033 3.37841 4.32614 0
M  V30 8134 H 753.294 1.65627 4.09903 0
M  V30 8135 N 752.353 -0.854086 1.3245 0
M  V30 8136 C 753.599 -1.61069 1.23225 0
M  V30 8137 C 753.932 -1.93111 -0.205349 0
M  V30 8138 O 753.207 -1.57397 -1.14265 0
M  V30 8139 C 753.49 -2.93065 2.09249 0
M  V30 8140 C 753.343 -2.67801 3.6139 0
M  V30 8141 C 754.662 -3.94341 1.95406 0
M  V30 8142 H 751.781 -0.584449 0.448986 0
M  V30 8143 H 754.423 -0.986189 1.62402 0
M  V30 8144 H 752.573 -3.46364 1.75967 0
M  V30 8145 H 754.245 -2.21052 4.04887 0
M  V30 8146 H 752.488 -2.01756 3.84027 0
M  V30 8147 H 753.159 -3.6179 4.16907 0
M  V30 8148 H 755.635 -3.50301 2.24562 0
M  V30 8149 H 754.511 -4.84555 2.57872 0
M  V30 8150 H 754.772 -4.32382 0.921865 0
M  V30 8151 N 753.831 -1.1567 -1.07043 0
M  V30 8152 C 754.794 -0.858906 -2.12498 0
M  V30 8153 C 755.794 0.142735 -1.60165 0
M  V30 8154 O 756.984 -0.0872678 -1.73981 0
M  V30 8155 C 754.116 -0.283021 -3.39723 0
M  V30 8156 H 755.309 -1.79368 -2.40348 0
M  V30 8157 H 752.862 -0.964608 -1.22984 0
M  V30 8158 H 753.597 0.659796 -3.17517 0
M  V30 8159 H 753.382 -1.00467 -3.7901 0
M  V30 8160 H 754.872 -0.0923543 -4.17498 0
M  V30 8161 N 755.309 1.25446 -0.953992 0
M  V30 8162 C 756.725 1.4539 -0.658316 0
M  V30 8163 C 756.925 1.85607 0.784356 0
M  V30 8164 O 755.981 1.98568 1.55972 0
M  V30 8165 C 757.294 2.52643 -1.6307 0
M  V30 8166 C 758.842 2.66484 -1.64181 0
M  V30 8167 C 759.317 3.76921 -2.60182 0
M  V30 8168 N 760.808 3.84331 -2.58542 0
M  V30 8169 C 761.543 4.69271 -3.29503 0
M  V30 8170 N 761.039 5.58503 -4.09934 0
M  V30 8171 N 762.832 4.6323 -3.18393 0
M  V30 8172 H 754.983 0.976337 -1.8863 0
M  V30 8173 H 757.246 0.490343 -0.811337 0
M  V30 8174 H 756.952 2.29949 -2.66114 0
M  V30 8175 H 756.826 3.50547 -1.39271 0
M  V30 8176 H 759.213 2.88545 -0.618552 0
M  V30 8177 H 759.294 1.68982 -1.92038 0
M  V30 8178 H 758.938 3.55612 -3.62633 0
M  V30 8179 H 758.868 4.73906 -2.29609 0
M  V30 8180 H 761.359 3.20544 -2.0015 0
M  V30 8181 H 761.672 6.20241 -4.61 0
M  V30 8182 H 760.017 5.58214 -4.14032 0
M  V30 8183 H 763.208 3.92527 -2.5503 0
M  V30 8184 H 763.381 5.29204 -3.73961 0
M  V30 8185 N 756.787 0.722489 1.40064 0
M  V30 8186 C 758.033 0.27422 2.01543 0
M  V30 8187 C 758.388 -1.12224 1.5628 0
M  V30 8188 O 757.681 -1.75179 0.776063 0
M  V30 8189 C 757.875 0.300682 3.56133 0
M  V30 8190 C 757.704 1.69818 4.16404 0
M  V30 8191 C 756.474 2.30747 4.49537 0
M  V30 8192 C 758.672 2.64962 4.40794 0
M  V30 8193 N 756.654 3.62781 4.9524 0
M  V30 8194 C 758.025 3.81712 4.88565 0
M  V30 8195 C 760.08 2.62885 4.22842 0
M  V30 8196 C 758.783 4.96703 5.20268 0
M  V30 8197 C 760.809 3.77009 4.55652 0
M  V30 8198 C 760.171 4.92492 5.03618 0
M  V30 8199 H 756.27 0.146328 0.768188 0
M  V30 8200 H 758.854 0.94577 1.70186 0
M  V30 8201 H 757.025 -0.340461 3.86905 0
M  V30 8202 H 758.757 -0.164951 4.04364 0
M  V30 8203 H 755.512 1.82783 4.36907 0
M  V30 8204 H 755.936 4.30533 5.22465 0
M  V30 8205 H 760.578 1.74803 3.84972 0
M  V30 8206 H 758.296 5.85425 5.57049 0
M  V30 8207 H 761.882 3.76685 4.43396 0
M  V30 8208 H 760.762 5.79336 5.28525 0
M  V30 8209 N 758.265 -1.50454 0.469181 0
M  V30 8210 C 759.195 -2.31353 -0.31592 0
M  V30 8211 C 760.176 -1.38172 -0.992094 0
M  V30 8212 O 761.361 -1.67093 -0.989633 0
M  V30 8213 C 758.491 -3.1786 -1.39937 0
M  V30 8214 C 757.445 -4.19578 -0.844909 0
M  V30 8215 C 756.771 -4.9481 -2.0265 0
M  V30 8216 C 758.071 -5.22106 0.142499 0
M  V30 8217 H 759.765 -2.97237 0.359269 0
M  V30 8218 H 757.311 -1.42942 0.174224 0
M  V30 8219 H 759.264 -3.7325 -1.95607 0
M  V30 8220 H 757.988 -2.49858 -2.1033 0
M  V30 8221 H 756.647 -3.65285 -0.310189 0
M  V30 8222 H 756.295 -4.23282 -2.71737 0
M  V30 8223 H 755.995 -5.63613 -1.66174 0
M  V30 8224 H 757.519 -5.53035 -2.58815 0
M  V30 8225 H 758.933 -5.72378 -0.324966 0
M  V30 8226 H 757.33 -5.98618 0.421441 0
M  V30 8227 H 758.4 -4.7297 1.06901 0
M  V30 8228 N 759.743 -0.201713 -1.56304 0
M  V30 8229 C 761.159 0.154025 -1.58855 0
M  V30 8230 C 761.359 1.60516 -1.21807 0
M  V30 8231 O 760.415 2.34193 -0.94393 0
M  V30 8232 C 761.728 -0.154319 -3.00304 0
M  V30 8233 C 763.276 -0.0949578 -3.12856 0
M  V30 8234 C 763.751 -0.376703 -4.56448 0
M  V30 8235 N 765.242 -0.325558 -4.62054 0
M  V30 8236 C 765.977 -0.51732 -5.71062 0
M  V30 8237 N 765.473 -0.769789 -6.8851 0
M  V30 8238 N 767.266 -0.45112 -5.60287 0
M  V30 8239 H 759.417 -1.14858 -1.78666 0
M  V30 8240 H 761.68 -0.458934 -0.829508 0
M  V30 8241 H 761.386 -1.16074 -3.31994 0
M  V30 8242 H 761.26 0.540014 -3.73314 0
M  V30 8243 H 763.647 0.902075 -2.80974 0
M  V30 8244 H 763.728 -0.822468 -2.42217 0
M  V30 8245 H 763.372 -1.37108 -4.89044 0
M  V30 8246 H 763.302 0.371772 -5.25286 0
M  V30 8247 H 765.793 -0.137308 -3.7765 0
M  V30 8248 H 766.106 -0.904744 -7.67486 0
M  V30 8249 H 764.451 -0.806758 -6.90302 0
M  V30 8250 H 767.642 -0.254253 -4.67409 0
M  V30 8251 H 767.815 -0.603982 -6.45179 0
M  V30 8252 N 761.222 1.57436 0.0718424 0
M  V30 8253 C 762.47 1.86878 0.769484 0
M  V30 8254 C 762.791 0.7937 1.78116 0
M  V30 8255 O 762.061 -0.177642 1.95093 0
M  V30 8256 H 760.641 0.689593 0.287177 0
M  V30 8257 H 763.303 1.94841 0.0479427 0
M  V30 8258 H 762.399 2.84387 1.28572 0
M  V30 8259 N 762.7 -0.34323 1.53817 0
M  V30 8260 C 763.663 -1.40444 1.8113 0
M  V30 8261 C 764.663 -1.45604 0.682366 0
M  V30 8262 O 765.853 -1.45974 0.950649 0
M  V30 8263 C 762.985 -2.79369 1.95361 0
M  V30 8264 H 764.178 -1.17489 2.75928 0
M  V30 8265 H 761.731 -0.577636 1.45234 0
M  V30 8266 H 762.466 -3.07607 1.02707 0
M  V30 8267 H 762.251 -2.7702 2.77493 0
M  V30 8268 H 763.741 -3.56178 2.18008 0
M  V30 8269 N 764.178 -1.45556 -0.604258 0
M  V30 8270 C 765.594 -1.30035 -0.925368 0
M  V30 8271 C 765.794 -0.255833 -1.99869 0
M  V30 8272 O 764.85 0.349076 -2.50075 0
M  V30 8273 C 766.163 -2.68028 -1.36314 0
M  V30 8274 C 767.711 -2.75951 -1.47717 0
M  V30 8275 C 768.186 -4.14476 -1.94868 0
M  V30 8276 N 769.677 -4.16787 -2.02097 0
M  V30 8277 C 770.412 -5.20845 -2.39809 0
M  V30 8278 N 769.908 -6.35246 -2.76467 0
M  V30 8279 N 771.701 -5.08204 -2.40177 0
M  V30 8280 H 763.852 -2.1214 0.10512 0
M  V30 8281 H 766.115 -0.947871 -0.0156303 0
M  V30 8282 H 765.821 -3.45667 -0.648628 0
M  V30 8283 H 765.695 -2.96711 -2.329 0
M  V30 8284 H 768.082 -1.98613 -2.18258 0
M  V30 8285 H 768.163 -2.50977 -0.494371 0
M  V30 8286 H 767.807 -4.923 -1.24912 0
M  V30 8287 H 767.737 -4.36843 -2.94068 0
M  V30 8288 H 770.228 -3.34233 -1.76343 0
M  V30 8289 H 770.541 -7.10438 -3.04134 0
M  V30 8290 H 768.886 -6.38642 -2.74155 0
M  V30 8291 H 772.077 -4.17874 -2.10947 0
M  V30 8292 H 772.25 -5.89417 -2.69242 0
M  V30 8293 N 765.656 0.84705 -1.32902 0
M  V30 8294 C 766.603 1.95624 -1.22473 0
M  V30 8295 C 767.573 1.65767 -0.105178 0
M  V30 8296 O 768.758 1.88704 -0.282042 0
M  V30 8297 C 765.898 3.31434 -0.961542 0
M  V30 8298 C 765.011 3.73741 -2.1666 0
M  V30 8299 C 764.146 4.98379 -1.83825 0
M  V30 8300 C 763.185 5.33199 -3.00609 0
M  V30 8301 N 762.322 6.49014 -2.67816 0
M  V30 8302 H 767.162 2.03875 -2.17345 0
M  V30 8303 H 764.699 0.997764 -1.08088 0
M  V30 8304 H 766.657 4.09663 -0.789411 0
M  V30 8305 H 765.287 3.22762 -0.0495938 0
M  V30 8306 H 764.339 2.91102 -2.44875 0
M  V30 8307 H 765.651 3.95462 -3.03993 0
M  V30 8308 H 764.805 5.84336 -1.63208 0
M  V30 8309 H 763.544 4.78611 -0.937172 0
M  V30 8310 H 762.549 4.4575 -3.21849 0
M  V30 8311 H 763.774 5.5492 -3.9146 0
M  V30 8312 H 761.72 6.30748 -1.80258 0
M  V30 8313 H 761.637 6.7079 -3.48679 0
M  V30 8314 H 762.905 7.38103 -2.50647 0
M  V30 8315 N 767.134 1.16236 1.06428 0
M  V30 8316 C 768.38 0.944431 1.79467 0
M  V30 8317 C 768.713 -0.526558 1.86925 0
M  V30 8318 O 767.988 -1.39061 1.35986 0
M  V30 8319 C 768.271 1.57092 3.24028 0
M  V30 8320 C 768.124 3.11315 3.24658 0
M  V30 8321 C 769.443 1.26447 4.21544 0
M  V30 8322 H 766.562 0.344521 0.651517 0
M  V30 8323 H 769.204 1.43545 1.24478 0
M  V30 8324 H 767.354 1.15337 3.70985 0
M  V30 8325 H 769.026 3.62042 2.85873 0
M  V30 8326 H 767.269 3.44716 2.6335 0
M  V30 8327 H 767.94 3.50269 4.26633 0
M  V30 8328 H 770.416 1.62581 3.83023 0
M  V30 8329 H 769.292 1.72885 5.20963 0
M  V30 8330 H 769.553 0.183068 4.41721 0
M  V30 8331 N 768.612 -1.24939 0.960631 0
M  V30 8332 C 769.559 -2.25658 0.484459 0
M  V30 8333 C 770.529 -1.59422 -0.466242 0
M  V30 8334 O 771.714 -1.87015 -0.378169 0
M  V30 8335 C 768.854 -3.44359 -0.225958 0
M  V30 8336 C 767.967 -4.25214 0.762682 0
M  V30 8337 C 767.102 -5.31192 0.0290931 0
M  V30 8338 C 766.141 -6.03739 1.00827 0
M  V30 8339 N 765.278 -7.01437 0.305155 0
M  V30 8340 H 770.118 -2.65758 1.34821 0
M  V30 8341 H 767.655 -1.30648 0.675983 0
M  V30 8342 H 769.613 -4.12035 -0.654472 0
M  V30 8343 H 768.243 -3.05118 -1.05371 0
M  V30 8344 H 767.295 -3.57144 1.30966 0
M  V30 8345 H 768.607 -4.75406 1.50964 0
M  V30 8346 H 767.761 -6.04971 -0.457763 0
M  V30 8347 H 766.5 -4.81889 -0.750614 0
M  V30 8348 H 765.505 -5.2877 1.50607 0
M  V30 8349 H 766.73 -6.55131 1.7883 0
M  V30 8350 H 764.676 -6.54415 -0.455704 0
M  V30 8351 H 764.593 -7.49475 0.991104 0
M  V30 8352 H 765.861 -7.79336 -0.159966 0
M  V30 8353 N 770.09 -0.729906 -1.39679 0
M  V30 8354 C 771.037 -0.0866063 -2.30637 0
M  V30 8355 C 772.007 0.735115 -1.48947 0
M  V30 8356 O 773.192 0.696125 -1.77648 0
M  V30 8357 C 770.332 0.818524 -3.35252 0
M  V30 8358 C 769.445 -0.0152635 -4.31997 0
M  V30 8359 C 768.58 0.890669 -5.2368 0
M  V30 8360 C 767.619 0.0518246 -6.12078 0
M  V30 8361 N 766.756 0.913411 -6.96133 0
M  V30 8362 H 771.596 -0.867925 -2.85081 0
M  V30 8363 H 769.133 -0.439673 -1.40376 0
M  V30 8364 H 771.091 1.3577 -3.9449 0
M  V30 8365 H 769.721 1.56587 -2.82277 0
M  V30 8366 H 768.773 -0.671794 -3.74421 0
M  V30 8367 H 770.085 -0.664086 -4.9436 0
M  V30 8368 H 769.239 1.49787 -5.87919 0
M  V30 8369 H 767.978 1.57328 -4.61627 0
M  V30 8370 H 766.983 -0.568209 -5.46856 0
M  V30 8371 H 768.208 -0.627497 -6.76195 0
M  V30 8372 H 766.154 1.58141 -6.36653 0
M  V30 8373 H 766.071 0.320952 -7.55318 0
M  V30 8374 H 767.339 1.50633 -7.64807 0
M  V30 8375 N 771.568 1.50203 -0.477153 0
M  V30 8376 C 772.796 2.0677 0.0732489 0
M  V30 8377 C 773.211 1.34033 1.32968 0
M  V30 8378 O 772.568 0.411412 1.77802 0
M  V30 8379 C 772.619 3.59751 0.35518 0
M  V30 8380 O 772.34 4.29747 -0.851425 0
M  V30 8381 C 773.841 4.3296 0.951877 0
M  V30 8382 H 771.061 0.670929 -0.00978923 0
M  V30 8383 H 773.605 1.93293 -0.667676 0
M  V30 8384 H 771.76 3.7301 1.04605 0
M  V30 8385 H 772.174 5.2106 -0.599708 0
M  V30 8386 H 773.648 5.40952 1.09888 0
M  V30 8387 H 774.125 3.93856 1.94356 0
M  V30 8388 H 774.731 4.24246 0.299208 0
M  V30 8389 O 773.085 0.351473 1.57629 0
M  V30 8390 H 773.776 -0.202268 1.92641 0
M  V30 END ATOM
M  V30 BEGIN BOND
M  V30 END BOND
M  V30 END CTAB
M  END
$$$$
