drugbank_target|P42512 Fe(3+)-pyochelin receptor (DB04147)
 OpenBabel12092120483D

  0  0  0     0  0            999 V3000
M  V30 BEGIN CTAB
M  V30 COUNTS 11100 11245 0 0 0
M  V30 BEGIN ATOM
M  V30 1 H -0.908 1.98254 -0.117106 0
M  V30 2 N 0 1.576 0 0
M  V30 3 C 0.933 2.03868 1.02534 0
M  V30 4 C 1.911 0.928543 1.3348 0
M  V30 5 O 3.095 1.19667 1.45644 0
M  V30 6 C 0.222 2.43627 2.35294 0
M  V30 7 C -0.732 3.65373 2.2001 0
M  V30 8 S 0.101 5.13292 1.52614 0
M  V30 9 C 1.257 5.56322 2.86805 0
M  V30 10 H 1.49 2.90518 0.631377 0
M  V30 11 H -0.977 1.52953 0.210867 0
M  V30 12 H 0.981 2.67203 3.11629 0
M  V30 13 H -0.358 1.57376 2.7183 0
M  V30 14 H -1.165 3.90944 3.18086 0
M  V30 15 H -1.563 3.418 1.51819 0
M  V30 16 H 0.729 5.58782 3.83104 0
M  V30 17 H 1.672 6.56266 2.65933 0
M  V30 18 H 2.08 4.83886 2.90714 0
M  V30 19 N 1.4781 -0.272755 1.55222 0
M  V30 20 C 2.4251 -1.33716 1.88119 0
M  V30 21 C 3.3951 -1.49066 0.73271 0
M  V30 22 O 4.5801 -1.63469 0.984002 0
M  V30 23 C 1.7201 -2.69238 2.15882 0
M  V30 24 C 0.8331 -2.62108 3.43399 0
M  V30 25 C -0.0319 -3.89811 3.60861 0
M  V30 26 C -0.9929 -3.77193 4.8207 0
M  V30 27 N -1.8559 -4.9673 4.96189 0
M  V30 28 H 2.9841 -1.04962 2.78903 0
M  V30 29 H 0.5211 -0.507088 1.38083 0
M  V30 30 H 2.4791 -3.48089 2.29978 0
M  V30 31 H 1.1091 -2.96194 1.28331 0
M  V30 32 H 0.1611 -1.74967 3.37773 0
M  V30 33 H 1.4731 -2.48685 4.32386 0
M  V30 34 H 0.6271 -4.77103 3.74777 0
M  V30 35 H -0.6339 -4.06102 2.7006 0
M  V30 36 H -1.6289 -2.88284 4.68159 0
M  V30 37 H -0.4039 -3.62421 5.74307 0
M  V30 38 H -2.4579 -5.13431 4.08319 0
M  V30 39 H -2.5409 -4.85839 5.79221 0
M  V30 40 H -1.2729 -5.85594 5.1449 0
M  V30 41 N 2.9562 -1.48159 -0.537278 0
M  V30 42 C 4.1842 -1.59454 -1.31841 0
M  V30 43 C 4.5992 -0.252065 -1.8711 0
M  V30 44 O 3.9562 0.757621 -1.66031 0
M  V30 45 C 4.0072 -2.63546 -2.47439 0
M  V30 46 O 3.7282 -3.92583 -1.94449 0
M  V30 47 C 5.2292 -2.85212 -3.39366 0
M  V30 48 H 2.4492 -0.53785 -0.401196 0
M  V30 49 H 4.9932 -1.93932 -0.648891 0
M  V30 50 H 3.1482 -2.31946 -3.1029 0
M  V30 51 H 3.5622 -4.49629 -2.70063 0
M  V30 52 H 5.0362 -3.61863 -4.16844 0
M  V30 53 H 5.5132 -1.93765 -3.94147 0
M  V30 54 H 6.1192 -3.18086 -2.82314 0
M  V30 55 N 4.4343 0.785586 -1.36625 0
M  V30 56 C 5.3443 1.92964 -1.33425 0
M  V30 57 C 6.3603 1.72394 -0.235851 0
M  V30 58 O 7.5363 1.95866 -0.468878 0
M  V30 59 C 4.6013 3.27884 -1.12662 0
M  V30 60 C 3.6623 3.61204 -2.32013 0
M  V30 61 C 2.8953 4.89687 -2.12231 0
M  V30 62 O 3.1183 5.59704 -1.09945 0
M  V30 63 O 2.0523 5.21752 -3.00098 0
M  V30 64 H 5.8783 1.98613 -2.29753 0
M  V30 65 H 3.4633 0.926384 -1.17211 0
M  V30 66 H 5.3453 4.08614 -1.03016 0
M  V30 67 H 4.0203 3.23118 -0.193991 0
M  V30 68 H 2.9273 2.80765 -2.47228 0
M  V30 69 H 4.2603 3.70698 -3.23796 0
M  V30 70 N 5.9124 1.20967 1.01018 0
M  V30 71 C 7.1404 1.04956 1.78303 0
M  V30 72 C 7.5554 -0.400915 1.84494 0
M  V30 73 O 6.9124 -1.27826 1.30257 0
M  V30 74 C 6.9634 1.63403 3.22462 0
M  V30 75 O 6.6844 3.02775 3.16637 0
M  V30 76 C 8.1854 1.52432 4.16268 0
M  V30 77 H 5.4054 0.368858 0.560522 0
M  V30 78 H 7.9494 1.60193 1.27116 0
M  V30 79 H 6.1044 1.1227 3.70775 0
M  V30 80 H 6.5184 3.30626 4.07169 0
M  V30 81 H 7.9924 1.98078 5.15237 0
M  V30 82 H 8.4694 0.477875 4.36592 0
M  V30 83 H 9.0754 2.02787 3.73841 0
M  V30 84 N 7.3905 -1.2043 1.01659 0
M  V30 85 C 8.3375 -2.23215 0.586822 0
M  V30 86 C 9.3075 -1.61382 -0.393085 0
M  V30 87 O 10.4925 -1.88544 -0.292525 0
M  V30 88 C 7.6325 -3.45032 -0.0687464 0
M  V30 89 C 6.7455 -4.21296 0.955724 0
M  V30 90 C 5.8805 -5.30507 0.271208 0
M  V30 91 C 4.9195 -5.98515 1.28244 0
M  V30 92 N 4.0565 -6.99316 0.62459 0
M  V30 93 H 8.8965 -2.59336 1.46796 0
M  V30 94 H 6.4335 -1.27431 0.734836 0
M  V30 95 H 8.3915 -4.1459 -0.465965 0
M  V30 96 H 7.0215 -3.09604 -0.913529 0
M  V30 97 H 6.0735 -3.50803 1.4711 0
M  V30 98 H 7.3855 -4.6803 1.72479 0
M  V30 99 H 6.5395 -6.06428 -0.18151 0
M  V30 100 H 5.2785 -4.8481 -0.530163 0
M  V30 101 H 4.2835 -5.21355 1.74554 0
M  V30 102 H 5.5085 -6.46298 2.08509 0
M  V30 103 H 3.4545 -6.55812 -0.156914 0
M  V30 104 H 3.3715 -7.44178 1.33172 0
M  V30 105 H 4.6395 -7.79255 0.195462 0
M  V30 106 N 8.8686 -0.792821 -1.36206 0
M  V30 107 C 10.1146 -0.36733 -1.99446 0
M  V30 108 C 10.4476 1.05917 -1.62774 0
M  V30 109 O 9.7226 1.7324 -0.88421 0
M  V30 110 C 10.0056 -0.535044 -3.56103 0
M  V30 111 C 9.8586 -2.00548 -4.02617 0
M  V30 112 C 11.1776 0.0478191 -4.40074 0
M  V30 113 H 8.2966 -0.134941 -0.724541 0
M  V30 114 H 10.9386 -0.999794 -1.61568 0
M  V30 115 H 9.0886 0.00336329 -3.885 0
M  V30 116 H 10.7606 -2.60521 -3.80692 0
M  V30 117 H 9.0036 -2.50686 -3.54032 0
M  V30 118 H 9.6746 -2.07377 -5.11565 0
M  V30 119 H 12.1506 -0.411822 -4.14057 0
M  V30 120 H 11.0266 -0.0995336 -5.4881 0
M  V30 121 H 11.2876 1.14025 -4.27142 0
M  V30 122 N 10.3467 1.47872 -0.545128 0
M  V30 123 C 11.5957 2.01695 -0.0145033 0
M  V30 124 C 11.9087 1.42609 1.33873 0
M  V30 125 O 13.1147 1.88021 1.95858 0
M  V30 126 C 11.5707 3.59892 0.0245068 0
M  V30 127 C 11.1787 4.27966 -1.32475 0
M  V30 128 C 12.9227 4.21507 0.50316 0
M  V30 129 C 10.8297 5.78136 -1.2455 0
M  V30 130 H 9.7597 0.753998 -0.00165172 0
M  V30 131 H 12.4107 1.69985 -0.691175 0
M  V30 132 H 10.7927 3.88509 0.766575 0
M  V30 133 H 11.9667 4.11003 -2.08357 0
M  V30 134 H 10.2817 3.78286 -1.74036 0
M  V30 135 H 12.8787 5.31538 0.580656 0
M  V30 136 H 13.2217 3.87855 1.51243 0
M  V30 137 H 13.7547 3.97376 -0.183681 0
M  V30 138 H 10.4937 6.16388 -2.23039 0
M  V30 139 H 10.0137 5.97469 -0.528282 0
M  V30 140 H 11.6927 6.40099 -0.942488 0
M  V30 141 N 11.8248 0.280983 1.55075 0
M  V30 142 C 12.7718 -0.603937 2.22758 0
M  V30 143 C 13.7418 -1.1452 1.20309 0
M  V30 144 O 14.9268 -1.19343 1.48869 0
M  V30 145 C 12.0668 -1.77947 2.95684 0
M  V30 146 C 11.1798 -1.2715 4.12864 0
M  V30 147 C 10.3148 -2.4093 4.7342 0
M  V30 148 C 9.3538 -1.87165 5.82783 0
M  V30 149 N 8.4908 -2.94441 6.37377 0
M  V30 150 H 13.3308 -0.020124 2.97993 0
M  V30 151 H 10.8678 0.00183425 1.471 0
M  V30 152 H 12.8258 -2.47055 3.36184 0
M  V30 153 H 11.4558 -2.33522 2.22861 0
M  V30 154 H 10.5078 -0.473331 3.77444 0
M  V30 155 H 11.8198 -0.837751 4.91715 0
M  V30 156 H 10.9738 -3.18021 5.1667 0
M  V30 157 H 9.7128 -2.87623 3.93859 0
M  V30 158 H 8.7178 -1.08556 5.38976 0
M  V30 159 H 9.9428 -1.41401 6.64216 0
M  V30 160 H 7.8888 -3.40505 5.60707 0
M  V30 161 H 7.8058 -2.55501 7.11516 0
M  V30 162 H 9.0738 -3.71489 6.85285 0
M  V30 163 N 13.3029 -1.57598 0.00835791 0
M  V30 164 C 14.5509 -1.90551 -0.6734 0
M  V30 165 C 14.8719 -0.883301 -1.73847 0
M  V30 166 O 14.1419 0.0781442 -1.95744 0
M  V30 167 H 12.7219 -0.703312 -0.251717 0
M  V30 168 H 15.3839 -1.94833 0.0512592 0
M  V30 169 H 14.4799 -2.9056 -1.13935 0
M  V30 170 N 14.781 0.264519 -1.55364 0
M  V30 171 C 16.197 0.61215 -1.47394 0
M  V30 172 C 16.397 1.89134 -0.695018 0
M  V30 173 O 15.453 2.51563 -0.217275 0
M  V30 174 C 16.766 0.731235 -2.91674 0
M  V30 175 C 18.314 0.82473 -3.01939 0
M  V30 176 C 18.789 0.975522 -4.4749 0
M  V30 177 N 20.28 1.04083 -4.51354 0
M  V30 178 C 21.015 1.17646 -5.61201 0
M  V30 179 N 20.511 1.27874 -6.80896 0
M  V30 180 N 22.304 1.20823 -5.48961 0
M  V30 181 H 14.455 -0.575456 -2.04456 0
M  V30 182 H 16.718 -0.196099 -0.927496 0
M  V30 183 H 16.424 -0.138392 -3.51428 0
M  V30 184 H 16.298 1.60883 -3.41169 0
M  V30 185 H 18.685 1.68482 -2.42276 0
M  V30 186 H 18.766 -0.0776479 -2.55682 0
M  V30 187 H 18.41 0.120058 -5.07758 0
M  V30 188 H 18.34 1.89268 -4.91412 0
M  V30 189 H 20.831 0.973846 -3.65136 0
M  V30 190 H 21.144 1.38081 -7.60364 0
M  V30 191 H 19.489 1.24863 -6.83692 0
M  V30 192 H 22.68 1.12469 -4.54388 0
M  V30 193 H 22.853 1.31049 -6.3461 0
M  V30 194 N 16.2591 1.48442 0.529413 0
M  V30 195 C 17.1911 1.59095 1.64989 0
M  V30 196 C 18.2041 0.475212 1.5571 0
M  V30 197 O 19.3931 0.746081 1.6216 0
M  V30 198 C 16.4931 1.50518 3.0364 0
M  V30 199 C 15.6661 2.77142 3.38395 0
M  V30 200 C 14.7251 2.62012 4.56329 0
M  V30 201 O 13.7511 3.35898 4.59522 0
M  V30 202 N 14.9531 1.71667 5.54536 0
M  V30 203 H 17.7181 2.55723 1.56287 0
M  V30 204 H 15.2791 1.45173 0.716697 0
M  V30 205 H 17.2711 1.38091 3.80412 0
M  V30 206 H 15.8411 0.618627 3.06418 0
M  V30 207 H 15.0611 3.0413 2.50796 0
M  V30 208 H 16.3491 3.61146 3.58401 0
M  V30 209 H 15.7471 1.10841 5.54735 0
M  V30 210 H 14.3041 1.65178 6.30523 0
M  V30 211 N 17.7372 -0.778329 1.37039 0
M  V30 212 C 18.9852 -1.53361 1.31623 0
M  V30 213 C 19.3062 -1.94739 -0.100831 0
M  V30 214 O 18.5762 -1.65797 -1.04347 0
M  V30 215 H 17.1562 -0.568794 0.484234 0
M  V30 216 H 19.8182 -0.926742 1.71457 0
M  V30 217 H 18.9142 -2.43606 1.95096 0
M  V30 218 N 19.2153 -1.21501 -1.00376 0
M  V30 219 C 20.4643 -1.02718 -1.73586 0
M  V30 220 C 20.7773 0.439589 -1.90596 0
M  V30 221 O 21.9833 0.746848 -2.61026 0
M  V30 222 C 20.4393 -1.78929 -3.1227 0
M  V30 223 C 20.0473 -3.29783 -3.03228 0
M  V30 224 C 21.7913 -1.68557 -3.89601 0
M  V30 225 C 19.6983 -3.98479 -4.36999 0
M  V30 226 H 18.6283 -0.380733 -0.650814 0
M  V30 227 H 21.2793 -1.45248 -1.1214 0
M  V30 228 H 19.6613 -1.29192 -3.74333 0
M  V30 229 H 20.8353 -3.86832 -2.50395 0
M  V30 230 H 19.1503 -3.40711 -2.39385 0
M  V30 231 H 21.7473 -2.17211 -4.88593 0
M  V30 232 H 22.0903 -0.644021 -4.11288 0
M  V30 233 H 22.6233 -2.15778 -3.34193 0
M  V30 234 H 19.3623 -5.02841 -4.20513 0
M  V30 235 H 18.8823 -3.46219 -4.89788 0
M  V30 236 H 20.5613 -4.03462 -5.05794 0
M  V30 237 N 20.6934 1.19889 -1.02296 0
M  V30 238 C 21.6564 2.21116 -0.603351 0
M  V30 239 C 22.6564 1.5738 0.329884 0
M  V30 240 O 23.8464 1.73802 0.117702 0
M  V30 241 C 20.9784 3.40696 0.117992 0
M  V30 242 H 22.1714 2.59754 -1.49893 0
M  V30 243 H 19.7244 1.33463 -0.813468 0
M  V30 244 H 20.4594 3.07569 1.0282 0
M  V30 245 H 20.2444 3.88188 -0.552511 0
M  V30 246 H 21.7344 4.15692 0.398696 0
M  V30 247 N 22.1715 0.800033 1.35784 0
M  V30 248 C 23.5875 0.482977 1.52117 0
M  V30 249 C 23.7875 -0.996948 1.75109 0
M  V30 250 O 22.8435 -1.78216 1.78872 0
M  V30 251 C 24.1565 1.32264 2.70049 0
M  V30 252 C 25.7045 1.31742 2.83924 0
M  V30 253 C 26.1795 2.14106 4.04874 0
M  V30 254 N 27.6705 2.11607 4.12039 0
M  V30 255 C 28.4055 2.72099 5.04727 0
M  V30 256 N 27.9015 3.41492 6.02789 0
M  V30 257 N 29.6945 2.61776 4.97423 0
M  V30 258 H 21.8455 1.75856 1.19115 0
M  V30 259 H 24.1085 0.748122 0.582252 0
M  V30 260 H 23.8145 2.37261 2.59616 0
M  V30 261 H 23.6885 0.971303 3.6448 0
M  V30 262 H 26.0755 0.275333 2.93813 0
M  V30 263 H 26.1565 1.70859 1.9037 0
M  V30 264 H 25.8005 3.18351 3.95746 0
M  V30 265 H 25.7305 1.72353 4.97596 0
M  V30 266 H 28.2215 1.61112 3.41835 0
M  V30 267 H 28.5345 3.84953 6.70098 0
M  V30 268 H 26.8795 3.45596 6.02983 0
M  V30 269 H 30.0705 2.07157 4.19766 0
M  V30 270 H 30.2435 3.0921 5.69468 0
M  V30 271 N 23.6496 -1.47581 0.552962 0
M  V30 272 C 24.5976 -2.31648 -0.21023 0
M  V30 273 C 25.5916 -1.42663 -0.913432 0
M  V30 274 O 26.7976 -1.5945 -0.835201 0
M  V30 275 H 23.1726 -0.746989 -0.0866676 0
M  V30 276 H 25.1436 -2.93869 0.518051 0
M  V30 277 C 23.8926 -3.25226 -1.22976 0
M  V30 278 H 23.2156 -3.93658 -0.698077 0
M  V30 279 H 24.6556 -3.86889 -1.73473 0
M  V30 280 C 23.1146 -2.48448 -2.27542 0
M  V30 281 O 23.6446 -2.22585 -3.34393 0
M  V30 282 N 21.8506 -2.09532 -2.01357 0
M  V30 283 H 21.3976 -2.30765 -1.14478 0
M  V30 284 H 21.3556 -1.58476 -2.71538 0
M  V30 285 N 25.1277 -0.289203 -1.54924 0
M  V30 286 C 26.5437 0.0645403 -1.59469 0
M  V30 287 C 26.7437 1.53419 -1.30632 0
M  V30 288 O 25.7997 2.2852 -1.074 0
M  V30 289 C 27.1127 -0.32278 -2.98963 0
M  V30 290 C 28.6607 -0.270564 -3.11828 0
M  V30 291 C 29.1357 -0.632532 -4.53611 0
M  V30 292 N 30.6267 -0.584617 -4.59496 0
M  V30 293 C 31.3617 -0.837314 -5.67254 0
M  V30 294 N 30.8577 -1.15536 -6.83098 0
M  V30 295 N 32.6507 -0.765166 -5.56868 0
M  V30 296 H 24.8017 -1.24714 -1.71931 0
M  V30 297 H 27.0647 -0.504809 -0.802416 0
M  V30 298 H 26.7707 -1.34541 -3.24948 0
M  V30 299 H 26.6447 0.32944 -3.75759 0
M  V30 300 H 29.0317 0.742805 -2.85598 0
M  V30 301 H 29.1127 -0.957242 -2.37214 0
M  V30 302 H 28.7567 -1.64365 -4.80569 0
M  V30 303 H 28.6867 0.07609 -5.26545 0
M  V30 304 H 31.1777 -0.349248 -3.76283 0
M  V30 305 H 31.4907 -1.33447 -7.61191 0
M  V30 306 H 29.8357 -1.19328 -6.84679 0
M  V30 307 H 33.0267 -0.516432 -4.65243 0
M  V30 308 H 33.1997 -0.965477 -6.40767 0
M  V30 309 N 26.6058 1.57591 -0.0167156 0
M  V30 310 C 27.5558 2.05953 0.978137 0
M  V30 311 C 28.5398 0.957532 1.29306 0
M  V30 312 O 29.7318 1.22119 1.28125 0
M  V30 313 C 26.8608 2.58006 2.26468 0
M  V30 314 C 25.9468 3.75113 1.97867 0
M  V30 315 N 26.3378 4.86187 1.39486 0
M  V30 316 C 24.6358 3.83363 2.27924 0
M  V30 317 C 25.3368 5.67502 1.27735 0
M  V30 318 N 24.3128 5.14023 1.76866 0
M  V30 319 H 28.1148 2.89236 0.521522 0
M  V30 320 H 25.6288 1.61301 0.188596 0
M  V30 321 H 27.6258 2.90937 2.98599 0
M  V30 322 H 26.2858 1.76148 2.72767 0
M  V30 323 H 27.2968 5.06695 1.07147 0
M  V30 324 H 23.9738 3.1239 2.76982 0
M  V30 325 H 25.3638 6.66791 0.826978 0
M  V30 326 N 28.0839 -0.256276 1.55502 0
M  V30 327 C 29.3119 -1.00342 1.8094 0
M  V30 328 C 29.7269 -1.79307 0.59114 0
M  V30 329 O 29.0839 -1.77114 -0.440081 0
M  V30 330 C 29.1349 -1.94875 3.04476 0
M  V30 331 O 28.8559 -1.19107 4.21598 0
M  V30 332 C 30.3569 -2.81266 3.42644 0
M  V30 333 H 27.5769 -0.295685 0.602338 0
M  V30 334 H 30.1209 -0.281998 2.02546 0
M  V30 335 H 28.2759 -2.62457 2.84947 0
M  V30 336 H 28.6899 -1.82969 4.91551 0
M  V30 337 H 30.1639 -3.43362 4.32211 0
M  V30 338 H 30.6409 -3.51897 2.62802 0
M  V30 339 H 31.2469 -2.1915 3.64491 0
M  V30 340 N 29.562 -1.4872 -0.521534 0
M  V30 341 C 30.973 -1.50607 -1.10337 0
M  V30 342 C 31.324 -0.280612 -1.94183 0
M  V30 343 O 30.449 0.611507 -2.0758 0
M  V30 344 C 31.044 -2.72903 -2.00772 0
M  V30 345 C 29.603 -2.77634 -2.54158 0
M  V30 346 C 28.75 -2.44241 -1.31307 0
M  V30 347 H 31.701 -1.55714 -0.306388 0
M  V30 348 H 31.722 -2.519 -2.85178 0
M  V30 349 H 31.234 -3.62077 -1.39721 0
M  V30 350 H 29.335 -1.92689 -3.18907 0
M  V30 351 H 29.448 -3.79283 -2.92714 0
M  V30 352 H 27.812 -1.95577 -1.63161 0
M  V30 353 H 28.595 -3.35666 -0.719943 0
M  V30 354 N 31.0401 0.771051 -1.3745 0
M  V30 355 C 31.9701 1.89827 -1.3597 0
M  V30 356 C 32.9511 1.68562 -0.228216 0
M  V30 357 O 34.1361 1.8941 -0.428675 0
M  V30 358 C 31.2661 3.2712 -1.16662 0
M  V30 359 C 30.2201 3.6295 -2.2683 0
M  V30 360 C 29.5461 4.98791 -1.92644 0
M  V30 361 C 30.8461 3.69627 -3.69017 0
M  V30 362 H 32.5401 1.91323 -2.30295 0
M  V30 363 H 30.0861 0.919082 -1.10855 0
M  V30 364 H 32.0391 4.05615 -1.14256 0
M  V30 365 H 30.7631 3.26059 -0.187926 0
M  V30 366 H 29.4221 2.86763 -2.28392 0
M  V30 367 H 29.0701 4.94271 -0.933021 0
M  V30 368 H 28.7701 5.23733 -2.66416 0
M  V30 369 H 30.2941 5.79685 -1.91826 0
M  V30 370 H 31.7081 4.38273 -3.69581 0
M  V30 371 H 30.1051 4.06067 -4.41848 0
M  V30 372 H 31.1751 2.70273 -4.02592 0
M  V30 373 N 32.5182 1.22032 0.997298 0
M  V30 374 C 33.7582 1.05375 1.75144 0
M  V30 375 C 34.1222 -0.404696 1.87686 0
M  V30 376 O 35.3232 -0.691998 2.5974 0
M  V30 377 C 33.5942 1.74046 3.12158 0
M  V30 378 S 35.1532 1.72745 4.03366 0
M  V30 379 H 31.9712 0.377449 0.602539 0
M  V30 380 H 34.5732 1.54902 1.19272 0
M  V30 381 H 33.2772 2.79332 3.00669 0
M  V30 382 H 32.8082 1.24731 3.73103 0
M  V30 383 H 34.8232 0.774015 4.90126 0
M  V30 384 N 33.9963 -1.19345 1.0293 0
M  V30 385 C 34.9263 -2.2481 0.631105 0
M  V30 386 C 35.9073 -1.66245 -0.360104 0
M  V30 387 O 37.0923 -1.92677 -0.242726 0
M  V30 388 C 34.2223 -3.47295 -0.0184607 0
M  V30 389 C 33.1763 -4.18536 0.895073 0
M  V30 390 C 32.5023 -5.34586 0.110592 0
M  V30 391 C 33.8023 -4.73287 2.209 0
M  V30 392 H 35.4963 -2.58372 1.51275 0
M  V30 393 H 33.0423 -1.24194 0.728818 0
M  V30 394 H 34.9953 -4.20268 -0.308675 0
M  V30 395 H 33.7193 -3.12933 -0.934907 0
M  V30 396 H 32.3783 -3.47446 1.16949 0
M  V30 397 H 32.0263 -4.96469 -0.807902 0
M  V30 398 H 31.7263 -5.83183 0.719087 0
M  V30 399 H 33.2503 -6.10355 -0.172871 0
M  V30 400 H 34.6643 -5.38013 1.98028 0
M  V30 401 H 33.0613 -5.32373 2.76946 0
M  V30 402 H 34.1313 -3.91331 2.86336 0
M  V30 403 N 35.4744 -0.807222 -1.35358 0
M  V30 404 C 36.7224 -0.387122 -1.98358 0
M  V30 405 C 37.0434 1.04942 -1.64354 0
M  V30 406 O 36.3134 1.72615 -0.926339 0
M  V30 407 H 34.8934 -0.140154 -0.733734 0
M  V30 408 H 37.5554 -1.0332 -1.6526 0
M  V30 409 H 36.6514 -0.493352 -3.08176 0
M  V30 410 N 36.9525 1.47285 -0.560781 0
M  V30 411 C 37.8825 2.32857 0.173105 0
M  V30 412 C 38.8635 1.44009 0.905281 0
M  V30 413 O 40.0485 1.7286 0.885046 0
M  V30 414 C 37.1785 3.25861 1.20133 0
M  V30 415 C 36.1325 4.23978 0.585388 0
M  V30 416 C 35.4585 5.06332 1.7185 0
M  V30 417 C 36.7585 5.20242 -0.463178 0
M  V30 418 H 38.4525 2.94466 -0.541307 0
M  V30 419 H 35.9985 1.41601 -0.261764 0
M  V30 420 H 37.9515 3.84569 1.72293 0
M  V30 421 H 36.6755 2.62315 1.94573 0
M  V30 422 H 35.3345 3.66501 0.085054 0
M  V30 423 H 34.9825 4.39186 2.45203 0
M  V30 424 H 34.6825 5.72762 1.31213 0
M  V30 425 H 36.2065 5.67899 2.24329 0
M  V30 426 H 37.6205 5.73293 -0.027502 0
M  V30 427 H 36.0175 5.94896 -0.788627 0
M  V30 428 H 37.0875 4.65504 -1.35773 0
M  V30 429 N 38.4306 0.297415 1.54768 0
M  V30 430 C 39.3606 -0.573494 2.26348 0
M  V30 431 C 40.3416 -1.14085 1.26169 0
M  V30 432 O 41.5266 -1.17086 1.54934 0
M  V30 433 C 38.6566 -1.74716 3.00153 0
M  V30 434 C 37.6106 -1.31032 4.07449 0
M  V30 435 C 36.9366 -2.56887 4.68949 0
M  V30 436 C 38.2366 -0.444183 5.20408 0
M  V30 437 H 39.9306 0.0235131 2.99391 0
M  V30 438 H 37.4766 0.0127488 1.43994 0
M  V30 439 H 39.4296 -2.3625 3.48947 0
M  V30 440 H 38.1536 -2.37035 2.24682 0
M  V30 441 H 36.8126 -0.718066 3.59499 0
M  V30 442 H 36.4606 -3.17512 3.90122 0
M  V30 443 H 36.1606 -2.2836 5.41411 0
M  V30 444 H 37.6846 -3.19229 5.20505 0
M  V30 445 H 39.0986 -0.9651 5.65118 0
M  V30 446 H 37.4956 -0.252846 5.99567 0
M  V30 447 H 38.5656 0.531609 4.81977 0
M  V30 448 N 39.9087 -1.5758 0.0250728 0
M  V30 449 C 40.8387 -2.13007 -0.956575 0
M  V30 450 C 41.8197 -1.0452 -1.342 0
M  V30 451 O 43.0047 -1.32332 -1.42133 0
M  V30 452 C 40.1347 -2.65386 -2.24026 0
M  V30 453 C 39.0887 -3.78623 -1.99571 0
M  V30 454 C 38.4147 -4.17414 -3.3417 0
M  V30 455 C 39.7147 -5.04867 -1.33814 0
M  V30 456 H 41.4087 -2.9528 -0.494991 0
M  V30 457 H 38.9547 -1.42042 -0.236651 0
M  V30 458 H 40.9077 -3.02794 -2.93076 0
M  V30 459 H 39.6317 -1.80268 -2.72343 0
M  V30 460 H 38.2907 -3.41646 -1.32941 0
M  V30 461 H 37.9387 -3.29284 -3.80238 0
M  V30 462 H 37.6387 -4.93719 -3.18615 0
M  V30 463 H 39.1627 -4.57402 -4.04495 0
M  V30 464 H 40.5767 -5.39888 -1.92857 0
M  V30 465 H 38.9737 -5.86144 -1.28669 0
M  V30 466 H 40.0437 -4.83904 -0.310561 0
M  V30 467 N 41.3868 0.248026 -1.55636 0
M  V30 468 C 42.3498 1.29044 -1.89421 0
M  V30 469 C 43.3498 1.41134 -0.770581 0
M  V30 470 O 44.5398 1.39854 -1.03858 0
M  V30 471 C 41.6718 2.66831 -2.12165 0
M  V30 472 H 42.8648 1.00305 -2.82629 0
M  V30 473 H 40.4178 0.487265 -1.48511 0
M  V30 474 H 41.1528 3.00711 -1.21422 0
M  V30 475 H 40.9378 2.59438 -2.93997 0
M  V30 476 H 42.4278 3.42103 -2.3949 0
M  V30 477 N 42.8649 1.48995 0.513639 0
M  V30 478 C 43.7949 1.67636 1.62544 0
M  V30 479 C 44.7759 0.525087 1.61793 0
M  V30 480 O 45.9609 0.759502 1.78732 0
M  V30 481 C 43.0909 1.73114 3.01079 0
M  V30 482 C 42.0449 2.87905 3.16693 0
M  V30 483 C 41.3709 2.78486 4.56453 0
M  V30 484 C 42.6709 4.29005 2.97913 0
M  V30 485 H 44.3649 2.60716 1.47198 0
M  V30 486 H 41.9109 1.25465 0.706714 0
M  V30 487 H 43.8639 1.84742 3.78746 0
M  V30 488 H 42.5879 0.766241 3.17484 0
M  V30 489 H 41.2469 2.75859 2.41448 0
M  V30 490 H 40.8949 1.7993 4.69717 0
M  V30 491 H 40.5949 3.55523 4.67843 0
M  V30 492 H 42.1189 2.92104 5.36197 0
M  V30 493 H 43.5329 4.41798 3.65359 0
M  V30 494 H 41.9299 5.07166 3.20785 0
M  V30 495 H 42.9999 4.44329 1.94165 0
M  V30 496 N 44.343 -0.763751 1.37857 0
M  V30 497 C 45.568 -1.55805 1.36893 0
M  V30 498 C 45.993 -1.88054 -0.0416135 0
M  V30 499 O 45.351 -1.49825 -1.02089 0
M  V30 500 C 45.399 -2.84012 2.22192 0
M  V30 501 O 44.503 -3.78732 1.63204 0
M  V30 502 H 43.844 -0.471638 0.46739 0
M  V30 503 H 46.374 -0.944657 1.81487 0
M  V30 504 H 46.384 -3.33037 2.35691 0
M  V30 505 H 45.059 -2.59869 3.24716 0
M  V30 506 H 43.636 -3.37402 1.58791 0
M  V30 507 N 45.8211 -1.22559 -0.990812 0
M  V30 508 C 47.2321 -1.04791 -1.54518 0
M  V30 509 C 47.5831 0.387998 -1.92325 0
M  V30 510 O 46.7081 1.27328 -1.74976 0
M  V30 511 C 47.3031 -1.896 -2.80779 0
M  V30 512 C 45.8621 -1.76124 -3.32652 0
M  V30 513 C 45.0091 -1.8594 -2.05722 0
M  V30 514 H 47.9601 -1.36374 -0.811662 0
M  V30 515 H 47.9811 -1.41464 -3.53225 0
M  V30 516 H 47.4931 -2.94101 -2.53231 0
M  V30 517 H 45.5941 -0.743643 -3.65104 0
M  V30 518 H 45.7071 -2.58913 -4.03114 0
M  V30 519 H 44.0711 -1.29403 -2.19379 0
M  V30 520 H 44.8541 -2.91976 -1.80568 0
M  V30 521 N 47.2992 1.18797 -1.03562 0
M  V30 522 C 48.2292 2.24472 -0.643019 0
M  V30 523 C 49.2102 1.66433 0.351283 0
M  V30 524 O 50.3952 1.92803 0.232505 0
M  V30 525 C 47.5252 3.473 4.24935e-05 0
M  V30 526 C 46.4792 4.18055 -0.917257 0
M  V30 527 C 45.8052 5.34519 -0.138941 0
M  V30 528 C 47.1052 4.72109 -2.23407 0
M  V30 529 H 48.7992 2.57566 -1.52643 0
M  V30 530 H 46.3452 1.23806 -0.735394 0
M  V30 531 H 48.2982 4.20426 0.286383 0
M  V30 532 H 47.0222 3.13424 0.918299 0
M  V30 533 H 45.6812 3.46821 -1.1879 0
M  V30 534 H 45.3292 4.96891 0.781562 0
M  V30 535 H 45.0292 5.82794 -0.750005 0
M  V30 536 H 46.5532 6.10438 0.1405 0
M  V30 537 H 47.9672 5.36955 -2.00879 0
M  V30 538 H 46.3642 5.30897 -2.79765 0
M  V30 539 H 47.4342 3.89807 -2.88407 0
M  V30 540 N 48.7773 0.814389 1.34928 0
M  V30 541 C 49.7403 0.235759 2.27984 0
M  V30 542 C 50.7403 -0.581412 1.49921 0
M  V30 543 O 51.9303 -0.398758 1.69575 0
M  V30 544 C 49.0623 -0.670433 3.34242 0
M  V30 545 H 50.2553 1.05659 2.80671 0
M  V30 546 H 47.8083 0.585614 1.44915 0
M  V30 547 H 48.5433 -1.51466 2.86755 0
M  V30 548 H 48.3283 -0.0860822 3.92005 0
M  V30 549 H 49.8183 -1.06935 4.03676 0
M  V30 550 N 50.2554 -1.46986 0.568584 0
M  V30 551 C 51.2184 -2.28624 -0.162366 0
M  V30 552 C 52.2184 -1.37596 -0.832103 0
M  V30 553 O 53.4084 -1.60115 -0.68622 0
M  V30 554 C 50.5404 -3.17596 -1.23878 0
M  V30 555 H 51.7334 -2.94722 0.554899 0
M  V30 556 H 49.2864 -1.52863 0.325976 0
M  V30 557 H 50.0214 -2.56214 -1.98808 0
M  V30 558 H 49.8064 -3.846 -0.763219 0
M  V30 559 H 51.2964 -3.79078 -1.75185 0
M  V30 560 N 51.7335 -0.305618 -1.54608 0
M  V30 561 C 52.6965 0.555591 -2.22364 0
M  V30 562 C 53.6965 1.05768 -1.21119 0
M  V30 563 O 54.8865 0.952972 -1.45822 0
M  V30 564 C 52.0185 1.76974 -2.91364 0
M  V30 565 H 53.2115 -0.0364572 -2.99878 0
M  V30 566 H 50.7645 -0.0565007 -1.56198 0
M  V30 567 H 51.4995 2.40151 -2.17941 0
M  V30 568 H 51.2845 1.41732 -3.65588 0
M  V30 569 H 52.7745 2.38148 -3.43038 0
M  V30 570 N 53.2116 1.57565 -0.0334293 0
M  V30 571 C 54.4576 1.92262 0.645226 0
M  V30 572 C 54.7906 0.910543 1.71531 0
M  V30 573 O 54.0656 -0.066099 1.94388 0
M  V30 574 C 54.3486 3.37422 1.2577 0
M  V30 575 C 54.2016 4.49369 0.196891 0
M  V30 576 C 55.5206 3.82628 2.17449 0
M  V30 577 H 52.6396 0.699171 0.233085 0
M  V30 578 H 55.2816 1.89779 -0.0915694 0
M  V30 579 H 53.4316 3.39669 1.88566 0
M  V30 580 H 55.1036 4.59254 -0.433962 0
M  V30 581 H 53.3466 4.31168 -0.477137 0
M  V30 582 H 54.0176 5.47978 0.665124 0
M  V30 583 H 56.4936 3.82145 1.64634 0
M  V30 584 H 55.3696 4.84883 2.57254 0
M  V30 585 H 55.6306 3.18376 3.0674 0
M  V30 586 N 54.6897 -0.239769 1.55765 0
M  V30 587 C 55.6527 -1.28038 1.90103 0
M  V30 588 C 56.6527 -1.40723 0.778055 0
M  V30 589 O 57.8427 -1.39301 1.04599 0
M  V30 590 C 54.9747 -2.65702 2.13577 0
M  V30 591 H 56.1677 -0.988048 2.83157 0
M  V30 592 H 53.7207 -0.479382 1.48767 0
M  V30 593 H 54.4557 -3.00063 1.23015 0
M  V30 594 H 54.2407 -2.57875 2.95369 0
M  V30 595 H 55.7307 -3.40828 2.41301 0
M  V30 596 N 56.1678 -1.49265 -0.50573 0
M  V30 597 C 57.4448 -1.49012 -1.26707 0
M  V30 598 C 57.8248 -0.215205 -2.1 0
M  V30 599 O 57.1728 0.802547 -2.13943 0
M  V30 600 C 57.3828 -2.7663 -2.12783 0
M  V30 601 C 58.7308 -3.25932 -2.72127 0
M  V30 602 O 59.7548 -2.77715 -2.23054 0
M  V30 603 O 58.6138 -4.09897 -3.61451 0
M  V30 604 H 55.7078 -0.596197 -0.57313 0
M  V30 605 H 58.2538 -1.61524 -0.52039 0
M  V30 606 H 57.0258 -3.60916 -1.5118 0
M  V30 607 H 56.6488 -2.66956 -2.94653 0
M  V30 608 N 57.6459 0.756429 -1.3826 0
M  V30 609 C 58.6089 1.85176 -1.35065 0
M  V30 610 C 59.6089 1.58818 -0.251703 0
M  V30 611 O 60.7989 1.66615 -0.508433 0
M  V30 612 C 57.9309 3.22596 -1.10201 0
M  V30 613 H 59.1239 1.89417 -2.3251 0
M  V30 614 H 56.6769 0.95783 -1.23512 0
M  V30 615 H 57.4119 3.24025 -0.133504 0
M  V30 616 H 57.1969 3.43122 -1.89762 0
M  V30 617 H 58.6869 4.02673 -1.10654 0
M  V30 618 N 59.124 1.23083 0.984299 0
M  V30 619 C 60.54 0.992637 1.24975 0
M  V30 620 C 60.74 -0.308618 1.99123 0
M  V30 621 O 59.796 -1.02905 2.30579 0
M  V30 622 C 61.109 2.19698 2.05312 0
M  V30 623 C 62.657 2.24147 2.18465 0
M  V30 624 C 63.132 3.44157 3.02192 0
M  V30 625 N 64.623 3.44372 3.09777 0
M  V30 626 C 65.358 4.33886 3.74874 0
M  V30 627 N 64.854 5.3363 4.41827 0
M  V30 628 N 66.647 4.21639 3.71721 0
M  V30 629 H 58.798 2.06731 0.487453 0
M  V30 630 H 61.061 0.906339 0.277944 0
M  V30 631 H 60.767 3.1411 1.58201 0
M  V30 632 H 60.641 2.20465 3.06064 0
M  V30 633 H 63.028 1.30277 2.64786 0
M  V30 634 H 63.109 2.27415 1.17115 0
M  V30 635 H 62.753 4.38332 2.56568 0
M  V30 636 H 62.683 3.3813 4.03702 0
M  V30 637 H 65.174 2.72201 2.62135 0
M  V30 638 H 65.487 5.98196 4.89266 0
M  V30 639 H 63.832 5.37534 4.40548 0
M  V30 640 H 67.023 3.42962 3.18582 0
M  V30 641 H 67.196 4.91604 4.22173 0
M  V30 642 N 60.6021 -1.18246 1.0419 0
M  V30 643 C 61.5491 -2.2192 0.634037 0
M  V30 644 C 62.5191 -1.62179 -0.358765 0
M  V30 645 O 63.7041 -1.89122 -0.252466 0
M  V30 646 C 60.8441 -3.451 0.00445535 0
M  V30 647 C 59.9571 -4.19174 1.04487 0
M  V30 648 C 59.0921 -5.29813 0.383676 0
M  V30 649 C 58.1311 -5.9566 1.4091 0
M  V30 650 N 57.2681 -6.97834 0.772784 0
M  V30 651 H 62.1081 -2.56164 1.52263 0
M  V30 652 H 59.6451 -1.25843 0.761701 0
M  V30 653 H 61.6031 -4.15485 -0.377919 0
M  V30 654 H 60.2331 -3.11472 -0.847652 0
M  V30 655 H 59.2851 -3.47604 1.54518 0
M  V30 656 H 60.5971 -4.64267 1.82368 0
M  V30 657 H 59.7511 -6.06677 -0.0528366 0
M  V30 658 H 58.4901 -4.85825 -0.427208 0
M  V30 659 H 57.4951 -5.17535 1.85574 0
M  V30 660 H 58.7201 -6.4173 2.22171 0
M  V30 661 H 56.6661 -6.55998 -0.0177708 0
M  V30 662 H 56.5831 -7.41186 1.48928 0
M  V30 663 H 57.8511 -7.78665 0.36071 0
M  V30 664 N 62.0802 -0.821533 -1.34494 0
M  V30 665 C 63.3572 -0.33159 -1.92769 0
M  V30 666 C 63.7372 1.18088 -1.74981 0
M  V30 667 O 63.0852 1.98733 -1.12772 0
M  V30 668 C 63.2952 -0.759398 -3.40638 0
M  V30 669 C 64.6432 -0.757433 -4.1779 0
M  V30 670 O 65.6672 -0.70189 -3.49216 0
M  V30 671 O 64.5262 -0.829361 -5.4017 0
M  V30 672 H 61.6202 -0.0902502 -0.822061 0
M  V30 673 H 64.1662 -0.906231 -1.43477 0
M  V30 674 H 62.9382 -1.8012 -3.47379 0
M  V30 675 H 62.5612 -0.160378 -3.97276 0
M  V30 676 N 63.5583 1.46682 -0.576371 0
M  V30 677 C 64.8063 2.02013 -0.0594163 0
M  V30 678 C 65.1273 1.45101 1.30271 0
M  V30 679 O 64.3973 0.633317 1.8538 0
M  V30 680 H 62.9773 0.746759 -0.0189745 0
M  V30 681 H 65.6393 1.79862 -0.750717 0
M  V30 682 H 64.7353 3.12097 0.014345 0
M  V30 683 N 65.0364 0.313813 1.54444 0
M  V30 684 C 65.9464 -0.565714 2.27677 0
M  V30 685 C 66.9624 -1.13754 1.31666 0
M  V30 686 O 68.1384 -1.15959 1.64668 0
M  V30 687 C 65.2034 -1.71528 3.01296 0
M  V30 688 C 64.2644 -1.17624 4.12872 0
M  V30 689 C 63.4974 -2.27102 4.8297 0
M  V30 690 O 63.7204 -3.47256 4.52514 0
M  V30 691 O 62.6544 -1.9307 5.70094 0
M  V30 692 H 66.4804 0.0287296 3.03686 0
M  V30 693 H 64.0654 0.0798312 1.49187 0
M  V30 694 H 65.9474 -2.38476 3.4743 0
M  V30 695 H 64.6224 -2.29608 2.2817 0
M  V30 696 H 63.5294 -0.472124 3.71109 0
M  V30 697 H 64.8624 -0.640695 4.88012 0
M  V30 698 N 66.5145 -1.57545 0.0417849 0
M  V30 699 C 67.7425 -1.96624 -0.643928 0
M  V30 700 C 68.1575 -0.918897 -1.64929 0
M  V30 701 O 67.5145 0.0979323 -1.82237 0
M  V30 702 C 67.5655 -3.35781 -1.33914 0
M  V30 703 O 67.2865 -4.365 -0.374048 0
M  V30 704 C 68.7875 -3.89566 -2.1155 0
M  V30 705 H 66.0075 -0.647316 -0.176702 0
M  V30 706 H 68.5515 -2.04229 0.105304 0
M  V30 707 H 66.7065 -3.29357 -2.03968 0
M  V30 708 H 67.1205 -5.17248 -0.869179 0
M  V30 709 H 68.5945 -4.89242 -2.55628 0
M  V30 710 H 69.0715 -3.24488 -2.9598 0
M  V30 711 H 69.6775 -3.99298 -1.46427 0
M  V30 712 N 67.9926 0.231505 -1.5589 0
M  V30 713 C 68.9026 1.308 -1.94752 0
M  V30 714 C 69.9186 1.51826 -0.849989 0
M  V30 715 O 71.0946 1.6515 -1.15271 0
M  V30 716 C 68.1596 2.63968 -2.24771 0
M  V30 717 C 67.2206 2.51331 -3.48039 0
M  V30 718 C 66.4536 3.78148 -3.76616 0
M  V30 719 O 66.6766 4.80722 -3.07022 0
M  V30 720 O 65.6106 3.75857 -4.70123 0
M  V30 721 H 69.4366 1.0083 -2.86474 0
M  V30 722 H 67.0216 0.433547 -1.42971 0
M  V30 723 H 68.9036 3.42633 -2.45318 0
M  V30 724 H 67.5786 2.9364 -1.36225 0
M  V30 725 H 66.4856 1.709 -3.32782 0
M  V30 726 H 67.8186 2.26601 -4.36936 0
M  V30 727 N 69.4707 1.49531 0.497807 0
M  V30 728 C 70.4007 1.6935 1.60757 0
M  V30 729 C 71.3817 0.542218 1.61227 0
M  V30 730 O 72.5667 0.778417 1.77917 0
M  V30 731 C 69.6967 1.76298 2.99226 0
M  V30 732 C 68.6507 2.91248 3.13622 0
M  V30 733 C 67.9767 2.83312 4.53474 0
M  V30 734 C 69.2767 4.3214 2.93346 0
M  V30 735 H 70.9707 2.62263 1.44425 0
M  V30 736 H 68.5167 1.26208 0.693367 0
M  V30 737 H 70.4697 1.88749 3.76765 0
M  V30 738 H 69.1937 0.799871 3.16654 0
M  V30 739 H 67.8527 2.78404 2.38509 0
M  V30 740 H 67.5007 1.84902 4.67782 0
M  V30 741 H 67.2007 3.60465 4.64046 0
M  V30 742 H 68.7247 2.97775 5.33069 0
M  V30 743 H 70.1387 4.45649 3.60652 0
M  V30 744 H 68.5357 5.1054 3.15387 0
M  V30 745 H 69.6057 4.46363 1.89441 0
M  V30 746 N 70.9488 -0.749086 1.3866 0
M  V30 747 C 72.3598 -1.32664 1.31366 0
M  V30 748 C 72.7108 -1.96179 -0.028484 0
M  V30 749 O 71.8358 -1.9537 -0.93057 0
M  V30 750 C 72.4308 -2.41219 2.37905 0
M  V30 751 C 70.9898 -2.94684 2.34176 0
M  V30 752 C 70.1368 -1.68108 2.20533 0
M  V30 753 H 73.0878 -0.547628 1.48952 0
M  V30 754 H 73.1088 -3.21268 2.0388 0
M  V30 755 H 72.6208 -1.94962 3.35576 0
M  V30 756 H 70.7218 -3.45258 1.401 0
M  V30 757 H 70.8348 -3.48757 3.2849 0
M  V30 758 H 69.1988 -1.91907 1.67463 0
M  V30 759 H 69.9818 -1.23923 3.20153 0
M  V30 760 N 72.4269 -1.23603 -0.977757 0
M  V30 761 C 73.7039 -0.977897 -1.69401 0
M  V30 762 C 74.0839 0.502738 -2.05026 0
M  V30 763 O 73.4319 1.47459 -1.74551 0
M  V30 764 C 73.6419 -1.89077 -2.93345 0
M  V30 765 C 74.9899 -2.15579 -3.65802 0
M  V30 766 O 76.0139 -1.86648 -3.03383 0
M  V30 767 O 74.8729 -2.64658 -4.78141 0
M  V30 768 H 71.9669 -0.369025 -0.740101 0
M  V30 769 H 74.5129 -1.34657 -1.03274 0
M  V30 770 H 73.2849 -2.89158 -2.63634 0
M  V30 771 H 72.9079 -1.52463 -3.67207 0
M  V30 772 N 73.905 1.17692 -1.04816 0
M  V30 773 C 74.838 2.20436 -0.590173 0
M  V30 774 C 75.816 1.58115 0.379244 0
M  V30 775 O 77 1.86228 0.291762 0
M  V30 776 C 74.127 3.38424 0.136817 0
M  V30 777 C 73.173 4.19176 -0.787023 0
M  V30 778 S 74.006 4.84815 -2.27409 0
M  V30 779 C 75.162 6.06195 -1.55817 0
M  V30 780 H 75.395 2.58944 -1.46067 0
M  V30 781 H 72.928 1.28246 -0.859784 0
M  V30 782 H 74.886 4.06798 0.550076 0
M  V30 783 H 73.547 2.98312 0.983299 0
M  V30 784 H 72.74 5.03499 -0.224681 0
M  V30 785 H 72.342 3.56219 -1.13947 0
M  V30 786 H 74.634 6.72078 -0.855387 0
M  V30 787 H 75.577 6.6695 -2.37873 0
M  V30 788 H 75.985 5.54701 -1.04722 0
M  V30 789 N 75.3831 0.828654 1.34056 0
M  V30 790 C 76.6291 0.42008 1.98402 0
M  V30 791 C 76.9621 -1.01564 1.65525 0
M  V30 792 O 76.2371 -1.70834 0.929831 0
M  V30 793 C 76.5201 0.62927 3.54559 0
M  V30 794 C 76.3731 2.11152 3.97159 0
M  V30 795 C 77.6921 0.0688756 4.40046 0
M  V30 796 H 74.8111 0.154104 0.720709 0
M  V30 797 H 77.4531 1.04228 1.5886 0
M  V30 798 H 75.6031 0.0996418 3.88372 0
M  V30 799 H 77.2751 2.70522 3.73651 0
M  V30 800 H 75.5181 2.59985 3.47261 0
M  V30 801 H 76.1891 2.20868 5.05887 0
M  V30 802 H 78.6651 0.521458 4.1282 0
M  V30 803 H 77.5411 0.245006 5.48353 0
M  V30 804 H 77.8021 -1.0266 4.30015 0
M  V30 805 N 76.8612 -1.46375 0.584142 0
M  V30 806 C 78.1102 -2.01585 0.0679741 0
M  V30 807 C 78.4232 -1.46109 -1.30045 0
M  V30 808 O 79.6292 -1.93148 -1.90804 0
M  V30 809 C 78.0852 -3.5983 0.0709207 0
M  V30 810 C 77.6932 -4.24303 1.43775 0
M  V30 811 C 79.4372 -4.22693 -0.391228 0
M  V30 812 C 77.3442 -5.74631 1.39834 0
M  V30 813 H 76.2742 -0.753689 0.0216421 0
M  V30 814 H 78.9252 -1.68093 0.736001 0
M  V30 815 H 77.3072 -3.90405 -0.663299 0
M  V30 816 H 78.4812 -4.05335 2.19181 0
M  V30 817 H 76.7962 -3.73539 1.84004 0
M  V30 818 H 79.3932 -5.3289 -0.439524 0
M  V30 819 H 79.7362 -3.91728 -1.40906 0
M  V30 820 H 80.2692 -3.96749 0.288974 0
M  V30 821 H 77.0082 -6.10258 2.39303 0
M  V30 822 H 76.5282 -5.95858 0.686505 0
M  V30 823 H 78.2072 -6.37375 1.11187 0
M  V30 824 N 78.3393 -0.321999 -1.54275 0
M  V30 825 C 79.5643 0.285791 -2.05422 0
M  V30 826 C 79.9893 1.45124 -1.19669 0
M  V30 827 O 79.3473 1.80132 -0.205441 0
M  V30 828 C 79.3953 0.69956 -3.53749 0
M  V30 829 O 78.4993 1.8021 -3.70942 0
M  V30 830 H 77.8403 0.0518962 -0.661969 0
M  V30 831 H 80.3703 -0.469954 -1.9913 0
M  V30 832 H 80.3803 0.982649 -3.9599 0
M  V30 833 H 79.0553 -0.152864 -4.15619 0
M  V30 834 H 77.6323 1.51794 -3.40607 0
M  V30 835 N 79.8174 1.5752 -0.0501392 0
M  V30 836 C 81.0654 1.9227 0.622642 0
M  V30 837 C 81.3864 0.929083 1.71444 0
M  V30 838 O 80.6564 -0.0262186 1.95882 0
M  V30 839 H 79.2364 0.709739 0.232981 0
M  V30 840 H 81.8984 1.94628 -0.102898 0
M  V30 841 H 80.9944 2.93479 1.06191 0
M  V30 842 N 81.2955 -0.223234 1.56011 0
M  V30 843 C 82.2055 -1.29766 1.95443 0
M  V30 844 C 83.2215 -1.51373 0.858028 0
M  V30 845 O 84.3975 -1.64536 1.16146 0
M  V30 846 C 81.4625 -2.62772 2.26167 0
M  V30 847 C 80.5235 -2.49482 3.49367 0
M  V30 848 C 79.7565 -3.76145 3.78616 0
M  V30 849 O 79.9795 -4.79087 3.09568 0
M  V30 850 O 78.9135 -3.73358 4.72109 0
M  V30 851 H 82.7395 -0.99309 2.87004 0
M  V30 852 H 80.3245 -0.425958 1.43199 0
M  V30 853 H 82.2065 -3.41327 2.47131 0
M  V30 854 H 80.8815 -2.92913 1.37781 0
M  V30 855 H 79.7885 -1.69133 3.33684 0
M  V30 856 H 81.1215 -2.2428 4.38131 0
M  V30 857 N 82.7736 -1.49793 -0.48987 0
M  V30 858 C 83.9986 -1.63836 -1.27172 0
M  V30 859 C 84.4236 -0.31402 -1.8546 0
M  V30 860 O 83.7816 0.719803 -1.66399 0
M  V30 861 C 83.8296 -2.71797 -2.36978 0
M  V30 862 O 82.9336 -2.31744 -3.41128 0
M  V30 863 H 82.2746 -0.547997 -0.37496 0
M  V30 864 H 84.8046 -1.96053 -0.585191 0
M  V30 865 H 84.8146 -2.94305 -2.82575 0
M  V30 866 H 83.4896 -3.67923 -1.93921 0
M  V30 867 H 82.0666 -2.1961 -3.01373 0
M  V30 868 N 84.2517 0.741722 -1.39055 0
M  V30 869 C 85.4797 1.53098 -1.39171 0
M  V30 870 C 85.8947 1.88794 0.0155099 0
M  V30 871 O 85.2517 1.53626 0.985159 0
M  V30 872 C 85.3027 2.82274 -2.2584 0
M  V30 873 O 85.0237 2.48097 -3.61081 0
M  V30 874 C 86.5247 3.76343 -2.34266 0
M  V30 875 H 83.7447 0.473335 -0.4756 0
M  V30 876 H 86.2887 0.917045 -1.82785 0
M  V30 877 H 84.4437 3.40015 -1.85656 0
M  V30 878 H 84.8577 3.31029 -4.06842 0
M  V30 879 H 86.3317 4.63898 -2.9917 0
M  V30 880 H 86.8087 4.17619 -1.35982 0
M  V30 881 H 87.4147 3.24523 -2.74891 0
M  V30 882 N 85.7298 1.2412 0.971189 0
M  V30 883 C 86.9548 1.10667 1.75407 0
M  V30 884 C 87.3798 -0.337048 1.85056 0
M  V30 885 O 86.7378 -1.24396 1.31892 0
M  V30 886 C 86.7858 1.74726 3.15441 0
M  V30 887 O 85.8898 1.01566 3.99697 0
M  V30 888 H 85.2308 0.387341 0.539317 0
M  V30 889 H 87.7608 1.64358 1.2185 0
M  V30 890 H 87.7708 1.80341 3.6598 0
M  V30 891 H 86.4458 2.79773 3.07734 0
M  V30 892 H 85.0228 1.03713 3.58187 0
M  V30 893 N 87.2079 -1.17134 1.05439 0
M  V30 894 C 88.1709 -2.19439 0.661764 0
M  V30 895 C 89.1709 -1.58199 -0.288042 0
M  V30 896 O 90.3609 -1.74053 -0.0715803 0
M  V30 897 C 87.4929 -3.40889 -0.0276209 0
M  V30 898 H 88.6859 -2.55688 1.56728 0
M  V30 899 H 86.2389 -1.31259 0.848567 0
M  V30 900 H 86.9739 -3.10187 -0.94629 0
M  V30 901 H 86.7589 -3.86586 0.655238 0
M  V30 902 H 88.2489 -4.16603 -0.288342 0
M  V30 903 N 88.686 -0.835752 -1.33615 0
M  V30 904 C 89.914 -0.443344 -2.02094 0
M  V30 905 C 90.329 0.954522 -1.62894 0
M  V30 906 O 89.686 1.61982 -0.840723 0
M  V30 907 C 89.737 -0.550775 -3.5728 0
M  V30 908 O 89.458 -1.89356 -3.95065 0
M  V30 909 C 90.959 -0.154919 -4.43029 0
M  V30 910 H 88.179 -0.176359 -0.647409 0
M  V30 911 H 90.723 -1.12746 -1.70612 0
M  V30 912 H 88.878 0.0853997 -3.87306 0
M  V30 913 H 89.292 -1.87687 -4.89769 0
M  V30 914 H 90.766 -0.281144 -5.51284 0
M  V30 915 H 91.243 0.902863 -4.2982 0
M  V30 916 H 91.849 -0.765404 -4.18356 0
M  V30 917 N 90.1641 1.46063 -0.591896 0
M  V30 918 C 91.0961 2.28539 0.174001 0
M  V30 919 C 92.1091 1.39047 0.846753 0
M  V30 920 O 93.2981 1.63564 0.714774 0
M  V30 921 C 90.3981 3.14347 1.26645 0
M  V30 922 C 89.5711 4.32021 0.683856 0
M  V30 923 C 88.6301 4.99157 1.66518 0
M  V30 924 O 87.6561 5.56458 1.19763 0
M  V30 925 N 88.8581 4.97005 2.99943 0
M  V30 926 H 91.6231 2.94911 -0.533633 0
M  V30 927 H 89.1841 1.56077 -0.430294 0
M  V30 928 H 91.1761 3.56125 1.92242 0
M  V30 929 H 89.7461 2.49988 1.87682 0
M  V30 930 H 88.9661 3.93915 -0.1498 0
M  V30 931 H 90.2541 5.08059 0.274567 0
M  V30 932 H 89.6521 4.51714 3.40545 0
M  V30 933 H 88.2091 5.42696 3.61004 0
M  V30 934 N 91.6422 0.330177 1.54103 0
M  V30 935 C 93.0532 -0.15652 1.86043 0
M  V30 936 C 93.4042 -1.51086 1.2517 0
M  V30 937 O 92.5292 -2.09023 0.560217 0
M  V30 938 C 93.1242 -0.290784 3.3755 0
M  V30 939 C 91.6832 -0.721705 3.69416 0
M  V30 940 C 90.8302 0.152622 2.7688 0
M  V30 941 H 93.7812 0.550237 1.48856 0
M  V30 942 H 93.8022 -1.12058 3.63625 0
M  V30 943 H 93.3142 0.695068 3.81825 0
M  V30 944 H 91.4152 -1.71706 3.30678 0
M  V30 945 H 91.5282 -0.520869 4.7626 0
M  V30 946 H 89.8922 -0.372894 2.51956 0
M  V30 947 H 90.6752 1.13536 3.23982 0
M  V30 948 N 93.1203 -1.57491 0.0584922 0
M  V30 949 C 94.5313 -1.80526 -0.476138 0
M  V30 950 C 94.8823 -0.971334 -1.70469 0
M  V30 951 O 94.0073 -0.190012 -2.15564 0
M  V30 952 C 94.6023 -3.27424 -0.870587 0
M  V30 953 C 93.1613 -3.51351 -1.35015 0
M  V30 954 C 92.3083 -2.75343 -0.32887 0
M  V30 955 H 95.2593 -1.56133 0.284312 0
M  V30 956 H 95.2803 -3.38745 -1.73299 0
M  V30 957 H 94.7923 -3.88093 0.0237627 0
M  V30 958 H 92.8933 -2.95971 -2.26345 0
M  V30 959 H 93.0063 -4.60059 -1.33726 0
M  V30 960 H 91.3703 -2.417 -0.803321 0
M  V30 961 H 92.1533 -3.38743 0.557521 0
M  V30 962 N 94.5984 0.214957 -1.56127 0
M  V30 963 C 95.8464 0.936518 -1.79091 0
M  V30 964 C 96.1674 1.84606 -0.628148 0
M  V30 965 O 95.4374 1.92664 0.35462 0
M  V30 966 H 94.0174 0.3488 -0.660566 0
M  V30 967 H 96.6794 0.22523 -1.93594 0
M  V30 968 H 95.7754 1.53943 -2.71492 0
M  V30 969 N 96.0765 1.50051 0.48192 0
M  V30 970 C 97.3225 1.60736 1.2366 0
M  V30 971 C 97.6555 0.301786 1.91841 0
M  V30 972 O 96.9305 -0.696025 1.8162 0
M  V30 973 C 97.2135 2.78009 2.28874 0
M  V30 974 C 97.0665 4.18416 1.65069 0
M  V30 975 C 98.3855 2.90867 3.30279 0
M  V30 976 H 95.5045 0.585031 0.448228 0
M  V30 977 H 98.1465 1.82402 0.531946 0
M  V30 978 H 96.2965 2.59667 2.88973 0
M  V30 979 H 97.9685 4.48322 1.0865 0
M  V30 980 H 96.2115 4.23177 0.954148 0
M  V30 981 H 96.8825 4.96381 2.41474 0
M  V30 982 H 99.3585 3.07623 2.80191 0
M  V30 983 H 98.2345 3.74566 4.01238 0
M  V30 984 H 98.4955 2.01021 3.93755 0
M  V30 985 N 97.5546 -0.734337 1.39446 0
M  V30 986 C 98.7826 -1.52358 1.39981 0
M  V30 987 C 99.1976 -1.88799 -0.0054975 0
M  V30 988 O 98.5546 -1.54146 -0.976998 0
M  V30 989 C 98.6056 -2.81072 2.27333 0
M  V30 990 O 98.3266 -2.46178 3.62392 0
M  V30 991 C 99.8276 -3.75096 2.36259 0
M  V30 992 H 97.0476 -0.470806 0.478103 0
M  V30 993 H 99.5916 -0.907339 1.83269 0
M  V30 994 H 97.7466 -3.39026 1.87457 0
M  V30 995 H 98.1606 -3.28866 4.08592 0
M  V30 996 H 99.6346 -4.62305 3.01626 0
M  V30 997 H 100.112 -4.16892 1.38194 0
M  V30 998 H 100.718 -3.23061 2.76608 0
M  V30 999 N 99.0327 -1.24633 -0.964593 0
M  V30 1000 C 100.261 -1.11501 -1.74285 0
M  V30 1001 C 100.676 0.332165 -1.85855 0
M  V30 1002 O 100.033 1.22903 -1.34911 0
M  V30 1003 C 100.084 -1.75258 -3.16175 0
M  V30 1004 O 99.8047 -3.14318 -3.05182 0
M  V30 1005 C 101.306 -1.67776 -4.10324 0
M  V30 1006 H 98.5257 -0.389407 -0.546446 0
M  V30 1007 H 101.07 -1.64801 -1.21083 0
M  V30 1008 H 99.2247 -1.25954 -3.66353 0
M  V30 1009 H 99.6387 -3.4551 -3.94618 0
M  V30 1010 H 101.113 -2.17064 -5.0753 0
M  V30 1011 H 101.59 -0.639584 -4.34518 0
M  V30 1012 H 102.196 -2.16522 -3.66058 0
M  V30 1013 N 100.511 1.16574 -1.06058 0
M  V30 1014 C 101.441 2.23057 -0.690488 0
M  V30 1015 C 102.422 1.67141 0.315901 0
M  V30 1016 O 103.607 1.93253 0.191556 0
M  V30 1017 C 100.737 3.47222 -0.073625 0
M  V30 1018 C 99.6908 4.16016 -1.00573 0
M  V30 1019 C 99.0168 5.34104 -0.252289 0
M  V30 1020 C 100.317 4.67264 -2.33371 0
M  V30 1021 H 102.011 2.54271 -1.58072 0
M  V30 1022 H 99.5568 1.22218 -0.76149 0
M  V30 1023 H 101.51 4.20939 0.19714 0
M  V30 1024 H 100.234 3.15302 0.85161 0
M  V30 1025 H 98.8928 3.44223 -1.2612 0
M  V30 1026 H 98.5408 4.98437 0.675988 0
M  V30 1027 H 98.2408 5.81072 -0.873455 0
M  V30 1028 H 99.7648 6.10599 0.0109857 0
M  V30 1029 H 101.179 5.32573 -2.12223 0
M  V30 1030 H 99.5758 5.24843 -2.90963 0
M  V30 1031 H 100.646 3.83602 -2.96611 0
M  V30 1032 N 101.989 0.842826 1.3317 0
M  V30 1033 C 103.237 0.439577 1.97262 0
M  V30 1034 C 103.558 -1.00548 1.67078 0
M  V30 1035 O 102.828 -1.70098 0.971779 0
M  V30 1036 H 101.408 0.159558 0.72976 0
M  V30 1037 H 104.07 1.07665 1.62463 0
M  V30 1038 H 103.166 0.574886 3.0676 0
M  V30 1039 N 103.467 -1.45747 0.599634 0
M  V30 1040 C 104.414 -2.30467 -0.123849 0
M  V30 1041 C 105.384 -1.41632 -0.86774 0
M  V30 1042 O 106.569 -1.70568 -0.855056 0
M  V30 1043 C 103.709 -3.26402 -1.12051 0
M  V30 1044 C 102.822 -4.3034 -0.37832 0
M  V30 1045 C 101.957 -5.13389 -1.364 0
M  V30 1046 C 100.996 -6.09061 -0.609171 0
M  V30 1047 N 100.133 -6.84918 -1.54374 0
M  V30 1048 H 104.973 -2.91802 0.604627 0
M  V30 1049 H 102.51 -1.43797 0.309972 0
M  V30 1050 H 104.468 -3.80482 -1.7114 0
M  V30 1051 H 103.098 -2.66839 -1.8165 0
M  V30 1052 H 102.15 -3.78984 0.327929 0
M  V30 1053 H 103.462 -4.98354 0.210997 0
M  V30 1054 H 102.616 -5.7183 -2.02719 0
M  V30 1055 H 101.355 -4.45376 -1.98725 0
M  V30 1056 H 100.36 -5.49758 0.0676979 0
M  V30 1057 H 101.585 -6.79099 0.00891991 0
M  V30 1058 H 99.531 -6.19601 -2.15478 0
M  V30 1059 H 99.448 -7.49254 -1.00766 0
M  V30 1060 H 100.716 -7.47906 -2.19676 0
M  V30 1061 N 104.945 -0.338344 -1.53925 0
M  V30 1062 C 106.191 0.260143 -2.01125 0
M  V30 1063 C 106.524 1.50617 -1.22589 0
M  V30 1064 O 105.799 1.91979 -0.312113 0
M  V30 1065 C 106.082 0.579499 -3.55407 0
M  V30 1066 C 105.935 -0.678264 -4.44657 0
M  V30 1067 C 107.254 1.39122 -4.17532 0
M  V30 1068 H 104.373 0.0930772 -0.731099 0
M  V30 1069 H 107.015 -0.457852 -1.84401 0
M  V30 1070 H 105.165 1.19118 -3.69788 0
M  V30 1071 H 106.837 -1.31631 -4.42121 0
M  V30 1072 H 105.08 -1.3042 -4.13731 0
M  V30 1073 H 105.751 -0.410143 -5.50474 0
M  V30 1074 H 108.227 0.874035 -4.06817 0
M  V30 1075 H 107.103 1.58342 -5.25565 0
M  V30 1076 H 107.364 2.39178 -3.71815 0
M  V30 1077 N 106.423 1.57458 -0.0668435 0
M  V30 1078 C 107.834 1.80776 0.466558 0
M  V30 1079 C 108.185 0.980361 1.69951 0
M  V30 1080 O 107.31 0.201441 2.1546 0
M  V30 1081 C 107.905 3.27881 0.85321 0
M  V30 1082 C 106.464 3.52062 1.3315 0
M  V30 1083 C 105.611 2.75513 0.314264 0
M  V30 1084 H 108.562 1.5598 -0.292588 0
M  V30 1085 H 108.583 3.39659 1.715 0
M  V30 1086 H 108.095 3.88075 -0.0443439 0
M  V30 1087 H 106.196 2.97167 2.24772 0
M  V30 1088 H 106.309 4.60762 1.31285 0
M  V30 1089 H 104.673 2.42123 0.790492 0
M  V30 1090 H 105.456 3.38442 -0.575477 0
M  V30 1091 N 107.901 -0.206675 1.56239 0
M  V30 1092 C 108.831 -1.25909 1.96645 0
M  V30 1093 C 109.812 -1.48097 0.836734 0
M  V30 1094 O 110.997 -1.6003 1.10019 0
M  V30 1095 C 108.127 -2.6058 2.29599 0
M  V30 1096 C 107.081 -2.53024 3.452 0
M  V30 1097 C 106.407 -3.91861 3.63798 0
M  V30 1098 C 107.707 -2.06524 4.79734 0
M  V30 1099 H 109.401 -0.923369 2.84806 0
M  V30 1100 H 106.947 -0.442735 1.37025 0
M  V30 1101 H 108.9 -3.34375 2.56459 0
M  V30 1102 H 107.624 -2.95869 1.38307 0
M  V30 1103 H 106.283 -1.81684 3.18412 0
M  V30 1104 H 105.931 -4.24483 2.69857 0
M  V30 1105 H 105.631 -3.87683 4.4156 0
M  V30 1106 H 107.155 -4.67296 3.93022 0
M  V30 1107 H 108.569 -2.70072 5.05702 0
M  V30 1108 H 106.966 -2.13374 5.60885 0
M  V30 1109 H 108.036 -1.01802 4.74093 0
M  V30 1110 N 109.379 -1.50304 -0.473955 0
M  V30 1111 C 110.326 -1.68959 -1.57231 0
M  V30 1112 C 111.296 -0.530899 -1.57387 0
M  V30 1113 O 112.481 -0.761133 -1.74961 0
M  V30 1114 C 109.621 -1.7871 -2.95223 0
M  V30 1115 C 108.734 -3.06061 -3.04878 0
M  V30 1116 C 107.869 -3.06626 -4.33767 0
M  V30 1117 C 106.908 -4.28443 -4.37154 0
M  V30 1118 N 106.045 -4.26763 -5.5751 0
M  V30 1119 H 110.885 -2.6273 -1.40631 0
M  V30 1120 H 108.422 -1.30241 -0.683789 0
M  V30 1121 H 110.38 -1.82344 -3.75242 0
M  V30 1122 H 109.01 -0.883806 -3.10465 0
M  V30 1123 H 108.062 -3.11911 -2.17751 0
M  V30 1124 H 109.374 -3.96039 -3.0324 0
M  V30 1125 H 108.528 -3.08973 -5.22131 0
M  V30 1126 H 107.267 -2.14473 -4.3801 0
M  V30 1127 H 106.272 -4.2631 -3.47188 0
M  V30 1128 H 107.497 -5.2182 -4.34605 0
M  V30 1129 H 105.443 -3.37462 -5.62544 0
M  V30 1130 H 105.36 -5.10507 -5.57601 0
M  V30 1131 H 106.628 -4.33253 -6.48006 0
M  V30 1132 N 110.857 0.726932 -1.39834 0
M  V30 1133 C 112.268 1.30558 -1.3346 0
M  V30 1134 C 112.619 1.962 -0.00273003 0
M  V30 1135 O 111.744 1.96826 0.899371 0
M  V30 1136 C 112.339 2.37404 -2.41713 0
M  V30 1137 C 110.898 2.90921 -2.38835 0
M  V30 1138 C 110.045 1.64578 -2.2318 0
M  V30 1139 H 112.996 0.523862 -1.49804 0
M  V30 1140 H 113.017 3.17984 -2.08966 0
M  V30 1141 H 112.529 1.89599 -3.38635 0
M  V30 1142 H 110.63 3.42985 -1.45575 0
M  V30 1143 H 110.743 3.43487 -3.33997 0
M  V30 1144 H 109.107 1.89219 -1.70494 0
M  V30 1145 H 109.89 1.18814 -3.22084 0
M  V30 1146 N 112.336 1.25143 0.95797 0
M  V30 1147 C 113.752 1.01892 1.22842 0
M  V30 1148 C 113.952 -0.266311 1.99732 0
M  V30 1149 O 113.008 -0.979913 2.3271 0
M  V30 1150 C 114.321 2.24004 2.00606 0
M  V30 1151 C 115.869 2.28731 2.13662 0
M  V30 1152 C 116.344 3.5049 2.94823 0
M  V30 1153 N 117.835 3.50866 3.02403 0
M  V30 1154 C 118.57 4.4174 3.65586 0
M  V30 1155 N 118.066 5.42882 4.30408 0
M  V30 1156 N 119.859 4.29429 3.62694 0
M  V30 1157 H 112.01 2.07718 0.443493 0
M  V30 1158 H 114.273 0.912031 0.258657 0
M  V30 1159 H 113.979 3.17395 1.51503 0
M  V30 1160 H 113.853 2.26907 3.01319 0
M  V30 1161 H 116.24 1.35865 2.61963 0
M  V30 1162 H 116.321 2.29848 1.12265 0
M  V30 1163 H 115.965 4.43676 2.47213 0
M  V30 1164 H 115.895 3.46617 3.96439 0
M  V30 1165 H 118.386 2.777 2.56302 0
M  V30 1166 H 118.699 6.0844 4.76467 0
M  V30 1167 H 117.044 5.46758 4.29047 0
M  V30 1168 H 120.235 3.49643 3.11236 0
M  V30 1169 H 120.408 5.00448 4.1165 0
M  V30 1170 N 113.814 -1.1601 1.06675 0
M  V30 1171 C 114.724 -2.24156 0.692179 0
M  V30 1172 C 115.74 -1.71507 -0.293513 0
M  V30 1173 O 116.916 -2.009 -0.141861 0
M  V30 1174 C 113.981 -3.46587 0.0884131 0
M  V30 1175 C 113.042 -4.14257 1.12646 0
M  V30 1176 C 112.275 -5.30844 0.551416 0
M  V30 1177 O 112.498 -5.66858 -0.634656 0
M  V30 1178 O 111.432 -5.87848 1.29298 0
M  V30 1179 H 115.258 -2.58513 1.59388 0
M  V30 1180 H 112.843 -1.23599 0.83926 0
M  V30 1181 H 114.725 -4.20679 -0.246361 0
M  V30 1182 H 113.4 -3.13994 -0.786712 0
M  V30 1183 H 112.307 -3.42118 1.51348 0
M  V30 1184 H 113.64 -4.50914 1.97325 0
M  V30 1185 N 115.292 -0.849877 -1.32721 0
M  V30 1186 C 116.222 -0.306308 -2.31482 0
M  V30 1187 C 117.203 0.591952 -1.59468 0
M  V30 1188 O 118.388 0.513199 -1.87296 0
M  V30 1189 C 115.518 0.510204 -3.43532 0
M  V30 1190 C 114.472 -0.293209 -4.26994 0
M  V30 1191 C 113.798 0.647743 -5.30762 0
M  V30 1192 C 115.098 -1.51634 -4.99804 0
M  V30 1193 H 116.792 -1.13153 -2.77195 0
M  V30 1194 H 114.338 -0.545553 -1.33266 0
M  V30 1195 H 116.291 0.900856 -4.11658 0
M  V30 1196 H 115.015 1.36874 -2.96535 0
M  V30 1197 H 113.674 -0.665555 -3.60508 0
M  V30 1198 H 113.322 1.50299 -4.8002 0
M  V30 1199 H 113.022 0.11422 -5.87489 0
M  V30 1200 H 114.546 1.03567 -6.01753 0
M  V30 1201 H 115.96 -1.19824 -5.60638 0
M  V30 1202 H 114.357 -1.98745 -5.66234 0
M  V30 1203 H 115.427 -2.28018 -4.27943 0
M  V30 1204 N 116.77 1.45427 -0.607355 0
M  V30 1205 C 118.181 1.85756 -0.187535 0
M  V30 1206 C 118.532 1.5077 1.25551 0
M  V30 1207 O 117.657 0.93427 1.95193 0
M  V30 1208 C 118.252 3.37154 -0.333572 0
M  V30 1209 C 116.811 3.76387 0.0315542 0
M  V30 1210 C 115.958 2.69377 -0.658117 0
M  V30 1211 H 118.909 1.36231 -0.81405 0
M  V30 1212 H 118.93 3.78014 0.43428 0
M  V30 1213 H 118.442 3.62586 -1.38393 0
M  V30 1214 H 116.543 3.56571 1.0811 0
M  V30 1215 H 116.656 4.77731 -0.361935 0
M  V30 1216 H 115.02 2.5452 -0.0957873 0
M  V30 1217 H 115.803 2.97646 -1.7106 0
M  V30 1218 N 118.248 0.346503 1.53744 0
M  V30 1219 C 119.18 -0.543316 2.22667 0
M  V30 1220 C 120.193 -1.06159 1.23427 0
M  V30 1221 O 121.382 -0.971235 1.49764 0
M  V30 1222 C 118.482 -1.76076 2.89569 0
M  V30 1223 C 117.655 -1.37727 4.15151 0
M  V30 1224 C 116.714 -2.45471 4.65436 0
M  V30 1225 O 115.74 -2.08655 5.29577 0
M  V30 1226 N 116.942 -3.7677 4.41616 0
M  V30 1227 H 119.707 0.0469703 2.99663 0
M  V30 1228 H 117.268 0.170766 1.60997 0
M  V30 1229 H 119.26 -2.47593 3.20125 0
M  V30 1230 H 117.83 -2.25835 2.16142 0
M  V30 1231 H 117.05 -0.492746 3.91108 0
M  V30 1232 H 118.338 -1.09708 4.96832 0
M  V30 1233 H 117.736 -4.09467 3.90325 0
M  V30 1234 H 116.293 -4.44448 4.7677 0
M  V30 1235 N 119.726 -1.57421 0.075193 0
M  V30 1236 C 120.951 -1.98364 -0.605515 0
M  V30 1237 C 121.376 -0.953383 -1.62149 0
M  V30 1238 O 120.734 0.0806053 -1.81121 0
M  V30 1239 C 120.782 -3.38332 -1.24756 0
M  V30 1240 O 119.886 -3.37959 -2.36342 0
M  V30 1241 H 119.227 -0.645553 -0.155428 0
M  V30 1242 H 121.757 -2.04044 0.150714 0
M  V30 1243 H 121.767 -3.75591 -1.5936 0
M  V30 1244 H 120.442 -4.12846 -0.503129 0
M  V30 1245 H 119.019 -3.12474 -2.03506 0
M  V30 1246 N 121.204 0.198386 -1.56346 0
M  V30 1247 C 122.167 1.22952 -1.93431 0
M  V30 1248 C 123.167 1.38611 -0.815092 0
M  V30 1249 O 124.357 1.36479 -1.08255 0
M  V30 1250 C 121.489 2.59946 -2.20546 0
M  V30 1251 H 122.682 0.912626 -2.85677 0
M  V30 1252 H 120.235 0.43977 -1.49986 0
M  V30 1253 H 120.97 2.96696 -1.30927 0
M  V30 1254 H 120.755 2.49953 -3.02102 0
M  V30 1255 H 122.245 3.3431 -2.50253 0
M  V30 1256 N 122.682 1.50554 0.465978 0
M  V30 1257 C 123.907 1.65838 1.24549 0
M  V30 1258 C 124.332 0.343486 1.84937 0
M  V30 1259 O 123.69 -0.69324 1.67523 0
M  V30 1260 C 123.738 2.75533 2.32624 0
M  V30 1261 O 122.842 2.37142 3.37398 0
M  V30 1262 H 122.183 0.553893 0.366194 0
M  V30 1263 H 124.713 1.96959 0.553927 0
M  V30 1264 H 124.723 2.98763 2.77857 0
M  V30 1265 H 123.398 3.70962 1.88043 0
M  V30 1266 H 121.975 2.24377 2.97841 0
M  V30 1267 N 124.16 -0.719506 1.40217 0
M  V30 1268 C 125.406 -1.48152 1.38488 0
M  V30 1269 C 125.739 -1.94195 -0.0141867 0
M  V30 1270 O 125.014 -1.67884 -0.982096 0
M  V30 1271 C 125.297 -2.71035 2.37091 0
M  V30 1272 C 125.15 -2.30912 3.86005 0
M  V30 1273 C 126.469 -3.73182 2.33288 0
M  V30 1274 H 123.588 -0.537395 0.504357 0
M  V30 1275 H 126.23 -0.821472 1.71324 0
M  V30 1276 H 124.38 -3.27352 2.0922 0
M  V30 1277 H 126.052 -1.80107 4.24687 0
M  V30 1278 H 124.295 -1.62958 4.02029 0
M  V30 1279 H 124.966 -3.18978 4.50508 0
M  V30 1280 H 127.442 -3.26485 2.57966 0
M  V30 1281 H 126.318 -4.56806 3.04334 0
M  V30 1282 H 126.579 -4.21202 1.34317 0
M  V30 1283 N 125.638 -1.25649 -0.95132 0
M  V30 1284 C 126.887 -1.09988 -1.69073 0
M  V30 1285 C 127.2 0.358355 -1.92289 0
M  V30 1286 O 128.406 0.635466 -2.63958 0
M  V30 1287 C 126.862 -1.92012 -3.044 0
M  V30 1288 C 126.47 -3.42347 -2.88968 0
M  V30 1289 C 128.214 -1.8493 -3.82101 0
M  V30 1290 C 126.121 -4.16655 -4.19705 0
M  V30 1291 H 125.051 -0.407993 -0.63408 0
M  V30 1292 H 127.702 -1.49873 -1.05879 0
M  V30 1293 H 126.084 -1.44952 -3.68517 0
M  V30 1294 H 127.258 -3.97104 -2.33762 0
M  V30 1295 H 125.573 -3.50557 -2.24719 0
M  V30 1296 H 128.17 -2.37739 -4.78941 0
M  V30 1297 H 128.513 -0.817883 -4.08187 0
M  V30 1298 H 129.046 -2.29758 -3.2474 0
M  V30 1299 H 125.785 -5.20224 -3.98807 0
M  V30 1300 H 125.305 -3.66681 -4.74663 0
M  V30 1301 H 126.984 -4.24551 -4.88227 0
M  V30 1302 N 127.117 1.15442 -1.07289 0
M  V30 1303 C 128.394 1.82306 -0.708792 0
M  V30 1304 C 128.774 1.94991 0.808807 0
M  V30 1305 O 128.122 1.50085 1.72298 0
M  V30 1306 C 128.332 3.18695 -1.42247 0
M  V30 1307 C 129.68 3.94341 -1.57417 0
M  V30 1308 O 130.704 3.28247 -1.38319 0
M  V30 1309 O 129.563 5.12839 -1.88834 0
M  V30 1310 H 126.657 0.787628 -0.252132 0
M  V30 1311 H 129.203 1.22559 -1.17377 0
M  V30 1312 H 127.975 3.04557 -2.45684 0
M  V30 1313 H 127.598 3.86128 -0.948223 0
M  V30 1314 N 128.595 0.856903 1.32268 0
M  V30 1315 C 129.545 0.274899 2.26337 0
M  V30 1316 C 130.529 -0.580543 1.50062 0
M  V30 1317 O 131.721 -0.429559 1.71708 0
M  V30 1318 C 128.85 -0.533841 3.39124 0
M  V30 1319 C 127.936 0.334114 4.22782 0
M  V30 1320 N 128.327 1.42143 4.85416 0
M  V30 1321 C 126.625 0.124256 4.45827 0
M  V30 1322 C 127.326 1.95559 5.47843 0
M  V30 1323 N 126.302 1.25444 5.28928 0
M  V30 1324 H 130.104 1.10612 2.72291 0
M  V30 1325 H 127.618 0.703258 1.46383 0
M  V30 1326 H 129.615 -0.96722 4.05525 0
M  V30 1327 H 128.275 -1.36283 2.94715 0
M  V30 1328 H 129.286 1.80436 4.85451 0
M  V30 1329 H 125.963 -0.669837 4.12092 0
M  V30 1330 H 127.353 2.86714 6.07655 0
M  V30 1331 N 130.073 -1.45103 0.615059 0
M  V30 1332 C 130.983 -2.34382 -0.101034 0
M  V30 1333 C 131.999 -1.51681 -0.852585 0
M  V30 1334 O 133.175 -1.8446 -0.808484 0
M  V30 1335 C 130.24 -3.29417 -1.08099 0
M  V30 1336 C 129.301 -4.28025 -0.330577 0
M  V30 1337 C 128.534 -5.1852 -1.26385 0
M  V30 1338 O 128.757 -5.12598 -2.50198 0
M  V30 1339 O 127.691 -5.97122 -0.756866 0
M  V30 1340 H 131.517 -2.97033 0.632855 0
M  V30 1341 H 129.102 -1.4461 0.375293 0
M  V30 1342 H 130.984 -3.87958 -1.6452 0
M  V30 1343 H 129.659 -2.69321 -1.79577 0
M  V30 1344 H 128.566 -3.73078 0.276283 0
M  V30 1345 H 129.899 -4.90997 0.343866 0
M  V30 1346 N 131.551 -0.354651 -1.53558 0
M  V30 1347 C 132.967 -0.00315426 -1.596 0
M  V30 1348 C 133.167 1.47741 -1.37021 0
M  V30 1349 O 132.223 2.23759 -1.16996 0
M  V30 1350 C 133.536 -0.44929 -2.97325 0
M  V30 1351 C 135.084 -0.402578 -3.104 0
M  V30 1352 C 135.559 -0.824355 -4.5052 0
M  V30 1353 N 137.05 -0.778979 -4.56603 0
M  V30 1354 C 137.785 -1.07715 -5.63192 0
M  V30 1355 N 137.281 -1.44405 -6.77583 0
M  V30 1356 N 139.074 -1.00066 -5.53121 0
M  V30 1357 H 131.225 -1.31893 -1.66487 0
M  V30 1358 H 133.488 -0.538388 -0.780284 0
M  V30 1359 H 133.194 -1.48202 -3.1895 0
M  V30 1360 H 133.068 0.169772 -3.76818 0
M  V30 1361 H 135.455 0.621004 -2.88492 0
M  V30 1362 H 135.536 -1.05699 -2.32941 0
M  V30 1363 H 135.18 -1.846 -4.73165 0
M  V30 1364 H 135.11 -0.147304 -5.26394 0
M  V30 1365 H 137.601 -0.508528 -3.74463 0
M  V30 1366 H 137.914 -1.65612 -7.54846 0
M  V30 1367 H 136.259 -1.4826 -6.79002 0
M  V30 1368 H 139.45 -0.713293 -4.62633 0
M  V30 1369 H 139.623 -1.23638 -6.36096 0
M  V30 1370 N 133.029 1.57378 -0.0835403 0
M  V30 1371 C 133.959 2.1641 0.87686 0
M  V30 1372 C 134.94 1.09429 1.30228 0
M  V30 1373 O 136.125 1.37516 1.37124 0
M  V30 1374 C 133.255 2.73517 2.14022 0
M  V30 1375 C 132.209 3.85769 1.85381 0
M  V30 1376 C 131.535 4.29529 3.18448 0
M  V30 1377 C 132.835 5.09486 1.14984 0
M  V30 1378 H 134.529 2.96914 0.385059 0
M  V30 1379 H 132.075 1.42823 0.18377 0
M  V30 1380 H 134.028 3.13463 2.81636 0
M  V30 1381 H 132.752 1.90252 2.65465 0
M  V30 1382 H 131.411 3.46345 1.20169 0
M  V30 1383 H 131.059 3.43169 3.67755 0
M  V30 1384 H 130.759 5.05204 3.00071 0
M  V30 1385 H 132.283 4.72099 3.8724 0
M  V30 1386 H 133.697 5.46674 1.72687 0
M  V30 1387 H 132.094 5.90515 1.06826 0
M  V30 1388 H 133.164 4.84724 0.130749 0
M  V30 1389 N 134.507 -0.190092 1.56449 0
M  V30 1390 C 135.417 -1.25591 1.98152 0
M  V30 1391 C 136.433 -1.49519 0.889944 0
M  V30 1392 O 137.609 -1.62036 1.19609 0
M  V30 1393 C 134.674 -2.57916 2.3169 0
M  V30 1394 C 133.735 -2.42015 3.5458 0
M  V30 1395 C 132.968 -3.6803 3.8651 0
M  V30 1396 O 133.191 -4.72413 3.1966 0
M  V30 1397 O 132.125 -3.6326 4.79923 0
M  V30 1398 H 135.951 -0.931988 2.89046 0
M  V30 1399 H 133.536 -0.395488 1.4407 0
M  V30 1400 H 135.418 -3.36008 2.54316 0
M  V30 1401 H 134.093 -2.89925 1.43963 0
M  V30 1402 H 133 -1.62017 3.37196 0
M  V30 1403 H 134.333 -2.14937 4.4279 0
M  V30 1404 N 135.985 -1.50799 -0.457987 0
M  V30 1405 C 136.917 -1.66786 -1.57211 0
M  V30 1406 C 137.93 -0.548962 -1.53265 0
M  V30 1407 O 139.119 -0.8226 -1.58416 0
M  V30 1408 C 136.219 -1.64834 -2.96113 0
M  V30 1409 C 135.392 -2.92971 -3.24787 0
M  V30 1410 C 134.451 -2.83485 -4.43309 0
M  V30 1411 O 133.477 -3.5744 -4.42973 0
M  V30 1412 N 134.679 -1.97929 -5.45714 0
M  V30 1413 H 137.444 -2.62889 -1.43909 0
M  V30 1414 H 135.005 -1.48427 -0.646617 0
M  V30 1415 H 136.997 -1.56084 -3.7339 0
M  V30 1416 H 135.567 -0.764118 -3.03117 0
M  V30 1417 H 134.787 -3.15749 -2.36 0
M  V30 1418 H 136.075 -3.77834 -3.40762 0
M  V30 1419 H 135.473 -1.37182 -5.48815 0
M  V30 1420 H 134.03 -1.95073 -6.21924 0
M  V30 1421 N 137.463 0.71206 -1.40597 0
M  V30 1422 C 138.395 1.83704 -1.37061 0
M  V30 1423 C 139.408 1.60453 -0.275426 0
M  V30 1424 O 140.597 1.70262 -0.53602 0
M  V30 1425 C 137.697 3.20172 -1.11099 0
M  V30 1426 C 136.87 3.7059 -2.3234 0
M  V30 1427 C 135.929 4.85681 -2.02485 0
M  V30 1428 O 134.955 4.9815 -2.75382 0
M  V30 1429 N 136.157 5.71735 -1.00497 0
M  V30 1430 H 138.922 1.87235 -2.34016 0
M  V30 1431 H 136.483 0.893739 -1.34996 0
M  V30 1432 H 138.475 3.94768 -0.891064 0
M  V30 1433 H 137.045 3.11767 -0.227989 0
M  V30 1434 H 136.265 2.87085 -2.7014 0
M  V30 1435 H 137.553 4.01011 -3.13157 0
M  V30 1436 H 136.951 5.64275 -0.401298 0
M  V30 1437 H 135.508 6.463 -0.844942 0
M  V30 1438 N 138.941 1.26152 0.944643 0
M  V30 1439 C 139.889 1.07215 2.06417 0
M  V30 1440 C 140.883 9.2007e-05 1.694 0
M  V30 1441 O 142.089 0.1565 1.79318 0
M  V30 1442 H 138.464 0.329837 0.675805 0
M  V30 1443 H 140.435 2.02099 2.19541 0
M  V30 1444 C 139.184 0.718197 3.40202 0
M  V30 1445 H 138.507 1.53497 3.69159 0
M  V30 1446 H 139.947 0.625459 4.19361 0
M  V30 1447 C 138.406 -0.576435 3.31932 0
M  V30 1448 O 138.936 -1.61574 3.67773 0
M  V30 1449 N 137.142 -0.565781 2.85039 0
M  V30 1450 H 136.689 0.280367 2.5607 0
M  V30 1451 H 136.647 -1.43213 2.79888 0
M  V30 1452 N 140.419 -1.14872 1.07899 0
M  V30 1453 C 141.349 -2.2193 0.725887 0
M  V30 1454 C 142.33 -1.67622 -0.28927 0
M  V30 1455 O 143.515 -1.93533 -0.160787 0
M  V30 1456 C 140.645 -3.47061 0.128856 0
M  V30 1457 C 139.599 -4.14363 1.07178 0
M  V30 1458 C 138.925 -5.33636 0.337229 0
M  V30 1459 C 140.225 -4.63492 2.40775 0
M  V30 1460 H 141.919 -2.51724 1.62097 0
M  V30 1461 H 139.465 -1.20991 0.780838 0
M  V30 1462 H 141.418 -4.21199 -0.130147 0
M  V30 1463 H 140.142 -3.16617 -0.80134 0
M  V30 1464 H 138.801 -3.42173 1.3158 0
M  V30 1465 H 138.449 -4.99449 -0.596606 0
M  V30 1466 H 138.149 -5.79609 0.965788 0
M  V30 1467 H 139.673 -6.10539 0.0861567 0
M  V30 1468 H 141.087 -5.2913 2.20669 0
M  V30 1469 H 139.484 -5.20148 2.99276 0
M  V30 1470 H 140.554 -3.78834 3.02676 0
M  V30 1471 N 141.898 -0.863906 -1.31812 0
M  V30 1472 C 143.145 -0.471836 -1.96926 0
M  V30 1473 C 143.473 0.974578 -1.68322 0
M  V30 1474 O 142.728 1.7003 -0.968933 0
M  V30 1475 C 143.027 -0.668547 -3.51091 0
M  V30 1476 C 142.693 -2.08683 -3.99703 0
M  V30 1477 C 141.355 -2.47471 -4.12688 0
M  V30 1478 C 143.707 -3.01207 -4.25351 0
M  V30 1479 C 141.035 -3.78037 -4.4867 0
M  V30 1480 C 143.387 -4.31282 -4.62794 0
M  V30 1481 C 142.051 -4.69992 -4.73987 0
M  V30 1482 H 141.321 -0.172657 -0.720604 0
M  V30 1483 H 143.968 -1.09573 -1.57054 0
M  V30 1484 H 142.273 0.0385252 -3.91781 0
M  V30 1485 H 143.97 -0.345102 -3.99512 0
M  V30 1486 H 140.56 -1.77566 -3.90087 0
M  V30 1487 H 144.744 -2.72469 -4.14819 0
M  V30 1488 H 140 -4.078 -4.55532 0
M  V30 1489 H 144.174 -5.03031 -4.81594 0
M  V30 1490 H 141.801 -5.71207 -5.01624 0
M  V30 1491 N 143.376 1.44774 -0.622745 0
M  V30 1492 C 144.601 2.06999 -0.128968 0
M  V30 1493 C 145.026 1.4617 1.1839 0
M  V30 1494 O 144.384 0.560007 1.72434 0
M  V30 1495 C 144.432 3.60595 -0.0188351 0
M  V30 1496 O 143.536 3.99398 1.02739 0
M  V30 1497 H 142.877 0.659047 -0.0809544 0
M  V30 1498 H 145.407 1.85784 -0.85705 0
M  V30 1499 H 145.417 4.07627 0.174476 0
M  V30 1500 H 144.092 4.04252 -0.977384 0
M  V30 1501 H 142.669 3.64011 0.809326 0
M  V30 1502 N 144.854 0.36279 1.53368 0
M  V30 1503 C 145.784 -0.476976 2.28576 0
M  V30 1504 C 146.765 -1.08631 1.30894 0
M  V30 1505 O 147.95 -1.10409 1.59761 0
M  V30 1506 C 145.08 -1.61828 3.07293 0
M  V30 1507 C 144.034 -1.13633 4.1264 0
M  V30 1508 C 143.36 -2.36766 4.79423 0
M  V30 1509 C 144.66 -0.223061 5.21823 0
M  V30 1510 H 146.354 0.150474 2.99022 0
M  V30 1511 H 143.9 0.0738103 1.43811 0
M  V30 1512 H 145.853 -2.21237 3.58653 0
M  V30 1513 H 144.577 -2.27292 2.34533 0
M  V30 1514 H 143.236 -0.564945 3.62221 0
M  V30 1515 H 142.884 -3.0068 4.03238 0
M  V30 1516 H 142.584 -2.05192 5.50609 0
M  V30 1517 H 144.108 -2.96865 5.33576 0
M  V30 1518 H 145.522 -0.724545 5.68703 0
M  V30 1519 H 143.919 0.001678 6.001 0
M  V30 1520 H 144.989 0.735553 4.79289 0
M  V30 1521 N 146.332 -1.57332 0.0918853 0
M  V30 1522 C 147.609 -1.85691 -0.614668 0
M  V30 1523 C 147.989 -0.988146 -1.86545 0
M  V30 1524 O 147.337 -0.0597055 -2.28422 0
M  V30 1525 C 147.547 -3.36294 -0.933126 0
M  V30 1526 C 148.895 -4.04275 -1.29796 0
M  V30 1527 O 149.919 -3.41157 -1.02424 0
M  V30 1528 O 148.778 -5.1564 -1.81047 0
M  V30 1529 H 145.872 -0.767802 -0.307261 0
M  V30 1530 H 148.418 -1.69244 0.12434 0
M  V30 1531 H 147.19 -3.91273 -0.0456404 0
M  V30 1532 H 146.813 -3.58076 -1.72822 0
M  V30 1533 N 147.81 0.181792 -1.56548 0
M  V30 1534 C 148.72 1.24538 -1.98815 0
M  V30 1535 C 149.736 1.49045 -0.897861 0
M  V30 1536 O 150.912 1.61399 -1.20467 0
M  V30 1537 C 147.977 2.56683 -2.33055 0
M  V30 1538 C 147.038 2.40131 -3.55859 0
M  V30 1539 C 146.271 3.65975 -3.88456 0
M  V30 1540 O 146.494 4.70711 -3.22161 0
M  V30 1541 O 145.428 3.6071 -4.81842 0
M  V30 1542 H 149.254 0.916647 -2.89536 0
M  V30 1543 H 146.839 0.387842 -1.44278 0
M  V30 1544 H 148.721 3.34655 -2.56094 0
M  V30 1545 H 147.396 2.89157 -1.45498 0
M  V30 1546 H 146.303 1.60226 -3.38051 0
M  V30 1547 H 147.636 2.12585 -4.43924 0
M  V30 1548 N 149.288 1.51039 0.449983 0
M  V30 1549 C 150.251 1.70863 1.5277 0
M  V30 1550 C 151.251 0.578846 1.5002 0
M  V30 1551 O 152.441 0.846213 1.52266 0
M  V30 1552 C 149.573 1.75341 2.9235 0
M  V30 1553 H 150.766 2.67034 1.36502 0
M  V30 1554 H 148.319 1.40838 0.677812 0
M  V30 1555 H 149.054 0.809383 3.14037 0
M  V30 1556 H 148.839 2.57436 2.95752 0
M  V30 1557 H 150.329 1.92559 3.70555 0
M  V30 1558 N 150.766 -0.704594 1.40972 0
M  V30 1559 C 151.699 -1.82861 1.36518 0
M  V30 1560 C 152.677 -1.6091 0.23382 0
M  V30 1561 O 153.861 -1.83778 0.419271 0
M  V30 1562 C 150.988 -3.1939 1.12729 0
M  V30 1563 C 150.034 -3.60148 2.28463 0
M  V30 1564 S 150.867 -3.65994 3.90907 0
M  V30 1565 C 152.023 -5.05264 3.69403 0
M  V30 1566 H 152.256 -1.86361 2.3164 0
M  V30 1567 H 149.789 -0.872439 1.27389 0
M  V30 1568 H 151.747 -3.98211 0.996893 0
M  V30 1569 H 150.408 -3.1351 0.192427 0
M  V30 1570 H 149.601 -4.59309 2.07489 0
M  V30 1571 H 149.203 -2.88612 2.37863 0
M  V30 1572 H 151.495 -5.92504 3.28551 0
M  V30 1573 H 152.438 -5.31278 4.68134 0
M  V30 1574 H 152.846 -4.76377 3.02862 0
M  V30 1575 N 152.244 -1.26651 -0.937939 0
M  V30 1576 C 153.176 -1.04283 -2.04102 0
M  V30 1577 C 154.189 -0.00221014 -1.628 0
M  V30 1578 O 155.378 -0.242645 -1.76843 0
M  V30 1579 C 152.478 -0.557846 -3.34277 0
M  V30 1580 C 151.651 -1.66843 -4.04329 0
M  V30 1581 C 150.71 -1.18095 -5.12777 0
M  V30 1582 O 149.736 -1.87865 -5.37304 0
M  V30 1583 N 150.938 -0.0311006 -5.80492 0
M  V30 1584 H 153.703 -1.9927 -2.23856 0
M  V30 1585 H 151.264 -1.1808 -1.10764 0
M  V30 1586 H 153.256 -0.215836 -4.04124 0
M  V30 1587 H 151.826 0.298523 -3.11171 0
M  V30 1588 H 151.046 -2.18123 -3.28353 0
M  V30 1589 H 152.334 -2.41408 -4.47883 0
M  V30 1590 H 151.732 0.551486 -5.63005 0
M  V30 1591 H 150.289 0.251809 -6.51313 0
M  V30 1592 N 153.722 1.14298 -1.08507 0
M  V30 1593 C 154.654 2.1907 -0.673859 0
M  V30 1594 C 155.667 1.60381 0.279577 0
M  V30 1595 O 156.856 1.78374 0.0670754 0
M  V30 1596 C 153.956 3.38888 0.0290979 0
M  V30 1597 C 153.129 4.27103 -0.943494 0
M  V30 1598 C 152.188 5.25477 -0.275676 0
M  V30 1599 O 151.214 5.61709 -0.920401 0
M  V30 1600 N 152.416 5.7227 0.974013 0
M  V30 1601 H 155.181 2.54965 -1.57521 0
M  V30 1602 H 152.742 1.29528 -0.971287 0
M  V30 1603 H 154.734 4.01761 0.48683 0
M  V30 1604 H 153.304 3.01309 0.832555 0
M  V30 1605 H 152.524 3.61149 -1.58004 0
M  V30 1606 H 153.812 4.82905 -1.60251 0
M  V30 1607 H 153.21 5.44965 1.51755 0
M  V30 1608 H 151.767 6.37127 1.37522 0
M  V30 1609 N 155.201 0.870884 1.31352 0
M  V30 1610 C 156.164 0.332243 2.26779 0
M  V30 1611 C 157.164 -0.517302 1.52252 0
M  V30 1612 O 158.354 -0.326477 1.71113 0
M  V30 1613 C 155.486 -0.528066 3.36785 0
M  V30 1614 H 156.679 1.17469 2.75937 0
M  V30 1615 H 154.232 0.64655 1.423 0
M  V30 1616 H 154.967 -1.39167 2.92922 0
M  V30 1617 H 154.752 0.0802582 3.92018 0
M  V30 1618 H 156.242 -0.897179 4.07849 0
M  V30 1619 N 156.679 -1.44442 0.630414 0
M  V30 1620 C 157.907 -2.06414 0.141671 0
M  V30 1621 C 158.322 -1.47105 -1.18345 0
M  V30 1622 O 157.679 -0.593662 -1.72574 0
M  V30 1623 C 157.73 -3.61494 0.0199784 0
M  V30 1624 O 157.451 -4.18594 1.29269 0
M  V30 1625 C 158.952 -4.40499 -0.497544 0
M  V30 1626 H 156.172 -0.666292 0.0793452 0
M  V30 1627 H 158.716 -1.85323 0.864614 0
M  V30 1628 H 156.871 -3.8185 -0.653402 0
M  V30 1629 H 157.285 -5.12026 1.13707 0
M  V30 1630 H 158.759 -5.49433 -0.531708 0
M  V30 1631 H 159.236 -4.11895 -1.52445 0
M  V30 1632 H 159.842 -4.25061 0.142562 0
M  V30 1633 N 158.157 -0.370918 -1.53173 0
M  V30 1634 C 159.405 0.216673 -2.00935 0
M  V30 1635 C 159.726 1.48845 -1.25977 0
M  V30 1636 O 158.996 1.92286 -0.374551 0
M  V30 1637 H 157.576 0.0830565 -0.742368 0
M  V30 1638 H 160.238 -0.49838 -1.8842 0
M  V30 1639 H 159.334 0.439893 -3.08984 0
M  V30 1640 N 159.635 1.57281 -0.100228 0
M  V30 1641 C 160.881 1.94826 0.563101 0
M  V30 1642 C 161.214 0.982475 1.67514 0
M  V30 1643 O 160.489 0.0164069 1.94493 0
M  V30 1644 C 160.772 3.42453 1.11346 0
M  V30 1645 C 160.625 4.498 0.00612081 0
M  V30 1646 C 161.944 3.91506 2.01024 0
M  V30 1647 H 159.063 0.708428 0.203221 0
M  V30 1648 H 161.705 1.8922 -0.171979 0
M  V30 1649 H 159.855 3.47361 1.7399 0
M  V30 1650 H 161.527 4.57 -0.628357 0
M  V30 1651 H 159.77 4.28756 -0.659581 0
M  V30 1652 H 160.441 5.50306 0.432109 0
M  V30 1653 H 162.917 3.88784 1.48278 0
M  V30 1654 H 161.793 4.95358 2.36457 0
M  V30 1655 H 162.054 3.31099 2.92961 0
M  V30 1656 N 161.113 -0.173488 1.56642 0
M  V30 1657 C 162.341 -0.906095 1.86004 0
M  V30 1658 C 162.756 -1.75921 0.685355 0
M  V30 1659 O 162.113 -1.79198 -0.345578 0
M  V30 1660 C 162.164 -1.78462 3.14378 0
M  V30 1661 O 161.885 -0.965914 4.27319 0
M  V30 1662 C 163.386 -2.62707 3.57071 0
M  V30 1663 H 160.606 -0.263341 0.617165 0
M  V30 1664 H 163.15 -0.174236 2.03756 0
M  V30 1665 H 161.305 -2.46984 2.98459 0
M  V30 1666 H 161.719 -1.56655 5.00559 0
M  V30 1667 H 163.193 -3.19969 4.49804 0
M  V30 1668 H 163.67 -3.37472 2.81086 0
M  V30 1669 H 164.276 -1.99521 3.75595 0
M  V30 1670 N 162.591 -1.51276 -0.441967 0
M  V30 1671 C 163.837 -1.63958 -1.19355 0
M  V30 1672 C 164.17 -0.352543 -1.90973 0
M  V30 1673 O 163.445 0.647627 -1.83401 0
M  V30 1674 C 163.728 -2.83979 -2.21422 0
M  V30 1675 C 163.581 -4.22646 -1.53918 0
M  V30 1676 C 164.9 -2.99521 -3.22451 0
M  V30 1677 H 162.019 -0.596709 -0.432559 0
M  V30 1678 H 164.661 -1.83748 -0.483398 0
M  V30 1679 H 162.811 -2.67237 -2.81987 0
M  V30 1680 H 164.483 -4.51045 -0.967256 0
M  V30 1681 H 162.726 -4.25558 -0.841615 0
M  V30 1682 H 163.397 -5.02609 -2.28229 0
M  V30 1683 H 165.873 -3.14944 -2.71937 0
M  V30 1684 H 164.749 -3.85072 -3.91166 0
M  V30 1685 H 165.01 -2.11391 -3.88287 0
M  V30 1686 N 164.069 0.697108 -1.41344 0
M  V30 1687 C 165.001 1.8224 -1.39001 0
M  V30 1688 C 166.014 1.60152 -0.292428 0
M  V30 1689 O 167.203 1.69684 -0.554048 0
M  V30 1690 C 164.303 3.18976 -1.14489 0
M  V30 1691 C 163.476 3.68105 -2.36258 0
M  V30 1692 C 162.535 4.83506 -2.07625 0
M  V30 1693 O 161.561 4.95201 -2.8065 0
M  V30 1694 N 162.763 5.70637 -1.06555 0
M  V30 1695 H 165.528 1.84742 -2.35988 0
M  V30 1696 H 163.089 0.87937 -1.35936 0
M  V30 1697 H 165.081 3.93801 -0.932885 0
M  V30 1698 H 163.651 3.11508 -0.261043 0
M  V30 1699 H 162.871 2.84204 -2.7317 0
M  V30 1700 H 164.159 3.97667 -3.17393 0
M  V30 1701 H 163.557 5.63817 -0.461125 0
M  V30 1702 H 162.114 6.45368 -0.913444 0
M  V30 1703 N 165.547 1.27147 0.931209 0
M  V30 1704 C 166.958 1.12044 1.49342 0
M  V30 1705 C 167.309 -0.295795 1.93957 0
M  V30 1706 O 166.434 -1.18835 1.80852 0
M  V30 1707 C 167.029 2.02781 2.71414 0
M  V30 1708 C 165.588 1.91794 3.2387 0
M  V30 1709 C 164.735 1.95543 1.96617 0
M  V30 1710 H 167.686 1.40091 0.745672 0
M  V30 1711 H 167.707 1.58156 3.46074 0
M  V30 1712 H 167.219 3.05848 2.38911 0
M  V30 1713 H 165.32 0.916992 3.6114 0
M  V30 1714 H 165.433 2.77852 3.90302 0
M  V30 1715 H 163.797 1.39722 2.12955 0
M  V30 1716 H 164.58 3.00259 1.66432 0
M  V30 1717 N 167.025 -1.13721 1.09112 0
M  V30 1718 C 168.272 -1.84924 0.825192 0
M  V30 1719 C 168.6 -1.83347 -0.649151 0
M  V30 1720 O 167.855 -1.26449 -1.49362 0
M  V30 1721 C 168.154 -3.32861 1.30146 0
M  V30 1722 C 167.82 -3.54621 2.78486 0
M  V30 1723 C 166.482 -3.60268 3.18999 0
M  V30 1724 C 168.834 -3.62855 3.74146 0
M  V30 1725 C 166.162 -3.71679 4.53951 0
M  V30 1726 C 168.514 -3.75793 5.08883 0
M  V30 1727 C 167.178 -3.79692 5.4899 0
M  V30 1728 H 166.448 -0.676684 0.301959 0
M  V30 1729 H 169.095 -1.3428 1.36533 0
M  V30 1730 H 167.4 -3.85835 0.681064 0
M  V30 1731 H 169.097 -3.86395 1.07236 0
M  V30 1732 H 165.687 -3.50879 2.46134 0
M  V30 1733 H 169.871 -3.57775 3.43963 0
M  V30 1734 H 165.127 -3.72963 4.84467 0
M  V30 1735 H 169.301 -3.81107 5.82864 0
M  V30 1736 H 166.928 -3.88287 6.53558 0
M  V30 1737 N 168.503 -0.877838 -1.30888 0
M  V30 1738 C 169.435 -0.296607 -2.27273 0
M  V30 1739 C 170.448 0.544799 -1.53414 0
M  V30 1740 O 171.637 0.365511 -1.74718 0
M  V30 1741 C 168.737 0.597481 -3.33592 0
M  V30 1742 C 167.91 -0.213251 -4.3688 0
M  V30 1743 C 166.969 0.610208 -5.2265 0
M  V30 1744 O 165.995 0.035441 -5.69189 0
M  V30 1745 N 167.197 1.92071 -5.47804 0
M  V30 1746 H 169.962 -1.12492 -2.77787 0
M  V30 1747 H 167.523 -0.740105 -1.43993 0
M  V30 1748 H 169.515 1.15425 -3.87891 0
M  V30 1749 H 168.085 1.32647 -2.83061 0
M  V30 1750 H 167.305 -0.951466 -3.82545 0
M  V30 1751 H 168.593 -0.769262 -5.02951 0
M  V30 1752 H 167.991 2.4107 -5.11763 0
M  V30 1753 H 166.548 2.42508 -6.05007 0
M  V30 1754 N 169.982 1.44106 -0.638065 0
M  V30 1755 C 170.912 2.33448 0.0494287 0
M  V30 1756 C 171.893 1.48606 0.827672 0
M  V30 1757 O 173.078 1.77308 0.792173 0
M  V30 1758 C 170.208 3.31771 1.02691 0
M  V30 1759 C 169.162 4.26485 0.359823 0
M  V30 1760 C 168.488 5.14729 1.44769 0
M  V30 1761 C 169.788 5.17056 -0.738296 0
M  V30 1762 H 171.482 2.91183 -0.696636 0
M  V30 1763 H 169.028 1.40014 -0.336456 0
M  V30 1764 H 170.981 3.93161 1.51666 0
M  V30 1765 H 169.705 2.7226 1.80395 0
M  V30 1766 H 168.364 3.66437 -0.10934 0
M  V30 1767 H 168.012 4.51566 2.21578 0
M  V30 1768 H 167.712 5.78913 1.00668 0
M  V30 1769 H 169.236 5.78991 1.93911 0
M  V30 1770 H 170.65 5.72342 -0.331354 0
M  V30 1771 H 169.047 5.89879 -1.10286 0
M  V30 1772 H 170.117 4.57652 -1.60258 0
M  V30 1773 N 171.46 0.379036 1.52974 0
M  V30 1774 C 172.39 -0.452706 2.29069 0
M  V30 1775 C 173.371 -1.07237 1.32039 0
M  V30 1776 O 174.556 -1.08708 1.60923 0
M  V30 1777 C 171.686 -1.5856 3.08992 0
M  V30 1778 C 170.64 -1.0925 4.13822 0
M  V30 1779 C 169.966 -2.31668 4.81907 0
M  V30 1780 C 171.266 -0.167702 5.22031 0
M  V30 1781 H 172.96 0.182181 2.98845 0
M  V30 1782 H 170.506 0.0890592 1.43724 0
M  V30 1783 H 172.459 -2.1742 3.6098 0
M  V30 1784 H 171.183 -2.24792 2.36931 0
M  V30 1785 H 169.842 -0.526494 3.628 0
M  V30 1786 H 169.49 -2.96386 4.06404 0
M  V30 1787 H 169.19 -1.9934 5.52754 0
M  V30 1788 H 170.714 -2.91189 5.36695 0
M  V30 1789 H 172.128 -0.664186 5.6944 0
M  V30 1790 H 170.525 0.0653265 6.00064 0
M  V30 1791 H 171.595 0.786347 4.78482 0
M  V30 1792 N 172.938 -1.57226 0.108567 0
M  V30 1793 C 174.166 -1.99179 -0.559954 0
M  V30 1794 C 174.581 -0.988022 -1.60884 0
M  V30 1795 O 173.938 0.0205512 -1.82488 0
M  V30 1796 C 173.989 -3.41159 -1.19552 0
M  V30 1797 O 173.71 -4.37694 -0.188577 0
M  V30 1798 C 175.211 -3.98188 -1.94837 0
M  V30 1799 H 172.431 -0.654228 -0.149088 0
M  V30 1800 H 174.975 -2.03598 0.19183 0
M  V30 1801 H 173.13 -3.37711 -1.89815 0
M  V30 1802 H 173.544 -5.20469 -0.649014 0
M  V30 1803 H 175.018 -4.99644 -2.34648 0
M  V30 1804 H 175.495 -3.3675 -2.81951 0
M  V30 1805 H 176.101 -4.0515 -1.2936 0
M  V30 1806 N 174.416 0.165178 -1.56732 0
M  V30 1807 C 175.644 0.896218 -1.86482 0
M  V30 1808 C 176.059 1.75555 -0.694675 0
M  V30 1809 O 175.416 1.79379 0.33607 0
M  V30 1810 C 175.467 1.76792 -3.1532 0
M  V30 1811 O 175.188 0.943239 -4.27825 0
M  V30 1812 C 176.689 2.6081 -3.58459 0
M  V30 1813 H 173.909 0.260064 -0.618553 0
M  V30 1814 H 176.453 0.163428 -2.03846 0
M  V30 1815 H 174.608 2.45398 -2.99764 0
M  V30 1816 H 175.022 1.53998 -5.01383 0
M  V30 1817 H 176.496 3.17579 -4.51495 0
M  V30 1818 H 176.973 3.35977 -2.82872 0
M  V30 1819 H 177.579 1.97526 -3.76648 0
M  V30 1820 N 175.894 1.51508 0.433938 0
M  V30 1821 C 176.857 1.72473 1.50949 0
M  V30 1822 C 177.857 0.594725 1.49398 0
M  V30 1823 O 179.047 0.862315 1.5136 0
M  V30 1824 C 176.179 1.78431 2.90474 0
M  V30 1825 H 177.372 2.68467 1.33662 0
M  V30 1826 H 174.925 1.41549 0.662836 0
M  V30 1827 H 175.66 0.842645 3.13161 0
M  V30 1828 H 175.445 2.60558 2.93005 0
M  V30 1829 H 176.935 1.96479 3.68491 0
M  V30 1830 N 177.372 -0.689602 1.41712 0
M  V30 1831 C 178.602 -1.47613 1.44548 0
M  V30 1832 C 179.01 -1.89132 0.0509034 0
M  V30 1833 O 178.353 -1.57741 -0.94146 0
M  V30 1834 C 178.415 -2.76596 2.2964 0
M  V30 1835 C 178.079 -2.57245 3.77722 0
M  V30 1836 C 179.076 -2.22804 4.69739 0
M  V30 1837 C 176.761 -2.727 4.2183 0
M  V30 1838 C 178.755 -2.04064 6.03851 0
M  V30 1839 C 176.442 -2.53576 5.56006 0
M  V30 1840 C 177.44 -2.1931 6.46832 0
M  V30 1841 O 177.128 -2.00359 7.78532 0
M  V30 1842 H 176.86 -0.461227 0.494212 0
M  V30 1843 H 179.414 -0.856045 1.86711 0
M  V30 1844 H 177.644 -3.41033 1.82301 0
M  V30 1845 H 179.333 -3.38424 2.24107 0
M  V30 1846 H 180.099 -2.10473 4.36951 0
M  V30 1847 H 175.978 -2.98353 3.51435 0
M  V30 1848 H 179.522 -1.77241 6.74708 0
M  V30 1849 H 175.419 -2.65499 5.88371 0
M  V30 1850 H 176.187 -2.15075 7.89737 0
M  V30 1851 N 178.85 -1.27639 -0.924453 0
M  V30 1852 C 180.08 -1.16819 -1.70402 0
M  V30 1853 C 180.488 0.277191 -1.87158 0
M  V30 1854 O 179.831 1.20025 -1.39067 0
M  V30 1855 C 179.893 -1.78305 -3.12166 0
M  V30 1856 C 179.557 -3.27502 -3.18734 0
M  V30 1857 C 180.554 -4.2409 -3.00738 0
M  V30 1858 C 178.239 -3.68269 -3.4159 0
M  V30 1859 C 180.233 -5.59422 -3.05492 0
M  V30 1860 C 177.92 -5.0373 -3.45977 0
M  V30 1861 C 178.918 -5.99116 -3.27946 0
M  V30 1862 O 178.606 -7.32108 -3.32074 0
M  V30 1863 H 178.338 -0.406931 -0.539799 0
M  V30 1864 H 180.892 -1.69078 -1.16626 0
M  V30 1865 H 179.122 -1.20528 -3.67437 0
M  V30 1866 H 180.811 -1.62154 -3.72103 0
M  V30 1867 H 181.577 -3.93931 -2.82919 0
M  V30 1868 H 177.456 -2.94496 -3.54673 0
M  V30 1869 H 181 -6.33852 -2.91337 0
M  V30 1870 H 176.897 -5.33543 -3.63321 0
M  V30 1871 H 177.665 -7.40598 -3.48507 0
M  V30 1872 N 180.328 1.1314 -1.09713 0
M  V30 1873 C 181.574 1.84757 -0.836224 0
M  V30 1874 C 181.907 1.8347 0.636598 0
M  V30 1875 O 181.182 1.27491 1.46889 0
M  V30 1876 C 181.465 3.32782 -1.37578 0
M  V30 1877 C 181.318 3.42567 -2.91493 0
M  V30 1878 C 182.637 4.28307 -1.01198 0
M  V30 1879 H 179.756 0.67082 -0.305236 0
M  V30 1880 H 182.398 1.3278 -1.35903 0
M  V30 1881 H 180.548 3.77177 -0.931097 0
M  V30 1882 H 182.22 3.06862 -3.44432 0
M  V30 1883 H 180.463 2.83349 -3.28475 0
M  V30 1884 H 181.134 4.46674 -3.24324 0
M  V30 1885 H 183.61 3.91999 -1.39556 0
M  V30 1886 H 182.486 5.30307 -1.41653 0
M  V30 1887 H 182.747 4.42029 0.0794833 0
M  V30 1888 N 181.806 0.884767 1.30421 0
M  V30 1889 C 183.222 0.57874 1.48737 0
M  V30 1890 C 183.422 -0.883567 1.81095 0
M  V30 1891 O 182.478 -1.6648 1.89844 0
M  V30 1892 C 183.791 1.49171 2.61091 0
M  V30 1893 C 185.339 1.49532 2.74971 0
M  V30 1894 C 185.814 2.39421 3.90438 0
M  V30 1895 N 187.305 2.37383 3.97748 0
M  V30 1896 C 188.04 3.03647 4.86401 0
M  V30 1897 N 187.536 3.79136 5.79852 0
M  V30 1898 N 189.329 2.9288 4.79768 0
M  V30 1899 H 181.48 1.83075 1.0769 0
M  V30 1900 H 183.743 0.783637 0.533495 0
M  V30 1901 H 183.449 2.53291 2.44001 0
M  V30 1902 H 183.323 1.20113 3.57565 0
M  V30 1903 H 185.71 0.46163 2.91467 0
M  V30 1904 H 185.791 1.8262 1.79119 0
M  V30 1905 H 185.435 3.42874 3.74699 0
M  V30 1906 H 185.365 2.03649 4.85628 0
M  V30 1907 H 187.856 1.82525 3.30897 0
M  V30 1908 H 188.169 4.26789 6.4426 0
M  V30 1909 H 186.514 3.83243 5.79784 0
M  V30 1910 H 189.705 2.33433 4.05742 0
M  V30 1911 H 189.878 3.448 5.4865 0
M  V30 1912 N 183.284 -1.43765 0.645699 0
M  V30 1913 C 184.532 -2.01499 0.155731 0
M  V30 1914 C 184.853 -1.51151 -1.232 0
M  V30 1915 O 184.123 -0.721044 -1.82148 0
M  V30 1916 H 182.703 -0.745003 0.0545817 0
M  V30 1917 H 185.365 -1.76075 0.835677 0
M  V30 1918 H 184.461 -3.1181 0.134577 0
M  V30 1919 N 184.763 -0.387143 -1.52771 0
M  V30 1920 C 186.01 0.195735 -2.01552 0
M  V30 1921 C 186.338 1.46995 -1.27369 0
M  V30 1922 O 185.593 1.92325 -0.361879 0
M  V30 1923 C 185.892 0.512209 -3.53711 0
M  V30 1924 C 185.558 -0.670202 -4.45891 0
M  V30 1925 C 184.22 -0.994586 -4.70809 0
M  V30 1926 C 186.572 -1.46134 -5.00294 0
M  V30 1927 C 183.9 -2.11169 -5.4738 0
M  V30 1928 C 186.252 -2.56903 -5.78086 0
M  V30 1929 C 184.916 -2.89852 -6.01284 0
M  V30 1930 H 184.186 0.0716246 -0.73753 0
M  V30 1931 H 186.833 -0.524046 -1.8419 0
M  V30 1932 H 185.138 1.31329 -3.69134 0
M  V30 1933 H 186.835 0.975804 -3.88946 0
M  V30 1934 H 183.425 -0.407366 -4.2666 0
M  V30 1935 H 187.609 -1.22397 -4.80971 0
M  V30 1936 H 182.865 -2.3707 -5.63567 0
M  V30 1937 H 187.039 -3.18608 -6.19243 0
M  V30 1938 H 184.666 -3.76533 -6.60399 0
M  V30 1939 N 186.241 1.57166 -0.116904 0
M  V30 1940 C 187.188 2.15202 0.83408 0
M  V30 1941 C 188.158 1.07644 1.26499 0
M  V30 1942 O 189.343 1.35541 1.34288 0
M  V30 1943 C 186.483 2.75405 2.07957 0
M  V30 1944 C 185.596 3.97264 1.69721 0
M  V30 1945 C 184.731 4.45561 2.89221 0
M  V30 1946 C 183.77 5.59956 2.47215 0
M  V30 1947 N 182.907 6.03006 3.59622 0
M  V30 1948 H 187.747 2.96141 0.332335 0
M  V30 1949 H 185.284 1.46309 0.152349 0
M  V30 1950 H 187.242 3.08439 2.80929 0
M  V30 1951 H 185.872 1.97159 2.55594 0
M  V30 1952 H 184.924 3.70404 0.866316 0
M  V30 1953 H 186.236 4.80226 1.34849 0
M  V30 1954 H 185.39 4.80493 3.7042 0
M  V30 1955 H 184.129 3.61544 3.27318 0
M  V30 1956 H 183.134 5.2463 1.64448 0
M  V30 1957 H 184.359 6.45738 2.10238 0
M  V30 1958 H 182.305 5.21931 3.97396 0
M  V30 1959 H 182.222 6.80819 3.28667 0
M  V30 1960 H 183.49 6.42576 4.41267 0
M  V30 1961 N 187.719 -0.156864 1.56817 0
M  V30 1962 C 188.965 -0.872416 1.83076 0
M  V30 1963 C 189.298 -1.81261 0.697001 0
M  V30 1964 O 188.573 -1.92171 -0.30008 0
M  V30 1965 C 188.856 -1.65551 3.19789 0
M  V30 1966 C 188.709 -0.737467 4.43713 0
M  V30 1967 C 190.028 -2.62012 3.53606 0
M  V30 1968 H 187.147 -0.315715 0.665953 0
M  V30 1969 H 189.789 -0.138004 1.89498 0
M  V30 1970 H 187.939 -2.28159 3.14445 0
M  V30 1971 H 189.611 -0.123143 4.61136 0
M  V30 1972 H 187.854 -0.0464067 4.33775 0
M  V30 1973 H 188.525 -1.32122 5.35955 0
M  V30 1974 H 191.001 -2.09525 3.59497 0
M  V30 1975 H 189.877 -3.13861 4.50314 0
M  V30 1976 H 190.138 -3.42902 2.79053 0
M  V30 1977 N 189.197 -1.51736 -0.425897 0
M  V30 1978 C 190.474 -1.55519 -1.1863 0
M  V30 1979 C 190.854 -0.326219 -2.08564 0
M  V30 1980 O 190.202 0.688012 -2.17896 0
M  V30 1981 C 190.412 -2.87521 -1.9782 0
M  V30 1982 C 191.76 -3.39899 -2.54468 0
M  V30 1983 O 192.784 -2.89148 -2.08019 0
M  V30 1984 O 191.643 -4.2848 -3.39215 0
M  V30 1985 H 188.737 -0.625739 -0.540721 0
M  V30 1986 H 191.283 -1.64055 -0.434038 0
M  V30 1987 H 190.055 -3.68422 -1.31836 0
M  V30 1988 H 189.678 -2.822 -2.80088 0
M  V30 1989 N 190.675 0.682077 -1.42076 0
M  V30 1990 C 191.9 1.47558 -1.45744 0
M  V30 1991 C 192.325 1.87977 -0.0680981 0
M  V30 1992 O 191.683 1.55522 0.9318 0
M  V30 1993 C 191.731 2.70575 -2.38373 0
M  V30 1994 O 190.835 3.68573 -1.85007 0
M  V30 1995 H 190.176 0.443585 -0.494093 0
M  V30 1996 H 192.706 0.837238 -1.86686 0
M  V30 1997 H 192.716 3.18729 -2.54707 0
M  V30 1998 H 191.391 2.40495 -3.39315 0
M  V30 1999 H 189.968 3.2757 -1.78192 0
M  V30 2000 N 192.153 1.28127 0.917671 0
M  V30 2001 C 193.4 1.15052 1.66641 0
M  V30 2002 C 193.728 -0.301677 1.92146 0
M  V30 2003 O 192.983 -1.23622 1.51711 0
M  V30 2004 C 193.282 1.89018 3.03327 0
M  V30 2005 C 192.948 3.38832 2.97496 0
M  V30 2006 C 191.61 3.79693 2.95613 0
M  V30 2007 C 193.962 4.34378 2.88036 0
M  V30 2008 C 191.29 5.14447 2.82066 0
M  V30 2009 C 193.642 5.69201 2.7603 0
M  V30 2010 C 192.306 6.09343 2.72502 0
M  V30 2011 H 191.576 0.421006 0.609783 0
M  V30 2012 H 194.223 1.58855 1.06945 0
M  V30 2013 H 192.528 1.37752 3.66785 0
M  V30 2014 H 194.225 1.76321 3.60156 0
M  V30 2015 H 190.815 3.06342 2.99754 0
M  V30 2016 H 194.999 4.03775 2.88581 0
M  V30 2017 H 190.255 5.44681 2.77728 0
M  V30 2018 H 194.429 6.42901 2.67678 0
M  V30 2019 H 192.056 7.13712 2.61762 0
M  V30 2020 N 193.631 -1.12557 1.10312 0
M  V30 2021 C 194.541 -2.21841 0.763142 0
M  V30 2022 C 195.557 -1.72354 -0.238801 0
M  V30 2023 O 196.733 -2.01249 -0.0778746 0
M  V30 2024 C 193.798 -3.46131 0.198632 0
M  V30 2025 C 192.859 -4.10464 1.25769 0
M  V30 2026 C 192.092 -5.28821 0.72002 0
M  V30 2027 O 192.315 -5.6859 -0.453993 0
M  V30 2028 O 191.249 -5.83437 1.47935 0
M  V30 2029 H 195.075 -2.53312 1.67532 0
M  V30 2030 H 192.66 -1.20867 0.878157 0
M  V30 2031 H 194.542 -4.2125 -0.112401 0
M  V30 2032 H 193.217 -3.16338 -0.686419 0
M  V30 2033 H 192.124 -3.3713 1.62156 0
M  V30 2034 H 193.457 -4.44408 2.11571 0
M  V30 2035 N 195.109 -0.891671 -1.2995 0
M  V30 2036 C 196.039 -0.379797 -2.30391 0
M  V30 2037 C 197.02 0.540919 -1.6127 0
M  V30 2038 O 198.205 0.453352 -1.88834 0
M  V30 2039 C 195.335 0.400654 -3.44981 0
M  V30 2040 C 194.289 -0.428905 -4.25846 0
M  V30 2041 C 193.615 0.478557 -5.32554 0
M  V30 2042 C 194.915 -1.67458 -4.94727 0
M  V30 2043 H 196.609 -1.21914 -2.73454 0
M  V30 2044 H 194.155 -0.587675 -1.31462 0
M  V30 2045 H 196.108 0.769434 -4.14316 0
M  V30 2046 H 194.832 1.27371 -3.0074 0
M  V30 2047 H 193.491 -0.779911 -3.58208 0
M  V30 2048 H 193.139 1.34951 -4.84559 0
M  V30 2049 H 192.839 -0.0727433 -5.87555 0
M  V30 2050 H 194.363 0.843705 -6.04743 0
M  V30 2051 H 195.777 -1.376 -5.56542 0
M  V30 2052 H 194.174 -2.16659 -5.59624 0
M  V30 2053 H 195.244 -2.41518 -4.20473 0
M  V30 2054 N 196.587 1.43421 -0.653314 0
M  V30 2055 C 197.864 1.95361 -0.0966581 0
M  V30 2056 C 198.244 1.59461 1.38331 0
M  V30 2057 O 197.592 0.879777 2.10884 0
M  V30 2058 C 197.802 3.47311 -0.342988 0
M  V30 2059 C 199.15 4.23875 -0.24798 0
M  V30 2060 O 200.174 3.55133 -0.275553 0
M  V30 2061 O 199.033 5.4623 -0.171771 0
M  V30 2062 H 196.127 0.826945 0.00956291 0
M  V30 2063 H 198.673 1.5336 -0.726558 0
M  V30 2064 H 197.445 3.66569 -1.36906 0
M  V30 2065 H 197.068 3.9631 0.319975 0
M  V30 2066 N 198.065 0.39524 1.52563 0
M  V30 2067 C 199.313 -0.184678 2.01254 0
M  V30 2068 C 199.634 -1.46822 1.28329 0
M  V30 2069 O 198.904 -1.91666 0.405094 0
M  V30 2070 H 197.484 -0.0712355 0.743596 0
M  V30 2071 H 200.146 0.528293 1.87603 0
M  V30 2072 H 199.242 -0.390681 3.09645 0
M  V30 2073 N 199.544 -1.57102 0.125237 0
M  V30 2074 C 200.79 -1.95697 -0.532035 0
M  V30 2075 C 201.123 -1.009 -1.6593 0
M  V30 2076 O 200.398 -0.047347 -1.94442 0
M  V30 2077 C 200.681 -3.44181 -1.05884 0
M  V30 2078 C 200.534 -4.49752 0.0654392 0
M  V30 2079 C 201.853 -3.94655 -1.9477 0
M  V30 2080 H 198.972 -0.711571 -0.191925 0
M  V30 2081 H 201.614 -1.88923 0.20206 0
M  V30 2082 H 199.764 -3.50085 -1.68442 0
M  V30 2083 H 201.436 -4.55943 0.700982 0
M  V30 2084 H 199.679 -4.27653 0.727709 0
M  V30 2085 H 200.35 -5.50924 -0.344505 0
M  V30 2086 H 202.826 -3.91094 -1.42074 0
M  V30 2087 H 201.702 -4.99057 -2.28546 0
M  V30 2088 H 201.963 -3.35718 -2.87656 0
M  V30 2089 N 201.022 0.148545 -1.56898 0
M  V30 2090 C 202.433 0.708766 -1.72723 0
M  V30 2091 C 202.784 1.81734 -0.739395 0
M  V30 2092 O 201.909 2.16194 0.0943169 0
M  V30 2093 C 202.504 1.29245 -3.13179 0
M  V30 2094 C 201.063 1.79925 -3.30611 0
M  V30 2095 C 200.21 0.687111 -2.68652 0
M  V30 2096 H 203.161 -0.0771063 -1.58513 0
M  V30 2097 H 203.182 2.16224 -3.13093 0
M  V30 2098 H 202.694 0.485382 -3.85053 0
M  V30 2099 H 200.795 2.63203 -2.63732 0
M  V30 2100 H 200.908 1.92903 -4.38549 0
M  V30 2101 H 199.272 1.11335 -2.29078 0
M  V30 2102 H 200.055 -0.108483 -3.43129 0
M  V30 2103 N 202.5 1.5196 0.417844 0
M  V30 2104 C 203.463 1.74065 1.49111 0
M  V30 2105 C 204.463 0.610537 1.48758 0
M  V30 2106 O 205.653 0.87832 1.50437 0
M  V30 2107 C 202.785 1.81502 2.88565 0
M  V30 2108 H 203.978 2.69869 1.30807 0
M  V30 2109 H 201.531 1.42244 0.647785 0
M  V30 2110 H 202.266 0.875813 3.1225 0
M  V30 2111 H 202.051 2.63651 2.90225 0
M  V30 2112 H 203.541 2.00376 3.66387 0
M  V30 2113 N 203.978 -0.674533 1.42435 0
M  V30 2114 C 204.908 -1.80009 1.48724 0
M  V30 2115 C 205.889 -1.6659 0.343793 0
M  V30 2116 O 207.074 -1.86007 0.558137 0
M  V30 2117 C 204.204 -3.18306 1.38919 0
M  V30 2118 C 203.158 -3.46461 2.51294 0
M  V30 2119 C 202.484 -4.84335 2.26547 0
M  V30 2120 C 203.784 -3.43328 3.93603 0
M  V30 2121 H 205.478 -1.75004 2.42928 0
M  V30 2122 H 203.024 -0.840533 1.16923 0
M  V30 2123 H 204.977 -3.9678 1.41927 0
M  V30 2124 H 203.701 -3.2399 0.412094 0
M  V30 2125 H 202.36 -2.70348 2.47604 0
M  V30 2126 H 202.008 -4.86669 1.2713 0
M  V30 2127 H 201.708 -5.04136 3.01861 0
M  V30 2128 H 203.232 -5.65094 2.31304 0
M  V30 2129 H 204.646 -4.11772 3.98894 0
M  V30 2130 H 203.043 -3.74664 4.68771 0
M  V30 2131 H 204.113 -2.41897 4.20255 0
M  V30 2132 N 205.456 -1.28612 -0.910864 0
M  V30 2133 C 206.386 -1.15326 -2.03032 0
M  V30 2134 C 207.367 -0.0502924 -1.70026 0
M  V30 2135 O 208.552 -0.227797 -1.92859 0
M  V30 2136 C 205.682 -0.817343 -3.37545 0
M  V30 2137 C 204.636 -1.8754 -3.84724 0
M  V30 2138 C 203.962 -1.39305 -5.16235 0
M  V30 2139 C 205.262 -3.28244 -4.06267 0
M  V30 2140 H 206.956 -2.08975 -2.14406 0
M  V30 2141 H 204.502 -1.00612 -1.03021 0
M  V30 2142 H 206.455 -0.711151 -4.15356 0
M  V30 2143 H 205.179 0.154846 -3.26233 0
M  V30 2144 H 203.838 -1.97079 -3.09121 0
M  V30 2145 H 203.486 -0.409846 -5.01328 0
M  V30 2146 H 203.186 -2.10057 -5.48771 0
M  V30 2147 H 204.71 -1.30014 -5.96598 0
M  V30 2148 H 206.124 -3.21611 -4.74594 0
M  V30 2149 H 204.521 -3.96855 -4.5014 0
M  V30 2150 H 205.591 -3.72048 -3.10979 0
M  V30 2151 N 206.934 1.1197 -1.10907 0
M  V30 2152 C 208.182 1.83225 -0.852819 0
M  V30 2153 C 208.503 1.84769 0.623341 0
M  V30 2154 O 207.773 1.3143 1.45269 0
M  V30 2155 H 206.353 0.67849 -0.312507 0
M  V30 2156 H 209.015 1.3556 -1.40033 0
M  V30 2157 H 208.111 2.87265 -1.22005 0
M  V30 2158 N 208.412 0.89855 1.29475 0
M  V30 2159 C 209.36 0.365253 2.29714 0
M  V30 2160 C 210.354 -0.534993 1.6073 0
M  V30 2161 O 211.56 -0.417921 1.75081 0
M  V30 2162 H 207.935 0.0994853 0.74539 0
M  V30 2163 H 209.906 1.22406 2.72138 0
M  V30 2164 C 208.655 -0.393159 3.4547 0
M  V30 2165 H 207.978 0.290332 3.98744 0
M  V30 2166 H 209.418 -0.731189 4.17648 0
M  V30 2167 C 207.877 -1.59539 2.9673 0
M  V30 2168 O 208.407 -2.69469 2.97908 0
M  V30 2169 N 206.613 -1.43716 2.52575 0
M  V30 2170 H 206.16 -0.542828 2.51816 0
M  V30 2171 H 206.118 -2.24288 2.20323 0
M  V30 2172 N 209.89 -1.43072 0.660911 0
M  V30 2173 C 211.118 -2.06067 0.185422 0
M  V30 2174 C 211.533 -1.49582 -1.15198 0
M  V30 2175 O 210.89 -0.630134 -1.71276 0
M  V30 2176 C 210.941 -3.61371 0.0966523 0
M  V30 2177 O 210.662 -4.15758 1.38119 0
M  V30 2178 C 212.163 -4.41455 -0.403996 0
M  V30 2179 H 209.383 -0.664459 0.0934604 0
M  V30 2180 H 211.927 -1.83447 0.90373 0
M  V30 2181 H 210.082 -3.8315 -0.572259 0
M  V30 2182 H 210.496 -5.09499 1.24542 0
M  V30 2183 H 211.97 -5.50437 -0.415045 0
M  V30 2184 H 212.447 -4.15036 -1.43674 0
M  V30 2185 H 213.053 -4.24663 0.232691 0
M  V30 2186 N 211.368 -0.403325 -1.52352 0
M  V30 2187 C 212.331 0.413051 -2.25447 0
M  V30 2188 C 213.331 0.978513 -1.276 0
M  V30 2189 O 214.521 0.858305 -1.51587 0
M  V30 2190 C 211.653 1.58087 -3.02029 0
M  V30 2191 H 212.846 -0.227094 -2.99039 0
M  V30 2192 H 210.399 -0.155722 -1.55522 0
M  V30 2193 H 211.134 2.25804 -2.32772 0
M  V30 2194 H 210.919 1.18195 -3.73861 0
M  V30 2195 H 212.409 2.1585 -3.57489 0
M  V30 2196 N 212.846 1.57033 -0.133567 0
M  V30 2197 C 214.071 2.00475 0.531477 0
M  V30 2198 C 214.496 1.01291 1.58499 0
M  V30 2199 O 213.854 -0.0133279 1.81295 0
M  V30 2200 C 213.902 3.42729 1.12113 0
M  V30 2201 O 213.006 3.46498 2.23636 0
M  V30 2202 H 212.347 0.650876 0.131362 0
M  V30 2203 H 214.877 2.03344 -0.22634 0
M  V30 2204 H 214.887 3.81246 1.4531 0
M  V30 2205 H 213.562 4.14428 0.349557 0
M  V30 2206 H 212.139 3.19811 1.91769 0
M  V30 2207 N 214.325 -0.140222 1.56975 0
M  V30 2208 C 215.55 -0.870414 1.88251 0
M  V30 2209 C 215.975 -1.73637 0.723312 0
M  V30 2210 O 215.333 -1.78329 -0.32689 0
M  V30 2211 C 215.381 -1.69737 3.18154 0
M  V30 2212 O 214.485 -2.80229 3.02565 0
M  V30 2213 H 213.826 -0.242025 0.61832 0
M  V30 2214 H 216.356 -0.128999 2.04193 0
M  V30 2215 H 216.366 -2.09099 3.50345 0
M  V30 2216 H 215.041 -1.06152 4.02125 0
M  V30 2217 H 213.618 -2.44224 2.81796 0
M  V30 2218 N 215.803 -1.52179 -0.40978 0
M  V30 2219 C 217.214 -1.58377 -0.988615 0
M  V30 2220 C 217.565 -0.423879 -1.91566 0
M  V30 2221 O 216.69 0.455844 -2.11544 0
M  V30 2222 C 217.285 -2.87044 -1.79976 0
M  V30 2223 C 215.844 -2.95722 -2.32863 0
M  V30 2224 C 214.991 -2.53309 -1.12828 0
M  V30 2225 H 217.942 -1.57558 -0.190039 0
M  V30 2226 H 217.963 -2.7236 -2.65707 0
M  V30 2227 H 217.475 -3.71444 -1.12478 0
M  V30 2228 H 215.576 -2.15814 -3.03735 0
M  V30 2229 H 215.689 -3.99951 -2.63773 0
M  V30 2230 H 214.053 -2.07142 -1.48204 0
M  V30 2231 H 214.836 -3.40082 -0.46897 0
M  V30 2232 N 217.281 0.66697 -1.42791 0
M  V30 2233 C 218.213 1.7925 -1.42836 0
M  V30 2234 C 219.226 1.59496 -0.326333 0
M  V30 2235 O 220.415 1.6847 -0.589916 0
M  V30 2236 C 217.515 3.16476 -1.21229 0
M  V30 2237 C 216.688 3.63011 -2.44013 0
M  V30 2238 C 215.747 4.78993 -2.17834 0
M  V30 2239 O 214.773 4.89137 -2.91091 0
M  V30 2240 N 215.975 5.68248 -1.18635 0
M  V30 2241 H 218.74 1.79695 -2.39854 0
M  V30 2242 H 216.301 0.850338 -1.37771 0
M  V30 2243 H 218.293 3.91734 -1.01621 0
M  V30 2244 H 216.863 3.10884 -0.32706 0
M  V30 2245 H 216.083 2.78346 -2.79137 0
M  V30 2246 H 217.371 3.90845 -3.25757 0
M  V30 2247 H 216.769 5.62712 -0.580615 0
M  V30 2248 H 215.326 6.43285 -1.05013 0
M  V30 2249 N 218.759 1.29093 0.90403 0
M  V30 2250 C 220.036 1.075 1.63411 0
M  V30 2251 C 220.416 -0.382346 2.07609 0
M  V30 2252 O 219.764 -1.37031 1.82851 0
M  V30 2253 C 219.974 2.05858 2.81822 0
M  V30 2254 C 221.322 2.36539 3.52611 0
M  V30 2255 O 222.346 2.04019 2.91984 0
M  V30 2256 O 221.205 2.92085 4.61897 0
M  V30 2257 H 218.299 0.411547 0.717327 0
M  V30 2258 H 220.845 1.40449 0.952479 0
M  V30 2259 H 219.617 3.04037 2.46327 0
M  V30 2260 H 219.24 1.73613 3.57693 0
M  V30 2261 N 220.237 -1.11381 1.11499 0
M  V30 2262 C 221.17 -2.16621 0.71769 0
M  V30 2263 C 222.148 -1.60058 -0.286413 0
M  V30 2264 O 223.332 -1.87613 -0.182689 0
M  V30 2265 C 220.459 -3.38646 0.0607265 0
M  V30 2266 C 219.505 -4.13874 1.03008 0
M  V30 2267 S 220.338 -4.70731 2.55289 0
M  V30 2268 C 221.494 -5.96079 1.90895 0
M  V30 2269 H 221.727 -2.49987 1.60915 0
M  V30 2270 H 219.26 -1.23015 0.933092 0
M  V30 2271 H 221.218 -4.09313 -0.311965 0
M  V30 2272 H 219.879 -3.03537 -0.807702 0
M  V30 2273 H 219.072 -5.01333 0.517853 0
M  V30 2274 H 218.674 -3.4897 1.34522 0
M  V30 2275 H 220.966 -6.65948 1.24577 0
M  V30 2276 H 221.909 -6.51946 2.76354 0
M  V30 2277 H 222.317 -5.47652 1.36885 0
M  V30 2278 N 221.715 -0.905404 -1.28997 0
M  V30 2279 C 222.678 -0.392253 -2.25819 0
M  V30 2280 C 223.678 0.476753 -1.5357 0
M  V30 2281 O 224.868 0.280994 -1.71919 0
M  V30 2282 C 222 0.438588 -3.38067 0
M  V30 2283 H 223.193 -1.24743 -2.72725 0
M  V30 2284 H 220.746 -0.684051 -1.40536 0
M  V30 2285 H 221.481 1.31352 -2.96508 0
M  V30 2286 H 221.266 -0.184167 -3.91667 0
M  V30 2287 H 222.756 0.78873 -4.10084 0
M  V30 2288 N 223.193 1.4272 -0.668489 0
M  V30 2289 C 224.442 2.00846 -0.185389 0
M  V30 2290 C 224.755 1.53442 1.21305 0
M  V30 2291 O 225.961 2.03944 1.79218 0
M  V30 2292 C 224.417 3.58805 -0.280591 0
M  V30 2293 C 224.025 4.15198 -1.68268 0
M  V30 2294 C 225.769 4.24255 0.14412 0
M  V30 2295 C 223.676 5.655 -1.73099 0
M  V30 2296 H 222.606 0.751145 -0.0655475 0
M  V30 2297 H 225.257 1.63516 -0.832752 0
M  V30 2298 H 223.639 3.93608 0.434553 0
M  V30 2299 H 224.813 3.91866 -2.42441 0
M  V30 2300 H 223.128 3.62176 -2.05469 0
M  V30 2301 H 225.725 5.34547 0.128086 0
M  V30 2302 H 226.068 3.99277 1.17827 0
M  V30 2303 H 226.601 3.94389 -0.519798 0
M  V30 2304 H 223.34 5.95268 -2.74475 0
M  V30 2305 H 222.86 5.90842 -1.03274 0
M  V30 2306 H 224.539 6.29808 -1.48158 0
M  V30 2307 N 224.671 0.411399 1.52136 0
M  V30 2308 C 225.901 -0.16284 2.05957 0
M  V30 2309 C 226.309 -1.3922 1.28119 0
M  V30 2310 O 225.652 -1.80768 0.326881 0
M  V30 2311 C 225.714 -0.575946 3.54856 0
M  V30 2312 C 225.378 0.542998 4.53763 0
M  V30 2313 C 226.375 1.40726 5.00492 0
M  V30 2314 C 224.06 0.716337 4.97166 0
M  V30 2315 C 226.054 2.4298 5.8927 0
M  V30 2316 C 223.741 1.74218 5.8574 0
M  V30 2317 C 224.739 2.59731 6.31687 0
M  V30 2318 O 224.427 3.60558 7.18507 0
M  V30 2319 H 224.159 -0.0229125 0.675612 0
M  V30 2320 H 226.713 0.581634 1.96993 0
M  V30 2321 H 224.943 -1.37274 3.61515 0
M  V30 2322 H 226.632 -1.07836 3.91313 0
M  V30 2323 H 227.398 1.28476 4.67674 0
M  V30 2324 H 223.277 0.0603857 4.6096 0
M  V30 2325 H 226.821 3.0976 6.25055 0
M  V30 2326 H 222.718 1.86498 6.17971 0
M  V30 2327 H 223.486 3.56829 7.36624 0
M  V30 2328 N 226.149 -1.5696 0.141893 0
M  V30 2329 C 227.059 -2.20066 -0.812905 0
M  V30 2330 C 228.075 -1.18344 -1.27557 0
M  V30 2331 O 229.251 -1.50902 -1.33381 0
M  V30 2332 C 226.316 -2.80583 -2.03652 0
M  V30 2333 C 225.377 -3.97414 -1.62359 0
M  V30 2334 C 224.61 -4.55036 -2.78887 0
M  V30 2335 O 224.833 -4.11538 -3.94959 0
M  V30 2336 O 223.767 -5.45376 -2.54653 0
M  V30 2337 H 227.593 -3.02157 -0.305746 0
M  V30 2338 H 225.178 -1.49159 -0.0848799 0
M  V30 2339 H 227.06 -3.19067 -2.75272 0
M  V30 2340 H 225.735 -2.01508 -2.5333 0
M  V30 2341 H 224.642 -3.63656 -0.877775 0
M  V30 2342 H 225.975 -4.77994 -1.17401 0
M  V30 2343 N 227.627 0.131896 -1.57047 0
M  V30 2344 C 229.043 0.485031 -1.52051 0
M  V30 2345 C 229.243 1.82563 -0.85281 0
M  V30 2346 O 228.299 2.48817 -0.429694 0
M  V30 2347 C 229.612 0.481409 -2.96821 0
M  V30 2348 C 231.16 0.565868 -3.07842 0
M  V30 2349 C 231.635 0.592762 -4.54148 0
M  V30 2350 N 233.126 0.654564 -4.58552 0
M  V30 2351 C 233.861 0.696608 -5.69153 0
M  V30 2352 N 233.357 0.697078 -6.89284 0
M  V30 2353 N 235.15 0.738639 -5.57226 0
M  V30 2354 H 227.301 -0.746664 -1.98843 0
M  V30 2355 H 229.564 -0.273999 -0.90754 0
M  V30 2356 H 229.27 -0.435731 -3.4899 0
M  V30 2357 H 229.144 1.3139 -3.53577 0
M  V30 2358 H 231.531 1.47343 -2.55684 0
M  V30 2359 H 231.612 -0.29406 -2.54104 0
M  V30 2360 H 231.256 -0.310701 -5.06949 0
M  V30 2361 H 231.186 1.46939 -5.05684 0
M  V30 2362 H 233.677 0.660887 -3.72076 0
M  V30 2363 H 233.99 0.731426 -7.69331 0
M  V30 2364 H 232.335 0.66471 -6.91814 0
M  V30 2365 H 235.526 0.735545 -4.62285 0
M  V30 2366 H 235.699 0.767938 -6.43434 0
M  V30 2367 N 229.106 1.52395 0.401703 0
M  V30 2368 C 230.352 1.67065 1.14966 0
M  V30 2369 C 230.685 0.403052 1.89971 0
M  V30 2370 O 229.96 -0.598774 1.85054 0
M  V30 2371 C 230.243 2.8975 2.13815 0
M  V30 2372 C 230.096 4.26578 1.42658 0
M  V30 2373 C 231.415 3.07965 3.14397 0
M  V30 2374 H 228.534 0.607968 0.416587 0
M  V30 2375 H 231.176 1.84965 0.434511 0
M  V30 2376 H 229.326 2.74619 2.74803 0
M  V30 2377 H 230.998 4.53451 0.847329 0
M  V30 2378 H 229.241 4.27639 0.72849 0
M  V30 2379 H 229.912 5.08483 2.14823 0
M  V30 2380 H 232.388 3.22043 2.63491 0
M  V30 2381 H 231.264 3.95308 3.80819 0
M  V30 2382 H 231.525 2.21611 3.82545 0
M  V30 2383 N 230.584 -0.659388 1.43143 0
M  V30 2384 C 231.494 -1.80167 1.50256 0
M  V30 2385 C 232.51 -1.69571 0.390106 0
M  V30 2386 O 233.686 -1.90849 0.643319 0
M  V30 2387 C 230.751 -3.16409 1.41725 0
M  V30 2388 C 229.812 -3.38848 2.63591 0
M  V30 2389 C 229.045 -4.68591 2.55458 0
M  V30 2390 O 229.268 -5.47532 1.59891 0
M  V30 2391 O 228.202 -4.92614 3.45854 0
M  V30 2392 H 232.028 -1.77121 2.46702 0
M  V30 2393 H 229.613 -0.817092 1.25076 0
M  V30 2394 H 231.495 -3.9768 1.39387 0
M  V30 2395 H 230.17 -3.20059 0.484118 0
M  V30 2396 H 229.077 -2.57366 2.71502 0
M  V30 2397 H 230.41 -3.4004 3.55856 0
M  V30 2398 N 232.062 -1.29571 -0.897171 0
M  V30 2399 C 233.311 -1.1706 -1.64256 0
M  V30 2400 C 233.624 0.276476 -1.93636 0
M  V30 2401 O 234.83 0.52294 -2.66416 0
M  V30 2402 C 233.286 -2.0475 -2.95982 0
M  V30 2403 C 232.894 -3.54295 -2.74187 0
M  V30 2404 C 234.638 -2.0097 -3.73914 0
M  V30 2405 C 232.545 -4.34081 -4.01656 0
M  V30 2406 H 231.475 -0.43452 -0.616205 0
M  V30 2407 H 234.126 -1.54229 -0.994268 0
M  V30 2408 H 232.508 -1.60452 -3.62038 0
M  V30 2409 H 233.682 -4.06662 -2.1671 0
M  V30 2410 H 231.997 -3.59773 -2.09648 0
M  V30 2411 H 234.594 -2.57838 -4.68427 0
M  V30 2412 H 234.937 -0.990273 -4.0435 0
M  V30 2413 H 235.47 -2.43325 -3.14703 0
M  V30 2414 H 232.209 -5.36671 -3.76384 0
M  V30 2415 H 231.729 -3.86483 -4.58684 0
M  V30 2416 H 233.408 -4.44877 -4.69781 0
M  V30 2417 N 233.54 1.10788 -1.12088 0
M  V30 2418 C 234.47 2.19083 -0.807755 0
M  V30 2419 C 235.451 1.6858 0.226859 0
M  V30 2420 O 236.636 1.93997 0.0888475 0
M  V30 2421 C 233.766 3.46344 -0.257576 0
M  V30 2422 C 232.72 4.101 -1.22483 0
M  V30 2423 C 232.046 5.32016 -0.535052 0
M  V30 2424 C 233.346 4.54236 -2.57811 0
M  V30 2425 H 235.04 2.45534 -1.71328 0
M  V30 2426 H 232.586 1.1801 -0.825205 0
M  V30 2427 H 234.539 4.21392 -0.0262679 0
M  V30 2428 H 233.263 3.19373 0.683278 0
M  V30 2429 H 231.922 3.37054 -1.44189 0
M  V30 2430 H 231.57 5.01319 0.410827 0
M  V30 2431 H 231.27 5.75625 -1.18024 0
M  V30 2432 H 232.794 6.09799 -0.312695 0
M  V30 2433 H 234.208 5.20575 -2.40155 0
M  V30 2434 H 232.605 5.08682 -3.18375 0
M  V30 2435 H 233.675 3.6734 -3.16528 0
M  V30 2436 N 235.018 0.912232 1.28515 0
M  V30 2437 C 236.434 0.610159 1.47476 0
M  V30 2438 C 236.634 -0.844955 1.82928 0
M  V30 2439 O 235.69 -1.62416 1.93332 0
M  V30 2440 C 237.003 1.54675 2.57868 0
M  V30 2441 C 238.551 1.55331 2.71738 0
M  V30 2442 C 239.026 2.47649 3.85272 0
M  V30 2443 N 240.517 2.45767 3.92623 0
M  V30 2444 C 241.252 3.13896 4.79851 0
M  V30 2445 N 240.748 3.9135 5.71679 0
M  V30 2446 N 242.541 3.02991 4.73448 0
M  V30 2447 H 234.692 1.85318 1.03783 0
M  V30 2448 H 236.955 0.794777 0.516753 0
M  V30 2449 H 236.661 2.5841 2.38574 0
M  V30 2450 H 236.535 1.27671 3.54937 0
M  V30 2451 H 238.922 0.52335 2.90422 0
M  V30 2452 H 239.003 1.86378 1.75205 0
M  V30 2453 H 238.647 3.50745 3.67342 0
M  V30 2454 H 238.577 2.13904 4.81199 0
M  V30 2455 H 241.068 1.89503 3.26951 0
M  V30 2456 H 241.381 4.40359 6.35062 0
M  V30 2457 H 239.726 3.95455 5.71524 0
M  V30 2458 H 242.917 2.41987 4.007 0
M  V30 2459 H 243.09 3.5636 5.41213 0
M  V30 2460 N 236.496 -1.42363 0.676048 0
M  V30 2461 C 237.744 -2.01123 0.198437 0
M  V30 2462 C 238.065 -1.53731 -1.19966 0
M  V30 2463 O 237.335 -0.759518 -1.80577 0
M  V30 2464 H 235.915 -0.743678 0.0703721 0
M  V30 2465 H 238.577 -1.74263 0.872837 0
M  V30 2466 H 237.673 -3.11454 0.200686 0
M  V30 2467 N 237.974 -0.419461 -1.51915 0
M  V30 2468 C 239.199 0.154572 -2.06823 0
M  V30 2469 C 239.624 1.3722 -1.28656 0
M  V30 2470 O 238.982 1.78461 -0.319583 0
M  V30 2471 C 239.03 0.473172 -3.57482 0
M  V30 2472 O 238.134 1.56255 -3.81652 0
M  V30 2473 H 237.475 0.0096924 -0.663929 0
M  V30 2474 H 240.005 -0.595642 -1.95738 0
M  V30 2475 H 240.015 0.728825 -4.01438 0
M  V30 2476 H 238.69 -0.416873 -4.13805 0
M  V30 2477 H 237.267 1.29825 -3.49571 0
M  V30 2478 N 239.452 1.56882 -0.150215 0
M  V30 2479 C 240.4 2.18214 0.805313 0
M  V30 2480 C 241.394 1.14006 1.25296 0
M  V30 2481 O 242.6 1.3225 1.22107 0
M  V30 2482 H 238.975 0.698762 0.277913 0
M  V30 2483 H 240.946 2.97231 0.263862 0
M  V30 2484 C 239.695 2.82065 2.03309 0
M  V30 2485 H 239.018 3.61968 1.69763 0
M  V30 2486 H 240.458 3.28477 2.68103 0
M  V30 2487 C 238.917 1.80739 2.84315 0
M  V30 2488 O 239.447 1.27983 3.80767 0
M  V30 2489 N 237.653 1.4997 2.48913 0
M  V30 2490 H 237.2 1.93062 1.70542 0
M  V30 2491 H 237.158 0.824217 3.03404 0
M  V30 2492 N 240.93 -0.123565 1.57115 0
M  V30 2493 C 242.178 -0.83051 1.84247 0
M  V30 2494 C 242.499 -1.80629 0.73471 0
M  V30 2495 O 241.769 -1.94403 -0.241688 0
M  V30 2496 H 240.349 -0.309694 0.679778 0
M  V30 2497 H 243.011 -0.111976 1.94578 0
M  V30 2498 H 242.107 -1.37852 2.80006 0
M  V30 2499 N 242.408 -1.52605 -0.393616 0
M  V30 2500 C 243.338 -1.80022 -1.48709 0
M  V30 2501 C 244.319 -0.651995 -1.57108 0
M  V30 2502 O 245.504 -0.89913 -1.72132 0
M  V30 2503 C 242.634 -1.96492 -2.86371 0
M  V30 2504 C 241.588 -3.12161 -2.92813 0
M  V30 2505 C 240.914 -3.13877 -4.3288 0
M  V30 2506 C 242.214 -4.51322 -2.6288 0
M  V30 2507 H 243.908 -2.71589 -1.26015 0
M  V30 2508 H 241.454 -1.30684 -0.604778 0
M  V30 2509 H 243.407 -2.14255 -3.62867 0
M  V30 2510 H 242.131 -1.01611 -3.10391 0
M  V30 2511 H 240.79 -2.94173 -2.18764 0
M  V30 2512 H 240.438 -2.16687 -4.53933 0
M  V30 2513 H 240.138 -3.91576 -4.38112 0
M  V30 2514 H 241.662 -3.33789 -5.1129 0
M  V30 2515 H 243.076 -4.69435 -3.29096 0
M  V30 2516 H 241.473 -5.31053 -2.79468 0
M  V30 2517 H 242.543 -4.58353 -1.58242 0
M  V30 2518 N 243.887 0.651787 -1.4349 0
M  V30 2519 C 244.817 1.77621 -1.51569 0
M  V30 2520 C 245.798 1.66022 -0.370253 0
M  V30 2521 O 246.983 1.85095 -0.587658 0
M  V30 2522 C 244.113 3.16056 -1.43966 0
M  V30 2523 C 243.067 3.4242 -2.56774 0
M  V30 2524 C 242.393 4.8067 -2.34223 0
M  V30 2525 C 243.693 3.37023 -3.99015 0
M  V30 2526 H 245.387 1.71117 -2.45681 0
M  V30 2527 H 242.933 0.821825 -1.18246 0
M  V30 2528 H 244.886 3.94472 -1.48221 0
M  V30 2529 H 243.61 3.23293 -0.463586 0
M  V30 2530 H 242.269 2.66375 -2.51873 0
M  V30 2531 H 241.917 4.84585 -1.34856 0
M  V30 2532 H 241.617 4.9927 -3.09844 0
M  V30 2533 H 243.141 5.61342 -2.40265 0
M  V30 2534 H 244.555 4.05374 -4.05395 0
M  V30 2535 H 242.952 3.67159 -4.74673 0
M  V30 2536 H 244.022 2.3518 -4.2405 0
M  V30 2537 N 245.365 1.30045 0.890287 0
M  V30 2538 C 246.315 1.12592 1.9826 0
M  V30 2539 C 247.299 0.0426021 1.60844 0
M  V30 2540 O 248.491 0.265346 1.75 0
M  V30 2541 C 245.62 0.814301 3.33503 0
M  V30 2542 C 244.706 1.93761 3.7725 0
M  V30 2543 N 245.097 3.18232 3.93143 0
M  V30 2544 C 243.395 1.83277 4.06602 0
M  V30 2545 C 244.096 3.9158 4.30163 0
M  V30 2546 N 243.072 3.19591 4.3973 0
M  V30 2547 H 246.874 2.07003 2.08631 0
M  V30 2548 H 244.388 1.21307 1.07974 0
M  V30 2549 H 246.385 0.67029 4.11476 0
M  V30 2550 H 245.045 -0.121797 3.24471 0
M  V30 2551 H 246.056 3.53581 3.78419 0
M  V30 2552 H 242.733 0.97001 4.06075 0
M  V30 2553 H 244.123 4.98744 4.50226 0
M  V30 2554 N 246.843 -1.10192 1.12674 0
M  V30 2555 C 248.091 -1.81845 0.881861 0
M  V30 2556 C 248.412 -1.85737 -0.593867 0
M  V30 2557 O 247.682 -1.33724 -1.4316 0
M  V30 2558 H 246.262 -0.673432 0.323261 0
M  V30 2559 H 248.924 -1.33316 1.42172 0
M  V30 2560 H 248.02 -2.85288 1.2656 0
M  V30 2561 N 248.321 -0.919034 -1.28029 0
M  V30 2562 C 249.549 -0.570971 -1.98866 0
M  V30 2563 C 249.964 0.848996 -1.68634 0
M  V30 2564 O 249.321 1.56307 -0.942036 0
M  V30 2565 C 249.372 -0.776876 -3.53054 0
M  V30 2566 O 249.093 -2.14097 -3.82222 0
M  V30 2567 C 250.594 -0.436356 -4.41147 0
M  V30 2568 H 247.814 -0.217175 -0.634883 0
M  V30 2569 H 250.358 -1.23368 -1.63097 0
M  V30 2570 H 248.513 -0.161085 -3.87065 0
M  V30 2571 H 248.927 -2.18455 -4.76841 0
M  V30 2572 H 250.401 -0.63117 -5.4838 0
M  V30 2573 H 250.878 0.627686 -4.34692 0
M  V30 2574 H 251.484 -1.02991 -4.12641 0
M  V30 2575 N 249.799 1.42003 -0.683588 0
M  V30 2576 C 251.047 2.01015 -0.209101 0
M  V30 2577 C 251.368 1.54365 1.19149 0
M  V30 2578 O 250.638 0.769083 1.80172 0
M  V30 2579 H 249.218 0.743294 -0.074315 0
M  V30 2580 H 251.88 1.73798 -0.882066 0
M  V30 2581 H 250.976 3.11343 -0.2172 0
M  V30 2582 N 251.277 0.427512 1.51691 0
M  V30 2583 C 252.225 -0.403359 2.29076 0
M  V30 2584 C 253.219 -1.02962 1.34518 0
M  V30 2585 O 254.425 -0.965715 1.51901 0
M  V30 2586 H 250.8 -0.148879 0.737115 0
M  V30 2587 H 252.771 0.270295 2.97173 0
M  V30 2588 C 251.52 -1.49763 3.13794 0
M  V30 2589 H 250.843 -1.02508 3.86435 0
M  V30 2590 H 252.283 -2.05244 3.71014 0
M  V30 2591 C 250.742 -2.47536 2.28533 0
M  V30 2592 O 251.272 -3.51848 1.93819 0
M  V30 2593 N 249.478 -2.18187 1.91945 0
M  V30 2594 H 249.025 -1.33389 2.20375 0
M  V30 2595 H 248.983 -2.83848 1.35195 0
M  V30 2596 N 252.755 -1.56801 0.158532 0
M  V30 2597 C 254.166 -1.83189 -0.360366 0
M  V30 2598 C 254.517 -1.07778 -1.63946 0
M  V30 2599 O 253.642 -0.326718 -2.13919 0
M  V30 2600 C 254.237 -3.32297 -0.660595 0
M  V30 2601 C 252.796 -3.59227 -1.12398 0
M  V30 2602 C 251.943 -2.76877 -0.153097 0
M  V30 2603 H 254.894 -1.54008 0.383031 0
M  V30 2604 H 254.915 -3.4908 -1.51405 0
M  V30 2605 H 254.427 -3.87156 0.270527 0
M  V30 2606 H 252.528 -3.09766 -2.07064 0
M  V30 2607 H 252.641 -4.67632 -1.04197 0
M  V30 2608 H 251.005 -2.46319 -0.647983 0
M  V30 2609 H 251.788 -3.34511 0.77182 0
M  V30 2610 N 254.233 0.115231 -1.57178 0
M  V30 2611 C 255.196 1.12526 -1.99676 0
M  V30 2612 C 256.196 1.34095 -0.88742 0
M  V30 2613 O 257.386 1.30548 -1.15337 0
M  V30 2614 C 254.518 2.4789 -2.34015 0
M  V30 2615 H 255.711 0.759912 -2.90113 0
M  V30 2616 H 253.264 0.359648 -1.52106 0
M  V30 2617 H 253.999 2.89339 -1.4647 0
M  V30 2618 H 253.784 2.33588 -3.14927 0
M  V30 2619 H 255.274 3.20575 -2.67622 0
M  V30 2620 N 255.711 1.52812 0.385517 0
M  V30 2621 C 256.674 1.77188 1.45386 0
M  V30 2622 C 257.674 0.641953 1.4743 0
M  V30 2623 O 258.864 0.910033 1.4854 0
M  V30 2624 C 255.996 1.87582 2.8465 0
M  V30 2625 H 257.189 2.72583 1.25054 0
M  V30 2626 H 254.742 1.43586 0.617467 0
M  V30 2627 H 255.477 0.941849 3.10322 0
M  V30 2628 H 255.262 2.69748 2.84567 0
M  V30 2629 H 256.752 2.08102 3.62054 0
M  V30 2630 N 257.189 -0.644168 1.43834 0
M  V30 2631 C 258.417 -1.43147 1.49387 0
M  V30 2632 C 258.832 -1.88452 0.114583 0
M  V30 2633 O 258.189 -1.60047 -0.876989 0
M  V30 2634 C 258.24 -2.66046 2.44748 0
M  V30 2635 O 257.961 -2.22633 3.77314 0
M  V30 2636 C 259.462 -3.59311 2.59635 0
M  V30 2637 H 256.682 -0.439447 0.507077 0
M  V30 2638 H 259.226 -0.78895 1.88669 0
M  V30 2639 H 257.381 -3.26418 2.08638 0
M  V30 2640 H 257.795 -3.02216 4.28679 0
M  V30 2641 H 259.269 -4.42187 3.30416 0
M  V30 2642 H 259.746 -4.07259 1.64427 0
M  V30 2643 H 260.352 -3.04816 2.96593 0
M  V30 2644 N 258.668 -1.30515 -0.883378 0
M  V30 2645 C 259.914 -1.19607 -1.63774 0
M  V30 2646 C 260.247 0.248314 -1.92606 0
M  V30 2647 O 259.522 1.17742 -1.54813 0
M  V30 2648 C 259.805 -2.02669 -2.97653 0
M  V30 2649 C 259.658 -3.55335 -2.75784 0
M  V30 2650 C 260.977 -1.86573 -3.98596 0
M  V30 2651 H 258.096 -0.435856 -0.594305 0
M  V30 2652 H 260.738 -1.60165 -1.02212 0
M  V30 2653 H 258.888 -1.68208 -3.50197 0
M  V30 2654 H 260.56 -3.99863 -2.30016 0
M  V30 2655 H 258.803 -3.79438 -2.1026 0
M  V30 2656 H 259.474 -4.08745 -3.70988 0
M  V30 2657 H 261.95 -2.16703 -3.55217 0
M  V30 2658 H 260.826 -2.47014 -4.90179 0
M  V30 2659 H 261.087 -0.825321 -4.34328 0
M  V30 2660 N 260.146 1.09593 -1.13257 0
M  V30 2661 C 261.094 2.18271 -0.803783 0
M  V30 2662 C 262.088 1.68054 0.213148 0
M  V30 2663 O 263.294 1.79862 0.0704699 0
M  V30 2664 H 259.669 0.711949 -0.242143 0
M  V30 2665 H 261.64 2.43235 -1.72856 0
M  V30 2666 C 260.389 3.46536 -0.28424 0
M  V30 2667 H 259.712 3.85545 -1.05807 0
M  V30 2668 H 261.152 4.23899 -0.0925945 0
M  V30 2669 C 259.611 3.22036 0.989684 0
M  V30 2670 O 260.141 3.44509 2.06584 0
M  V30 2671 N 258.347 2.7565 0.920086 0
M  V30 2672 H 257.894 2.57562 0.0442019 0
M  V30 2673 H 257.852 2.59635 1.77306 0
M  V30 2674 N 261.624 0.925811 1.2754 0
M  V30 2675 C 262.554 0.440748 2.29303 0
M  V30 2676 C 263.535 -0.497971 1.62648 0
M  V30 2677 O 264.72 -0.403126 1.8997 0
M  V30 2678 C 261.85 -0.309048 3.45922 0
M  V30 2679 C 260.804 0.54166 4.24559 0
M  V30 2680 C 260.13 -0.337191 5.33636 0
M  V30 2681 C 261.43 1.80516 4.90114 0
M  V30 2682 H 263.124 1.29121 2.70126 0
M  V30 2683 H 260.67 0.622323 1.29858 0
M  V30 2684 H 262.623 -0.659315 4.1621 0
M  V30 2685 H 261.347 -1.19352 3.04011 0
M  V30 2686 H 260.006 0.874609 3.56014 0
M  V30 2687 H 259.654 -1.22056 4.87966 0
M  V30 2688 H 259.354 0.228497 5.87156 0
M  V30 2689 H 260.878 -0.683072 6.06767 0
M  V30 2690 H 262.292 1.52307 5.52698 0
M  V30 2691 H 260.689 2.3142 5.53683 0
M  V30 2692 H 261.759 2.52581 4.13921 0
M  V30 2693 N 263.102 -1.41638 0.69111 0
M  V30 2694 C 264.348 -2.01598 0.220519 0
M  V30 2695 C 264.681 -1.54594 -1.17535 0
M  V30 2696 O 263.956 -0.755177 -1.79241 0
M  V30 2697 C 264.239 -3.59062 0.273243 0
M  V30 2698 C 264.092 -4.16203 1.70573 0
M  V30 2699 C 265.411 -4.38546 -0.369457 0
M  V30 2700 H 262.53 -0.732468 0.0816045 0
M  V30 2701 H 265.172 -1.68445 0.878986 0
M  V30 2702 H 263.322 -3.87435 -0.287411 0
M  V30 2703 H 264.994 -3.98722 2.31989 0
M  V30 2704 H 263.237 -3.71414 2.2413 0
M  V30 2705 H 263.908 -5.25358 1.69419 0
M  V30 2706 H 266.384 -4.1596 0.107977 0
M  V30 2707 H 265.26 -5.48069 -0.302002 0
M  V30 2708 H 265.521 -4.17662 -1.44951 0
M  V30 2709 N 264.58 -0.43555 -1.51462 0
M  V30 2710 C 265.996 -0.0877501 -1.59359 0
M  V30 2711 C 266.196 1.4027 -1.4466 0
M  V30 2712 O 265.252 2.17243 -1.28693 0
M  V30 2713 C 266.565 -0.606264 -2.94525 0
M  V30 2714 C 268.113 -0.566548 -3.0783 0
M  V30 2715 C 268.588 -1.06201 -4.45517 0
M  V30 2716 N 270.079 -1.01992 -4.51832 0
M  V30 2717 C 270.814 -1.37417 -5.5669 0
M  V30 2718 N 270.31 -1.80119 -6.68976 0
M  V30 2719 N 272.103 -1.29245 -5.47039 0
M  V30 2720 H 264.254 -1.40533 -1.59261 0
M  V30 2721 H 266.517 -0.578992 -0.750648 0
M  V30 2722 H 266.223 -1.64901 -3.10645 0
M  V30 2723 H 266.097 -0.0302097 -3.77188 0
M  V30 2724 H 268.484 0.467208 -2.91378 0
M  V30 2725 H 268.565 -1.17898 -2.2701 0
M  V30 2726 H 268.209 -2.09422 -4.62715 0
M  V30 2727 H 268.139 -0.426127 -5.24873 0
M  V30 2728 H 270.63 -0.706308 -3.71241 0
M  V30 2729 H 270.943 -2.05392 -7.45006 0
M  V30 2730 H 269.288 -1.84044 -6.70189 0
M  V30 2731 H 272.479 -0.957522 -4.58202 0
M  V30 2732 H 272.652 -1.57182 -6.28648 0
M  V30 2733 N 266.058 1.56714 -0.166846 0
M  V30 2734 C 267.005 2.17746 0.765193 0
M  V30 2735 C 267.975 1.11614 1.23011 0
M  V30 2736 O 269.16 1.39745 1.29908 0
M  V30 2737 C 266.3 2.81882 1.9909 0
M  V30 2738 C 265.413 4.02462 1.56997 0
M  V30 2739 C 264.548 4.54537 2.749 0
M  V30 2740 C 263.587 5.67538 2.29275 0
M  V30 2741 N 262.724 6.14142 3.40255 0
M  V30 2742 H 267.564 2.97048 0.237952 0
M  V30 2743 H 265.101 1.4672 0.105725 0
M  V30 2744 H 267.059 3.17221 2.70974 0
M  V30 2745 H 265.689 2.05191 2.49192 0
M  V30 2746 H 264.741 3.72973 0.748037 0
M  V30 2747 H 266.053 4.84273 1.19503 0
M  V30 2748 H 265.207 4.92035 3.54946 0
M  V30 2749 H 263.946 3.71774 3.1565 0
M  V30 2750 H 262.951 5.29597 1.47674 0
M  V30 2751 H 264.176 6.52099 1.89588 0
M  V30 2752 H 262.122 5.3431 3.8059 0
M  V30 2753 H 262.039 6.9093 3.06841 0
M  V30 2754 H 263.307 6.56289 4.206 0
M  V30 2755 N 267.536 -0.106894 1.57237 0
M  V30 2756 C 268.952 -0.46078 1.52804 0
M  V30 2757 C 269.152 -1.81184 0.881746 0
M  V30 2758 O 268.208 -2.48102 0.469224 0
M  V30 2759 C 269.521 -0.434127 2.9755 0
M  V30 2760 C 271.069 -0.516821 3.08704 0
M  V30 2761 C 271.544 -0.520436 4.55033 0
M  V30 2762 N 273.035 -0.58153 4.59535 0
M  V30 2763 C 273.77 -0.605973 5.70189 0
M  V30 2764 N 273.266 -0.587331 6.90306 0
M  V30 2765 N 275.059 -0.649895 5.5833 0
M  V30 2766 H 267.21 0.778203 1.9763 0
M  V30 2767 H 269.473 0.288403 0.903066 0
M  V30 2768 H 269.179 0.491197 3.48253 0
M  V30 2769 H 269.053 -1.25748 3.55622 0
M  V30 2770 H 271.44 -1.43256 2.57995 0
M  V30 2771 H 271.521 0.334449 2.53604 0
M  V30 2772 H 271.165 0.391313 5.0639 0
M  V30 2773 H 271.095 -1.38876 5.07958 0
M  V30 2774 H 273.586 -0.60161 3.73081 0
M  V30 2775 H 273.899 -0.60894 7.70397 0
M  V30 2776 H 272.244 -0.554564 6.92784 0
M  V30 2777 H 275.435 -0.661907 4.63397 0
M  V30 2778 H 275.608 -0.665476 6.44574 0
M  V30 2779 N 269.014 -1.53014 -0.377408 0
M  V30 2780 C 270.425 -1.60438 -0.954798 0
M  V30 2781 C 270.776 -0.464418 -1.90624 0
M  V30 2782 O 269.901 0.41087 -2.12464 0
M  V30 2783 C 270.496 -2.90797 -1.73847 0
M  V30 2784 C 269.055 -3.00595 -2.26538 0
M  V30 2785 C 268.202 -2.55645 -1.07429 0
M  V30 2786 H 271.153 -1.57926 -0.156575 0
M  V30 2787 H 271.174 -2.77935 -2.5987 0
M  V30 2788 H 270.686 -3.73746 -1.04574 0
M  V30 2789 H 268.787 -2.22208 -2.99089 0
M  V30 2790 H 268.9 -4.05456 -2.5523 0
M  V30 2791 H 267.264 -2.10239 -1.43777 0
M  V30 2792 H 268.047 -3.41 -0.396728 0
M  V30 2793 N 270.492 0.636531 -1.44174 0
M  V30 2794 C 271.424 1.7618 -1.46606 0
M  V30 2795 C 272.437 1.58768 -0.360091 0
M  V30 2796 O 273.626 1.67181 -0.625518 0
M  V30 2797 C 270.726 3.13833 -1.27915 0
M  V30 2798 C 269.899 3.57753 -2.51658 0
M  V30 2799 C 268.958 4.74265 -2.27945 0
M  V30 2800 O 267.984 4.82852 -3.01401 0
M  V30 2801 N 269.186 5.65604 -1.30662 0
M  V30 2802 H 271.951 1.74567 -2.43612 0
M  V30 2803 H 269.512 0.820924 -1.39544 0
M  V30 2804 H 271.504 3.8949 -1.09907 0
M  V30 2805 H 270.074 3.10121 -0.39293 0
M  V30 2806 H 269.294 2.72362 -2.84978 0
M  V30 2807 H 270.582 3.83847 -3.33974 0
M  V30 2808 H 269.98 5.61354 -0.699844 0
M  V30 2809 H 268.537 6.40913 -1.18634 0
M  V30 2810 N 271.97 1.30982 0.876444 0
M  V30 2811 C 273.386 1.09498 1.16113 0
M  V30 2812 C 273.586 -0.13875 2.01022 0
M  V30 2813 O 272.642 -0.829935 2.38471 0
M  V30 2814 C 273.955 2.36308 1.85954 0
M  V30 2815 C 275.503 2.41856 1.98683 0
M  V30 2816 C 275.978 3.6853 2.71937 0
M  V30 2817 N 277.469 3.69387 2.79477 0
M  V30 2818 C 278.204 4.64096 3.36753 0
M  V30 2819 N 277.7 5.69155 3.95012 0
M  V30 2820 N 279.493 4.51626 3.3465 0
M  V30 2821 H 271.644 2.10118 0.310494 0
M  V30 2822 H 273.907 0.926634 0.200131 0
M  V30 2823 H 273.613 3.26388 1.31011 0
M  V30 2824 H 273.487 2.4561 2.86278 0
M  V30 2825 H 275.874 1.52249 2.52793 0
M  V30 2826 H 275.955 2.36523 0.9742 0
M  V30 2827 H 275.599 4.58499 2.18496 0
M  V30 2828 H 275.529 3.71127 3.73593 0
M  V30 2829 H 278.02 2.93438 2.38123 0
M  V30 2830 H 278.333 6.3751 4.36808 0
M  V30 2831 H 276.678 5.72937 3.93406 0
M  V30 2832 H 279.869 3.68728 2.8837 0
M  V30 2833 H 280.042 5.25614 3.7899 0
M  V30 2834 N 273.449 -1.08991 1.13837 0
M  V30 2835 C 274.359 -2.19301 0.833333 0
M  V30 2836 C 275.375 -1.73026 -0.183847 0
M  V30 2837 O 276.551 -2.01395 -0.0138092 0
M  V30 2838 C 273.616 -3.45323 0.308651 0
M  V30 2839 C 272.677 -4.06255 1.38764 0
M  V30 2840 C 271.91 -5.26262 0.887896 0
M  V30 2841 O 272.133 -5.69747 -0.27287 0
M  V30 2842 O 271.067 -5.78435 1.66421 0
M  V30 2843 H 274.893 -2.47854 1.75506 0
M  V30 2844 H 272.478 -1.18012 0.916166 0
M  V30 2845 H 274.36 -4.21394 0.0216739 0
M  V30 2846 H 273.035 -3.18362 -0.585431 0
M  V30 2847 H 271.942 -3.318 1.72799 0
M  V30 2848 H 273.275 -4.37452 2.25602 0
M  V30 2849 N 274.927 -0.932562 -1.27047 0
M  V30 2850 C 276.174 -0.575559 -1.94148 0
M  V30 2851 C 276.502 0.883984 -1.73251 0
M  V30 2852 O 275.757 1.64655 -1.0577 0
M  V30 2853 C 276.056 -0.853713 -3.47054 0
M  V30 2854 C 275.722 -2.29577 -3.88079 0
M  V30 2855 C 274.384 -2.68999 -3.9899 0
M  V30 2856 C 276.736 -3.23331 -4.08787 0
M  V30 2857 C 274.064 -4.01289 -4.28 0
M  V30 2858 C 276.416 -4.55207 -4.39282 0
M  V30 2859 C 275.08 -4.94457 -4.48407 0
M  V30 2860 H 274.35 -0.210612 -0.710439 0
M  V30 2861 H 276.997 -1.17744 -1.51025 0
M  V30 2862 H 275.302 -0.169204 -3.91434 0
M  V30 2863 H 276.999 -0.55639 -3.97121 0
M  V30 2864 H 273.589 -1.97994 -3.80127 0
M  V30 2865 H 277.773 -2.94074 -3.99793 0
M  V30 2866 H 273.029 -4.31374 -4.33275 0
M  V30 2867 H 277.203 -5.27852 -4.54252 0
M  V30 2868 H 274.83 -5.96994 -4.7064 0
M  V30 2869 N 276.405 1.4127 -0.698611 0
M  V30 2870 C 277.368 2.29158 -0.044132 0
M  V30 2871 C 278.368 1.44529 0.704841 0
M  V30 2872 O 279.558 1.65643 0.539276 0
M  V30 2873 C 276.69 3.27459 0.947809 0
M  V30 2874 H 277.883 2.88529 -0.817994 0
M  V30 2875 H 275.436 1.49307 -0.46228 0
M  V30 2876 H 276.171 2.73073 1.74933 0
M  V30 2877 H 275.956 3.8991 0.41385 0
M  V30 2878 H 277.446 3.93311 1.40344 0
M  V30 2879 N 277.883 0.443576 1.51229 0
M  V30 2880 C 278.846 -0.353132 2.26463 0
M  V30 2881 C 279.846 -0.944338 1.3015 0
M  V30 2882 O 281.036 -0.817813 1.5381 0
M  V30 2883 C 278.168 -1.50023 3.06114 0
M  V30 2884 H 279.361 0.3063 2.98332 0
M  V30 2885 H 276.914 0.196902 1.55055 0
M  V30 2886 H 277.649 -2.19553 2.38677 0
M  V30 2887 H 277.434 -1.08241 3.76864 0
M  V30 2888 H 278.924 -2.06296 3.63087 0
M  V30 2889 N 279.361 -1.56624 0.175154 0
M  V30 2890 C 280.586 -2.01813 -0.478137 0
M  V30 2891 C 281.011 -1.05457 -1.55757 0
M  V30 2892 O 280.369 -0.0347439 -1.81267 0
M  V30 2893 C 280.417 -3.45581 -1.02987 0
M  V30 2894 O 279.521 -3.52305 -2.14371 0
M  V30 2895 H 278.862 -0.65413 -0.114059 0
M  V30 2896 H 281.392 -2.02673 0.280173 0
M  V30 2897 H 281.402 -3.84965 -1.35151 0
M  V30 2898 H 280.077 -4.1521 -0.239556 0
M  V30 2899 H 278.654 -3.24783 -1.83222 0
M  V30 2900 N 280.839 0.0985539 -1.57292 0
M  V30 2901 C 282.067 0.816318 -1.90115 0
M  V30 2902 C 282.482 1.72451 -0.768509 0
M  V30 2903 O 281.839 1.80643 0.259687 0
M  V30 2904 C 281.89 1.63259 -3.22535 0
M  V30 2905 O 281.611 0.760934 -4.31441 0
M  V30 2906 C 283.112 2.45372 -3.69199 0
M  V30 2907 H 280.332 0.233595 -0.629027 0
M  V30 2908 H 282.876 0.0768229 -2.04356 0
M  V30 2909 H 281.031 2.32463 -3.09903 0
M  V30 2910 H 281.445 1.32595 -5.07463 0
M  V30 2911 H 282.919 2.98144 -4.64558 0
M  V30 2912 H 283.396 3.23677 -2.96867 0
M  V30 2913 H 284.002 1.81373 -3.84687 0
M  V30 2914 N 282.317 1.53212 0.369288 0
M  V30 2915 C 283.545 1.73119 1.13303 0
M  V30 2916 C 283.96 0.458455 1.83149 0
M  V30 2917 O 283.317 -0.568403 1.73423 0
M  V30 2918 C 283.368 2.89413 2.16616 0
M  V30 2919 O 283.089 4.11761 1.49614 0
M  V30 2920 C 284.59 3.21161 3.05566 0
M  V30 2921 H 281.81 0.579107 0.338934 0
M  V30 2922 H 284.354 1.99942 0.429338 0
M  V30 2923 H 282.509 2.64994 2.82589 0
M  V30 2924 H 282.923 4.76858 2.18419 0
M  V30 2925 H 284.397 4.05949 3.74045 0
M  V30 2926 H 284.874 2.36369 3.70171 0
M  V30 2927 H 285.48 3.47492 2.45213 0
M  V30 2928 N 283.795 -0.628877 1.44509 0
M  V30 2929 C 284.725 -1.75187 1.54376 0
M  V30 2930 C 285.706 -1.65411 0.396618 0
M  V30 2931 O 286.891 -1.84137 0.617031 0
M  V30 2932 C 284.021 -3.13725 1.48976 0
M  V30 2933 C 282.975 -3.38291 2.62189 0
M  V30 2934 C 282.301 -4.76883 2.41841 0
M  V30 2935 C 283.601 -3.30632 4.04326 0
M  V30 2936 H 285.295 -1.67187 2.48373 0
M  V30 2937 H 282.841 -0.802909 1.19538 0
M  V30 2938 H 284.794 -3.92064 1.54478 0
M  V30 2939 H 283.518 -3.22515 0.514961 0
M  V30 2940 H 282.177 -2.62334 2.56079 0
M  V30 2941 H 281.825 -4.82378 1.42548 0
M  V30 2942 H 281.525 -4.94278 3.17747 0
M  V30 2943 H 283.049 -5.57449 2.49165 0
M  V30 2944 H 284.463 -3.98873 4.11793 0
M  V30 2945 H 282.86 -3.59561 4.80454 0
M  V30 2946 H 283.93 -2.28404 4.27738 0
M  V30 2947 N 285.273 -1.31445 -0.869486 0
M  V30 2948 C 286.498 -1.24256 -1.66058 0
M  V30 2949 C 286.923 0.188928 -1.87149 0
M  V30 2950 O 286.281 1.13522 -1.4136 0
M  V30 2951 C 286.329 -1.9924 -3.00559 0
M  V30 2952 O 285.433 -1.33007 -3.90362 0
M  V30 2953 H 284.774 -0.428973 -0.506831 0
M  V30 2954 H 287.304 -1.73521 -1.08404 0
M  V30 2955 H 287.314 -2.08854 -3.50491 0
M  V30 2956 H 285.989 -3.03342 -2.84528 0
M  V30 2957 H 284.566 -1.31848 -3.48813 0
M  V30 2958 N 286.751 1.08385 -1.14413 0
M  V30 2959 C 287.714 2.13486 -0.834048 0
M  V30 2960 C 288.714 1.59988 0.161418 0
M  V30 2961 O 289.904 1.74071 -0.0669575 0
M  V30 2962 C 287.036 3.4003 -0.243354 0
M  V30 2963 H 288.229 2.42425 -1.7655 0
M  V30 2964 H 285.782 1.24101 -0.950189 0
M  V30 2965 H 286.517 3.16726 0.696807 0
M  V30 2966 H 286.302 3.80157 -0.960367 0
M  V30 2967 H 287.792 4.17577 -0.0436242 0
M  V30 2968 N 288.23 0.939286 1.26551 0
M  V30 2969 C 289.478 0.58469 1.93457 0
M  V30 2970 C 289.799 -0.878774 1.74076 0
M  V30 2971 O 289.069 -1.62421 1.09528 0
M  V30 2972 H 287.649 0.21325 0.715914 0
M  V30 2973 H 290.311 1.1942 1.54029 0
M  V30 2974 H 289.407 0.800849 3.0165 0
M  V30 2975 N 289.708 -1.40897 0.706093 0
M  V30 2976 C 291.124 -1.55042 0.37869 0
M  V30 2977 C 291.324 -1.67944 -1.11342 0
M  V30 2978 O 290.38 -1.66372 -1.89938 0
M  V30 2979 C 291.693 -2.78398 1.13643 0
M  V30 2980 C 293.241 -2.92206 1.12181 0
M  V30 2981 C 293.716 -4.18463 1.86152 0
M  V30 2982 N 295.207 -4.25443 1.83173 0
M  V30 2983 C 295.942 -5.2202 2.37239 0
M  V30 2984 N 295.438 -6.24563 2.99821 0
M  V30 2985 N 297.231 -5.14033 2.27435 0
M  V30 2986 H 289.382 -1.30769 1.67372 0
M  V30 2987 H 291.645 -0.631653 0.706907 0
M  V30 2988 H 291.351 -2.7511 2.19106 0
M  V30 2989 H 291.225 -3.70228 0.721853 0
M  V30 2990 H 293.612 -2.95004 0.0754171 0
M  V30 2991 H 293.693 -2.01521 1.57554 0
M  V30 2992 H 293.337 -4.16427 2.90776 0
M  V30 2993 H 293.267 -5.08141 1.38206 0
M  V30 2994 H 295.758 -3.51976 1.37556 0
M  V30 2995 H 296.071 -6.94665 3.38616 0
M  V30 2996 H 294.416 -6.25035 3.03902 0
M  V30 2997 H 297.607 -4.3285 1.78208 0
M  V30 2998 H 297.78 -5.89129 2.69873 0
M  V30 2999 N 291.186 -0.45159 -1.50991 0
M  V30 3000 C 292.432 0.102439 -2.03142 0
M  V30 3001 C 292.787 1.39138 -1.32884 0
M  V30 3002 O 292.08 1.86493 -0.439438 0
M  V30 3003 C 292.274 0.361728 -3.55565 0
M  V30 3004 C 292.103 -0.900535 -4.40591 0
M  V30 3005 C 290.873 -1.43821 -4.844 0
M  V30 3006 C 293.071 -1.79063 -4.82121 0
M  V30 3007 N 291.053 -2.65153 -5.53685 0
M  V30 3008 C 292.424 -2.84991 -5.50618 0
M  V30 3009 C 294.479 -1.80334 -4.64095 0
M  V30 3010 C 293.182 -3.92155 -6.02998 0
M  V30 3011 C 295.208 -2.86442 -5.17402 0
M  V30 3012 C 294.57 -3.9109 -5.85857 0
M  V30 3013 H 290.669 -0.00204537 -0.781997 0
M  V30 3014 H 293.253 -0.615446 -1.84717 0
M  V30 3015 H 291.424 1.04865 -3.73976 0
M  V30 3016 H 293.156 0.908372 -3.94374 0
M  V30 3017 H 289.911 -0.990117 -4.63135 0
M  V30 3018 H 290.335 -3.26717 -5.92946 0
M  V30 3019 H 294.977 -1.00753 -4.1062 0
M  V30 3020 H 292.695 -4.72565 -6.55521 0
M  V30 3021 H 296.281 -2.88386 -5.05297 0
M  V30 3022 H 295.161 -4.71845 -6.26364 0
M  V30 3023 N 292.664 1.56529 -0.183458 0
M  V30 3024 C 293.941 1.88959 0.50536 0
M  V30 3025 C 294.321 1.09523 1.80466 0
M  V30 3026 O 293.669 0.19278 2.27685 0
M  V30 3027 C 293.879 3.41162 0.73547 0
M  V30 3028 C 295.227 4.11155 1.06005 0
M  V30 3029 O 296.251 3.46548 0.823594 0
M  V30 3030 O 295.11 5.25318 1.50675 0
M  V30 3031 H 292.204 0.78441 0.261973 0
M  V30 3032 H 294.75 1.68231 -0.222802 0
M  V30 3033 H 293.522 3.90874 -0.182561 0
M  V30 3034 H 293.145 3.67543 1.51651 0
M  V30 3035 N 294.142 -0.090211 1.57342 0
M  V30 3036 C 295.558 -0.444547 1.53284 0
M  V30 3037 C 295.758 -1.80238 0.900914 0
M  V30 3038 O 294.814 -2.4759 0.495513 0
M  V30 3039 C 296.127 -0.402543 2.97993 0
M  V30 3040 C 297.675 -0.48405 3.09234 0
M  V30 3041 C 298.15 -0.472144 4.5556 0
M  V30 3042 N 299.641 -0.532757 4.60126 0
M  V30 3043 C 300.376 -0.545462 5.708 0
M  V30 3044 N 299.872 -0.514082 6.9089 0
M  V30 3045 N 301.665 -0.59064 5.58988 0
M  V30 3046 H 293.816 0.799121 1.96794 0
M  V30 3047 H 296.079 0.297965 0.899956 0
M  V30 3048 H 295.785 0.528106 3.47712 0
M  V30 3049 H 295.659 -1.21969 3.56936 0
M  V30 3050 H 298.046 -1.40512 2.595 0
M  V30 3051 H 298.127 0.361328 2.53235 0
M  V30 3052 H 297.771 0.445 5.05947 0
M  V30 3053 H 297.701 -1.3348 5.09402 0
M  V30 3054 H 300.192 -0.562006 3.73698 0
M  V30 3055 H 300.505 -0.527195 7.71 0
M  V30 3056 H 298.85 -0.481054 6.93333 0
M  V30 3057 H 302.041 -0.61272 4.64073 0
M  V30 3058 H 302.214 -0.597073 6.45243 0
M  V30 3059 N 295.62 -1.53406 -0.361157 0
M  V30 3060 C 296.85 -1.73465 -1.1222 0
M  V30 3061 C 297.258 -0.465486 -1.83384 0
M  V30 3062 O 296.601 0.571611 -1.7458 0
M  V30 3063 C 296.663 -2.84834 -2.19339 0
M  V30 3064 C 296.327 -4.25038 -1.67903 0
M  V30 3065 C 297.324 -5.07231 -1.14074 0
M  V30 3066 C 295.009 -4.71464 -1.73282 0
M  V30 3067 C 297.003 -6.33942 -0.663068 0
M  V30 3068 C 294.69 -5.98153 -1.25127 0
M  V30 3069 C 295.688 -6.79223 -0.717296 0
M  V30 3070 O 295.376 -8.03533 -0.242865 0
M  V30 3071 H 295.108 -0.583526 -0.341283 0
M  V30 3072 H 297.662 -2.00964 -0.424591 0
M  V30 3073 H 295.892 -2.5282 -2.92607 0
M  V30 3074 H 297.581 -2.9303 -2.80871 0
M  V30 3075 H 298.347 -4.72534 -1.09254 0
M  V30 3076 H 294.226 -4.08432 -2.13786 0
M  V30 3077 H 297.77 -6.97167 -0.245612 0
M  V30 3078 H 293.667 -6.32347 -1.29642 0
M  V30 3079 H 294.435 -8.177 -0.361786 0
M  V30 3080 N 297.098 0.621204 -1.44841 0
M  V30 3081 C 298.514 0.94048 -1.28946 0
M  V30 3082 C 298.714 2.00154 -0.23249 0
M  V30 3083 O 297.77 2.49651 0.378237 0
M  V30 3084 C 299.083 1.39433 -2.66419 0
M  V30 3085 C 300.631 1.50927 -2.74208 0
M  V30 3086 C 301.106 1.99692 -4.12174 0
M  V30 3087 N 302.597 2.06947 -4.144 0
M  V30 3088 C 303.332 2.45871 -5.1801 0
M  V30 3089 N 302.828 2.83862 -6.31977 0
M  V30 3090 N 304.621 2.46092 -5.05366 0
M  V30 3091 H 296.772 -0.0803548 -2.12248 0
M  V30 3092 H 299.035 0.0266913 -0.947624 0
M  V30 3093 H 298.741 0.688925 -3.44887 0
M  V30 3094 H 298.615 2.36347 -2.93973 0
M  V30 3095 H 301.002 2.20561 -1.96053 0
M  V30 3096 H 301.083 0.523627 -2.50383 0
M  V30 3097 H 300.727 1.30649 -4.90809 0
M  V30 3098 H 300.657 2.99146 -4.33381 0
M  V30 3099 H 303.148 1.80232 -3.32152 0
M  V30 3100 H 303.461 3.12405 -7.0684 0
M  V30 3101 H 301.806 2.8159 -6.35399 0
M  V30 3102 H 304.997 2.1581 -4.15384 0
M  V30 3103 H 305.17 2.76102 -5.86235 0
M  V30 3104 N 298.576 1.31904 0.862503 0
M  V30 3105 C 299.539 1.20131 1.95195 0
M  V30 3106 C 300.539 0.126409 1.60302 0
M  V30 3107 O 301.729 0.376234 1.70089 0
M  V30 3108 C 298.861 0.845691 3.30244 0
M  V30 3109 H 300.054 2.16943 2.07064 0
M  V30 3110 H 297.607 1.15622 1.05172 0
M  V30 3111 H 298.342 -0.120957 3.24074 0
M  V30 3112 H 298.127 1.62276 3.56944 0
M  V30 3113 H 299.617 0.787418 4.10109 0
M  V30 3114 N 300.054 -1.07777 1.14986 0
M  V30 3115 C 300.964 -2.18404 0.856546 0
M  V30 3116 C 301.98 -1.73211 -0.165485 0
M  V30 3117 O 303.156 -2.01399 0.00755219 0
M  V30 3118 C 300.221 -3.44977 0.34526 0
M  V30 3119 C 299.282 -4.0476 1.43065 0
M  V30 3120 C 298.515 -5.25291 0.943663 0
M  V30 3121 O 298.738 -5.70004 -0.212426 0
M  V30 3122 O 297.672 -5.76638 1.72547 0
M  V30 3123 H 301.498 -2.45978 1.78125 0
M  V30 3124 H 299.083 -1.17033 0.928631 0
M  V30 3125 H 300.965 -4.21348 0.0663671 0
M  V30 3126 H 299.64 -3.18965 -0.551631 0
M  V30 3127 H 298.547 -3.29949 1.76309 0
M  V30 3128 H 299.88 -4.35035 2.30229 0
M  V30 3129 N 301.532 -0.945985 -1.26051 0
M  V30 3130 C 302.778 -0.597002 -1.93814 0
M  V30 3131 C 303.111 0.862484 -1.73997 0
M  V30 3132 O 302.386 1.61769 -1.07986 0
M  V30 3133 C 302.669 -0.945937 -3.47454 0
M  V30 3134 C 302.522 -2.46052 -3.76535 0
M  V30 3135 C 303.841 -0.464785 -4.37639 0
M  V30 3136 H 300.96 -0.218366 -0.703907 0
M  V30 3137 H 303.602 -1.18107 -1.48831 0
M  V30 3138 H 301.752 -0.448902 -3.85898 0
M  V30 3139 H 303.424 -3.03065 -3.47778 0
M  V30 3140 H 301.667 -2.90194 -3.22444 0
M  V30 3141 H 302.338 -2.65517 -4.83947 0
M  V30 3142 H 304.814 -0.891016 -4.06448 0
M  V30 3143 H 303.69 -0.737712 -5.4392 0
M  V30 3144 H 303.951 0.635274 -4.37512 0
M  V30 3145 N 303.011 1.40521 -0.713556 0
M  V30 3146 C 304.288 1.94775 -0.17943 0
M  V30 3147 C 304.668 1.65184 1.31444 0
M  V30 3148 O 304.016 0.968429 2.06963 0
M  V30 3149 C 304.226 3.45543 -0.489986 0
M  V30 3150 C 305.574 4.22442 -0.427536 0
M  V30 3151 O 306.598 3.53644 -0.425929 0
M  V30 3152 O 305.457 5.4501 -0.403292 0
M  V30 3153 H 302.551 0.826606 -0.0255192 0
M  V30 3154 H 305.097 1.5014 -0.790949 0
M  V30 3155 H 303.869 3.60432 -1.5233 0
M  V30 3156 H 303.492 3.97311 0.151598 0
M  V30 3157 N 304.489 0.459591 1.5075 0
M  V30 3158 C 305.735 -0.0994966 2.02556 0
M  V30 3159 C 306.068 -1.40399 1.3417 0
M  V30 3160 O 305.343 -1.88892 0.463683 0
M  V30 3161 C 305.626 -0.295242 3.58888 0
M  V30 3162 C 305.479 1.02947 4.37861 0
M  V30 3163 C 306.798 -1.05502 4.27267 0
M  V30 3164 H 303.917 -0.034686 0.736183 0
M  V30 3165 H 306.559 0.602938 1.8018 0
M  V30 3166 H 304.709 -0.893563 3.78084 0
M  V30 3167 H 306.381 1.66348 4.30263 0
M  V30 3168 H 304.624 1.62885 4.02058 0
M  V30 3169 H 305.295 0.846281 5.45474 0
M  V30 3170 H 307.771 -0.547993 4.12476 0
M  V30 3171 H 306.647 -1.16077 5.36486 0
M  V30 3172 H 306.908 -2.08875 3.89645 0
M  V30 3173 N 305.967 -1.56429 0.191757 0
M  V30 3174 C 307.215 -1.97095 -0.447006 0
M  V30 3175 C 307.536 -1.07967 -1.62383 0
M  V30 3176 O 306.806 -0.150248 -1.95323 0
M  V30 3177 H 305.386 -0.727832 -0.168135 0
M  V30 3178 H 308.048 -1.92911 0.27771 0
M  V30 3179 H 307.144 -3.01848 -0.793371 0
M  V30 3180 N 307.445 0.0818655 -1.57387 0
M  V30 3181 C 308.693 0.781368 -1.86384 0
M  V30 3182 C 309.014 1.78618 -0.782342 0
M  V30 3183 O 308.284 1.94976 0.190061 0
M  V30 3184 H 306.864 0.291562 -0.687751 0
M  V30 3185 H 309.526 0.060348 -1.94807 0
M  V30 3186 H 308.622 1.3038 -2.83562 0
M  V30 3187 N 308.923 1.53595 0.353017 0
M  V30 3188 C 310.334 1.61937 0.929153 0
M  V30 3189 C 310.685 0.494686 1.89861 0
M  V30 3190 O 309.81 -0.377017 2.1309 0
M  V30 3191 C 310.405 2.93526 1.69199 0
M  V30 3192 C 308.964 3.04161 2.21727 0
M  V30 3193 C 308.111 2.57322 1.03348 0
M  V30 3194 H 311.062 1.58155 0.131431 0
M  V30 3195 H 311.083 2.82034 2.55416 0
M  V30 3196 H 310.595 3.75362 0.986144 0
M  V30 3197 H 308.696 2.26938 2.95516 0
M  V30 3198 H 308.809 4.09465 2.48748 0
M  V30 3199 H 307.173 2.12499 1.40414 0
M  V30 3200 H 307.956 3.41588 0.342428 0
M  V30 3201 N 310.401 -0.613514 1.45168 0
M  V30 3202 C 311.331 -1.7354 1.56225 0
M  V30 3203 C 312.312 -1.64981 0.41414 0
M  V30 3204 O 313.497 -1.83472 0.636526 0
M  V30 3205 C 310.627 -3.12128 1.52295 0
M  V30 3206 C 309.581 -3.35491 2.65762 0
M  V30 3207 C 308.907 -4.74291 2.46885 0
M  V30 3208 C 310.207 -3.26325 4.0781 0
M  V30 3209 H 311.901 -1.64543 2.50132 0
M  V30 3210 H 309.447 -0.790185 1.20383 0
M  V30 3211 H 311.4 -3.90404 1.58628 0
M  V30 3212 H 310.124 -3.2195 0.549139 0
M  V30 3213 H 308.783 -2.59603 2.58847 0
M  V30 3214 H 308.431 -4.80839 1.47657 0
M  V30 3215 H 308.131 -4.9088 3.22972 0
M  V30 3216 H 309.655 -5.54775 2.55063 0
M  V30 3217 H 311.069 -3.94483 4.16 0
M  V30 3218 H 309.466 -3.54445 4.8424 0
M  V30 3219 H 310.536 -2.23855 4.30136 0
M  V30 3220 N 311.879 -1.3236 -0.855495 0
M  V30 3221 C 313.104 -1.2601 -1.64731 0
M  V30 3222 C 313.529 0.169068 -1.87339 0
M  V30 3223 O 312.887 1.12016 -1.42556 0
M  V30 3224 C 312.935 -2.02417 -2.98429 0
M  V30 3225 O 312.039 -1.3714 -3.8893 0
M  V30 3226 H 311.38 -0.434325 -0.502253 0
M  V30 3227 H 313.91 -1.74661 -1.06558 0
M  V30 3228 H 313.92 -2.12559 -3.48257 0
M  V30 3229 H 312.595 -3.06343 -2.81295 0
M  V30 3230 H 311.172 -1.3554 -3.47395 0
M  V30 3231 N 313.357 1.07166 -1.15556 0
M  V30 3232 C 314.32 2.12589 -0.856644 0
M  V30 3233 C 315.32 1.6015 0.14444 0
M  V30 3234 O 316.51 1.7399 -0.0854163 0
M  V30 3235 C 313.642 3.39753 -0.279405 0
M  V30 3236 H 314.835 2.40539 -1.79112 0
M  V30 3237 H 312.388 1.23086 -0.963298 0
M  V30 3238 H 313.123 3.17447 0.663174 0
M  V30 3239 H 312.908 3.79117 -1.00063 0
M  V30 3240 H 314.398 4.17507 -0.0879113 0
M  V30 3241 N 314.835 0.952656 1.25548 0
M  V30 3242 C 316.06 0.623025 1.97821 0
M  V30 3243 C 316.485 -0.7976 1.70352 0
M  V30 3244 O 315.843 -1.53905 0.958283 0
M  V30 3245 C 315.891 0.885532 3.49558 0
M  V30 3246 O 314.995 -0.0366641 4.12384 0
M  V30 3247 H 314.336 0.237082 0.620232 0
M  V30 3248 H 316.866 1.27871 1.59719 0
M  V30 3249 H 316.876 0.811009 3.99858 0
M  V30 3250 H 315.551 1.92094 3.6888 0
M  V30 3251 H 314.128 0.0898954 3.72792 0
M  V30 3252 N 316.313 -1.40141 0.720998 0
M  V30 3253 C 317.561 -2.0039 0.262323 0
M  V30 3254 C 317.882 -1.57469 -1.15015 0
M  V30 3255 O 317.152 -0.816582 -1.78069 0
M  V30 3256 H 315.732 -0.741063 0.093996 0
M  V30 3257 H 318.394 -1.71398 0.927835 0
M  V30 3258 H 317.49 -3.10658 0.299671 0
M  V30 3259 N 317.792 -0.46758 -1.50504 0
M  V30 3260 C 318.74 0.342482 -2.30065 0
M  V30 3261 C 319.734 0.993596 -1.37201 0
M  V30 3262 O 320.94 0.925102 -1.54408 0
M  V30 3263 H 317.315 0.129283 -0.740803 0
M  V30 3264 H 319.286 -0.34899 -2.96352 0
M  V30 3265 C 318.035 1.4139 -3.17654 0
M  V30 3266 H 317.358 0.922264 -3.89017 0
M  V30 3267 H 318.798 1.95335 -3.76325 0
M  V30 3268 C 317.257 2.4139 -2.35016 0
M  V30 3269 O 317.787 3.46586 -2.03079 0
M  V30 3270 N 315.993 2.13021 -1.97662 0
M  V30 3271 H 315.54 1.27499 -2.23834 0
M  V30 3272 H 315.498 2.80164 -1.42673 0
M  V30 3273 N 319.27 1.56325 -0.20005 0
M  V30 3274 C 320.516 1.98012 0.438059 0
M  V30 3275 C 320.849 1.08702 1.60927 0
M  V30 3276 O 320.124 0.140064 1.93995 0
M  V30 3277 C 320.407 3.48841 0.893419 0
M  V30 3278 C 320.26 4.48928 -0.279947 0
M  V30 3279 C 321.579 4.03498 1.75719 0
M  V30 3280 H 318.698 0.719918 0.157757 0
M  V30 3281 H 321.34 1.87743 -0.291968 0
M  V30 3282 H 319.49 3.57723 1.51547 0
M  V30 3283 H 321.162 4.52079 -0.91772 0
M  V30 3284 H 319.405 4.23694 -0.930919 0
M  V30 3285 H 320.076 5.5194 0.0812601 0
M  V30 3286 H 322.552 3.97427 1.23253 0
M  V30 3287 H 321.428 5.09393 2.04476 0
M  V30 3288 H 321.689 3.4906 2.71311 0
M  V30 3289 N 320.748 -0.0735177 1.57428 0
M  V30 3290 C 322.164 -0.428264 1.53747 0
M  V30 3291 C 322.364 -1.79272 0.91998 0
M  V30 3292 O 321.42 -2.47051 0.521745 0
M  V30 3293 C 322.733 -0.370914 2.98404 0
M  V30 3294 C 324.281 -0.451224 3.0973 0
M  V30 3295 C 324.756 -0.4238 4.56035 0
M  V30 3296 N 326.247 -0.483925 4.60665 0
M  V30 3297 C 326.982 -0.484891 5.71346 0
M  V30 3298 N 326.478 -0.440775 6.91396 0
M  V30 3299 N 328.271 -0.531319 5.59583 0
M  V30 3300 H 320.422 0.819949 1.95935 0
M  V30 3301 H 322.685 0.307493 0.896745 0
M  V30 3302 H 322.391 0.564956 3.47133 0
M  V30 3303 H 322.265 -1.18176 3.5821 0
M  V30 3304 H 324.652 -1.37752 2.60976 0
M  V30 3305 H 324.733 0.388167 2.52838 0
M  V30 3306 H 324.377 0.498638 5.05446 0
M  V30 3307 H 324.307 -1.2807 5.10789 0
M  V30 3308 H 326.798 -0.522338 3.74273 0
M  V30 3309 H 327.111 -0.44539 7.71515 0
M  V30 3310 H 325.456 -0.40749 6.93804 0
M  V30 3311 H 328.647 -0.563464 4.64696 0
M  V30 3312 H 328.82 -0.528603 6.4584 0
M  V30 3313 N 322.226 -1.5378 -0.344866 0
M  V30 3314 C 323.474 -1.70625 -1.08311 0
M  V30 3315 C 323.795 -0.471447 -1.89215 0
M  V30 3316 O 323.065 0.514616 -1.8902 0
M  V30 3317 H 321.645 -0.629058 -0.402859 0
M  V30 3318 H 324.307 -1.9103 -0.386459 0
M  V30 3319 H 323.403 -2.57656 -1.76124 0
M  V30 3320 N 323.704 0.605807 -1.45491 0
M  V30 3321 C 325.12 0.926751 -1.29936 0
M  V30 3322 C 325.32 1.99896 -0.253706 0
M  V30 3323 O 324.376 2.50038 0.351737 0
M  V30 3324 C 325.689 1.36599 -2.67883 0
M  V30 3325 C 327.237 1.4801 -2.75793 0
M  V30 3326 C 327.712 1.95309 -4.14268 0
M  V30 3327 N 329.203 2.0254 -4.16571 0
M  V30 3328 C 329.938 2.40363 -5.20589 0
M  V30 3329 N 329.434 2.77143 -6.34952 0
M  V30 3330 N 331.227 2.40718 -5.07948 0
M  V30 3331 H 323.378 -0.102862 -2.12151 0
M  V30 3332 H 325.641 0.016639 -0.947854 0
M  V30 3333 H 325.347 0.652306 -3.45598 0
M  V30 3334 H 325.221 2.33215 -2.96463 0
M  V30 3335 H 327.608 2.1847 -1.98381 0
M  V30 3336 H 327.689 0.497041 -2.50925 0
M  V30 3337 H 327.333 1.25436 -4.92167 0
M  V30 3338 H 327.263 2.94532 -4.3653 0
M  V30 3339 H 329.754 1.76699 -3.34045 0
M  V30 3340 H 330.067 3.0489 -7.10114 0
M  V30 3341 H 328.412 2.74834 -6.3835 0
M  V30 3342 H 331.603 2.11392 -4.1765 0
M  V30 3343 H 331.776 2.69869 -5.89131 0
M  V30 3344 N 325.182 1.32811 0.848464 0
M  V30 3345 C 326.145 1.22194 1.9391 0
M  V30 3346 C 327.145 0.143404 1.60159 0
M  V30 3347 O 328.335 0.394253 1.6968 0
M  V30 3348 C 325.467 0.88067 3.29328 0
M  V30 3349 H 326.66 2.19127 2.04752 0
M  V30 3350 H 324.213 1.16731 1.0394 0
M  V30 3351 H 324.948 -0.0865776 3.24184 0
M  V30 3352 H 324.733 1.66052 3.55203 0
M  V30 3353 H 326.223 0.830871 4.09251 0
M  V30 3354 N 326.66 -1.06551 1.16123 0
M  V30 3355 C 327.906 -1.79567 0.94252 0
M  V30 3356 C 328.239 -1.86869 -0.528547 0
M  V30 3357 O 327.514 -1.35838 -1.39206 0
M  V30 3358 C 327.797 -3.24195 1.56747 0
M  V30 3359 C 327.65 -3.24989 3.10969 0
M  V30 3360 C 328.969 -4.21678 1.25998 0
M  V30 3361 H 326.088 -0.651883 0.343828 0
M  V30 3362 H 328.73 -1.2463 1.43413 0
M  V30 3363 H 326.88 -3.71107 1.14942 0
M  V30 3364 H 328.552 -2.86258 3.61737 0
M  V30 3365 H 326.795 -2.63716 3.44436 0
M  V30 3366 H 327.466 -4.27005 3.49815 0
M  V30 3367 H 329.942 -3.83196 1.62174 0
M  V30 3368 H 328.818 -5.21146 1.7233 0
M  V30 3369 H 329.079 -4.4174 0.178367 0
M  V30 3370 N 328.138 -0.959301 -1.25041 0
M  V30 3371 C 329.101 -0.487677 -2.23952 0
M  V30 3372 C 330.101 0.41119 -1.55454 0
M  V30 3373 O 331.291 0.207825 -1.72956 0
M  V30 3374 C 328.423 0.294807 -3.39623 0
M  V30 3375 H 329.616 -1.36198 -2.67189 0
M  V30 3376 H 327.169 -0.743042 -1.37508 0
M  V30 3377 H 327.904 1.18658 -3.01813 0
M  V30 3378 H 327.689 -0.35012 -3.90534 0
M  V30 3379 H 329.179 0.614089 -4.1306 0
M  V30 3380 N 329.616 1.39756 -0.72842 0
M  V30 3381 C 330.579 2.29012 -0.0927297 0
M  V30 3382 C 331.579 1.45992 0.674025 0
M  V30 3383 O 332.769 1.66749 0.50402 0
M  V30 3384 C 329.901 3.29396 0.878137 0
M  V30 3385 H 331.094 2.86729 -0.879011 0
M  V30 3386 H 328.647 1.48293 -0.493847 0
M  V30 3387 H 329.382 2.76722 1.69101 0
M  V30 3388 H 329.167 3.907 0.331051 0
M  V30 3389 H 330.657 3.96199 1.3197 0
M  V30 3390 N 331.094 0.475555 1.50254 0
M  V30 3391 C 332.324 -0.0753399 2.06463 0
M  V30 3392 C 332.732 -1.33661 1.33908 0
M  V30 3393 O 332.075 -1.79219 0.403257 0
M  V30 3394 C 332.137 -0.424921 3.5698 0
M  V30 3395 C 331.801 0.734965 4.51051 0
M  V30 3396 C 332.798 1.61827 4.94073 0
M  V30 3397 C 330.483 0.926557 4.9368 0
M  V30 3398 C 332.477 2.67754 5.78434 0
M  V30 3399 C 330.164 1.98904 5.77824 0
M  V30 3400 C 331.162 2.8629 6.20103 0
M  V30 3401 O 330.85 3.90708 7.02568 0
M  V30 3402 H 330.582 0.00576308 0.675975 0
M  V30 3403 H 333.136 0.664662 1.94349 0
M  V30 3404 H 331.366 -1.21817 3.67012 0
M  V30 3405 H 333.055 -0.911422 3.95535 0
M  V30 3406 H 333.821 1.48196 4.61804 0
M  V30 3407 H 329.7 0.25584 4.6029 0
M  V30 3408 H 333.244 3.35992 6.11355 0
M  V30 3409 H 329.141 2.12541 6.09505 0
M  V30 3410 H 329.909 3.87751 7.20827 0
M  V30 3411 N 332.573 -1.56217 0.208337 0
M  V30 3412 C 333.483 -2.23316 -0.718836 0
M  V30 3413 C 334.499 -1.23648 -1.22422 0
M  V30 3414 O 335.675 -1.56423 -1.26861 0
M  V30 3415 C 332.74 -2.88968 -1.91568 0
M  V30 3416 C 331.801 -4.03943 -1.45357 0
M  V30 3417 C 331.034 -4.66455 -2.59337 0
M  V30 3418 O 331.257 -4.27919 -3.77149 0
M  V30 3419 O 330.191 -5.55686 -2.31293 0
M  V30 3420 H 334.017 -3.03182 -0.177315 0
M  V30 3421 H 331.602 -1.49384 -0.0215402 0
M  V30 3422 H 333.484 -3.30455 -2.61491 0
M  V30 3423 H 332.159 -2.12071 -2.44556 0
M  V30 3424 H 331.066 -3.67052 -0.722746 0
M  V30 3425 H 332.399 -4.82543 -0.970219 0
M  V30 3426 N 334.051 0.0651679 -1.57465 0
M  V30 3427 C 335.328 0.79644 -1.78651 0
M  V30 3428 C 335.708 1.95454 -0.797566 0
M  V30 3429 O 335.056 2.27882 0.167946 0
M  V30 3430 C 335.266 1.26322 -3.25337 0
M  V30 3431 C 336.614 1.6939 -3.89348 0
M  V30 3432 O 337.638 1.35872 -3.29268 0
M  V30 3433 O 336.497 2.31471 -4.95059 0
M  V30 3434 H 333.591 0.382157 -0.733407 0
M  V30 3435 H 336.137 0.0447311 -1.69641 0
M  V30 3436 H 334.909 0.434859 -3.88876 0
M  V30 3437 H 334.532 2.07604 -3.39096 0
M  V30 3438 N 335.529 1.53961 0.336706 0
M  V30 3439 C 336.945 1.44378 0.680241 0
M  V30 3440 C 337.145 0.606034 1.9217 0
M  V30 3441 O 336.201 0.099688 2.52303 0
M  V30 3442 C 337.514 2.87945 0.8665 0
M  V30 3443 C 339.062 2.97763 0.964682 0
M  V30 3444 C 339.537 4.42453 1.18321 0
M  V30 3445 N 341.028 4.46008 1.25025 0
M  V30 3446 C 341.763 5.55102 1.43697 0
M  V30 3447 N 341.259 6.7419 1.59498 0
M  V30 3448 N 343.052 5.42727 1.463 0
M  V30 3449 H 335.203 2.06918 -0.479455 0
M  V30 3450 H 337.466 0.935634 -0.152619 0
M  V30 3451 H 337.172 3.51691 0.0256937 0
M  V30 3452 H 337.046 3.33293 1.76623 0
M  V30 3453 H 339.433 2.34153 1.796 0
M  V30 3454 H 339.514 2.55766 0.041708 0
M  V30 3455 H 339.158 5.06645 0.356788 0
M  V30 3456 H 339.088 4.82048 2.11985 0
M  V30 3457 H 341.579 3.60196 1.14312 0
M  V30 3458 H 341.892 7.53095 1.734 0
M  V30 3459 H 340.237 6.77123 1.56621 0
M  V30 3460 H 343.428 4.48647 1.33543 0
M  V30 3461 H 343.601 6.27806 1.6051 0
M  V30 3462 N 337.007 -0.598083 1.45811 0
M  V30 3463 C 338.284 -1.35777 1.40797 0
M  V30 3464 C 338.664 -2.10935 0.083462 0
M  V30 3465 O 338.012 -2.08505 -0.934763 0
M  V30 3466 C 338.222 -2.29666 2.62783 0
M  V30 3467 C 339.57 -2.91977 3.08277 0
M  V30 3468 O 340.594 -2.39984 2.63223 0
M  V30 3469 O 339.453 -3.86376 3.86491 0
M  V30 3470 H 336.547 -0.609291 0.55919 0
M  V30 3471 H 339.093 -0.620379 1.57954 0
M  V30 3472 H 337.865 -1.73454 3.50756 0
M  V30 3473 H 337.488 -3.1077 2.48008 0
M  V30 3474 N 338.485 -1.33259 -0.841409 0
M  V30 3475 C 339.715 -1.2742 -1.62628 0
M  V30 3476 C 340.123 0.157604 -1.88542 0
M  V30 3477 O 339.466 1.10938 -1.46419 0
M  V30 3478 C 339.528 -1.97797 -3.00194 0
M  V30 3479 C 339.192 -3.47109 -2.97261 0
M  V30 3480 C 340.189 -4.42358 -2.73159 0
M  V30 3481 C 337.874 -3.89247 -3.17478 0
M  V30 3482 C 339.868 -5.77718 -2.69296 0
M  V30 3483 C 337.555 -5.24713 -3.13241 0
M  V30 3484 C 338.553 -6.1876 -2.89181 0
M  V30 3485 O 338.241 -7.51745 -2.84843 0
M  V30 3486 H 337.973 -0.440436 -0.512827 0
M  V30 3487 H 340.527 -1.76153 -1.05638 0
M  V30 3488 H 338.757 -1.43652 -3.59028 0
M  V30 3489 H 340.446 -1.8549 -3.61038 0
M  V30 3490 H 341.212 -4.11127 -2.57294 0
M  V30 3491 H 337.091 -3.16456 -3.35226 0
M  V30 3492 H 340.635 -6.51097 -2.50436 0
M  V30 3493 H 336.532 -5.55569 -3.28654 0
M  V30 3494 H 337.3 -7.61262 -3.00702 0
M  V30 3495 N 339.963 1.05934 -1.16686 0
M  V30 3496 C 341.21 1.788 -0.950622 0
M  V30 3497 C 341.538 1.87384 0.521305 0
M  V30 3498 O 340.793 1.36438 1.40297 0
M  V30 3499 C 341.092 3.23105 -1.52767 0
M  V30 3500 C 340.758 3.34594 -3.02254 0
M  V30 3501 C 339.42 3.37437 -3.43059 0
M  V30 3502 C 341.772 3.36219 -3.98254 0
M  V30 3503 C 339.1 3.39525 -4.78477 0
M  V30 3504 C 341.452 3.39845 -5.33562 0
M  V30 3505 C 340.116 3.40971 -5.73842 0
M  V30 3506 H 339.386 0.654275 -0.347857 0
M  V30 3507 H 342.033 1.24555 -1.45459 0
M  V30 3508 H 340.338 3.80227 -0.94524 0
M  V30 3509 H 342.035 3.7809 -1.336 0
M  V30 3510 H 338.625 3.3309 -2.6972 0
M  V30 3511 H 342.809 3.33231 -3.67792 0
M  V30 3512 H 338.065 3.38703 -5.09009 0
M  V30 3513 H 342.239 3.4005 -6.07733 0
M  V30 3514 H 339.866 3.42342 -6.78753 0
M  V30 3515 N 341.441 0.965919 1.2453 0
M  V30 3516 C 342.671 0.643451 1.96324 0
M  V30 3517 C 343.079 -0.790927 1.71875 0
M  V30 3518 O 342.422 -1.54208 0.998273 0
M  V30 3519 C 342.484 0.836078 3.49643 0
M  V30 3520 C 342.148 2.24975 3.97788 0
M  V30 3521 C 343.145 3.22735 4.07601 0
M  V30 3522 C 340.83 2.57697 4.31158 0
M  V30 3523 C 342.824 4.51303 4.50116 0
M  V30 3524 C 340.511 3.86492 4.73357 0
M  V30 3525 C 341.509 4.83107 4.828 0
M  V30 3526 O 341.197 6.09605 5.24058 0
M  V30 3527 H 340.929 0.239223 0.632257 0
M  V30 3528 H 343.483 1.29587 1.59362 0
M  V30 3529 H 341.713 0.12649 3.86493 0
M  V30 3530 H 343.402 0.512965 4.02646 0
M  V30 3531 H 344.168 2.98783 3.82039 0
M  V30 3532 H 340.047 1.83216 4.23028 0
M  V30 3533 H 343.591 5.26716 4.57401 0
M  V30 3534 H 339.488 4.10245 4.98366 0
M  V30 3535 H 340.256 6.13146 5.42213 0
M  V30 3536 N 342.919 -1.39368 0.735821 0
M  V30 3537 C 344.196 -1.94465 0.210395 0
M  V30 3538 C 344.576 -1.67254 -1.28799 0
M  V30 3539 O 343.924 -1.00123 -2.05396 0
M  V30 3540 C 344.134 -3.4472 0.544897 0
M  V30 3541 C 345.482 -4.21708 0.494689 0
M  V30 3542 O 346.506 -3.52922 0.482136 0
M  V30 3543 O 345.365 -5.44299 0.489947 0
M  V30 3544 H 342.459 -0.826096 0.0386666 0
M  V30 3545 H 345.005 -1.48863 0.814735 0
M  V30 3546 H 343.777 -3.57963 1.58045 0
M  V30 3547 H 343.4 -3.97502 -0.08837 0
M  V30 3548 N 344.397 -0.483516 -1.5 0
M  V30 3549 C 345.643 0.0672592 -2.02688 0
M  V30 3550 C 345.976 1.38247 -1.36387 0
M  V30 3551 O 345.251 1.88131 -0.493675 0
M  V30 3552 C 345.534 0.238109 -3.59312 0
M  V30 3553 C 345.387 -1.099 -4.36168 0
M  V30 3554 C 346.706 0.986916 -4.28892 0
M  V30 3555 H 343.825 0.0229696 -0.736642 0
M  V30 3556 H 346.467 -0.631527 -1.79197 0
M  V30 3557 H 344.617 0.8333 -3.79458 0
M  V30 3558 H 346.289 -1.73172 -4.27562 0
M  V30 3559 H 344.532 -1.69261 -3.99416 0
M  V30 3560 H 345.203 -0.932954 -5.44059 0
M  V30 3561 H 347.679 0.482302 -4.13295 0
M  V30 3562 H 346.555 1.07527 -5.38265 0
M  V30 3563 H 346.816 2.0265 -3.92919 0
M  V30 3564 N 345.875 1.56104 -0.216619 0
M  V30 3565 C 346.838 2.18819 0.681962 0
M  V30 3566 C 347.838 1.14866 1.12528 0
M  V30 3567 O 349.028 1.40128 1.03488 0
M  V30 3568 C 346.16 2.80756 1.93362 0
M  V30 3569 H 347.353 2.99595 0.135254 0
M  V30 3570 H 344.906 1.56265 0.0330003 0
M  V30 3571 H 345.641 2.03837 2.52232 0
M  V30 3572 H 345.426 3.56876 1.62426 0
M  V30 3573 H 346.916 3.28844 2.57393 0
M  V30 3574 N 347.353 -0.0568162 1.57498 0
M  V30 3575 C 348.63 -0.786954 1.79071 0
M  V30 3576 C 349.01 -1.95028 0.80792 0
M  V30 3577 O 348.358 -2.27968 -0.155858 0
M  V30 3578 C 348.568 -1.24594 3.26002 0
M  V30 3579 C 349.916 -1.67323 3.90241 0
M  V30 3580 O 350.94 -1.34124 3.29984 0
M  V30 3581 O 349.799 -2.28842 4.9628 0
M  V30 3582 H 346.893 -0.378262 0.735423 0
M  V30 3583 H 349.439 -0.035734 1.69662 0
M  V30 3584 H 348.211 -0.41423 3.89101 0
M  V30 3585 H 347.834 -2.05803 3.40192 0
M  V30 3586 N 348.832 -1.54138 -0.328536 0
M  V30 3587 C 349.764 -1.79509 -1.4251 0
M  V30 3588 C 350.777 -0.67688 -1.48061 0
M  V30 3589 O 351.966 -0.953898 -1.50874 0
M  V30 3590 C 349.066 -1.89337 -2.81078 0
M  V30 3591 C 348.239 -3.19443 -2.98789 0
M  V30 3592 C 347.298 -3.20036 -4.17688 0
M  V30 3593 O 346.324 -3.93697 -4.11086 0
M  V30 3594 N 347.526 -2.43467 -5.26976 0
M  V30 3595 H 350.291 -2.74139 -1.21111 0
M  V30 3596 H 347.852 -1.53373 -0.518499 0
M  V30 3597 H 349.844 -1.87167 -3.58818 0
M  V30 3598 H 348.414 -1.01826 -2.95551 0
M  V30 3599 H 347.634 -3.34614 -2.08391 0
M  V30 3600 H 348.922 -4.05354 -3.07515 0
M  V30 3601 H 348.32 -1.83201 -5.35214 0
M  V30 3602 H 346.877 -2.4708 -6.03154 0
M  V30 3603 N 350.31 0.590341 -1.46126 0
M  V30 3604 C 351.558 1.34616 -1.50742 0
M  V30 3605 C 351.879 1.94363 -0.157486 0
M  V30 3606 O 351.149 1.78136 0.815136 0
M  V30 3607 H 349.729 0.499789 -0.555175 0
M  V30 3608 H 352.391 0.691953 -1.82203 0
M  V30 3609 H 351.487 2.15678 -2.25587 0
M  V30 3610 N 351.788 1.33704 0.83433 0
M  V30 3611 C 353.016 1.28467 1.62185 0
M  V30 3612 C 353.431 -0.143526 1.88254 0
M  V30 3613 O 352.788 -1.08709 1.4659 0
M  V30 3614 C 352.839 2.06174 2.96942 0
M  V30 3615 O 352.56 3.43422 2.72016 0
M  V30 3616 C 354.061 2.08201 3.91366 0
M  V30 3617 H 351.281 0.4424 0.504503 0
M  V30 3618 H 353.825 1.76145 1.03891 0
M  V30 3619 H 351.98 1.62167 3.51825 0
M  V30 3620 H 352.394 3.83453 3.57861 0
M  V30 3621 H 353.868 2.67017 4.83121 0
M  V30 3622 H 354.345 1.07343 4.2588 0
M  V30 3623 H 354.951 2.52246 3.42421 0
M  V30 3624 N 353.266 -1.05314 1.17247 0
M  V30 3625 C 354.682 -1.30452 0.919473 0
M  V30 3626 C 354.882 -1.9703 -0.42209 0
M  V30 3627 O 353.938 -2.24311 -1.15935 0
M  V30 3628 C 355.251 -2.17551 2.07586 0
M  V30 3629 C 356.799 -2.30937 2.11275 0
M  V30 3630 C 357.274 -3.21396 3.26296 0
M  V30 3631 N 358.765 -3.28981 3.26076 0
M  V30 3632 C 359.5 -3.99095 4.11716 0
M  V30 3633 N 358.996 -4.71648 5.07465 0
M  V30 3634 N 360.789 -3.95247 3.9967 0
M  V30 3635 H 352.94 -0.604988 2.03602 0
M  V30 3636 H 355.203 -0.329368 0.888944 0
M  V30 3637 H 354.909 -1.75921 3.0454 0
M  V30 3638 H 354.783 -3.18182 2.02584 0
M  V30 3639 H 357.17 -2.71809 1.14907 0
M  V30 3640 H 357.251 -1.2994 2.20339 0
M  V30 3641 H 356.895 -2.81238 4.22927 0
M  V30 3642 H 356.825 -4.22395 3.14467 0
M  V30 3643 H 359.316 -2.77286 2.5675 0
M  V30 3644 H 359.629 -5.22705 5.6921 0
M  V30 3645 H 357.974 -4.70594 5.11435 0
M  V30 3646 H 361.165 -3.37691 3.24164 0
M  V30 3647 H 361.338 -4.4962 4.66632 0
M  V30 3648 N 354.744 -0.972509 -1.24016 0
M  V30 3649 C 355.674 -0.525548 -2.27509 0
M  V30 3650 C 356.655 0.437262 -1.64384 0
M  V30 3651 O 357.84 0.332343 -1.91335 0
M  V30 3652 C 354.97 0.180448 -3.46831 0
M  V30 3653 C 353.924 -0.698859 -4.22256 0
M  V30 3654 C 353.25 0.138903 -5.3452 0
M  V30 3655 C 354.55 -1.98582 -4.83076 0
M  V30 3656 H 356.244 -1.39058 -2.65148 0
M  V30 3657 H 353.79 -0.67009 -1.27459 0
M  V30 3658 H 355.743 0.504387 -4.18371 0
M  V30 3659 H 354.467 1.07987 -3.08231 0
M  V30 3660 H 353.126 -1.00614 -3.52523 0
M  V30 3661 H 352.774 1.03862 -4.9216 0
M  V30 3662 H 352.474 -0.446259 -5.85903 0
M  V30 3663 H 353.998 0.457404 -6.08884 0
M  V30 3664 H 355.412 -1.72715 -5.46665 0
M  V30 3665 H 353.809 -2.5181 -5.44713 0
M  V30 3666 H 354.879 -2.67769 -4.04262 0
M  V30 3667 N 356.222 1.38976 -0.743202 0
M  V30 3668 C 357.152 2.33171 -0.123873 0
M  V30 3669 C 358.133 1.54336 0.71516 0
M  V30 3670 O 359.318 1.82696 0.658467 0
M  V30 3671 C 356.448 3.38474 0.777978 0
M  V30 3672 C 355.402 4.27979 0.0424758 0
M  V30 3673 C 354.728 5.2405 1.06189 0
M  V30 3674 C 356.028 5.10155 -1.1198 0
M  V30 3675 H 357.722 2.85213 -0.910709 0
M  V30 3676 H 355.268 1.37133 -0.439388 0
M  V30 3677 H 357.221 4.03328 1.22084 0
M  V30 3678 H 355.945 2.84891 1.59702 0
M  V30 3679 H 354.604 3.64616 -0.380853 0
M  V30 3680 H 354.252 4.66758 1.87472 0
M  V30 3681 H 353.952 5.84785 0.574485 0
M  V30 3682 H 355.476 5.9178 1.50428 0
M  V30 3683 H 356.89 5.68307 -0.75499 0
M  V30 3684 H 355.287 5.80073 -1.53738 0
M  V30 3685 H 356.357 4.44504 -1.93764 0
M  V30 3686 N 357.7 0.491464 1.49741 0
M  V30 3687 C 358.93 -0.0534375 2.06531 0
M  V30 3688 C 359.338 -1.32233 1.35318 0
M  V30 3689 O 358.681 -1.78781 0.422243 0
M  V30 3690 C 358.743 -0.387034 3.57411 0
M  V30 3691 C 358.407 0.782764 4.50246 0
M  V30 3692 C 359.404 1.67059 4.92329 0
M  V30 3693 C 357.089 0.978866 4.9267 0
M  V30 3694 C 359.083 2.73874 5.75562 0
M  V30 3695 C 356.77 2.05022 5.75682 0
M  V30 3696 C 357.768 2.92851 6.17031 0
M  V30 3697 O 357.456 3.98138 6.98385 0
M  V30 3698 H 357.188 0.0129324 0.675876 0
M  V30 3699 H 359.742 0.685238 1.93633 0
M  V30 3700 H 357.972 -1.17918 3.68283 0
M  V30 3701 H 359.661 -0.869419 3.96479 0
M  V30 3702 H 360.427 1.53086 4.60206 0
M  V30 3703 H 356.306 0.304646 4.59992 0
M  V30 3704 H 359.85 3.42458 6.07757 0
M  V30 3705 H 355.747 2.18993 6.07217 0
M  V30 3706 H 356.515 3.95374 7.16674 0
M  V30 3707 N 359.178 -1.55987 0.224894 0
M  V30 3708 C 360.426 -1.97998 -0.405099 0
M  V30 3709 C 360.747 -1.11387 -1.60056 0
M  V30 3710 O 360.017 -0.191645 -1.9496 0
M  V30 3711 H 358.597 -0.731235 -0.152658 0
M  V30 3712 H 361.259 -1.92279 0.318567 0
M  V30 3713 H 360.355 -3.03463 -0.729167 0
M  V30 3714 N 360.656 0.0484629 -1.57525 0
M  V30 3715 C 361.902 0.744226 -1.88651 0
M  V30 3716 C 362.235 1.76029 -0.820212 0
M  V30 3717 O 361.51 1.93782 0.166985 0
M  V30 3718 C 361.793 1.43128 -3.30434 0
M  V30 3719 C 361.646 0.43005 -4.47739 0
M  V30 3720 C 362.965 2.37031 -3.70816 0
M  V30 3721 H 360.084 0.269089 -0.68612 0
M  V30 3722 H 362.726 0.00713532 -1.89999 0
M  V30 3723 H 360.876 2.05956 -3.29415 0
M  V30 3724 H 362.548 -0.194816 -4.60888 0
M  V30 3725 H 360.791 -0.252522 -4.33064 0
M  V30 3726 H 361.462 0.948874 -5.43783 0
M  V30 3727 H 363.938 1.84263 -3.73077 0
M  V30 3728 H 362.814 2.82094 -4.70865 0
M  V30 3729 H 363.075 3.22864 -3.02012 0
M  V30 3730 N 362.134 1.5431 0.320358 0
M  V30 3731 C 363.362 1.76636 1.07738 0
M  V30 3732 C 363.777 0.51649 1.81598 0
M  V30 3733 O 363.134 -0.512942 1.75143 0
M  V30 3734 C 363.185 2.96158 2.07299 0
M  V30 3735 O 362.906 4.16313 1.36438 0
M  V30 3736 C 364.407 3.3072 2.95193 0
M  V30 3737 H 361.627 0.589597 0.320339 0
M  V30 3738 H 364.171 2.01207 0.36551 0
M  V30 3739 H 362.326 2.73851 2.74016 0
M  V30 3740 H 362.74 4.83565 2.03138 0
M  V30 3741 H 364.214 4.17643 3.60941 0
M  V30 3742 H 364.691 2.48026 3.62463 0
M  V30 3743 H 365.297 3.55117 2.34034 0
M  V30 3744 N 363.613 -0.582584 1.46437 0
M  V30 3745 C 364.523 -1.71949 1.59595 0
M  V30 3746 C 365.539 -1.67264 0.479443 0
M  V30 3747 O 366.715 -1.87171 0.743579 0
M  V30 3748 C 363.78 -3.08452 1.58298 0
M  V30 3749 C 362.841 -3.244 2.81182 0
M  V30 3750 C 362.074 -4.54391 2.79937 0
M  V30 3751 O 362.297 -5.38287 1.8869 0
M  V30 3752 O 361.231 -4.73588 3.71481 0
M  V30 3753 H 365.057 -1.63795 2.55744 0
M  V30 3754 H 362.642 -0.749643 1.29231 0
M  V30 3755 H 364.524 -3.89732 1.60271 0
M  V30 3756 H 363.199 -3.17043 0.653094 0
M  V30 3757 H 362.106 -2.42613 2.84763 0
M  V30 3758 H 363.439 -3.20699 3.7338 0
M  V30 3759 N 365.091 -1.34144 -0.827227 0
M  V30 3760 C 366.338 -1.26258 -1.58319 0
M  V30 3761 C 366.666 0.168595 -1.93768 0
M  V30 3762 O 365.921 1.12877 -1.59866 0
M  V30 3763 C 366.22 -2.09464 -2.89585 0
M  V30 3764 C 365.886 -3.58521 -2.73448 0
M  V30 3765 C 364.548 -3.99155 -2.68754 0
M  V30 3766 C 366.9 -4.53189 -2.57428 0
M  V30 3767 C 364.228 -5.32656 -2.45957 0
M  V30 3768 C 366.58 -5.86864 -2.36163 0
M  V30 3769 C 365.244 -6.26667 -2.29879 0
M  V30 3770 H 364.514 -0.462013 -0.579332 0
M  V30 3771 H 367.161 -1.65845 -0.95748 0
M  V30 3772 H 365.466 -1.62692 -3.56425 0
M  V30 3773 H 367.163 -2.00712 -3.47154 0
M  V30 3774 H 363.753 -3.26264 -2.77939 0
M  V30 3775 H 367.937 -4.22696 -2.60081 0
M  V30 3776 H 363.193 -5.62519 -2.39546 0
M  V30 3777 H 367.367 -6.59813 -2.22754 0
M  V30 3778 H 364.994 -7.30049 -2.11975 0
M  V30 3779 N 366.569 1.04691 -1.17803 0
M  V30 3780 C 367.846 1.7472 -0.879328 0
M  V30 3781 C 368.226 2.01812 0.619271 0
M  V30 3782 O 367.574 1.65824 1.57209 0
M  V30 3783 C 367.784 3.03686 -1.71976 0
M  V30 3784 C 369.132 3.77542 -1.94286 0
M  V30 3785 O 370.156 3.13569 -1.68976 0
M  V30 3786 O 369.015 4.92506 -2.36855 0
M  V30 3787 H 366.109 0.760011 -0.326056 0
M  V30 3788 H 368.655 1.10813 -1.28525 0
M  V30 3789 H 367.427 2.79754 -2.73594 0
M  V30 3790 H 367.05 3.75332 -1.31194 0
M  V30 3791 N 368.047 0.979072 1.23499 0
M  V30 3792 C 368.977 0.537606 2.27227 0
M  V30 3793 C 369.958 -0.428539 1.64613 0
M  V30 3794 O 371.143 -0.322191 1.91509 0
M  V30 3795 C 368.273 -0.162052 3.46922 0
M  V30 3796 C 367.227 0.721242 4.21879 0
M  V30 3797 C 366.553 -0.110555 5.34586 0
M  V30 3798 C 367.853 2.01141 4.82016 0
M  V30 3799 H 369.547 1.40462 2.64406 0
M  V30 3800 H 367.093 0.67684 1.27102 0
M  V30 3801 H 369.046 -0.482192 4.18632 0
M  V30 3802 H 367.77 -1.06351 3.08799 0
M  V30 3803 H 366.429 1.02482 3.51984 0
M  V30 3804 H 366.077 -1.0125 4.92704 0
M  V30 3805 H 365.777 0.477325 5.85658 0
M  V30 3806 H 367.301 -0.425107 6.09118 0
M  V30 3807 H 368.715 1.75612 5.45741 0
M  V30 3808 H 367.112 2.54695 5.43369 0
M  V30 3809 H 368.182 2.69909 4.02836 0
M  V30 3810 N 369.525 -1.3858 0.750561 0
M  V30 3811 C 370.75 -2.04997 0.314812 0
M  V30 3812 C 371.175 -1.56235 -1.04749 0
M  V30 3813 O 370.533 -0.712981 -1.66692 0
M  V30 3814 C 370.581 -3.58961 0.343415 0
M  V30 3815 O 369.685 -4.07025 -0.663628 0
M  V30 3816 H 369.026 -0.649081 0.139962 0
M  V30 3817 H 371.556 -1.77313 1.02084 0
M  V30 3818 H 371.566 -4.07542 0.193233 0
M  V30 3819 H 370.241 -3.93811 1.33738 0
M  V30 3820 H 368.818 -3.6982 -0.478307 0
M  V30 3821 N 371.003 -0.499398 -1.49478 0
M  V30 3822 C 372.414 -0.051215 -1.8663 0
M  V30 3823 C 372.765 1.36238 -1.41186 0
M  V30 3824 O 371.89 2.01502 -0.789051 0
M  V30 3825 C 372.485 -0.0861651 -3.3869 0
M  V30 3826 C 371.044 0.30667 -3.75149 0
M  V30 3827 C 370.191 -0.459397 -2.73468 0
M  V30 3828 H 373.142 -0.712264 -1.41818 0
M  V30 3829 H 373.163 0.709507 -3.73826 0
M  V30 3830 H 372.675 -1.11512 -3.71735 0
M  V30 3831 H 370.776 1.33892 -3.47712 0
M  V30 3832 H 370.889 -0.0116669 -4.79099 0
M  V30 3833 H 369.253 0.0905645 -2.54539 0
M  V30 3834 H 370.036 -1.4884 -3.09357 0
M  V30 3835 N 372.481 1.55866 -0.233164 0
M  V30 3836 C 373.758 1.90471 0.444988 0
M  V30 3837 C 374.138 1.15209 1.7689 0
M  V30 3838 O 373.486 0.265119 2.26957 0
M  V30 3839 C 373.696 3.4333 0.626559 0
M  V30 3840 C 375.044 4.14319 0.92871 0
M  V30 3841 O 376.068 3.48993 0.712926 0
M  V30 3842 O 374.927 5.29846 1.33887 0
M  V30 3843 H 372.021 0.792347 0.236885 0
M  V30 3844 H 374.567 1.67437 -0.276211 0
M  V30 3845 H 373.339 3.90095 -0.306822 0
M  V30 3846 H 372.962 3.72181 1.39881 0
M  V30 3847 N 373.959 -0.0401083 1.57549 0
M  V30 3848 C 375.187 -0.745196 1.93014 0
M  V30 3849 C 375.602 -1.6948 0.831984 0
M  V30 3850 O 374.959 -1.81482 -0.192463 0
M  V30 3851 C 375.01 -1.51176 3.28372 0
M  V30 3852 O 374.731 -0.600284 4.33968 0
M  V30 3853 C 376.232 -2.315 3.78051 0
M  V30 3854 H 373.452 -0.210088 0.637263 0
M  V30 3855 H 375.996 -0.000924689 2.045 0
M  V30 3856 H 374.151 -2.20801 3.18317 0
M  V30 3857 H 374.565 -1.13669 5.12035 0
M  V30 3858 H 376.039 -2.80697 4.75303 0
M  V30 3859 H 376.516 -3.12436 3.08675 0
M  V30 3860 H 377.122 -1.66971 3.91153 0
M  V30 3861 N 375.437 -1.54477 -0.31217 0
M  V30 3862 C 376.367 -1.87652 -1.38957 0
M  V30 3863 C 377.348 -0.734358 -1.53431 0
M  V30 3864 O 378.533 -0.98911 -1.67123 0
M  V30 3865 C 375.663 -2.11396 -2.75552 0
M  V30 3866 C 374.617 -3.27243 -2.75855 0
M  V30 3867 C 373.943 -3.36382 -4.15633 0
M  V30 3868 C 375.243 -4.64622 -2.38587 0
M  V30 3869 H 376.937 -2.77887 -1.11442 0
M  V30 3870 H 374.483 -1.33707 -0.534655 0
M  V30 3871 H 376.436 -2.33189 -3.51 0
M  V30 3872 H 375.16 -1.17921 -3.04569 0
M  V30 3873 H 373.819 -3.05356 -2.02863 0
M  V30 3874 H 373.467 -2.40445 -4.41809 0
M  V30 3875 H 373.167 -4.14249 -4.1674 0
M  V30 3876 H 374.691 -3.60422 -4.92877 0
M  V30 3877 H 376.105 -4.86219 -3.03749 0
M  V30 3878 H 374.502 -5.45121 -2.50925 0
M  V30 3879 H 375.572 -4.66097 -1.33723 0
M  V30 3880 N 376.915 0.57481 -1.46744 0
M  V30 3881 C 377.845 1.69337 -1.60771 0
M  V30 3882 C 378.826 1.63825 -0.457736 0
M  V30 3883 O 380.011 1.8172 -0.684947 0
M  V30 3884 C 377.141 3.0798 -1.60517 0
M  V30 3885 C 376.095 3.28327 -2.74564 0
M  V30 3886 C 375.421 4.67578 -2.59373 0
M  V30 3887 C 376.721 3.15398 -4.16319 0
M  V30 3888 H 378.415 1.57853 -2.54407 0
M  V30 3889 H 375.961 0.75799 -1.22436 0
M  V30 3890 H 377.914 3.86061 -1.68923 0
M  V30 3891 H 376.638 3.20381 -0.634305 0
M  V30 3892 H 375.297 2.52649 -2.65639 0
M  V30 3893 H 374.945 4.76755 -1.60353 0
M  V30 3894 H 374.645 4.82144 -3.35873 0
M  V30 3895 H 376.169 5.47817 -2.69682 0
M  V30 3896 H 377.583 3.83315 -4.26313 0
M  V30 3897 H 375.98 3.41482 -4.93468 0
M  V30 3898 H 377.05 2.12372 -4.3592 0
M  V30 3899 N 378.394 1.34581 0.820102 0
M  V30 3900 C 379.622 1.3018 1.60813 0
M  V30 3901 C 380.037 -0.123551 1.88395 0
M  V30 3902 O 379.394 -1.07148 1.47735 0
M  V30 3903 C 379.445 2.09312 2.94739 0
M  V30 3904 O 379.166 3.46288 2.68358 0
M  V30 3905 C 380.667 2.1234 3.89136 0
M  V30 3906 H 377.887 0.447726 0.499782 0
M  V30 3907 H 380.431 1.77237 1.02017 0
M  V30 3908 H 378.586 1.65889 3.50085 0
M  V30 3909 H 379 3.87227 3.53774 0
M  V30 3910 H 380.474 2.72126 4.80262 0
M  V30 3911 H 380.951 1.11854 4.24718 0
M  V30 3912 H 381.557 2.55864 3.39726 0
M  V30 3913 N 379.872 -1.04064 1.18357 0
M  V30 3914 C 381.118 -1.77528 0.980397 0
M  V30 3915 C 381.451 -1.87948 -0.48879 0
M  V30 3916 O 380.726 -1.3876 -1.36293 0
M  V30 3917 C 381.009 -3.20797 1.63588 0
M  V30 3918 C 380.862 -3.1832 3.17793 0
M  V30 3919 C 382.181 -4.18911 1.34914 0
M  V30 3920 H 379.3 -0.644443 0.357578 0
M  V30 3921 H 381.942 -1.2156 1.46024 0
M  V30 3922 H 380.092 -3.68586 1.22788 0
M  V30 3923 H 381.764 -2.78521 3.67728 0
M  V30 3924 H 380.007 -2.56351 3.49952 0
M  V30 3925 H 380.678 -4.19489 3.58794 0
M  V30 3926 H 383.154 -3.7967 1.70265 0
M  V30 3927 H 382.03 -5.17374 1.83346 0
M  V30 3928 H 382.291 -4.41262 0.272027 0
M  V30 3929 N 381.35 -0.985608 -1.22978 0
M  V30 3930 C 382.598 -0.656087 -1.91154 0
M  V30 3931 C 382.919 0.813561 -1.77218 0
M  V30 3932 O 382.189 1.58244 -1.1548 0
M  V30 3933 H 380.769 -0.239674 -0.707506 0
M  V30 3934 H 383.431 -1.25054 -1.49491 0
M  V30 3935 H 382.527 -0.912253 -2.9847 0
M  V30 3936 N 382.828 1.3818 -0.7579 0
M  V30 3937 C 383.791 2.28764 -0.141286 0
M  V30 3938 C 384.791 1.47388 0.642907 0
M  V30 3939 O 385.981 1.67781 0.468536 0
M  V30 3940 C 383.113 3.31184 0.808069 0
M  V30 3941 H 384.306 2.848 -0.939633 0
M  V30 3942 H 381.859 1.47212 -0.525191 0
M  V30 3943 H 382.594 2.80247 1.63193 0
M  V30 3944 H 382.379 3.91314 0.248104 0
M  V30 3945 H 383.869 3.98909 1.23536 0
M  V30 3946 N 384.306 0.507319 1.49211 0
M  V30 3947 C 385.238 -0.304532 2.27168 0
M  V30 3948 C 386.251 -0.924956 1.33972 0
M  V30 3949 O 387.44 -0.807227 1.59205 0
M  V30 3950 C 384.54 -1.44431 3.06583 0
M  V30 3951 C 383.713 -0.930026 4.27398 0
M  V30 3952 C 382.772 -1.94817 4.88807 0
M  V30 3953 O 381.798 -1.51418 5.4869 0
M  V30 3954 N 383 -3.279 4.79022 0
M  V30 3955 H 385.765 0.36395 2.97482 0
M  V30 3956 H 383.326 0.340249 1.58284 0
M  V30 3957 H 385.318 -2.12311 3.44537 0
M  V30 3958 H 383.888 -2.01684 2.38835 0
M  V30 3959 H 383.108 -0.0759244 3.94127 0
M  V30 3960 H 384.396 -0.564932 5.05654 0
M  V30 3961 H 383.794 -3.65843 4.3148 0
M  V30 3962 H 382.351 -3.91476 5.21142 0
M  V30 3963 N 385.784 -1.5574 0.241426 0
M  V30 3964 C 387.014 -2.02913 -0.38857 0
M  V30 3965 C 387.422 -1.12014 -1.52478 0
M  V30 3966 O 386.765 -0.125903 -1.83268 0
M  V30 3967 C 386.827 -3.4636 -0.963075 0
M  V30 3968 C 386.491 -4.56982 0.0401916 0
M  V30 3969 C 387.488 -5.12941 0.847766 0
M  V30 3970 C 385.173 -5.0203 0.164699 0
M  V30 3971 C 387.167 -6.12437 1.76636 0
M  V30 3972 C 384.854 -6.01358 1.0868 0
M  V30 3973 C 385.852 -6.5644 1.88616 0
M  V30 3974 O 385.54 -7.53831 2.79273 0
M  V30 3975 H 385.272 -0.668983 -0.0971452 0
M  V30 3976 H 387.826 -2.02198 0.361248 0
M  V30 3977 H 386.056 -3.44206 -1.76235 0
M  V30 3978 H 387.745 -3.77065 -1.50257 0
M  V30 3979 H 388.511 -4.78974 0.762133 0
M  V30 3980 H 384.39 -4.58824 -0.447411 0
M  V30 3981 H 387.934 -6.55355 2.39071 0
M  V30 3982 H 383.831 -6.34746 1.17338 0
M  V30 3983 H 384.599 -7.71428 2.73572 0
M  V30 3984 N 387.262 0.0317525 -1.57568 0
M  V30 3985 C 388.194 1.06073 -2.03178 0
M  V30 3986 C 389.207 1.32627 -0.944132 0
M  V30 3987 O 390.396 1.30162 -1.22148 0
M  V30 3988 C 387.496 2.40297 -2.38978 0
M  V30 3989 C 386.669 2.33137 -3.70089 0
M  V30 3990 C 385.728 3.49787 -3.9311 0
M  V30 3991 O 384.754 3.29403 -4.64201 0
M  V30 3992 N 385.956 4.71562 -3.38541 0
M  V30 3993 H 388.721 0.672006 -2.92069 0
M  V30 3994 H 386.282 0.219745 -1.60402 0
M  V30 3995 H 388.274 3.1705 -2.51518 0
M  V30 3996 H 386.844 2.71024 -1.55771 0
M  V30 3997 H 386.064 1.415 -3.67928 0
M  V30 3998 H 387.352 2.25493 -4.56104 0
M  V30 3999 H 386.75 4.91024 -2.80912 0
M  V30 4000 H 385.307 5.45689 -3.56464 0
M  V30 4001 N 388.74 1.54641 0.303973 0
M  V30 4002 C 389.69 1.8177 1.37636 0
M  V30 4003 C 390.674 0.674697 1.46071 0
M  V30 4004 O 391.866 0.935251 1.50273 0
M  V30 4005 C 388.995 2.06584 2.74186 0
M  V30 4006 C 388.081 3.2706 2.69986 0
M  V30 4007 N 388.472 4.47682 2.35402 0
M  V30 4008 C 386.77 3.29028 3.01092 0
M  V30 4009 C 387.471 5.29689 2.40426 0
M  V30 4010 N 386.447 4.67339 2.7766 0
M  V30 4011 H 390.249 2.72596 1.09857 0
M  V30 4012 H 387.763 1.541 0.51254 0
M  V30 4013 H 389.76 2.24166 3.51504 0
M  V30 4014 H 388.42 1.17024 3.02879 0
M  V30 4015 H 389.431 4.74336 2.07908 0
M  V30 4016 H 386.108 2.49565 3.34699 0
M  V30 4017 H 387.498 6.3606 2.16512 0
M  V30 4018 N 390.218 -0.567019 1.47046 0
M  V30 4019 C 391.467 -1.32091 1.5243 0
M  V30 4020 C 391.78 -1.94704 0.187021 0
M  V30 4021 O 392.986 -2.7124 0.118771 0
M  V30 4022 C 391.442 -2.39479 2.68659 0
M  V30 4023 C 391.05 -1.831 4.08874 0
M  V30 4024 C 392.794 -3.16111 2.83327 0
M  V30 4025 C 390.701 -2.8821 5.16419 0
M  V30 4026 H 389.631 -0.496629 0.56734 0
M  V30 4027 H 392.282 -0.603354 1.73297 0
M  V30 4028 H 390.664 -3.14105 2.41152 0
M  V30 4029 H 391.838 -1.14913 4.46242 0
M  V30 4030 H 390.153 -1.19085 3.99008 0
M  V30 4031 H 392.75 -3.94585 3.60842 0
M  V30 4032 H 393.093 -3.69686 1.91411 0
M  V30 4033 H 393.626 -2.48595 3.10556 0
M  V30 4034 H 390.365 -2.39504 6.10179 0
M  V30 4035 H 389.885 -3.54839 4.8358 0
M  V30 4036 H 391.564 -3.51881 5.42945 0
M  V30 4037 N 391.696 -1.35014 -0.812953 0
M  V30 4038 C 392.973 -1.18502 -1.55617 0
M  V30 4039 C 393.353 0.238421 -2.09749 0
M  V30 4040 O 392.701 1.2411 -1.91857 0
M  V30 4041 C 392.911 -2.24783 -2.66971 0
M  V30 4042 C 394.259 -2.60268 -3.35478 0
M  V30 4043 O 395.283 -2.23648 -2.77236 0
M  V30 4044 O 394.142 -3.2321 -4.40678 0
M  V30 4045 H 391.236 -0.459984 -0.687272 0
M  V30 4046 H 393.782 -1.46677 -0.853464 0
M  V30 4047 H 392.554 -3.20284 -2.24798 0
M  V30 4048 H 392.177 -1.97841 -3.44884 0
M  V30 4049 N 393.175 1.03435 -1.18907 0
M  V30 4050 C 394.4 1.80919 -1.01406 0
M  V30 4051 C 394.825 1.83055 0.432721 0
M  V30 4052 O 394.183 1.25252 1.31079 0
M  V30 4053 C 394.231 3.24091 -1.58105 0
M  V30 4054 O 393.335 4.04434 -0.806669 0
M  V30 4055 H 392.676 0.558709 -0.358803 0
M  V30 4056 H 395.206 1.30223 -1.57807 0
M  V30 4057 H 395.216 3.74853 -1.61087 0
M  V30 4058 H 393.891 3.21851 -2.6341 0
M  V30 4059 H 392.468 3.63091 -0.849666 0
M  V30 4060 N 394.653 0.992116 1.22453 0
M  V30 4061 C 395.902 0.662992 1.90492 0
M  V30 4062 C 396.215 -0.808407 1.78113 0
M  V30 4063 O 397.421 -1.24908 2.41061 0
M  V30 4064 C 395.877 1.1353 3.41524 0
M  V30 4065 C 395.485 2.63187 3.62542 0
M  V30 4066 C 397.229 0.880465 4.15269 0
M  V30 4067 C 395.136 3.04024 5.0727 0
M  V30 4068 H 394.066 0.244278 0.713333 0
M  V30 4069 H 396.717 1.20157 1.38688 0
M  V30 4070 H 395.099 0.52485 3.92506 0
M  V30 4071 H 396.273 3.2957 3.22056 0
M  V30 4072 H 394.588 2.86543 3.02129 0
M  V30 4073 H 397.185 1.16128 5.21937 0
M  V30 4074 H 397.528 -0.183408 4.15896 0
M  V30 4075 H 398.061 1.45307 3.70312 0
M  V30 4076 H 394.8 4.09584 5.11782 0
M  V30 4077 H 394.32 2.42343 5.48662 0
M  V30 4078 H 395.999 2.95282 5.75689 0
M  V30 4079 N 396.131 -1.37776 0.765217 0
M  V30 4080 C 397.359 -2.04124 0.337767 0
M  V30 4081 C 397.774 -1.57715 -1.03785 0
M  V30 4082 O 397.131 -0.755447 -1.6613 0
M  V30 4083 C 397.182 -3.59658 0.364442 0
M  V30 4084 O 396.903 -4.04367 1.68579 0
M  V30 4085 C 398.404 -4.43236 -0.0754221 0
M  V30 4086 H 395.624 -0.655696 0.142491 0
M  V30 4087 H 398.168 -1.76238 1.03732 0
M  V30 4088 H 396.323 -3.86339 -0.286471 0
M  V30 4089 H 396.737 -4.98857 1.61993 0
M  V30 4090 H 398.211 -5.52 -0.00560067 0
M  V30 4091 H 398.688 -4.2455 -1.12491 0
M  V30 4092 H 399.294 -4.21767 0.547055 0
M  V30 4093 N 397.609 -0.515225 -1.4894 0
M  V30 4094 C 398.557 0.269115 -2.31038 0
M  V30 4095 C 399.551 0.949443 -1.40292 0
M  V30 4096 O 400.757 0.87551 -1.57273 0
M  V30 4097 H 397.132 0.10565 -0.744542 0
M  V30 4098 H 399.103 -0.443096 -2.95092 0
M  V30 4099 C 397.852 1.31213 -3.21991 0
M  V30 4100 H 397.175 0.798034 -3.91754 0
M  V30 4101 H 398.615 1.83263 -3.82349 0
M  V30 4102 C 397.074 2.33791 -2.42576 0
M  V30 4103 O 397.604 3.3995 -2.14003 0
M  V30 4104 N 395.81 2.06625 -2.0434 0
M  V30 4105 H 395.357 1.20314 -2.27777 0
M  V30 4106 H 395.315 2.75483 -1.51514 0
M  V30 4107 N 399.087 1.5561 -0.249682 0
M  V30 4108 C 400.02 2.17537 0.689408 0
M  V30 4109 C 400.998 1.12829 1.17083 0
M  V30 4110 O 402.182 1.41229 1.24846 0
M  V30 4111 C 399.309 2.77828 1.93725 0
M  V30 4112 C 398.355 3.95615 1.59346 0
M  V30 4113 S 399.188 5.30988 0.69367 0
M  V30 4114 C 400.344 5.94734 1.95046 0
M  V30 4115 H 400.577 2.96852 0.163142 0
M  V30 4116 H 398.11 1.54362 -0.0341166 0
M  V30 4117 H 400.068 3.13199 2.65361 0
M  V30 4118 H 398.729 1.98454 2.43465 0
M  V30 4119 H 397.922 4.364 2.52132 0
M  V30 4120 H 397.524 3.61535 0.957512 0
M  V30 4121 H 399.816 6.12419 2.89739 0
M  V30 4122 H 400.759 6.90109 1.58604 0
M  V30 4123 H 401.167 5.23832 2.10381 0
M  V30 4124 N 400.565 -0.0233959 1.57583 0
M  V30 4125 C 401.528 -1.00693 2.05897 0
M  V30 4126 C 402.528 -1.28693 0.964092 0
M  V30 4127 O 403.718 -1.23602 1.22753 0
M  V30 4128 C 400.85 -2.33825 2.4807 0
M  V30 4129 H 402.043 -0.589476 2.9405 0
M  V30 4130 H 399.596 -0.270354 1.53944 0
M  V30 4131 H 400.331 -2.80307 1.6309 0
M  V30 4132 H 400.116 -2.1483 3.2801 0
M  V30 4133 H 401.606 -3.04426 2.85857 0
M  V30 4134 N 402.043 -1.548 -0.295768 0
M  V30 4135 C 403.291 -1.73985 -1.02828 0
M  V30 4136 C 403.612 -0.531406 -1.87619 0
M  V30 4137 O 402.882 0.454221 -1.90561 0
M  V30 4138 H 401.462 -0.641556 -0.382642 0
M  V30 4139 H 404.124 -1.92163 -0.325489 0
M  V30 4140 H 403.22 -2.63129 -1.67838 0
M  V30 4141 N 403.521 0.559213 -1.47345 0
M  V30 4142 C 404.767 1.31843 -1.54095 0
M  V30 4143 C 405.1 1.93149 -0.201726 0
M  V30 4144 O 404.375 1.77759 0.789428 0
M  V30 4145 C 404.658 2.43006 -2.65744 0
M  V30 4146 C 404.511 1.86581 -4.09277 0
M  V30 4147 C 405.83 3.44943 -2.73318 0
M  V30 4148 H 402.949 0.478012 -0.560957 0
M  V30 4149 H 405.591 0.625977 -1.79392 0
M  V30 4150 H 403.741 3.02072 -2.44305 0
M  V30 4151 H 405.413 1.31792 -4.42073 0
M  V30 4152 H 403.656 1.17268 -4.17649 0
M  V30 4153 H 404.327 2.66933 -4.83168 0
M  V30 4154 H 406.803 2.95793 -2.92653 0
M  V30 4155 H 405.679 4.20153 -3.53218 0
M  V30 4156 H 405.94 4.03665 -1.80296 0
M  V30 4157 N 404.999 1.35443 0.805782 0
M  V30 4158 C 406.41 1.25768 1.37983 0
M  V30 4159 C 406.761 -0.10958 1.95894 0
M  V30 4160 O 405.886 -1.01056 1.91355 0
M  V30 4161 C 406.481 2.27727 2.5085 0
M  V30 4162 C 405.04 2.2179 3.04115 0
M  V30 4163 C 404.187 2.13393 1.77084 0
M  V30 4164 H 407.138 1.4656 0.608752 0
M  V30 4165 H 407.159 1.90422 3.29424 0
M  V30 4166 H 406.671 3.27227 2.08671 0
M  V30 4167 H 404.772 1.25703 3.50756 0
M  V30 4168 H 404.885 3.13788 3.62042 0
M  V30 4169 H 403.249 1.59384 1.98668 0
M  V30 4170 H 404.032 3.14755 1.37056 0
M  V30 4171 N 406.477 -1.02803 1.19454 0
M  V30 4172 C 407.41 -2.107 0.876396 0
M  V30 4173 C 408.388 -1.61741 -0.166897 0
M  V30 4174 O 409.572 -1.88451 -0.0430195 0
M  V30 4175 C 406.699 -3.37262 0.311758 0
M  V30 4176 C 405.745 -4.05093 1.33424 0
M  V30 4177 S 406.578 -4.50498 2.89503 0
M  V30 4178 C 407.734 -5.80277 2.34584 0
M  V30 4179 H 407.967 -2.37362 1.79016 0
M  V30 4180 H 405.5 -1.15755 1.02177 0
M  V30 4181 H 407.458 -4.10499 -0.00748752 0
M  V30 4182 H 406.119 -3.08693 -0.58032 0
M  V30 4183 H 405.312 -4.9611 0.888302 0
M  V30 4184 H 404.914 -3.3803 1.60037 0
M  V30 4185 H 407.206 -6.54873 1.73633 0
M  V30 4186 H 408.149 -6.29651 3.23952 0
M  V30 4187 H 408.557 -5.3599 1.77131 0
M  V30 4188 N 407.956 -0.998596 -1.21925 0
M  V30 4189 C 408.919 -0.558679 -2.22287 0
M  V30 4190 C 409.919 0.361525 -1.56683 0
M  V30 4191 O 411.109 0.152695 -1.73529 0
M  V30 4192 C 408.241 0.18661 -3.40389 0
M  V30 4193 H 409.434 -1.4463 -2.62721 0
M  V30 4194 H 406.987 -0.786413 -1.35075 0
M  V30 4195 H 407.722 1.08996 -3.05435 0
M  V30 4196 H 407.507 -0.474188 -3.89222 0
M  V30 4197 H 408.997 0.482367 -4.14805 0
M  V30 4198 N 409.434 1.37368 -0.772513 0
M  V30 4199 C 410.381 2.30262 -0.157488 0
M  V30 4200 C 411.351 1.51137 0.688965 0
M  V30 4201 O 412.536 1.79704 0.641168 0
M  V30 4202 C 409.676 3.37611 0.715045 0
M  V30 4203 C 408.789 4.31746 -0.148098 0
M  V30 4204 C 407.924 5.26171 0.729213 0
M  V30 4205 C 406.963 6.11948 -0.136418 0
M  V30 4206 N 406.1 6.98613 0.698914 0
M  V30 4207 H 410.94 2.82277 -0.955179 0
M  V30 4208 H 408.477 1.38957 -0.482631 0
M  V30 4209 H 410.435 3.98479 1.23575 0
M  V30 4210 H 409.065 2.86959 1.47833 0
M  V30 4211 H 408.117 3.72178 -0.786613 0
M  V30 4212 H 409.429 4.92084 -0.81579 0
M  V30 4213 H 408.583 5.92247 1.31637 0
M  V30 4214 H 407.322 4.66246 1.43059 0
M  V30 4215 H 406.327 5.4485 -0.736102 0
M  V30 4216 H 407.552 6.73945 -0.835134 0
M  V30 4217 H 405.498 6.41215 1.38489 0
M  V30 4218 H 405.415 7.55948 0.0885358 0
M  V30 4219 H 406.683 7.69077 1.27044 0
M  V30 4220 N 410.912 0.523116 1.48665 0
M  V30 4221 C 412.189 -0.0775449 1.95446 0
M  V30 4222 C 412.569 -1.5197 1.4652 0
M  V30 4223 O 411.917 -2.17876 0.688657 0
M  V30 4224 C 412.127 0.0326135 3.48985 0
M  V30 4225 C 413.475 -0.130141 4.24401 0
M  V30 4226 O 414.499 -0.0415142 3.56176 0
M  V30 4227 O 413.358 -0.31491 5.45592 0
M  V30 4228 H 410.452 -0.0831012 0.822814 0
M  V30 4229 H 412.998 0.587227 1.59216 0
M  V30 4230 H 411.77 1.03748 3.77296 0
M  V30 4231 H 411.393 -0.671317 3.91892 0
M  V30 4232 N 412.39 -1.55475 0.257931 0
M  V30 4233 C 413.638 -1.98813 -0.363009 0
M  V30 4234 C 413.959 -1.14757 -1.57657 0
M  V30 4235 O 413.229 -0.232956 -1.9451 0
M  V30 4236 H 411.809 -0.734308 -0.137113 0
M  V30 4237 H 414.471 -1.9156 0.359281 0
M  V30 4238 H 413.567 -3.04941 -0.664634 0
M  V30 4239 N 413.868 0.0150385 -1.57593 0
M  V30 4240 C 415.093 0.718067 -1.94573 0
M  V30 4241 C 415.518 1.6734 -0.859005 0
M  V30 4242 O 414.876 1.80362 0.184147 0
M  V30 4243 C 414.924 1.43918 -3.30636 0
M  V30 4244 O 414.028 2.55299 -3.23876 0
M  V30 4245 H 413.369 0.192125 -0.635597 0
M  V30 4246 H 415.899 -0.0336708 -2.04572 0
M  V30 4247 H 415.909 1.80598 -3.65853 0
M  V30 4248 H 414.584 0.738619 -4.09289 0
M  V30 4249 H 413.161 2.21058 -3.00312 0
M  V30 4250 N 415.346 1.54954 0.287554 0
M  V30 4251 C 416.294 1.87606 1.37502 0
M  V30 4252 C 417.288 0.751001 1.51843 0
M  V30 4253 O 418.494 0.935169 1.53801 0
M  V30 4254 H 414.869 0.595231 0.459569 0
M  V30 4255 H 416.84 2.78477 1.07206 0
M  V30 4256 C 415.589 2.15183 2.73115 0
M  V30 4257 H 414.912 3.01234 2.62866 0
M  V30 4258 H 416.352 2.4196 3.48183 0
M  V30 4259 C 414.811 0.954686 3.2309 0
M  V30 4260 O 415.341 0.181949 4.01288 0
M  V30 4261 N 413.547 0.756368 2.80584 0
M  V30 4262 H 413.094 1.38643 2.17108 0
M  V30 4263 H 413.052 -0.0430391 3.14371 0
M  V30 4264 N 416.824 -0.551391 1.4764 0
M  V30 4265 C 417.754 -1.66757 1.63445 0
M  V30 4266 C 418.735 -1.63077 0.483742 0
M  V30 4267 O 419.92 -1.80607 0.71377 0
M  V30 4268 C 417.05 -3.05387 1.65396 0
M  V30 4269 C 416.004 -3.23918 2.79752 0
M  V30 4270 C 415.33 -4.63393 2.66779 0
M  V30 4271 C 416.63 -3.08735 4.21284 0
M  V30 4272 H 418.324 -1.53786 2.56886 0
M  V30 4273 H 415.87 -0.738415 1.23626 0
M  V30 4274 H 417.823 -3.83325 1.75043 0
M  V30 4275 H 416.547 -3.19332 0.685195 0
M  V30 4276 H 415.206 -2.48391 2.69625 0
M  V30 4277 H 414.854 -4.74144 1.67918 0
M  V30 4278 H 414.554 -4.7674 3.43501 0
M  V30 4279 H 416.078 -5.43458 2.78364 0
M  V30 4280 H 417.492 -3.76484 4.32357 0
M  V30 4281 H 415.889 -3.33588 4.98838 0
M  V30 4282 H 416.959 -2.0541 4.39243 0
M  V30 4283 N 418.302 -1.35869 -0.798587 0
M  V30 4284 C 419.55 -1.29332 -1.55298 0
M  V30 4285 C 419.871 0.129729 -1.94568 0
M  V30 4286 O 419.141 1.06796 -1.6423 0
M  V30 4287 H 417.721 -0.475737 -0.57592 0
M  V30 4288 H 420.383 -1.70062 -0.952093 0
M  V30 4289 H 419.479 -1.91458 -2.46476 0
M  V30 4290 N 419.78 1.02168 -1.19998 0
M  V30 4291 C 420.71 2.12488 -0.96804 0
M  V30 4292 C 421.691 1.69799 0.101185 0
M  V30 4293 O 422.876 1.94121 -0.0552993 0
M  V30 4294 C 420.006 3.43479 -0.513776 0
M  V30 4295 C 418.96 3.99884 -1.52566 0
M  V30 4296 C 418.286 5.26582 -0.928214 0
M  V30 4297 C 419.586 4.33861 -2.90795 0
M  V30 4298 H 421.28 2.32149 -1.89069 0
M  V30 4299 H 418.826 1.11564 -0.910468 0
M  V30 4300 H 420.779 4.20036 -0.338774 0
M  V30 4301 H 419.503 3.23561 0.444493 0
M  V30 4302 H 418.162 3.25429 -1.68794 0
M  V30 4303 H 417.81 5.02986 0.0378289 0
M  V30 4304 H 417.51 5.65284 -1.60397 0
M  V30 4305 H 419.034 6.05799 -0.764167 0
M  V30 4306 H 420.448 5.01327 -2.78109 0
M  V30 4307 H 418.845 4.83664 -3.55231 0
M  V30 4308 H 419.915 3.42848 -3.42904 0
M  V30 4309 N 421.258 1.00505 1.21394 0
M  V30 4310 C 422.483 0.706367 1.95001 0
M  V30 4311 C 422.908 -0.72463 1.73582 0
M  V30 4312 O 422.266 -1.49702 1.0227 0
M  V30 4313 C 422.314 1.03299 3.45487 0
M  V30 4314 O 421.418 0.138275 4.12168 0
M  V30 4315 H 420.759 0.263175 0.609619 0
M  V30 4316 H 423.289 1.34531 1.54151 0
M  V30 4317 H 423.299 0.979872 3.96059 0
M  V30 4318 H 421.974 2.07567 3.60401 0
M  V30 4319 H 420.551 0.247928 3.72075 0
M  V30 4320 N 422.737 -1.36956 0.779787 0
M  V30 4321 C 424.153 -1.52817 0.460342 0
M  V30 4322 C 424.353 -1.7361 -1.02283 0
M  V30 4323 O 423.409 -1.76207 -1.80852 0
M  V30 4324 C 424.722 -2.71983 1.28241 0
M  V30 4325 C 426.27 -2.85849 1.27512 0
M  V30 4326 C 426.745 -4.08008 2.08072 0
M  V30 4327 N 428.236 -4.15135 2.05467 0
M  V30 4328 C 428.971 -5.08711 2.64577 0
M  V30 4329 N 428.467 -6.07792 3.32506 0
M  V30 4330 N 430.26 -5.01254 2.54363 0
M  V30 4331 H 422.411 -1.21713 1.74068 0
M  V30 4332 H 424.674 -0.593294 0.739396 0
M  V30 4333 H 424.38 -2.63109 2.33381 0
M  V30 4334 H 424.254 -3.65882 0.917088 0
M  V30 4335 H 426.641 -2.94189 0.231686 0
M  V30 4336 H 426.722 -1.92886 1.68014 0
M  V30 4337 H 426.366 -4.00429 3.12441 0
M  V30 4338 H 426.296 -5.001 1.64947 0
M  V30 4339 H 428.787 -3.44189 1.5602 0
M  V30 4340 H 429.1 -6.75739 3.74963 0
M  V30 4341 H 427.445 -6.08047 3.36606 0
M  V30 4342 H 430.636 -4.22795 2.00902 0
M  V30 4343 H 430.809 -5.73995 3.00722 0
M  V30 4344 N 424.215 -0.530993 -1.48385 0
M  V30 4345 C 425.492 0.0671788 -1.95485 0
M  V30 4346 C 425.872 1.51191 -1.47324 0
M  V30 4347 O 425.22 2.17507 -0.700202 0
M  V30 4348 C 425.43 -0.0511206 -3.48963 0
M  V30 4349 C 426.778 0.107632 -4.24464 0
M  V30 4350 O 427.802 0.0226248 -3.56193 0
M  V30 4351 O 426.661 0.285972 -5.45751 0
M  V30 4352 H 423.755 0.0787365 -0.823243 0
M  V30 4353 H 426.301 -0.595662 -1.58902 0
M  V30 4354 H 425.073 -1.05747 -3.7674 0
M  V30 4355 H 424.696 0.650525 -3.92242 0
M  V30 4356 N 425.693 1.55336 -0.266172 0
M  V30 4357 C 426.921 2.03801 0.356756 0
M  V30 4358 C 427.336 1.14485 1.50129 0
M  V30 4359 O 426.693 0.163121 1.8177 0
M  V30 4360 C 426.744 3.51455 0.846281 0
M  V30 4361 O 426.465 4.37371 -0.252663 0
M  V30 4362 C 427.966 4.15767 1.53794 0
M  V30 4363 H 425.186 0.665906 0.0825218 0
M  V30 4364 H 427.73 2.00636 -0.39566 0
M  V30 4365 H 425.885 3.55092 1.54881 0
M  V30 4366 H 426.299 5.24358 0.122173 0
M  V30 4367 H 427.773 5.20714 1.83198 0
M  V30 4368 H 428.25 3.63404 2.46646 0
M  V30 4369 H 428.856 4.16107 0.879488 0
M  V30 4370 N 427.171 -0.0066808 1.57599 0
M  V30 4371 C 428.401 -0.703066 1.94269 0
M  V30 4372 C 428.809 -1.68206 0.866222 0
M  V30 4373 O 428.152 -1.82966 -0.164087 0
M  V30 4374 C 428.214 -1.49616 3.26887 0
M  V30 4375 C 427.878 -0.679494 4.5192 0
M  V30 4376 C 428.875 0.0299508 5.19891 0
M  V30 4377 C 426.56 -0.627433 4.98366 0
M  V30 4378 C 428.554 0.780514 6.32603 0
M  V30 4379 C 426.241 0.126861 6.10968 0
M  V30 4380 C 427.239 0.829574 6.77943 0
M  V30 4381 O 426.927 1.57157 7.88389 0
M  V30 4382 H 426.659 -0.201217 0.645359 0
M  V30 4383 H 429.213 0.0385326 2.05364 0
M  V30 4384 H 427.443 -2.28209 3.12182 0
M  V30 4385 H 429.132 -2.07726 3.48719 0
M  V30 4386 H 429.898 -0.00115963 4.85 0
M  V30 4387 H 425.777 -1.16392 4.46065 0
M  V30 4388 H 429.321 1.32954 6.84813 0
M  V30 4389 H 425.218 0.159815 6.45302 0
M  V30 4390 H 425.986 1.48758 8.04868 0
M  V30 4391 N 428.649 -1.55105 -0.279332 0
M  V30 4392 C 429.579 -1.90557 -1.34945 0
M  V30 4393 C 430.56 -0.766738 -1.51839 0
M  V30 4394 O 431.745 -1.02434 -1.64988 0
M  V30 4395 C 428.875 -2.17193 -2.71006 0
M  V30 4396 C 427.829 -3.33021 -2.68851 0
M  V30 4397 C 427.155 -3.45123 -4.08405 0
M  V30 4398 C 428.455 -4.69578 -2.28678 0
M  V30 4399 H 430.149 -2.80188 -1.05522 0
M  V30 4400 H 427.695 -1.34811 -0.506173 0
M  V30 4401 H 429.648 -2.40581 -3.45975 0
M  V30 4402 H 428.372 -1.24355 -3.01999 0
M  V30 4403 H 427.031 -3.0959 -1.9634 0
M  V30 4404 H 426.679 -2.49762 -4.3661 0
M  V30 4405 H 426.379 -4.22995 -4.07859 0
M  V30 4406 H 427.903 -3.70796 -4.85121 0
M  V30 4407 H 429.317 -4.92553 -2.93368 0
M  V30 4408 H 427.714 -5.5032 -2.39306 0
M  V30 4409 H 428.784 -4.68828 -1.23807 0
M  V30 4410 N 430.127 0.543554 -1.4793 0
M  V30 4411 C 431.404 1.30458 -1.4574 0
M  V30 4412 C 431.784 2.1048 -0.161692 0
M  V30 4413 O 431.132 2.11831 0.856734 0
M  V30 4414 C 431.342 2.19754 -2.71126 0
M  V30 4415 C 432.69 2.80334 -3.18901 0
M  V30 4416 O 433.714 2.30049 -2.71948 0
M  V30 4417 O 432.573 3.71766 -4.00565 0
M  V30 4418 H 429.667 0.588117 -0.581418 0
M  V30 4419 H 432.213 0.561328 -1.60147 0
M  V30 4420 H 430.985 1.60316 -3.56952 0
M  V30 4421 H 430.608 3.01351 -2.59371 0
M  V30 4422 N 431.605 1.3629 0.791371 0
M  V30 4423 C 432.851 1.30605 1.55146 0
M  V30 4424 C 433.184 -0.115042 1.93859 0
M  V30 4425 O 432.459 -1.06798 1.62556 0
M  V30 4426 C 432.742 2.22692 2.82985 0
M  V30 4427 C 432.595 3.73489 2.50651 0
M  V30 4428 C 433.914 2.13588 3.84796 0
M  V30 4429 H 431.033 0.475761 0.562868 0
M  V30 4430 H 433.675 1.66825 0.909358 0
M  V30 4431 H 431.825 1.91933 3.37778 0
M  V30 4432 H 433.497 4.14758 2.01924 0
M  V30 4433 H 431.74 3.93021 1.83622 0
M  V30 4434 H 432.411 4.3333 3.41949 0
M  V30 4435 H 434.887 2.40659 3.39445 0
M  V30 4436 H 433.763 2.80195 4.71998 0
M  V30 4437 H 434.024 1.12256 4.27611 0
M  V30 4438 N 433.083 -1.0153 1.20538 0
M  V30 4439 C 434.36 -1.72327 0.925343 0
M  V30 4440 C 434.74 -2.03383 -0.565547 0
M  V30 4441 O 434.088 -1.69934 -1.52757 0
M  V30 4442 C 434.298 -2.9902 1.79967 0
M  V30 4443 C 435.646 -3.72258 2.04228 0
M  V30 4444 O 436.67 -3.08979 1.77231 0
M  V30 4445 O 435.529 -4.86053 2.4983 0
M  V30 4446 H 432.623 -0.751099 0.346092 0
M  V30 4447 H 435.169 -1.07366 1.31417 0
M  V30 4448 H 433.941 -2.72402 2.80915 0
M  V30 4449 H 433.564 -3.71721 1.41099 0
M  V30 4450 N 434.561 -1.01147 -1.20859 0
M  V30 4451 C 435.807 -0.708598 -1.90658 0
M  V30 4452 C 436.162 0.753069 -1.7705 0
M  V30 4453 O 435.455 1.53952 -1.14059 0
M  V30 4454 C 435.649 -1.0727 -3.40922 0
M  V30 4455 C 435.478 -2.56821 -3.69152 0
M  V30 4456 C 434.248 -3.23524 -3.8815 0
M  V30 4457 C 436.446 -3.54997 -3.72131 0
M  V30 4458 N 434.428 -4.62359 -4.03853 0
M  V30 4459 C 435.799 -4.79371 -3.93196 0
M  V30 4460 C 437.854 -3.49042 -3.55069 0
M  V30 4461 C 436.557 -5.98512 -3.98969 0
M  V30 4462 C 438.583 -4.67579 -3.6211 0
M  V30 4463 C 437.945 -5.9076 -3.83643 0
M  V30 4464 H 434.044 -0.31088 -0.71755 0
M  V30 4465 H 436.628 -1.29526 -1.45366 0
M  V30 4466 H 434.799 -0.51443 -3.84978 0
M  V30 4467 H 436.531 -0.723891 -3.98173 0
M  V30 4468 H 433.286 -2.73958 -3.86321 0
M  V30 4469 H 433.71 -5.34427 -4.15592 0
M  V30 4470 H 438.352 -2.54808 -3.37391 0
M  V30 4471 H 436.07 -6.93132 -4.15444 0
M  V30 4472 H 439.656 -4.64581 -3.50222 0
M  V30 4473 H 438.536 -6.8095 -3.88944 0
M  V30 4474 N 436.039 1.36541 -0.78704 0
M  V30 4475 C 437.316 1.9355 -0.282424 0
M  V30 4476 C 437.696 1.71919 1.22503 0
M  V30 4477 O 437.044 1.07677 2.01539 0
M  V30 4478 C 437.254 3.4246 -0.672462 0
M  V30 4479 C 438.602 4.19582 -0.650863 0
M  V30 4480 O 439.626 3.50889 -0.612789 0
M  V30 4481 O 438.485 5.42106 -0.691623 0
M  V30 4482 H 435.579 0.824091 -0.0693 0
M  V30 4483 H 438.125 1.45736 -0.869423 0
M  V30 4484 H 436.897 3.51851 -1.71221 0
M  V30 4485 H 436.52 3.97556 -0.0592211 0
M  V30 4486 N 437.518 0.538854 1.48102 0
M  V30 4487 C 438.934 0.19732 1.58376 0
M  V30 4488 C 439.134 -1.29971 1.5398 0
M  V30 4489 O 438.19 -2.07861 1.43352 0
M  V30 4490 C 439.503 0.807716 2.89649 0
M  V30 4491 C 441.051 0.77726 3.03196 0
M  V30 4492 C 441.526 1.36639 4.37143 0
M  V30 4493 N 443.017 1.32875 4.43732 0
M  V30 4494 C 443.752 1.7544 5.45901 0
M  V30 4495 N 443.248 2.25776 6.54979 0
M  V30 4496 N 445.041 1.66623 5.36836 0
M  V30 4497 H 437.192 1.5117 1.49202 0
M  V30 4498 H 439.455 0.629327 0.708979 0
M  V30 4499 H 439.161 1.85909 2.98548 0
M  V30 4500 H 439.035 0.289975 3.76084 0
M  V30 4501 H 441.422 -0.265374 2.93904 0
M  V30 4502 H 441.503 1.33256 2.18349 0
M  V30 4503 H 441.147 2.408 4.47189 0
M  V30 4504 H 441.077 0.786689 5.20691 0
M  V30 4505 H 443.568 0.96037 3.65493 0
M  V30 4506 H 443.881 2.56226 7.29087 0
M  V30 4507 H 442.226 2.29775 6.55918 0
M  V30 4508 H 445.417 1.27089 4.50517 0
M  V30 4509 H 445.59 2.00115 6.16326 0
M  V30 4510 N 438.996 -1.55193 0.274407 0
M  V30 4511 C 440.243 -1.99581 -0.342579 0
M  V30 4512 C 440.571 -1.1628 -1.55914 0
M  V30 4513 O 439.826 -0.22029 -1.94456 0
M  V30 4514 C 440.125 -3.49019 -0.769458 0
M  V30 4515 C 439.791 -4.49598 0.342389 0
M  V30 4516 C 438.453 -4.76821 0.647686 0
M  V30 4517 C 440.805 -5.0964 1.09163 0
M  V30 4518 C 438.133 -5.61354 1.70581 0
M  V30 4519 C 440.485 -5.95323 2.13948 0
M  V30 4520 C 439.149 -6.20867 2.45113 0
M  V30 4521 H 438.419 -0.730319 -0.125358 0
M  V30 4522 H 441.066 -1.87529 0.387971 0
M  V30 4523 H 439.371 -3.58544 -1.57967 0
M  V30 4524 H 441.068 -3.8077 -1.25757 0
M  V30 4525 H 437.658 -4.28496 0.094318 0
M  V30 4526 H 441.842 -4.88632 0.869024 0
M  V30 4527 H 437.098 -5.79392 1.9523 0
M  V30 4528 H 441.272 -6.40881 2.72478 0
M  V30 4529 H 438.899 -6.86162 3.27239 0
M  V30 4530 N 440.474 -0.00167713 -1.576 0
M  V30 4531 C 441.421 0.989195 -2.08527 0
M  V30 4532 C 442.391 1.34031 -0.981065 0
M  V30 4533 O 443.576 1.43839 -1.2536 0
M  V30 4534 C 440.716 2.27537 -2.59463 0
M  V30 4535 C 439.829 1.98314 -3.83791 0
M  V30 4536 C 438.964 3.21025 -4.23222 0
M  V30 4537 C 438.003 2.87495 -5.40382 0
M  V30 4538 N 437.14 4.02749 -5.75098 0
M  V30 4539 H 441.98 0.547973 -2.92919 0
M  V30 4540 H 439.517 0.258917 -1.44803 0
M  V30 4541 H 441.475 3.02729 -2.87073 0
M  V30 4542 H 440.105 2.69325 -1.77943 0
M  V30 4543 H 439.157 1.13482 -3.63078 0
M  V30 4544 H 440.469 1.69601 -4.69081 0
M  V30 4545 H 439.623 4.04561 -4.52123 0
M  V30 4546 H 438.362 3.52877 -3.36644 0
M  V30 4547 H 437.367 2.02367 -5.11202 0
M  V30 4548 H 438.592 2.56889 -6.28637 0
M  V30 4549 H 436.538 4.34494 -4.91478 0
M  V30 4550 H 436.455 3.77566 -6.54966 0
M  V30 4551 H 437.723 4.87068 -6.08592 0
M  V30 4552 N 441.952 1.55251 0.271103 0
M  V30 4553 C 443.198 1.7713 0.999832 0
M  V30 4554 C 443.553 0.56659 1.83868 0
M  V30 4555 O 442.846 -0.44069 1.86463 0
M  V30 4556 C 443.04 3.01879 1.91321 0
M  V30 4557 C 442.869 4.34368 1.16426 0
M  V30 4558 C 441.639 4.97593 0.879169 0
M  V30 4559 C 443.837 5.1131 0.553749 0
M  V30 4560 N 441.819 6.13813 0.103618 0
M  V30 4561 C 443.19 6.19938 -0.0875442 0
M  V30 4562 C 445.245 4.95754 0.461782 0
M  V30 4563 C 443.948 7.14703 -0.811942 0
M  V30 4564 C 445.974 5.90875 -0.249027 0
M  V30 4565 C 445.336 6.98893 -0.879051 0
M  V30 4566 H 441.435 0.700407 0.347784 0
M  V30 4567 H 444.019 1.92744 0.275314 0
M  V30 4568 H 442.19 2.87637 2.60997 0
M  V30 4569 H 443.922 3.12154 2.57569 0
M  V30 4570 H 440.677 4.58538 1.18491 0
M  V30 4571 H 441.101 6.76455 -0.271543 0
M  V30 4572 H 445.743 4.12342 0.934552 0
M  V30 4573 H 443.461 7.97634 -1.29639 0
M  V30 4574 H 447.047 5.80916 -0.320529 0
M  V30 4575 H 445.927 7.71231 -1.42031 0
M  V30 4576 N 443.43 -0.535701 1.48216 0
M  V30 4577 C 444.707 -1.29683 1.46429 0
M  V30 4578 C 445.087 -2.10391 0.172852 0
M  V30 4579 O 444.435 -2.12282 -0.845488 0
M  V30 4580 C 444.645 -2.18313 2.72287 0
M  V30 4581 C 445.993 -2.78639 3.20383 0
M  V30 4582 O 447.017 -2.28604 2.73164 0
M  V30 4583 O 445.876 -3.69636 4.02531 0
M  V30 4584 H 442.97 -0.585026 0.584529 0
M  V30 4585 H 445.516 -0.552827 1.60443 0
M  V30 4586 H 444.288 -1.58421 3.57797 0
M  V30 4587 H 443.911 -2.99971 2.60966 0
M  V30 4588 N 444.908 -1.36708 -0.784132 0
M  V30 4589 C 446.136 -1.34398 -1.57305 0
M  V30 4590 C 446.551 0.0735577 -1.88657 0
M  V30 4591 O 445.908 1.03193 -1.50524 0
M  V30 4592 C 445.959 -2.17053 -2.89085 0
M  V30 4593 O 445.68 -3.53281 -2.59083 0
M  V30 4594 C 447.181 -2.22583 -3.83369 0
M  V30 4595 H 444.401 -0.460819 -0.487736 0
M  V30 4596 H 446.945 -1.79879 -0.972819 0
M  V30 4597 H 445.1 -1.75113 -3.45564 0
M  V30 4598 H 445.514 -3.9647 -3.43383 0
M  V30 4599 H 446.988 -2.84763 -4.72878 0
M  V30 4600 H 447.465 -1.23075 -4.21603 0
M  V30 4601 H 448.071 -2.64781 -3.32823 0
M  V30 4602 N 446.386 1.0089 -1.21074 0
M  V30 4603 C 447.616 1.77933 -1.04993 0
M  V30 4604 C 448.024 1.84847 0.403495 0
M  V30 4605 O 447.367 1.30606 1.29181 0
M  V30 4606 C 447.429 3.23541 -1.56722 0
M  V30 4607 C 447.093 3.40214 -3.05129 0
M  V30 4608 C 448.09 3.2881 -4.02716 0
M  V30 4609 C 445.775 3.65781 -3.44252 0
M  V30 4610 C 447.769 3.42732 -5.37414 0
M  V30 4611 C 445.456 3.79346 -4.79103 0
M  V30 4612 C 446.454 3.67827 -5.75493 0
M  V30 4613 O 446.142 3.80965 -7.07899 0
M  V30 4614 H 445.874 0.566157 -0.369381 0
M  V30 4615 H 448.428 1.27826 -1.60779 0
M  V30 4616 H 446.658 3.74766 -0.953285 0
M  V30 4617 H 448.347 3.82245 -1.36543 0
M  V30 4618 H 449.113 3.08986 -3.73835 0
M  V30 4619 H 444.992 3.73831 -2.69762 0
M  V30 4620 H 448.536 3.33658 -6.12632 0
M  V30 4621 H 444.433 3.98672 -5.07672 0
M  V30 4622 H 445.201 3.97937 -7.15254 0
M  V30 4623 N 447.864 1.01787 1.20321 0
M  V30 4624 C 449.28 0.732951 1.41774 0
M  V30 4625 C 449.48 -0.686883 1.89431 0
M  V30 4626 O 448.536 -1.45446 2.06402 0
M  V30 4627 C 449.849 1.75973 2.43832 0
M  V30 4628 C 451.397 1.77802 2.57596 0
M  V30 4629 C 451.872 2.7941 3.62897 0
M  V30 4630 N 453.363 2.78157 3.70382 0
M  V30 4631 C 454.098 3.53434 4.51521 0
M  V30 4632 N 453.594 4.38392 5.36455 0
M  V30 4633 N 455.387 3.42026 4.46066 0
M  V30 4634 H 447.538 1.93447 0.877035 0
M  V30 4635 H 449.801 0.835712 0.447536 0
M  V30 4636 H 449.507 2.77699 2.15815 0
M  V30 4637 H 449.381 1.57292 3.4284 0
M  V30 4638 H 451.768 0.767602 2.84942 0
M  V30 4639 H 451.849 2.00557 1.58779 0
M  V30 4640 H 451.493 3.80616 3.36295 0
M  V30 4641 H 451.423 2.53916 4.61339 0
M  V30 4642 H 453.914 2.16531 3.09714 0
M  V30 4643 H 454.227 4.92596 5.95457 0
M  V30 4644 H 452.572 4.4247 5.35953 0
M  V30 4645 H 455.763 2.75075 3.78749 0
M  V30 4646 H 455.936 4.00946 5.09064 0
M  V30 4647 N 449.342 -1.36122 0.79427 0
M  V30 4648 C 450.305 -2.28309 0.201889 0
M  V30 4649 C 451.305 -1.49041 -0.603603 0
M  V30 4650 O 452.495 -1.68964 -0.423888 0
M  V30 4651 C 449.627 -3.3321 -0.719978 0
M  V30 4652 H 450.82 -2.82208 1.01481 0
M  V30 4653 H 448.373 -1.45768 0.564037 0
M  V30 4654 H 449.108 -2.84475 -1.55706 0
M  V30 4655 H 448.893 -3.91835 -0.144266 0
M  V30 4656 H 450.383 -4.02044 -1.12916 0
M  V30 4657 N 450.82 -0.546701 -1.47814 0
M  V30 4658 C 452.067 -0.0187407 -2.02491 0
M  V30 4659 C 452.395 1.32685 -1.42215 0
M  V30 4660 O 451.65 1.87413 -0.563454 0
M  V30 4661 C 451.949 0.134869 -3.57145 0
M  V30 4662 C 451.615 -1.13849 -4.3629 0
M  V30 4663 C 450.277 -1.48743 -4.57634 0
M  V30 4664 C 452.629 -1.98277 -4.82012 0
M  V30 4665 C 449.957 -2.67932 -5.21948 0
M  V30 4666 C 452.309 -3.16659 -5.4764 0
M  V30 4667 C 450.973 -3.51879 -5.67219 0
M  V30 4668 H 450.243 -0.0068577 -0.740968 0
M  V30 4669 H 452.89 -0.716097 -1.77607 0
M  V30 4670 H 451.195 0.915118 -3.80963 0
M  V30 4671 H 452.892 0.558556 -3.97091 0
M  V30 4672 H 449.482 -0.856767 -4.19949 0
M  V30 4673 H 453.666 -1.72628 -4.6531 0
M  V30 4674 H 448.922 -2.95401 -5.35302 0
M  V30 4675 H 453.096 -3.82374 -5.82033 0
M  V30 4676 H 450.723 -4.44331 -6.16825 0
M  V30 4677 N 452.299 1.55045 -0.282633 0
M  V30 4678 C 453.547 1.99365 0.331334 0
M  V30 4679 C 453.868 1.1725 1.55812 0
M  V30 4680 O 453.138 0.263871 1.94115 0
M  V30 4681 H 451.718 0.736397 0.125414 0
M  V30 4682 H 454.38 1.90964 -0.389711 0
M  V30 4683 H 453.476 3.0596 0.616036 0
M  V30 4684 N 453.777 0.010035 1.57597 0
M  V30 4685 C 455.002 -0.687021 1.95691 0
M  V30 4686 C 455.427 -1.65952 0.885519 0
M  V30 4687 O 454.785 -1.80633 -0.15543 0
M  V30 4688 C 454.833 -1.3864 3.32884 0
M  V30 4689 O 453.937 -2.50115 3.27897 0
M  V30 4690 H 453.278 -0.181989 0.638573 0
M  V30 4691 H 455.808 0.0662122 2.04493 0
M  V30 4692 H 455.818 -1.74754 3.6868 0
M  V30 4693 H 454.493 -0.673411 4.10412 0
M  V30 4694 H 453.07 -2.16253 3.03791 0
M  V30 4695 N 455.255 -1.55392 -0.262866 0
M  V30 4696 C 456.185 -1.91978 -1.32917 0
M  V30 4697 C 457.166 -0.7828 -1.51017 0
M  V30 4698 O 458.351 -1.04178 -1.63892 0
M  V30 4699 C 455.481 -2.20055 -2.68687 0
M  V30 4700 C 454.435 -3.35854 -2.65304 0
M  V30 4701 C 453.761 -3.49435 -4.04721 0
M  V30 4702 C 455.061 -4.71977 -2.23685 0
M  V30 4703 H 456.755 -2.81292 -1.02544 0
M  V30 4704 H 454.301 -1.3534 -0.491846 0
M  V30 4705 H 456.254 -2.44237 -3.43404 0
M  V30 4706 H 454.978 -1.27551 -3.00663 0
M  V30 4707 H 453.637 -3.11655 -1.93045 0
M  V30 4708 H 453.285 -2.54379 -4.33936 0
M  V30 4709 H 452.985 -4.27297 -4.0335 0
M  V30 4710 H 454.509 -3.7592 -4.81161 0
M  V30 4711 H 455.923 -4.95637 -2.88127 0
M  V30 4712 H 454.32 -5.52828 -2.33456 0
M  V30 4713 H 455.39 -4.70115 -1.18827 0
M  V30 4714 N 456.733 0.527833 -1.48498 0
M  V30 4715 C 457.643 1.65907 -1.65867 0
M  V30 4716 C 458.659 1.6537 -0.541192 0
M  V30 4717 O 459.835 1.84282 -0.812534 0
M  V30 4718 C 456.9 3.02364 -1.69637 0
M  V30 4719 C 455.961 3.1374 -2.93028 0
M  V30 4720 C 455.194 4.43688 -2.96609 0
M  V30 4721 O 455.417 5.30913 -2.08538 0
M  V30 4722 O 454.351 4.59475 -3.88802 0
M  V30 4723 H 458.177 1.5419 -2.61647 0
M  V30 4724 H 455.762 0.701163 -1.31924 0
M  V30 4725 H 457.644 3.83515 -1.74625 0
M  V30 4726 H 456.319 3.14401 -0.770312 0
M  V30 4727 H 455.226 2.31877 -2.93571 0
M  V30 4728 H 456.559 3.06621 -3.85026 0
M  V30 4729 N 458.211 1.37122 0.776871 0
M  V30 4730 C 459.143 1.28342 1.89897 0
M  V30 4731 C 460.156 0.200277 1.61563 0
M  V30 4732 O 461.345 0.456012 1.72577 0
M  V30 4733 C 458.445 0.960427 3.25006 0
M  V30 4734 C 457.618 2.148 3.81025 0
M  V30 4735 C 456.677 1.79608 4.94598 0
M  V30 4736 O 455.703 2.51845 5.10454 0
M  V30 4737 N 456.905 0.737171 5.758 0
M  V30 4738 H 459.67 2.25027 1.97947 0
M  V30 4739 H 457.231 1.3068 0.955739 0
M  V30 4740 H 459.223 0.705942 3.98495 0
M  V30 4741 H 457.793 0.0823066 3.12492 0
M  V30 4742 H 457.013 2.56454 2.99374 0
M  V30 4743 H 458.301 2.9411 4.15183 0
M  V30 4744 H 457.699 0.137637 5.65533 0
M  V30 4745 H 456.256 0.542534 6.49538 0
M  V30 4746 N 459.689 -1.00246 1.21608 0
M  V30 4747 C 460.621 -2.09244 0.935401 0
M  V30 4748 C 461.634 -1.62592 -0.0823594 0
M  V30 4749 O 462.823 -1.77865 0.150456 0
M  V30 4750 C 459.923 -3.36724 0.383453 0
M  V30 4751 C 459.096 -4.1245 1.45615 0
M  V30 4752 C 458.155 -5.18219 0.912991 0
M  V30 4753 O 457.181 -5.46337 1.59701 0
M  V30 4754 N 458.383 -5.7987 -0.270478 0
M  V30 4755 H 461.148 -2.33905 1.87373 0
M  V30 4756 H 458.709 -1.16748 1.12167 0
M  V30 4757 H 460.701 -4.047 0.00562157 0
M  V30 4758 H 459.271 -3.09201 -0.459758 0
M  V30 4759 H 458.491 -3.39241 2.00772 0
M  V30 4760 H 459.779 -4.59819 2.17817 0
M  V30 4761 H 459.177 -5.59381 -0.843195 0
M  V30 4762 H 457.734 -6.49126 -0.589794 0
M  V30 4763 N 461.167 -1.02423 -1.1978 0
M  V30 4764 C 462.097 -0.62157 -2.25075 0
M  V30 4765 C 463.078 0.367148 -1.6609 0
M  V30 4766 O 464.263 0.250892 -1.92573 0
M  V30 4767 C 461.393 0.0331826 -3.47284 0
M  V30 4768 C 460.347 -0.877323 -4.18912 0
M  V30 4769 C 459.673 -0.0879296 -5.34628 0
M  V30 4770 C 460.973 -2.18892 -4.74219 0
M  V30 4771 H 462.667 -1.50179 -2.59011 0
M  V30 4772 H 460.213 -0.723547 -1.24502 0
M  V30 4773 H 462.166 0.326488 -4.20133 0
M  V30 4774 H 460.89 0.948164 -3.12534 0
M  V30 4775 H 459.549 -1.15475 -3.47938 0
M  V30 4776 H 459.197 0.828941 -4.96123 0
M  V30 4777 H 458.897 -0.694359 -5.83483 0
M  V30 4778 H 460.421 0.198743 -6.10276 0
M  V30 4779 H 461.835 -1.95746 -5.38847 0
M  V30 4780 H 460.232 -2.74686 -5.33542 0
M  V30 4781 H 461.302 -2.84674 -3.92541 0
M  V30 4782 N 462.645 1.35699 -0.801477 0
M  V30 4783 C 463.893 1.9852 -0.37871 0
M  V30 4784 C 464.214 1.63907 1.05638 0
M  V30 4785 O 463.484 0.919013 1.73006 0
M  V30 4786 H 462.064 0.734322 -0.137042 0
M  V30 4787 H 464.726 1.65697 -1.02619 0
M  V30 4788 H 463.822 3.08382 -0.480284 0
M  V30 4789 N 464.123 0.554532 1.47522 0
M  V30 4790 C 465.371 0.0294208 2.02079 0
M  V30 4791 C 465.692 -1.32411 1.43151 0
M  V30 4792 O 464.962 -1.863 0.605728 0
M  V30 4793 H 463.542 0.00788672 0.746958 0
M  V30 4794 H 466.204 0.723934 1.80956 0
M  V30 4795 H 465.3 -0.0606745 3.12041 0
M  V30 4796 N 465.601 -1.54893 0.290851 0
M  V30 4797 C 466.849 -1.99538 -0.320756 0
M  V30 4798 C 467.17 -1.18075 -1.55188 0
M  V30 4799 O 466.44 -0.274162 -1.93972 0
M  V30 4800 H 465.02 -0.737052 -0.121507 0
M  V30 4801 H 467.682 -1.90755 0.399832 0
M  V30 4802 H 466.778 -3.06282 -0.599802 0
M  V30 4803 N 467.08 -0.0183926 -1.57589 0
M  V30 4804 C 468.326 0.657813 -1.92469 0
M  V30 4805 C 468.681 1.70349 -0.894375 0
M  V30 4806 O 467.974 1.91384 0.0910389 0
M  V30 4807 C 468.168 1.32676 -3.31861 0
M  V30 4808 C 467.997 0.347403 -4.48356 0
M  V30 4809 C 466.767 -0.0488653 -5.05276 0
M  V30 4810 C 468.965 -0.393931 -5.12789 0
M  V30 4811 N 466.947 -1.02451 -6.05291 0
M  V30 4812 C 468.318 -1.22367 -6.07804 0
M  V30 4813 C 470.373 -0.455789 -4.95809 0
M  V30 4814 C 469.076 -2.10966 -6.87667 0
M  V30 4815 C 471.102 -1.32908 -5.76272 0
M  V30 4816 C 470.464 -2.14662 -6.70894 0
M  V30 4817 H 466.563 0.21335 -0.752334 0
M  V30 4818 H 469.147 -0.0830547 -1.94523 0
M  V30 4819 H 467.318 2.03782 -3.30647 0
M  V30 4820 H 469.05 1.95913 -3.54119 0
M  V30 4821 H 465.805 0.323356 -4.72495 0
M  V30 4822 H 466.229 -1.50826 -6.59985 0
M  V30 4823 H 470.871 0.162017 -4.22489 0
M  V30 4824 H 468.589 -2.73807 -7.603 0
M  V30 4825 H 472.175 -1.38109 -5.6517 0
M  V30 4826 H 471.055 -2.81143 -7.32071 0
M  V30 4827 N 468.558 1.5553 0.254621 0
M  V30 4828 C 469.505 1.89666 1.31512 0
M  V30 4829 C 470.475 0.750057 1.482 0
M  V30 4830 O 471.66 1.00301 1.62309 0
M  V30 4831 C 468.8 2.19009 2.667 0
M  V30 4832 C 467.913 3.46435 2.58083 0
M  V30 4833 C 467.048 3.65386 3.85573 0
M  V30 4834 C 466.087 4.8644 3.71541 0
M  V30 4835 N 465.224 5.01952 4.90906 0
M  V30 4836 H 470.064 2.80109 1.017 0
M  V30 4837 H 467.601 1.38666 0.490938 0
M  V30 4838 H 469.559 2.34025 3.45381 0
M  V30 4839 H 468.189 1.31779 2.94676 0
M  V30 4840 H 467.241 3.39792 1.71013 0
M  V30 4841 H 468.553 4.35258 2.43622 0
M  V30 4842 H 467.707 3.80319 4.72697 0
M  V30 4843 H 466.446 2.74781 4.02922 0
M  V30 4844 H 465.451 4.71491 2.82801 0
M  V30 4845 H 466.676 5.78497 3.55694 0
M  V30 4846 H 464.622 4.14283 5.08631 0
M  V30 4847 H 464.539 5.84851 4.79046 0
M  V30 4848 H 465.807 5.21289 5.7955 0
M  V30 4849 N 470.036 -0.519951 1.48776 0
M  V30 4850 C 471.284 -1.2727 1.56993 0
M  V30 4851 C 471.605 -1.9339 0.25004 0
M  V30 4852 O 470.875 -1.81822 -0.729216 0
M  V30 4853 H 469.455 -0.472732 0.578389 0
M  V30 4854 H 472.117 -0.604234 1.85297 0
M  V30 4855 H 471.213 -2.04669 2.3562 0
M  V30 4856 N 471.514 -1.37532 -0.769588 0
M  V30 4857 C 472.461 -1.3347 -1.88293 0
M  V30 4858 C 473.431 -0.199891 -1.64893 0
M  V30 4859 O 474.616 -0.389594 -1.8678 0
M  V30 4860 C 471.756 -1.14968 -3.25387 0
M  V30 4861 C 470.869 -2.37698 -3.60727 0
M  V30 4862 C 470.004 -2.12051 -4.8704 0
M  V30 4863 C 469.043 -3.30636 -5.15117 0
M  V30 4864 N 468.18 -3.04527 -6.3262 0
M  V30 4865 H 473.02 -2.28658 -1.911 0
M  V30 4866 H 470.557 -1.13622 -0.934257 0
M  V30 4867 H 472.515 -1.02261 -4.04473 0
M  V30 4868 H 471.145 -0.234263 -3.21949 0
M  V30 4869 H 470.197 -2.61137 -2.76608 0
M  V30 4870 H 471.509 -3.26131 -3.77413 0
M  V30 4871 H 470.663 -1.96388 -5.74035 0
M  V30 4872 H 469.402 -1.20959 -4.72462 0
M  V30 4873 H 468.407 -3.46836 -4.26597 0
M  V30 4874 H 469.632 -4.22582 -5.31603 0
M  V30 4875 H 467.578 -2.16067 -6.19396 0
M  V30 4876 H 467.495 -3.86503 -6.49732 0
M  V30 4877 H 468.763 -2.92485 -7.22546 0
M  V30 4878 N 472.992 0.995999 -1.22138 0
M  V30 4879 C 474.238 1.73767 -1.04561 0
M  V30 4880 C 474.571 1.89633 0.418698 0
M  V30 4881 O 473.846 1.43723 1.3105 0
M  V30 4882 C 474.129 3.14505 -1.75382 0
M  V30 4883 C 473.982 3.06306 -3.29388 0
M  V30 4884 C 475.301 4.13615 -1.50369 0
M  V30 4885 H 472.42 0.630728 -0.38125 0
M  V30 4886 H 475.062 1.16057 -1.50435 0
M  V30 4887 H 473.212 3.63775 -1.36383 0
M  V30 4888 H 474.884 2.64681 -3.77812 0
M  V30 4889 H 473.127 2.43186 -3.59226 0
M  V30 4890 H 473.798 4.05884 -3.74116 0
M  V30 4891 H 476.274 3.73089 -1.84239 0
M  V30 4892 H 475.15 5.10212 -2.02421 0
M  V30 4893 H 475.411 4.39949 -0.435611 0
M  V30 4894 N 474.47 1.03057 1.19235 0
M  V30 4895 C 475.695 0.74757 1.93458 0
M  V30 4896 C 476.12 -0.687648 1.7508 0
M  V30 4897 O 475.478 -1.47499 1.05422 0
M  V30 4898 C 475.526 1.10604 3.43219 0
M  V30 4899 O 474.63 0.225671 4.11782 0
M  V30 4900 H 473.971 0.276047 0.603899 0
M  V30 4901 H 476.501 1.3777 1.51263 0
M  V30 4902 H 476.511 1.06366 3.93891 0
M  V30 4903 H 475.186 2.15165 3.55917 0
M  V30 4904 H 473.763 0.326795 3.71465 0
M  V30 4905 N 475.948 -1.35272 0.808662 0
M  V30 4906 C 476.911 -2.28082 0.226093 0
M  V30 4907 C 477.911 -1.49673 -0.587762 0
M  V30 4908 O 479.101 -1.69404 -0.405943 0
M  V30 4909 C 476.233 -3.33955 -0.684596 0
M  V30 4910 H 477.426 -2.81116 1.04469 0
M  V30 4911 H 474.979 -1.45162 0.579466 0
M  V30 4912 H 475.714 -2.86111 -1.5268 0
M  V30 4913 H 475.499 -3.91965 -0.102699 0
M  V30 4914 H 476.989 -4.03219 -1.08646 0
M  V30 4915 N 477.426 -0.562348 -1.47226 0
M  V30 4916 C 478.336 0.185466 -2.33866 0
M  V30 4917 C 479.352 0.906713 -1.48508 0
M  V30 4918 O 480.528 0.874458 -1.81425 0
M  V30 4919 C 477.593 1.19904 -3.25306 0
M  V30 4920 C 476.654 0.484669 -4.26555 0
M  V30 4921 C 475.887 1.44996 -5.13626 0
M  V30 4922 O 476.11 2.68515 -5.03245 0
M  V30 4923 O 475.044 0.971642 -5.94006 0
M  V30 4924 H 478.87 -0.525361 -2.99121 0
M  V30 4925 H 476.455 -0.322916 -1.45868 0
M  V30 4926 H 478.337 1.78399 -3.81774 0
M  V30 4927 H 477.012 1.8917 -2.62672 0
M  V30 4928 H 475.919 -0.141605 -3.73832 0
M  V30 4929 H 477.252 -0.166634 -4.91918 0
M  V30 4930 N 478.904 1.54736 -0.299062 0
M  V30 4931 C 480.134 2.04215 0.312992 0
M  V30 4932 C 480.542 1.17596 1.48215 0
M  V30 4933 O 479.885 0.193835 1.82674 0
M  V30 4934 C 479.947 3.49696 0.833862 0
M  V30 4935 C 479.611 4.56518 -0.20977 0
M  V30 4936 C 480.608 5.09442 -1.03756 0
M  V30 4937 C 478.293 5.01073 -0.35091 0
M  V30 4938 C 480.287 6.05459 -1.99244 0
M  V30 4939 C 477.974 5.9691 -1.30924 0
M  V30 4940 C 478.972 6.48987 -2.1285 0
M  V30 4941 O 478.66 7.42947 -3.07059 0
M  V30 4942 H 478.392 0.672128 0.0722494 0
M  V30 4943 H 480.946 2.00718 -0.436043 0
M  V30 4944 H 479.176 3.5051 1.63339 0
M  V30 4945 H 480.865 3.82381 1.36159 0
M  V30 4946 H 481.631 4.75816 -0.939376 0
M  V30 4947 H 477.51 4.60168 0.276813 0
M  V30 4948 H 481.054 6.46031 -2.63229 0
M  V30 4949 H 476.951 6.29953 -1.40815 0
M  V30 4950 H 477.719 7.60743 -3.02015 0
M  V30 4951 N 480.382 0.0267497 1.57577 0
M  V30 4952 C 481.314 -0.984594 2.06974 0
M  V30 4953 C 482.327 -1.29032 0.992705 0
M  V30 4954 O 483.516 -1.25539 1.26895 0
M  V30 4955 C 480.616 -2.31262 2.47732 0
M  V30 4956 C 479.789 -2.1924 3.78487 0
M  V30 4957 C 478.848 -3.34956 4.05821 0
M  V30 4958 O 477.874 -3.11948 4.76106 0
M  V30 4959 N 479.076 -4.58672 3.55809 0
M  V30 4960 H 481.841 -0.563143 2.94362 0
M  V30 4961 H 479.402 -0.160061 1.61107 0
M  V30 4962 H 481.394 -3.07496 2.63112 0
M  V30 4963 H 479.964 -2.65056 1.65723 0
M  V30 4964 H 479.184 -1.27747 3.72927 0
M  V30 4965 H 480.472 -2.08409 4.64158 0
M  V30 4966 H 479.87 -4.8026 2.98942 0
M  V30 4967 H 478.427 -5.32083 3.76472 0
M  V30 4968 N 481.861 -1.55662 -0.24637 0
M  V30 4969 C 482.771 -1.93495 -1.32653 0
M  V30 4970 C 483.787 -0.835462 -1.5263 0
M  V30 4971 O 484.963 -1.1369 -1.66242 0
M  V30 4972 C 482.028 -2.22242 -2.66101 0
M  V30 4973 C 481.089 -3.45625 -2.54641 0
M  V30 4974 C 480.322 -3.72991 -3.81724 0
M  V30 4975 O 480.545 -3.02421 -4.8363 0
M  V30 4976 O 479.479 -4.66515 -3.80325 0
M  V30 4977 H 483.305 -2.85498 -1.03559 0
M  V30 4978 H 480.89 -1.42551 -0.44717 0
M  V30 4979 H 482.772 -2.42037 -3.44958 0
M  V30 4980 H 481.447 -1.33417 -2.94926 0
M  V30 4981 H 480.354 -3.31136 -1.74067 0
M  V30 4982 H 481.687 -4.34754 -2.3076 0
M  V30 4983 N 483.339 0.512053 -1.4905 0
M  V30 4984 C 484.302 1.59704 -1.64399 0
M  V30 4985 C 485.302 1.52285 -0.516317 0
M  V30 4986 O 486.492 1.55635 -0.782527 0
M  V30 4987 C 483.624 2.9935 -1.63102 0
M  V30 4988 H 484.817 1.47428 -2.61161 0
M  V30 4989 H 482.37 0.735469 -1.37915 0
M  V30 4990 H 483.105 3.17116 -0.678836 0
M  V30 4991 H 482.89 3.06144 -2.44986 0
M  V30 4992 H 484.38 3.782 -1.77072 0
M  V30 4993 N 484.817 1.37938 0.762283 0
M  V30 4994 C 486.094 1.24196 1.51112 0
M  V30 4995 C 486.474 -0.160409 2.1049 0
M  V30 4996 O 485.822 -1.16904 1.96331 0
M  V30 4997 C 486.032 2.34537 2.58445 0
M  V30 4998 C 487.38 2.7254 3.25588 0
M  V30 4999 O 488.404 2.33783 2.68745 0
M  V30 5000 O 487.263 3.39343 4.28379 0
M  V30 5001 H 484.357 0.485175 0.669727 0
M  V30 5002 H 486.903 1.49743 0.798438 0
M  V30 5003 H 485.675 3.28406 2.12756 0
M  V30 5004 H 485.298 2.10505 3.37303 0
M  V30 5005 N 486.295 -0.989507 1.22664 0
M  V30 5006 C 487.52 -1.77031 1.08051 0
M  V30 5007 C 487.945 -1.84535 -0.364483 0
M  V30 5008 O 487.303 -1.3003 -1.2634 0
M  V30 5009 C 487.351 -3.18 1.70024 0
M  V30 5010 O 486.455 -4.01161 0.956216 0
M  V30 5011 H 485.796 -0.545008 0.379292 0
M  V30 5012 H 488.326 -1.24277 1.62531 0
M  V30 5013 H 488.336 -3.68616 1.74888 0
M  V30 5014 H 487.011 -3.11853 2.75174 0
M  V30 5015 H 485.588 -3.59687 0.98384 0
M  V30 5016 N 487.773 -1.03688 -1.18687 0
M  V30 5017 C 489.189 -0.755413 -1.4059 0
M  V30 5018 C 489.389 0.656659 -1.905 0
M  V30 5019 O 488.445 1.42144 -2.08689 0
M  V30 5020 C 489.758 -1.7983 -2.41001 0
M  V30 5021 C 491.306 -1.81877 -2.54735 0
M  V30 5022 C 491.781 -2.85148 -3.58406 0
M  V30 5023 N 493.272 -2.84015 -3.6591 0
M  V30 5024 C 494.007 -3.60573 -4.45841 0
M  V30 5025 N 493.503 -4.46871 -5.29413 0
M  V30 5026 N 495.296 -3.49079 -4.40568 0
M  V30 5027 H 487.447 -1.94818 -0.846148 0
M  V30 5028 H 489.71 -0.842727 -0.434184 0
M  V30 5029 H 489.416 -2.81097 -2.1137 0
M  V30 5030 H 489.29 -1.62727 -3.40294 0
M  V30 5031 H 491.677 -0.812836 -2.83685 0
M  V30 5032 H 491.758 -2.03057 -1.55568 0
M  V30 5033 H 491.402 -3.85918 -3.30197 0
M  V30 5034 H 491.332 -2.61224 -4.57241 0
M  V30 5035 H 493.823 -2.21431 -3.0623 0
M  V30 5036 H 494.136 -5.02007 -5.87545 0
M  V30 5037 H 492.481 -4.5094 -5.28846 0
M  V30 5038 H 495.672 -2.81066 -3.74325 0
M  V30 5039 H 495.845 -4.08994 -5.02621 0
M  V30 5040 N 489.251 1.34841 -0.815825 0
M  V30 5041 C 490.181 2.32187 -0.247298 0
M  V30 5042 C 491.162 1.5791 0.632344 0
M  V30 5043 O 492.347 1.8593 0.560698 0
M  V30 5044 C 489.477 3.42122 0.597466 0
M  V30 5045 C 488.431 4.27602 -0.184446 0
M  V30 5046 C 487.757 5.28942 0.782609 0
M  V30 5047 C 489.057 5.03502 -1.38865 0
M  V30 5048 H 490.751 2.79985 -1.06061 0
M  V30 5049 H 488.297 1.34611 -0.511461 0
M  V30 5050 H 490.25 4.09232 1.00533 0
M  V30 5051 H 488.974 2.92956 1.44376 0
M  V30 5052 H 487.633 3.62085 -0.573592 0
M  V30 5053 H 487.281 4.7604 1.62466 0
M  V30 5054 H 486.981 5.87008 0.263695 0
M  V30 5055 H 488.505 5.98922 1.18848 0
M  V30 5056 H 489.919 5.63506 -1.05518 0
M  V30 5057 H 488.316 5.71108 -1.8427 0
M  V30 5058 H 489.386 4.33608 -2.17054 0
M  V30 5059 N 490.729 0.570148 1.46925 0
M  V30 5060 C 492.145 0.23087 1.57921 0
M  V30 5061 C 492.345 -1.26676 1.56702 0
M  V30 5062 O 491.401 -2.04774 1.47729 0
M  V30 5063 C 492.714 0.868973 2.8787 0
M  V30 5064 C 494.262 0.841397 3.01479 0
M  V30 5065 C 494.737 1.45881 4.34146 0
M  V30 5066 N 496.228 1.42258 4.40814 0
M  V30 5067 C 496.963 1.8698 5.42057 0
M  V30 5068 N 496.459 2.39618 6.50042 0
M  V30 5069 N 498.252 1.77972 5.33181 0
M  V30 5070 H 490.403 1.54301 1.45962 0
M  V30 5071 H 492.666 0.644224 0.69547 0
M  V30 5072 H 492.372 1.922 2.94537 0
M  V30 5073 H 492.246 0.369682 3.75384 0
M  V30 5074 H 494.633 -0.202973 2.94401 0
M  V30 5075 H 494.714 1.37858 2.15474 0
M  V30 5076 H 494.358 2.50231 4.4198 0
M  V30 5077 H 494.288 0.896958 5.18905 0
M  V30 5078 H 496.779 1.03768 3.63374 0
M  V30 5079 H 497.092 2.71633 7.23488 0
M  V30 5080 H 495.437 2.43636 6.50897 0
M  V30 5081 H 498.628 1.36617 4.4772 0
M  V30 5082 H 498.801 2.13143 6.11943 0
M  V30 5083 N 492.207 -1.54576 0.307264 0
M  V30 5084 C 493.437 -2.04378 -0.302158 0
M  V30 5085 C 493.845 -1.18381 -1.47589 0
M  V30 5086 O 493.188 -0.20352 -1.82569 0
M  V30 5087 C 493.25 -3.50133 -0.815305 0
M  V30 5088 C 492.914 -4.56401 0.233977 0
M  V30 5089 C 493.911 -5.08884 1.06456 0
M  V30 5090 C 491.596 -5.0088 0.377478 0
M  V30 5091 C 493.59 -6.04394 2.02452 0
M  V30 5092 C 491.277 -5.96208 1.34088 0
M  V30 5093 C 492.275 -6.47849 2.16288 0
M  V30 5094 O 491.963 -7.41308 3.10994 0
M  V30 5095 H 491.695 -0.672502 -0.0686839 0
M  V30 5096 H 494.249 -2.00484 0.446682 0
M  V30 5097 H 492.479 -3.51371 -1.61478 0
M  V30 5098 H 494.168 -3.83098 -1.34129 0
M  V30 5099 H 494.934 -4.75311 0.964596 0
M  V30 5100 H 490.813 -4.60309 -0.252405 0
M  V30 5101 H 494.357 -6.44626 2.66652 0
M  V30 5102 H 490.254 -6.29198 1.44154 0
M  V30 5103 H 491.022 -7.5913 3.06045 0
M  V30 5104 N 493.685 -0.035106 -1.57561 0
M  V30 5105 C 494.648 0.929819 -2.09492 0
M  V30 5106 C 495.648 1.25026 -1.01119 0
M  V30 5107 O 496.838 1.18961 -1.27255 0
M  V30 5108 C 493.97 2.24457 -2.56577 0
M  V30 5109 H 495.163 0.479935 -2.96035 0
M  V30 5110 H 492.716 0.213033 -1.54841 0
M  V30 5111 H 493.451 2.74061 -1.73382 0
M  V30 5112 H 493.236 2.02508 -3.35757 0
M  V30 5113 H 494.726 2.93607 -2.96959 0
M  V30 5114 N 495.163 1.55791 0.238111 0
M  V30 5115 C 496.411 1.77681 0.963001 0
M  V30 5116 C 496.732 0.600674 1.85518 0
M  V30 5117 O 496.002 -0.383182 1.92116 0
M  V30 5118 H 494.582 0.655315 0.358568 0
M  V30 5119 H 497.244 1.93239 0.253945 0
M  V30 5120 H 496.34 2.69177 1.57956 0
M  V30 5121 N 496.642 -0.504142 1.49319 0
M  V30 5122 C 497.867 -1.28729 1.62615 0
M  V30 5123 C 498.292 -1.85752 0.296309 0
M  V30 5124 O 497.65 -1.65704 -0.735649 0
M  V30 5125 C 497.698 -2.39561 2.69524 0
M  V30 5126 O 496.802 -3.43324 2.28478 0
M  V30 5127 H 496.143 -0.380172 0.544395 0
M  V30 5128 H 498.673 -0.603872 1.95485 0
M  V30 5129 H 498.683 -2.8537 2.91595 0
M  V30 5130 H 497.358 -1.97423 3.66056 0
M  V30 5131 H 495.935 -3.03455 2.16725 0
M  V30 5132 N 498.12 -1.38341 -0.754957 0
M  V30 5133 C 499.367 -1.34473 -1.51404 0
M  V30 5134 C 499.695 0.0656458 -1.94389 0
M  V30 5135 O 498.95 1.04244 -1.65625 0
M  V30 5136 C 499.249 -2.2452 -2.78075 0
M  V30 5137 C 498.915 -3.72512 -2.54059 0
M  V30 5138 C 497.577 -4.1284 -2.47218 0
M  V30 5139 C 499.929 -4.66197 -2.33044 0
M  V30 5140 C 497.257 -5.44945 -2.17376 0
M  V30 5141 C 499.609 -5.98558 -2.04723 0
M  V30 5142 C 498.273 -6.37972 -1.96337 0
M  V30 5143 H 497.543 -0.492072 -0.554027 0
M  V30 5144 H 500.19 -1.70687 -0.868223 0
M  V30 5145 H 498.495 -1.81357 -3.473 0
M  V30 5146 H 500.192 -2.18832 -3.36026 0
M  V30 5147 H 496.782 -3.40538 -2.60253 0
M  V30 5148 H 500.966 -4.35888 -2.37309 0
M  V30 5149 H 496.222 -5.74426 -2.09391 0
M  V30 5150 H 500.396 -6.70693 -1.87465 0
M  V30 5151 H 498.023 -7.40258 -1.72978 0
M  V30 5152 N 499.598 0.982988 -1.23187 0
M  V30 5153 C 500.846 1.72052 -1.06031 0
M  V30 5154 C 501.167 1.90769 0.404019 0
M  V30 5155 O 500.437 1.47446 1.28982 0
M  V30 5156 H 499.017 0.637499 -0.389363 0
M  V30 5157 H 501.679 1.18338 -1.54862 0
M  V30 5158 H 500.775 2.7111 -1.54615 0
M  V30 5159 N 501.076 1.04316 1.18135 0
M  V30 5160 C 502.039 0.640794 2.2006 0
M  V30 5161 C 503.039 -0.303124 1.57917 0
M  V30 5162 O 504.229 -0.0881855 1.73977 0
M  V30 5163 C 501.361 -0.060148 3.40847 0
M  V30 5164 H 502.554 1.54281 2.57172 0
M  V30 5165 H 500.107 0.836004 1.32063 0
M  V30 5166 H 500.842 -0.975845 3.0927 0
M  V30 5167 H 500.627 0.618319 3.87194 0
M  V30 5168 H 502.117 -0.328082 4.16309 0
M  V30 5169 N 502.554 -1.34406 0.822964 0
M  V30 5170 C 503.803 -1.97542 0.407458 0
M  V30 5171 C 504.116 -1.65973 -1.035 0
M  V30 5172 O 505.322 -2.22598 -1.55442 0
M  V30 5173 C 503.778 -3.53463 0.677623 0
M  V30 5174 C 503.386 -3.93925 2.1337 0
M  V30 5175 C 505.13 -4.23229 0.328284 0
M  V30 5176 C 503.037 -5.42759 2.34876 0
M  V30 5177 H 501.967 -0.739207 0.148623 0
M  V30 5178 H 504.618 -1.53248 1.00932 0
M  V30 5179 H 503 -3.96 0.00558965 0
M  V30 5180 H 504.174 -3.62494 2.8449 0
M  V30 5181 H 502.489 -3.37097 2.44448 0
M  V30 5182 H 505.086 -5.32659 0.466794 0
M  V30 5183 H 505.429 -4.09899 -0.727224 0
M  V30 5184 H 505.962 -3.86169 0.954896 0
M  V30 5185 H 502.701 -5.61075 3.38932 0
M  V30 5186 H 502.221 -5.75704 1.68299 0
M  V30 5187 H 503.9 -6.0944 2.17236 0
M  V30 5188 N 504.032 -0.577932 -1.46621 0
M  V30 5189 C 505.309 0.00495287 -1.95599 0
M  V30 5190 C 505.689 1.46428 -1.5206 0
M  V30 5191 O 505.037 2.1517 -0.769046 0
M  V30 5192 C 505.247 -0.162114 -3.48623 0
M  V30 5193 C 506.595 -0.0274623 -4.24591 0
M  V30 5194 O 507.619 -0.0907067 -3.56084 0
M  V30 5195 O 506.478 0.1122 -5.46385 0
M  V30 5196 H 503.572 0.0525057 -0.825332 0
M  V30 5197 H 506.118 -0.645914 -1.56927 0
M  V30 5198 H 504.89 -1.17679 -3.73185 0
M  V30 5199 H 504.513 0.525407 -3.94113 0
M  V30 5200 N 505.51 1.54411 -0.315457 0
M  V30 5201 C 506.921 1.85885 0.174265 0
M  V30 5202 C 507.272 1.23723 1.52273 0
M  V30 5203 O 506.397 0.540246 2.09548 0
M  V30 5204 C 506.992 3.37257 0.322981 0
M  V30 5205 C 505.551 3.68711 0.756922 0
M  V30 5206 C 504.698 2.77013 -0.126195 0
M  V30 5207 H 507.649 1.49374 -0.536007 0
M  V30 5208 H 507.67 3.62539 1.15522 0
M  V30 5209 H 507.182 3.82471 -0.658602 0
M  V30 5210 H 505.283 3.29024 1.74854 0
M  V30 5211 H 505.396 4.75741 0.566291 0
M  V30 5212 H 503.76 2.51588 0.39692 0
M  V30 5213 H 504.543 3.25051 -1.1044 0
M  V30 5214 N 506.988 0.0434614 1.5754 0
M  V30 5215 C 507.92 -0.962586 2.08007 0
M  V30 5216 C 508.933 -1.27972 1.00634 0
M  V30 5217 O 510.122 -1.24186 1.28219 0
M  V30 5218 C 507.222 -2.28621 2.50171 0
M  V30 5219 C 506.395 -2.15214 3.80791 0
M  V30 5220 C 505.454 -3.30633 4.09351 0
M  V30 5221 O 504.48 -3.0688 4.79388 0
M  V30 5222 N 505.682 -4.54873 3.60654 0
M  V30 5223 H 508.447 -0.531891 2.94942 0
M  V30 5224 H 506.008 -0.142965 1.61268 0
M  V30 5225 H 508 -3.04689 2.66359 0
M  V30 5226 H 506.57 -2.63283 1.68525 0
M  V30 5227 H 505.79 -1.23785 3.74261 0
M  V30 5228 H 507.078 -2.03475 4.66343 0
M  V30 5229 H 506.476 -4.77063 3.04019 0
M  V30 5230 H 505.033 -5.2806 3.82094 0
M  V30 5231 N 508.466 -1.55915 -0.229846 0
M  V30 5232 C 509.694 -1.82617 -0.972562 0
M  V30 5233 C 510.109 -0.621488 -1.78278 0
M  V30 5234 O 509.466 0.409956 -1.77836 0
M  V30 5235 C 509.517 -3.0774 -1.89679 0
M  V30 5236 O 509.238 -4.23559 -1.11934 0
M  V30 5237 C 510.739 -3.47368 -2.75409 0
M  V30 5238 H 507.959 -0.60727 -0.285419 0
M  V30 5239 H 510.503 -2.02996 -0.247579 0
M  V30 5240 H 508.658 -2.89361 -2.57583 0
M  V30 5241 H 509.072 -4.94586 -1.74599 0
M  V30 5242 H 510.546 -4.37977 -3.35977 0
M  V30 5243 H 511.023 -2.68737 -3.47386 0
M  V30 5244 H 511.629 -3.68158 -2.12931 0
M  V30 5245 N 509.944 0.496216 -1.49584 0
M  V30 5246 C 511.192 1.24756 -1.58998 0
M  V30 5247 C 511.513 1.92968 -0.280775 0
M  V30 5248 O 510.783 1.82959 0.700198 0
M  V30 5249 H 509.363 0.463471 -0.585836 0
M  V30 5250 H 512.025 0.574678 -1.86235 0
M  V30 5251 H 511.121 2.00895 -2.38847 0
M  V30 5252 N 511.423 1.38739 0.74761 0
M  V30 5253 C 512.7 1.25791 1.49786 0
M  V30 5254 C 513.08 -0.138075 2.10648 0
M  V30 5255 O 512.428 -1.14815 1.9756 0
M  V30 5256 C 512.638 2.37265 2.55942 0
M  V30 5257 C 513.986 2.75978 3.22679 0
M  V30 5258 O 515.01 2.36621 2.6625 0
M  V30 5259 O 513.869 3.43867 4.24756 0
M  V30 5260 H 510.963 0.492251 0.664543 0
M  V30 5261 H 513.509 1.50582 0.782511 0
M  V30 5262 H 512.281 3.30644 2.0926 0
M  V30 5263 H 511.904 2.14071 3.35051 0
M  V30 5264 N 512.901 -0.976442 1.23707 0
M  V30 5265 C 514.149 -1.71487 1.06942 0
M  V30 5266 C 514.47 -1.9098 -0.393897 0
M  V30 5267 O 513.74 -1.48128 -1.28198 0
M  V30 5268 H 512.32 -0.635425 0.392739 0
M  V30 5269 H 514.982 -1.17515 1.55487 0
M  V30 5270 H 514.078 -2.70286 1.56051 0
M  V30 5271 N 514.379 -1.04941 -1.1758 0
M  V30 5272 C 515.627 -0.756492 -1.87408 0
M  V30 5273 C 515.948 0.718478 -1.81281 0
M  V30 5274 O 515.218 1.519 -1.23706 0
M  V30 5275 H 513.798 -0.276841 -0.693807 0
M  V30 5276 H 516.46 -1.32803 -1.42652 0
M  V30 5277 H 515.556 -1.06918 -2.93215 0
M  V30 5278 N 515.857 1.33968 -0.830081 0
M  V30 5279 C 516.789 2.28194 -0.21448 0
M  V30 5280 C 517.802 1.5135 0.599752 0
M  V30 5281 O 518.991 1.73286 0.42826 0
M  V30 5282 C 516.091 3.31221 0.717356 0
M  V30 5283 C 515.264 4.37365 -0.055613 0
M  V30 5284 C 514.323 5.2011 0.798231 0
M  V30 5285 O 513.349 5.68691 0.240616 0
M  V30 5286 N 514.551 5.40523 2.11695 0
M  V30 5287 H 517.316 2.81662 -1.02405 0
M  V30 5288 H 514.877 1.46568 -0.687713 0
M  V30 5289 H 516.869 3.83477 1.29334 0
M  V30 5290 H 515.439 2.78095 1.42765 0
M  V30 5291 H 514.659 3.85727 -0.812936 0
M  V30 5292 H 515.947 5.05397 -0.587444 0
M  V30 5293 H 515.345 5.0274 2.59363 0
M  V30 5294 H 513.902 5.95871 2.64162 0
M  V30 5295 N 517.335 0.585699 1.46312 0
M  V30 5296 C 518.265 -0.133556 2.33118 0
M  V30 5297 C 519.246 -0.880707 1.45525 0
M  V30 5298 O 520.431 -0.855579 1.74337 0
M  V30 5299 C 517.561 -1.14585 3.27853 0
M  V30 5300 C 516.515 -0.513341 4.2491 0
M  V30 5301 C 515.841 -1.63231 5.09175 0
M  V30 5302 C 517.141 0.551413 5.19381 0
M  V30 5303 H 518.835 0.59121 2.93505 0
M  V30 5304 H 516.381 0.285761 1.41136 0
M  V30 5305 H 518.334 -1.65741 3.87438 0
M  V30 5306 H 517.058 -1.90093 2.65579 0
M  V30 5307 H 515.717 -0.0228349 3.66593 0
M  V30 5308 H 515.365 -2.37713 4.43285 0
M  V30 5309 H 515.065 -1.21473 5.74907 0
M  V30 5310 H 516.589 -2.14658 5.71624 0
M  V30 5311 H 518.003 0.124804 5.73164 0
M  V30 5312 H 516.4 0.889486 5.93471 0
M  V30 5313 H 517.47 1.43655 4.63132 0
M  V30 5314 N 518.813 -1.54241 0.323641 0
M  V30 5315 C 519.746 -2.20579 -0.584833 0
M  V30 5316 C 520.724 -1.18286 -1.11567 0
M  V30 5317 O 521.908 -1.47025 -1.17966 0
M  V30 5318 C 519.035 -2.86754 -1.80249 0
M  V30 5319 C 518.081 -4.02767 -1.4029 0
M  V30 5320 S 518.914 -5.33693 -0.439539 0
M  V30 5321 C 520.07 -6.03362 -1.66448 0
M  V30 5322 H 520.303 -2.97292 -0.0213238 0
M  V30 5323 H 517.836 -1.54024 0.107726 0
M  V30 5324 H 519.794 -3.25503 -2.50116 0
M  V30 5325 H 518.455 -2.09844 -2.33719 0
M  V30 5326 H 517.648 -4.47933 -2.31024 0
M  V30 5327 H 517.25 -3.65692 -0.783928 0
M  V30 5328 H 519.542 -6.25546 -2.6019 0
M  V30 5329 H 520.485 -6.9689 -1.25498 0
M  V30 5330 H 520.893 -5.33273 -1.85149 0
M  V30 5331 N 520.291 -0.0518155 -1.57515 0
M  V30 5332 C 521.539 0.620595 -1.92336 0
M  V30 5333 C 521.86 1.71345 -0.930907 0
M  V30 5334 O 521.13 1.95885 0.0241341 0
M  V30 5335 H 519.71 0.232226 -0.709986 0
M  V30 5336 H 522.372 -0.104969 -1.94617 0
M  V30 5337 H 521.468 1.05879 -2.93592 0
M  V30 5338 N 521.769 1.56035 0.221574 0
M  V30 5339 C 522.732 1.91584 1.2581 0
M  V30 5340 C 523.732 0.794425 1.39805 0
M  V30 5341 O 524.922 1.06217 1.38071 0
M  V30 5342 C 522.054 2.16663 2.63192 0
M  V30 5343 H 523.247 2.8429 0.954935 0
M  V30 5344 H 520.8 1.49316 0.461988 0
M  V30 5345 H 521.535 1.26508 2.98607 0
M  V30 5346 H 521.32 2.98358 2.5441 0
M  V30 5347 H 522.81 2.45262 3.37988 0
M  V30 5348 N 523.247 -0.488276 1.49845 0
M  V30 5349 C 524.21 -1.57069 1.66919 0
M  V30 5350 C 525.21 -1.51445 0.540479 0
M  V30 5351 O 526.4 -1.5437 0.807188 0
M  V30 5352 C 523.532 -2.96718 1.67844 0
M  V30 5353 H 524.725 -1.43254 2.63474 0
M  V30 5354 H 522.278 -0.713435 1.39068 0
M  V30 5355 H 523.013 -3.15996 0.7292 0
M  V30 5356 H 522.798 -3.02208 2.49826 0
M  V30 5357 H 524.288 -3.75335 1.83066 0
M  V30 5358 N 524.725 -1.39134 -0.740242 0
M  V30 5359 C 525.955 -1.39132 -1.52728 0
M  V30 5360 C 526.363 0.0173133 -1.89192 0
M  V30 5361 O 525.706 0.997715 -1.54244 0
M  V30 5362 C 525.768 -2.1952 -2.84695 0
M  V30 5363 C 525.432 -3.68203 -2.70695 0
M  V30 5364 C 526.429 -4.61401 -2.39593 0
M  V30 5365 C 524.114 -4.11724 -2.8773 0
M  V30 5366 C 526.108 -5.96102 -2.25701 0
M  V30 5367 C 523.795 -5.46503 -2.73456 0
M  V30 5368 C 524.793 -6.38506 -2.42486 0
M  V30 5369 O 524.481 -7.70803 -2.28295 0
M  V30 5370 H 524.213 -0.477263 -0.478744 0
M  V30 5371 H 526.767 -1.83504 -0.922799 0
M  V30 5372 H 524.997 -1.69888 -3.47383 0
M  V30 5373 H 526.686 -2.1176 -3.46284 0
M  V30 5374 H 527.452 -4.29079 -2.26088 0
M  V30 5375 H 523.331 -3.4045 -3.10829 0
M  V30 5376 H 526.875 -6.6788 -2.0145 0
M  V30 5377 H 522.772 -5.78417 -2.86538 0
M  V30 5378 H 523.54 -7.8147 -2.43405 0
M  V30 5379 N 526.204 0.969867 -1.24223 0
M  V30 5380 C 527.151 2.06407 -1.0327 0
M  V30 5381 C 528.121 1.66014 0.0533 0
M  V30 5382 O 529.306 1.90533 -0.100896 0
M  V30 5383 C 526.446 3.3909 -0.641262 0
M  V30 5384 C 525.559 3.9269 -1.80051 0
M  V30 5385 C 524.694 5.13631 -1.35486 0
M  V30 5386 C 523.733 5.59423 -2.48419 0
M  V30 5387 N 522.87 6.71586 -2.04737 0
M  V30 5388 H 527.71 2.23663 -1.96923 0
M  V30 5389 H 525.247 1.09624 -0.980862 0
M  V30 5390 H 527.205 4.15323 -0.395351 0
M  V30 5391 H 525.835 3.21765 0.258269 0
M  V30 5392 H 524.887 3.13116 -2.16014 0
M  V30 5393 H 526.199 4.22636 -2.64916 0
M  V30 5394 H 525.353 5.97231 -1.0677 0
M  V30 5395 H 524.092 4.85364 -0.476722 0
M  V30 5396 H 523.097 4.74398 -2.77897 0
M  V30 5397 H 524.322 5.89705 -3.36786 0
M  V30 5398 H 522.268 6.45058 -1.19318 0
M  V30 5399 H 522.185 7.0097 -2.83156 0
M  V30 5400 H 523.453 7.58633 -1.79154 0
M  V30 5401 N 527.682 1.05563 1.17022 0
M  V30 5402 C 528.929 0.767937 1.87374 0
M  V30 5403 C 529.257 -0.705224 1.81265 0
M  V30 5404 O 528.512 -1.5318 1.21796 0
M  V30 5405 C 528.811 1.19849 3.36706 0
M  V30 5406 C 528.477 2.6745 3.63017 0
M  V30 5407 C 527.139 3.0777 3.69907 0
M  V30 5408 C 529.491 3.62811 3.74189 0
M  V30 5409 C 526.819 4.42307 3.85463 0
M  V30 5410 C 529.171 4.97087 3.91264 0
M  V30 5411 C 527.835 5.37055 3.96394 0
M  V30 5412 H 527.105 0.281008 0.68565 0
M  V30 5413 H 529.752 1.32339 1.38415 0
M  V30 5414 H 528.057 0.562096 3.87747 0
M  V30 5415 H 529.754 0.953038 3.8951 0
M  V30 5416 H 526.344 2.35228 3.58282 0
M  V30 5417 H 530.528 3.32798 3.68183 0
M  V30 5418 H 525.784 4.72769 3.87684 0
M  V30 5419 H 529.958 5.70869 3.9885 0
M  V30 5420 H 527.585 6.41308 4.082 0
M  V30 5421 N 529.16 -1.33526 0.837174 0
M  V30 5422 C 530.107 -2.29248 0.267169 0
M  V30 5423 C 531.077 -1.54252 -0.616071 0
M  V30 5424 O 532.262 -1.82559 -0.554699 0
M  V30 5425 C 529.402 -3.40638 -0.553152 0
M  V30 5426 C 528.515 -4.30548 0.353921 0
M  V30 5427 C 527.65 -5.29051 -0.477339 0
M  V30 5428 C 526.689 -6.106 0.42823 0
M  V30 5429 N 525.826 -7.01152 -0.364801 0
M  V30 5430 H 530.666 -2.77398 1.08877 0
M  V30 5431 H 528.203 -1.36496 0.54838 0
M  V30 5432 H 530.161 -4.03921 -1.04422 0
M  V30 5433 H 528.791 -2.93685 -1.33973 0
M  V30 5434 H 527.843 -3.68001 0.963289 0
M  V30 5435 H 529.155 -4.87631 1.04964 0
M  V30 5436 H 528.309 -5.97853 -1.0323 0
M  V30 5437 H 527.048 -4.72541 -1.2065 0
M  V30 5438 H 526.053 -5.40718 0.995219 0
M  V30 5439 H 527.278 -6.69193 1.15573 0
M  V30 5440 H 525.224 -6.47092 -1.07738 0
M  V30 5441 H 525.141 -7.5551 0.272238 0
M  V30 5442 H 526.409 -7.74263 -0.902054 0
M  V30 5443 N 530.638 -0.59345 -1.46 0
M  V30 5444 C 531.863 -0.0872365 -2.07216 0
M  V30 5445 C 532.288 1.2131 -1.43755 0
M  V30 5446 O 531.646 1.73528 -0.525152 0
M  V30 5447 C 531.694 0.0538197 -3.6056 0
M  V30 5448 O 530.798 1.10765 -3.97247 0
M  V30 5449 H 530.139 -0.0676598 -0.660544 0
M  V30 5450 H 532.669 -0.819445 -1.87473 0
M  V30 5451 H 532.679 0.256567 -4.07193 0
M  V30 5452 H 531.354 -0.895739 -4.0614 0
M  V30 5453 H 529.931 0.882501 -3.62307 0
M  V30 5454 N 532.116 1.54067 -0.331816 0
M  V30 5455 C 533.365 1.99895 0.269209 0
M  V30 5456 C 533.678 1.22371 1.52593 0
M  V30 5457 O 534.884 1.58618 2.20347 0
M  V30 5458 C 533.34 3.55972 0.530244 0
M  V30 5459 C 532.948 4.4234 -0.709901 0
M  V30 5460 C 534.692 4.10247 1.09077 0
M  V30 5461 C 532.599 5.89905 -0.420312 0
M  V30 5462 H 531.529 0.746741 0.104371 0
M  V30 5463 H 534.18 1.78014 -0.445324 0
M  V30 5464 H 532.562 3.73873 1.30518 0
M  V30 5465 H 533.736 4.36215 -1.48504 0
M  V30 5466 H 532.051 3.98997 -1.19123 0
M  V30 5467 H 534.648 5.18095 1.32219 0
M  V30 5468 H 534.991 3.62739 2.0427 0
M  V30 5469 H 535.524 3.96011 0.376824 0
M  V30 5470 H 532.263 6.41623 -1.34164 0
M  V30 5471 H 531.783 5.98962 0.316962 0
M  V30 5472 H 533.462 6.46991 -0.0331956 0
M  V30 5473 N 533.594 0.0601682 1.57485 0
M  V30 5474 C 534.526 -0.94047 2.09016 0
M  V30 5475 C 535.539 -1.26897 1.01985 0
M  V30 5476 O 536.728 -1.22819 1.29529 0
M  V30 5477 C 533.828 -2.25955 2.52582 0
M  V30 5478 C 533.001 -2.11163 3.83052 0
M  V30 5479 C 532.06 -3.26273 4.12835 0
M  V30 5480 O 531.086 -3.01779 4.82616 0
M  V30 5481 N 532.288 -4.51022 3.65458 0
M  V30 5482 H 535.053 -0.500578 2.9549 0
M  V30 5483 H 532.614 -0.125852 1.6141 0
M  V30 5484 H 534.606 -3.01846 2.69575 0
M  V30 5485 H 533.176 -2.61481 1.71308 0
M  V30 5486 H 532.396 -1.19808 3.75552 0
M  V30 5487 H 533.684 -1.98517 4.68475 0
M  V30 5488 H 533.082 -4.73811 3.09062 0
M  V30 5489 H 531.639 -5.23978 3.87673 0
M  V30 5490 N 535.072 -1.5615 -0.213296 0
M  V30 5491 C 536.488 -1.49327 -0.56336 0
M  V30 5492 C 536.688 -0.756826 -1.86747 0
M  V30 5493 O 535.744 -0.299866 -2.50713 0
M  V30 5494 C 537.057 -2.9392 -0.634944 0
M  V30 5495 C 538.605 -3.04487 -0.725013 0
M  V30 5496 C 539.08 -4.50456 -0.82787 0
M  V30 5497 N 540.571 -4.54533 -0.891876 0
M  V30 5498 C 541.306 -5.64766 -0.991315 0
M  V30 5499 N 540.802 -6.84733 -1.05419 0
M  V30 5500 N 542.595 -5.52637 -1.02709 0
M  V30 5501 H 534.746 -2.02453 0.642366 0
M  V30 5502 H 537.009 -0.920548 0.226487 0
M  V30 5503 H 536.715 -3.50783 0.253859 0
M  V30 5504 H 536.589 -3.46274 -1.49579 0
M  V30 5505 H 538.976 -2.47685 -1.60425 0
M  V30 5506 H 539.057 -2.55289 0.161669 0
M  V30 5507 H 538.701 -5.07878 0.0469464 0
M  V30 5508 H 538.631 -4.97369 -1.73009 0
M  V30 5509 H 541.122 -3.68141 -0.85327 0
M  V30 5510 H 541.435 -7.64493 -1.13007 0
M  V30 5511 H 539.78 -6.87427 -1.02318 0
M  V30 5512 H 542.971 -4.5784 -0.974687 0
M  V30 5513 H 543.144 -6.38576 -1.10113 0
M  V30 5514 N 536.55 0.480323 -1.50102 0
M  V30 5515 C 537.775 1.26126 -1.64642 0
M  V30 5516 C 538.2 1.85257 -0.325823 0
M  V30 5517 O 537.558 1.66854 0.709194 0
M  V30 5518 C 537.606 2.35243 -2.73301 0
M  V30 5519 O 536.71 3.39646 -2.33911 0
M  V30 5520 H 536.051 0.371463 -0.550374 0
M  V30 5521 H 538.581 0.572696 -1.96421 0
M  V30 5522 H 538.591 2.80695 -2.96098 0
M  V30 5523 H 537.266 1.91574 -3.6915 0
M  V30 5524 H 535.843 2.99969 -2.21525 0
M  V30 5525 N 538.028 1.39524 0.732853 0
M  V30 5526 C 538.958 1.41153 1.86005 0
M  V30 5527 C 539.939 0.274614 1.67869 0
M  V30 5528 O 541.124 0.480745 1.88155 0
M  V30 5529 C 538.254 1.25638 3.23778 0
M  V30 5530 C 537.208 2.36752 3.56556 0
M  V30 5531 C 536.534 2.06326 4.93289 0
M  V30 5532 C 537.834 3.79069 3.5931 0
M  V30 5533 H 539.528 2.35484 1.84899 0
M  V30 5534 H 537.074 1.13348 0.888162 0
M  V30 5535 H 539.027 1.25398 4.0231 0
M  V30 5536 H 537.751 0.277772 3.25417 0
M  V30 5537 H 536.41 2.36213 2.80355 0
M  V30 5538 H 536.058 1.06897 4.9151 0
M  V30 5539 H 535.758 2.80757 5.16187 0
M  V30 5540 H 537.282 2.07739 5.74175 0
M  V30 5541 H 538.696 3.81526 4.27914 0
M  V30 5542 H 537.093 4.52878 3.93728 0
M  V30 5543 H 538.163 4.09893 2.59068 0
M  V30 5544 N 539.506 -0.963266 1.24736 0
M  V30 5545 C 540.783 -1.68248 0.9976 0
M  V30 5546 C 541.163 -2.05599 -0.478776 0
M  V30 5547 O 540.511 -1.7626 -1.45412 0
M  V30 5548 C 540.721 -2.91118 1.92487 0
M  V30 5549 C 542.069 -3.63261 2.19833 0
M  V30 5550 O 543.093 -3.01184 1.90176 0
M  V30 5551 O 541.952 -4.75019 2.7022 0
M  V30 5552 H 539.046 -0.735744 0.377637 0
M  V30 5553 H 541.592 -1.01696 1.35853 0
M  V30 5554 H 540.364 -2.60242 2.92215 0
M  V30 5555 H 539.987 -3.65402 1.56738 0
M  V30 5556 N 540.985 -1.06182 -1.16461 0
M  V30 5557 C 541.948 -0.675723 -2.19013 0
M  V30 5558 C 542.948 0.277963 -1.58379 0
M  V30 5559 O 544.138 0.0604962 -1.74095 0
M  V30 5560 C 541.27 0.00591459 -3.40899 0
M  V30 5561 H 542.463 -1.58353 -2.54685 0
M  V30 5562 H 540.016 -0.856908 -1.30716 0
M  V30 5563 H 540.751 0.92652 -3.10783 0
M  V30 5564 H 540.536 -0.67984 -3.86161 0
M  V30 5565 H 542.026 0.26181 -4.16778 0
M  V30 5566 N 542.463 1.3308 -0.844243 0
M  V30 5567 C 543.411 2.31028 -0.269954 0
M  V30 5568 C 544.405 1.58381 0.600997 0
M  V30 5569 O 545.611 1.73203 0.48996 0
M  V30 5570 H 541.986 0.748866 -0.0685782 0
M  V30 5571 H 543.957 2.76967 -1.11049 0
M  V30 5572 C 542.706 3.43549 0.535676 0
M  V30 5573 H 542.029 3.99604 -0.125202 0
M  V30 5574 H 543.469 4.14267 0.903262 0
M  V30 5575 C 541.928 2.8988 1.71672 0
M  V30 5576 O 542.458 2.86511 2.81557 0
M  V30 5577 N 540.664 2.46416 1.54037 0
M  V30 5578 H 540.211 2.49356 0.64649 0
M  V30 5579 H 540.169 2.1086 2.33207 0
M  V30 5580 N 543.941 0.601185 1.45683 0
M  V30 5581 C 544.871 -0.108824 2.33246 0
M  V30 5582 C 545.852 -0.865223 1.46451 0
M  V30 5583 O 547.037 -0.83704 1.75235 0
M  V30 5584 C 544.167 -1.11101 3.2905 0
M  V30 5585 C 543.121 -0.468244 4.25431 0
M  V30 5586 C 542.447 -1.57822 5.10878 0
M  V30 5587 C 543.747 0.606469 5.18767 0
M  V30 5588 H 545.441 0.622306 2.92861 0
M  V30 5589 H 542.987 0.300714 1.40825 0
M  V30 5590 H 544.94 -1.61622 3.89174 0
M  V30 5591 H 543.664 -1.87265 2.67581 0
M  V30 5592 H 542.323 0.0160484 3.66596 0
M  V30 5593 H 541.971 -2.32998 4.45781 0
M  V30 5594 H 541.671 -1.15369 5.76163 0
M  V30 5595 H 543.195 -2.08583 5.73869 0
M  V30 5596 H 544.609 0.185589 5.73 0
M  V30 5597 H 543.006 0.952381 5.92494 0
M  V30 5598 H 544.076 1.48559 4.61582 0
M  V30 5599 N 545.419 -1.53889 0.339982 0
M  V30 5600 C 546.367 -2.26391 -0.533822 0
M  V30 5601 C 547.361 -1.28404 -1.10493 0
M  V30 5602 O 548.567 -1.46124 -1.05108 0
M  V30 5603 H 544.942 -0.727385 -0.190828 0
M  V30 5604 H 546.913 -2.98233 0.0997484 0
M  V30 5605 C 545.662 -3.04707 -1.67479 0
M  V30 5606 H 544.985 -3.79934 -1.2446 0
M  V30 5607 H 546.425 -3.58657 -2.26144 0
M  V30 5608 C 544.884 -2.13989 -2.60212 0
M  V30 5609 O 545.414 -1.73361 -3.62366 0
M  V30 5610 N 543.62 -1.79141 -2.28816 0
M  V30 5611 H 543.167 -2.12378 -1.45785 0
M  V30 5612 H 543.125 -1.18725 -2.91121 0
M  V30 5613 N 546.897 -0.0685191 -1.57451 0
M  V30 5614 C 548.145 0.60016 -1.92983 0
M  V30 5615 C 548.466 1.70348 -0.949028 0
M  V30 5616 O 547.736 1.959 0.00335647 0
M  V30 5617 H 546.316 0.224682 -0.712409 0
M  V30 5618 H 548.978 -0.125605 -1.94495 0
M  V30 5619 H 548.074 1.02759 -2.94698 0
M  V30 5620 N 548.375 1.56261 0.205012 0
M  V30 5621 C 549.786 1.70056 0.770574 0
M  V30 5622 C 550.137 0.673398 1.84282 0
M  V30 5623 O 549.262 -0.172196 2.15714 0
M  V30 5624 C 549.857 3.08316 1.40451 0
M  V30 5625 C 548.416 3.2391 1.91727 0
M  V30 5626 C 547.563 2.66001 0.783516 0
M  V30 5627 H 550.514 1.58688 -0.019911 0
M  V30 5628 H 550.535 3.05094 2.27371 0
M  V30 5629 H 550.047 3.83053 0.623882 0
M  V30 5630 H 548.148 2.54072 2.7254 0
M  V30 5631 H 548.261 4.3131 2.08588 0
M  V30 5632 H 546.625 2.24915 1.19521 0
M  V30 5633 H 547.408 3.43297 0.0152883 0
M  V30 5634 N 549.853 -0.472356 1.50355 0
M  V30 5635 C 551.099 -1.22634 1.6152 0
M  V30 5636 C 551.432 -1.91645 0.313995 0
M  V30 5637 O 550.707 -1.82059 -0.684446 0
M  V30 5638 C 550.99 -2.27099 2.7946 0
M  V30 5639 C 550.843 -1.62402 4.19459 0
M  V30 5640 C 552.162 -3.28421 2.92964 0
M  V30 5641 H 549.281 -0.444494 0.587873 0
M  V30 5642 H 551.923 -0.520321 1.82737 0
M  V30 5643 H 550.073 -2.87314 2.61501 0
M  V30 5644 H 551.745 -1.05793 4.49005 0
M  V30 5645 H 549.988 -0.927184 4.23776 0
M  V30 5646 H 550.659 -2.38309 4.97909 0
M  V30 5647 H 553.135 -2.78227 3.09401 0
M  V30 5648 H 552.011 -3.98845 3.77113 0
M  V30 5649 H 552.272 -3.92467 2.03525 0
M  V30 5650 N 551.331 -1.39911 -0.725443 0
M  V30 5651 C 552.747 -1.21725 -1.03224 0
M  V30 5652 C 552.947 -0.0855224 -2.01318 0
M  V30 5653 O 552.003 0.55976 -2.46217 0
M  V30 5654 C 553.316 -2.55511 -1.58539 0
M  V30 5655 C 554.864 -2.62439 -1.70572 0
M  V30 5656 C 555.339 -3.9647 -2.29294 0
M  V30 5657 N 556.83 -3.98159 -2.36692 0
M  V30 5658 C 557.565 -4.98647 -2.83088 0
M  V30 5659 N 557.061 -6.0953 -3.2931 0
M  V30 5660 N 558.854 -4.8602 -2.82384 0
M  V30 5661 H 551.005 -2.12267 -0.075048 0
M  V30 5662 H 553.268 -0.943136 -0.0959066 0
M  V30 5663 H 552.974 -3.38926 -0.939249 0
M  V30 5664 H 552.848 -2.75905 -2.57208 0
M  V30 5665 H 555.235 -1.79401 -2.34306 0
M  V30 5666 H 555.316 -2.45885 -0.705297 0
M  V30 5667 H 554.96 -4.79942 -1.66186 0
M  V30 5668 H 554.89 -4.10349 -3.30032 0
M  V30 5669 H 557.381 -3.18085 -2.04035 0
M  V30 5670 H 557.694 -6.82106 -3.6325 0
M  V30 5671 H 556.039 -6.1311 -3.27294 0
M  V30 5672 H 559.23 -3.98493 -2.45603 0
M  V30 5673 H 559.403 -5.64478 -3.18226 0
M  V30 5674 N 552.809 0.956637 -1.25245 0
M  V30 5675 C 553.739 2.07058 -1.07931 0
M  V30 5676 C 554.72 1.70096 0.0110361 0
M  V30 5677 O 555.905 1.93555 -0.158121 0
M  V30 5678 C 553.035 3.40272 -0.695124 0
M  V30 5679 C 551.989 3.91235 -1.73549 0
M  V30 5680 C 551.315 5.20921 -1.20604 0
M  V30 5681 C 552.615 4.17837 -3.13385 0
M  V30 5682 H 554.309 2.218 -2.01109 0
M  V30 5683 H 551.855 1.06581 -0.968326 0
M  V30 5684 H 553.808 4.1765 -0.560949 0
M  V30 5685 H 552.532 3.25462 0.272355 0
M  V30 5686 H 551.191 3.16025 -1.85807 0
M  V30 5687 H 550.839 5.02479 -0.228846 0
M  V30 5688 H 550.539 5.55987 -1.90136 0
M  V30 5689 H 552.063 6.00897 -1.08421 0
M  V30 5690 H 553.477 4.8588 -3.04292 0
M  V30 5691 H 551.874 4.64154 -3.80369 0
M  V30 5692 H 552.944 3.2419 -3.60595 0
M  V30 5693 N 554.287 1.06798 1.15896 0
M  V30 5694 C 555.534 0.787767 1.86549 0
M  V30 5695 C 555.862 -0.685959 1.82002 0
M  V30 5696 O 555.117 -1.5188 1.23414 0
M  V30 5697 C 555.416 1.23414 3.35416 0
M  V30 5698 C 555.082 2.71285 3.6016 0
M  V30 5699 C 553.744 3.11676 3.66622 0
M  V30 5700 C 556.096 3.6676 3.7032 0
M  V30 5701 C 553.424 4.4637 3.8075 0
M  V30 5702 C 555.776 5.01209 3.8597 0
M  V30 5703 C 554.44 5.41229 3.90676 0
M  V30 5704 H 553.71 0.288264 0.682631 0
M  V30 5705 H 556.357 1.338 1.37003 0
M  V30 5706 H 554.662 0.60319 3.87129 0
M  V30 5707 H 556.359 0.994298 3.88477 0
M  V30 5708 H 552.949 2.39015 3.55767 0
M  V30 5709 H 557.133 3.36685 3.64633 0
M  V30 5710 H 552.389 4.76855 3.82648 0
M  V30 5711 H 556.563 5.75067 3.92773 0
M  V30 5712 H 554.19 6.45602 4.01375 0
M  V30 5713 N 555.766 -1.3263 0.851289 0
M  V30 5714 C 557.014 -1.96978 0.452128 0
M  V30 5715 C 557.335 -1.67715 -0.99482 0
M  V30 5716 O 556.605 -0.98259 -1.69476 0
M  V30 5717 H 555.185 -0.72873 0.164202 0
M  V30 5718 H 557.847 -1.61774 1.08698 0
M  V30 5719 H 556.943 -3.06387 0.594407 0
M  V30 5720 N 557.244 -0.608902 -1.45362 0
M  V30 5721 C 558.174 0.0964526 -2.33301 0
M  V30 5722 C 559.155 0.857444 -1.46908 0
M  V30 5723 O 560.34 0.827735 -1.75676 0
M  V30 5724 C 557.47 1.09354 -3.29635 0
M  V30 5725 C 556.424 0.445676 -4.25673 0
M  V30 5726 C 555.75 1.5511 -5.11708 0
M  V30 5727 C 557.05 -0.633972 -5.18438 0
M  V30 5728 H 558.744 -0.637829 -2.92527 0
M  V30 5729 H 556.29 -0.308178 -1.40664 0
M  V30 5730 H 558.243 1.59556 -3.90025 0
M  V30 5731 H 556.967 1.85843 -2.6857 0
M  V30 5732 H 555.626 -0.0354897 -3.66583 0
M  V30 5733 H 555.274 2.30631 -4.4701 0
M  V30 5734 H 554.974 1.12311 -5.76767 0
M  V30 5735 H 556.498 2.05537 -5.74967 0
M  V30 5736 H 557.912 -0.215974 -5.72893 0
M  V30 5737 H 556.309 -0.983789 -5.91981 0
M  V30 5738 H 557.379 -1.51005 -4.60788 0
M  V30 5739 N 558.722 1.53707 -0.348139 0
M  V30 5740 C 559.95 2.05406 0.248224 0
M  V30 5741 C 560.365 1.22282 1.43849 0
M  V30 5742 O 559.722 0.259244 1.80649 0
M  V30 5743 C 559.773 3.55446 0.658793 0
M  V30 5744 O 559.494 4.35417 -0.484149 0
M  V30 5745 C 560.995 4.23335 1.31539 0
M  V30 5746 H 558.215 0.669344 0.0471075 0
M  V30 5747 H 560.759 1.98257 -0.501456 0
M  V30 5748 H 558.914 3.62803 1.35841 0
M  V30 5749 H 559.328 5.24268 -0.155949 0
M  V30 5750 H 560.802 5.29692 1.55338 0
M  V30 5751 H 561.279 3.75967 2.27036 0
M  V30 5752 H 561.885 4.20184 0.657683 0
M  V30 5753 N 560.2 0.0768682 1.57412 0
M  V30 5754 C 561.15 -0.898795 2.09537 0
M  V30 5755 C 562.134 -1.25556 1.0062 0
M  V30 5756 O 563.326 -1.23369 1.26921 0
M  V30 5757 C 560.455 -2.16453 2.66464 0
M  V30 5758 C 559.541 -1.83401 3.82393 0
M  V30 5759 N 559.932 -1.20823 4.91157 0
M  V30 5760 C 558.23 -2.13121 3.91785 0
M  V30 5761 C 558.931 -1.05976 5.71965 0
M  V30 5762 N 557.907 -1.57113 5.204 0
M  V30 5763 H 561.709 -0.410718 2.91016 0
M  V30 5764 H 559.223 -0.126878 1.61904 0
M  V30 5765 H 561.22 -2.87274 3.02125 0
M  V30 5766 H 559.88 -2.65844 1.86433 0
M  V30 5767 H 560.891 -0.877249 5.10416 0
M  V30 5768 H 557.568 -2.64854 3.22736 0
M  V30 5769 H 558.958 -0.571809 6.69462 0
M  V30 5770 N 561.678 -1.56367 -0.196722 0
M  V30 5771 C 562.588 -1.97617 -1.2643 0
M  V30 5772 C 563.604 -0.883598 -1.49895 0
M  V30 5773 O 564.78 -1.18921 -1.62541 0
M  V30 5774 C 561.845 -2.30595 -2.58895 0
M  V30 5775 C 560.906 -3.53551 -2.43516 0
M  V30 5776 C 560.139 -3.84946 -3.69665 0
M  V30 5777 O 560.362 -3.17655 -4.73763 0
M  V30 5778 O 559.296 -4.78379 -3.65291 0
M  V30 5779 H 563.122 -2.88648 -0.944233 0
M  V30 5780 H 560.707 -1.43901 -0.401592 0
M  V30 5781 H 562.589 -2.52889 -3.37083 0
M  V30 5782 H 561.264 -1.42732 -2.90533 0
M  V30 5783 H 560.171 -3.36507 -1.63445 0
M  V30 5784 H 561.504 -4.41875 -2.16812 0
M  V30 5785 N 563.156 0.464375 -1.50603 0
M  V30 5786 C 564.086 1.56944 -1.72889 0
M  V30 5787 C 565.067 1.59979 -0.577997 0
M  V30 5788 O 566.252 1.76138 -0.817855 0
M  V30 5789 C 563.382 2.95225 -1.8292 0
M  V30 5790 C 562.336 3.07056 -2.98162 0
M  V30 5791 C 561.662 4.47051 -2.93343 0
M  V30 5792 C 562.962 2.83648 -4.38567 0
M  V30 5793 H 564.656 1.38547 -2.65415 0
M  V30 5794 H 562.202 0.665082 -1.27721 0
M  V30 5795 H 564.155 3.72467 -1.97095 0
M  V30 5796 H 562.879 3.14793 -0.870209 0
M  V30 5797 H 561.538 2.32248 -2.83648 0
M  V30 5798 H 561.186 4.63547 -1.95276 0
M  V30 5799 H 560.886 4.55902 -3.70712 0
M  V30 5800 H 562.41 5.26304 -3.09575 0
M  V30 5801 H 563.824 3.50636 -4.53572 0
M  V30 5802 H 562.221 3.03937 -5.17438 0
M  V30 5803 H 563.291 1.79451 -4.50472 0
M  V30 5804 N 564.634 1.40294 0.718013 0
M  V30 5805 C 565.564 1.43118 1.84498 0
M  V30 5806 C 566.545 0.292403 1.67568 0
M  V30 5807 O 567.73 0.500675 1.87635 0
M  V30 5808 C 564.86 1.29065 3.22427 0
M  V30 5809 C 563.814 2.40521 3.54025 0
M  V30 5810 C 563.14 2.11546 4.91073 0
M  V30 5811 C 564.44 3.82859 3.55269 0
M  V30 5812 H 566.134 2.37432 1.82391 0
M  V30 5813 H 563.68 1.14283 0.87609 0
M  V30 5814 H 565.633 1.29658 4.00957 0
M  V30 5815 H 564.357 0.312271 3.25104 0
M  V30 5816 H 563.016 2.39173 2.77834 0
M  V30 5817 H 562.664 1.12104 4.90348 0
M  V30 5818 H 562.364 2.86216 5.1318 0
M  V30 5819 H 563.888 2.13817 5.71939 0
M  V30 5820 H 565.302 3.86044 4.23843 0
M  V30 5821 H 563.699 4.57029 3.88902 0
M  V30 5822 H 564.769 4.12617 2.54706 0
M  V30 5823 N 566.112 -0.949982 1.2575 0
M  V30 5824 C 567.36 -1.6918 1.10555 0
M  V30 5825 C 567.681 -1.91773 -0.353298 0
M  V30 5826 O 566.951 -1.50814 -1.25027 0
M  V30 5827 H 565.531 -0.626952 0.406129 0
M  V30 5828 H 568.193 -1.1419 1.57945 0
M  V30 5829 H 567.289 -2.66915 1.61749 0
M  V30 5830 N 567.59 -1.07411 -1.15328 0
M  V30 5831 C 568.838 -0.796073 -1.85761 0
M  V30 5832 C 569.159 0.679864 -1.82764 0
M  V30 5833 O 568.429 1.49242 -1.269 0
M  V30 5834 H 567.009 -0.291495 -0.687779 0
M  V30 5835 H 569.671 -1.35799 -1.39802 0
M  V30 5836 H 568.767 -1.13114 -2.90881 0
M  V30 5837 N 569.068 1.32177 -0.85831 0
M  V30 5838 C 570.314 1.97417 -0.46417 0
M  V30 5839 C 570.647 1.67746 0.978514 0
M  V30 5840 O 569.922 0.967654 1.68721 0
M  V30 5841 C 570.205 3.53069 -0.708094 0
M  V30 5842 C 570.058 3.92357 -2.19946 0
M  V30 5843 C 571.377 4.39783 -0.166881 0
M  V30 5844 H 568.496 0.717097 -0.17012 0
M  V30 5845 H 571.138 1.56499 -1.07741 0
M  V30 5846 H 569.288 3.88054 -0.186128 0
M  V30 5847 H 570.96 3.67533 -2.78779 0
M  V30 5848 H 569.203 3.41384 -2.67656 0
M  V30 5849 H 569.874 5.00841 -2.32082 0
M  V30 5850 H 572.35 4.11556 -0.613285 0
M  V30 5851 H 571.226 5.47671 -0.367093 0
M  V30 5852 H 571.487 4.32196 0.930559 0
M  V30 5853 N 570.547 0.616602 1.45037 0
M  V30 5854 C 571.775 0.121968 2.0654 0
M  V30 5855 C 572.19 -1.19743 1.45969 0
M  V30 5856 O 571.547 -1.73133 0.577168 0
M  V30 5857 C 571.598 -0.0145171 3.61497 0
M  V30 5858 O 571.319 1.25269 4.19809 0
M  V30 5859 C 572.82 -0.539555 4.40004 0
M  V30 5860 H 570.04 0.0729837 0.667019 0
M  V30 5861 H 572.584 0.846891 1.8614 0
M  V30 5862 H 570.739 -0.689809 3.81209 0
M  V30 5863 H 571.153 1.08816 5.13088 0
M  V30 5864 H 572.627 -0.584112 5.48901 0
M  V30 5865 H 573.104 -1.56368 4.10421 0
M  V30 5866 H 573.71 0.101995 4.25178 0
M  V30 5867 N 572.025 -1.5352 0.356285 0
M  V30 5868 C 573.255 -2.05236 -0.236983 0
M  V30 5869 C 573.663 -1.23016 -1.43749 0
M  V30 5870 O 573.006 -0.2615 -1.81829 0
M  V30 5871 C 573.068 -3.52549 -0.7035 0
M  V30 5872 C 572.732 -4.55425 0.379059 0
M  V30 5873 C 573.729 -5.0524 1.22592 0
M  V30 5874 C 571.414 -4.99425 0.536638 0
M  V30 5875 C 573.408 -5.97647 2.21578 0
M  V30 5876 C 571.095 -5.9164 1.52988 0
M  V30 5877 C 572.093 -6.4064 2.3679 0
M  V30 5878 O 571.781 -7.31039 3.34421 0
M  V30 5879 H 571.513 -0.674346 -0.047254 0
M  V30 5880 H 574.067 -1.98962 0.510238 0
M  V30 5881 H 572.297 -3.56331 -1.50217 0
M  V30 5882 H 573.986 -3.87171 -1.21873 0
M  V30 5883 H 574.752 -4.72002 1.11532 0
M  V30 5884 H 570.631 -4.60879 -0.105834 0
M  V30 5885 H 574.175 -6.35816 2.87025 0
M  V30 5886 H 570.072 -6.24293 1.64099 0
M  V30 5887 H 570.84 -7.49009 3.30041 0
M  V30 5888 N 573.503 -0.0852151 -1.57369 0
M  V30 5889 C 574.466 0.8627 -2.12344 0
M  V30 5890 C 575.466 1.21746 -1.05046 0
M  V30 5891 O 576.656 1.14852 -1.30976 0
M  V30 5892 C 573.788 2.1618 -2.63589 0
M  V30 5893 H 574.981 0.385511 -2.97412 0
M  V30 5894 H 572.534 0.163663 -1.55441 0
M  V30 5895 H 573.269 2.68406 -1.82013 0
M  V30 5896 H 573.054 1.91723 -3.4203 0
M  V30 5897 H 574.544 2.84011 -3.06149 0
M  V30 5898 N 574.981 1.5647 0.188427 0
M  V30 5899 C 575.913 1.91611 1.25769 0
M  V30 5900 C 576.926 0.807436 1.41366 0
M  V30 5901 O 578.115 1.08586 1.41673 0
M  V30 5902 C 575.215 2.13874 2.6289 0
M  V30 5903 C 574.388 3.45047 2.68815 0
M  V30 5904 C 573.447 3.56342 3.87178 0
M  V30 5905 O 572.473 4.29109 3.73971 0
M  V30 5906 N 573.675 2.89924 5.02916 0
M  V30 5907 H 576.44 2.8393 0.959373 0
M  V30 5908 H 574.001 1.57418 0.378306 0
M  V30 5909 H 575.993 2.18713 3.4051 0
M  V30 5910 H 574.563 1.28022 2.85183 0
M  V30 5911 H 573.783 3.52017 1.77419 0
M  V30 5912 H 575.071 4.31395 2.6977 0
M  V30 5913 H 574.469 2.30644 5.16546 0
M  V30 5914 H 573.026 3.0038 5.78459 0
M  V30 5915 N 576.459 -0.456382 1.50847 0
M  V30 5916 C 577.707 -1.20497 1.62249 0
M  V30 5917 C 578.028 -1.92156 0.331839 0
M  V30 5918 O 577.298 -1.84751 -0.651443 0
M  V30 5919 H 575.878 -0.447775 0.597918 0
M  V30 5920 H 578.54 -0.525099 1.87693 0
M  V30 5921 H 577.636 -1.94492 2.44089 0
M  V30 5922 N 577.937 -1.40673 -0.710563 0
M  V30 5923 C 578.847 -1.43663 -1.85467 0
M  V30 5924 C 579.863 -0.328721 -1.70867 0
M  V30 5925 O 581.039 -0.574098 -1.93044 0
M  V30 5926 C 578.104 -1.30226 -3.21313 0
M  V30 5927 C 577.165 -2.51204 -3.48131 0
M  V30 5928 C 576.398 -2.38398 -4.77495 0
M  V30 5929 O 576.621 -1.40048 -5.5294 0
M  V30 5930 O 575.555 -3.2787 -5.04762 0
M  V30 5931 H 579.381 -2.40156 -1.859 0
M  V30 5932 H 576.966 -1.22049 -0.861652 0
M  V30 5933 H 578.848 -1.2496 -4.02446 0
M  V30 5934 H 577.523 -0.368419 -3.21597 0
M  V30 5935 H 576.43 -2.62048 -2.66987 0
M  V30 5936 H 577.763 -3.43366 -3.52648 0
M  V30 5937 N 579.415 0.9433 -1.26252 0
M  V30 5938 C 580.643 1.72367 -1.14443 0
M  V30 5939 C 581.058 1.86392 0.300572 0
M  V30 5940 O 580.415 1.36978 1.20596 0
M  V30 5941 C 580.466 3.13155 -1.806 0
M  V30 5942 O 580.187 2.99803 -3.19452 0
M  V30 5943 C 581.688 4.07417 -1.74717 0
M  V30 5944 H 578.908 0.539758 -0.398626 0
M  V30 5945 H 581.452 1.18268 -1.66832 0
M  V30 5946 H 579.607 3.64162 -1.32154 0
M  V30 5947 H 580.021 3.88697 -3.52158 0
M  V30 5948 H 581.495 5.03773 -2.25647 0
M  V30 5949 H 581.972 4.3337 -0.713244 0
M  V30 5950 H 582.578 3.6233 -2.22704 0
M  V30 5951 N 580.893 1.08022 1.14757 0
M  V30 5952 C 582.309 0.807072 1.3769 0
M  V30 5953 C 582.509 -0.585504 1.92806 0
M  V30 5954 O 581.565 -1.34301 2.13821 0
M  V30 5955 C 582.878 1.88651 2.34161 0
M  V30 5956 C 584.426 1.91206 2.47809 0
M  V30 5957 C 584.901 2.98253 3.47576 0
M  V30 5958 N 586.392 2.974 3.55117 0
M  V30 5959 C 587.127 3.76872 4.32152 0
M  V30 5960 N 586.623 4.66212 5.12463 0
M  V30 5961 N 588.416 3.6519 4.27309 0
M  V30 5962 H 580.567 1.97824 0.77326 0
M  V30 5963 H 582.83 0.85826 0.402608 0
M  V30 5964 H 582.536 2.88749 2.00791 0
M  V30 5965 H 582.41 1.75244 3.3402 0
M  V30 5966 H 584.797 0.917564 2.80472 0
M  V30 5967 H 584.878 2.08691 1.47925 0
M  V30 5968 H 584.522 3.97907 3.15646 0
M  V30 5969 H 584.452 2.78014 4.47231 0
M  V30 5970 H 586.943 2.32643 2.97801 0
M  V30 5971 H 587.256 5.23468 5.68508 0
M  V30 5972 H 585.601 4.70257 5.11745 0
M  V30 5973 H 588.792 2.94765 3.63636 0
M  V30 5974 H 588.965 4.27366 4.87095 0
M  V30 5975 N 582.371 -1.3172 0.865308 0
M  V30 5976 C 583.303 -2.27545 0.274906 0
M  V30 5977 C 584.316 -1.52887 -0.559413 0
M  V30 5978 O 585.505 -1.74361 -0.382166 0
M  V30 5979 C 582.605 -3.33006 -0.629286 0
M  V30 5980 C 581.778 -4.37063 0.171553 0
M  V30 5981 C 580.837 -5.22044 -0.660052 0
M  V30 5982 O 579.863 -5.69129 -0.0897527 0
M  V30 5983 N 581.065 -5.45946 -1.97289 0
M  V30 5984 H 583.83 -2.78848 1.09836 0
M  V30 5985 H 581.391 -1.44693 0.726331 0
M  V30 5986 H 583.383 -3.86772 -1.19121 0
M  V30 5987 H 581.953 -2.81782 -1.35342 0
M  V30 5988 H 581.173 -3.83436 0.914919 0
M  V30 5989 H 582.461 -5.03662 0.721235 0
M  V30 5990 H 581.859 -5.0944 -2.45942 0
M  V30 5991 H 580.416 -6.02665 -2.4827 0
M  V30 5992 N 583.85 -0.624285 -1.44708 0
M  V30 5993 C 585.127 -0.0572781 -1.95516 0
M  V30 5994 C 585.507 1.41516 -1.56641 0
M  V30 5995 O 584.855 2.12614 -0.837111 0
M  V30 5996 C 585.065 -0.272944 -3.47931 0
M  V30 5997 C 586.413 -0.162529 -4.24289 0
M  V30 5998 O 587.437 -0.203946 -3.55616 0
M  V30 5999 O 586.296 -0.0616847 -5.46465 0
M  V30 6000 H 583.389 0.0262219 -0.826584 0
M  V30 6001 H 585.936 -0.695512 -1.54793 0
M  V30 6002 H 584.707 -1.29492 -3.69253 0
M  V30 6003 H 584.331 0.399756 -3.95585 0
M  V30 6004 N 585.328 1.53329 -0.364422 0
M  V30 6005 C 586.556 2.05657 0.226424 0
M  V30 6006 C 586.971 1.23801 1.42544 0
M  V30 6007 O 586.328 0.27839 1.80364 0
M  V30 6008 C 586.379 3.56125 0.621056 0
M  V30 6009 O 586.1 4.34879 -0.530304 0
M  V30 6010 C 587.601 4.24706 1.27041 0
M  V30 6011 H 584.821 0.669806 0.0400056 0
M  V30 6012 H 587.365 1.97714 -0.522456 0
M  V30 6013 H 585.52 3.64223 1.31985 0
M  V30 6014 H 585.934 5.24073 -0.211546 0
M  V30 6015 H 587.408 5.3131 1.49711 0
M  V30 6016 H 587.885 3.78354 2.23036 0
M  V30 6017 H 588.491 4.20858 0.613079 0
M  V30 6018 N 586.806 0.0935595 1.57322 0
M  V30 6019 C 587.769 -0.851426 2.12799 0
M  V30 6020 C 588.769 -1.21187 1.0569 0
M  V30 6021 O 589.959 -1.14156 1.31583 0
M  V30 6022 C 587.091 -2.14779 2.64731 0
M  V30 6023 H 588.284 -0.369733 2.97612 0
M  V30 6024 H 585.837 -0.155417 1.55525 0
M  V30 6025 H 586.572 -2.67437 1.83434 0
M  V30 6026 H 586.357 -1.89907 3.43042 0
M  V30 6027 H 587.847 -2.82383 3.07651 0
M  V30 6028 N 588.284 -1.56567 -0.180126 0
M  V30 6029 C 589.7 -1.50488 -0.531559 0
M  V30 6030 C 589.9 -0.796267 -1.851 0
M  V30 6031 O 588.956 -0.352978 -2.50021 0
M  V30 6032 C 590.269 -2.95201 -0.572456 0
M  V30 6033 C 591.817 -3.05957 -0.660264 0
M  V30 6034 C 592.292 -4.5211 -0.732135 0
M  V30 6035 N 593.783 -4.56322 -0.795262 0
M  V30 6036 C 594.518 -5.66742 -0.871296 0
M  V30 6037 N 594.014 -6.86815 -0.908708 0
M  V30 6038 N 595.807 -5.54691 -0.909639 0
M  V30 6039 H 587.958 -2.01045 0.685165 0
M  V30 6040 H 590.221 -0.915536 0.245962 0
M  V30 6041 H 589.927 -3.50165 0.328208 0
M  V30 6042 H 589.801 -3.49369 -1.422 0
M  V30 6043 H 592.188 -2.51032 -1.55136 0
M  V30 6044 H 592.269 -2.54888 0.215783 0
M  V30 6045 H 591.913 -5.07664 0.154664 0
M  V30 6046 H 591.843 -5.00926 -1.6242 0
M  V30 6047 H 594.334 -3.69868 -0.77499 0
M  V30 6048 H 594.647 -7.66718 -0.967654 0
M  V30 6049 H 592.992 -6.89443 -0.877132 0
M  V30 6050 H 596.183 -4.59804 -0.877353 0
M  V30 6051 H 596.356 -6.40768 -0.965434 0
M  V30 6052 N 589.762 0.448376 -1.51087 0
M  V30 6053 C 591.009 1.19872 -1.63209 0
M  V30 6054 C 591.337 1.91451 -0.343062 0
M  V30 6055 O 590.592 1.83789 0.672321 0
M  V30 6056 C 590.891 2.24866 -2.77795 0
M  V30 6057 C 590.557 1.70378 -4.17471 0
M  V30 6058 C 589.219 1.55241 -4.55471 0
M  V30 6059 C 591.571 1.30203 -5.04675 0
M  V30 6060 C 588.899 0.983844 -5.78392 0
M  V30 6061 C 591.251 0.747798 -6.28165 0
M  V30 6062 C 589.915 0.583233 -6.64947 0
M  V30 6063 H 589.185 0.438642 -0.597222 0
M  V30 6064 H 591.832 0.49136 -1.85089 0
M  V30 6065 H 590.137 3.01598 -2.50092 0
M  V30 6066 H 591.834 2.82723 -2.84374 0
M  V30 6067 H 588.424 1.83134 -3.87505 0
M  V30 6068 H 592.608 1.40723 -4.75932 0
M  V30 6069 H 587.864 0.844007 -6.05546 0
M  V30 6070 H 592.038 0.427927 -6.95084 0
M  V30 6071 H 589.665 0.140532 -7.6007 0
M  V30 6072 N 591.24 1.41047 0.703093 0
M  V30 6073 C 592.17 1.45067 1.82969 0
M  V30 6074 C 593.151 0.31016 1.67248 0
M  V30 6075 O 594.336 0.520548 1.87093 0
M  V30 6076 C 591.466 1.32478 3.2104 0
M  V30 6077 C 590.42 2.44262 3.51454 0
M  V30 6078 C 589.746 2.16742 4.88801 0
M  V30 6079 C 591.046 3.86606 3.51189 0
M  V30 6080 H 592.74 2.39353 1.79863 0
M  V30 6081 H 590.286 1.15206 0.863919 0
M  V30 6082 H 592.239 1.33904 3.99559 0
M  V30 6083 H 590.963 0.346735 3.24754 0
M  V30 6084 H 589.622 2.42107 2.75282 0
M  V30 6085 H 589.27 1.17299 4.89132 0
M  V30 6086 H 588.97 2.91643 5.10116 0
M  V30 6087 H 590.494 2.19872 5.69639 0
M  V30 6088 H 591.908 3.90517 4.19725 0
M  V30 6089 H 590.305 4.61128 3.84033 0
M  V30 6090 H 591.375 4.15296 2.50315 0
M  V30 6091 N 592.718 -0.936591 1.26751 0
M  V30 6092 C 593.666 -2.0573 1.08527 0
M  V30 6093 C 594.66 -1.69397 0.0108784 0
M  V30 6094 O 595.866 -1.79215 0.167915 0
M  V30 6095 H 592.241 -0.673691 0.334133 0
M  V30 6096 H 594.212 -2.1825 2.03493 0
M  V30 6097 C 592.961 -3.39738 0.739845 0
M  V30 6098 H 592.284 -3.68174 1.55845 0
M  V30 6099 H 593.724 -4.18955 0.652149 0
M  V30 6100 C 592.183 -3.32292 -0.555288 0
M  V30 6101 O 592.713 -3.68794 -1.59229 0
M  V30 6102 N 590.919 -2.85394 -0.54762 0
M  V30 6103 H 590.466 -2.55886 0.296667 0
M  V30 6104 H 590.424 -2.80795 -1.41427 0
M  V30 6105 N 594.196 -1.08629 -1.14182 0
M  V30 6106 C 595.126 -0.740003 -2.21464 0
M  V30 6107 C 596.107 0.278591 -1.67803 0
M  V30 6108 O 597.292 0.148461 -1.93632 0
M  V30 6109 C 594.422 -0.150952 -3.46972 0
M  V30 6110 C 593.376 -1.09815 -4.13672 0
M  V30 6111 C 592.702 -0.3712 -5.3341 0
M  V30 6112 C 594.002 -2.43722 -4.61949 0
M  V30 6113 H 595.696 -1.63697 -2.50686 0
M  V30 6114 H 593.242 -0.788526 -1.20492 0
M  V30 6115 H 595.195 0.103325 -4.21273 0
M  V30 6116 H 593.919 0.781164 -3.1712 0
M  V30 6117 H 592.578 -1.33756 -3.41328 0
M  V30 6118 H 592.226 0.564792 -4.99819 0
M  V30 6119 H 591.926 -1.00267 -5.78982 0
M  V30 6120 H 593.45 -0.12503 -6.10472 0
M  V30 6121 H 594.864 -2.24034 -5.27714 0
M  V30 6122 H 593.261 -3.02582 -5.18232 0
M  V30 6123 H 594.331 -3.05082 -3.76899 0
M  V30 6124 N 595.674 1.31259 -0.872281 0
M  V30 6125 C 597.085 1.78822 -0.536617 0
M  V30 6126 C 597.436 1.71855 0.946594 0
M  V30 6127 O 596.561 1.28769 1.73918 0
M  V30 6128 C 597.156 3.24698 -0.967294 0
M  V30 6129 C 595.715 3.70147 -0.683251 0
M  V30 6130 C 594.862 2.51994 -1.15733 0
M  V30 6131 H 597.813 1.18308 -1.05777 0
M  V30 6132 H 597.834 3.79386 -0.290929 0
M  V30 6133 H 597.346 3.29737 -2.04683 0
M  V30 6134 H 595.447 3.70607 0.384825 0
M  V30 6135 H 595.56 4.62183 -1.2619 0
M  V30 6136 H 593.924 2.48078 -0.577024 0
M  V30 6137 H 594.707 2.59778 -2.24434 0
M  V30 6138 N 597.152 0.631951 1.44375 0
M  V30 6139 C 598.1 -0.0846693 2.32446 0
M  V30 6140 C 599.094 -0.834957 1.47393 0
M  V30 6141 O 600.3 -0.747764 1.63733 0
M  V30 6142 H 596.675 -0.0461508 0.750583 0
M  V30 6143 H 598.646 0.67619 2.90638 0
M  V30 6144 C 597.395 -1.05211 3.314 0
M  V30 6145 H 596.718 -0.484203 3.96857 0
M  V30 6146 H 598.158 -1.523 3.95703 0
M  V30 6147 C 596.617 -2.13776 2.60387 0
M  V30 6148 O 597.147 -3.21869 2.4034 0
M  V30 6149 N 595.353 -1.89733 2.20113 0
M  V30 6150 H 594.9 -1.01833 2.36618 0
M  V30 6151 H 594.858 -2.62572 1.72926 0
M  V30 6152 N 598.631 -1.53133 0.372548 0
M  V30 6153 C 599.859 -2.05774 -0.215515 0
M  V30 6154 C 600.274 -1.24555 -1.41886 0
M  V30 6155 O 599.631 -0.287951 -1.80214 0
M  V30 6156 C 599.682 -3.5645 -0.602161 0
M  V30 6157 O 599.403 -4.34591 0.553359 0
M  V30 6158 C 600.904 -4.25374 -1.24787 0
M  V30 6159 H 598.124 -0.670009 -0.0364529 0
M  V30 6160 H 600.668 -1.97434 0.532934 0
M  V30 6161 H 598.823 -3.64918 -1.30052 0
M  V30 6162 H 599.237 -5.23954 0.239336 0
M  V30 6163 H 600.711 -5.32097 -1.46891 0
M  V30 6164 H 601.188 -3.79531 -2.21026 0
M  V30 6165 H 601.794 -4.21177 -0.590752 0
M  V30 6166 N 600.109 -0.101901 -1.5727 0
M  V30 6167 C 601.52 0.426173 -1.81771 0
M  V30 6168 C 601.871 1.67725 -1.01797 0
M  V30 6169 O 600.996 2.14958 -0.249386 0
M  V30 6170 C 601.591 0.779962 -3.297 0
M  V30 6171 C 600.15 1.25275 -3.54941 0
M  V30 6172 C 599.297 0.252814 -2.76145 0
M  V30 6173 H 602.248 -0.32726 -1.55289 0
M  V30 6174 H 602.269 1.63891 -3.43395 0
M  V30 6175 H 601.781 -0.130778 -3.8788 0
M  V30 6176 H 599.882 2.18097 -3.021 0
M  V30 6177 H 599.995 1.20988 -4.63572 0
M  V30 6178 H 598.359 0.736362 -2.43823 0
M  V30 6179 H 599.142 -0.650724 -3.37076 0
M  V30 6180 N 601.587 1.56661 0.17182 0
M  V30 6181 C 602.833 1.82235 0.889845 0
M  V30 6182 C 603.166 0.679673 1.81918 0
M  V30 6183 O 602.441 -0.318404 1.91876 0
M  V30 6184 C 602.724 3.18195 1.68595 0
M  V30 6185 C 602.577 4.42989 0.779773 0
M  V30 6186 C 603.896 3.5109 2.65375 0
M  V30 6187 H 601.015 0.66291 0.322056 0
M  V30 6188 H 603.657 1.89358 0.15608 0
M  V30 6189 H 601.807 3.12253 2.3115 0
M  V30 6190 H 603.479 4.60997 0.16714 0
M  V30 6191 H 601.722 4.33711 0.0877964 0
M  V30 6192 H 602.393 5.3467 1.3723 0
M  V30 6193 H 604.869 3.57482 2.12946 0
M  V30 6194 H 603.745 4.47298 3.18144 0
M  V30 6195 H 604.006 2.75768 3.45549 0
M  V30 6196 N 603.065 -0.440357 1.51323 0
M  V30 6197 C 604.013 -1.55492 1.72988 0
M  V30 6198 C 605.007 -1.58564 0.596138 0
M  V30 6199 O 606.213 -1.62345 0.777443 0
M  V30 6200 H 602.588 -0.516532 0.546533 0
M  V30 6201 H 604.559 -1.34392 2.66423 0
M  V30 6202 C 603.308 -2.93176 1.86931 0
M  V30 6203 H 602.631 -2.91543 2.73574 0
M  V30 6204 H 604.071 -3.70537 2.06103 0
M  V30 6205 C 602.53 -3.30988 0.628365 0
M  V30 6206 O 603.06 -4.01106 -0.218367 0
M  V30 6207 N 601.266 -2.86719 0.473339 0
M  V30 6208 H 600.813 -2.2983 1.16345 0
M  V30 6209 H 600.771 -3.12381 -0.355727 0
M  V30 6210 N 604.543 -1.41418 -0.695603 0
M  V30 6211 C 605.789 -1.40982 -1.4578 0
M  V30 6212 C 606.122 -0.0187763 -1.94191 0
M  V30 6213 O 605.397 0.95346 -1.69527 0
M  V30 6214 C 605.68 -2.41657 -2.66972 0
M  V30 6215 C 605.533 -3.89869 -2.24327 0
M  V30 6216 C 606.852 -2.39589 -3.69168 0
M  V30 6217 H 603.971 -0.513405 -0.528757 0
M  V30 6218 H 606.613 -1.72693 -0.792275 0
M  V30 6219 H 604.763 -2.14746 -3.23754 0
M  V30 6220 H 606.435 -4.27683 -1.72872 0
M  V30 6221 H 604.678 -4.04737 -1.56111 0
M  V30 6222 H 605.349 -4.55857 -3.11285 0
M  V30 6223 H 607.825 -2.63471 -3.2206 0
M  V30 6224 H 606.701 -3.12044 -4.51575 0
M  V30 6225 H 606.962 -1.41447 -4.18862 0
M  V30 6226 N 606.021 0.929856 -1.27246 0
M  V30 6227 C 607.251 1.70895 -1.16096 0
M  V30 6228 C 607.659 1.87039 0.285122 0
M  V30 6229 O 607.002 1.38557 1.20614 0
M  V30 6230 C 607.064 3.12919 -1.7698 0
M  V30 6231 C 606.728 3.2012 -3.26148 0
M  V30 6232 C 607.725 3.02533 -4.22812 0
M  V30 6233 C 605.41 3.43148 -3.66817 0
M  V30 6234 C 607.404 3.07861 -5.58122 0
M  V30 6235 C 605.091 3.48109 -5.02258 0
M  V30 6236 C 606.089 3.30483 -5.97721 0
M  V30 6237 O 605.777 3.35175 -7.30694 0
M  V30 6238 H 605.509 0.54152 -0.404639 0
M  V30 6239 H 608.063 1.17342 -1.68582 0
M  V30 6240 H 606.293 3.67945 -1.18969 0
M  V30 6241 H 607.982 3.72787 -1.60576 0
M  V30 6242 H 608.748 2.84586 -3.92728 0
M  V30 6243 H 604.627 3.55918 -2.9299 0
M  V30 6244 H 608.171 2.94021 -6.32612 0
M  V30 6245 H 604.068 3.65579 -5.31998 0
M  V30 6246 H 604.836 3.51644 -7.39114 0
M  V30 6247 N 607.499 1.09233 1.13605 0
M  V30 6248 C 608.915 0.82163 1.36826 0
M  V30 6249 C 609.115 -0.565021 1.93416 0
M  V30 6250 O 608.171 -1.32026 2.15234 0
M  V30 6251 C 609.484 1.91124 2.32147 0
M  V30 6252 C 611.032 1.93824 2.45767 0
M  V30 6253 C 611.507 3.01923 3.44393 0
M  V30 6254 N 612.998 3.01149 3.51942 0
M  V30 6255 C 613.733 3.81434 4.2813 0
M  V30 6256 N 613.229 4.71621 5.07489 0
M  V30 6257 N 615.022 3.69702 4.23411 0
M  V30 6258 H 607.173 1.98633 0.752234 0
M  V30 6259 H 609.436 0.862482 0.393482 0
M  V30 6260 H 609.142 2.90862 1.97717 0
M  V30 6261 H 609.016 1.78777 3.32142 0
M  V30 6262 H 611.403 0.94726 2.79483 0
M  V30 6263 H 611.484 2.10248 1.45703 0
M  V30 6264 H 611.128 4.01232 3.11408 0
M  V30 6265 H 611.058 2.82742 4.44257 0
M  V30 6266 H 613.549 2.35789 2.95317 0
M  V30 6267 H 613.862 5.29468 5.62924 0
M  V30 6268 H 612.207 4.75658 5.06729 0
M  V30 6269 H 615.398 2.98606 3.60489 0
M  V30 6270 H 615.571 4.32509 4.82535 0
M  V30 6271 N 608.977 -1.30795 0.87923 0
M  V30 6272 C 610.223 -1.97035 0.50487 0
M  V30 6273 C 610.578 -1.68182 -0.934484 0
M  V30 6274 O 609.871 -0.972953 -1.65058 0
M  V30 6275 C 610.065 -3.50287 0.709476 0
M  V30 6276 C 609.894 -3.94035 2.16717 0
M  V30 6277 C 608.664 -4.1992 2.81061 0
M  V30 6278 C 610.862 -4.07288 3.1404 0
M  V30 6279 N 608.844 -4.50088 4.17486 0
M  V30 6280 C 610.215 -4.41273 4.35521 0
M  V30 6281 C 612.27 -3.89696 3.09906 0
M  V30 6282 C 610.973 -4.59501 5.534 0
M  V30 6283 C 612.999 -4.09122 4.27052 0
M  V30 6284 C 612.361 -4.43447 5.47297 0
M  V30 6285 H 608.46 -0.746181 0.233962 0
M  V30 6286 H 611.044 -1.5814 1.13577 0
M  V30 6287 H 609.215 -3.8825 0.108108 0
M  V30 6288 H 610.947 -4.03567 0.302585 0
M  V30 6289 H 607.702 -4.12906 2.3196 0
M  V30 6290 H 608.126 -4.69316 4.87926 0
M  V30 6291 H 612.768 -3.62239 2.18043 0
M  V30 6292 H 610.486 -4.85802 6.45773 0
M  V30 6293 H 614.072 -3.96985 4.25316 0
M  V30 6294 H 612.952 -4.58171 6.36435 0
M  V30 6295 N 610.455 -0.639598 -1.44038 0
M  V30 6296 C 611.732 -0.078012 -1.95444 0
M  V30 6297 C 612.112 1.39847 -1.58133 0
M  V30 6298 O 611.46 2.11714 -0.859614 0
M  V30 6299 C 611.67 -0.309832 -3.47622 0
M  V30 6300 C 613.018 -0.207521 -4.24093 0
M  V30 6301 O 614.042 -0.241653 -3.55379 0
M  V30 6302 O 612.901 -0.119641 -5.46369 0
M  V30 6303 H 609.995 0.0174534 -0.826816 0
M  V30 6304 H 612.541 -0.711891 -1.54046 0
M  V30 6305 H 611.313 -1.33401 -3.67858 0
M  V30 6306 H 610.936 0.357777 -3.95987 0
M  V30 6307 N 611.933 1.52934 -0.380664 0
M  V30 6308 C 613.344 1.86457 0.0952684 0
M  V30 6309 C 613.695 1.3007 1.46889 0
M  V30 6310 O 612.82 0.628636 2.07068 0
M  V30 6311 C 613.415 3.38323 0.179648 0
M  V30 6312 C 611.974 3.71589 0.599858 0
M  V30 6313 C 611.121 2.76228 -0.243572 0
M  V30 6314 H 614.072 1.46966 -0.59888 0
M  V30 6315 H 614.093 3.67113 1.00042 0
M  V30 6316 H 613.605 3.79333 -0.820228 0
M  V30 6317 H 611.706 3.36144 1.60742 0
M  V30 6318 H 611.819 4.77715 0.364003 0
M  V30 6319 H 610.183 2.53045 0.289855 0
M  V30 6320 H 610.966 3.20074 -1.24127 0
M  V30 6321 N 613.412 0.11024 1.57214 0
M  V30 6322 C 614.362 -0.854147 2.11396 0
M  V30 6323 C 615.346 -1.23394 1.03261 0
M  V30 6324 O 616.538 -1.20649 1.2951 0
M  V30 6325 C 613.667 -2.10752 2.70995 0
M  V30 6326 C 612.753 -1.75249 3.86198 0
M  V30 6327 N 613.144 -1.10377 4.9361 0
M  V30 6328 C 611.442 -2.04763 3.96217 0
M  V30 6329 C 612.143 -0.938199 5.74084 0
M  V30 6330 N 611.119 -1.46039 5.23616 0
M  V30 6331 H 614.921 -0.348897 2.91822 0
M  V30 6332 H 612.435 -0.0925071 1.62136 0
M  V30 6333 H 614.432 -2.80801 3.0815 0
M  V30 6334 H 613.092 -2.61829 1.9203 0
M  V30 6335 H 614.103 -0.768785 5.12162 0
M  V30 6336 H 610.78 -2.57948 3.28282 0
M  V30 6337 H 612.17 -0.429678 6.70525 0
M  V30 6338 N 614.89 -1.56749 -0.16351 0
M  V30 6339 C 616.138 -1.82074 -0.87713 0
M  V30 6340 C 616.459 -0.688503 -1.82441 0
M  V30 6341 O 615.729 0.291085 -1.93725 0
M  V30 6342 H 614.309 -0.671677 -0.326893 0
M  V30 6343 H 616.971 -1.9423 -0.161459 0
M  V30 6344 H 616.067 -2.76407 -1.44934 0
M  V30 6345 N 616.368 0.432326 -1.51554 0
M  V30 6346 C 617.614 1.18309 -1.64714 0
M  V30 6347 C 617.947 1.90745 -0.364696 0
M  V30 6348 O 617.222 1.8381 0.635936 0
M  V30 6349 C 617.505 2.1961 -2.85383 0
M  V30 6350 C 617.358 1.51223 -4.23617 0
M  V30 6351 C 618.677 3.20538 -3.01569 0
M  V30 6352 H 615.796 0.428751 -0.599451 0
M  V30 6353 H 618.438 0.471689 -1.84052 0
M  V30 6354 H 616.588 2.8028 -2.69027 0
M  V30 6355 H 618.26 0.938516 -4.51652 0
M  V30 6356 H 616.503 0.814501 -4.26085 0
M  V30 6357 H 617.174 2.25024 -5.04052 0
M  V30 6358 H 619.65 2.69926 -3.16669 0
M  V30 6359 H 618.526 3.88706 -3.87555 0
M  V30 6360 H 618.787 3.86933 -2.13859 0
M  V30 6361 N 617.846 1.41785 0.688094 0
M  V30 6362 C 619.257 1.3701 1.26828 0
M  V30 6363 C 619.608 0.056835 1.96118 0
M  V30 6364 O 618.733 -0.84475 1.99231 0
M  V30 6365 C 619.328 2.48168 2.30648 0
M  V30 6366 C 617.887 2.46766 2.84224 0
M  V30 6367 C 617.034 2.27633 1.58361 0
M  V30 6368 H 619.985 1.51192 0.482351 0
M  V30 6369 H 620.006 2.17655 3.121 0
M  V30 6370 H 619.518 3.43735 1.80188 0
M  V30 6371 H 617.619 1.54978 3.3884 0
M  V30 6372 H 617.732 3.43342 3.34145 0
M  V30 6373 H 616.096 1.75648 1.84445 0
M  V30 6374 H 616.879 3.25238 1.09887 0
M  V30 6375 N 619.324 -0.923095 1.27737 0
M  V30 6376 C 620.74 -1.19985 1.05241 0
M  V30 6377 C 620.94 -2.00391 -0.21113 0
M  V30 6378 O 619.996 -2.35324 -0.915366 0
M  V30 6379 C 621.309 -1.94352 2.29451 0
M  V30 6380 C 622.857 -2.07273 2.34536 0
M  V30 6381 C 623.332 -2.85046 3.58487 0
M  V30 6382 N 624.823 -2.92612 3.59072 0
M  V30 6383 C 625.558 -3.53266 4.51654 0
M  V30 6384 N 625.054 -4.15274 5.54545 0
M  V30 6385 N 626.847 -3.50714 4.39268 0
M  V30 6386 H 618.998 -0.386042 2.08862 0
M  V30 6387 H 621.261 -0.233407 0.918817 0
M  V30 6388 H 620.967 -1.42692 3.21453 0
M  V30 6389 H 620.841 -2.94947 2.3513 0
M  V30 6390 H 623.228 -2.58117 1.43037 0
M  V30 6391 H 623.309 -1.05884 2.32857 0
M  V30 6392 H 622.953 -2.34884 4.50324 0
M  V30 6393 H 622.883 -3.8673 3.57418 0
M  V30 6394 H 625.374 -2.48547 2.84663 0
M  V30 6395 H 625.687 -4.59507 6.21348 0
M  V30 6396 H 624.032 -4.13806 5.58382 0
M  V30 6397 H 627.223 -3.01475 3.58093 0
M  V30 6398 H 627.396 -3.97693 5.1161 0
M  V30 6399 N 620.802 -1.09834 -1.13024 0
M  V30 6400 C 622.213 -0.855651 -1.65938 0
M  V30 6401 C 622.564 0.615159 -1.86307 0
M  V30 6402 O 621.689 1.47335 -1.58497 0
M  V30 6403 C 622.284 -1.5467 -3.01434 0
M  V30 6404 C 620.843 -1.35088 -3.51323 0
M  V30 6405 C 619.99 -1.6001 -2.26478 0
M  V30 6406 H 622.941 -1.25691 -0.968889 0
M  V30 6407 H 622.962 -0.982179 -3.67605 0
M  V30 6408 H 622.474 -2.61715 -2.86578 0
M  V30 6409 H 620.575 -0.30179 -3.71376 0
M  V30 6410 H 620.688 -2.0886 -4.31178 0
M  V30 6411 H 619.052 -1.02246 -2.33276 0
M  V30 6412 H 619.835 -2.68293 -2.14182 0
M  V30 6413 N 622.28 1.30327 -0.886154 0
M  V30 6414 C 623.212 2.27079 -0.311072 0
M  V30 6415 C 624.225 1.53758 0.53502 0
M  V30 6416 O 625.414 1.74947 0.354378 0
M  V30 6417 C 622.514 3.33965 0.576228 0
M  V30 6418 C 621.687 4.36735 -0.241064 0
M  V30 6419 C 620.746 5.23028 0.576916 0
M  V30 6420 O 619.772 5.692 -0.000802231 0
M  V30 6421 N 620.974 5.49016 1.88579 0
M  V30 6422 H 623.739 2.77065 -1.14259 0
M  V30 6423 H 621.3 1.43519 -0.749258 0
M  V30 6424 H 623.292 3.88618 1.12953 0
M  V30 6425 H 621.862 2.839 1.30842 0
M  V30 6426 H 621.082 3.81932 -0.975805 0
M  V30 6427 H 622.37 5.02451 -0.801272 0
M  V30 6428 H 621.768 5.13288 2.37806 0
M  V30 6429 H 620.325 6.06539 2.38651 0
M  V30 6430 N 623.758 0.647228 1.43697 0
M  V30 6431 C 625.007 0.155552 2.01099 0
M  V30 6432 C 625.32 -1.23569 1.51624 0
M  V30 6433 O 626.526 -1.82226 2.01261 0
M  V30 6434 C 624.982 0.227296 3.59182 0
M  V30 6435 C 624.59 1.62086 4.17651 0
M  V30 6436 C 626.334 -0.207085 4.23995 0
M  V30 6437 C 624.241 1.64685 5.68008 0
M  V30 6438 H 623.171 0.0543895 0.752036 0
M  V30 6439 H 625.822 0.808386 1.64734 0
M  V30 6440 H 624.204 -0.492937 3.9292 0
M  V30 6441 H 625.378 2.36597 3.95422 0
M  V30 6442 H 623.693 2.0007 3.65186 0
M  V30 6443 H 626.29 -0.207426 5.34298 0
M  V30 6444 H 626.633 -1.23742 3.97484 0
M  V30 6445 H 627.166 0.461193 3.95118 0
M  V30 6446 H 623.905 2.65608 5.99277 0
M  V30 6447 H 623.425 0.944914 5.9231 0
M  V30 6448 H 625.104 1.38792 6.31938 0
M  V30 6449 N 625.236 -1.5273 0.388769 0
M  V30 6450 C 626.484 -2.01174 -0.193208 0
M  V30 6451 C 626.805 -1.27705 -1.47365 0
M  V30 6452 O 626.075 -0.396966 -1.91836 0
M  V30 6453 H 624.655 -0.743287 -0.0743871 0
M  V30 6454 H 627.317 -1.87826 0.520336 0
M  V30 6455 H 626.413 -3.09477 -0.403803 0
M  V30 6456 N 626.714 -0.118576 -1.57153 0
M  V30 6457 C 627.646 0.862247 -2.12363 0
M  V30 6458 C 628.659 1.23025 -1.06625 0
M  V30 6459 O 629.848 1.17927 -1.33998 0
M  V30 6460 C 626.948 2.16425 -2.60794 0
M  V30 6461 C 626.121 1.96801 -3.90626 0
M  V30 6462 C 625.18 3.10726 -4.2466 0
M  V30 6463 O 624.206 2.83659 -4.93484 0
M  V30 6464 N 625.408 4.37147 -3.81946 0
M  V30 6465 H 628.173 0.390564 -2.97144 0
M  V30 6466 H 625.734 0.0658591 -1.61766 0
M  V30 6467 H 627.726 2.91633 -2.80593 0
M  V30 6468 H 626.296 2.54943 -1.80895 0
M  V30 6469 H 625.516 1.05787 -3.7974 0
M  V30 6470 H 626.804 1.80993 -4.7552 0
M  V30 6471 H 626.202 4.62014 -3.26435 0
M  V30 6472 H 624.759 5.09229 -4.06853 0
M  V30 6473 N 628.193 1.56834 0.155195 0
M  V30 6474 C 629.423 1.86778 0.883044 0
M  V30 6475 C 629.831 0.703824 1.75622 0
M  V30 6476 O 629.174 -0.33581 1.80605 0
M  V30 6477 C 629.236 3.1133 1.79761 0
M  V30 6478 C 628.9 4.43504 1.10242 0
M  V30 6479 C 629.897 5.17859 0.460204 0
M  V30 6480 C 627.582 4.90233 1.09437 0
M  V30 6481 C 629.576 6.37144 -0.180782 0
M  V30 6482 C 627.263 6.09444 0.449569 0
M  V30 6483 C 628.261 6.82744 -0.186888 0
M  V30 6484 O 627.949 7.99692 -0.821486 0
M  V30 6485 H 627.681 0.62352 0.261149 0
M  V30 6486 H 630.235 2.04813 0.155204 0
M  V30 6487 H 628.465 2.89282 2.56618 0
M  V30 6488 H 630.154 3.27587 2.39669 0
M  V30 6489 H 630.92 4.8283 0.458289 0
M  V30 6490 H 626.799 4.33109 1.57917 0
M  V30 6491 H 630.343 6.94296 -0.678154 0
M  V30 6492 H 626.24 6.43936 0.449123 0
M  V30 6493 H 627.008 8.15306 -0.722337 0
M  V30 6494 N 629.671 -0.424282 1.51781 0
M  V30 6495 C 630.899 -1.1947 1.68921 0
M  V30 6496 C 631.314 -1.84683 0.39213 0
M  V30 6497 O 630.671 -1.71261 -0.630554 0
M  V30 6498 C 630.722 -2.26909 2.81416 0
M  V30 6499 O 630.443 -1.64361 4.061 0
M  V30 6500 C 631.944 -3.16945 3.09937 0
M  V30 6501 H 629.164 -0.359591 0.566511 0
M  V30 6502 H 631.708 -0.501139 1.98265 0
M  V30 6503 H 629.863 -2.91959 2.54635 0
M  V30 6504 H 630.277 -2.35468 4.68674 0
M  V30 6505 H 631.751 -3.88437 3.922 0
M  V30 6506 H 632.228 -3.78451 2.22871 0
M  V30 6507 H 632.834 -2.57581 3.38426 0
M  V30 6508 N 631.149 -1.42148 -0.680565 0
M  V30 6509 C 632.374 -1.45901 -1.47403 0
M  V30 6510 C 632.799 -0.0700985 -1.87969 0
M  V30 6511 O 632.157 0.930145 -1.55621 0
M  V30 6512 C 632.205 -2.38661 -2.70321 0
M  V30 6513 O 631.309 -1.85399 -3.68376 0
M  V30 6514 H 630.65 -0.494565 -0.443059 0
M  V30 6515 H 633.18 -1.86774 -0.835251 0
M  V30 6516 H 633.19 -2.55046 -3.18458 0
M  V30 6517 H 631.865 -3.39571 -2.40134 0
M  V30 6518 H 630.442 -1.78541 -3.2738 0
M  V30 6519 N 632.627 0.916307 -1.28225 0
M  V30 6520 C 634.038 1.48024 -1.13779 0
M  V30 6521 C 634.389 1.94289 0.273139 0
M  V30 6522 O 633.514 1.82226 1.16716 0
M  V30 6523 C 634.109 2.69029 -2.05935 0
M  V30 6524 C 632.668 3.2161 -1.95561 0
M  V30 6525 C 631.815 1.94321 -1.97825 0
M  V30 6526 H 634.766 0.729272 -1.40951 0
M  V30 6527 H 634.787 3.44204 -1.62184 0
M  V30 6528 H 634.299 2.35325 -3.08616 0
M  V30 6529 H 632.4 3.60045 -0.959076 0
M  V30 6530 H 632.513 3.87032 -2.82388 0
M  V30 6531 H 630.877 2.1131 -1.42198 0
M  V30 6532 H 631.66 1.62917 -3.0218 0
M  V30 6533 N 634.105 1.10431 1.1244 0
M  V30 6534 C 635.353 0.845045 1.83585 0
M  V30 6535 C 635.674 -0.631168 1.84503 0
M  V30 6536 O 634.944 -1.45825 1.30813 0
M  V30 6537 H 633.524 0.309628 0.679809 0
M  V30 6538 H 636.186 1.39458 1.36153 0
M  V30 6539 H 635.282 1.20786 2.8778 0
M  V30 6540 N 635.583 -1.29855 0.893053 0
M  V30 6541 C 636.811 -1.99976 0.530788 0
M  V30 6542 C 637.226 -1.66889 -0.882799 0
M  V30 6543 O 636.583 -0.910352 -1.58173 0
M  V30 6544 C 636.634 -3.54547 0.705587 0
M  V30 6545 O 636.355 -3.86458 2.06353 0
M  V30 6546 C 637.856 -4.41937 0.347387 0
M  V30 6547 H 635.076 -0.639129 0.204339 0
M  V30 6548 H 637.62 -1.65549 1.20057 0
M  V30 6549 H 635.775 -3.87311 0.0830685 0
M  V30 6550 H 636.189 -4.81146 2.08803 0
M  V30 6551 H 637.663 -5.4954 0.520557 0
M  V30 6552 H 638.14 -4.33339 -0.715139 0
M  V30 6553 H 638.746 -4.14633 0.946567 0
M  V30 6554 N 637.061 -0.65484 -1.43351 0
M  V30 6555 C 638.289 -0.176685 -2.06144 0
M  V30 6556 C 638.704 1.15831 -1.49093 0
M  V30 6557 O 638.061 1.71542 -0.622868 0
M  V30 6558 C 638.112 -0.0813326 -3.61408 0
M  V30 6559 O 637.833 -1.36355 -4.1634 0
M  V30 6560 C 639.334 0.422706 -4.4128 0
M  V30 6561 H 636.554 -0.0906429 -0.66485 0
M  V30 6562 H 639.098 -0.895945 -1.83829 0
M  V30 6563 H 637.253 0.588496 -3.82904 0
M  V30 6564 H 637.667 -1.22381 -5.10023 0
M  V30 6565 H 639.141 0.438375 -5.50257 0
M  V30 6566 H 639.618 1.45432 -4.14423 0
M  V30 6567 H 640.224 -0.214687 -4.24758 0
M  V30 6568 N 638.539 1.52521 -0.396863 0
M  V30 6569 C 639.767 2.06091 0.18275 0
M  V30 6570 C 640.182 1.26796 1.39886 0
M  V30 6571 O 639.539 0.316585 1.79733 0
M  V30 6572 C 639.59 3.57362 0.545377 0
M  V30 6573 O 639.311 4.33656 -0.622428 0
M  V30 6574 C 640.812 4.27305 1.18004 0
M  V30 6575 H 638.032 0.670504 0.025789 0
M  V30 6576 H 640.576 1.96561 -0.564276 0
M  V30 6577 H 638.731 3.66941 1.2423 0
M  V30 6578 H 639.145 5.23507 -0.322662 0
M  V30 6579 H 640.619 5.34366 1.38408 0
M  V30 6580 H 641.096 3.83 2.1496 0
M  V30 6581 H 641.702 4.22064 0.523671 0
M  V30 6582 N 640.017 0.126909 1.57088 0
M  V30 6583 C 641.245 -0.53667 1.99819 0
M  V30 6584 C 641.66 -1.5972 1.00673 0
M  V30 6585 O 641.017 -1.825 0.000747365 0
M  V30 6586 C 641.068 -1.15563 3.42531 0
M  V30 6587 O 640.789 -0.137483 4.37884 0
M  V30 6588 C 642.29 -1.90176 4.00435 0
M  V30 6589 H 639.51 -0.141443 0.655923 0
M  V30 6590 H 642.054 0.215578 2.03361 0
M  V30 6591 H 640.209 -1.85861 3.39904 0
M  V30 6592 H 640.623 -0.588229 5.21191 0
M  V30 6593 H 642.097 -2.28801 5.02349 0
M  V30 6594 H 642.574 -2.78002 3.40017 0
M  V30 6595 H 643.18 -1.24623 4.06632 0
M  V30 6596 N 641.495 -1.56914 -0.146875 0
M  V30 6597 C 642.723 -1.87515 -0.874394 0
M  V30 6598 C 643.138 -0.715116 -1.74733 0
M  V30 6599 O 642.495 0.315113 -1.79759 0
M  V30 6600 C 642.546 -3.17362 -1.731 0
M  V30 6601 O 642.267 -4.28897 -0.893245 0
M  V30 6602 C 643.768 -3.61479 -2.56609 0
M  V30 6603 H 640.988 -0.621546 -0.252827 0
M  V30 6604 H 643.532 -2.04023 -0.139627 0
M  V30 6605 H 641.687 -3.02608 -2.41883 0
M  V30 6606 H 642.101 -5.03146 -1.48137 0
M  V30 6607 H 643.575 -4.5517 -3.12289 0
M  V30 6608 H 644.052 -2.86773 -3.32653 0
M  V30 6609 H 644.658 -3.78927 -1.93117 0
M  V30 6610 N 642.974 0.416227 -1.52004 0
M  V30 6611 C 643.906 1.52552 -1.71058 0
M  V30 6612 C 644.919 1.51693 -0.59102 0
M  V30 6613 O 646.108 1.56087 -0.865973 0
M  V30 6614 C 643.208 2.91455 -1.72937 0
M  V30 6615 C 642.381 3.16584 -3.01816 0
M  V30 6616 C 641.44 4.35322 -2.95603 0
M  V30 6617 O 640.466 4.32947 -3.6952 0
M  V30 6618 N 641.668 5.40049 -2.12903 0
M  V30 6619 H 644.433 1.36604 -2.66757 0
M  V30 6620 H 641.994 0.60544 -1.50153 0
M  V30 6621 H 643.986 3.68944 -1.66321 0
M  V30 6622 H 642.556 3.00895 -0.847418 0
M  V30 6623 H 641.776 2.27203 -3.22137 0
M  V30 6624 H 643.064 3.30213 -3.87088 0
M  V30 6625 H 642.462 5.44823 -1.52265 0
M  V30 6626 H 641.019 6.16308 -2.1215 0
M  V30 6627 N 644.452 1.42507 0.673017 0
M  V30 6628 C 645.399 1.46124 1.78651 0
M  V30 6629 C 646.369 0.313007 1.63124 0
M  V30 6630 O 647.554 0.517337 1.83653 0
M  V30 6631 C 644.694 1.3711 3.16694 0
M  V30 6632 C 643.807 2.61983 3.43495 0
M  V30 6633 C 642.942 2.45098 4.71275 0
M  V30 6634 C 641.981 3.65336 4.91117 0
M  V30 6635 N 641.118 3.47383 6.10139 0
M  V30 6636 H 645.958 2.4128 1.74895 0
M  V30 6637 H 643.495 1.19788 0.853766 0
M  V30 6638 H 645.453 1.29881 3.96468 0
M  V30 6639 H 644.083 0.45549 3.1957 0
M  V30 6640 H 643.135 2.79571 2.57961 0
M  V30 6641 H 644.447 3.51355 3.5405 0
M  V30 6642 H 643.601 2.35466 5.59143 0
M  V30 6643 H 642.34 1.53219 4.63007 0
M  V30 6644 H 641.345 3.754 4.0169 0
M  V30 6645 H 642.57 4.58199 5.01229 0
M  V30 6646 H 640.516 2.58222 6.0304 0
M  V30 6647 H 640.433 4.30344 6.21563 0
M  V30 6648 H 641.701 3.41565 7.00681 0
M  V30 6649 N 645.93 -0.909495 1.28709 0
M  V30 6650 C 647.178 -1.65577 1.15882 0
M  V30 6651 C 647.499 -1.928 -0.292108 0
M  V30 6652 O 646.769 -1.54716 -1.20166 0
M  V30 6653 H 645.349 -0.613714 0.425869 0
M  V30 6654 H 648.011 -1.09108 1.61498 0
M  V30 6655 H 647.107 -2.61634 1.70159 0
M  V30 6656 N 647.408 -1.11026 -1.11852 0
M  V30 6657 C 648.338 -0.786812 -2.19844 0
M  V30 6658 C 649.319 0.242935 -1.68356 0
M  V30 6659 O 650.504 0.107355 -1.93903 0
M  V30 6660 C 647.634 -0.224516 -3.46574 0
M  V30 6661 C 646.588 -1.18564 -4.1125 0
M  V30 6662 C 645.914 -0.484261 -5.32503 0
M  V30 6663 C 647.214 -2.53465 -4.56676 0
M  V30 6664 H 648.908 -1.68978 -2.47158 0
M  V30 6665 H 646.454 -0.813906 -1.18792 0
M  V30 6666 H 648.407 0.0139435 -4.21398 0
M  V30 6667 H 647.131 0.713722 -3.18706 0
M  V30 6668 H 645.79 -1.40966 -3.38414 0
M  V30 6669 H 645.438 0.458646 -5.00905 0
M  V30 6670 H 645.138 -1.12526 -5.76725 0
M  V30 6671 H 646.662 -0.254492 -6.10069 0
M  V30 6672 H 648.076 -2.35177 -5.22843 0
M  V30 6673 H 646.473 -3.13507 -5.11697 0
M  V30 6674 H 647.543 -3.13008 -3.70343 0
M  V30 6675 N 648.886 1.2938 -0.899927 0
M  V30 6676 C 650.116 1.99402 -0.540601 0
M  V30 6677 C 650.524 1.67534 0.87914 0
M  V30 6678 O 649.867 0.916821 1.59186 0
M  V30 6679 C 649.929 3.53514 -0.653326 0
M  V30 6680 C 649.593 4.08937 -2.04009 0
M  V30 6681 C 650.59 4.23815 -3.01126 0
M  V30 6682 C 648.275 4.43962 -2.34953 0
M  V30 6683 C 650.269 4.72951 -4.27313 0
M  V30 6684 C 647.956 4.92795 -3.61382 0
M  V30 6685 C 648.954 5.07244 -4.57376 0
M  V30 6686 O 648.642 5.55017 -5.8156 0
M  V30 6687 H 648.374 0.64383 -0.206057 0
M  V30 6688 H 650.928 1.65878 -1.21134 0
M  V30 6689 H 649.158 3.86628 0.0744449 0
M  V30 6690 H 650.847 4.04767 -0.303118 0
M  V30 6691 H 651.613 3.97043 -2.78535 0
M  V30 6692 H 647.492 4.31974 -1.60994 0
M  V30 6693 H 651.036 4.84144 -5.02245 0
M  V30 6694 H 646.933 5.19004 -3.83804 0
M  V30 6695 H 647.701 5.73331 -5.84153 0
M  V30 6696 N 650.364 0.662433 1.43002 0
M  V30 6697 C 651.327 -0.0142016 2.29196 0
M  V30 6698 C 652.327 -0.741394 1.42688 0
M  V30 6699 O 653.517 -0.581257 1.64216 0
M  V30 6700 C 650.649 -1.03084 3.24941 0
M  V30 6701 H 651.842 0.7443 2.90517 0
M  V30 6702 H 649.395 0.424133 1.50435 0
M  V30 6703 H 650.13 -1.81826 2.68533 0
M  V30 6704 H 649.915 -0.512946 3.8873 0
M  V30 6705 H 651.405 -1.50308 3.89612 0
M  V30 6706 N 651.842 -1.52309 0.404946 0
M  V30 6707 C 652.772 -2.29805 -0.41376 0
M  V30 6708 C 653.753 -1.3384 -1.0498 0
M  V30 6709 O 654.938 -1.62745 -1.05961 0
M  V30 6710 C 652.068 -3.11639 -1.53292 0
M  V30 6711 C 651.022 -4.15616 -1.02211 0
M  V30 6712 C 650.348 -4.8577 -2.23455 0
M  V30 6713 C 651.648 -5.2224 -0.0790725 0
M  V30 6714 H 653.342 -2.98493 0.232878 0
M  V30 6715 H 650.888 -1.43552 0.113441 0
M  V30 6716 H 652.841 -3.64618 -2.11262 0
M  V30 6717 H 651.565 -2.40712 -2.20738 0
M  V30 6718 H 650.224 -3.63641 -0.46484 0
M  V30 6719 H 649.872 -4.11376 -2.89445 0
M  V30 6720 H 649.572 -5.56058 -1.89929 0
M  V30 6721 H 651.096 -5.4156 -2.82038 0
M  V30 6722 H 652.51 -5.70485 -0.567438 0
M  V30 6723 H 650.907 -5.99867 0.167167 0
M  V30 6724 H 651.977 -4.77078 0.867447 0
M  V30 6725 N 653.32 -0.135238 -1.57019 0
M  V30 6726 C 654.568 0.51777 -1.95355 0
M  V30 6727 C 654.889 1.6617 -1.02042 0
M  V30 6728 O 654.159 1.95738 -0.0797343 0
M  V30 6729 H 652.739 0.194264 -0.721298 0
M  V30 6730 H 655.401 -0.207983 -1.93787 0
M  V30 6731 H 654.497 0.901675 -2.98791 0
M  V30 6732 N 654.798 1.5699 0.138552 0
M  V30 6733 C 656.214 1.51844 0.491472 0
M  V30 6734 C 656.414 0.845063 1.82923 0
M  V30 6735 O 655.47 0.419143 2.48997 0
M  V30 6736 C 656.783 2.96615 0.493987 0
M  V30 6737 C 658.331 3.076 0.578913 0
M  V30 6738 C 658.806 4.53893 0.612009 0
M  V30 6739 N 660.297 4.5827 0.673997 0
M  V30 6740 C 661.032 5.68852 0.720729 0
M  V30 6741 N 660.528 6.88982 0.726292 0
M  V30 6742 N 662.321 5.56908 0.762253 0
M  V30 6743 H 654.472 1.99158 -0.738228 0
M  V30 6744 H 656.735 0.908693 -0.270149 0
M  V30 6745 H 656.441 3.49172 -0.420933 0
M  V30 6746 H 656.315 3.53017 1.32887 0
M  V30 6747 H 658.702 2.55057 1.48425 0
M  V30 6748 H 658.783 2.54227 -0.283286 0
M  V30 6749 H 658.427 5.07076 -0.289208 0
M  V30 6750 H 658.357 5.05057 1.49082 0
M  V30 6751 H 660.848 3.71793 0.676654 0
M  V30 6752 H 661.161 7.69014 0.764032 0
M  V30 6753 H 659.506 6.91526 0.69403 0
M  V30 6754 H 662.697 4.61969 0.755135 0
M  V30 6755 H 662.87 6.43102 0.795207 0
M  V30 6756 N 656.276 -0.40816 1.52223 0
M  V30 6757 C 657.525 -1.15212 1.65557 0
M  V30 6758 C 657.838 -1.9163 0.392096 0
M  V30 6759 O 659.044 -2.68458 0.405256 0
M  V30 6760 C 657.5 -2.09691 2.92502 0
M  V30 6761 C 657.108 -1.38785 4.25961 0
M  V30 6762 C 658.852 -2.8434 3.152 0
M  V30 6763 C 656.759 -2.31919 5.44029 0
M  V30 6764 H 655.689 -0.433776 0.616729 0
M  V30 6765 H 658.34 -0.4165 1.78711 0
M  V30 6766 H 656.722 -2.8681 2.7305 0
M  V30 6767 H 657.896 -0.670248 4.55899 0
M  V30 6768 H 656.211 -0.761741 4.09373 0
M  V30 6769 H 658.808 -3.54166 4.00587 0
M  V30 6770 H 659.151 -3.47344 2.29473 0
M  V30 6771 H 659.684 -2.14321 3.35129 0
M  V30 6772 H 656.423 -1.7356 6.32105 0
M  V30 6773 H 655.943 -3.0165 5.18428 0
M  V30 6774 H 657.622 -2.92424 5.77146 0
M  V30 6775 N 657.755 -1.42862 -0.66545 0
M  V30 6776 C 658.702 -1.4707 -1.77874 0
M  V30 6777 C 659.672 -0.321654 -1.62956 0
M  V30 6778 O 660.857 -0.52707 -1.83376 0
M  V30 6779 C 657.997 -1.38788 -3.15962 0
M  V30 6780 C 657.11 -2.63801 -3.42101 0
M  V30 6781 C 656.245 -2.47594 -4.69969 0
M  V30 6782 C 655.284 -3.67936 -4.89172 0
M  V30 6783 N 654.421 -3.50614 -6.08288 0
M  V30 6784 H 659.261 -2.42204 -1.73613 0
M  V30 6785 H 656.798 -1.20239 -0.847401 0
M  V30 6786 H 658.756 -1.31982 -3.95773 0
M  V30 6787 H 657.386 -0.472431 -3.19324 0
M  V30 6788 H 656.438 -2.80935 -2.56475 0
M  V30 6789 H 657.75 -3.53228 -3.52181 0
M  V30 6790 H 656.904 -2.38427 -5.57886 0
M  V30 6791 H 655.643 -1.55672 -4.62188 0
M  V30 6792 H 654.648 -3.77525 -3.99694 0
M  V30 6793 H 655.873 -4.60851 -4.98792 0
M  V30 6794 H 653.819 -2.61417 -6.01662 0
M  V30 6795 H 653.736 -4.33634 -6.19272 0
M  V30 6796 H 655.004 -3.45276 -6.98859 0
M  V30 6797 N 659.233 0.902656 -1.29189 0
M  V30 6798 C 660.163 2.02294 -1.16616 0
M  V30 6799 C 661.144 1.6999 -0.0611175 0
M  V30 6800 O 662.329 1.9271 -0.240072 0
M  V30 6801 C 659.459 3.37018 -0.83882 0
M  V30 6802 C 658.413 3.83522 -1.89986 0
M  V30 6803 C 657.739 5.15337 -1.42589 0
M  V30 6804 C 659.039 4.04169 -3.30824 0
M  V30 6805 H 660.733 2.13071 -2.10336 0
M  V30 6806 H 658.279 1.02378 -1.01266 0
M  V30 6807 H 660.232 4.14895 -0.737584 0
M  V30 6808 H 658.956 3.26325 0.134071 0
M  V30 6809 H 657.615 3.07859 -1.99043 0
M  V30 6810 H 657.263 5.01056 -0.441759 0
M  V30 6811 H 656.963 5.47423 -2.13547 0
M  V30 6812 H 658.487 5.95758 -1.3381 0
M  V30 6813 H 659.901 4.72537 -3.24626 0
M  V30 6814 H 658.298 4.47604 -3.99713 0
M  V30 6815 H 659.368 3.08604 -3.74021 0
M  V30 6816 N 660.711 1.11618 1.11262 0
M  V30 6817 C 661.674 0.779447 2.15539 0
M  V30 6818 C 662.674 -0.202081 1.59525 0
M  V30 6819 O 663.864 0.0226356 1.74185 0
M  V30 6820 C 660.996 0.15674 3.40539 0
M  V30 6821 H 662.189 1.70324 2.4684 0
M  V30 6822 H 659.742 0.918298 1.26479 0
M  V30 6823 H 660.477 -0.777186 3.1485 0
M  V30 6824 H 660.262 0.863308 3.82478 0
M  V30 6825 H 661.752 -0.062661 4.17553 0
M  V30 6826 N 662.189 -1.289 0.906776 0
M  V30 6827 C 663.099 -2.31256 0.394707 0
M  V30 6828 C 664.115 -1.66231 -0.514121 0
M  V30 6829 O 665.291 -1.97347 -0.401994 0
M  V30 6830 C 662.356 -3.44792 -0.363191 0
M  V30 6831 C 661.417 -4.25391 0.578012 0
M  V30 6832 C 660.65 -5.33506 -0.143811 0
M  V30 6833 O 660.873 -5.53786 -1.36665 0
M  V30 6834 O 659.807 -5.99673 0.5173 0
M  V30 6835 H 663.633 -2.77051 1.24405 0
M  V30 6836 H 661.218 -1.33466 0.671346 0
M  V30 6837 H 663.1 -4.139 -0.791503 0
M  V30 6838 H 661.775 -3.01093 -1.18848 0
M  V30 6839 H 660.682 -3.58899 1.05558 0
M  V30 6840 H 662.015 -4.72752 1.36992 0
M  V30 6841 N 663.667 -0.670007 -1.42649 0
M  V30 6842 C 665.078 -0.268118 -1.84765 0
M  V30 6843 C 665.429 1.18877 -1.56086 0
M  V30 6844 O 664.554 1.90947 -1.01825 0
M  V30 6845 C 665.149 -0.47984 -3.35385 0
M  V30 6846 C 663.708 -0.132116 -3.76168 0
M  V30 6847 C 662.855 -0.774611 -2.66261 0
M  V30 6848 H 665.806 -0.872509 -1.32563 0
M  V30 6849 H 665.827 0.269522 -3.79544 0
M  V30 6850 H 665.339 -1.54026 -3.56227 0
M  V30 6851 H 663.44 0.92505 -3.60934 0
M  V30 6852 H 663.553 -0.569294 -4.75706 0
M  V30 6853 H 661.917 -0.206353 -2.53863 0
M  V30 6854 H 662.7 -1.83839 -2.89928 0
M  V30 6855 N 665.145 1.52092 -0.413018 0
M  V30 6856 C 666.075 2.30021 0.401567 0
M  V30 6857 C 667.056 1.34395 1.04269 0
M  V30 6858 O 668.241 1.63304 1.05097 0
M  V30 6859 C 665.371 3.12447 1.51638 0
M  V30 6860 C 664.325 4.16153 1.00005 0
M  V30 6861 C 663.651 4.86948 2.20875 0
M  V30 6862 C 664.951 5.22275 0.0513757 0
M  V30 6863 H 666.645 2.98365 -0.248704 0
M  V30 6864 H 664.191 1.4349 -0.121052 0
M  V30 6865 H 666.144 3.65733 2.09326 0
M  V30 6866 H 664.868 2.41879 2.19458 0
M  V30 6867 H 663.527 3.63882 0.445549 0
M  V30 6868 H 663.175 4.12905 2.8726 0
M  V30 6869 H 662.875 5.57057 1.86978 0
M  V30 6870 H 664.399 5.43048 2.79162 0
M  V30 6871 H 665.813 5.70778 0.537176 0
M  V30 6872 H 664.21 5.9977 -0.198977 0
M  V30 6873 H 665.28 4.76611 -0.892736 0
M  V30 6874 N 666.623 0.143563 1.56945 0
M  V30 6875 C 667.851 -0.515447 2.00377 0
M  V30 6876 C 668.266 -1.58643 1.02361 0
M  V30 6877 O 667.623 -1.82489 0.0201039 0
M  V30 6878 C 667.674 -1.11923 3.43737 0
M  V30 6879 O 667.395 -0.0910318 4.38005 0
M  V30 6880 C 668.896 -1.85918 4.02429 0
M  V30 6881 H 666.116 -0.134478 0.657386 0
M  V30 6882 H 668.66 0.237135 2.0312 0
M  V30 6883 H 666.815 -1.82245 3.41856 0
M  V30 6884 H 667.229 -0.532916 5.21786 0
M  V30 6885 H 668.703 -2.2346 5.04747 0
M  V30 6886 H 669.18 -2.7438 3.42947 0
M  V30 6887 H 669.786 -1.20303 4.07931 0
M  V30 6888 N 668.101 -1.57061 -0.130224 0
M  V30 6889 C 669.031 -2.02552 -1.16168 0
M  V30 6890 C 670.012 -0.907971 -1.4384 0
M  V30 6891 O 671.197 -1.17693 -1.54473 0
M  V30 6892 C 668.327 -2.42035 -2.49071 0
M  V30 6893 C 667.281 -3.5713 -2.35886 0
M  V30 6894 C 666.607 -3.82478 -3.7365 0
M  V30 6895 C 667.907 -4.89236 -1.8288 0
M  V30 6896 H 669.601 -2.8897 -0.783359 0
M  V30 6897 H 667.147 -1.39021 -0.375376 0
M  V30 6898 H 669.1 -2.72462 -3.21469 0
M  V30 6899 H 667.824 -1.52573 -2.88771 0
M  V30 6900 H 666.483 -3.26895 -1.65938 0
M  V30 6901 H 666.131 -2.9024 -4.10816 0
M  V30 6902 H 665.831 -4.59944 -3.65685 0
M  V30 6903 H 667.355 -4.15347 -4.47571 0
M  V30 6904 H 668.769 -5.18272 -2.45085 0
M  V30 6905 H 667.166 -5.70624 -1.85763 0
M  V30 6906 H 668.236 -4.78494 -0.785571 0
M  V30 6907 N 669.579 0.400081 -1.52437 0
M  V30 6908 C 670.825 1.14788 -1.67187 0
M  V30 6909 C 671.158 1.89928 -0.405074 0
M  V30 6910 O 670.433 1.85118 0.596804 0
M  V30 6911 C 670.716 2.13507 -2.89977 0
M  V30 6912 C 670.569 1.42204 -4.2673 0
M  V30 6913 C 671.888 3.14069 -3.083 0
M  V30 6914 H 669.007 0.415939 -0.608411 0
M  V30 6915 H 671.649 0.432542 -1.85011 0
M  V30 6916 H 669.799 2.7451 -2.74912 0
M  V30 6917 H 671.471 0.842503 -4.53541 0
M  V30 6918 H 669.714 0.723939 -4.27717 0
M  V30 6919 H 670.385 2.14281 -5.08712 0
M  V30 6920 H 672.861 2.63148 -3.22323 0
M  V30 6921 H 671.737 3.80398 -3.95713 0
M  V30 6922 H 671.998 3.82309 -2.22018 0
M  V30 6923 N 671.057 1.43213 0.657864 0
M  V30 6924 C 672.303 1.44798 1.41991 0
M  V30 6925 C 672.636 0.070256 1.94073 0
M  V30 6926 O 671.911 -0.908177 1.71995 0
M  V30 6927 C 672.194 2.4865 2.60471 0
M  V30 6928 C 672.047 3.95679 2.13911 0
M  V30 6929 C 673.366 2.49292 3.62686 0
M  V30 6930 H 670.485 0.527244 0.514959 0
M  V30 6931 H 673.127 1.74733 0.74621 0
M  V30 6932 H 671.277 2.23254 3.17946 0
M  V30 6933 H 672.949 4.32116 1.61472 0
M  V30 6934 H 671.192 4.08733 1.45325 0
M  V30 6935 H 671.863 4.6395 2.99089 0
M  V30 6936 H 674.339 2.71917 3.14961 0
M  V30 6937 H 673.215 3.23907 4.43143 0
M  V30 6938 H 673.476 1.52502 4.14964 0
M  V30 6939 N 672.536 -0.895792 1.29666 0
M  V30 6940 C 673.784 -1.64339 1.17631 0
M  V30 6941 C 674.105 -1.93099 -0.271643 0
M  V30 6942 O 673.375 -1.55981 -1.18518 0
M  V30 6943 H 671.955 -0.609162 0.432354 0
M  V30 6944 H 674.617 -1.07389 1.62646 0
M  V30 6945 H 673.713 -2.59815 1.72924 0
M  V30 6946 N 674.014 -1.12206 -1.10668 0
M  V30 6947 C 675.262 -0.874144 -1.82217 0
M  V30 6948 C 675.583 0.601736 -1.85484 0
M  V30 6949 O 674.853 1.43725 -1.33116 0
M  V30 6950 H 673.433 -0.320404 -0.674797 0
M  V30 6951 H 676.095 -1.41606 -1.33917 0
M  V30 6952 H 675.191 -1.25349 -2.85822 0
M  V30 6953 N 675.492 1.28418 -0.913599 0
M  V30 6954 C 676.908 1.47411 -0.611728 0
M  V30 6955 C 677.108 1.83018 0.843008 0
M  V30 6956 O 676.164 1.93505 1.6221 0
M  V30 6957 C 677.477 2.57703 -1.5495 0
M  V30 6958 C 679.025 2.71572 -1.5562 0
M  V30 6959 C 679.5 3.85008 -2.48058 0
M  V30 6960 N 680.991 3.92361 -2.46184 0
M  V30 6961 C 681.726 4.79516 -3.14407 0
M  V30 6962 N 681.222 5.71262 -3.91958 0
M  V30 6963 N 683.015 4.73125 -3.03495 0
M  V30 6964 H 675.166 1.03585 -1.85429 0
M  V30 6965 H 677.429 0.515907 -0.795326 0
M  V30 6966 H 677.135 2.38298 -2.58663 0
M  V30 6967 H 677.009 3.54801 -1.28048 0
M  V30 6968 H 679.396 2.90366 -0.526441 0
M  V30 6969 H 679.477 1.75006 -1.86565 0
M  V30 6970 H 679.121 3.66969 -3.51136 0
M  V30 6971 H 679.051 4.80971 -2.14416 0
M  V30 6972 H 681.542 3.26749 -1.89851 0
M  V30 6973 H 681.855 6.34593 -4.41034 0
M  V30 6974 H 680.2 5.71103 -3.96063 0
M  V30 6975 H 683.391 4.00442 -2.42413 0
M  V30 6976 H 683.564 5.40834 -3.56935 0
M  V30 6977 N 676.97 0.677563 1.42291 0
M  V30 6978 C 677.88 0.000962654 2.346 0
M  V30 6979 C 678.896 -0.785833 1.55244 0
M  V30 6980 O 680.072 -0.727523 1.87801 0
M  V30 6981 C 677.137 -0.936746 3.33805 0
M  V30 6982 C 676.198 -0.144173 4.29058 0
M  V30 6983 C 675.431 -1.03722 5.23524 0
M  V30 6984 O 675.654 -2.27675 5.22992 0
M  V30 6985 O 674.588 -0.496542 5.99848 0
M  V30 6986 H 678.414 0.761397 2.94001 0
M  V30 6987 H 675.999 0.43781 1.42841 0
M  V30 6988 H 677.881 -1.47497 3.94744 0
M  V30 6989 H 676.556 -1.67698 2.76874 0
M  V30 6990 H 675.463 0.438224 3.71524 0
M  V30 6991 H 676.796 0.55701 4.89038 0
M  V30 6992 N 678.448 -1.51871 0.421078 0
M  V30 6993 C 679.673 -2.0684 -0.152371 0
M  V30 6994 C 680.098 -1.28802 -1.37083 0
M  V30 6995 O 679.456 -0.321482 -1.78427 0
M  V30 6996 C 679.504 -3.57532 -0.469368 0
M  V30 6997 O 678.608 -3.81818 -1.55848 0
M  V30 6998 H 677.949 -0.663939 -0.00898586 0
M  V30 6999 H 680.479 -1.95674 0.597724 0
M  V30 7000 H 680.489 -4.01515 -0.724553 0
M  V30 7001 H 679.164 -4.13761 0.421276 0
M  V30 7002 H 677.741 -3.49709 -1.29453 0
M  V30 7003 N 679.926 -0.151884 -1.56866 0
M  V30 7004 C 681.172 0.492327 -1.97352 0
M  V30 7005 C 681.527 1.62156 -1.03553 0
M  V30 7006 O 680.82 1.91467 -0.0714872 0
M  V30 7007 C 681.014 1.04074 -3.41911 0
M  V30 7008 C 680.843 -0.0338306 -4.49687 0
M  V30 7009 C 679.613 -0.476914 -5.03044 0
M  V30 7010 C 681.811 -0.827105 -5.07606 0
M  V30 7011 N 679.793 -1.53382 -5.9443 0
M  V30 7012 C 681.164 -1.73439 -5.95247 0
M  V30 7013 C 683.219 -0.874351 -4.90163 0
M  V30 7014 C 681.922 -2.68488 -6.67313 0
M  V30 7015 C 683.948 -1.81269 -5.62935 0
M  V30 7016 C 683.31 -2.70749 -6.50288 0
M  V30 7017 H 679.409 0.148822 -0.767708 0
M  V30 7018 H 681.993 -0.247615 -1.93119 0
M  V30 7019 H 680.164 1.75027 -3.46728 0
M  V30 7020 H 681.896 1.65197 -3.69448 0
M  V30 7021 H 678.651 -0.0782493 -4.73535 0
M  V30 7022 H 679.075 -2.06217 -6.44828 0
M  V30 7023 H 683.717 -0.196628 -4.22343 0
M  V30 7024 H 681.435 -3.37257 -7.34359 0
M  V30 7025 H 685.021 -1.85511 -5.51432 0
M  V30 7026 H 683.901 -3.42175 -7.0561 0
M  V30 7027 N 681.404 1.57128 0.121893 0
M  V30 7028 C 682.65 1.85853 0.826451 0
M  V30 7029 C 683.005 0.739262 1.77631 0
M  V30 7030 O 682.298 -0.260959 1.89815 0
M  V30 7031 C 682.492 3.1874 1.61677 0
M  V30 7032 C 682.321 4.43487 0.744944 0
M  V30 7033 C 681.091 5.03707 0.400891 0
M  V30 7034 C 683.289 5.1426 0.0638779 0
M  V30 7035 N 681.271 6.12006 -0.481902 0
M  V30 7036 C 682.642 6.16281 -0.678033 0
M  V30 7037 C 684.697 4.97898 -0.0128424 0
M  V30 7038 C 683.4 7.0371 -1.48946 0
M  V30 7039 C 685.426 5.85812 -0.81108 0
M  V30 7040 C 684.788 6.87333 -1.54119 0
M  V30 7041 H 680.887 0.730367 0.279442 0
M  V30 7042 H 683.471 1.9449 0.0903486 0
M  V30 7043 H 681.642 3.11204 2.32393 0
M  V30 7044 H 683.374 3.35283 2.26644 0
M  V30 7045 H 680.129 4.67744 0.742469 0
M  V30 7046 H 680.553 6.70787 -0.915063 0
M  V30 7047 H 685.195 4.19372 0.537278 0
M  V30 7048 H 682.913 7.81646 -2.05074 0
M  V30 7049 H 686.499 5.75217 -0.872764 0
M  V30 7050 H 685.379 7.54182 -2.14893 0
M  V30 7051 N 682.882 -0.391992 1.52647 0
M  V30 7052 C 684.159 -1.15136 1.58123 0
M  V30 7053 C 684.539 -2.07786 0.372597 0
M  V30 7054 O 683.887 -2.19374 -0.639304 0
M  V30 7055 C 684.097 -1.91367 2.91856 0
M  V30 7056 C 685.445 -2.46833 3.45483 0
M  V30 7057 O 686.469 -2.01527 2.9371 0
M  V30 7058 O 685.328 -3.29587 4.3593 0
M  V30 7059 H 682.422 -0.526649 0.637629 0
M  V30 7060 H 684.968 -0.397386 1.64982 0
M  V30 7061 H 683.74 -1.23597 3.71268 0
M  V30 7062 H 683.363 -2.73732 2.88369 0
M  V30 7063 N 684.36 -1.4356 -0.65026 0
M  V30 7064 C 685.292 -1.44918 -1.77571 0
M  V30 7065 C 686.305 -0.344925 -1.59104 0
M  V30 7066 O 687.494 -0.609537 -1.6777 0
M  V30 7067 C 684.594 -1.24914 -3.15039 0
M  V30 7068 C 683.767 -2.48232 -3.60138 0
M  V30 7069 C 682.826 -2.23409 -4.76419 0
M  V30 7070 O 681.852 -2.9678 -4.85706 0
M  V30 7071 N 683.054 -1.25259 -5.66825 0
M  V30 7072 H 685.819 -2.41935 -1.76883 0
M  V30 7073 H 683.38 -1.38754 -0.834202 0
M  V30 7074 H 685.372 -1.06185 -3.90521 0
M  V30 7075 H 683.942 -0.363319 -3.10481 0
M  V30 7076 H 683.162 -2.82366 -2.75069 0
M  V30 7077 H 684.45 -3.30296 -3.87017 0
M  V30 7078 H 683.848 -0.646246 -5.61997 0
M  V30 7079 H 682.405 -1.12513 -6.42016 0
M  V30 7080 N 685.838 0.888903 -1.30139 0
M  V30 7081 C 687.115 1.62145 -1.094 0
M  V30 7082 C 687.495 2.08041 0.358091 0
M  V30 7083 O 686.843 1.84438 1.34888 0
M  V30 7084 C 687.053 2.794 -2.09133 0
M  V30 7085 C 688.401 3.49826 -2.40638 0
M  V30 7086 O 689.425 2.89583 -2.07412 0
M  V30 7087 O 688.284 4.58457 -2.97455 0
M  V30 7088 H 685.378 0.712475 -0.41989 0
M  V30 7089 H 687.924 0.936023 -1.41551 0
M  V30 7090 H 686.696 2.42762 -3.06891 0
M  V30 7091 H 686.319 3.55643 -1.77776 0
M  V30 7092 N 687.317 1.12792 1.10072 0
M  V30 7093 C 688.545 0.908506 1.85886 0
M  V30 7094 C 688.96 -0.542408 1.80841 0
M  V30 7095 O 688.317 -1.37517 1.1998 0
M  V30 7096 C 688.368 1.37973 3.34134 0
M  V30 7097 O 688.089 2.77378 3.39106 0
M  V30 7098 C 689.59 1.1978 4.26811 0
M  V30 7099 H 686.81 0.3244 0.587372 0
M  V30 7100 H 689.354 1.49882 1.39125 0
M  V30 7101 H 687.509 0.832566 3.78348 0
M  V30 7102 H 687.923 2.98144 4.31521 0
M  V30 7103 H 689.397 1.57635 5.29014 0
M  V30 7104 H 689.874 0.138768 4.38981 0
M  V30 7105 H 690.48 1.73266 3.88406 0
M  V30 7106 N 688.795 -1.27931 0.920396 0
M  V30 7107 C 690.206 -1.76707 0.602616 0
M  V30 7108 C 690.557 -1.75249 -0.882159 0
M  V30 7109 O 689.682 -1.35135 -1.69019 0
M  V30 7110 C 690.277 -3.20884 1.08714 0
M  V30 7111 C 688.836 -3.67356 0.820157 0
M  V30 7112 C 687.983 -2.47525 1.25006 0
M  V30 7113 H 690.934 -1.14301 1.10095 0
M  V30 7114 H 690.955 -3.78045 0.431535 0
M  V30 7115 H 690.467 -3.21913 2.1678 0
M  V30 7116 H 688.568 -3.7178 -0.247012 0
M  V30 7117 H 688.681 -4.57181 1.43257 0
M  V30 7118 H 687.045 -2.45765 0.668698 0
M  V30 7119 H 687.828 -2.51269 2.3392 0
M  V30 7120 N 690.273 -0.685099 -1.4193 0
M  V30 7121 C 691.236 -0.0222632 -2.29189 0
M  V30 7122 C 692.236 0.7186 -1.4385 0
M  V30 7123 O 693.426 0.555058 -1.6512 0
M  V30 7124 C 690.558 0.979013 -3.2654 0
M  V30 7125 H 691.751 -0.790424 -2.89296 0
M  V30 7126 H 689.304 -0.448012 -1.49742 0
M  V30 7127 H 690.039 1.77531 -2.71392 0
M  V30 7128 H 689.824 0.451037 -3.89497 0
M  V30 7129 H 691.314 1.44091 -3.91954 0
M  V30 7130 N 691.751 1.51645 -0.429126 0
M  V30 7131 C 692.979 2.06433 0.138994 0
M  V30 7132 C 693.394 1.29735 1.37165 0
M  V30 7133 O 692.751 0.354638 1.79021 0
M  V30 7134 C 692.802 3.58439 0.469452 0
M  V30 7135 O 692.523 4.32238 -0.714273 0
M  V30 7136 C 694.024 4.29712 1.08914 0
M  V30 7137 H 691.244 0.6709 0.0115608 0
M  V30 7138 H 693.788 1.9532 -0.605843 0
M  V30 7139 H 691.943 3.69494 1.16419 0
M  V30 7140 H 692.357 5.22704 -0.433633 0
M  V30 7141 H 693.831 5.37182 1.27042 0
M  V30 7142 H 694.308 3.87473 2.06788 0
M  V30 7143 H 694.914 4.2308 0.434028 0
M  V30 7144 N 693.229 0.160201 1.56784 0
M  V30 7145 C 694.645 -0.196089 1.58391 0
M  V30 7146 C 694.845 -1.63689 1.17508 0
M  V30 7147 O 693.901 -2.36613 0.881506 0
M  V30 7148 C 695.214 0.0746449 3.00607 0
M  V30 7149 C 696.762 0.0119762 3.12998 0
M  V30 7150 C 697.237 0.255551 4.57286 0
M  V30 7151 N 698.728 0.202938 4.62755 0
M  V30 7152 C 699.463 0.365731 5.72232 0
M  V30 7153 N 698.959 0.586972 6.90309 0
M  V30 7154 N 700.752 0.302411 5.61286 0
M  V30 7155 H 692.903 1.1008 1.81648 0
M  V30 7156 H 695.166 0.436779 0.841384 0
M  V30 7157 H 694.872 1.07231 3.34954 0
M  V30 7158 H 694.746 -0.638802 3.71751 0
M  V30 7159 H 697.133 -0.976254 2.78484 0
M  V30 7160 H 697.214 0.75796 2.44313 0
M  V30 7161 H 696.858 1.24094 4.92507 0
M  V30 7162 H 696.788 -0.510912 5.24116 0
M  V30 7163 H 699.279 0.0371328 3.77882 0
M  V30 7164 H 699.592 0.700941 7.69615 0
M  V30 7165 H 697.937 0.623453 6.92198 0
M  V30 7166 H 701.128 0.130238 4.67919 0
M  V30 7167 H 701.301 0.432712 6.46554 0
M  V30 7168 N 694.707 -1.5719 -0.113559 0
M  V30 7169 C 695.954 -1.85138 -0.820382 0
M  V30 7170 C 696.282 -0.74608 -1.79622 0
M  V30 7171 O 695.537 0.262077 -1.93937 0
M  V30 7172 C 695.836 -3.19593 -1.59984 0
M  V30 7173 C 695.502 -4.44315 -0.767809 0
M  V30 7174 C 694.164 -4.78179 -0.538379 0
M  V30 7175 C 696.516 -5.2086 -0.188203 0
M  V30 7176 C 693.844 -5.86028 0.28082 0
M  V30 7177 C 696.196 -6.29572 0.618217 0
M  V30 7178 C 694.86 -6.61964 0.857912 0
M  V30 7179 H 694.13 -0.677467 -0.300199 0
M  V30 7180 H 696.777 -1.91322 -0.0825443 0
M  V30 7181 H 695.082 -3.0901 -2.40874 0
M  V30 7182 H 696.779 -3.3844 -2.1508 0
M  V30 7183 H 693.369 -4.17786 -0.956724 0
M  V30 7184 H 697.553 -4.95045 -0.352658 0
M  V30 7185 H 692.809 -6.09547 0.475693 0
M  V30 7186 H 696.983 -6.88064 1.0743 0
M  V30 7187 H 694.61 -7.45365 1.49451 0
M  V30 7188 N 696.185 0.383891 -1.52853 0
M  V30 7189 C 697.132 1.46924 -1.77995 0
M  V30 7190 C 698.102 1.53958 -0.623396 0
M  V30 7191 O 699.287 1.70134 -0.863657 0
M  V30 7192 C 696.427 2.84093 -1.95921 0
M  V30 7193 C 695.54 2.86171 -3.23621 0
M  V30 7194 C 694.675 4.14799 -3.31836 0
M  V30 7195 C 693.714 4.10948 -4.53639 0
M  V30 7196 N 692.851 5.31192 -4.59107 0
M  V30 7197 H 697.691 1.24786 -2.70615 0
M  V30 7198 H 695.228 0.605265 -1.34071 0
M  V30 7199 H 697.186 3.63755 -2.04299 0
M  V30 7200 H 695.816 3.04671 -1.06656 0
M  V30 7201 H 694.868 1.9885 -3.24288 0
M  V30 7202 H 696.18 2.79194 -4.13343 0
M  V30 7203 H 695.334 5.02867 -3.39425 0
M  V30 7204 H 694.073 4.24505 -2.40097 0
M  V30 7205 H 693.078 3.21268 -4.46169 0
M  V30 7206 H 694.303 4.0286 -5.467 0
M  V30 7207 H 692.249 5.41518 -3.70262 0
M  V30 7208 H 692.166 5.26311 -5.42708 0
M  V30 7209 H 693.434 6.21143 -4.70958 0
M  V30 7210 N 697.663 1.43903 0.642637 0
M  V30 7211 C 699.074 1.40975 1.22404 0
M  V30 7212 C 699.425 0.1192 1.95838 0
M  V30 7213 O 698.55 -0.780939 2.01818 0
M  V30 7214 C 699.145 2.5538 2.22636 0
M  V30 7215 C 697.704 2.55684 2.76229 0
M  V30 7216 C 696.851 2.32556 1.51039 0
M  V30 7217 H 699.802 1.5265 0.434006 0
M  V30 7218 H 699.823 2.27474 3.05017 0
M  V30 7219 H 699.335 3.49294 1.69161 0
M  V30 7220 H 697.436 1.65679 3.33738 0
M  V30 7221 H 697.549 3.53799 3.23053 0
M  V30 7222 H 695.913 1.81427 1.78764 0
M  V30 7223 H 696.696 3.28569 0.99484 0
M  V30 7224 N 699.141 -0.881989 1.30609 0
M  V30 7225 C 700.389 -1.63082 1.19368 0
M  V30 7226 C 700.71 -1.93376 -0.251147 0
M  V30 7227 O 699.98 -1.5723 -1.16857 0
M  V30 7228 H 698.56 -0.604542 0.438791 0
M  V30 7229 H 701.222 -1.05658 1.63776 0
M  V30 7230 H 700.318 -2.57966 1.7567 0
M  V30 7231 N 700.619 -1.13374 -1.09472 0
M  V30 7232 C 702.035 -0.871846 -1.33682 0
M  V30 7233 C 702.235 0.492847 -1.9538 0
M  V30 7234 O 701.291 1.23946 -2.19985 0
M  V30 7235 C 702.604 -1.99608 -2.24893 0
M  V30 7236 C 704.152 -2.02812 -2.38404 0
M  V30 7237 C 704.627 -3.14497 -3.3295 0
M  V30 7238 N 706.118 -3.14004 -3.40523 0
M  V30 7239 C 706.853 -3.97061 -4.13679 0
M  V30 7240 N 706.349 -4.90131 -4.89636 0
M  V30 7241 N 708.142 -3.85162 -4.09398 0
M  V30 7242 H 700.293 -2.01288 -0.677995 0
M  V30 7243 H 702.556 -0.876492 -0.361201 0
M  V30 7244 H 702.262 -2.98 -1.86786 0
M  V30 7245 H 702.136 -1.90981 -3.25278 0
M  V30 7246 H 704.523 -1.05034 -2.75775 0
M  V30 7247 H 704.604 -2.15511 -1.37799 0
M  V30 7248 H 704.248 -4.12514 -2.96302 0
M  V30 7249 H 704.178 -2.99035 -4.33458 0
M  V30 7250 H 706.669 -2.46587 -2.86362 0
M  V30 7251 H 706.982 -5.49996 -5.42885 0
M  V30 7252 H 705.327 -4.94138 -4.88726 0
M  V30 7253 H 708.518 -3.11779 -3.49158 0
M  V30 7254 H 708.691 -4.5012 -4.6615 0
M  V30 7255 N 702.098 1.27442 -0.927168 0
M  V30 7256 C 703.03 2.25975 -0.383158 0
M  V30 7257 C 704.043 1.55382 0.485832 0
M  V30 7258 O 705.232 1.75986 0.298541 0
M  V30 7259 C 702.332 3.35629 0.469688 0
M  V30 7260 C 701.505 4.35747 -0.379886 0
M  V30 7261 C 700.564 5.24598 0.410227 0
M  V30 7262 O 699.59 5.68909 -0.181888 0
M  V30 7263 N 700.792 5.54737 1.71017 0
M  V30 7264 H 703.557 2.7329 -1.23015 0
M  V30 7265 H 701.118 1.41063 -0.794539 0
M  V30 7266 H 703.11 3.92015 1.00532 0
M  V30 7267 H 701.68 2.87919 1.21744 0
M  V30 7268 H 700.9 3.78634 -1.09682 0
M  V30 7269 H 702.188 4.99648 -0.960717 0
M  V30 7270 H 701.586 5.20594 2.21356 0
M  V30 7271 H 700.143 6.13824 2.19234 0
M  V30 7272 N 703.576 0.692616 1.41565 0
M  V30 7273 C 704.823 0.222335 2.01276 0
M  V30 7274 C 705.151 -1.17706 1.5484 0
M  V30 7275 O 704.406 -1.80795 0.749118 0
M  V30 7276 C 704.705 0.225073 3.56691 0
M  V30 7277 C 704.371 1.57158 4.22625 0
M  V30 7278 C 703.033 1.94022 4.40351 0
M  V30 7279 C 705.385 2.45758 4.59622 0
M  V30 7280 C 702.713 3.19076 4.92349 0
M  V30 7281 C 705.065 3.70141 5.13009 0
M  V30 7282 C 703.729 4.07152 5.28946 0
M  V30 7283 H 702.999 0.0813581 0.73652 0
M  V30 7284 H 705.646 0.891123 1.69503 0
M  V30 7285 H 703.951 -0.527259 3.88236 0
M  V30 7286 H 705.648 -0.156283 4.00695 0
M  V30 7287 H 702.238 1.27486 4.09201 0
M  V30 7288 H 706.422 2.18558 4.45585 0
M  V30 7289 H 701.678 3.4775 5.02872 0
M  V30 7290 H 705.852 4.38983 5.40617 0
M  V30 7291 H 703.479 5.04125 5.69001 0
M  V30 7292 N 705.054 -1.51416 0.437162 0
M  V30 7293 C 706.282 -2.06503 -0.128045 0
M  V30 7294 C 706.697 -1.30461 -1.36475 0
M  V30 7295 O 706.054 -0.364127 -1.78831 0
M  V30 7296 C 706.105 -3.58683 -0.450437 0
M  V30 7297 O 705.826 -4.31853 0.737186 0
M  V30 7298 C 707.327 -4.30284 -1.06633 0
M  V30 7299 H 704.547 -0.670952 -0.00800269 0
M  V30 7300 H 707.091 -1.94996 0.616193 0
M  V30 7301 H 705.246 -3.70106 -1.14457 0
M  V30 7302 H 705.66 -5.22467 0.461347 0
M  V30 7303 H 707.134 -5.37848 -1.24191 0
M  V30 7304 H 707.611 -3.88564 -2.0473 0
M  V30 7305 H 708.217 -4.23304 -0.411585 0
M  V30 7306 N 706.532 -0.168513 -1.56696 0
M  V30 7307 C 707.943 0.348694 -1.83415 0
M  V30 7308 C 708.294 1.63257 -1.0882 0
M  V30 7309 O 707.419 2.13707 -0.340333 0
M  V30 7310 C 708.014 0.639423 -3.32711 0
M  V30 7311 C 706.573 1.10108 -3.59935 0
M  V30 7312 C 705.72 0.135464 -2.76969 0
M  V30 7313 H 708.671 -0.392829 -1.53761 0
M  V30 7314 H 708.692 1.49179 -3.50037 0
M  V30 7315 H 708.204 -0.295173 -3.86976 0
M  V30 7316 H 706.305 2.05088 -3.11079 0
M  V30 7317 H 706.418 1.01218 -4.68286 0
M  V30 7318 H 704.782 0.632286 -2.46727 0
M  V30 7319 H 705.565 -0.793104 -3.34013 0
M  V30 7320 N 708.01 1.57248 0.105221 0
M  V30 7321 C 709.24 1.89492 0.823175 0
M  V30 7322 C 709.648 0.75934 1.73294 0
M  V30 7323 O 708.991 -0.278182 1.81581 0
M  V30 7324 C 709.053 3.16891 1.69765 0
M  V30 7325 C 708.717 4.46787 0.960769 0
M  V30 7326 C 709.714 5.19061 0.295218 0
M  V30 7327 C 707.399 4.93467 0.937854 0
M  V30 7328 C 709.393 6.36246 -0.383393 0
M  V30 7329 C 707.08 6.10566 0.255452 0
M  V30 7330 C 708.078 6.81804 -0.404003 0
M  V30 7331 O 707.766 7.96673 -1.07549 0
M  V30 7332 H 707.498 0.631512 0.24118 0
M  V30 7333 H 710.052 2.05203 0.0899655 0
M  V30 7334 H 708.282 2.973 2.47285 0
M  V30 7335 H 709.971 3.35046 2.29126 0
M  V30 7336 H 710.737 4.84044 0.304448 0
M  V30 7337 H 706.616 4.37913 1.44058 0
M  V30 7338 H 710.16 6.91787 -0.898696 0
M  V30 7339 H 706.057 6.45039 0.244032 0
M  V30 7340 H 706.825 8.12596 -0.981355 0
M  V30 7341 N 709.488 -0.375779 1.53054 0
M  V30 7342 C 710.736 -1.11727 1.68409 0
M  V30 7343 C 711.057 -1.90127 0.43323 0
M  V30 7344 O 710.327 -1.87945 -0.552595 0
M  V30 7345 H 708.907 -0.415451 0.620813 0
M  V30 7346 H 711.569 -0.424869 1.90213 0
M  V30 7347 H 710.665 -1.8128 2.54055 0
M  V30 7348 N 710.966 -1.44241 -0.634997 0
M  V30 7349 C 712.214 -1.46531 -1.39187 0
M  V30 7350 C 712.535 -0.0976441 -1.94755 0
M  V30 7351 O 711.805 0.869528 -1.75545 0
M  V30 7352 H 710.385 -0.539544 -0.516625 0
M  V30 7353 H 713.047 -1.79989 -0.747655 0
M  V30 7354 H 712.143 -2.18848 -2.22513 0
M  V30 7355 N 712.444 0.87505 -1.31075 0
M  V30 7356 C 713.374 1.99775 -1.20881 0
M  V30 7357 C 714.355 1.69822 -0.0971612 0
M  V30 7358 O 715.54 1.92158 -0.280895 0
M  V30 7359 C 712.67 3.35163 -0.910118 0
M  V30 7360 C 711.624 3.79406 -1.98078 0
M  V30 7361 C 710.95 5.12197 -1.53488 0
M  V30 7362 C 712.25 3.97061 -3.39323 0
M  V30 7363 H 713.944 2.08562 -2.14808 0
M  V30 7364 H 711.49 1.00207 -1.03415 0
M  V30 7365 H 713.443 4.13237 -0.825423 0
M  V30 7366 H 712.167 3.26536 0.064822 0
M  V30 7367 H 710.826 3.03568 -2.05528 0
M  V30 7368 H 710.474 5.00007 -0.547941 0
M  V30 7369 H 710.174 5.4277 -2.2511 0
M  V30 7370 H 711.698 5.92785 -1.46417 0
M  V30 7371 H 713.112 4.65545 -3.34576 0
M  V30 7372 H 711.509 4.39025 -4.09118 0
M  V30 7373 H 712.579 3.00601 -3.80483 0
M  V30 7374 N 713.922 1.13953 1.08869 0
M  V30 7375 C 715.171 0.899431 1.80536 0
M  V30 7376 C 715.484 -0.575781 1.86933 0
M  V30 7377 O 716.69 -0.932988 2.54966 0
M  V30 7378 C 715.146 1.55963 3.24351 0
M  V30 7379 C 714.754 3.07077 3.26202 0
M  V30 7380 C 716.498 1.40046 4.00733 0
M  V30 7381 C 714.405 3.65955 4.64576 0
M  V30 7382 H 713.335 0.332849 0.676556 0
M  V30 7383 H 715.986 1.3679 1.22314 0
M  V30 7384 H 714.368 1.01883 3.82669 0
M  V30 7385 H 715.542 3.67785 2.77617 0
M  V30 7386 H 713.857 3.22576 2.63312 0
M  V30 7387 H 716.454 1.81441 5.02974 0
M  V30 7388 H 716.797 0.345993 4.1486 0
M  V30 7389 H 717.33 1.91137 3.48872 0
M  V30 7390 H 714.069 4.71234 4.55652 0
M  V30 7391 H 713.589 3.10027 5.13462 0
M  V30 7392 H 715.268 3.65968 5.33551 0
M  V30 7393 N 715.4 -1.26948 0.933913 0
M  V30 7394 C 716.646 -1.94716 0.587985 0
M  V30 7395 C 717.001 -1.71994 -0.862312 0
M  V30 7396 O 716.294 -1.04208 -1.60783 0
M  V30 7397 C 716.488 -3.46963 0.857406 0
M  V30 7398 C 716.317 -3.84489 2.33234 0
M  V30 7399 C 715.087 -4.07621 2.98618 0
M  V30 7400 C 717.285 -3.93602 3.31031 0
M  V30 7401 N 715.267 -4.31976 4.362 0
M  V30 7402 C 716.638 -4.22404 4.53845 0
M  V30 7403 C 718.693 -3.76201 3.26155 0
M  V30 7404 C 717.396 -4.35615 5.72391 0
M  V30 7405 C 719.422 -3.90641 4.4402 0
M  V30 7406 C 718.784 -4.19835 5.65613 0
M  V30 7407 H 714.883 -0.735586 0.2654 0
M  V30 7408 H 717.467 -1.53181 1.20182 0
M  V30 7409 H 715.638 -3.87442 0.27268 0
M  V30 7410 H 717.37 -4.01921 0.47348 0
M  V30 7411 H 714.125 -4.02696 2.49264 0
M  V30 7412 H 714.549 -4.48199 5.07392 0
M  V30 7413 H 719.191 -3.52665 2.3321 0
M  V30 7414 H 716.909 -4.57975 6.65796 0
M  V30 7415 H 720.495 -3.78589 4.41771 0
M  V30 7416 H 719.375 -4.30765 6.55295 0
M  V30 7417 N 716.879 -0.700114 -1.41195 0
M  V30 7418 C 718.156 -0.160836 -1.94938 0
M  V30 7419 C 718.536 1.33014 -1.63922 0
M  V30 7420 O 717.884 2.07878 -0.948636 0
M  V30 7421 C 718.094 -0.456991 -3.45995 0
M  V30 7422 C 719.442 -0.387207 -4.22831 0
M  V30 7423 O 720.466 -0.392164 -3.54035 0
M  V30 7424 O 719.325 -0.351267 -5.4537 0
M  V30 7425 H 716.419 -0.0176304 -0.826812 0
M  V30 7426 H 718.965 -0.776586 -1.50888 0
M  V30 7427 H 717.737 -1.48884 -3.61869 0
M  V30 7428 H 717.36 0.189503 -3.97148 0
M  V30 7429 N 718.357 1.51182 -0.445186 0
M  V30 7430 C 719.604 2.02152 0.118645 0
M  V30 7431 C 719.932 1.32888 1.42025 0
M  V30 7432 O 719.187 0.435041 1.90803 0
M  V30 7433 C 719.486 3.55408 0.376797 0
M  V30 7434 C 719.152 4.43008 -0.839945 0
M  V30 7435 C 717.814 4.66669 -1.17361 0
M  V30 7436 C 720.166 4.9435 -1.65127 0
M  V30 7437 C 717.494 5.38919 -2.31913 0
M  V30 7438 C 719.846 5.67857 -2.78786 0
M  V30 7439 C 718.51 5.89779 -3.12597 0
M  V30 7440 H 717.78 0.739727 0.0434152 0
M  V30 7441 H 720.427 1.82055 -0.593984 0
M  V30 7442 H 718.732 3.73879 1.1714 0
M  V30 7443 H 720.429 3.92388 0.826602 0
M  V30 7444 H 717.019 4.24793 -0.569958 0
M  V30 7445 H 721.203 4.75947 -1.4067 0
M  V30 7446 H 716.459 5.54105 -2.58413 0
M  V30 7447 H 720.633 6.06628 -3.42017 0
M  V30 7448 H 718.26 6.45542 -4.01471 0
M  V30 7449 N 719.835 0.176821 1.56605 0
M  V30 7450 C 720.798 -0.737429 2.17013 0
M  V30 7451 C 721.798 -1.15414 1.11965 0
M  V30 7452 O 722.988 -1.0702 1.37449 0
M  V30 7453 C 720.12 -2.00445 2.75744 0
M  V30 7454 H 721.313 -0.211455 2.99154 0
M  V30 7455 H 718.866 -0.0727582 1.56131 0
M  V30 7456 H 719.601 -2.57338 1.97352 0
M  V30 7457 H 719.386 -1.71456 3.52626 0
M  V30 7458 H 720.876 -2.65679 3.22187 0
M  V30 7459 N 721.313 -1.57302 -0.09688 0
M  V30 7460 C 722.729 -1.53094 -0.451041 0
M  V30 7461 C 722.929 -0.893265 -1.80618 0
M  V30 7462 O 721.985 -0.485013 -2.47798 0
M  V30 7463 C 723.298 -2.9782 -0.415172 0
M  V30 7464 C 724.846 -3.09026 -0.497155 0
M  V30 7465 C 725.321 -4.55356 -0.491452 0
M  V30 7466 N 726.812 -4.59896 -0.552258 0
M  V30 7467 C 727.547 -5.70563 -0.569654 0
M  V30 7468 N 727.043 -6.90666 -0.543365 0
M  V30 7469 N 728.836 -5.58733 -0.614331 0
M  V30 7470 H 720.987 -1.97131 0.790771 0
M  V30 7471 H 723.25 -0.901211 0.294147 0
M  V30 7472 H 722.956 -3.47933 0.513362 0
M  V30 7473 H 722.83 -3.56416 -1.23481 0
M  V30 7474 H 725.217 -2.58902 -1.41611 0
M  V30 7475 H 725.298 -2.53386 0.35059 0
M  V30 7476 H 724.942 -5.06131 0.423549 0
M  V30 7477 H 724.872 -5.08832 -1.35639 0
M  V30 7478 H 727.363 -3.73456 -0.577842 0
M  V30 7479 H 727.676 -7.70769 -0.559873 0
M  V30 7480 H 726.021 -6.93123 -0.510441 0
M  V30 7481 H 729.212 -4.63809 -0.632387 0
M  V30 7482 H 729.385 -6.44984 -0.62442 0
M  V30 7483 N 722.791 0.367657 -1.53252 0
M  V30 7484 C 724.068 1.12606 -1.59935 0
M  V30 7485 C 724.448 2.07167 -0.405606 0
M  V30 7486 O 723.796 2.20364 0.604323 0
M  V30 7487 C 724.006 1.86699 -2.94863 0
M  V30 7488 C 725.354 2.41306 -3.49366 0
M  V30 7489 O 726.378 1.96828 -2.96879 0
M  V30 7490 O 725.237 3.2261 -4.41118 0
M  V30 7491 H 722.331 0.516438 -0.645926 0
M  V30 7492 H 724.877 0.371088 -1.65593 0
M  V30 7493 H 723.649 1.17674 -3.73187 0
M  V30 7494 H 723.272 2.6911 -2.92687 0
M  V30 7495 N 724.269 1.44576 0.627338 0
M  V30 7496 C 725.515 1.4877 1.38705 0
M  V30 7497 C 725.87 0.119976 1.92026 0
M  V30 7498 O 725.163 -0.865341 1.70946 0
M  V30 7499 C 725.357 2.48644 2.56731 0
M  V30 7500 C 725.186 3.94994 2.14965 0
M  V30 7501 C 723.956 4.63139 2.02065 0
M  V30 7502 C 726.154 4.841 1.73643 0
M  V30 7503 N 724.136 5.94296 1.53902 0
M  V30 7504 C 725.507 6.0473 1.36753 0
M  V30 7505 C 727.562 4.71131 1.61058 0
M  V30 7506 C 726.265 7.13831 0.885353 0
M  V30 7507 C 728.291 5.8026 1.14244 0
M  V30 7508 C 727.653 7.00034 0.783067 0
M  V30 7509 H 723.752 0.599415 0.50222 0
M  V30 7510 H 726.336 1.80926 0.719285 0
M  V30 7511 H 724.507 2.18472 3.2113 0
M  V30 7512 H 726.239 2.4311 3.23542 0
M  V30 7513 H 722.994 4.18007 2.22637 0
M  V30 7514 H 723.418 6.63985 1.32108 0
M  V30 7515 H 728.06 3.78964 1.87473 0
M  V30 7516 H 725.778 8.05804 0.608716 0
M  V30 7517 H 729.364 5.72254 1.0496 0
M  V30 7518 H 728.244 7.8304 0.426381 0
M  V30 7519 N 725.747 -0.868086 1.31537 0
M  V30 7520 C 726.972 -1.65926 1.24432 0
M  V30 7521 C 727.397 -1.87169 -0.186936 0
M  V30 7522 O 726.755 -1.4148 -1.13371 0
M  V30 7523 C 726.803 -3.00347 1.9956 0
M  V30 7524 O 725.907 -3.90221 1.33422 0
M  V30 7525 H 725.248 -0.506375 0.429512 0
M  V30 7526 H 727.778 -1.0822 1.73637 0
M  V30 7527 H 727.788 -3.50269 2.09226 0
M  V30 7528 H 726.463 -2.84205 3.03645 0
M  V30 7529 H 725.04 -3.48672 1.32219 0
M  V30 7530 N 727.225 -1.14528 -1.08264 0
M  V30 7531 C 728.471 -0.925721 -1.81113 0
M  V30 7532 C 728.826 0.54185 -1.84612 0
M  V30 7533 O 728.119 1.39628 -1.31205 0
M  V30 7534 C 728.313 -1.46226 -3.26117 0
M  V30 7535 C 728.142 -2.98047 -3.36746 0
M  V30 7536 C 726.912 -3.66508 -3.4785 0
M  V30 7537 C 729.11 -3.95903 -3.28277 0
M  V30 7538 N 727.092 -5.06227 -3.47285 0
M  V30 7539 C 728.463 -5.21883 -3.34721 0
M  V30 7540 C 730.518 -3.88002 -3.12024 0
M  V30 7541 C 729.221 -6.40886 -3.26585 0
M  V30 7542 C 731.247 -5.06553 -3.05219 0
M  V30 7543 C 730.609 -6.31403 -3.12266 0
M  V30 7544 H 726.708 -0.392294 -0.676483 0
M  V30 7545 H 729.292 -1.45567 -1.293 0
M  V30 7546 H 727.463 -0.959076 -3.76373 0
M  V30 7547 H 729.195 -1.18247 -3.8704 0
M  V30 7548 H 725.95 -3.17067 -3.51804 0
M  V30 7549 H 726.374 -5.79172 -3.50555 0
M  V30 7550 H 731.016 -2.9235 -3.05436 0
M  V30 7551 H 728.734 -7.36781 -3.31934 0
M  V30 7552 H 732.32 -5.02191 -2.93761 0
M  V30 7553 H 731.2 -7.21596 -3.07032 0
M  V30 7554 N 728.703 1.26451 -0.940633 0
M  V30 7555 C 729.933 1.97581 -0.603766 0
M  V30 7556 C 730.341 1.70246 0.825395 0
M  V30 7557 O 729.684 0.967001 1.56188 0
M  V30 7558 C 729.746 3.51256 -0.765463 0
M  V30 7559 C 729.41 4.0224 -2.16915 0
M  V30 7560 C 730.407 4.1402 -3.14457 0
M  V30 7561 C 728.092 4.36263 -2.48958 0
M  V30 7562 C 730.086 4.59117 -4.42143 0
M  V30 7563 C 727.773 4.81048 -3.76877 0
M  V30 7564 C 728.771 4.92436 -4.73282 0
M  V30 7565 O 728.459 5.36234 -5.98923 0
M  V30 7566 H 728.191 0.636948 -0.226436 0
M  V30 7567 H 730.745 1.61941 -1.2635 0
M  V30 7568 H 728.975 3.86669 -0.0485956 0
M  V30 7569 H 730.664 4.03597 -0.431738 0
M  V30 7570 H 731.43 3.87981 -2.91026 0
M  V30 7571 H 727.309 4.26634 -1.74656 0
M  V30 7572 H 730.853 4.6792 -5.17394 0
M  V30 7573 H 726.75 5.06531 -4.00121 0
M  V30 7574 H 727.518 5.54456 -6.02097 0
M  V30 7575 N 730.181 0.707592 1.40822 0
M  V30 7576 C 731.427 0.244031 2.01326 0
M  V30 7577 C 731.76 -1.15722 1.55955 0
M  V30 7578 O 731.035 -1.78347 0.776044 0
M  V30 7579 C 731.318 0.315128 3.58718 0
M  V30 7580 C 731.171 1.75419 4.14184 0
M  V30 7581 C 732.49 -0.318251 4.38948 0
M  V30 7582 H 729.609 0.0901471 0.731466 0
M  V30 7583 H 732.251 0.898584 1.67408 0
M  V30 7584 H 730.401 -0.242176 3.87744 0
M  V30 7585 H 732.073 2.36626 3.95987 0
M  V30 7586 H 730.316 2.28449 3.68773 0
M  V30 7587 H 730.987 1.75538 5.23345 0
M  V30 7588 H 733.463 0.156514 4.15806 0
M  V30 7589 H 732.339 -0.238019 5.48384 0
M  V30 7590 H 732.6 -1.40067 4.19325 0
M  V30 7591 N 731.66 -1.50943 0.453197 0
M  V30 7592 C 732.885 -2.07116 -0.108463 0
M  V30 7593 C 733.31 -1.31681 -1.3432 0
M  V30 7594 O 732.668 -0.359256 -1.77705 0
M  V30 7595 C 732.716 -3.58447 -0.393424 0
M  V30 7596 O 731.82 -3.85038 -1.47714 0
M  V30 7597 H 731.161 -0.66398 0.0050993 0
M  V30 7598 H 733.691 -1.94362 0.639095 0
M  V30 7599 H 733.701 -4.02961 -0.639222 0
M  V30 7600 H 732.376 -4.12774 0.508946 0
M  V30 7601 H 730.953 -3.52376 -1.22006 0
M  V30 7602 N 733.138 -0.185124 -1.56509 0
M  V30 7603 C 734.368 0.461469 -2.0138 0
M  V30 7604 C 734.776 1.56417 -1.06445 0
M  V30 7605 O 734.119 1.83603 -0.0597515 0
M  V30 7606 C 734.181 1.08731 -3.42663 0
M  V30 7607 C 733.845 0.124581 -4.5683 0
M  V30 7608 C 734.842 -0.662295 -5.15664 0
M  V30 7609 C 732.527 0.0163947 -5.02297 0
M  V30 7610 C 734.521 -1.54442 -6.18406 0
M  V30 7611 C 732.208 -0.869301 -6.04885 0
M  V30 7612 C 733.206 -1.64828 -6.62813 0
M  V30 7613 O 732.894 -2.51915 -7.63409 0
M  V30 7614 H 732.626 0.1212 -0.665046 0
M  V30 7615 H 735.18 -0.288119 -2.03369 0
M  V30 7616 H 733.41 1.8853 -3.37629 0
M  V30 7617 H 735.099 1.63753 -3.71403 0
M  V30 7618 H 735.865 -0.588963 -4.81411 0
M  V30 7619 H 731.744 0.61253 -4.56913 0
M  V30 7620 H 735.288 -2.15289 -6.63548 0
M  V30 7621 H 731.185 -0.943786 -6.38563 0
M  V30 7622 H 731.953 -2.45584 -7.80789 0
M  V30 7623 N 734.616 1.57351 0.0885366 0
M  V30 7624 C 735.579 2.01557 1.09121 0
M  V30 7625 C 736.579 0.910052 1.3257 0
M  V30 7626 O 737.769 1.17537 1.28572 0
M  V30 7627 C 734.901 2.38189 2.43883 0
M  V30 7628 H 736.094 2.91361 0.710562 0
M  V30 7629 H 733.647 1.52694 0.333779 0
M  V30 7630 H 734.382 1.5136 2.86811 0
M  V30 7631 H 734.167 3.18846 2.28209 0
M  V30 7632 H 735.657 2.73025 3.15986 0
M  V30 7633 N 736.094 -0.359525 1.53444 0
M  V30 7634 C 737.004 -1.46445 1.83278 0
M  V30 7635 C 738.02 -1.5833 0.721629 0
M  V30 7636 O 739.196 -1.7411 1.01231 0
M  V30 7637 C 736.261 -2.81638 2.02191 0
M  V30 7638 C 735.322 -2.7923 3.26082 0
M  V30 7639 C 734.555 -4.07974 3.44082 0
M  V30 7640 O 734.778 -5.04447 2.66251 0
M  V30 7641 O 733.712 -4.13417 4.37458 0
M  V30 7642 H 737.538 -1.24156 2.77162 0
M  V30 7643 H 735.123 -0.550201 1.389 0
M  V30 7644 H 737.005 -3.61732 2.16167 0
M  V30 7645 H 735.68 -3.03892 1.11496 0
M  V30 7646 H 734.587 -1.97813 3.17523 0
M  V30 7647 H 735.92 -2.6193 4.16718 0
M  V30 7648 N 737.572 -1.44907 -0.619662 0
M  V30 7649 C 738.818 -1.48512 -1.38102 0
M  V30 7650 C 739.151 -0.121686 -1.93818 0
M  V30 7651 O 738.426 0.862256 -1.74343 0
M  V30 7652 C 738.709 -2.55469 -2.53787 0
M  V30 7653 C 738.562 -4.01212 -2.03345 0
M  V30 7654 C 739.881 -2.58821 -3.55949 0
M  V30 7655 H 737 -0.540712 -0.500799 0
M  V30 7656 H 739.642 -1.7665 -0.69962 0
M  V30 7657 H 737.792 -2.31606 -3.11915 0
M  V30 7658 H 739.464 -4.36245 -1.49959 0
M  V30 7659 H 737.707 -4.12443 -1.34438 0
M  V30 7660 H 738.378 -4.71717 -2.86683 0
M  V30 7661 H 740.854 -2.80172 -3.07641 0
M  V30 7662 H 739.73 -3.35542 -4.34399 0
M  V30 7663 H 739.991 -1.63451 -4.10775 0
M  V30 7664 N 739.05 0.861098 -1.31996 0
M  V30 7665 C 740.28 1.64501 -1.24992 0
M  V30 7666 C 740.688 1.88288 0.185576 0
M  V30 7667 O 740.031 1.44756 1.131 0
M  V30 7668 C 740.093 3.03098 -1.93319 0
M  V30 7669 C 739.757 3.02381 -3.42658 0
M  V30 7670 C 740.754 2.79696 -4.38254 0
M  V30 7671 C 738.439 3.23221 -3.84491 0
M  V30 7672 C 740.433 2.77843 -5.73657 0
M  V30 7673 C 738.12 3.20996 -5.20005 0
M  V30 7674 C 739.118 2.98335 -6.14398 0
M  V30 7675 O 738.806 2.95971 -7.47433 0
M  V30 7676 H 738.538 0.519309 -0.432775 0
M  V30 7677 H 741.092 1.08241 -1.74565 0
M  V30 7678 H 739.322 3.61121 -1.38306 0
M  V30 7679 H 741.011 3.63751 -1.8011 0
M  V30 7680 H 741.777 2.63368 -4.07262 0
M  V30 7681 H 737.656 3.39887 -3.11445 0
M  V30 7682 H 741.2 2.60074 -6.47308 0
M  V30 7683 H 737.097 3.36865 -5.50629 0
M  V30 7684 H 737.865 3.1197 -7.56714 0
M  V30 7685 N 740.528 1.15101 1.07655 0
M  V30 7686 C 741.46 0.802722 2.14684 0
M  V30 7687 C 742.473 -0.183874 1.61758 0
M  V30 7688 O 743.662 0.0389349 1.78458 0
M  V30 7689 C 740.762 0.172135 3.38463 0
M  V30 7690 C 739.935 1.19538 4.20749 0
M  V30 7691 C 738.994 0.58714 5.22914 0
M  V30 7692 O 738.02 1.25224 5.55255 0
M  V30 7693 N 739.222 -0.632566 5.77043 0
M  V30 7694 H 741.987 1.72379 2.45164 0
M  V30 7695 H 739.548 1.04647 1.23534 0
M  V30 7696 H 741.54 -0.247465 4.03943 0
M  V30 7697 H 740.11 -0.652214 3.0572 0
M  V30 7698 H 739.33 1.79165 3.51132 0
M  V30 7699 H 740.618 1.88636 4.7254 0
M  V30 7700 H 740.016 -1.19135 5.53013 0
M  V30 7701 H 738.573 -0.994566 6.44167 0
M  V30 7702 N 742.006 -1.2595 0.947325 0
M  V30 7703 C 743.417 -1.75389 0.639963 0
M  V30 7704 C 743.768 -1.77081 -0.844788 0
M  V30 7705 O 742.893 -1.3869 -1.66114 0
M  V30 7706 C 743.488 -3.18506 1.15496 0
M  V30 7707 C 742.047 -3.65534 0.897894 0
M  V30 7708 C 741.194 -2.44818 1.30228 0
M  V30 7709 H 744.145 -1.1194 1.12495 0
M  V30 7710 H 744.166 -3.77045 0.511627 0
M  V30 7711 H 743.678 -3.17243 2.23559 0
M  V30 7712 H 741.779 -3.72221 -0.168096 0
M  V30 7713 H 741.892 -4.54039 1.52922 0
M  V30 7714 H 740.256 -2.44291 0.720678 0
M  V30 7715 H 741.039 -2.46251 2.39198 0
M  V30 7716 N 743.484 -0.715051 -1.40445 0
M  V30 7717 C 744.416 -0.0227516 -2.29189 0
M  V30 7718 C 745.429 0.724313 -1.458 0
M  V30 7719 O 746.618 0.571781 -1.69094 0
M  V30 7720 C 743.718 0.992038 -3.24055 0
M  V30 7721 C 742.891 0.310613 -4.36296 0
M  V30 7722 C 741.95 1.23071 -5.11605 0
M  V30 7723 O 740.976 0.71571 -5.64682 0
M  V30 7724 N 742.178 2.56188 -5.2091 0
M  V30 7725 H 744.943 -0.78473 -2.89244 0
M  V30 7726 H 742.504 -0.562637 -1.51809 0
M  V30 7727 H 744.496 1.60973 -3.71308 0
M  V30 7728 H 743.066 1.65538 -2.65171 0
M  V30 7729 H 742.286 -0.487269 -3.91177 0
M  V30 7730 H 743.574 -0.162415 -5.08541 0
M  V30 7731 H 742.972 3.00527 -4.7927 0
M  V30 7732 H 741.529 3.13103 -5.71673 0
M  V30 7733 N 744.962 1.50701 -0.461195 0
M  V30 7734 C 745.925 2.2686 0.326679 0
M  V30 7735 C 746.925 1.31243 0.929085 0
M  V30 7736 O 748.115 1.54754 0.799807 0
M  V30 7737 C 745.247 3.07844 1.46441 0
M  V30 7738 H 746.44 2.97954 -0.341095 0
M  V30 7739 H 743.993 1.54814 -0.214984 0
M  V30 7740 H 744.728 2.41223 2.16753 0
M  V30 7741 H 744.513 3.78101 1.03836 0
M  V30 7742 H 746.003 3.65469 2.02044 0
M  V30 7743 N 746.441 0.193421 1.56409 0
M  V30 7744 C 747.718 -0.493318 1.89277 0
M  V30 7745 C 748.098 -1.79765 1.10669 0
M  V30 7746 O 747.446 -2.27558 0.207274 0
M  V30 7747 C 747.656 -0.713732 3.41624 0
M  V30 7748 C 749.004 -1.03385 4.11821 0
M  V30 7749 O 750.028 -0.801511 3.47065 0
M  V30 7750 O 748.887 -1.47327 5.26267 0
M  V30 7751 H 745.981 -0.256973 0.786062 0
M  V30 7752 H 748.527 0.23351 1.68086 0
M  V30 7753 H 747.299 0.207446 3.9075 0
M  V30 7754 H 746.922 -1.49308 3.68501 0
M  V30 7755 N 747.919 -1.57396 -0.0801906 0
M  V30 7756 C 749.335 -1.53564 -0.434778 0
M  V30 7757 C 749.535 -0.912372 -1.79661 0
M  V30 7758 O 748.591 -0.511268 -2.4727 0
M  V30 7759 C 749.904 -2.98244 -0.383561 0
M  V30 7760 C 751.452 -3.09536 -0.46435 0
M  V30 7761 C 751.927 -4.55851 -0.443128 0
M  V30 7762 N 753.418 -4.60456 -0.503448 0
M  V30 7763 C 754.153 -5.71135 -0.509106 0
M  V30 7764 N 753.649 -6.91203 -0.47008 0
M  V30 7765 N 755.442 -5.59353 -0.555035 0
M  V30 7766 H 747.593 -1.96281 0.811635 0
M  V30 7767 H 749.856 -0.898041 0.303689 0
M  V30 7768 H 749.562 -3.47369 0.550236 0
M  V30 7769 H 749.436 -3.57705 -1.19694 0
M  V30 7770 H 751.823 -2.6039 -1.38857 0
M  V30 7771 H 751.904 -2.53 0.377445 0
M  V30 7772 H 751.548 -5.05653 0.477207 0
M  V30 7773 H 751.478 -5.10242 -1.30234 0
M  V30 7774 H 753.969 -3.74048 -0.538199 0
M  V30 7775 H 754.282 -7.7132 -0.478091 0
M  V30 7776 H 752.627 -6.93625 -0.436897 0
M  V30 7777 H 755.818 -4.64453 -0.583158 0
M  V30 7778 H 755.991 -6.4561 -0.555976 0
M  V30 7779 N 749.397 0.351382 -1.53633 0
M  V30 7780 C 750.329 1.45159 -1.77374 0
M  V30 7781 C 751.342 1.4905 -0.654826 0
M  V30 7782 O 752.531 1.52274 -0.931396 0
M  V30 7783 C 749.631 2.83858 -1.85143 0
M  V30 7784 C 748.804 3.03498 -3.14972 0
M  V30 7785 C 747.863 4.22393 -3.138 0
M  V30 7786 O 746.889 4.16885 -3.87551 0
M  V30 7787 N 748.091 5.30533 -2.35617 0
M  V30 7788 H 750.856 1.25167 -2.72311 0
M  V30 7789 H 748.417 0.54121 -1.52586 0
M  V30 7790 H 750.409 3.61557 -1.8182 0
M  V30 7791 H 748.979 2.9703 -0.974275 0
M  V30 7792 H 748.199 2.13336 -3.31484 0
M  V30 7793 H 749.487 3.13498 -4.00745 0
M  V30 7794 H 748.885 5.37875 -1.75235 0
M  V30 7795 H 747.442 6.06756 -2.38098 0
M  V30 7796 N 750.875 1.45233 0.611969 0
M  V30 7797 C 752.103 1.52539 1.39784 0
M  V30 7798 C 752.518 0.156533 1.8815 0
M  V30 7799 O 751.875 -0.84112 1.61961 0
M  V30 7800 C 751.926 2.50614 2.60528 0
M  V30 7801 O 751.647 3.8218 2.14173 0
M  V30 7802 C 753.148 2.67574 3.53439 0
M  V30 7803 H 750.368 0.51674 0.428043 0
M  V30 7804 H 752.912 1.90379 0.746727 0
M  V30 7805 H 751.067 2.15858 3.2169 0
M  V30 7806 H 751.481 4.35305 2.92592 0
M  V30 7807 H 752.955 3.40184 4.34717 0
M  V30 7808 H 753.432 1.73458 4.03496 0
M  V30 7809 H 754.038 3.0331 2.98133 0
M  V30 7810 N 752.353 -0.854086 1.3245 0
M  V30 7811 C 753.599 -1.6105 1.24235 0
M  V30 7812 C 753.954 -1.91421 -0.193877 0
M  V30 7813 O 753.247 -1.54599 -1.1318 0
M  V30 7814 C 753.441 -2.93746 2.03587 0
M  V30 7815 C 753.27 -2.76335 3.54781 0
M  V30 7816 C 752.04 -2.74687 4.24117 0
M  V30 7817 C 754.238 -2.50052 4.4942 0
M  V30 7818 N 752.22 -2.48493 5.6136 0
M  V30 7819 C 753.591 -2.33269 5.74444 0
M  V30 7820 C 755.646 -2.35525 4.38671 0
M  V30 7821 C 754.349 -2.03434 6.89933 0
M  V30 7822 C 756.375 -2.07081 5.5396 0
M  V30 7823 C 755.737 -1.91098 6.77983 0
M  V30 7824 H 751.836 -0.593008 0.50977 0
M  V30 7825 H 754.42 -1.00392 1.66822 0
M  V30 7826 H 752.591 -3.52382 1.63345 0
M  V30 7827 H 754.323 -3.58768 1.87263 0
M  V30 7828 H 751.078 -2.87647 3.7624 0
M  V30 7829 H 751.502 -2.38322 6.33665 0
M  V30 7830 H 756.144 -2.46602 3.43435 0
M  V30 7831 H 753.862 -1.91095 7.85181 0
M  V30 7832 H 757.448 -1.96618 5.4757 0
M  V30 7833 H 756.328 -1.69402 7.65684 0
M  V30 7834 N 753.831 -1.1567 -1.07043 0
M  V30 7835 C 754.779 -0.852204 -2.16426 0
M  V30 7836 C 755.773 0.175661 -1.68487 0
M  V30 7837 O 756.979 0.0303874 -1.79974 0
M  V30 7838 H 753.354 -0.257942 -0.706378 0
M  V30 7839 H 755.325 -1.78231 -2.39324 0
M  V30 7840 C 754.074 -0.361362 -3.45817 0
M  V30 7841 H 753.397 -1.14369 -3.83092 0
M  V30 7842 H 754.837 -0.186997 -4.23587 0
M  V30 7843 C 753.296 0.917703 -3.2416 0
M  V30 7844 O 753.826 1.98858 -3.49025 0
M  V30 7845 N 752.032 0.858456 -2.77631 0
M  V30 7846 H 751.579 -0.0131821 -2.57597 0
M  V30 7847 H 751.537 1.71478 -2.6352 0
M  V30 7848 N 755.309 1.25446 -0.953992 0
M  V30 7849 C 756.534 1.97755 -0.625129 0
M  V30 7850 C 756.959 1.70437 0.795787 0
M  V30 7851 O 756.317 0.95992 1.53803 0
M  V30 7852 C 756.365 3.49463 -0.889251 0
M  V30 7853 O 755.469 4.12387 0.0322757 0
M  V30 7854 H 754.81 0.61998 -0.237742 0
M  V30 7855 H 757.34 1.59582 -1.28041 0
M  V30 7856 H 757.35 3.99772 -0.815263 0
M  V30 7857 H 756.025 3.68676 -1.92487 0
M  V30 7858 H 754.602 3.72782 -0.0938625 0
M  V30 7859 N 756.787 0.722489 1.40064 0
M  V30 7860 C 757.697 0.0755984 2.34478 0
M  V30 7861 C 758.713 -0.736046 1.57665 0
M  V30 7862 O 759.889 -0.667407 1.9002 0
M  V30 7863 C 756.954 -0.830075 3.36616 0
M  V30 7864 C 756.015 -0.00759884 4.29299 0
M  V30 7865 C 755.248 -0.870139 5.26559 0
M  V30 7866 O 755.471 -2.10921 5.2997 0
M  V30 7867 O 754.405 -0.305454 6.01124 0
M  V30 7868 H 758.231 0.854545 2.9143 0
M  V30 7869 H 755.816 0.483032 1.41376 0
M  V30 7870 H 757.698 -1.34864 3.99236 0
M  V30 7871 H 756.373 -1.58805 2.82069 0
M  V30 7872 H 755.28 0.556199 3.69942 0
M  V30 7873 H 756.613 0.712312 4.87018 0
M  V30 7874 N 758.265 -1.50454 0.469181 0
M  V30 7875 C 759.676 -1.86695 0.0136034 0
M  V30 7876 C 760.027 -1.38413 -1.39055 0
M  V30 7877 O 759.152 -0.748294 -2.03051 0
M  V30 7878 C 759.747 -3.38795 0.0179098 0
M  V30 7879 C 758.306 -3.74455 -0.382191 0
M  V30 7880 C 757.453 -2.74338 0.404207 0
M  V30 7881 H 760.404 -1.43225 0.683547 0
M  V30 7882 H 760.425 -3.72321 -0.78468 0
M  V30 7883 H 759.937 -3.73906 1.04 0
M  V30 7884 H 758.038 -3.44944 -1.4087 0
M  V30 7885 H 758.151 -4.79025 -0.084862 0
M  V30 7886 H 756.515 -2.54305 -0.141829 0
M  V30 7887 H 757.298 -3.12293 1.42577 0
M  V30 7888 N 759.743 -0.201713 -1.56304 0
M  V30 7889 C 760.673 0.71155 -2.22394 0
M  V30 7890 C 761.654 1.21625 -1.18917 0
M  V30 7891 O 762.839 1.26388 -1.47444 0
M  V30 7892 C 759.969 1.92837 -2.88845 0
M  V30 7893 C 758.923 1.55831 -3.98623 0
M  V30 7894 C 758.249 2.85228 -4.52271 0
M  V30 7895 C 759.549 0.763249 -5.16693 0
M  V30 7896 H 761.243 0.160573 -2.98969 0
M  V30 7897 H 758.789 0.0757916 -1.438 0
M  V30 7898 H 760.742 2.57253 -3.33764 0
M  V30 7899 H 759.466 2.50398 -2.09686 0
M  V30 7900 H 758.125 0.9377 -3.54405 0
M  V30 7901 H 757.773 3.40893 -3.69866 0
M  V30 7902 H 757.473 2.6121 -5.26349 0
M  V30 7903 H 758.997 3.50622 -4.99897 0
M  V30 7904 H 760.411 1.31066 -5.58117 0
M  V30 7905 H 758.808 0.620935 -5.96879 0
M  V30 7906 H 759.878 -0.234322 -4.84334 0
M  V30 7907 N 761.222 1.57436 0.0718424 0
M  V30 7908 C 762.447 1.91858 0.787745 0
M  V30 7909 C 762.872 0.798119 1.70328 0
M  V30 7910 O 762.23 -0.24905 1.79581 0
M  V30 7911 C 762.278 3.25232 1.55744 0
M  V30 7912 O 761.382 3.14462 2.6681 0
M  V30 7913 H 760.723 0.628258 0.214914 0
M  V30 7914 H 763.253 2.04561 0.0401012 0
M  V30 7915 H 763.263 3.59105 1.9367 0
M  V30 7916 H 761.938 4.0636 0.885691 0
M  V30 7917 H 760.515 2.92148 2.31741 0
M  V30 7918 N 762.7 -0.34323 1.53817 0
M  V30 7919 C 764.111 -0.918823 1.62525 0
M  V30 7920 C 764.462 -1.89542 0.506765 0
M  V30 7921 O 763.587 -2.13326 -0.363441 0
M  V30 7922 C 764.182 -1.67326 2.94597 0
M  V30 7923 C 762.741 -2.19786 3.05567 0
M  V30 7924 C 761.888 -1.01708 2.57974 0
M  V30 7925 H 764.839 -0.121358 1.58235 0
M  V30 7926 H 764.86 -2.53615 2.83654 0
M  V30 7927 H 764.372 -0.962223 3.75983 0
M  V30 7928 H 762.473 -2.94065 2.28816 0
M  V30 7929 H 762.586 -2.46135 4.1104 0
M  V30 7930 H 760.95 -1.39058 2.13389 0
M  V30 7931 H 761.733 -0.320671 3.41799 0
M  V30 7932 N 764.178 -1.45556 -0.604258 0
M  V30 7933 C 765.424 -1.49968 -1.36519 0
M  V30 7934 C 765.757 -0.142236 -1.93678 0
M  V30 7935 O 765.032 0.843717 -1.75247 0
M  V30 7936 C 765.315 -2.58146 -2.51063 0
M  V30 7937 C 765.168 -4.03346 -1.99078 0
M  V30 7938 C 766.487 -2.62581 -3.53184 0
M  V30 7939 H 763.606 -0.545993 -0.495036 0
M  V30 7940 H 766.248 -1.77382 -0.680845 0
M  V30 7941 H 764.398 -2.34901 -3.09441 0
M  V30 7942 H 766.07 -4.37811 -1.45323 0
M  V30 7943 H 764.313 -4.13845 -1.30055 0
M  V30 7944 H 764.984 -4.74731 -2.81664 0
M  V30 7945 H 767.46 -2.83419 -3.04652 0
M  V30 7946 H 766.336 -3.40131 -4.30816 0
M  V30 7947 H 766.597 -1.67798 -4.09019 0
M  V30 7948 N 765.656 0.84705 -1.32902 0
M  V30 7949 C 766.566 1.98845 -1.2449 0
M  V30 7950 C 767.582 1.7329 -0.15702 0
M  V30 7951 O 768.758 1.978 -0.379104 0
M  V30 7952 C 765.823 3.32679 -0.975985 0
M  V30 7953 C 764.884 3.71405 -2.15306 0
M  V30 7954 C 764.117 4.98853 -1.89688 0
M  V30 7955 O 764.34 5.64134 -0.843168 0
M  V30 7956 O 763.274 5.34889 -2.76002 0
M  V30 7957 H 767.1 2.0888 -2.2046 0
M  V30 7958 H 764.685 0.978852 -1.12867 0
M  V30 7959 H 766.567 4.12885 -0.842826 0
M  V30 7960 H 765.242 3.23667 -0.0464954 0
M  V30 7961 H 764.149 2.91743 -2.34172 0
M  V30 7962 H 765.482 3.85073 -3.06561 0
M  V30 7963 N 767.134 1.16236 1.06428 0
M  V30 7964 C 768.382 0.941171 1.78847 0
M  V30 7965 C 768.703 -0.53248 1.87589 0
M  V30 7966 O 767.973 -1.38686 1.38358 0
M  V30 7967 H 766.553 0.345228 0.66244 0
M  V30 7968 H 769.215 1.46479 1.28569 0
M  V30 7969 H 768.311 1.35871 2.80972 0
M  V30 7970 N 768.612 -1.24939 0.960631 0
M  V30 7971 C 769.559 -2.25658 0.484459 0
M  V30 7972 C 770.529 -1.59422 -0.466242 0
M  V30 7973 O 771.714 -1.87015 -0.378169 0
M  V30 7974 C 768.854 -3.44359 -0.225958 0
M  V30 7975 C 767.967 -4.25214 0.762682 0
M  V30 7976 C 767.102 -5.31192 0.0290931 0
M  V30 7977 C 766.141 -6.03739 1.00827 0
M  V30 7978 N 765.278 -7.01437 0.305155 0
M  V30 7979 H 770.118 -2.65758 1.34821 0
M  V30 7980 H 767.655 -1.30648 0.675983 0
M  V30 7981 H 769.613 -4.12035 -0.654472 0
M  V30 7982 H 768.243 -3.05118 -1.05371 0
M  V30 7983 H 767.295 -3.57144 1.30966 0
M  V30 7984 H 768.607 -4.75406 1.50964 0
M  V30 7985 H 767.761 -6.04971 -0.457763 0
M  V30 7986 H 766.5 -4.81889 -0.750614 0
M  V30 7987 H 765.505 -5.2877 1.50607 0
M  V30 7988 H 766.73 -6.55131 1.7883 0
M  V30 7989 H 764.676 -6.54415 -0.455704 0
M  V30 7990 H 764.593 -7.49475 0.991104 0
M  V30 7991 H 765.861 -7.79336 -0.159966 0
M  V30 7992 N 770.09 -0.729906 -1.39679 0
M  V30 7993 C 771.318 -0.285709 -2.04918 0
M  V30 7994 C 771.733 1.07765 -1.55023 0
M  V30 7995 O 771.09 1.67999 -0.712923 0
M  V30 7996 C 771.141 -0.272793 -3.60469 0
M  V30 7997 O 770.862 -1.58233 -4.08527 0
M  V30 7998 C 772.363 0.188199 -4.429 0
M  V30 7999 H 769.583 -0.125758 -0.65911 0
M  V30 8000 H 772.127 -0.992129 -1.78821 0
M  V30 8001 H 770.282 0.384699 -3.85485 0
M  V30 8002 H 770.696 -1.49245 -5.02818 0
M  V30 8003 H 772.17 0.14608 -5.51807 0
M  V30 8004 H 772.647 1.2326 -4.21549 0
M  V30 8005 H 773.253 -0.439541 -4.23023 0
M  V30 8006 N 771.568 1.50203 -0.477153 0
M  V30 8007 C 772.798 2.0647 0.0731427 0
M  V30 8008 C 773.206 1.3405 1.33518 0
M  V30 8009 O 772.549 0.405164 1.79176 0
M  V30 8010 C 772.611 3.57025 0.421121 0
M  V30 8011 C 772.275 4.50973 -0.739765 0
M  V30 8012 C 773.272 4.939 -1.62353 0
M  V30 8013 C 770.957 4.93581 -0.93181 0
M  V30 8014 C 772.951 5.78149 -2.6837 0
M  V30 8015 C 770.638 5.77612 -1.99519 0
M  V30 8016 C 771.636 6.19798 -2.86949 0
M  V30 8017 O 771.324 7.02152 -3.91456 0
M  V30 8018 H 771.056 0.675969 -0.00648243 0
M  V30 8019 H 773.61 1.94278 -0.66673 0
M  V30 8020 H 771.84 3.67141 1.21426 0
M  V30 8021 H 773.529 3.95632 0.907213 0
M  V30 8022 H 774.295 4.61646 -1.48687 0
M  V30 8023 H 770.174 4.60262 -0.260739 0
M  V30 8024 H 773.718 6.10997 -3.36643 0
M  V30 8025 H 769.615 6.09279 -2.13189 0
M  V30 8026 H 770.383 7.20414 -3.88518 0
M  V30 8027 N 773.046 0.209999 1.56195 0
M  V30 8028 C 773.956 -0.716459 2.23392 0
M  V30 8029 C 774.972 -1.22291 1.23778 0
M  V30 8030 O 776.148 -1.26694 1.56558 0
M  V30 8031 C 773.213 -1.91261 2.89172 0
M  V30 8032 C 772.274 -1.44927 4.04097 0
M  V30 8033 C 771.507 -2.5884 4.66731 0
M  V30 8034 O 771.73 -3.76693 4.2832 0
M  V30 8035 O 770.664 -2.30701 5.55932 0
M  V30 8036 H 774.49 -0.174089 3.03201 0
M  V30 8037 H 772.075 -0.0199505 1.49387 0
M  V30 8038 H 773.957 -2.6114 3.30733 0
M  V30 8039 H 772.632 -2.4433 2.12331 0
M  V30 8040 H 771.539 -0.718839 3.67129 0
M  V30 8041 H 772.872 -0.965084 4.82646 0
M  V30 8042 N 774.524 -1.57472 -0.0634922 0
M  V30 8043 C 775.752 -1.91887 -0.773767 0
M  V30 8044 C 776.167 -0.806733 -1.70696 0
M  V30 8045 O 775.524 0.219383 -1.81177 0
M  V30 8046 C 775.575 -3.26092 -1.56034 0
M  V30 8047 O 775.296 -4.33029 -0.66464 0
M  V30 8048 C 776.797 -3.74573 -2.37087 0
M  V30 8049 H 774.017 -0.634074 -0.219525 0
M  V30 8050 H 776.561 -2.04476 -0.0312828 0
M  V30 8051 H 774.716 -3.15004 -2.25502 0
M  V30 8052 H 775.13 -5.10291 -1.21258 0
M  V30 8053 H 776.604 -4.71084 -2.87722 0
M  V30 8054 H 777.081 -3.04003 -3.16984 0
M  V30 8055 H 777.687 -3.88631 -1.72759 0
M  V30 8056 N 776.003 0.335068 -1.53997 0
M  V30 8057 C 777.251 1.07223 -1.71312 0
M  V30 8058 C 777.572 1.88911 -0.483486 0
M  V30 8059 O 776.842 1.89344 0.50257 0
M  V30 8060 H 775.422 0.398846 -0.63161 0
M  V30 8061 H 778.084 0.374288 -1.91272 0
M  V30 8062 H 777.18 1.7448 -2.58772 0
M  V30 8063 N 777.481 1.45874 0.596531 0
M  V30 8064 C 778.73 1.49737 1.35135 0
M  V30 8065 C 779.043 0.147755 1.95041 0
M  V30 8066 O 780.249 0.0640984 2.71424 0
M  V30 8067 C 778.705 2.6378 2.44843 0
M  V30 8068 C 778.313 4.05102 1.91301 0
M  V30 8069 C 780.057 2.769 3.21755 0
M  V30 8070 C 777.964 5.10508 2.98557 0
M  V30 8071 H 776.894 0.557219 0.507959 0
M  V30 8072 H 779.545 1.72046 0.638147 0
M  V30 8073 H 777.927 2.34774 3.189 0
M  V30 8074 H 779.101 4.43836 1.2388 0
M  V30 8075 H 777.416 3.96528 1.271 0
M  V30 8076 H 780.013 3.52819 4.01775 0
M  V30 8077 H 780.356 1.83924 3.73467 0
M  V30 8078 H 780.889 3.05485 2.54802 0
M  V30 8079 H 777.628 6.0523 2.51749 0
M  V30 8080 H 777.148 4.76332 3.6451 0
M  V30 8081 H 778.827 5.35745 3.62748 0
M  V30 8082 N 778.959 -0.83999 1.33349 0
M  V30 8083 C 779.906 -1.94972 1.23509 0
M  V30 8084 C 780.876 -1.65709 0.113967 0
M  V30 8085 O 782.061 -1.88552 0.292045 0
M  V30 8086 C 779.201 -3.30919 0.979105 0
M  V30 8087 C 778.314 -3.72587 2.18639 0
M  V30 8088 C 777.449 -4.97397 1.86465 0
M  V30 8089 C 776.488 -5.31597 3.03432 0
M  V30 8090 N 775.625 -6.47584 2.71254 0
M  V30 8091 H 780.465 -2.0272 2.18423 0
M  V30 8092 H 778.002 -0.992017 1.08616 0
M  V30 8093 H 779.96 -4.09239 0.811126 0
M  V30 8094 H 778.59 -3.22731 0.0667099 0
M  V30 8095 H 777.642 -2.89799 2.46416 0
M  V30 8096 H 778.954 -3.93844 3.06086 0
M  V30 8097 H 778.108 -5.83462 1.66305 0
M  V30 8098 H 776.847 -4.78107 0.96254 0
M  V30 8099 H 775.852 -4.44037 3.24208 0
M  V30 8100 H 777.077 -5.52836 3.94397 0
M  V30 8101 H 775.023 -6.29783 1.836 0
M  V30 8102 H 774.94 -6.68931 3.52231 0
M  V30 8103 H 776.208 -7.36764 2.54558 0
M  V30 8104 N 780.437 -1.16799 -1.0581 0
M  V30 8105 C 781.685 -0.950642 -1.78346 0
M  V30 8106 C 782.006 0.522524 -1.87869 0
M  V30 8107 O 781.276 1.3795 -1.39092 0
M  V30 8108 H 779.856 -0.348736 -0.6606 0
M  V30 8109 H 782.518 -1.47158 -1.27791 0
M  V30 8110 H 781.614 -1.37359 -2.80248 0
M  V30 8111 N 781.915 1.24427 -0.967243 0
M  V30 8112 C 782.825 2.29109 -0.504592 0
M  V30 8113 C 783.841 1.68495 0.434224 0
M  V30 8114 O 785.017 1.99041 0.307379 0
M  V30 8115 C 782.082 3.46133 0.198273 0
M  V30 8116 C 781.143 4.22149 -0.780313 0
M  V30 8117 C 780.376 5.33585 -0.110896 0
M  V30 8118 O 780.599 5.59676 1.10088 0
M  V30 8119 O 779.533 5.96522 -0.802823 0
M  V30 8120 H 783.359 2.708 -1.37482 0
M  V30 8121 H 780.944 1.30111 -0.73426 0
M  V30 8122 H 782.826 4.17205 0.593124 0
M  V30 8123 H 781.501 3.0642 1.04347 0
M  V30 8124 H 780.408 3.53454 -1.22561 0
M  V30 8125 H 781.741 4.65677 -1.59392 0
M  V30 8126 N 783.393 0.737304 1.3929 0
M  V30 8127 C 784.323 0.113988 2.33222 0
M  V30 8128 C 785.304 -0.721695 1.54031 0
M  V30 8129 O 786.489 -0.666206 1.82415 0
M  V30 8130 C 783.619 -0.792319 3.38141 0
M  V30 8131 C 782.573 -0.0606178 4.27957 0
M  V30 8132 C 781.899 -1.08409 5.23595 0
M  V30 8133 C 783.199 1.09817 5.10625 0
M  V30 8134 H 784.893 0.898611 2.85596 0
M  V30 8135 H 782.439 0.433571 1.37318 0
M  V30 8136 H 784.392 -1.23793 4.02807 0
M  V30 8137 H 783.116 -1.60908 2.84211 0
M  V30 8138 H 781.775 0.365393 3.64775 0
M  V30 8139 H 781.423 -1.89449 4.6596 0
M  V30 8140 H 781.123 -0.599269 5.84536 0
M  V30 8141 H 782.647 -1.52936 5.91137 0
M  V30 8142 H 784.061 0.730892 5.68622 0
M  V30 8143 H 782.458 1.51278 5.80719 0
M  V30 8144 H 783.528 1.91878 4.45321 0
M  V30 8145 N 784.871 -1.49948 0.485112 0
M  V30 8146 C 785.834 -2.27351 -0.290546 0
M  V30 8147 C 786.834 -1.32704 -0.908087 0
M  V30 8148 O 788.024 -1.56007 -0.775085 0
M  V30 8149 C 785.156 -3.10135 -1.41524 0
M  V30 8150 H 786.349 -2.97374 0.388454 0
M  V30 8151 H 783.902 -1.54453 0.239586 0
M  V30 8152 H 784.637 -2.44641 -2.12888 0
M  V30 8153 H 784.422 -3.79705 -0.978074 0
M  V30 8154 H 785.912 -3.68638 -1.96204 0
M  V30 8155 N 786.349 -0.21828 -1.56081 0
M  V30 8156 C 787.626 0.463143 -1.90038 0
M  V30 8157 C 788.006 1.77982 -1.13515 0
M  V30 8158 O 787.354 2.27199 -0.24345 0
M  V30 8159 C 787.564 0.659292 -3.42716 0
M  V30 8160 C 788.912 0.968203 -4.13414 0
M  V30 8161 O 789.936 0.746195 -3.48296 0
M  V30 8162 O 788.795 1.38936 -5.28544 0
M  V30 8163 H 785.889 0.244435 -0.790051 0
M  V30 8164 H 788.435 -0.260221 -1.67693 0
M  V30 8165 H 787.207 -0.269584 -3.9037 0
M  V30 8166 H 786.83 1.43426 -3.7083 0
M  V30 8167 N 787.827 1.57504 0.0551401 0
M  V30 8168 C 789.075 1.87684 0.74962 0
M  V30 8169 C 789.396 0.812547 1.77264 0
M  V30 8170 O 788.666 -0.15694 1.9527 0
M  V30 8171 H 787.246 0.6926 0.279846 0
M  V30 8172 H 789.908 1.94881 0.0272745 0
M  V30 8173 H 789.004 2.85734 1.25548 0
M  V30 8174 N 789.305 -0.326896 1.54172 0
M  V30 8175 C 790.721 -0.671034 1.44808 0
M  V30 8176 C 790.921 -1.91781 0.618258 0
M  V30 8177 O 789.977 -2.52235 0.115751 0
M  V30 8178 C 791.29 -0.848147 2.88491 0
M  V30 8179 C 792.838 -0.945702 2.98371 0
M  V30 8180 C 793.313 -1.15501 4.43197 0
M  V30 8181 N 794.804 -1.22183 4.46795 0
M  V30 8182 C 795.539 -1.4016 5.56006 0
M  V30 8183 N 795.035 -1.55202 6.75192 0
M  V30 8184 N 796.828 -1.42841 5.43648 0
M  V30 8185 H 788.979 0.49262 2.06608 0
M  V30 8186 H 791.242 0.158574 0.934643 0
M  V30 8187 H 790.948 -0.00329969 3.517 0
M  V30 8188 H 790.822 -1.74497 3.34411 0
M  V30 8189 H 793.209 -1.78106 2.35292 0
M  V30 8190 H 793.29 -0.0254215 2.55787 0
M  V30 8191 H 792.934 -0.324521 5.06862 0
M  V30 8192 H 792.864 -2.08911 4.83388 0
M  V30 8193 H 795.355 -1.12016 3.60917 0
M  V30 8194 H 795.668 -1.68601 7.54184 0
M  V30 8195 H 794.013 -1.52306 6.78106 0
M  V30 8196 H 797.204 -1.30683 4.49488 0
M  V30 8197 H 797.377 -1.56509 6.28816 0
M  V30 8198 N 790.784 -1.46188 -0.588786 0
M  V30 8199 C 791.714 -1.59148 -1.70863 0
M  V30 8200 C 792.695 -0.442083 -1.64255 0
M  V30 8201 O 793.88 -0.667575 -1.82365 0
M  V30 8202 C 791.01 -1.5757 -3.09498 0
M  V30 8203 C 789.964 -2.71418 -3.30932 0
M  V30 8204 C 789.29 -2.549 -4.70032 0
M  V30 8205 C 790.59 -4.1329 -3.19356 0
M  V30 8206 H 792.284 -2.52889 -1.60274 0
M  V30 8207 H 789.83 -1.21707 -0.769638 0
M  V30 8208 H 791.783 -1.65231 -3.87655 0
M  V30 8209 H 790.507 -0.603705 -3.20972 0
M  V30 8210 H 789.166 -2.63216 -2.55172 0
M  V30 8211 H 788.814 -1.55797 -4.78264 0
M  V30 8212 H 788.514 -3.31257 -4.85327 0
M  V30 8213 H 790.038 -2.64443 -5.50366 0
M  V30 8214 H 791.452 -4.22636 -3.87365 0
M  V30 8215 H 789.849 -4.90187 -3.46175 0
M  V30 8216 H 790.919 -4.33874 -2.16522 0
M  V30 8217 N 792.262 0.832906 -1.33792 0
M  V30 8218 C 793.21 1.96455 -1.24532 0
M  V30 8219 C 794.204 1.68774 -0.145455 0
M  V30 8220 O 795.41 1.77314 -0.309797 0
M  V30 8221 H 791.785 0.645008 -0.386611 0
M  V30 8222 H 793.756 2.01389 -2.20193 0
M  V30 8223 C 792.505 3.32784 -1.00748 0
M  V30 8224 H 791.828 3.54626 -1.84609 0
M  V30 8225 H 793.268 4.12447 -0.98301 0
M  V30 8226 C 791.727 3.35654 0.289475 0
M  V30 8227 O 792.257 3.80281 1.29419 0
M  V30 8228 N 790.463 2.88843 0.3191 0
M  V30 8229 H 790.01 2.52719 -0.499069 0
M  V30 8230 H 789.968 2.91145 1.18667 0
M  V30 8231 N 793.74 1.17359 1.05189 0
M  V30 8232 C 794.67 0.91365 2.14883 0
M  V30 8233 C 795.651 -0.144365 1.69486 0
M  V30 8234 O 796.836 0.00587861 1.94199 0
M  V30 8235 C 793.966 0.426196 3.44675 0
M  V30 8236 C 792.92 1.4234 4.03638 0
M  V30 8237 C 792.246 0.793902 5.28773 0
M  V30 8238 C 793.546 2.7966 4.41121 0
M  V30 8239 H 795.24 1.831 2.36885 0
M  V30 8240 H 792.786 0.881781 1.13845 0
M  V30 8241 H 794.739 0.231767 4.20762 0
M  V30 8242 H 793.463 -0.526693 3.22325 0
M  V30 8243 H 792.122 1.60457 3.2962 0
M  V30 8244 H 791.77 -0.165824 5.02727 0
M  V30 8245 H 791.47 1.45959 5.69183 0
M  V30 8246 H 792.994 0.609747 6.07548 0
M  V30 8247 H 794.408 2.6526 5.08242 0
M  V30 8248 H 792.805 3.42807 4.92548 0
M  V30 8249 H 793.875 3.34068 3.51464 0
M  V30 8250 N 795.218 -1.23913 0.973828 0
M  V30 8251 C 796.443 -1.96735 0.656511 0
M  V30 8252 C 796.868 -1.71682 -0.768571 0
M  V30 8253 O 796.226 -0.984267 -1.52256 0
M  V30 8254 C 796.274 -3.48004 0.944735 0
M  V30 8255 O 795.378 -4.12387 0.0333357 0
M  V30 8256 H 794.719 -0.616119 0.247575 0
M  V30 8257 H 797.249 -1.57525 1.30564 0
M  V30 8258 H 797.259 -3.98424 0.87876 0
M  V30 8259 H 795.934 -3.65567 1.98328 0
M  V30 8260 H 794.511 -3.72585 0.153157 0
M  V30 8261 N 796.696 -0.74468 -1.38897 0
M  V30 8262 C 797.626 -0.126355 -2.33158 0
M  V30 8263 C 798.607 0.713517 -1.54412 0
M  V30 8264 O 799.792 0.656523 -1.82766 0
M  V30 8265 C 796.922 0.774375 -3.38557 0
M  V30 8266 C 795.876 0.0379214 -4.27983 0
M  V30 8267 C 795.202 1.05631 -5.24162 0
M  V30 8268 C 796.502 -1.12523 -5.10035 0
M  V30 8269 H 798.196 -0.913744 -2.85116 0
M  V30 8270 H 795.742 -0.440847 -1.37086 0
M  V30 8271 H 797.695 1.21655 -4.03458 0
M  V30 8272 H 796.419 1.59399 -2.85061 0
M  V30 8273 H 795.078 -0.384733 -3.64576 0
M  V30 8274 H 794.726 1.86975 -4.66958 0
M  V30 8275 H 794.426 0.568261 -5.84846 0
M  V30 8276 H 795.95 1.49799 -5.9194 0
M  V30 8277 H 797.364 -0.761037 -5.68226 0
M  V30 8278 H 795.761 -1.54355 -5.79909 0
M  V30 8279 H 796.831 -1.94237 -4.44297 0
M  V30 8280 N 798.174 1.49689 -0.493057 0
M  V30 8281 C 799.137 2.27502 0.278485 0
M  V30 8282 C 800.137 1.33184 0.901037 0
M  V30 8283 O 801.327 1.56415 0.766801 0
M  V30 8284 C 798.459 3.10881 1.39878 0
M  V30 8285 H 799.652 2.97163 -0.404219 0
M  V30 8286 H 797.205 1.54324 -0.247774 0
M  V30 8287 H 797.94 2.45767 2.11587 0
M  V30 8288 H 797.725 3.80219 0.957924 0
M  V30 8289 H 799.215 3.69673 1.94247 0
M  V30 8290 N 799.652 0.226554 1.55963 0
M  V30 8291 C 800.615 -0.668015 2.19249 0
M  V30 8292 C 801.615 -1.11794 1.1558 0
M  V30 8293 O 802.805 -1.02593 1.40784 0
M  V30 8294 C 799.937 -1.91571 2.81981 0
M  V30 8295 H 801.13 -0.116175 2.99675 0
M  V30 8296 H 798.683 -0.0230497 1.56283 0
M  V30 8297 H 799.418 -2.50929 2.05439 0
M  V30 8298 H 799.203 -1.6015 3.57903 0
M  V30 8299 H 800.693 -2.55294 3.30477 0
M  V30 8300 N 801.13 -1.57531 -0.0467866 0
M  V30 8301 C 802.377 -1.88451 -0.74112 0
M  V30 8302 C 802.705 -0.821592 -1.76296 0
M  V30 8303 O 801.96 0.179585 -1.94874 0
M  V30 8304 C 802.259 -3.26091 -1.46285 0
M  V30 8305 C 801.925 -4.47171 -0.578669 0
M  V30 8306 C 800.587 -4.80032 -0.335083 0
M  V30 8307 C 802.939 -5.2119 0.0328809 0
M  V30 8308 C 800.267 -5.84309 0.529121 0
M  V30 8309 C 802.619 -6.26383 0.884684 0
M  V30 8310 C 801.283 -6.57729 1.1379 0
M  V30 8311 H 800.553 -0.68959 -0.271195 0
M  V30 8312 H 803.2 -1.915 -0.00132378 0
M  V30 8313 H 801.505 -3.18948 -2.27551 0
M  V30 8314 H 803.202 -3.47258 -2.00532 0
M  V30 8315 H 799.792 -4.21467 -0.778666 0
M  V30 8316 H 803.976 -4.96096 -0.142375 0
M  V30 8317 H 799.232 -6.06981 0.733794 0
M  V30 8318 H 803.406 -6.82888 1.36516 0
M  V30 8319 H 801.033 -7.38355 1.80929 0
M  V30 8320 N 802.608 0.318715 -1.54344 0
M  V30 8321 C 804.024 0.663345 -1.45162 0
M  V30 8322 C 804.224 1.9145 -0.62842 0
M  V30 8323 O 803.28 2.5217 -0.129126 0
M  V30 8324 C 804.593 0.832836 -2.88937 0
M  V30 8325 C 806.141 0.929866 -2.98869 0
M  V30 8326 C 806.616 1.13149 -4.43803 0
M  V30 8327 N 808.107 1.19811 -4.47437 0
M  V30 8328 C 808.842 1.37209 -5.56742 0
M  V30 8329 N 808.338 1.51619 -6.76006 0
M  V30 8330 N 810.131 1.39956 -5.44398 0
M  V30 8331 H 802.282 -0.50357 -2.06344 0
M  V30 8332 H 804.545 -0.163528 -0.933789 0
M  V30 8333 H 804.251 -0.0153519 -3.51697 0
M  V30 8334 H 804.125 1.72721 -3.35332 0
M  V30 8335 H 806.512 1.76855 -2.36233 0
M  V30 8336 H 806.593 0.0118561 -2.55797 0
M  V30 8337 H 806.237 0.297636 -5.07027 0
M  V30 8338 H 806.167 2.06345 -4.84489 0
M  V30 8339 H 808.658 1.101 -3.61506 0
M  V30 8340 H 808.971 1.64599 -7.55067 0
M  V30 8341 H 807.316 1.48708 -6.78904 0
M  V30 8342 H 810.507 1.28298 -4.50175 0
M  V30 8343 H 810.68 1.53172 -6.29637 0
M  V30 8344 N 804.086 1.46499 0.581025 0
M  V30 8345 C 805.335 1.51162 1.3354 0
M  V30 8346 C 805.648 0.168433 1.94873 0
M  V30 8347 O 806.854 0.092883 2.71341 0
M  V30 8348 C 805.31 2.66362 2.42032 0
M  V30 8349 C 804.918 4.07109 1.86994 0
M  V30 8350 C 806.662 2.80297 3.188 0
M  V30 8351 C 804.569 5.13645 2.93125 0
M  V30 8352 H 803.499 0.562576 0.502021 0
M  V30 8353 H 806.15 1.72713 0.619863 0
M  V30 8354 H 804.532 2.38143 3.16392 0
M  V30 8355 H 805.706 4.45125 1.19166 0
M  V30 8356 H 804.021 3.97854 1.22887 0
M  V30 8357 H 806.618 3.5706 3.9801 0
M  V30 8358 H 806.961 1.87875 3.71495 0
M  V30 8359 H 807.494 3.0817 2.51547 0
M  V30 8360 H 804.233 6.07866 2.45315 0
M  V30 8361 H 803.753 4.80172 3.59437 0
M  V30 8362 H 805.432 5.39562 3.57046 0
M  V30 8363 N 805.565 -0.825799 1.34232 0
M  V30 8364 C 806.842 -1.56741 1.17011 0
M  V30 8365 C 807.222 -2.09512 -0.258425 0
M  V30 8366 O 806.57 -1.90664 -1.25935 0
M  V30 8367 C 806.78 -2.69104 2.22225 0
M  V30 8368 C 808.128 -3.37947 2.57055 0
M  V30 8369 O 809.152 -2.79358 2.20992 0
M  V30 8370 O 808.011 -4.43743 3.1899 0
M  V30 8371 H 805.105 -0.69163 0.453405 0
M  V30 8372 H 807.651 -0.867422 1.45856 0
M  V30 8373 H 806.423 -2.27844 3.18124 0
M  V30 8374 H 806.046 -3.46756 1.94541 0
M  V30 8375 N 807.043 -1.17915 -1.04565 0
M  V30 8376 C 807.973 -0.925033 -2.14395 0
M  V30 8377 C 808.954 0.135375 -1.6956 0
M  V30 8378 O 810.139 -0.0161774 -1.94193 0
M  V30 8379 C 807.269 -0.444469 -3.44444 0
M  V30 8380 C 806.223 -1.44478 -4.02877 0
M  V30 8381 C 805.549 -0.821933 -5.28345 0
M  V30 8382 C 806.849 -2.81995 -4.39632 0
M  V30 8383 H 808.543 -1.84354 -2.35911 0
M  V30 8384 H 806.089 -0.887806 -1.13375 0
M  V30 8385 H 808.042 -0.254078 -4.20633 0
M  V30 8386 H 806.766 0.509592 -3.226 0
M  V30 8387 H 805.425 -1.62203 -3.28764 0
M  V30 8388 H 805.073 0.139161 -5.02807 0
M  V30 8389 H 804.773 -1.48976 -5.68401 0
M  V30 8390 H 806.297 -0.641959 -6.07216 0
M  V30 8391 H 807.711 -2.67952 -5.06828 0
M  V30 8392 H 806.108 -3.45414 -4.90723 0
M  V30 8393 H 807.178 -3.35927 -3.49687 0
M  V30 8394 N 808.521 1.23394 -0.980386 0
M  V30 8395 C 809.431 2.28561 -0.528864 0
M  V30 8396 C 810.447 1.68946 0.416329 0
M  V30 8397 O 811.623 1.99355 0.286251 0
M  V30 8398 C 808.688 3.46323 0.16155 0
M  V30 8399 C 807.749 4.21297 -0.825044 0
M  V30 8400 C 806.982 5.33437 -0.167483 0
M  V30 8401 O 807.205 5.60812 1.04146 0
M  V30 8402 O 806.139 5.95637 -0.866047 0
M  V30 8403 H 809.965 2.69326 -1.40346 0
M  V30 8404 H 807.55 1.29325 -0.748019 0
M  V30 8405 H 809.432 4.17811 0.548841 0
M  V30 8406 H 808.107 3.0751 1.01092 0
M  V30 8407 H 807.014 3.52134 -1.26303 0
M  V30 8408 H 808.347 4.6396 -1.64322 0
M  V30 8409 N 809.999 0.752036 1.385 0
M  V30 8410 C 810.947 0.112634 2.32327 0
M  V30 8411 C 811.941 -0.707037 1.53939 0
M  V30 8412 O 813.147 -0.606309 1.69481 0
M  V30 8413 H 809.522 0.0176275 0.751793 0
M  V30 8414 H 811.493 0.920074 2.83861 0
M  V30 8415 C 810.242 -0.767458 3.39124 0
M  V30 8416 H 809.565 -0.146122 3.99533 0
M  V30 8417 H 811.005 -1.18216 4.07187 0
M  V30 8418 C 809.464 -1.90938 2.77568 0
M  V30 8419 O 809.994 -3.00342 2.66754 0
M  V30 8420 N 808.2 -1.70396 2.35401 0
M  V30 8421 H 807.747 -0.81413 2.44397 0
M  V30 8422 H 807.705 -2.46972 1.94557 0
M  V30 8423 N 811.477 -1.49425 0.500989 0
M  V30 8424 C 812.425 -2.30771 -0.291149 0
M  V30 8425 C 813.419 -1.3938 -0.962787 0
M  V30 8426 O 814.625 -1.56431 -0.890477 0
M  V30 8427 H 811 -0.743499 -0.11275 0
M  V30 8428 H 812.971 -2.95501 0.414917 0
M  V30 8429 C 811.72 -3.20725 -1.34279 0
M  V30 8430 H 811.043 -3.90975 -0.83538 0
M  V30 8431 H 812.483 -3.80583 -1.86903 0
M  V30 8432 C 810.942 -2.40334 -2.36095 0
M  V30 8433 O 811.472 -2.10749 -3.41976 0
M  V30 8434 N 809.678 -2.02359 -2.08565 0
M  V30 8435 H 809.225 -2.26619 -1.22482 0
M  V30 8436 H 809.183 -1.48878 -2.76916 0
M  V30 8437 N 812.955 -0.234822 -1.55841 0
M  V30 8438 C 814.366 0.270588 -1.84729 0
M  V30 8439 C 814.717 1.58494 -1.15646 0
M  V30 8440 O 813.842 2.12071 -0.430667 0
M  V30 8441 C 814.437 0.497733 -3.35124 0
M  V30 8442 C 812.996 0.947428 -3.64281 0
M  V30 8443 C 812.143 0.01787 -2.77294 0
M  V30 8444 H 815.094 -0.457691 -1.51957 0
M  V30 8445 H 815.115 1.34199 -3.56049 0
M  V30 8446 H 814.627 -0.459037 -3.85376 0
M  V30 8447 H 812.728 1.91709 -3.19497 0
M  V30 8448 H 812.841 0.812651 -4.72158 0
M  V30 8449 H 811.205 0.527071 -2.49187 0
M  V30 8450 H 811.988 -0.934056 -3.30349 0
M  V30 8451 N 814.433 1.57553 0.0384317 0
M  V30 8452 C 815.365 2.02726 1.06934 0
M  V30 8453 C 816.378 0.938502 1.33026 0
M  V30 8454 O 817.567 1.21595 1.30678 0
M  V30 8455 C 814.667 2.37958 2.41308 0
M  V30 8456 C 813.84 3.69098 2.34703 0
M  V30 8457 C 812.899 3.91623 3.51451 0
M  V30 8458 O 811.925 4.628 3.31368 0
M  V30 8459 N 813.127 3.36538 4.72993 0
M  V30 8460 H 815.892 2.91781 0.684381 0
M  V30 8461 H 813.453 1.60307 0.226542 0
M  V30 8462 H 815.445 2.50172 3.18113 0
M  V30 8463 H 814.015 1.54621 2.71682 0
M  V30 8464 H 813.235 3.67325 1.43059 0
M  V30 8465 H 814.523 4.55144 2.27424 0
M  V30 8466 H 813.921 2.78828 4.92211 0
M  V30 8467 H 812.478 3.54148 5.47195 0
M  V30 8468 N 815.911 -0.310526 1.54511 0
M  V30 8469 C 816.821 -1.4054 1.87844 0
M  V30 8470 C 817.837 -1.55954 0.771635 0
M  V30 8471 O 819.013 -1.70801 1.06719 0
M  V30 8472 C 816.078 -2.75063 2.11048 0
M  V30 8473 C 815.139 -2.68715 3.348 0
M  V30 8474 C 814.372 -3.96821 3.56887 0
M  V30 8475 O 814.595 -4.95721 2.82165 0
M  V30 8476 O 813.529 -3.99291 4.50389 0
M  V30 8477 H 817.355 -1.15275 2.80972 0
M  V30 8478 H 814.94 -0.505732 1.4058 0
M  V30 8479 H 816.822 -3.54671 2.27566 0
M  V30 8480 H 815.497 -3.00191 1.21108 0
M  V30 8481 H 814.404 -1.87611 3.23655 0
M  V30 8482 H 815.737 -2.4854 4.2484 0
M  V30 8483 N 817.389 -1.46805 -0.573248 0
M  V30 8484 C 818.666 -1.43082 -1.33368 0
M  V30 8485 C 819.046 -0.119252 -2.10763 0
M  V30 8486 O 818.394 0.899239 -2.10062 0
M  V30 8487 C 818.604 -2.66643 -2.25172 0
M  V30 8488 C 819.952 -3.13188 -2.86702 0
M  V30 8489 O 820.976 -2.67258 -2.35482 0
M  V30 8490 O 819.835 -3.92994 -3.79761 0
M  V30 8491 H 816.929 -0.569451 -0.599712 0
M  V30 8492 H 819.475 -1.58984 -0.59348 0
M  V30 8493 H 818.247 -3.53649 -1.67475 0
M  V30 8494 H 817.87 -2.53247 -3.06516 0
M  V30 8495 N 818.867 0.818669 -1.34668 0
M  V30 8496 C 820.278 1.39177 -1.24446 0
M  V30 8497 C 820.629 1.9578 0.128268 0
M  V30 8498 O 819.754 1.90382 1.02877 0
M  V30 8499 C 820.349 2.53012 -2.25323 0
M  V30 8500 C 818.908 3.06218 -2.18878 0
M  V30 8501 C 818.055 1.79112 -2.11694 0
M  V30 8502 H 821.006 0.622709 -1.45973 0
M  V30 8503 H 821.027 3.31226 -1.8727 0
M  V30 8504 H 820.539 2.11784 -3.25221 0
M  V30 8505 H 818.64 3.51939 -1.22351 0
M  V30 8506 H 818.753 3.65019 -3.10319 0
M  V30 8507 H 817.117 2.0018 -1.57481 0
M  V30 8508 H 817.9 1.40053 -3.13433 0
M  V30 8509 N 820.346 1.18468 1.03938 0
M  V30 8510 C 821.623 0.890435 1.74157 0
M  V30 8511 C 822.003 -0.606409 2.02203 0
M  V30 8512 O 821.351 -1.5615 1.66822 0
M  V30 8513 C 821.561 1.73906 3.02585 0
M  V30 8514 C 822.909 1.96686 3.76297 0
M  V30 8515 O 823.933 1.70969 3.12487 0
M  V30 8516 O 822.792 2.39986 4.90988 0
M  V30 8517 H 819.886 0.330889 0.757919 0
M  V30 8518 H 822.432 1.29228 1.09992 0
M  V30 8519 H 821.204 2.75369 2.78006 0
M  V30 8520 H 820.827 1.33581 3.74489 0
M  V30 8521 N 821.824 -1.22873 0.986916 0
M  V30 8522 C 822.774 -2.2237 0.503547 0
M  V30 8523 C 823.758 -1.55186 -0.424998 0
M  V30 8524 O 824.95 -1.75186 -0.252791 0
M  V30 8525 C 822.079 -3.42794 -0.186355 0
M  V30 8526 C 821.165 -4.17196 0.762143 0
M  V30 8527 N 821.556 -4.68453 1.9075 0
M  V30 8528 C 819.854 -4.42255 0.576797 0
M  V30 8529 C 820.555 -5.25126 2.50235 0
M  V30 8530 N 819.531 -5.13437 1.7856 0
M  V30 8531 H 823.333 -2.59636 1.37718 0
M  V30 8532 H 820.847 -1.38476 0.848415 0
M  V30 8533 H 822.844 -4.13256 -0.549993 0
M  V30 8534 H 821.504 -3.07042 -1.05619 0
M  V30 8535 H 822.515 -4.64595 2.28848 0
M  V30 8536 H 819.192 -4.16766 -0.247474 0
M  V30 8537 H 820.582 -5.75363 3.46997 0
M  V30 8538 N 823.302 -0.75937 -1.38099 0
M  V30 8539 C 824.713 -0.385078 -1.82686 0
M  V30 8540 C 825.064 1.0871 -1.6333 0
M  V30 8541 O 824.189 1.84084 -1.13762 0
M  V30 8542 C 824.784 -0.692161 -3.31654 0
M  V30 8543 C 823.343 -0.371077 -3.74566 0
M  V30 8544 C 822.49 -0.942375 -2.60796 0
M  V30 8545 H 825.441 -0.955048 -1.26746 0
M  V30 8546 H 825.462 0.0276001 -3.8049 0
M  V30 8547 H 824.974 -1.76369 -3.4571 0
M  V30 8548 H 823.075 0.693637 -3.66087 0
M  V30 8549 H 823.188 -0.870672 -4.71122 0
M  V30 8550 H 821.552 -0.367383 -2.52036 0
M  V30 8551 H 822.335 -2.01905 -2.77649 0
M  V30 8552 N 824.78 1.49157 -0.508906 0
M  V30 8553 C 826.028 2.02073 0.0327335 0
M  V30 8554 C 826.349 1.39012 1.3675 0
M  V30 8555 O 825.619 0.548153 1.88075 0
M  V30 8556 H 824.199 0.746848 0.0150864 0
M  V30 8557 H 826.861 1.83097 -0.667946 0
M  V30 8558 H 825.957 3.11707 0.1566 0
M  V30 8559 N 826.258 0.243083 1.55714 0
M  V30 8560 C 827.669 -0.260788 1.8487 0
M  V30 8561 C 828.02 -1.57879 1.16485 0
M  V30 8562 O 827.145 -2.1184 0.441908 0
M  V30 8563 C 827.74 -0.479954 3.35383 0
M  V30 8564 C 826.299 -0.928096 3.64778 0
M  V30 8565 C 825.446 -0.00316416 2.773 0
M  V30 8566 H 828.397 0.465743 1.51712 0
M  V30 8567 H 828.418 -1.32308 3.56756 0
M  V30 8568 H 827.93 0.479468 3.85127 0
M  V30 8569 H 826.031 -1.90012 3.20509 0
M  V30 8570 H 826.144 -0.7876 4.72582 0
M  V30 8571 H 824.508 -0.513849 2.49463 0
M  V30 8572 H 825.291 0.951562 3.29849 0
M  V30 8573 N 827.736 -1.57571 -0.0300757 0
M  V30 8574 C 829.147 -1.77567 -0.576802 0
M  V30 8575 C 829.498 -0.874034 -1.75656 0
M  V30 8576 O 828.623 -0.0686124 -2.16291 0
M  V30 8577 C 829.218 -3.22016 -1.05315 0
M  V30 8578 C 827.777 -3.43212 -1.5454 0
M  V30 8579 C 826.924 -2.73061 -0.483033 0
M  V30 8580 H 829.875 -1.57483 0.196151 0
M  V30 8581 H 829.896 -3.28474 -1.92055 0
M  V30 8582 H 829.408 -3.87613 -0.194298 0
M  V30 8583 H 827.509 -2.82788 -2.42615 0
M  V30 8584 H 827.622 -4.5182 -1.5936 0
M  V30 8585 H 825.986 -2.36805 -0.937835 0
M  V30 8586 H 826.769 -3.4134 0.366341 0
M  V30 8587 N 829.214 0.302327 -1.54673 0
M  V30 8588 C 830.162 1.39286 -1.86285 0
M  V30 8589 C 831.156 1.52553 -0.736478 0
M  V30 8590 O 832.362 1.54686 -0.92045 0
M  V30 8591 H 828.737 0.465228 -0.590819 0
M  V30 8592 H 830.708 1.09859 -2.77441 0
M  V30 8593 C 829.457 2.75155 -2.12567 0
M  V30 8594 H 828.78 2.65728 -2.98712 0
M  V30 8595 H 830.22 3.50476 -2.38627 0
M  V30 8596 C 828.679 3.23987 -0.923813 0
M  V30 8597 O 829.209 4.01443 -0.143649 0
M  V30 8598 N 827.415 2.81293 -0.72956 0
M  V30 8599 H 826.962 2.18421 -1.36565 0
M  V30 8600 H 826.92 3.14315 0.0730351 0
M  V30 8601 N 830.692 1.47107 0.565454 0
M  V30 8602 C 831.64 1.59368 1.69424 0
M  V30 8603 C 832.634 0.461344 1.62997 0
M  V30 8604 O 833.84 0.638849 1.68282 0
M  V30 8605 H 830.215 0.501387 0.560459 0
M  V30 8606 H 832.186 2.54242 1.56217 0
M  V30 8607 C 830.935 1.61739 3.07792 0
M  V30 8608 H 830.258 2.48215 3.13416 0
M  V30 8609 H 831.698 1.7437 3.86486 0
M  V30 8610 C 830.157 0.349156 3.35086 0
M  V30 8611 O 830.687 -0.553287 3.97871 0
M  V30 8612 N 828.893 0.231723 2.89675 0
M  V30 8613 H 828.44 0.967021 2.3876 0
M  V30 8614 H 828.398 -0.615911 3.08308 0
M  V30 8615 N 832.17 -0.811516 1.35101 0
M  V30 8616 C 833.581 -1.38515 1.25182 0
M  V30 8617 C 833.932 -1.95846 -0.117883 0
M  V30 8618 O 833.057 -1.90925 -1.01866 0
M  V30 8619 C 833.652 -2.51813 2.26662 0
M  V30 8620 C 832.211 -3.05052 2.20499 0
M  V30 8621 C 831.358 -1.77987 2.12641 0
M  V30 8622 H 834.309 -0.614959 1.46301 0
M  V30 8623 H 834.33 -3.30228 1.89023 0
M  V30 8624 H 833.842 -2.10057 3.2634 0
M  V30 8625 H 831.943 -3.51285 1.24215 0
M  V30 8626 H 832.056 -3.63368 3.1225 0
M  V30 8627 H 830.42 -1.99342 1.5854 0
M  V30 8628 H 831.203 -1.38389 3.14171 0
M  V30 8629 N 833.648 -1.19017 -1.03309 0
M  V30 8630 C 834.895 -0.990214 -1.76638 0
M  V30 8631 C 835.223 0.479435 -1.88498 0
M  V30 8632 O 834.478 1.37223 -1.39529 0
M  V30 8633 C 834.777 -1.59927 -3.19622 0
M  V30 8634 C 834.443 -3.09632 -3.27779 0
M  V30 8635 C 833.105 -3.50491 -3.29712 0
M  V30 8636 C 835.457 -4.05644 -3.27264 0
M  V30 8637 C 832.785 -4.85921 -3.28782 0
M  V30 8638 C 835.137 -5.41 -3.27875 0
M  V30 8639 C 833.801 -5.81295 -3.28104 0
M  V30 8640 H 833.071 -0.362345 -0.646364 0
M  V30 8641 H 835.718 -1.48197 -1.21284 0
M  V30 8642 H 834.023 -1.0297 -3.78027 0
M  V30 8643 H 835.72 -1.41989 -3.7502 0
M  V30 8644 H 832.31 -2.77073 -3.26999 0
M  V30 8645 H 836.494 -3.75124 -3.24955 0
M  V30 8646 H 831.75 -5.16427 -3.27281 0
M  V30 8647 H 835.924 -6.15157 -3.26428 0
M  V30 8648 H 833.551 -6.86211 -3.27138 0
M  V30 8649 N 835.127 1.22348 -0.993418 0
M  V30 8650 C 836.357 1.94842 -0.687023 0
M  V30 8651 C 836.765 1.73594 0.752445 0
M  V30 8652 O 836.108 1.03238 1.51946 0
M  V30 8653 C 836.17 3.47694 -0.913754 0
M  V30 8654 C 835.834 3.92678 -2.33781 0
M  V30 8655 C 836.831 4.0031 -3.31734 0
M  V30 8656 C 834.516 4.25311 -2.67237 0
M  V30 8657 C 836.51 4.39951 -4.61218 0
M  V30 8658 C 834.197 4.64631 -3.9694 0
M  V30 8659 C 835.195 4.71919 -4.93742 0
M  V30 8660 O 834.883 5.10349 -6.21127 0
M  V30 8661 H 834.615 0.626771 -0.253247 0
M  V30 8662 H 837.169 1.56436 -1.33105 0
M  V30 8663 H 835.399 3.86115 -0.212552 0
M  V30 8664 H 837.088 4.01403 -0.602528 0
M  V30 8665 H 837.854 3.75288 -3.07219 0
M  V30 8666 H 833.733 4.18842 -1.92594 0
M  V30 8667 H 837.277 4.45555 -5.36774 0
M  V30 8668 H 833.174 4.89104 -4.21245 0
M  V30 8669 H 833.942 5.2842 -6.25072 0
M  V30 8670 N 836.605 0.766683 1.37694 0
M  V30 8671 C 837.854 0.325425 1.99057 0
M  V30 8672 C 838.167 -1.10275 1.61551 0
M  V30 8673 O 839.373 -1.64513 2.1598 0
M  V30 8674 C 837.829 0.530886 3.55963 0
M  V30 8675 C 837.437 1.96899 4.02411 0
M  V30 8676 C 839.181 0.152997 4.24224 0
M  V30 8677 C 837.088 2.12232 5.52007 0
M  V30 8678 H 836.018 0.117929 0.744721 0
M  V30 8679 H 838.669 0.945091 1.5729 0
M  V30 8680 H 837.051 -0.158162 3.95684 0
M  V30 8681 H 838.225 2.69258 3.73948 0
M  V30 8682 H 836.54 2.303 3.46916 0
M  V30 8683 H 839.137 0.24614 5.34133 0
M  V30 8684 H 839.48 -0.896096 4.06541 0
M  V30 8685 H 840.013 0.794398 3.89787 0
M  V30 8686 H 836.752 3.15442 5.7461 0
M  V30 8687 H 836.272 1.4435 5.82171 0
M  V30 8688 H 837.951 1.9185 6.17902 0
M  V30 8689 N 838.083 -1.48885 0.516809 0
M  V30 8690 C 839.308 -2.0739 -0.0205201 0
M  V30 8691 C 839.733 -1.37259 -1.28614 0
M  V30 8692 O 839.091 -0.434304 -1.76021 0
M  V30 8693 C 839.139 -3.59793 -0.24104 0
M  V30 8694 O 838.243 -3.90957 -1.31251 0
M  V30 8695 H 837.584 -0.663167 0.0332564 0
M  V30 8696 H 840.114 -1.91477 0.720956 0
M  V30 8697 H 840.124 -4.0531 -0.467737 0
M  V30 8698 H 838.799 -4.10244 0.68356 0
M  V30 8699 H 837.376 -3.57234 -1.06951 0
M  V30 8700 N 839.561 -0.251338 -1.55583 0
M  V30 8701 C 840.809 0.371434 -1.98657 0
M  V30 8702 C 841.13 1.58143 -1.14087 0
M  V30 8703 O 840.4 1.94607 -0.224708 0
M  V30 8704 H 838.98 0.140225 -0.733721 0
M  V30 8705 H 841.642 -0.351157 -1.9171 0
M  V30 8706 H 840.738 0.677554 -3.04657 0
M  V30 8707 N 841.039 1.57585 0.0217189 0
M  V30 8708 C 842.287 1.89231 0.709641 0
M  V30 8709 C 842.608 0.849964 1.75501 0
M  V30 8710 O 841.878 -0.115485 1.95559 0
M  V30 8711 H 840.458 0.69838 0.265092 0
M  V30 8712 H 843.12 1.94895 -0.0140688 0
M  V30 8713 H 842.216 2.88333 1.19459 0
M  V30 8714 N 842.517 -0.29412 1.54831 0
M  V30 8715 C 843.464 -1.36296 1.86258 0
M  V30 8716 C 844.434 -1.50061 0.712097 0
M  V30 8717 O 845.619 -1.64809 0.961381 0
M  V30 8718 C 842.759 -2.72187 2.12151 0
M  V30 8719 C 841.872 -2.66816 3.39755 0
M  V30 8720 C 841.007 -3.94747 3.55455 0
M  V30 8721 C 840.046 -3.838 4.76827 0
M  V30 8722 N 839.183 -5.03521 4.89296 0
M  V30 8723 H 844.023 -1.08796 2.7743 0
M  V30 8724 H 841.56 -0.526069 1.37371 0
M  V30 8725 H 843.518 -3.51225 2.25159 0
M  V30 8726 H 842.148 -2.97934 1.24237 0
M  V30 8727 H 841.2 -1.79605 3.3533 0
M  V30 8728 H 842.512 -2.5462 4.28917 0
M  V30 8729 H 841.666 -4.82223 3.68166 0
M  V30 8730 H 840.405 -4.09785 2.64438 0
M  V30 8731 H 839.41 -2.94708 4.64141 0
M  V30 8732 H 840.635 -3.70301 5.69258 0
M  V30 8733 H 838.581 -5.1901 4.01204 0
M  V30 8734 H 838.498 -4.93775 5.72471 0
M  V30 8735 H 839.766 -5.92629 5.06371 0
M  V30 8736 N 843.995 -1.47404 -0.557645 0
M  V30 8737 C 845.241 -1.54235 -1.31679 0
M  V30 8738 C 845.574 -0.203782 -1.93128 0
M  V30 8739 O 844.849 0.787536 -1.77843 0
M  V30 8740 C 845.132 -2.66003 -2.42723 0
M  V30 8741 C 844.985 -4.09475 -1.86145 0
M  V30 8742 C 846.304 -2.73685 -3.44652 0
M  V30 8743 H 843.423 -0.561466 -0.477415 0
M  V30 8744 H 846.065 -1.79459 -0.624067 0
M  V30 8745 H 844.215 -2.44627 -3.01811 0
M  V30 8746 H 845.887 -4.42213 -1.31321 0
M  V30 8747 H 844.13 -4.17774 -1.16823 0
M  V30 8748 H 844.801 -4.83451 -2.66418 0
M  V30 8749 H 847.277 -2.92968 -2.95481 0
M  V30 8750 H 846.153 -3.53665 -4.19777 0
M  V30 8751 H 846.414 -1.80726 -4.03473 0
M  V30 8752 N 845.473 0.80434 -1.35529 0
M  V30 8753 C 846.889 1.10023 -1.15616 0
M  V30 8754 C 847.089 2.01478 0.0298535 0
M  V30 8755 O 846.145 2.42609 0.699778 0
M  V30 8756 C 847.458 1.72905 -2.46017 0
M  V30 8757 C 849.006 1.85315 -2.52245 0
M  V30 8758 C 849.481 2.51612 -3.82695 0
M  V30 8759 N 850.972 2.59095 -3.83958 0
M  V30 8760 C 851.707 3.11167 -4.81625 0
M  V30 8761 N 851.203 3.63659 -5.89681 0
M  V30 8762 N 852.996 3.09741 -4.6906 0
M  V30 8763 H 845.147 0.196428 -2.1149 0
M  V30 8764 H 847.41 0.149735 -0.9361 0
M  V30 8765 H 847.116 1.13171 -3.32994 0
M  V30 8766 H 846.99 2.72579 -2.6073 0
M  V30 8767 H 849.377 2.44191 -1.65695 0
M  V30 8768 H 849.458 0.844886 -2.41444 0
M  V30 8769 H 849.102 1.93385 -4.69643 0
M  V30 8770 H 849.032 3.5298 -3.90785 0
M  V30 8771 H 851.523 2.21908 -3.05884 0
M  V30 8772 H 851.836 4.01699 -6.60195 0
M  V30 8773 H 850.181 3.61852 -5.9337 0
M  V30 8774 H 853.372 2.68011 -3.83781 0
M  V30 8775 H 853.545 3.50016 -5.45338 0
M  V30 8776 N 846.951 1.19563 1.02676 0
M  V30 8777 C 848.176 1.02556 1.80269 0
M  V30 8778 C 848.601 -0.421056 1.83327 0
M  V30 8779 O 847.959 -1.30279 1.26084 0
M  V30 8780 C 848.007 1.60165 3.23078 0
M  V30 8781 O 847.111 0.832404 4.03912 0
M  V30 8782 H 846.452 0.362354 0.556413 0
M  V30 8783 H 848.982 1.58633 1.29216 0
M  V30 8784 H 848.992 1.6347 3.7382 0
M  V30 8785 H 847.667 2.65454 3.20167 0
M  V30 8786 H 846.244 0.872768 3.62543 0
M  V30 8787 N 848.429 -1.21819 0.999893 0
M  V30 8788 C 849.361 -2.23356 0.514256 0
M  V30 8789 C 850.374 -1.5795 -0.394413 0
M  V30 8790 O 851.563 -1.77427 -0.195428 0
M  V30 8791 C 848.663 -3.37797 -0.273207 0
M  V30 8792 C 847.836 -4.32791 0.633293 0
M  V30 8793 C 846.895 -5.26098 -0.103673 0
M  V30 8794 O 845.921 -5.66881 0.513269 0
M  V30 8795 N 847.123 -5.63764 -1.38383 0
M  V30 8796 H 849.888 -2.65653 1.3874 0
M  V30 8797 H 847.449 -1.3619 0.875431 0
M  V30 8798 H 849.441 -3.97209 -0.775053 0
M  V30 8799 H 848.011 -2.94527 -1.0475 0
M  V30 8800 H 847.231 -3.71595 1.31571 0
M  V30 8801 H 848.519 -4.93196 1.25039 0
M  V30 8802 H 847.917 -5.32614 -1.90627 0
M  V30 8803 H 846.474 -6.25562 -1.83073 0
M  V30 8804 N 849.908 -0.773975 -1.37286 0
M  V30 8805 C 851.156 -0.338636 -1.99243 0
M  V30 8806 C 851.477 1.08919 -1.61746 0
M  V30 8807 O 850.747 1.74822 -0.88397 0
M  V30 8808 H 849.327 -0.12222 -0.736934 0
M  V30 8809 H 851.989 -0.992595 -1.67731 0
M  V30 8810 H 851.085 -0.418055 -3.09287 0
M  V30 8811 N 851.386 1.48609 -0.524698 0
M  V30 8812 C 852.633 2.02497 0.0113214 0
M  V30 8813 C 852.961 1.40229 1.34781 0
M  V30 8814 O 852.216 0.53557 1.88229 0
M  V30 8815 C 852.515 3.56906 0.187873 0
M  V30 8816 C 852.181 4.37932 -1.07359 0
M  V30 8817 C 850.843 4.59792 -1.41933 0
M  V30 8818 C 853.195 4.84902 -1.911 0
M  V30 8819 C 850.523 5.25868 -2.60154 0
M  V30 8820 C 852.875 5.52281 -3.08495 0
M  V30 8821 C 851.539 5.7238 -3.4342 0
M  V30 8822 H 850.809 0.740988 0.0041428 0
M  V30 8823 H 853.456 1.78651 -0.689652 0
M  V30 8824 H 851.761 3.79563 0.971572 0
M  V30 8825 H 853.458 3.96218 0.617443 0
M  V30 8826 H 850.048 4.21175 -0.794331 0
M  V30 8827 H 854.232 4.67821 -1.65701 0
M  V30 8828 H 849.488 5.39628 -2.87422 0
M  V30 8829 H 853.662 5.87645 -3.73692 0
M  V30 8830 H 851.289 6.23354 -4.35126 0
M  V30 8831 N 852.864 0.259585 1.55447 0
M  V30 8832 C 853.774 -0.645026 2.25558 0
M  V30 8833 C 854.79 -1.18291 1.27606 0
M  V30 8834 O 855.966 -1.21649 1.6051 0
M  V30 8835 C 853.031 -1.81964 2.9511 0
M  V30 8836 C 852.092 -1.31997 4.08504 0
M  V30 8837 C 851.325 -2.43861 4.74729 0
M  V30 8838 O 851.548 -3.62876 4.40088 0
M  V30 8839 O 850.482 -2.12898 5.6299 0
M  V30 8840 H 854.308 -0.0775399 3.03601 0
M  V30 8841 H 851.893 0.0275859 1.49375 0
M  V30 8842 H 853.775 -2.50485 3.38873 0
M  V30 8843 H 852.45 -2.37451 2.19997 0
M  V30 8844 H 851.357 -0.601676 3.6923 0
M  V30 8845 H 852.69 -0.811045 4.85472 0
M  V30 8846 N 854.342 -1.57594 -0.0133615 0
M  V30 8847 C 855.272 -2.10611 -1.00823 0
M  V30 8848 C 856.253 -1.01217 -1.36708 0
M  V30 8849 O 857.438 -1.28827 -1.45318 0
M  V30 8850 C 854.568 -2.59844 -2.30431 0
M  V30 8851 C 853.522 -3.73644 -2.08745 0
M  V30 8852 C 852.848 -4.09141 -3.4425 0
M  V30 8853 C 854.148 -5.01454 -1.46086 0
M  V30 8854 H 855.842 -2.93985 -0.566849 0
M  V30 8855 H 853.388 -1.41423 -0.271219 0
M  V30 8856 H 855.341 -2.95557 -3.00373 0
M  V30 8857 H 854.065 -1.73573 -2.76658 0
M  V30 8858 H 852.724 -3.38303 -1.41232 0
M  V30 8859 H 852.372 -3.19914 -3.88155 0
M  V30 8860 H 852.072 -4.85802 -3.3056 0
M  V30 8861 H 853.596 -4.47402 -4.15528 0
M  V30 8862 H 855.01 -5.35024 -2.05966 0
M  V30 8863 H 853.407 -5.82832 -1.42924 0
M  V30 8864 H 854.477 -4.83003 -0.428471 0
M  V30 8865 N 855.82 0.285905 -1.54985 0
M  V30 8866 C 856.73 1.37534 -1.90057 0
M  V30 8867 C 857.746 1.54707 -0.796348 0
M  V30 8868 O 858.922 1.69082 -1.09423 0
M  V30 8869 C 855.987 2.7167 -2.15398 0
M  V30 8870 C 855.048 2.63354 -3.39033 0
M  V30 8871 C 854.281 3.91093 -3.63155 0
M  V30 8872 O 854.504 4.91169 -2.90015 0
M  V30 8873 O 853.438 3.92075 -4.56685 0
M  V30 8874 H 857.264 1.10791 -2.8277 0
M  V30 8875 H 854.849 0.483303 -1.41367 0
M  V30 8876 H 856.731 3.51006 -2.33179 0
M  V30 8877 H 855.406 2.98226 -1.25868 0
M  V30 8878 H 854.313 1.82438 -3.26599 0
M  V30 8879 H 855.646 2.41749 -4.2874 0
M  V30 8880 N 857.298 1.47698 0.54982 0
M  V30 8881 C 858.546 1.54397 1.30407 0
M  V30 8882 C 858.867 0.211026 1.93855 0
M  V30 8883 O 858.137 -0.765701 1.80316 0
M  V30 8884 H 856.717 0.568747 0.484289 0
M  V30 8885 H 859.379 1.84042 0.641444 0
M  V30 8886 H 858.475 2.31449 2.09375 0
M  V30 8887 N 858.776 -0.797141 1.35954 0
M  V30 8888 C 860.004 -1.5858 1.32891 0
M  V30 8889 C 860.419 -1.88578 -0.0915564 0
M  V30 8890 O 859.776 -1.49532 -1.04625 0
M  V30 8891 C 859.827 -2.91143 2.14284 0
M  V30 8892 O 859.548 -2.62442 3.50793 0
M  V30 8893 C 861.049 -3.85476 2.18914 0
M  V30 8894 H 858.269 -0.492111 0.456144 0
M  V30 8895 H 860.813 -0.98994 1.78943 0
M  V30 8896 H 858.968 -3.47219 1.71807 0
M  V30 8897 H 859.382 -3.4715 3.93175 0
M  V30 8898 H 860.856 -4.75574 2.80238 0
M  V30 8899 H 861.333 -4.22758 1.19047 0
M  V30 8900 H 861.939 -3.35334 2.61593 0
M  V30 8901 N 860.254 -1.20106 -1.0204 0
M  V30 8902 C 861.502 -1.0069 -1.75231 0
M  V30 8903 C 861.823 0.462491 -1.89436 0
M  V30 8904 O 861.093 1.33455 -1.4341 0
M  V30 8905 H 859.673 -0.369576 -0.649171 0
M  V30 8906 H 862.335 -1.51149 -1.23044 0
M  V30 8907 H 861.431 -1.46205 -2.75736 0
M  V30 8908 N 861.732 1.21287 -1.00634 0
M  V30 8909 C 862.962 1.94103 -0.70765 0
M  V30 8910 C 863.37 1.74382 0.733991 0
M  V30 8911 O 862.713 1.04843 1.50843 0
M  V30 8912 C 862.775 3.46705 -0.950581 0
M  V30 8913 C 862.439 3.90176 -2.37932 0
M  V30 8914 C 863.436 3.96769 -3.35961 0
M  V30 8915 C 861.121 4.22453 -2.71733 0
M  V30 8916 C 863.115 4.35034 -4.65858 0
M  V30 8917 C 860.802 4.60394 -4.01846 0
M  V30 8918 C 861.8 4.66656 -4.9872 0
M  V30 8919 O 861.488 5.03732 -6.26505 0
M  V30 8920 H 861.22 0.62405 -0.259881 0
M  V30 8921 H 863.774 1.55015 -1.34757 0
M  V30 8922 H 862.004 3.85868 -0.253492 0
M  V30 8923 H 863.693 4.00741 -0.645069 0
M  V30 8924 H 864.459 3.72009 -3.11182 0
M  V30 8925 H 860.338 4.16776 -1.97025 0
M  V30 8926 H 863.882 4.39836 -5.4147 0
M  V30 8927 H 859.779 4.84609 -4.26409 0
M  V30 8928 H 860.547 5.21761 -6.30641 0
M  V30 8929 N 863.21 0.781244 1.36873 0
M  V30 8930 C 864.14 0.188128 2.32741 0
M  V30 8931 C 865.121 -0.672326 1.56249 0
M  V30 8932 O 866.306 -0.607835 1.84442 0
M  V30 8933 C 863.436 -0.684341 3.40491 0
M  V30 8934 C 862.39 0.0755641 4.27933 0
M  V30 8935 C 861.716 -0.916968 5.26779 0
M  V30 8936 C 863.016 1.26006 5.06873 0
M  V30 8937 H 864.71 0.989016 2.82593 0
M  V30 8938 H 862.256 0.477038 1.35869 0
M  V30 8939 H 864.209 -1.10915 4.06541 0
M  V30 8940 H 862.933 -1.51785 2.89187 0
M  V30 8941 H 861.592 0.481258 3.63427 0
M  V30 8942 H 861.24 -1.74528 4.71751 0
M  V30 8943 H 860.94 -0.413 5.86147 0
M  V30 8944 H 862.464 -1.34052 5.95703 0
M  V30 8945 H 863.878 0.911425 5.66009 0
M  V30 8946 H 862.275 1.69676 5.75613 0
M  V30 8947 H 863.345 2.05948 4.38991 0
M  V30 8948 N 864.689 -1.48329 0.532571 0
M  V30 8949 C 865.917 -2.069 0.00354299 0
M  V30 8950 C 866.332 -1.38876 -1.27902 0
M  V30 8951 O 865.689 -0.477119 -1.76153 0
M  V30 8952 C 865.74 -3.60821 -0.221416 0
M  V30 8953 O 865.461 -4.26291 1.01034 0
M  V30 8954 C 866.962 -4.36194 -0.790531 0
M  V30 8955 H 864.182 -0.670103 0.0346836 0
M  V30 8956 H 866.726 -1.90682 0.738955 0
M  V30 8957 H 864.881 -3.76636 -0.906884 0
M  V30 8958 H 865.295 -5.18475 0.792683 0
M  V30 8959 H 866.769 -5.44657 -0.897347 0
M  V30 8960 H 867.246 -4.00798 -1.79605 0
M  V30 8961 H 867.852 -4.25064 -0.141546 0
M  V30 8962 N 866.167 -0.267825 -1.55308 0
M  V30 8963 C 867.578 0.231344 -1.85261 0
M  V30 8964 C 867.929 1.56006 -1.18982 0
M  V30 8965 O 867.054 2.1111 -0.475554 0
M  V30 8966 C 867.649 0.426537 -3.36104 0
M  V30 8967 C 866.208 0.869945 -3.66209 0
M  V30 8968 C 865.355 -0.0409522 -2.7727 0
M  V30 8969 H 868.306 -0.489821 -1.50952 0
M  V30 8970 H 868.327 1.26616 -3.58816 0
M  V30 8971 H 867.839 -0.540678 -3.84315 0
M  V30 8972 H 865.94 1.84889 -3.23492 0
M  V30 8973 H 866.053 0.712316 -4.73775 0
M  V30 8974 H 864.417 0.474097 -2.50249 0
M  V30 8975 H 865.2 -1.00392 -3.28293 0
M  V30 8976 N 867.645 1.57599 0.00500368 0
M  V30 8977 C 868.875 1.94344 0.700998 0
M  V30 8978 C 869.283 0.868011 1.68114 0
M  V30 8979 O 868.626 -0.16214 1.82983 0
M  V30 8980 C 868.688 3.27046 1.49268 0
M  V30 8981 C 868.352 4.51992 0.674684 0
M  V30 8982 C 869.349 5.19888 -0.0354833 0
M  V30 8983 C 867.034 4.98432 0.622129 0
M  V30 8984 C 869.028 6.3252 -0.787246 0
M  V30 8985 C 866.715 6.10954 -0.133362 0
M  V30 8986 C 867.713 6.77855 -0.836788 0
M  V30 8987 O 867.401 7.88221 -1.57996 0
M  V30 8988 H 867.133 0.645572 0.20053 0
M  V30 8989 H 869.687 2.0536 -0.040718 0
M  V30 8990 H 867.917 3.12424 2.27877 0
M  V30 8991 H 869.606 3.4894 2.07355 0
M  V30 8992 H 870.372 4.85 -0.00400159 0
M  V30 8993 H 866.251 4.46189 1.15917 0
M  V30 8994 H 869.795 6.84671 -1.33683 0
M  V30 8995 H 865.692 6.45285 -0.166682 0
M  V30 8996 H 866.46 8.0471 -1.49615 0
M  V30 8997 N 869.123 -0.277682 1.55134 0
M  V30 8998 C 870.369 -1.00733 1.76704 0
M  V30 8999 C 870.724 -1.84107 0.55879 0
M  V30 9000 O 870.017 -1.86275 -0.448591 0
M  V30 9001 C 870.211 -1.92599 3.01065 0
M  V30 9002 C 870.04 -1.18266 4.3387 0
M  V30 9003 C 868.81 -0.900254 4.97216 0
M  V30 9004 C 871.008 -0.575419 5.11071 0
M  V30 9005 N 868.99 -0.129637 6.13763 0
M  V30 9006 C 870.361 0.0612637 6.1997 0
M  V30 9007 C 872.416 -0.482794 4.95554 0
M  V30 9008 C 871.119 0.781637 7.15041 0
M  V30 9009 C 873.145 0.223977 5.90976 0
M  V30 9010 C 872.507 0.849416 6.9926 0
M  V30 9011 H 868.606 -0.35075 0.698927 0
M  V30 9012 H 871.19 -0.283482 1.92625 0
M  V30 9013 H 869.361 -2.62214 2.86528 0
M  V30 9014 H 871.093 -2.5889 3.1106 0
M  V30 9015 H 867.848 -1.20434 4.58031 0
M  V30 9016 H 868.272 0.242865 6.76564 0
M  V30 9017 H 872.914 -0.952023 4.11942 0
M  V30 9018 H 870.632 1.26256 7.98176 0
M  V30 9019 H 874.218 0.2959 5.81047 0
M  V30 9020 H 873.098 1.3876 7.71826 0
M  V30 9021 N 870.601 -1.47988 -0.541979 0
M  V30 9022 C 871.826 -1.59286 -1.32826 0
M  V30 9023 C 872.251 -0.24894 -1.86445 0
M  V30 9024 O 871.609 0.777581 -1.63778 0
M  V30 9025 C 871.657 -2.6334 -2.46343 0
M  V30 9026 O 870.761 -2.19667 -3.49028 0
M  V30 9027 H 870.102 -0.534543 -0.393903 0
M  V30 9028 H 872.632 -1.93885 -0.653427 0
M  V30 9029 H 872.642 -2.84238 -2.92699 0
M  V30 9030 H 871.317 -3.60913 -2.06675 0
M  V30 9031 H 869.894 -2.08932 -3.08872 0
M  V30 9032 N 872.079 0.78992 -1.36375 0
M  V30 9033 C 873.009 1.91683 -1.33341 0
M  V30 9034 C 873.99 1.68861 -0.204965 0
M  V30 9035 O 875.175 1.89982 -0.402531 0
M  V30 9036 C 872.305 3.28696 -1.12143 0
M  V30 9037 C 871.259 3.66041 -2.21806 0
M  V30 9038 C 870.585 5.01399 -1.85751 0
M  V30 9039 C 871.885 3.74677 -3.63888 0
M  V30 9040 H 873.579 1.94478 -2.27637 0
M  V30 9041 H 871.125 0.934271 -1.09578 0
M  V30 9042 H 873.078 4.07151 -1.08656 0
M  V30 9043 H 871.802 3.26287 -0.142974 0
M  V30 9044 H 870.461 2.89883 -2.24418 0
M  V30 9045 H 870.109 4.9551 -0.864817 0
M  V30 9046 H 869.809 5.27355 -2.59173 0
M  V30 9047 H 871.333 5.82274 -1.83819 0
M  V30 9048 H 872.747 4.43324 -3.63506 0
M  V30 9049 H 871.144 4.12118 -4.3621 0
M  V30 9050 H 872.214 2.75795 -3.9883 0
M  V30 9051 N 873.557 1.20646 1.01402 0
M  V30 9052 C 874.782 1.04462 1.79172 0
M  V30 9053 C 875.207 -0.401588 1.83763 0
M  V30 9054 O 874.565 -1.28934 1.27459 0
M  V30 9055 C 874.613 1.63583 3.21361 0
M  V30 9056 O 873.717 0.875198 4.03006 0
M  V30 9057 H 873.058 0.368235 0.552539 0
M  V30 9058 H 875.588 1.59994 1.27526 0
M  V30 9059 H 875.598 1.67426 3.72065 0
M  V30 9060 H 874.273 2.68835 3.17334 0
M  V30 9061 H 872.85 0.911172 3.61597 0
M  V30 9062 N 875.035 -1.20752 1.01276 0
M  V30 9063 C 875.998 -2.2162 0.584583 0
M  V30 9064 C 876.998 -1.57094 -0.343215 0
M  V30 9065 O 878.188 -1.73696 -0.132433 0
M  V30 9066 C 875.32 -3.40583 -0.146872 0
M  V30 9067 H 876.513 -2.61015 1.47686 0
M  V30 9068 H 874.066 -1.34148 0.802123 0
M  V30 9069 H 874.801 -3.06686 -1.05424 0
M  V30 9070 H 874.586 -3.88642 0.51958 0
M  V30 9071 H 876.076 -4.15339 -0.433924 0
M  V30 9072 N 876.513 -0.788492 -1.36457 0
M  V30 9073 C 877.761 -0.359749 -1.98872 0
M  V30 9074 C 878.082 1.07197 -1.62892 0
M  V30 9075 O 877.352 1.73875 -0.902463 0
M  V30 9076 H 875.932 -0.130029 -0.735596 0
M  V30 9077 H 878.594 -1.01033 -1.66668 0
M  V30 9078 H 877.69 -0.450835 -3.08827 0
M  V30 9079 N 877.991 1.48044 -0.54043 0
M  V30 9080 C 879.221 2.06595 -0.0144943 0
M  V30 9081 C 879.629 1.39593 1.27713 0
M  V30 9082 O 878.972 0.480794 1.77297 0
M  V30 9083 C 879.034 3.5849 0.269316 0
M  V30 9084 C 878.698 4.47429 -0.930372 0
M  V30 9085 C 879.695 4.8657 -1.83155 0
M  V30 9086 C 877.38 4.89185 -1.14032 0
M  V30 9087 C 879.374 5.66246 -2.92649 0
M  V30 9088 C 877.061 5.6863 -2.23838 0
M  V30 9089 C 878.059 6.07069 -3.12979 0
M  V30 9090 O 877.747 6.84917 -4.20884 0
M  V30 9091 H 877.479 0.675086 -0.0351467 0
M  V30 9092 H 880.033 1.91275 -0.74853 0
M  V30 9093 H 878.263 3.71961 1.05745 0
M  V30 9094 H 879.952 3.99124 0.738595 0
M  V30 9095 H 880.718 4.54924 -1.68134 0
M  V30 9096 H 876.597 4.58742 -0.455717 0
M  V30 9097 H 880.141 5.96169 -3.62254 0
M  V30 9098 H 876.038 5.99688 -2.38839 0
M  V30 9099 H 876.806 7.03287 -4.18723 0
M  V30 9100 N 879.47 0.276058 1.55163 0
M  V30 9101 C 880.698 -0.343772 2.04024 0
M  V30 9102 C 881.113 -1.49397 1.15438 0
M  V30 9103 O 880.47 -1.81662 0.174692 0
M  V30 9104 C 880.521 -0.823885 3.51986 0
M  V30 9105 O 880.242 0.280507 4.37201 0
M  V30 9106 C 881.743 -1.51143 4.16738 0
M  V30 9107 H 878.963 -0.07828 0.666418 0
M  V30 9108 H 881.507 0.408427 2.0038 0
M  V30 9109 H 879.662 -1.52617 3.56071 0
M  V30 9110 H 880.076 -0.0887831 5.24425 0
M  V30 9111 H 881.55 -1.79878 5.2187 0
M  V30 9112 H 882.027 -2.44327 3.64967 0
M  V30 9113 H 882.633 -0.852975 4.16659 0
M  V30 9114 N 880.948 -1.576 0.00335426 0
M  V30 9115 C 882.178 -1.94713 -0.690682 0
M  V30 9116 C 882.586 -0.876915 -1.67651 0
M  V30 9117 O 881.929 0.152434 -1.83066 0
M  V30 9118 C 881.991 -3.27833 -1.47532 0
M  V30 9119 C 881.655 -4.52344 -0.650704 0
M  V30 9120 C 882.652 -5.19862 0.0630537 0
M  V30 9121 C 880.337 -4.98755 -0.595687 0
M  V30 9122 C 882.331 -6.32093 0.820779 0
M  V30 9123 C 880.018 -6.10875 0.165761 0
M  V30 9124 C 881.016 -6.77401 0.872724 0
M  V30 9125 O 880.704 -7.87372 1.62174 0
M  V30 9126 H 880.436 -0.646627 -0.197104 0
M  V30 9127 H 882.99 -2.05335 0.0516082 0
M  V30 9128 H 881.22 -3.13628 -2.26217 0
M  V30 9129 H 882.909 -3.50034 -2.05501 0
M  V30 9130 H 883.675 -4.84991 0.0297223 0
M  V30 9131 H 879.554 -4.46797 -1.13549 0
M  V30 9132 H 883.098 -6.83953 1.37312 0
M  V30 9133 H 878.995 -6.45187 0.200901 0
M  V30 9134 H 879.763 -8.03905 1.5388 0
M  V30 9135 N 882.426 0.269451 -1.5528 0
M  V30 9136 C 883.654 1.01872 -1.80082 0
M  V30 9137 C 884.069 1.79802 -0.575917 0
M  V30 9138 O 883.426 1.76735 0.455081 0
M  V30 9139 C 883.477 1.9745 -3.02813 0
M  V30 9140 O 883.198 1.22677 -4.20573 0
M  V30 9141 C 884.699 2.8416 -3.40247 0
M  V30 9142 H 881.919 0.300781 -0.59981 0
M  V30 9143 H 884.463 0.29916 -2.023 0
M  V30 9144 H 882.618 2.64864 -2.82712 0
M  V30 9145 H 883.032 1.87129 -4.89982 0
M  V30 9146 H 884.506 3.47014 -4.29284 0
M  V30 9147 H 884.983 3.54113 -2.59809 0
M  V30 9148 H 885.589 2.22232 -3.6262 0
M  V30 9149 N 883.904 1.48273 0.534124 0
M  V30 9150 C 885.129 1.59988 1.31979 0
M  V30 9151 C 885.554 0.258824 1.86311 0
M  V30 9152 O 884.912 -0.768885 1.64188 0
M  V30 9153 C 884.96 2.64642 2.44943 0
M  V30 9154 O 884.064 2.21515 3.47858 0
M  V30 9155 H 883.405 0.536625 0.391063 0
M  V30 9156 H 885.935 1.94229 0.643135 0
M  V30 9157 H 885.945 2.85786 2.91187 0
M  V30 9158 H 884.62 3.62004 2.04758 0
M  V30 9159 H 883.197 2.10567 3.0776 0
M  V30 9160 N 885.382 -0.782676 1.36792 0
M  V30 9161 C 886.61 -1.57162 1.34565 0
M  V30 9162 C 887.025 -1.88664 -0.0715501 0
M  V30 9163 O 886.382 -1.50633 -1.03033 0
M  V30 9164 C 886.433 -2.88854 2.1736 0
M  V30 9165 O 886.154 -2.58707 3.53557 0
M  V30 9166 C 887.655 -3.83132 2.2299 0
M  V30 9167 H 884.875 -0.487245 0.461338 0
M  V30 9168 H 887.419 -0.970905 1.79982 0
M  V30 9169 H 885.574 -3.45377 1.7548 0
M  V30 9170 H 885.988 -3.42961 3.96835 0
M  V30 9171 H 887.462 -4.72575 2.85266 0
M  V30 9172 H 887.939 -4.21472 1.23524 0
M  V30 9173 H 888.545 -3.32541 2.65135 0
M  V30 9174 N 886.86 -1.21182 -1.00761 0
M  V30 9175 C 887.77 -0.984691 -2.12934 0
M  V30 9176 C 888.786 0.0623657 -1.73888 0
M  V30 9177 O 889.962 -0.1271 -2.00999 0
M  V30 9178 C 887.027 -0.549447 -3.42319 0
M  V30 9179 C 886.088 -1.66841 -3.95553 0
M  V30 9180 C 885.321 -1.25384 -5.18763 0
M  V30 9181 O 885.544 -0.126333 -5.7026 0
M  V30 9182 O 884.478 -2.06475 -5.65377 0
M  V30 9183 H 888.304 -1.92413 -2.3497 0
M  V30 9184 H 885.889 -0.99647 -1.11314 0
M  V30 9185 H 887.771 -0.316384 -4.20211 0
M  V30 9186 H 886.446 0.361304 -3.21677 0
M  V30 9187 H 885.353 -1.95585 -3.189 0
M  V30 9188 H 886.686 -2.55649 -4.206 0
M  V30 9189 N 888.338 1.20213 -1.01915 0
M  V30 9190 C 889.568 1.93341 -0.728197 0
M  V30 9191 C 889.976 1.75151 0.715454 0
M  V30 9192 O 889.319 1.06437 1.49722 0
M  V30 9193 C 889.381 3.45677 -0.9873 0
M  V30 9194 C 889.045 3.8763 -2.42057 0
M  V30 9195 C 890.042 3.93184 -3.40151 0
M  V30 9196 C 887.727 4.19547 -2.76199 0
M  V30 9197 C 889.721 4.30069 -4.70446 0
M  V30 9198 C 887.408 4.56106 -4.06707 0
M  V30 9199 C 888.406 4.6134 -5.03641 0
M  V30 9200 O 888.094 4.97059 -6.31813 0
M  V30 9201 H 887.826 0.621258 -0.266485 0
M  V30 9202 H 890.38 1.53577 -1.36393 0
M  V30 9203 H 888.61 3.85578 -0.294405 0
M  V30 9204 H 890.299 4.00035 -0.687536 0
M  V30 9205 H 891.065 3.68687 -3.15111 0
M  V30 9206 H 886.944 4.14663 -2.01434 0
M  V30 9207 H 890.488 4.34069 -5.46105 0
M  V30 9208 H 886.385 4.80059 -4.31525 0
M  V30 9209 H 887.153 5.15043 -6.36139 0
M  V30 9210 N 889.816 0.795718 1.36037 0
M  V30 9211 C 890.746 0.212803 2.32528 0
M  V30 9212 C 891.727 -0.655716 1.56953 0
M  V30 9213 O 892.912 -0.588238 1.85077 0
M  V30 9214 C 890.042 -0.648189 3.41198 0
M  V30 9215 C 888.996 0.120948 4.27829 0
M  V30 9216 C 888.322 -0.861044 5.27722 0
M  V30 9217 C 889.622 1.31375 5.05508 0
M  V30 9218 H 891.316 1.01893 2.81528 0
M  V30 9219 H 888.862 0.491422 1.35355 0
M  V30 9220 H 890.815 -1.06597 4.07695 0
M  V30 9221 H 889.539 -1.48709 2.9078 0
M  V30 9222 H 888.198 0.519777 3.62897 0
M  V30 9223 H 887.846 -1.69515 4.73575 0
M  V30 9224 H 887.546 -0.350808 5.86552 0
M  V30 9225 H 889.07 -1.27726 5.97092 0
M  V30 9226 H 890.484 0.971406 5.6501 0
M  V30 9227 H 888.881 1.75772 5.73781 0
M  V30 9228 H 889.951 2.10593 4.36782 0
M  V30 9229 N 891.294 -1.47756 0.548274 0
M  V30 9230 C 892.241 -2.29893 -0.204408 0
M  V30 9231 C 893.211 -1.38509 -0.916761 0
M  V30 9232 O 894.396 -1.67472 -0.91421 0
M  V30 9233 C 891.536 -3.22282 -1.23403 0
M  V30 9234 C 890.649 -4.28753 -0.528654 0
M  V30 9235 C 889.784 -5.08303 -1.54279 0
M  V30 9236 C 888.823 -6.06557 -0.821893 0
M  V30 9237 N 887.96 -6.79098 -1.78243 0
M  V30 9238 H 892.8 -2.93739 0.502163 0
M  V30 9239 H 890.337 -1.44793 0.259471 0
M  V30 9240 H 892.295 -3.74262 -1.84348 0
M  V30 9241 H 890.925 -2.6032 -1.90875 0
M  V30 9242 H 889.977 -3.79899 0.195132 0
M  V30 9243 H 891.289 -4.98787 0.0365066 0
M  V30 9244 H 890.443 -5.64388 -2.22602 0
M  V30 9245 H 889.182 -4.3815 -2.14186 0
M  V30 9246 H 888.187 -5.49659 -0.12469 0
M  V30 9247 H 889.412 -6.78715 -0.228685 0
M  V30 9248 H 887.358 -6.11682 -2.37025 0
M  V30 9249 H 887.275 -7.4527 -1.26919 0
M  V30 9250 H 888.543 -7.39762 -2.45709 0
M  V30 9251 N 892.772 -0.284283 -1.55015 0
M  V30 9252 C 894.049 0.382125 -1.91831 0
M  V30 9253 C 894.429 1.73007 -1.20962 0
M  V30 9254 O 893.777 2.25962 -0.339594 0
M  V30 9255 C 893.987 0.513341 -3.45204 0
M  V30 9256 C 895.335 0.791989 -4.17148 0
M  V30 9257 O 896.359 0.597799 -3.51148 0
M  V30 9258 O 895.218 1.16394 -5.33961 0
M  V30 9259 H 892.312 0.210707 -0.799707 0
M  V30 9260 H 894.858 -0.331111 -1.66438 0
M  V30 9261 H 893.63 -0.434911 -3.88876 0
M  V30 9262 H 893.253 1.27569 -3.76579 0
M  V30 9263 N 894.251 1.57596 -0.0117121 0
M  V30 9264 C 895.476 1.95764 0.684938 0
M  V30 9265 C 895.901 0.887285 1.65858 0
M  V30 9266 O 895.259 -0.153508 1.80649 0
M  V30 9267 C 895.307 3.33031 1.38285 0
M  V30 9268 O 894.411 3.28163 2.49765 0
M  V30 9269 H 893.752 0.638767 0.181309 0
M  V30 9270 H 896.282 2.04486 -0.0683883 0
M  V30 9271 H 896.292 3.68866 1.74362 0
M  V30 9272 H 894.967 4.10483 0.669043 0
M  V30 9273 H 893.544 3.04021 2.15929 0
M  V30 9274 N 895.729 -0.261212 1.5542 0
M  V30 9275 C 896.661 -1.34571 1.85535 0
M  V30 9276 C 897.674 -1.44979 0.740612 0
M  V30 9277 O 898.863 -1.46584 1.01859 0
M  V30 9278 C 895.963 -2.7258 2.01378 0
M  V30 9279 C 895.136 -2.84618 3.32131 0
M  V30 9280 C 894.195 -4.03379 3.37893 0
M  V30 9281 O 893.221 -3.93581 4.11197 0
M  V30 9282 N 894.423 -5.15893 2.66148 0
M  V30 9283 H 897.188 -1.09078 2.79145 0
M  V30 9284 H 894.749 -0.451327 1.55482 0
M  V30 9285 H 896.741 -3.50342 2.0259 0
M  V30 9286 H 895.311 -2.90844 1.14579 0
M  V30 9287 H 894.531 -1.93647 3.43358 0
M  V30 9288 H 895.819 -2.896 4.18341 0
M  V30 9289 H 895.217 -5.26743 2.06297 0
M  V30 9290 H 893.774 -5.91842 2.73069 0
M  V30 9291 N 897.207 -1.48554 -0.526253 0
M  V30 9292 C 898.155 -1.63804 -1.65139 0
M  V30 9293 C 899.149 -0.504398 -1.61716 0
M  V30 9294 O 900.355 -0.683241 -1.66529 0
M  V30 9295 H 896.73 -0.516071 -0.546969 0
M  V30 9296 H 898.701 -2.58294 -1.49421 0
M  V30 9297 C 897.45 -1.69843 -3.03395 0
M  V30 9298 H 896.773 -2.56438 -3.06724 0
M  V30 9299 H 898.213 -1.84555 -3.81727 0
M  V30 9300 C 896.672 -0.437875 -3.34042 0
M  V30 9301 O 897.202 0.447604 -3.99198 0
M  V30 9302 N 895.408 -0.308444 -2.88958 0
M  V30 9303 H 894.955 -1.02998 -2.36112 0
M  V30 9304 H 894.913 0.533952 -3.09833 0
M  V30 9305 N 898.685 0.775411 -1.37205 0
M  V30 9306 C 899.962 1.5229 -1.22748 0
M  V30 9307 C 900.342 2.10327 0.180487 0
M  V30 9308 O 899.69 1.95206 1.18772 0
M  V30 9309 C 899.9 2.60671 -2.3206 0
M  V30 9310 C 901.248 3.28173 -2.6942 0
M  V30 9311 O 902.272 2.70963 -2.31208 0
M  V30 9312 O 901.131 4.31598 -3.3524 0
M  V30 9313 H 898.225 0.674326 -0.478762 0
M  V30 9314 H 900.771 0.812691 -1.48975 0
M  V30 9315 H 899.543 2.1588 -3.26361 0
M  V30 9316 H 899.166 3.39296 -2.07277 0
M  V30 9317 N 900.163 1.21714 1.00117 0
M  V30 9318 C 901.388 1.06357 1.78054 0
M  V30 9319 C 901.813 -0.382075 1.84179 0
M  V30 9320 O 901.171 -1.27575 1.28819 0
M  V30 9321 C 901.219 1.66982 3.19608 0
M  V30 9322 O 900.323 0.917892 4.02055 0
M  V30 9323 H 899.664 0.374074 0.548602 0
M  V30 9324 H 902.194 1.61338 1.25822 0
M  V30 9325 H 902.204 1.71363 3.70268 0
M  V30 9326 H 900.879 2.72185 3.14465 0
M  V30 9327 H 899.456 0.949473 3.6061 0
M  V30 9328 N 901.641 -1.19671 1.02551 0
M  V30 9329 C 902.889 -1.88894 0.71858 0
M  V30 9330 C 903.21 -1.79797 -0.754856 0
M  V30 9331 O 902.48 -1.20621 -1.54362 0
M  V30 9332 H 901.06 -0.699244 0.262806 0
M  V30 9333 H 903.722 -1.45298 1.29902 0
M  V30 9334 H 902.818 -2.95309 1.00989 0
M  V30 9335 N 903.119 -0.802921 -1.35613 0
M  V30 9336 C 904.347 -0.39393 -2.03115 0
M  V30 9337 C 904.762 0.993961 -1.60517 0
M  V30 9338 O 904.119 1.63984 -0.800973 0
M  V30 9339 C 904.17 -0.463486 -3.58516 0
M  V30 9340 O 903.891 -1.79666 -3.99565 0
M  V30 9341 C 905.392 -0.0468377 -4.43275 0
M  V30 9342 H 902.612 -0.160519 -0.651517 0
M  V30 9343 H 905.156 -1.08552 -1.73311 0
M  V30 9344 H 903.311 0.179821 -3.86982 0
M  V30 9345 H 903.725 -1.75688 -4.942 0
M  V30 9346 H 905.199 -0.146626 -5.51805 0
M  V30 9347 H 905.676 1.00741 -4.2749 0
M  V30 9348 H 906.282 -0.663158 -4.20098 0
M  V30 9349 N 904.597 1.47463 -0.556102 0
M  V30 9350 C 906.013 1.58134 -0.21579 0
M  V30 9351 C 906.213 1.55486 1.28166 0
M  V30 9352 O 905.269 1.45768 2.06174 0
M  V30 9353 C 906.582 2.88686 -0.841464 0
M  V30 9354 C 908.13 3.02268 -0.812591 0
M  V30 9355 C 908.605 4.35518 -1.41731 0
M  V30 9356 N 910.096 4.42151 -1.38045 0
M  V30 9357 C 910.831 5.43817 -1.81799 0
M  V30 9358 N 910.327 6.52299 -2.33404 0
M  V30 9359 N 912.12 5.34855 -1.72877 0
M  V30 9360 H 904.271 1.47428 -1.52901 0
M  V30 9361 H 906.534 0.701586 -0.637559 0
M  V30 9362 H 906.24 2.96358 -1.8938 0
M  V30 9363 H 906.114 3.7572 -0.333846 0
M  V30 9364 H 908.501 2.94194 0.231056 0
M  V30 9365 H 908.582 2.16779 -1.35796 0
M  V30 9366 H 908.226 4.44348 -2.46002 0
M  V30 9367 H 908.156 5.19737 -0.847402 0
M  V30 9368 H 910.647 3.64348 -1.00296 0
M  V30 9369 H 910.96 7.26047 -2.64717 0
M  V30 9370 H 909.305 6.53192 -2.37414 0
M  V30 9371 H 912.496 4.49004 -1.32338 0
M  V30 9372 H 912.669 6.13949 -2.07294 0
M  V30 9373 N 906.075 0.2925 1.54862 0
M  V30 9374 C 907.305 -0.321646 2.04081 0
M  V30 9375 C 907.713 -1.48712 1.16967 0
M  V30 9376 O 907.056 -1.82755 0.18609 0
M  V30 9377 C 907.118 -0.848678 3.49339 0
M  V30 9378 C 906.782 0.190416 4.56603 0
M  V30 9379 C 907.779 1.01595 5.09877 0
M  V30 9380 C 905.464 0.329666 5.01217 0
M  V30 9381 C 907.458 1.96676 6.06298 0
M  V30 9382 C 905.145 1.28393 5.9746 0
M  V30 9383 C 906.143 2.10097 6.49883 0
M  V30 9384 O 905.831 3.03907 7.44242 0
M  V30 9385 H 905.563 -0.075098 0.671816 0
M  V30 9386 H 908.117 0.427531 2.00901 0
M  V30 9387 H 906.347 -1.64823 3.49815 0
M  V30 9388 H 908.036 -1.37779 3.81801 0
M  V30 9389 H 908.802 0.919197 4.7621 0
M  V30 9390 H 904.681 -0.296317 4.60047 0
M  V30 9391 H 908.225 2.60488 6.47141 0
M  V30 9392 H 904.122 1.38144 6.30545 0
M  V30 9393 H 904.89 2.98787 7.62016 0
M  V30 9394 N 907.553 -1.57587 0.0200696 0
M  V30 9395 C 908.778 -1.96124 -0.674547 0
M  V30 9396 C 909.203 -0.896068 -1.65385 0
M  V30 9397 O 908.561 0.143925 -1.80728 0
M  V30 9398 C 908.609 -3.3376 -1.36517 0
M  V30 9399 O 907.713 -3.29483 -2.48022 0
M  V30 9400 H 907.054 -0.639719 -0.177919 0
M  V30 9401 H 909.584 -2.04447 0.0792317 0
M  V30 9402 H 909.594 -3.69785 -1.72403 0
M  V30 9403 H 908.269 -4.10832 -0.647265 0
M  V30 9404 H 906.846 -3.05162 -2.14314 0
M  V30 9405 N 909.032 0.252966 -1.55557 0
M  V30 9406 C 910.26 0.999565 -1.81153 0
M  V30 9407 C 910.675 1.79181 -0.594955 0
M  V30 9408 O 910.032 1.77208 0.436311 0
M  V30 9409 C 910.083 1.94227 -3.04891 0
M  V30 9410 O 909.804 1.18209 -4.21851 0
M  V30 9411 C 911.305 2.80536 -3.43241 0
M  V30 9412 H 908.525 0.294402 -0.602966 0
M  V30 9413 H 911.069 0.277686 -2.02606 0
M  V30 9414 H 909.224 2.6185 -2.85505 0
M  V30 9415 H 909.638 1.81922 -4.9194 0
M  V30 9416 H 911.112 3.42442 -4.32941 0
M  V30 9417 H 911.589 3.51337 -2.6355 0
M  V30 9418 H 912.195 2.18373 -3.64956 0
M  V30 9419 N 910.51 1.48831 0.518367 0
M  V30 9420 C 911.757 1.57439 1.27355 0
M  V30 9421 C 912.085 0.25338 1.92843 0
M  V30 9422 O 911.34 -0.757323 1.80452 0
M  V30 9423 C 911.639 2.67003 2.3758 0
M  V30 9424 C 911.305 4.09069 1.89667 0
M  V30 9425 C 909.967 4.47733 1.76319 0
M  V30 9426 C 912.319 4.98052 1.53603 0
M  V30 9427 C 909.647 5.73173 1.25258 0
M  V30 9428 C 911.999 6.23992 1.04001 0
M  V30 9429 C 910.663 6.61503 0.892784 0
M  V30 9430 H 909.933 0.57611 0.466023 0
M  V30 9431 H 912.58 1.82595 0.577166 0
M  V30 9432 H 910.885 2.35751 3.12936 0
M  V30 9433 H 912.582 2.70876 2.95681 0
M  V30 9434 H 909.172 3.7854 2.01011 0
M  V30 9435 H 913.356 4.68849 1.62771 0
M  V30 9436 H 908.612 6.0095 1.12557 0
M  V30 9437 H 912.786 6.92331 0.751706 0
M  V30 9438 H 910.413 7.58587 0.494939 0
M  V30 9439 N 911.988 -0.768124 1.37614 0
M  V30 9440 C 913.216 -1.55726 1.36224 0
M  V30 9441 C 913.631 -1.8873 -0.0515357 0
M  V30 9442 O 912.988 -1.51718 -1.0143 0
M  V30 9443 C 913.039 -2.86533 2.20412 0
M  V30 9444 O 912.76 -2.54942 3.56281 0
M  V30 9445 C 914.261 -3.80745 2.27041 0
M  V30 9446 H 911.481 -0.482325 0.46648 0
M  V30 9447 H 914.025 -0.95176 1.81002 0
M  V30 9448 H 912.18 -3.43496 1.79134 0
M  V30 9449 H 912.594 -3.38732 4.00451 0
M  V30 9450 H 914.068 -4.69523 2.90263 0
M  V30 9451 H 914.545 -4.20138 1.27987 0
M  V30 9452 H 915.151 -3.2971 2.68647 0
M  V30 9453 N 913.466 -1.22244 -0.994698 0
M  V30 9454 C 914.877 -1.043 -1.5485 0
M  V30 9455 C 915.228 0.394102 -1.92201 0
M  V30 9456 O 914.353 1.27883 -1.74571 0
M  V30 9457 C 914.948 -1.88708 -2.8138 0
M  V30 9458 C 913.507 -1.75067 -3.3321 0
M  V30 9459 C 912.654 -1.85286 -2.06312 0
M  V30 9460 H 915.605 -1.36115 -0.815988 0
M  V30 9461 H 915.626 -1.40342 -3.53673 0
M  V30 9462 H 915.138 -2.93296 -2.54164 0
M  V30 9463 H 913.239 -0.732047 -3.65338 0
M  V30 9464 H 913.352 -2.57632 -4.03934 0
M  V30 9465 H 911.716 -1.28706 -2.19788 0
M  V30 9466 H 912.499 -2.91401 -1.81494 0
M  V30 9467 N 914.944 1.19125 -1.03184 0
M  V30 9468 C 916.36 1.40909 -0.749447 0
M  V30 9469 C 916.56 1.9022 0.664729 0
M  V30 9470 O 915.616 2.08085 1.43028 0
M  V30 9471 C 916.929 2.41761 -1.78807 0
M  V30 9472 C 918.477 2.55503 -1.80796 0
M  V30 9473 C 918.952 3.59612 -2.83626 0
M  V30 9474 N 920.443 3.6711 -2.82461 0
M  V30 9475 C 921.178 4.47366 -3.5868 0
M  V30 9476 N 920.674 5.31302 -4.44623 0
M  V30 9477 N 922.467 4.42044 -3.47208 0
M  V30 9478 H 914.618 0.854399 -1.94458 0
M  V30 9479 H 916.881 0.437753 -0.840878 0
M  V30 9480 H 916.587 2.12559 -2.80199 0
M  V30 9481 H 916.461 3.40981 -1.61283 0
M  V30 9482 H 918.848 2.84027 -0.800803 0
M  V30 9483 H 918.929 1.56427 -2.02396 0
M  V30 9484 H 918.573 3.3183 -3.84515 0
M  V30 9485 H 918.503 4.58345 -2.59283 0
M  V30 9486 H 920.994 3.07166 -2.2013 0
M  V30 9487 H 921.307 5.89667 -4.99512 0
M  V30 9488 H 919.652 5.30753 -4.48694 0
M  V30 9489 H 922.843 3.75513 -2.79477 0
M  V30 9490 H 923.016 5.0435 -4.06859 0
M  V30 9491 N 916.422 0.810101 1.35185 0
M  V30 9492 C 917.372 0.195541 2.2716 0
M  V30 9493 C 918.356 -0.632691 1.47939 0
M  V30 9494 O 919.548 -0.489372 1.701 0
M  V30 9495 C 916.677 -0.652164 3.37049 0
M  V30 9496 C 915.763 0.185989 4.23692 0
M  V30 9497 N 916.154 1.25073 4.90092 0
M  V30 9498 C 914.452 -0.0318033 4.45989 0
M  V30 9499 C 915.153 1.76272 5.54349 0
M  V30 9500 N 914.129 1.06861 5.32993 0
M  V30 9501 H 917.931 1.01018 2.75994 0
M  V30 9502 H 915.445 0.651612 1.48754 0
M  V30 9503 H 917.442 -1.10851 4.01893 0
M  V30 9504 H 916.102 -1.46511 2.89767 0
M  V30 9505 H 917.113 1.63341 4.91467 0
M  V30 9506 H 913.79 -0.813607 4.09496 0
M  V30 9507 H 915.18 2.65278 6.17315 0
M  V30 9508 N 917.9 -1.47166 0.563914 0
M  V30 9509 C 918.83 -2.32894 -0.168148 0
M  V30 9510 C 919.811 -1.44202 -0.902214 0
M  V30 9511 O 920.996 -1.73048 -0.881365 0
M  V30 9512 C 918.126 -3.26116 -1.19439 0
M  V30 9513 C 917.08 -4.24101 -0.576363 0
M  V30 9514 C 916.406 -5.06696 -1.70772 0
M  V30 9515 C 917.706 -5.20142 0.47425 0
M  V30 9516 H 919.4 -2.9435 0.547573 0
M  V30 9517 H 916.946 -1.41545 0.264778 0
M  V30 9518 H 918.899 -3.84935 -1.71474 0
M  V30 9519 H 917.623 -2.62728 -1.94014 0
M  V30 9520 H 916.282 -3.66519 -0.0772534 0
M  V30 9521 H 915.93 -4.39707 -2.44268 0
M  V30 9522 H 915.63 -5.7304 -1.29994 0
M  V30 9523 H 917.154 -5.68375 -2.2312 0
M  V30 9524 H 918.568 -5.73286 0.0397035 0
M  V30 9525 H 916.965 -5.94726 0.801287 0
M  V30 9526 H 918.035 -4.65214 1.36764 0
M  V30 9527 N 919.378 -0.300708 -1.54705 0
M  V30 9528 C 920.308 0.568675 -2.26469 0
M  V30 9529 C 921.289 1.13817 -1.26411 0
M  V30 9530 O 922.474 1.16756 -1.55183 0
M  V30 9531 C 919.604 1.74077 -3.00524 0
M  V30 9532 C 918.558 1.30165 -4.07727 0
M  V30 9533 C 917.884 2.55888 -4.69495 0
M  V30 9534 C 919.184 0.433106 -5.20501 0
M  V30 9535 H 920.878 -0.0298851 -2.99385 0
M  V30 9536 H 918.424 -0.0158135 -1.43991 0
M  V30 9537 H 920.377 2.35506 -3.49449 0
M  V30 9538 H 919.101 2.36556 -2.25186 0
M  V30 9539 H 917.76 0.710414 -3.59651 0
M  V30 9540 H 917.408 3.16681 -3.90797 0
M  V30 9541 H 917.108 2.27207 -5.41895 0
M  V30 9542 H 918.632 3.18121 -5.21183 0
M  V30 9543 H 920.046 0.95307 -5.65322 0
M  V30 9544 H 918.443 0.240085 -5.9962 0
M  V30 9545 H 919.513 -0.541866 -4.81863 0
M  V30 9546 N 920.856 1.57574 -0.0284266 0
M  V30 9547 C 922.272 1.56194 0.327958 0
M  V30 9548 C 922.472 1.03397 1.72949 0
M  V30 9549 O 921.528 0.680392 2.4316 0
M  V30 9550 C 922.841 3.00177 0.177196 0
M  V30 9551 C 924.389 3.12 0.250014 0
M  V30 9552 C 924.864 4.57821 0.128049 0
M  V30 9553 N 926.355 4.6283 0.185054 0
M  V30 9554 C 927.09 5.73286 0.114454 0
M  V30 9555 N 926.586 6.928 -0.00719225 0
M  V30 9556 N 928.379 5.61848 0.16839 0
M  V30 9557 H 920.53 1.90224 -0.944921 0
M  V30 9558 H 922.793 0.874987 -0.364832 0
M  V30 9559 H 922.499 3.42753 -0.788224 0
M  V30 9560 H 922.373 3.65101 0.94768 0
M  V30 9561 H 924.76 2.69337 1.20589 0
M  V30 9562 H 924.841 2.49799 -0.550835 0
M  V30 9563 H 924.485 5.01165 -0.824407 0
M  V30 9564 H 924.415 5.18001 0.947753 0
M  V30 9565 H 926.906 3.76867 0.279247 0
M  V30 9566 H 927.219 7.72781 -0.0543903 0
M  V30 9567 H 925.564 6.94987 -0.0419648 0
M  V30 9568 H 928.755 4.67367 0.261821 0
M  V30 9569 H 928.928 6.47907 0.109908 0
M  V30 9570 N 922.334 -0.244713 1.55689 0
M  V30 9571 C 923.264 -1.30667 1.93516 0
M  V30 9572 C 924.245 -1.50094 0.800371 0
M  V30 9573 O 925.43 -1.62665 1.06083 0
M  V30 9574 C 922.56 -2.66101 2.23176 0
M  V30 9575 C 921.514 -2.61366 3.38927 0
M  V30 9576 C 920.84 -4.00616 3.54134 0
M  V30 9577 C 922.14 -2.18161 4.74555 0
M  V30 9578 H 923.834 -0.992546 2.82469 0
M  V30 9579 H 921.38 -0.476018 1.35905 0
M  V30 9580 H 923.333 -3.4053 2.48228 0
M  V30 9581 H 922.057 -2.99154 1.31051 0
M  V30 9582 H 920.716 -1.89395 3.13887 0
M  V30 9583 H 920.364 -4.30938 2.59426 0
M  V30 9584 H 920.064 -3.98335 4.31975 0
M  V30 9585 H 921.588 -4.76741 3.8151 0
M  V30 9586 H 923.002 -2.82323 4.98965 0
M  V30 9587 H 921.399 -2.26988 5.55515 0
M  V30 9588 H 922.469 -1.13333 4.7147 0
M  V30 9589 N 923.813 -1.49104 -0.510467 0
M  V30 9590 C 925.059 -1.59322 -1.26444 0
M  V30 9591 C 925.414 -0.27219 -1.90465 0
M  V30 9592 O 924.707 0.726762 -1.77281 0
M  V30 9593 C 924.901 -2.68259 -2.36161 0
M  V30 9594 C 924.73 -4.10827 -1.82897 0
M  V30 9595 C 923.5 -4.77732 -1.64623 0
M  V30 9596 C 925.698 -4.96367 -1.34625 0
M  V30 9597 N 923.68 -6.04646 -1.06189 0
M  V30 9598 C 925.051 -6.13685 -0.882656 0
M  V30 9599 C 927.106 -4.8244 -1.2311 0
M  V30 9600 C 925.809 -7.18609 -0.315306 0
M  V30 9601 C 927.835 -5.87504 -0.677726 0
M  V30 9602 C 927.197 -7.04043 -0.224308 0
M  V30 9603 H 923.296 -0.637429 -0.453 0
M  V30 9604 H 925.88 -1.8607 -0.573237 0
M  V30 9605 H 924.051 -2.433 -3.02753 0
M  V30 9606 H 925.783 -2.68052 -3.032 0
M  V30 9607 H 922.538 -4.34377 -1.88716 0
M  V30 9608 H 922.962 -6.72383 -0.78927 0
M  V30 9609 H 927.604 -3.92663 -1.56766 0
M  V30 9610 H 925.322 -8.08093 0.0335425 0
M  V30 9611 H 928.908 -5.78785 -0.591535 0
M  V30 9612 H 927.788 -7.83952 0.197212 0
M  V30 9613 N 925.291 0.760815 -1.38019 0
M  V30 9614 C 926.516 1.55513 -1.37224 0
M  V30 9615 C 926.941 1.88062 0.037611 0
M  V30 9616 O 926.299 1.50042 1.0177 0
M  V30 9617 C 926.347 2.83539 -2.22796 0
M  V30 9618 O 925.451 3.78384 -1.64009 0
M  V30 9619 H 924.792 0.470642 -0.468393 0
M  V30 9620 H 927.322 0.940792 -1.81687 0
M  V30 9621 H 927.332 3.32535 -2.36399 0
M  V30 9622 H 926.007 2.59178 -3.25269 0
M  V30 9623 H 924.584 3.37063 -1.59508 0
M  V30 9624 N 926.769 1.22769 0.988202 0
M  V30 9625 C 927.717 0.999271 2.10041 0
M  V30 9626 C 928.711 -0.0591767 1.69297 0
M  V30 9627 O 929.917 0.0936653 1.79756 0
M  V30 9628 H 926.292 0.30599 0.686931 0
M  V30 9629 H 928.263 1.94294 2.26478 0
M  V30 9630 C 927.012 0.59873 3.42506 0
M  V30 9631 H 926.335 1.40487 3.74304 0
M  V30 9632 H 927.775 0.478353 4.21293 0
M  V30 9633 C 926.234 -0.692216 3.29712 0
M  V30 9634 O 926.764 -1.74342 3.61895 0
M  V30 9635 N 924.97 -0.665163 2.82885 0
M  V30 9636 H 924.517 0.190604 2.56894 0
M  V30 9637 H 924.475 -1.52917 2.74706 0
M  V30 9638 N 928.247 -1.18576 1.03814 0
M  V30 9639 C 929.477 -1.92158 0.758864 0
M  V30 9640 C 929.885 -1.76267 -0.687498 0
M  V30 9641 O 929.228 -1.08806 -1.4801 0
M  V30 9642 C 929.29 -3.44063 1.04217 0
M  V30 9643 C 928.954 -3.8373 2.48193 0
M  V30 9644 C 929.951 -3.87722 3.46363 0
M  V30 9645 C 927.636 -4.151 2.82838 0
M  V30 9646 C 929.63 -4.2253 4.77229 0
M  V30 9647 C 927.317 -4.49578 4.13911 0
M  V30 9648 C 928.315 -4.53269 5.10917 0
M  V30 9649 O 928.003 -4.86945 6.39641 0
M  V30 9650 H 927.735 -0.61694 0.276335 0
M  V30 9651 H 930.289 -1.51388 1.38819 0
M  V30 9652 H 928.519 -3.85061 0.355709 0
M  V30 9653 H 930.208 -3.9889 0.751091 0
M  V30 9654 H 930.974 -3.63627 3.20936 0
M  V30 9655 H 926.853 -4.11406 2.08006 0
M  V30 9656 H 930.397 -4.25326 5.52941 0
M  V30 9657 H 926.294 -4.73133 4.39107 0
M  V30 9658 H 927.062 -5.04857 6.44253 0
M  V30 9659 N 929.725 -0.817259 -1.34754 0
M  V30 9660 C 931.002 -0.325468 -1.92873 0
M  V30 9661 C 931.382 1.18643 -1.74606 0
M  V30 9662 O 930.73 1.9909 -1.1214 0
M  V30 9663 C 930.94 -0.74858 -3.40877 0
M  V30 9664 C 932.288 -0.744165 -4.18028 0
M  V30 9665 O 933.312 -0.690799 -3.49437 0
M  V30 9666 O 932.171 -0.812207 -5.40431 0
M  V30 9667 H 929.265 -0.0876397 -0.822343 0
M  V30 9668 H 931.811 -0.901671 -1.43764 0
M  V30 9669 H 930.583 -1.79017 -3.47949 0
M  V30 9670 H 930.206 -0.147764 -3.97325 0
M  V30 9671 N 931.203 1.46865 -0.571711 0
M  V30 9672 C 932.133 2.3298 0.155795 0
M  V30 9673 C 933.114 1.44678 0.894553 0
M  V30 9674 O 934.299 1.73513 0.872176 0
M  V30 9675 C 931.429 3.26745 1.17708 0
M  V30 9676 C 930.383 4.24401 0.553863 0
M  V30 9677 C 929.709 5.07595 1.68083 0
M  V30 9678 C 931.009 5.19884 -0.501827 0
M  V30 9679 H 932.703 2.94056 -0.563176 0
M  V30 9680 H 930.249 1.41402 -0.27228 0
M  V30 9681 H 932.202 3.85838 1.6943 0
M  V30 9682 H 930.926 2.63753 1.92618 0
M  V30 9683 H 929.585 3.66554 0.057815 0
M  V30 9684 H 929.233 4.40996 2.41933 0
M  V30 9685 H 928.933 5.73722 1.26953 0
M  V30 9686 H 930.457 5.6955 2.20103 0
M  V30 9687 H 931.871 5.73257 -0.0701057 0
M  V30 9688 H 930.268 5.94293 -0.832815 0
M  V30 9689 H 931.338 4.64482 -1.39229 0
M  V30 9690 N 932.681 0.308908 1.54543 0
M  V30 9691 C 934.092 -0.182144 1.85809 0
M  V30 9692 C 934.443 -1.52796 1.23076 0
M  V30 9693 O 933.568 -2.09775 0.531358 0
M  V30 9694 C 934.163 -0.337275 3.37117 0
M  V30 9695 C 932.722 -0.772545 3.68387 0
M  V30 9696 C 931.869 0.114451 2.77064 0
M  V30 9697 H 934.82 0.529671 1.496 0
M  V30 9698 H 934.841 -1.17058 3.62046 0
M  V30 9699 H 934.353 0.642382 3.82747 0
M  V30 9700 H 932.454 -1.76247 3.2828 0
M  V30 9701 H 932.567 -0.586453 4.75497 0
M  V30 9702 H 930.931 -0.407581 2.51418 0
M  V30 9703 H 931.714 1.09061 3.25516 0
M  V30 9704 N 934.159 -1.57557 0.0367827 0
M  V30 9705 C 935.405 -1.93224 -0.635306 0
M  V30 9706 C 935.76 -0.914194 -1.69293 0
M  V30 9707 O 935.053 0.0686974 -1.91477 0
M  V30 9708 C 935.247 -3.33387 -1.28794 0
M  V30 9709 C 935.076 -4.48731 -0.295055 0
M  V30 9710 C 933.846 -5.05185 0.10783 0
M  V30 9711 C 936.044 -5.12294 0.453749 0
M  V30 9712 N 934.026 -6.04054 1.09508 0
M  V30 9713 C 935.397 -6.06335 1.29452 0
M  V30 9714 C 937.452 -4.95244 0.513622 0
M  V30 9715 C 936.155 -6.85158 2.18977 0
M  V30 9716 C 938.181 -5.74682 1.39624 0
M  V30 9717 C 937.543 -6.68344 2.22477 0
M  V30 9718 H 933.642 -0.754772 -0.204555 0
M  V30 9719 H 936.226 -1.94413 0.105751 0
M  V30 9720 H 934.397 -3.33002 -1.9991 0
M  V30 9721 H 936.129 -3.56381 -1.91767 0
M  V30 9722 H 932.884 -4.7284 -0.268192 0
M  V30 9723 H 933.308 -6.5818 1.58518 0
M  V30 9724 H 937.95 -4.2265 -0.112699 0
M  V30 9725 H 935.668 -7.57052 2.82661 0
M  V30 9726 H 939.254 -5.6352 1.44696 0
M  V30 9727 H 938.134 -7.2874 2.89668 0
M  V30 9728 N 935.637 0.236453 -1.55816 0
M  V30 9729 C 936.569 1.31602 -1.87653 0
M  V30 9730 C 937.582 1.43782 -0.763584 0
M  V30 9731 O 938.771 1.44945 -1.04178 0
M  V30 9732 C 935.871 2.69342 -2.05689 0
M  V30 9733 C 935.044 2.79298 -3.36617 0
M  V30 9734 C 934.103 3.97952 -3.44268 0
M  V30 9735 O 933.129 3.86989 -4.17406 0
M  V30 9736 N 934.331 5.11594 -2.74321 0
M  V30 9737 H 937.096 1.04623 -2.80845 0
M  V30 9738 H 934.657 0.426534 -1.5618 0
M  V30 9739 H 936.649 3.47074 -2.08138 0
M  V30 9740 H 935.219 2.88984 -1.19192 0
M  V30 9741 H 934.439 1.8816 -3.46395 0
M  V30 9742 H 935.727 2.82908 -4.22895 0
M  V30 9743 H 935.125 5.23394 -2.14651 0
M  V30 9744 H 933.682 5.87422 -2.8245 0
M  V30 9745 N 937.115 1.49373 0.502552 0
M  V30 9746 C 938.392 1.49282 1.26389 0
M  V30 9747 C 938.772 0.219674 2.09954 0
M  V30 9748 O 938.12 -0.797991 2.14113 0
M  V30 9749 C 938.33 2.77083 2.12194 0
M  V30 9750 C 939.678 3.26511 2.71433 0
M  V30 9751 O 940.702 2.78189 2.22462 0
M  V30 9752 O 939.561 4.10665 3.60578 0
M  V30 9753 H 936.655 0.597415 0.57186 0
M  V30 9754 H 939.201 1.61634 0.516951 0
M  V30 9755 H 937.973 3.61237 1.50411 0
M  V30 9756 H 937.596 2.67583 2.94084 0
M  V30 9757 N 938.594 -0.753485 1.38421 0
M  V30 9758 C 940.01 -1.05656 1.1962 0
M  V30 9759 C 940.21 -2.0145 0.0449443 0
M  V30 9760 O 939.266 -2.45039 -0.609253 0
M  V30 9761 C 940.579 -1.63655 2.52265 0
M  V30 9762 C 942.127 -1.75825 2.58949 0
M  V30 9763 C 942.602 -2.37236 3.91769 0
M  V30 9764 N 944.093 -2.44666 3.9331 0
M  V30 9765 C 944.828 -2.93077 4.92842 0
M  V30 9766 N 944.324 -3.41523 6.02772 0
M  V30 9767 N 946.117 -2.92118 4.80232 0
M  V30 9768 H 938.268 -0.117799 2.12073 0
M  V30 9769 H 940.531 -0.114889 0.941012 0
M  V30 9770 H 940.237 -1.00734 3.36965 0
M  V30 9771 H 940.111 -2.62715 2.70667 0
M  V30 9772 H 942.498 -2.37873 1.74644 0
M  V30 9773 H 942.579 -0.754693 2.44414 0
M  V30 9774 H 942.223 -1.75822 4.76497 0
M  V30 9775 H 942.153 -3.38233 4.03616 0
M  V30 9776 H 944.644 -2.10403 3.1391 0
M  V30 9777 H 944.957 -3.76919 6.74649 0
M  V30 9778 H 943.302 -3.3958 6.06391 0
M  V30 9779 H 946.493 -2.53582 3.93464 0
M  V30 9780 H 946.666 -3.29535 5.57952 0
M  V30 9781 N 940.072 -1.23292 -0.981677 0
M  V30 9782 C 941.488 -0.995295 -1.24764 0
M  V30 9783 C 941.688 0.304379 -1.99188 0
M  V30 9784 O 940.744 1.02414 -2.30798 0
M  V30 9785 C 942.057 -2.20135 -2.04844 0
M  V30 9786 C 943.605 -2.24612 -2.17988 0
M  V30 9787 C 944.08 -3.448 -3.01458 0
M  V30 9788 N 945.571 -3.45031 -3.09044 0
M  V30 9789 C 946.306 -4.34683 -3.7395 0
M  V30 9790 N 945.802 -5.34569 -4.4069 0
M  V30 9791 N 947.595 -4.22429 -3.70823 0
M  V30 9792 H 939.746 -2.06834 -0.483052 0
M  V30 9793 H 942.009 -0.906929 -0.276014 0
M  V30 9794 H 941.715 -3.14446 -1.57532 0
M  V30 9795 H 941.589 -2.21115 -3.05594 0
M  V30 9796 H 943.976 -1.30841 -2.64508 0
M  V30 9797 H 944.057 -2.27664 -1.16631 0
M  V30 9798 H 943.701 -4.38877 -2.55635 0
M  V30 9799 H 943.631 -3.38988 -4.02982 0
M  V30 9800 H 946.122 -2.72759 -2.61555 0
M  V30 9801 H 946.435 -5.99236 -4.87991 0
M  V30 9802 H 944.78 -5.3847 -4.39403 0
M  V30 9803 H 947.971 -3.43639 -3.17851 0
M  V30 9804 H 948.144 -4.92501 -4.21126 0
M  V30 9805 N 941.55 1.18024 -1.04442 0
M  V30 9806 C 942.796 1.88631 -0.760907 0
M  V30 9807 C 943.151 1.79059 0.703957 0
M  V30 9808 O 942.444 1.18261 1.50748 0
M  V30 9809 C 942.638 3.37834 -1.16631 0
M  V30 9810 C 942.467 3.61929 -2.66904 0
M  V30 9811 C 941.237 3.7908 -3.34105 0
M  V30 9812 C 943.435 3.622 -3.65124 0
M  V30 9813 N 941.417 3.90949 -4.73321 0
M  V30 9814 C 942.788 3.79827 -4.90032 0
M  V30 9815 C 944.843 3.45308 -3.58701 0
M  V30 9816 C 943.546 3.82312 -6.09287 0
M  V30 9817 C 945.572 3.49078 -4.77387 0
M  V30 9818 C 944.934 3.67206 -6.01115 0
M  V30 9819 H 941.033 0.708704 -0.330549 0
M  V30 9820 H 943.617 1.41739 -1.33485 0
M  V30 9821 H 941.788 3.83413 -0.6204 0
M  V30 9822 H 943.52 3.96026 -0.83342 0
M  V30 9823 H 940.275 3.78619 -2.84508 0
M  V30 9824 H 940.699 4.00696 -5.45685 0
M  V30 9825 H 945.341 3.30236 -2.64015 0
M  V30 9826 H 943.059 3.96171 -7.04325 0
M  V30 9827 H 946.645 3.37277 -4.74063 0
M  V30 9828 H 945.525 3.70017 -6.91417 0
M  V30 9829 N 943.028 0.824394 1.34319 0
M  V30 9830 C 944.253 0.425194 2.02995 0
M  V30 9831 C 944.678 -0.961476 1.6167 0
M  V30 9832 O 944.036 -1.62593 0.80207 0
M  V30 9833 C 944.084 0.537004 3.56579 0
M  V30 9834 O 943.188 -0.442576 4.10018 0
M  V30 9835 H 942.529 0.174853 0.640564 0
M  V30 9836 H 945.059 1.11522 1.71534 0
M  V30 9837 H 945.069 0.413311 4.05901 0
M  V30 9838 H 943.744 1.54836 3.86004 0
M  V30 9839 H 942.321 -0.277644 3.71865 0
M  V30 9840 N 944.506 -1.46559 0.579492 0
M  V30 9841 C 945.752 -2.02699 0.0639363 0
M  V30 9842 C 946.085 -1.4504 -1.29139 0
M  V30 9843 O 945.36 -0.614284 -1.84545 0
M  V30 9844 C 945.643 -3.601 -0.00528618 0
M  V30 9845 C 945.496 -4.28149 1.37871 0
M  V30 9846 C 946.815 -4.34375 -0.707537 0
M  V30 9847 H 943.934 -0.736586 0.0247085 0
M  V30 9848 H 946.576 -1.74739 0.746071 0
M  V30 9849 H 944.726 -3.84052 -0.586206 0
M  V30 9850 H 946.398 -4.1547 2.00455 0
M  V30 9851 H 944.641 -3.87636 1.94732 0
M  V30 9852 H 945.312 -5.36888 1.28278 0
M  V30 9853 H 947.788 -4.15549 -0.214064 0
M  V30 9854 H 946.664 -5.44091 -0.724992 0
M  V30 9855 H 946.925 -4.052 -1.7682 0
M  V30 9856 N 945.984 -0.3171 -1.54377 0
M  V30 9857 C 947.232 0.286842 -2.00054 0
M  V30 9858 C 947.553 1.53161 -1.20692 0
M  V30 9859 O 946.823 1.93479 -0.307045 0
M  V30 9860 H 945.403 0.108979 -0.739008 0
M  V30 9861 H 948.065 -0.432152 -1.90049 0
M  V30 9862 H 947.161 0.547729 -3.07256 0
M  V30 9863 N 947.462 1.57535 -0.0451378 0
M  V30 9864 C 948.71 1.92071 0.628743 0
M  V30 9865 C 949.031 0.923635 1.71738 0
M  V30 9866 O 948.301 -0.0324376 1.95873 0
M  V30 9867 H 946.881 0.708995 0.235233 0
M  V30 9868 H 949.543 1.9466 -0.0967177 0
M  V30 9869 H 948.639 2.9314 1.07123 0
M  V30 9870 N 948.94 -0.228186 1.55939 0
M  V30 9871 C 950.188 -0.951668 1.78291 0
M  V30 9872 C 950.509 -1.85132 0.612474 0
M  V30 9873 O 949.779 -1.92356 -0.370942 0
M  V30 9874 H 948.359 -0.354388 0.657585 0
M  V30 9875 H 951.021 -0.241635 1.93396 0
M  V30 9876 H 950.117 -1.56239 2.70177 0
M  V30 9877 N 950.418 -1.49637 -0.494624 0
M  V30 9878 C 951.348 -1.69692 -1.60396 0
M  V30 9879 C 952.329 -0.545648 -1.61111 0
M  V30 9880 O 953.514 -0.782202 -1.77751 0
M  V30 9881 C 950.644 -1.76934 -2.9885 0
M  V30 9882 C 949.598 -2.91915 -3.13001 0
M  V30 9883 C 948.924 -2.84276 -4.5287 0
M  V30 9884 C 950.224 -4.32764 -2.92426 0
M  V30 9885 H 951.918 -2.6257 -1.43866 0
M  V30 9886 H 949.464 -1.26355 -0.690679 0
M  V30 9887 H 951.417 -1.8955 -3.76362 0
M  V30 9888 H 950.141 -0.806609 -3.16483 0
M  V30 9889 H 948.8 -2.78911 -2.37916 0
M  V30 9890 H 948.448 -1.85897 -4.67388 0
M  V30 9891 H 948.148 -3.61452 -4.63278 0
M  V30 9892 H 949.672 -2.98909 -5.32434 0
M  V30 9893 H 951.086 -4.46415 -3.59703 0
M  V30 9894 H 949.483 -5.1121 -3.143 0
M  V30 9895 H 950.553 -4.46765 -1.88491 0
M  V30 9896 N 951.896 0.746133 -1.38819 0
M  V30 9897 C 952.828 1.86991 -1.3254 0
M  V30 9898 C 953.841 1.61077 -0.236216 0
M  V30 9899 O 955.03 1.71518 -0.494341 0
M  V30 9900 C 952.13 3.22786 -1.03258 0
M  V30 9901 C 951.303 3.76145 -2.23234 0
M  V30 9902 C 950.362 4.90474 -1.90581 0
M  V30 9903 O 949.388 5.04717 -2.63153 0
M  V30 9904 N 950.59 5.74015 -0.86525 0
M  V30 9905 H 953.355 1.92885 -2.2938 0
M  V30 9906 H 950.916 0.926392 -1.32776 0
M  V30 9907 H 952.908 3.96824 -0.794533 0
M  V30 9908 H 951.478 3.12231 -0.151895 0
M  V30 9909 H 950.698 2.93587 -2.63059 0
M  V30 9910 H 951.986 4.08528 -3.03285 0
M  V30 9911 H 951.384 5.65086 -0.263577 0
M  V30 9912 H 949.941 6.48168 -0.687087 0
M  V30 9913 N 953.375 1.23811 0.975125 0
M  V30 9914 C 954.338 1.02505 2.05001 0
M  V30 9915 C 955.338 -0.0150084 1.60793 0
M  V30 9916 O 956.528 0.225246 1.72738 0
M  V30 9917 C 953.66 0.552087 3.364 0
M  V30 9918 H 954.853 1.979 2.25335 0
M  V30 9919 H 952.406 1.05929 1.1493 0
M  V30 9920 H 953.141 -0.405394 3.21756 0
M  V30 9921 H 952.926 1.30267 3.69828 0
M  V30 9922 H 954.416 0.423828 4.15444 0
M  V30 9923 N 954.853 -1.17469 1.05066 0
M  V30 9924 C 955.785 -2.20974 0.608526 0
M  V30 9925 C 956.798 -1.59481 -0.327066 0
M  V30 9926 O 957.987 -1.78096 -0.12 0
M  V30 9927 C 955.087 -3.38652 -0.12969 0
M  V30 9928 C 954.26 -4.29716 0.816285 0
M  V30 9929 C 953.319 -5.26064 0.119556 0
M  V30 9930 O 952.345 -5.64194 0.753241 0
M  V30 9931 N 953.547 -5.69126 -1.14347 0
M  V30 9932 H 956.312 -2.59529 1.49882 0
M  V30 9933 H 953.873 -1.32355 0.932406 0
M  V30 9934 H 955.865 -4.00139 -0.605886 0
M  V30 9935 H 954.435 -2.98705 -0.921638 0
M  V30 9936 H 953.655 -3.6568 1.47213 0
M  V30 9937 H 954.943 -4.87449 1.45845 0
M  V30 9938 H 954.341 -5.4022 -1.67866 0
M  V30 9939 H 952.898 -6.32764 -1.56376 0
M  V30 9940 N 956.331 -0.831506 -1.3388 0
M  V30 9941 C 957.556 -0.435954 -2.02766 0
M  V30 9942 C 957.981 0.952889 -1.62178 0
M  V30 9943 O 957.339 1.62166 -0.810681 0
M  V30 9944 C 957.387 -0.555907 -3.56289 0
M  V30 9945 O 956.491 0.420826 -4.10247 0
M  V30 9946 H 955.832 -0.178248 -0.639628 0
M  V30 9947 H 958.362 -1.1243 -1.70941 0
M  V30 9948 H 958.372 -0.434831 -4.05676 0
M  V30 9949 H 957.047 -1.56881 -3.85177 0
M  V30 9950 H 955.624 0.257919 -3.72007 0
M  V30 9951 N 957.809 1.4625 -0.587256 0
M  V30 9952 C 959.086 1.95599 -0.00750181 0
M  V30 9953 C 959.466 1.52989 1.45457 0
M  V30 9954 O 958.814 0.782731 2.14676 0
M  V30 9955 C 959.024 3.48513 -0.184309 0
M  V30 9956 C 960.372 4.24565 -0.0544972 0
M  V30 9957 O 961.396 3.5602 -0.113378 0
M  V30 9958 O 960.255 5.46445 0.0774075 0
M  V30 9959 H 957.349 0.825649 0.0472495 0
M  V30 9960 H 959.895 1.56512 -0.655893 0
M  V30 9961 H 958.667 3.72428 -1.20053 0
M  V30 9962 H 958.29 3.9444 0.500301 0
M  V30 9963 N 959.287 0.325282 1.54207 0
M  V30 9964 C 960.517 -0.278285 2.04717 0
M  V30 9965 C 960.925 -1.46198 1.20095 0
M  V30 9966 O 960.268 -1.82319 0.224813 0
M  V30 9967 C 960.33 -0.774387 3.51061 0
M  V30 9968 C 959.994 0.287225 4.56096 0
M  V30 9969 C 960.991 1.12388 5.07607 0
M  V30 9970 C 958.676 0.435908 5.00405 0
M  V30 9971 C 960.67 2.09492 6.0199 0
M  V30 9972 C 958.357 1.41037 5.94602 0
M  V30 9973 C 959.355 2.23834 6.45281 0
M  V30 9974 O 959.043 3.19625 7.37628 0
M  V30 9975 H 958.775 -0.0608309 0.673257 0
M  V30 9976 H 961.329 0.470049 1.99949 0
M  V30 9977 H 959.559 -1.57366 3.53232 0
M  V30 9978 H 961.248 -1.29649 3.84637 0
M  V30 9979 H 962.014 1.02 4.74153 0
M  V30 9980 H 957.893 -0.198668 4.60572 0
M  V30 9981 H 961.437 2.74157 6.4147 0
M  V30 9982 H 957.334 1.51487 6.27473 0
M  V30 9983 H 958.102 3.14884 7.55507 0
M  V30 9984 N 960.765 -1.57509 0.0534917 0
M  V30 9985 C 961.99 -1.97511 -0.632794 0
M  V30 9986 C 962.415 -0.930947 -1.63447 0
M  V30 9987 O 961.773 0.105558 -1.80992 0
M  V30 9988 C 961.821 -3.3658 -1.29407 0
M  V30 9989 O 960.925 -3.3467 -2.40977 0
M  V30 9990 H 960.266 -0.643349 -0.16431 0
M  V30 9991 H 962.796 -2.04232 0.12258 0
M  V30 9992 H 962.806 -3.73359 -1.64521 0
M  V30 9993 H 961.481 -4.12113 -0.559976 0
M  V30 9994 H 960.058 -3.09639 -2.07793 0
M  V30 9995 N 962.243 0.219913 -1.56058 0
M  V30 9996 C 963.489 0.945463 -1.79412 0
M  V30 9997 C 963.822 1.83922 -0.62341 0
M  V30 9998 O 963.097 1.90806 0.377256 0
M  V30 9999 C 963.38 1.783 -3.1286 0
M  V30 10000 C 963.233 0.915626 -4.40382 0
M  V30 10001 C 964.552 2.76045 -3.42764 0
M  V30 10002 H 961.671 0.342288 -0.652693 0
M  V30 10003 H 964.313 0.214235 -1.88788 0
M  V30 10004 H 962.463 2.40642 -3.04998 0
M  V30 10005 H 964.135 0.30882 -4.60265 0
M  V30 10006 H 962.378 0.221124 -4.33236 0
M  V30 10007 H 963.049 1.53607 -5.30197 0
M  V30 10008 H 965.525 2.23838 -3.50764 0
M  V30 10009 H 964.401 3.31748 -4.37304 0
M  V30 10010 H 964.662 3.53866 -2.65012 0
M  V30 10011 N 963.721 1.49897 0.486681 0
M  V30 10012 C 964.998 1.50614 1.24799 0
M  V30 10013 C 965.378 0.24193 2.09709 0
M  V30 10014 O 964.726 -0.775237 2.14947 0
M  V30 10015 C 964.936 2.79318 2.09243 0
M  V30 10016 C 966.284 3.29371 2.67955 0
M  V30 10017 O 967.308 2.80533 2.19499 0
M  V30 10018 O 966.167 4.14466 3.56202 0
M  V30 10019 H 963.261 0.603447 0.565491 0
M  V30 10020 H 965.807 1.62174 0.499778 0
M  V30 10021 H 964.579 3.62812 1.46572 0
M  V30 10022 H 964.202 2.70687 2.91229 0
M  V30 10023 N 965.199 -0.738761 1.39212 0
M  V30 10024 C 966.429 -1.5258 1.39295 0
M  V30 10025 C 966.837 -1.89194 -0.0153 0
M  V30 10026 O 966.18 -1.5435 -0.996073 0
M  V30 10027 C 966.242 -2.84462 2.19822 0
M  V30 10028 C 965.906 -2.70303 3.68491 0
M  V30 10029 C 966.903 -2.39102 4.61656 0
M  V30 10030 C 964.588 -2.87291 4.1203 0
M  V30 10031 C 966.582 -2.25066 5.96342 0
M  V30 10032 C 964.269 -2.72874 5.46793 0
M  V30 10033 C 965.267 -2.41807 6.38763 0
M  V30 10034 O 964.955 -2.27475 7.71045 0
M  V30 10035 H 964.687 -0.478236 0.477772 0
M  V30 10036 H 967.241 -0.920846 1.83602 0
M  V30 10037 H 965.471 -3.47202 1.70257 0
M  V30 10038 H 967.16 -3.46058 2.12129 0
M  V30 10039 H 967.926 -2.25632 4.2932 0
M  V30 10040 H 963.805 -3.10466 3.40781 0
M  V30 10041 H 967.349 -2.00739 6.68094 0
M  V30 10042 H 963.246 -2.85922 5.78722 0
M  V30 10043 H 964.014 -2.42574 7.81729 0
M  V30 10044 N 966.677 -1.24326 -0.968545 0
M  V30 10045 C 968.093 -1.00847 -1.23701 0
M  V30 10046 C 968.293 0.283235 -1.99499 0
M  V30 10047 O 967.349 0.999607 -2.31871 0
M  V30 10048 C 968.662 -2.22295 -2.02498 0
M  V30 10049 C 970.21 -2.26911 -2.15593 0
M  V30 10050 C 970.685 -3.47978 -2.97784 0
M  V30 10051 N 972.176 -3.48289 -3.05367 0
M  V30 10052 C 972.911 -4.38625 -3.69318 0
M  V30 10053 N 972.407 -5.39213 -4.34995 0
M  V30 10054 N 974.2 -4.26339 -3.66322 0
M  V30 10055 H 966.351 -2.07335 -0.461087 0
M  V30 10056 H 968.614 -0.909805 -0.26638 0
M  V30 10057 H 968.32 -3.161 -1.54188 0
M  V30 10058 H 968.194 -2.24344 -3.03232 0
M  V30 10059 H 970.581 -1.33639 -2.63106 0
M  V30 10060 H 970.662 -2.28888 -1.14209 0
M  V30 10061 H 970.306 -4.41564 -2.50965 0
M  V30 10062 H 970.236 -3.43244 -3.99364 0
M  V30 10063 H 972.727 -2.75517 -2.58648 0
M  V30 10064 H 973.04 -6.04378 -4.81608 0
M  V30 10065 H 971.385 -5.43101 -4.33667 0
M  V30 10066 H 974.576 -3.46991 -3.14189 0
M  V30 10067 H 974.749 -4.9694 -4.15878 0
M  V30 10068 N 968.156 1.1691 -1.05688 0
M  V30 10069 C 969.404 1.86922 -0.768409 0
M  V30 10070 C 969.725 1.81735 0.706921 0
M  V30 10071 O 968.995 1.24671 1.51109 0
M  V30 10072 H 967.575 0.69203 -0.281253 0
M  V30 10073 H 970.237 1.41803 -1.33708 0
M  V30 10074 H 969.333 2.92528 -1.08783 0
M  V30 10075 N 969.634 0.838594 1.33437 0
M  V30 10076 C 970.88 0.434813 1.98084 0
M  V30 10077 C 971.213 -1.00331 1.66275 0
M  V30 10078 O 970.488 -1.70139 0.942501 0
M  V30 10079 C 970.771 0.655602 3.54082 0
M  V30 10080 C 970.624 2.14097 3.95578 0
M  V30 10081 C 971.943 0.101576 4.39983 0
M  V30 10082 H 969.062 0.159456 0.719544 0
M  V30 10083 H 971.704 1.05406 1.58081 0
M  V30 10084 H 969.854 0.128501 3.88287 0
M  V30 10085 H 971.526 2.73292 3.71631 0
M  V30 10086 H 969.769 2.62558 3.4532 0
M  V30 10087 H 970.44 2.24621 5.04231 0
M  V30 10088 H 972.916 0.552122 4.12421 0
M  V30 10089 H 971.792 0.28575 5.48156 0
M  V30 10090 H 972.053 -0.994616 4.30767 0
M  V30 10091 N 971.112 -1.45937 0.595003 0
M  V30 10092 C 972.337 -2.07207 0.0894416 0
M  V30 10093 C 972.762 -1.43884 -1.21157 0
M  V30 10094 O 972.12 -0.526998 -1.73472 0
M  V30 10095 C 972.168 -3.60565 -0.0499828 0
M  V30 10096 O 971.272 -3.97364 -1.10342 0
M  V30 10097 H 970.613 -0.660471 0.0683627 0
M  V30 10098 H 973.143 -1.87386 0.82144 0
M  V30 10099 H 973.153 -4.0722 -0.252234 0
M  V30 10100 H 971.828 -4.06044 0.90006 0
M  V30 10101 H 970.405 -3.62401 -0.878645 0
M  V30 10102 N 972.59 -0.333456 -1.54032 0
M  V30 10103 C 973.523 0.570776 -2.20947 0
M  V30 10104 C 974.501 1.10811 -1.18994 0
M  V30 10105 O 975.685 1.17027 -1.47773 0
M  V30 10106 C 972.812 1.7842 -2.87896 0
M  V30 10107 C 971.858 1.37722 -4.03652 0
M  V30 10108 S 972.691 0.405548 -5.33962 0
M  V30 10109 C 973.847 1.62603 -6.0441 0
M  V30 10110 H 974.08 0.0023936 -2.973 0
M  V30 10111 H 971.613 -0.117531 -1.53952 0
M  V30 10112 H 973.571 2.48038 -3.27089 0
M  V30 10113 H 972.232 2.32378 -2.11327 0
M  V30 10114 H 971.425 2.28167 -4.49395 0
M  V30 10115 H 971.027 0.760628 -3.66184 0
M  V30 10116 H 973.319 2.56202 -6.2719 0
M  V30 10117 H 974.262 1.21058 -6.97675 0
M  V30 10118 H 974.67 1.8175 -5.34441 0
M  V30 10119 N 974.068 1.57479 -0.061844 0
M  V30 10120 C 975.484 1.56855 0.294753 0
M  V30 10121 C 975.684 1.07042 1.70717 0
M  V30 10122 O 974.74 0.731817 2.41662 0
M  V30 10123 C 976.053 3.00486 0.113484 0
M  V30 10124 C 977.601 3.1246 0.183778 0
M  V30 10125 C 978.076 4.5799 0.0309092 0
M  V30 10126 N 979.567 4.63119 0.0868393 0
M  V30 10127 C 980.302 5.734 -0.00717446 0
M  V30 10128 N 979.798 6.92628 -0.154144 0
M  V30 10129 N 981.591 5.62078 0.0491763 0
M  V30 10130 H 973.742 1.88176 -0.985058 0
M  V30 10131 H 976.005 0.867051 -0.383309 0
M  V30 10132 H 975.711 3.41004 -0.86075 0
M  V30 10133 H 975.585 3.67029 0.870023 0
M  V30 10134 H 977.972 2.71834 1.14849 0
M  V30 10135 H 978.053 2.48574 -0.603697 0
M  V30 10136 H 977.697 4.99303 -0.930526 0
M  V30 10137 H 977.627 5.19895 0.837664 0
M  V30 10138 H 980.118 3.77374 0.199245 0
M  V30 10139 H 980.431 7.72492 -0.218296 0
M  V30 10140 H 978.776 6.94742 -0.189372 0
M  V30 10141 H 981.967 4.67817 0.162626 0
M  V30 10142 H 982.14 6.47994 -0.0275478 0
M  V30 10143 N 975.546 -0.211634 1.56173 0
M  V30 10144 C 976.478 -1.286 1.89723 0
M  V30 10145 C 977.491 -1.42549 0.786361 0
M  V30 10146 O 978.68 -1.4327 1.06471 0
M  V30 10147 C 975.78 -2.66036 2.09948 0
M  V30 10148 C 974.953 -2.73908 3.41018 0
M  V30 10149 C 974.012 -3.92425 3.50555 0
M  V30 10150 O 973.038 -3.803 4.2351 0
M  V30 10151 N 974.24 -5.07165 2.82426 0
M  V30 10152 H 977.005 -1.00142 2.82474 0
M  V30 10153 H 974.566 -0.401633 1.56839 0
M  V30 10154 H 976.558 -3.43719 2.13634 0
M  V30 10155 H 975.128 -2.87052 1.23774 0
M  V30 10156 H 974.348 -1.82625 3.49345 0
M  V30 10157 H 975.636 -2.76145 4.27342 0
M  V30 10158 H 975.034 -5.19913 2.2295 0
M  V30 10159 H 973.591 -5.82855 2.9176 0
M  V30 10160 N 977.024 -1.50153 -0.478725 0
M  V30 10161 C 978.272 -1.60443 -1.22892 0
M  V30 10162 C 978.593 -0.303276 -1.92627 0
M  V30 10163 O 977.863 0.678798 -1.83764 0
M  V30 10164 H 976.443 -0.591205 -0.456602 0
M  V30 10165 H 979.105 -1.86893 -0.552905 0
M  V30 10166 H 978.201 -2.41175 -1.98094 0
M  V30 10167 N 978.502 0.731368 -1.39602 0
M  V30 10168 C 979.75 1.48805 -1.36753 0
M  V30 10169 C 980.071 1.94969 0.034676 0
M  V30 10170 O 979.341 1.69243 0.986591 0
M  V30 10171 H 977.921 0.55203 -0.503261 0
M  V30 10172 H 980.583 0.868013 -1.74504 0
M  V30 10173 H 979.679 2.36844 -2.03252 0
M  V30 10174 N 979.98 1.24838 0.961938 0
M  V30 10175 C 981.21 1.11709 1.73795 0
M  V30 10176 C 981.618 -0.33263 1.86253 0
M  V30 10177 O 980.961 -1.24101 1.35443 0
M  V30 10178 C 981.023 1.68959 3.17322 0
M  V30 10179 C 980.687 3.17895 3.28316 0
M  V30 10180 C 981.684 4.14975 3.13196 0
M  V30 10181 C 979.369 3.57966 3.52372 0
M  V30 10182 C 981.363 5.50107 3.21965 0
M  V30 10183 C 979.05 4.93237 3.60778 0
M  V30 10184 C 980.048 5.89116 3.45588 0
M  V30 10185 O 979.736 7.21927 3.53662 0
M  V30 10186 H 979.468 0.390726 0.551642 0
M  V30 10187 H 982.022 1.65541 1.21594 0
M  V30 10188 H 980.252 1.09567 3.70853 0
M  V30 10189 H 981.941 1.51036 3.76753 0
M  V30 10190 H 982.707 3.85359 2.94489 0
M  V30 10191 H 978.586 2.83837 3.63259 0
M  V30 10192 H 982.13 6.24924 3.10025 0
M  V30 10193 H 978.027 5.22522 3.79 0
M  V30 10194 H 978.795 7.29925 3.7034 0
M  V30 10195 N 981.458 -1.16348 1.06306 0
M  V30 10196 C 982.421 -2.18941 0.678053 0
M  V30 10197 C 983.421 -1.58409 -0.276277 0
M  V30 10198 O 984.611 -1.74101 -0.0586435 0
M  V30 10199 C 981.743 -3.409 -0.00228684 0
M  V30 10200 H 982.936 -2.54516 1.58624 0
M  V30 10201 H 980.489 -1.30625 0.858298 0
M  V30 10202 H 981.224 -3.10881 -0.923212 0
M  V30 10203 H 981.009 -3.86089 0.683949 0
M  V30 10204 H 982.499 -4.16806 -0.257374 0
M  V30 10205 N 982.937 -0.845659 -1.3299 0
M  V30 10206 C 983.867 -0.298957 -2.31578 0
M  V30 10207 C 984.848 0.597012 -1.59279 0
M  V30 10208 O 986.033 0.519142 -1.87132 0
M  V30 10209 C 983.163 0.521109 -3.43368 0
M  V30 10210 C 982.117 -0.279651 -4.27085 0
M  V30 10211 C 981.443 0.664591 -5.30554 0
M  V30 10212 C 982.743 -1.50046 -5.00283 0
M  V30 10213 H 984.437 -1.12272 -2.77552 0
M  V30 10214 H 981.983 -0.54132 -1.33438 0
M  V30 10215 H 983.936 0.913921 -4.1137 0
M  V30 10216 H 982.66 1.37815 -2.96099 0
M  V30 10217 H 981.319 -0.654106 -3.60717 0
M  V30 10218 H 980.967 1.51822 -4.79541 0
M  V30 10219 H 980.667 0.132871 -5.8745 0
M  V30 10220 H 982.191 1.05477 -6.01421 0
M  V30 10221 H 983.605 -1.18044 -5.61016 0
M  V30 10222 H 982.002 -1.96946 -5.66862 0
M  V30 10223 H 983.072 -2.26659 -4.28665 0
M  V30 10224 N 984.415 1.45619 -0.602734 0
M  V30 10225 C 985.661 2.02572 -0.0961759 0
M  V30 10226 C 985.994 1.47076 1.26815 0
M  V30 10227 O 985.269 0.643566 1.83544 0
M  V30 10228 C 985.552 3.60062 -0.0520032 0
M  V30 10229 C 985.405 4.25901 -1.44665 0
M  V30 10230 C 986.724 4.35446 0.638342 0
M  V30 10231 H 983.843 0.736099 -0.0364238 0
M  V30 10232 H 986.485 1.7353 -0.773776 0
M  V30 10233 H 984.635 3.84936 0.525032 0
M  V30 10234 H 986.307 4.12228 -2.0704 0
M  V30 10235 H 984.55 3.84489 -2.00874 0
M  V30 10236 H 985.221 5.34779 -1.36803 0
M  V30 10237 H 987.697 4.15837 0.147926 0
M  V30 10238 H 986.573 5.45176 0.63834 0
M  V30 10239 H 986.834 4.07962 1.70351 0
M  V30 10240 N 985.893 0.34162 1.53853 0
M  V30 10241 C 986.841 -0.531412 2.26448 0
M  V30 10242 C 987.835 -1.10357 1.28521 0
M  V30 10243 O 989.041 -1.04953 1.46236 0
M  V30 10244 H 985.416 -0.190054 0.727588 0
M  V30 10245 H 987.387 0.102922 2.98222 0
M  V30 10246 C 986.136 -1.67154 3.04885 0
M  V30 10247 H 985.459 -1.24055 3.80066 0
M  V30 10248 H 986.899 -2.25762 3.58898 0
M  V30 10249 C 985.358 -2.59984 2.14266 0
M  V30 10250 O 985.888 -3.62181 1.73746 0
M  V30 10251 N 984.094 -2.28625 1.79385 0
M  V30 10252 H 983.641 -1.45559 2.12533 0
M  V30 10253 H 983.599 -2.90995 1.19035 0
M  V30 10254 N 987.371 -1.57444 0.0701946 0
M  V30 10255 C 988.304 -2.08232 -0.93352 0
M  V30 10256 C 989.282 -0.987073 -1.29212 0
M  V30 10257 O 990.466 -1.26035 -1.40169 0
M  V30 10258 C 987.593 -2.53866 -2.2421 0
M  V30 10259 C 986.639 -3.7481 -2.03518 0
M  V30 10260 S 987.472 -5.1958 -1.29601 0
M  V30 10261 C 988.628 -5.68544 -2.61742 0
M  V30 10262 H 988.861 -2.93042 -0.501354 0
M  V30 10263 H 986.394 -1.53741 -0.142533 0
M  V30 10264 H 988.352 -2.80818 -2.99419 0
M  V30 10265 H 987.013 -1.69327 -2.64551 0
M  V30 10266 H 986.206 -4.04724 -3.00358 0
M  V30 10267 H 985.808 -3.48222 -1.36445 0
M  V30 10268 H 988.1 -5.75291 -3.57836 0
M  V30 10269 H 989.043 -6.67459 -2.3644 0
M  V30 10270 H 989.451 -4.96354 -2.68873 0
M  V30 10271 N 988.849 0.203349 -1.56283 0
M  V30 10272 C 990.265 0.55384 -1.49682 0
M  V30 10273 C 990.465 1.86261 -0.768701 0
M  V30 10274 O 989.521 2.50517 -0.315824 0
M  V30 10275 C 990.834 0.616216 -2.94318 0
M  V30 10276 C 992.382 0.705611 -3.04943 0
M  V30 10277 C 992.857 0.79917 -4.50974 0
M  V30 10278 N 994.348 0.862916 -4.55091 0
M  V30 10279 C 995.083 0.955334 -5.65386 0
M  V30 10280 N 994.579 1.01057 -6.8539 0
M  V30 10281 N 996.372 0.991884 -5.53279 0
M  V30 10282 H 988.523 -0.655244 -2.0204 0
M  V30 10283 H 990.786 -0.232344 -0.919087 0
M  V30 10284 H 990.492 -0.27619 -3.50614 0
M  V30 10285 H 990.366 1.47371 -3.4722 0
M  V30 10286 H 992.753 1.58845 -2.48701 0
M  V30 10287 H 992.834 -0.177921 -2.5518 0
M  V30 10288 H 992.478 -0.0792841 -5.07838 0
M  V30 10289 H 992.408 1.69838 -4.9846 0
M  V30 10290 H 994.899 0.829812 -3.68677 0
M  V30 10291 H 995.212 1.08137 -7.65197 0
M  V30 10292 H 993.557 0.979384 -6.88065 0
M  V30 10293 H 996.748 0.945514 -4.58451 0
M  V30 10294 H 996.921 1.06045 -6.39264 0
M  V30 10295 N 990.327 1.50405 0.470755 0
M  V30 10296 C 991.257 1.72222 1.57676 0
M  V30 10297 C 992.238 0.57121 1.60222 0
M  V30 10298 O 993.423 0.810381 1.76484 0
M  V30 10299 C 990.553 1.81666 2.95998 0
M  V30 10300 C 989.507 2.96857 3.08318 0
M  V30 10301 C 988.833 2.91445 4.4829 0
M  V30 10302 C 990.133 4.37361 2.85504 0
M  V30 10303 H 991.827 2.64825 1.39671 0
M  V30 10304 H 989.373 1.27438 0.67049 0
M  V30 10305 H 991.326 1.95514 3.73299 0
M  V30 10306 H 990.05 0.856856 3.1516 0
M  V30 10307 H 988.709 2.82661 2.33449 0
M  V30 10308 H 988.357 1.93309 4.64371 0
M  V30 10309 H 988.057 3.68776 4.57469 0
M  V30 10310 H 989.581 3.07341 5.27611 0
M  V30 10311 H 990.995 4.52081 3.52555 0
M  V30 10312 H 989.392 5.16145 3.06127 0
M  V30 10313 H 990.462 4.49708 1.81359 0
M  V30 10314 N 991.805 -0.723954 1.39988 0
M  V30 10315 C 993.053 -1.48078 1.3754 0
M  V30 10316 C 993.374 -1.94985 -0.0243358 0
M  V30 10317 O 992.644 -1.69764 -0.977602 0
M  V30 10318 H 991.224 -0.549354 0.506181 0
M  V30 10319 H 993.886 -0.858746 1.74962 0
M  V30 10320 H 992.982 -2.35763 2.04505 0
M  V30 10321 N 993.283 -1.25346 -0.955304 0
M  V30 10322 C 994.513 -1.12629 -1.732 0
M  V30 10323 C 994.921 0.322748 -1.86427 0
M  V30 10324 O 994.264 1.23381 -1.36099 0
M  V30 10325 C 994.326 -1.7064 -3.16421 0
M  V30 10326 C 993.99 -3.19632 -3.26626 0
M  V30 10327 C 994.987 -4.1663 -3.10991 0
M  V30 10328 C 992.672 -3.59829 -3.50468 0
M  V30 10329 C 994.666 -5.51806 -3.19043 0
M  V30 10330 C 992.353 -4.95143 -3.58157 0
M  V30 10331 C 993.351 -5.90941 -3.42459 0
M  V30 10332 O 993.039 -7.23792 -3.49828 0
M  V30 10333 H 992.771 -0.393646 -0.549562 0
M  V30 10334 H 995.325 -1.66184 -1.20715 0
M  V30 10335 H 993.555 -1.11532 -3.70267 0
M  V30 10336 H 995.244 -1.53032 -3.75947 0
M  V30 10337 H 996.01 -3.86915 -2.92441 0
M  V30 10338 H 991.889 -2.8576 -3.61749 0
M  V30 10339 H 995.433 -6.26559 -3.06707 0
M  V30 10340 H 991.33 -5.24525 -3.76224 0
M  V30 10341 H 992.098 -7.31879 -3.66463 0
M  V30 10342 N 994.761 1.15782 -1.06922 0
M  V30 10343 C 995.708 2.2038 -0.685659 0
M  V30 10344 C 996.678 1.62972 0.320816 0
M  V30 10345 O 997.863 1.8966 0.208258 0
M  V30 10346 C 995.003 3.44995 -0.084998 0
M  V30 10347 C 994.116 4.16621 -1.14242 0
M  V30 10348 C 993.251 5.28773 -0.507226 0
M  V30 10349 C 992.29 5.92209 -1.54774 0
M  V30 10350 N 991.427 6.9584 -0.935443 0
M  V30 10351 H 996.267 2.5254 -1.58201 0
M  V30 10352 H 993.804 1.24031 -0.790864 0
M  V30 10353 H 995.762 4.16254 0.280845 0
M  V30 10354 H 994.392 3.13365 0.774725 0
M  V30 10355 H 993.444 3.43903 -1.62589 0
M  V30 10356 H 994.756 4.59884 -1.93154 0
M  V30 10357 H 993.91 6.06635 -0.0887719 0
M  V30 10358 H 992.649 4.8669 0.313704 0
M  V30 10359 H 991.654 5.13063 -1.97602 0
M  V30 10360 H 992.879 6.3637 -2.37088 0
M  V30 10361 H 990.825 6.5586 -0.135339 0
M  V30 10362 H 990.742 7.37508 -1.66186 0
M  V30 10363 H 992.01 7.77611 -0.542346 0
M  V30 10364 N 996.239 0.8527 1.3254 0
M  V30 10365 C 997.488 0.45136 1.96585 0
M  V30 10366 C 997.801 -0.997773 1.68237 0
M  V30 10367 O 999.007 -1.50445 2.26006 0
M  V30 10368 C 997.463 0.75619 3.51866 0
M  V30 10369 C 997.071 2.22092 3.89075 0
M  V30 10370 C 998.815 0.422478 4.22392 0
M  V30 10371 C 996.722 2.46908 5.37392 0
M  V30 10372 H 995.652 0.165052 0.735713 0
M  V30 10373 H 998.303 1.04321 1.50962 0
M  V30 10374 H 996.685 0.0937988 3.95889 0
M  V30 10375 H 997.859 2.92494 3.56067 0
M  V30 10376 H 996.174 2.51896 3.31568 0
M  V30 10377 H 998.771 0.58533 5.31487 0
M  V30 10378 H 999.114 -0.635737 4.11417 0
M  V30 10379 H 999.647 1.04068 3.83946 0
M  V30 10380 H 996.386 3.51346 5.53386 0
M  V30 10381 H 995.906 1.81082 5.71812 0
M  V30 10382 H 997.585 2.30758 6.0445 0
M  V30 10383 N 997.718 -1.45297 0.610449 0
M  V30 10384 C 998.995 -1.95562 0.0386189 0
M  V30 10385 C 999.375 -1.55284 -1.43004 0
M  V30 10386 O 998.723 -0.816785 -2.13403 0
M  V30 10387 C 998.933 -3.48176 0.239731 0
M  V30 10388 C 1000.28 -4.24425 0.122035 0
M  V30 10389 O 1001.3 -3.55794 0.170003 0
M  V30 10390 O 1000.16 -5.46499 0.00953695 0
M  V30 10391 H 997.258 -0.826296 -0.0341081 0
M  V30 10392 H 999.804 -1.55449 0.68071 0
M  V30 10393 H 998.576 -3.70471 1.25963 0
M  V30 10394 H 998.199 -3.95186 -0.437486 0
M  V30 10395 N 999.196 -0.349774 -1.5367 0
M  V30 10396 C 1000.11 0.512421 -2.28935 0
M  V30 10397 C 1001.12 1.1065 -1.34286 0
M  V30 10398 O 1002.3 1.12084 -1.67329 0
M  V30 10399 C 999.363 1.64449 -3.05217 0
M  V30 10400 C 998.424 1.07956 -4.15505 0
M  V30 10401 C 997.657 2.15768 -4.88139 0
M  V30 10402 O 997.88 3.366 -4.60496 0
M  V30 10403 O 996.814 1.79712 -5.74445 0
M  V30 10404 H 1000.64 -0.0996001 -3.03537 0
M  V30 10405 H 998.225 -0.114629 -1.4896 0
M  V30 10406 H 1000.11 2.30302 -3.52901 0
M  V30 10407 H 998.782 2.24221 -2.33467 0
M  V30 10408 H 997.689 0.385381 -3.7211 0
M  V30 10409 H 999.022 0.526621 -4.89375 0
M  V30 10410 N 1000.67 1.57404 -0.0785433 0
M  V30 10411 C 1001.62 2.09632 0.896565 0
M  V30 10412 C 1002.61 1.00754 1.25449 0
M  V30 10413 O 1003.8 1.27053 1.23234 0
M  V30 10414 C 1000.93 2.66694 2.16169 0
M  V30 10415 C 1000.01 3.82588 1.82994 0
M  V30 10416 N 1000.41 4.91286 1.203 0
M  V30 10417 C 998.704 3.92011 2.12704 0
M  V30 10418 C 999.405 5.72077 1.05367 0
M  V30 10419 N 998.381 5.20567 1.56559 0
M  V30 10420 H 1002.18 2.9106 0.407621 0
M  V30 10421 H 999.697 1.61917 0.125155 0
M  V30 10422 H 1001.69 3.0243 2.86952 0
M  V30 10423 H 1000.35 1.86716 2.65645 0
M  V30 10424 H 1001.36 5.10509 0.871817 0
M  V30 10425 H 998.042 3.23018 2.6451 0
M  V30 10426 H 999.432 6.69523 0.564685 0
M  V30 10427 N 1002.15 -0.195058 1.56388 0
M  V30 10428 C 1003.4 -0.912248 1.81795 0
M  V30 10429 C 1003.75 -1.80886 0.655596 0
M  V30 10430 O 1003.05 -1.88391 -0.34922 0
M  V30 10431 C 1003.24 -1.7637 3.10851 0
M  V30 10432 C 1003.07 -0.951012 4.39529 0
M  V30 10433 C 1001.84 -0.635425 5.01289 0
M  V30 10434 C 1004.04 -0.303702 5.13403 0
M  V30 10435 N 1002.02 0.195887 6.13587 0
M  V30 10436 C 1003.39 0.38981 6.18773 0
M  V30 10437 C 1005.44 -0.219433 4.97416 0
M  V30 10438 C 1004.15 1.15957 7.09892 0
M  V30 10439 C 1006.17 0.536925 5.88958 0
M  V30 10440 C 1005.54 1.21888 6.93774 0
M  V30 10441 H 1001.63 -0.313208 0.716537 0
M  V30 10442 H 1004.22 -0.180977 1.93857 0
M  V30 10443 H 1002.39 -2.46657 3.00025 0
M  V30 10444 H 1004.12 -2.42037 3.24346 0
M  V30 10445 H 1000.88 -0.959855 4.63771 0
M  V30 10446 H 1001.3 0.601155 6.74326 0
M  V30 10447 H 1005.94 -0.732323 4.16409 0
M  V30 10448 H 1003.66 1.68389 7.90361 0
M  V30 10449 H 1007.25 0.603485 5.78662 0
M  V30 10450 H 1006.13 1.79478 7.63385 0
M  V30 10451 N 1003.63 -1.50653 -0.462772 0
M  V30 10452 C 1004.86 -1.65826 -1.23731 0
M  V30 10453 C 1005.27 -0.345002 -1.85621 0
M  V30 10454 O 1004.63 0.673935 -1.69601 0
M  V30 10455 C 1004.68 -2.7555 -2.33997 0
M  V30 10456 O 1004.4 -4.01785 -1.74643 0
M  V30 10457 C 1005.9 -3.0177 -3.2473 0
M  V30 10458 H 1003.12 -0.557177 -0.373892 0
M  V30 10459 H 1005.67 -1.96925 -0.551434 0
M  V30 10460 H 1003.82 -2.47122 -2.98345 0
M  V30 10461 H 1004.24 -4.62529 -2.4732 0
M  V30 10462 H 1005.71 -3.82188 -3.98292 0
M  V30 10463 H 1006.19 -2.13167 -3.84001 0
M  V30 10464 H 1006.79 -3.31761 -2.66111 0
M  V30 10465 N 1005.11 0.71652 -1.4037 0
M  V30 10466 C 1006.07 1.81231 -1.40313 0
M  V30 10467 C 1007.07 1.58032 -0.297087 0
M  V30 10468 O 1008.26 1.65091 -0.555944 0
M  V30 10469 C 1005.39 3.19308 -1.19395 0
M  V30 10470 H 1006.59 1.8268 -2.3784 0
M  V30 10471 H 1004.14 0.922062 -1.26205 0
M  V30 10472 H 1004.87 3.2351 -0.226252 0
M  V30 10473 H 1004.66 3.37546 -1.99512 0
M  V30 10474 H 1006.15 3.99339 -1.22141 0
M  V30 10475 N 1006.59 1.25851 0.948643 0
M  V30 10476 C 1007.55 1.0683 2.0278 0
M  V30 10477 C 1008.55 0.0191016 1.60789 0
M  V30 10478 O 1009.74 0.261836 1.72221 0
M  V30 10479 C 1006.87 0.623318 3.35153 0
M  V30 10480 H 1008.06 2.02635 2.21086 0
M  V30 10481 H 1005.62 1.08343 1.12657 0
M  V30 10482 H 1006.35 -0.337053 3.22544 0
M  V30 10483 H 1006.14 1.38082 3.66982 0
M  V30 10484 H 1007.63 0.511854 4.14451 0
M  V30 10485 N 1008.06 -1.15214 1.07534 0
M  V30 10486 C 1009.31 -1.86319 0.800814 0
M  V30 10487 C 1009.64 -1.82221 -0.671494 0
M  V30 10488 O 1008.92 -1.24664 -1.49295 0
M  V30 10489 C 1009.2 -3.35347 1.31203 0
M  V30 10490 C 1009.05 -3.48067 2.84902 0
M  V30 10491 C 1010.37 -4.3016 0.930064 0
M  V30 10492 H 1007.49 -0.676523 0.292379 0
M  V30 10493 H 1010.13 -1.35349 1.33344 0
M  V30 10494 H 1008.28 -3.78886 0.858949 0
M  V30 10495 H 1009.96 -3.13379 3.38514 0
M  V30 10496 H 1008.2 -2.89566 3.23008 0
M  V30 10497 H 1008.87 -4.52782 3.15741 0
M  V30 10498 H 1011.35 -3.94591 1.3205 0
M  V30 10499 H 1010.22 -5.32914 1.31507 0
M  V30 10500 H 1010.48 -4.41796 -0.163824 0
M  V30 10501 N 1009.54 -0.859717 -1.32086 0
M  V30 10502 C 1010.49 -0.296897 -2.30697 0
M  V30 10503 C 1011.48 0.582473 -1.59071 0
M  V30 10504 O 1012.69 0.469713 -1.73763 0
M  V30 10505 H 1009.07 -0.0773132 -0.748015 0
M  V30 10506 H 1011.04 -1.14273 -2.75652 0
M  V30 10507 C 1009.79 0.495546 -3.44151 0
M  V30 10508 H 1009.11 -0.171829 -3.99431 0
M  V30 10509 H 1010.55 0.854854 -4.15293 0
M  V30 10510 C 1009.01 1.68278 -2.91863 0
M  V30 10511 O 1009.54 2.78194 -2.89777 0
M  V30 10512 N 1007.74 1.51151 -2.48197 0
M  V30 10513 H 1007.29 0.617345 -2.50093 0
M  V30 10514 H 1007.25 2.3073 -2.13567 0
M  V30 10515 N 1011.02 1.44971 -0.618145 0
M  V30 10516 C 1012.27 2.02458 -0.117656 0
M  V30 10517 C 1012.6 1.48413 1.25248 0
M  V30 10518 O 1011.87 0.662997 1.82851 0
M  V30 10519 C 1012.16 3.59987 -0.0901897 0
M  V30 10520 C 1012.01 4.24343 -1.49175 0
M  V30 10521 C 1013.33 4.36099 0.592121 0
M  V30 10522 H 1010.45 0.735672 -0.0442291 0
M  V30 10523 H 1013.09 1.727 -0.792138 0
M  V30 10524 H 1011.24 3.85471 0.484175 0
M  V30 10525 H 1012.91 4.10009 -2.114 0
M  V30 10526 H 1011.16 3.82337 -2.04941 0
M  V30 10527 H 1011.83 5.33298 -1.42468 0
M  V30 10528 H 1014.3 4.1597 0.103813 0
M  V30 10529 H 1013.18 5.45822 0.580481 0
M  V30 10530 H 1013.44 4.09746 1.66015 0
M  V30 10531 N 1012.5 0.357919 1.53482 0
M  V30 10532 C 1013.45 -0.507364 2.26999 0
M  V30 10533 C 1014.44 -1.08987 1.29685 0
M  V30 10534 O 1015.65 -1.03396 1.47341 0
M  V30 10535 H 1012.02 -0.182326 0.729562 0
M  V30 10536 H 1013.99 0.134547 2.98097 0
M  V30 10537 C 1012.74 -1.63911 3.06641 0
M  V30 10538 H 1012.06 -1.20017 3.81361 0
M  V30 10539 H 1013.5 -2.21943 3.61272 0
M  V30 10540 C 1011.96 -2.57697 2.17011 0
M  V30 10541 O 1012.49 -3.60318 1.77578 0
M  V30 10542 N 1010.7 -2.2671 1.818 0
M  V30 10543 H 1010.25 -1.43296 2.14065 0
M  V30 10544 H 1010.2 -2.89716 1.22115 0
M  V30 10545 N 1013.98 -1.5736 0.0868897 0
M  V30 10546 C 1014.92 -2.14793 -0.892571 0
M  V30 10547 C 1015.92 -1.08866 -1.29787 0
M  V30 10548 O 1017.12 -1.27223 -1.27335 0
M  V30 10549 H 1013.5 -0.686998 -0.305838 0
M  V30 10550 H 1015.47 -2.95927 -0.383393 0
M  V30 10551 C 1014.22 -2.73646 -2.14507 0
M  V30 10552 H 1013.54 -3.54835 -1.84207 0
M  V30 10553 H 1014.98 -3.17409 -2.81118 0
M  V30 10554 C 1013.44 -1.69138 -2.91366 0
M  V30 10555 O 1013.97 -1.12539 -3.85614 0
M  V30 10556 N 1012.18 -1.3982 -2.54752 0
M  V30 10557 H 1011.72 -1.86035 -1.78182 0
M  V30 10558 H 1011.68 -0.701316 -3.06478 0
M  V30 10559 N 1015.45 0.186762 -1.56489 0
M  V30 10560 C 1016.38 1.23395 -1.98232 0
M  V30 10561 C 1017.37 1.4702 -0.855526 0
M  V30 10562 O 1018.55 1.58616 -1.12048 0
M  V30 10563 C 1015.68 2.57635 -2.32898 0
M  V30 10564 C 1014.63 2.48607 -3.48394 0
M  V30 10565 C 1013.96 3.87196 -3.68759 0
M  V30 10566 C 1015.26 2.00398 -4.82325 0
M  V30 10567 H 1016.95 0.887026 -2.85958 0
M  V30 10568 H 1014.5 0.42525 -1.37578 0
M  V30 10569 H 1016.45 3.31082 -2.60696 0
M  V30 10570 H 1015.18 2.94084 -1.42064 0
M  V30 10571 H 1013.84 1.77615 -3.207 0
M  V30 10572 H 1013.48 4.21012 -2.75241 0
M  V30 10573 H 1013.18 3.82029 -4.46462 0
M  V30 10574 H 1014.71 4.62253 -3.98941 0
M  V30 10575 H 1016.12 2.6361 -5.091 0
M  V30 10576 H 1014.52 2.06214 -5.63556 0
M  V30 10577 H 1015.59 0.957562 -4.75351 0
M  V30 10578 N 1016.93 1.50896 0.454776 0
M  V30 10579 C 1018.18 1.62699 1.20562 0
M  V30 10580 C 1018.51 0.334943 1.91594 0
M  V30 10581 O 1017.76 -0.680106 1.83502 0
M  V30 10582 C 1018.06 2.76839 2.26042 0
M  V30 10583 C 1017.73 4.16745 1.72147 0
M  V30 10584 C 1016.39 4.54809 1.5717 0
M  V30 10585 C 1018.74 5.04118 1.32341 0
M  V30 10586 C 1016.07 5.7797 1.00835 0
M  V30 10587 C 1018.42 6.27842 0.774419 0
M  V30 10588 C 1017.09 6.64694 0.611415 0
M  V30 10589 H 1016.36 0.595358 0.441169 0
M  V30 10590 H 1019 1.84879 0.499202 0
M  V30 10591 H 1017.31 2.48812 3.02655 0
M  V30 10592 H 1019 2.83173 2.83926 0
M  V30 10593 H 1015.59 3.86725 1.84775 0
M  V30 10594 H 1019.78 4.75331 1.42739 0
M  V30 10595 H 1015.03 6.05183 0.869669 0
M  V30 10596 H 1019.21 6.94896 0.457389 0
M  V30 10597 H 1016.84 7.60004 0.172751 0
M  V30 10598 N 1018.41 -0.709066 1.40748 0
M  V30 10599 C 1019.69 -1.4626 1.29874 0
M  V30 10600 C 1020.07 -2.10949 -0.0799322 0
M  V30 10601 O 1019.42 -2.00651 -1.09323 0
M  V30 10602 C 1019.63 -2.49302 2.44232 0
M  V30 10603 C 1020.97 -3.14945 2.84771 0
M  V30 10604 O 1022 -2.59623 2.43873 0
M  V30 10605 O 1020.86 -4.15111 3.5545 0
M  V30 10606 H 1017.95 -0.650716 0.51039 0
M  V30 10607 H 1020.5 -0.740687 1.52682 0
M  V30 10608 H 1019.27 -2.00063 3.36289 0
M  V30 10609 H 1018.89 -3.29021 2.23229 0
M  V30 10610 N 1019.89 -1.26353 -0.941956 0
M  V30 10611 C 1021.31 -1.03448 -1.21534 0
M  V30 10612 C 1021.51 0.240855 -2.00055 0
M  V30 10613 O 1020.56 0.950199 -2.33939 0
M  V30 10614 C 1021.87 -2.2654 -1.97737 0
M  V30 10615 C 1023.42 -2.31433 -2.10731 0
M  V30 10616 C 1023.9 -3.54216 -2.90336 0
M  V30 10617 N 1025.39 -3.54688 -2.9791 0
M  V30 10618 C 1026.12 -4.4636 -3.59931 0
M  V30 10619 N 1025.62 -5.48319 -4.2346 0
M  V30 10620 N 1027.41 -4.34013 -3.57196 0
M  V30 10621 H 1019.56 -2.08266 -0.417005 0
M  V30 10622 H 1021.83 -0.915251 -0.247021 0
M  V30 10623 H 1021.53 -3.19299 -1.47449 0
M  V30 10624 H 1021.41 -2.30726 -2.98405 0
M  V30 10625 H 1023.79 -1.3919 -2.60212 0
M  V30 10626 H 1023.87 -2.31259 -1.09329 0
M  V30 10627 H 1023.52 -4.46788 -2.41543 0
M  V30 10628 H 1023.45 -3.51637 -3.91993 0
M  V30 10629 H 1025.94 -2.80942 -2.52745 0
M  V30 10630 H 1026.25 -6.14458 -4.6868 0
M  V30 10631 H 1024.6 -5.52177 -4.22049 0
M  V30 10632 H 1027.79 -3.53578 -3.06758 0
M  V30 10633 H 1027.96 -5.0565 -4.05244 0
M  V30 10634 N 1021.37 1.14642 -1.08144 0
M  V30 10635 C 1022.6 1.89484 -0.830864 0
M  V30 10636 C 1023.01 1.78443 0.616722 0
M  V30 10637 O 1022.37 1.14191 1.42361 0
M  V30 10638 C 1022.42 3.39554 -1.24039 0
M  V30 10639 O 1022.14 3.50286 -2.63119 0
M  V30 10640 C 1023.64 4.31399 -1.02029 0
M  V30 10641 H 1020.86 0.600283 -0.299835 0
M  V30 10642 H 1023.4 1.45204 -1.44001 0
M  V30 10643 H 1021.56 3.81467 -0.675407 0
M  V30 10644 H 1021.97 4.43481 -2.80045 0
M  V30 10645 H 1023.45 5.35079 -1.35625 0
M  V30 10646 H 1023.92 4.39179 0.0428697 0
M  V30 10647 H 1024.53 3.95238 -1.57057 0
M  V30 10648 N 1022.85 0.866709 1.31628 0
M  V30 10649 C 1024.08 0.489679 2.00713 0
M  V30 10650 C 1024.48 -0.921492 1.65243 0
M  V30 10651 O 1023.83 -1.61467 0.876012 0
M  V30 10652 C 1023.89 0.563148 3.55062 0
M  V30 10653 C 1023.55 1.93535 4.13996 0
M  V30 10654 C 1024.55 2.90243 4.31341 0
M  V30 10655 C 1022.23 2.23578 4.49798 0
M  V30 10656 C 1024.23 4.15138 4.83673 0
M  V30 10657 C 1021.92 3.48723 5.01832 0
M  V30 10658 C 1022.91 4.44319 5.18719 0
M  V30 10659 O 1022.6 5.67247 5.69637 0
M  V30 10660 H 1022.33 0.189605 0.648865 0
M  V30 10661 H 1024.89 1.16874 1.68907 0
M  V30 10662 H 1023.12 -0.172815 3.86314 0
M  V30 10663 H 1024.81 0.200009 4.05407 0
M  V30 10664 H 1025.57 2.6834 4.04003 0
M  V30 10665 H 1021.45 1.49949 4.35932 0
M  V30 10666 H 1025 4.89762 4.96769 0
M  V30 10667 H 1020.89 3.70471 5.28603 0
M  V30 10668 H 1021.66 5.69372 5.88011 0
M  V30 10669 N 1024.32 -1.44642 0.625825 0
M  V30 10670 C 1025.55 -2.06159 0.13492 0
M  V30 10671 C 1025.96 -1.46801 -1.19357 0
M  V30 10672 O 1025.3 -0.583345 -1.74192 0
M  V30 10673 C 1025.37 -3.5945 -0.0598481 0
M  V30 10674 C 1025.03 -4.41244 1.18965 0
M  V30 10675 C 1026.03 -4.75064 2.11212 0
M  V30 10676 C 1023.71 -4.81705 1.42359 0
M  V30 10677 C 1025.71 -5.48221 3.25165 0
M  V30 10678 C 1023.39 -5.54612 2.5661 0
M  V30 10679 C 1024.39 -5.87789 3.4784 0
M  V30 10680 O 1024.08 -6.59213 4.60101 0
M  V30 10681 H 1023.81 -0.671888 0.0744464 0
M  V30 10682 H 1026.37 -1.86586 0.858775 0
M  V30 10683 H 1024.6 -3.77493 -0.838792 0
M  V30 10684 H 1026.28 -4.02751 -0.504639 0
M  V30 10685 H 1027.05 -4.44348 1.94371 0
M  V30 10686 H 1022.93 -4.55305 0.722401 0
M  V30 10687 H 1026.47 -5.74035 3.96396 0
M  V30 10688 H 1022.37 -5.84743 2.73396 0
M  V30 10689 H 1023.14 -6.77678 4.59015 0
M  V30 10690 N 1025.8 -0.366053 -1.5329 0
M  V30 10691 C 1026.73 0.514916 -2.23341 0
M  V30 10692 C 1027.75 1.04579 -1.24768 0
M  V30 10693 O 1028.94 0.952084 -1.50989 0
M  V30 10694 C 1026.04 1.72374 -2.91788 0
M  V30 10695 C 1025.21 1.32429 -4.16871 0
M  V30 10696 C 1024.27 2.39524 -4.68524 0
M  V30 10697 O 1023.29 2.01895 -5.32191 0
M  V30 10698 N 1024.5 3.71116 -4.46378 0
M  V30 10699 H 1027.26 -0.0851272 -2.99579 0
M  V30 10700 H 1024.82 -0.191255 -1.60766 0
M  V30 10701 H 1026.81 2.43496 -3.23252 0
M  V30 10702 H 1025.38 2.23064 -2.19 0
M  V30 10703 H 1024.6 0.442901 -3.91704 0
M  V30 10704 H 1025.89 1.03372 -4.98188 0
M  V30 10705 H 1025.29 4.04463 -3.95508 0
M  V30 10706 H 1023.85 4.38341 -4.82391 0
M  V30 10707 N 1027.28 1.57312 -0.0952337 0
M  V30 10708 C 1028.5 1.99119 0.580206 0
M  V30 10709 C 1028.93 0.973955 1.60922 0
M  V30 10710 O 1028.29 -0.0575338 1.81209 0
M  V30 10711 C 1028.34 3.39893 1.20438 0
M  V30 10712 O 1027.44 3.40941 2.32019 0
M  V30 10713 H 1026.78 0.64748 0.147195 0
M  V30 10714 H 1029.31 2.03836 -0.176686 0
M  V30 10715 H 1029.32 3.7759 1.54564 0
M  V30 10716 H 1028 4.13453 0.450514 0
M  V30 10717 H 1026.57 3.1504 1.9951 0
M  V30 10718 N 1028.76 -0.17846 1.56586 0
M  V30 10719 C 1029.69 -1.22342 1.98884 0
M  V30 10720 C 1030.67 -1.46564 0.86331 0
M  V30 10721 O 1031.85 -1.58019 1.12887 0
M  V30 10722 C 1028.98 -2.56396 2.34261 0
M  V30 10723 C 1027.94 -2.46756 3.49708 0
M  V30 10724 C 1027.26 -3.85235 3.70807 0
M  V30 10725 C 1028.56 -1.97838 4.83381 0
M  V30 10726 H 1030.26 -0.871848 2.86425 0
M  V30 10727 H 1027.8 -0.417948 1.37801 0
M  V30 10728 H 1029.76 -3.29695 2.62448 0
M  V30 10729 H 1028.48 -2.93327 1.43621 0
M  V30 10730 H 1027.14 -1.75912 3.21637 0
M  V30 10731 H 1026.79 -4.19547 2.7747 0
M  V30 10732 H 1026.49 -3.79655 4.48481 0
M  V30 10733 H 1028.01 -4.60131 4.01387 0
M  V30 10734 H 1029.43 -2.60906 5.10491 0
M  V30 10735 H 1027.82 -2.03223 5.64642 0
M  V30 10736 H 1028.89 -0.932339 4.75852 0
M  V30 10737 N 1030.24 -1.51135 -0.446768 0
M  V30 10738 C 1031.46 -1.67411 -1.22427 0
M  V30 10739 C 1031.89 -0.367009 -1.84485 0
M  V30 10740 O 1031.24 0.67185 -1.68392 0
M  V30 10741 C 1031.29 -2.78473 -2.29096 0
M  V30 10742 O 1030.4 -2.41419 -3.34351 0
M  V30 10743 H 1029.74 -0.558512 -0.359111 0
M  V30 10744 H 1032.27 -1.97648 -0.5288 0
M  V30 10745 H 1032.28 -3.02277 -2.7403 0
M  V30 10746 H 1030.95 -3.73326 -1.83304 0
M  V30 10747 H 1029.53 -2.28152 -2.9496 0
M  V30 10748 N 1031.71 0.701592 -1.41122 0
M  V30 10749 C 1032.66 1.83691 -1.4269 0
M  V30 10750 C 1033.66 1.6662 -0.305658 0
M  V30 10751 O 1034.86 1.73554 -0.477392 0
M  V30 10752 H 1031.24 0.605222 -0.44633 0
M  V30 10753 H 1033.21 1.79485 -2.38386 0
M  V30 10754 C 1031.96 3.21666 -1.32008 0
M  V30 10755 H 1031.28 3.35416 -2.17569 0
M  V30 10756 H 1032.72 4.012 -1.37165 0
M  V30 10757 C 1031.18 3.36885 -0.0317678 0
M  V30 10758 O 1031.71 3.90885 0.925836 0
M  V30 10759 N 1029.91 2.90569 0.0423401 0
M  V30 10760 H 1029.46 2.46812 -0.737673 0
M  V30 10761 H 1029.42 3.0113 0.903764 0
M  V30 10762 N 1033.19 1.2685 0.935242 0
M  V30 10763 C 1034.6 1.11569 1.49697 0
M  V30 10764 C 1034.95 -0.301952 1.93863 0
M  V30 10765 O 1034.08 -1.19408 1.80473 0
M  V30 10766 C 1034.67 2.01918 2.72056 0
M  V30 10767 C 1033.23 1.90765 3.24477 0
M  V30 10768 C 1032.38 1.94918 1.97237 0
M  V30 10769 H 1035.33 1.39853 0.750116 0
M  V30 10770 H 1035.35 1.57056 3.46574 0
M  V30 10771 H 1034.86 3.05088 2.39881 0
M  V30 10772 H 1032.96 0.905521 3.61429 0
M  V30 10773 H 1033.08 2.76611 3.91182 0
M  V30 10774 H 1031.44 1.39046 2.13397 0
M  V30 10775 H 1032.22 2.99729 1.67385 0
M  V30 10776 N 1034.67 -1.14067 1.0875 0
M  V30 10777 C 1035.62 -2.21332 0.715195 0
M  V30 10778 C 1036.61 -1.67059 -0.280679 0
M  V30 10779 O 1037.82 -1.79432 -0.142874 0
M  V30 10780 H 1034.19 -0.721126 0.213264 0
M  V30 10781 H 1036.16 -2.50002 1.62916 0
M  V30 10782 C 1034.91 -3.474 0.144401 0
M  V30 10783 H 1034.24 -3.89495 0.901884 0
M  V30 10784 H 1035.68 -4.23928 -0.0782564 0
M  V30 10785 C 1034.14 -3.17787 -1.11862 0
M  V30 10786 O 1034.67 -3.35906 -2.20295 0
M  V30 10787 N 1032.87 -2.71719 -1.03039 0
M  V30 10788 H 1032.42 -2.57175 -0.14793 0
M  V30 10789 H 1032.38 -2.52281 -1.87621 0
M  V30 10790 N 1036.15 -0.873678 -1.31166 0
M  V30 10791 C 1037.39 -0.496513 -1.97247 0
M  V30 10792 C 1037.75 0.941605 -1.67784 0
M  V30 10793 O 1037.04 1.65469 -0.965947 0
M  V30 10794 C 1037.24 -0.69462 -3.50585 0
M  V30 10795 C 1037.07 -2.15044 -3.94951 0
M  V30 10796 C 1035.84 -2.79278 -4.21108 0
M  V30 10797 C 1038.03 -3.1231 -4.08616 0
M  V30 10798 N 1036.02 -4.15574 -4.51853 0
M  V30 10799 C 1037.39 -4.33646 -4.43115 0
M  V30 10800 C 1039.44 -3.08251 -3.91006 0
M  V30 10801 C 1038.14 -5.51447 -4.61842 0
M  V30 10802 C 1040.17 -4.25314 -4.10929 0
M  V30 10803 C 1039.53 -5.45413 -4.45763 0
M  V30 10804 H 1035.63 -0.230797 -0.747166 0
M  V30 10805 H 1038.22 -1.12905 -1.58621 0
M  V30 10806 H 1036.39 -0.0916484 -3.88292 0
M  V30 10807 H 1038.12 -0.285475 -4.03692 0
M  V30 10808 H 1034.87 -2.30207 -4.13886 0
M  V30 10809 H 1035.3 -4.85932 -4.7138 0
M  V30 10810 H 1039.94 -2.16505 -3.6316 0
M  V30 10811 H 1037.66 -6.43707 -4.88535 0
M  V30 10812 H 1041.24 -4.2363 -3.98785 0
M  V30 10813 H 1040.12 -6.34487 -4.60865 0
M  V30 10814 N 1037.63 1.44308 -0.633487 0
M  V30 10815 C 1038.57 2.32455 0.0821956 0
M  V30 10816 C 1039.57 1.47482 0.833388 0
M  V30 10817 O 1040.77 1.63812 0.746021 0
M  V30 10818 H 1037.15 0.750631 0.045352 0
M  V30 10819 H 1039.12 2.90566 -0.679282 0
M  V30 10820 C 1037.87 3.31512 1.04858 0
M  V30 10821 H 1037.19 3.96908 0.479979 0
M  V30 10822 H 1038.63 3.95865 1.51879 0
M  V30 10823 C 1037.09 2.60615 2.13498 0
M  V30 10824 O 1037.62 2.40682 3.21613 0
M  V30 10825 N 1035.83 2.20315 1.89499 0
M  V30 10826 H 1035.37 2.36726 1.01581 0
M  V30 10827 H 1035.33 1.73205 2.62388 0
M  V30 10828 N 1039.1 0.374177 1.53094 0
M  V30 10829 C 1040.05 -0.48326 2.27524 0
M  V30 10830 C 1041.05 -1.07606 1.30833 0
M  V30 10831 O 1042.25 -1.01827 1.48429 0
M  V30 10832 H 1038.63 -0.174578 0.731455 0
M  V30 10833 H 1040.6 0.166156 2.97937 0
M  V30 10834 C 1039.35 -1.6065 3.08362 0
M  V30 10835 H 1038.67 -1.15966 3.82612 0
M  V30 10836 H 1040.11 -2.18099 3.63606 0
M  V30 10837 C 1038.57 -2.55381 2.19732 0
M  V30 10838 O 1039.1 -3.58414 1.8139 0
M  V30 10839 N 1037.31 -2.24769 1.84194 0
M  V30 10840 H 1036.85 -1.41018 2.15573 0
M  V30 10841 H 1036.81 -2.88404 1.25181 0
M  V30 10842 N 1040.58 -1.57259 0.103575 0
M  V30 10843 C 1042 -1.57581 -0.253062 0
M  V30 10844 C 1042.2 -1.11531 -1.67819 0
M  V30 10845 O 1041.25 -0.795632 -2.39637 0
M  V30 10846 C 1042.57 -3.00681 -0.0337753 0
M  V30 10847 C 1044.12 -3.12837 -0.10087 0
M  V30 10848 C 1044.59 -4.57911 0.0905295 0
M  V30 10849 N 1046.08 -4.63186 0.0359789 0
M  V30 10850 C 1046.82 -5.73179 0.159199 0
M  V30 10851 N 1046.31 -6.91976 0.337728 0
M  V30 10852 N 1048.11 -5.62011 0.0998662 0
M  V30 10853 H 1040.26 -1.85499 1.0346 0
M  V30 10854 H 1042.52 -0.856584 0.406163 0
M  V30 10855 H 1042.23 -3.38602 0.950858 0
M  V30 10856 H 1042.1 -3.69207 -0.772406 0
M  V30 10857 H 1044.49 -2.74783 -1.07601 0
M  V30 10858 H 1044.57 -2.46886 0.66939 0
M  V30 10859 H 1044.21 -4.9666 1.06258 0
M  V30 10860 H 1044.14 -5.21933 -0.699528 0
M  V30 10861 H 1046.63 -3.7777 -0.099121 0
M  V30 10862 H 1046.95 -7.71641 0.423032 0
M  V30 10863 H 1045.29 -6.93996 0.373504 0
M  V30 10864 H 1048.48 -4.68084 -0.0385356 0
M  V30 10865 H 1048.65 -6.47693 0.199342 0
M  V30 10866 N 1042.06 0.170153 -1.56679 0
M  V30 10867 C 1043.29 0.900826 -1.85927 0
M  V30 10868 C 1043.7 1.76285 -0.687033 0
M  V30 10869 O 1043.04 1.80276 0.353029 0
M  V30 10870 C 1043.1 1.82723 -3.096 0
M  V30 10871 C 1042.77 1.14469 -4.42432 0
M  V30 10872 C 1043.76 0.509598 -5.17396 0
M  V30 10873 C 1041.45 1.1411 -4.89167 0
M  V30 10874 C 1043.44 -0.119976 -6.37287 0
M  V30 10875 C 1041.13 0.507703 -6.08987 0
M  V30 10876 C 1042.13 -0.121731 -6.82892 0
M  V30 10877 O 1041.82 -0.74514 -8.00439 0
M  V30 10878 H 1041.55 0.267087 -0.621 0
M  V30 10879 H 1044.1 0.17474 -2.04655 0
M  V30 10880 H 1042.33 2.59367 -2.8682 0
M  V30 10881 H 1044.02 2.42784 -3.25285 0
M  V30 10882 H 1044.79 0.504341 -4.82371 0
M  V30 10883 H 1040.67 1.62043 -4.31582 0
M  V30 10884 H 1044.21 -0.611872 -6.94911 0
M  V30 10885 H 1040.11 0.510548 -6.43478 0
M  V30 10886 H 1040.88 -0.644506 -8.15959 0
M  V30 10887 N 1043.54 1.5137 0.438746 0
M  V30 10888 C 1044.79 1.63645 1.18595 0
M  V30 10889 C 1045.11 0.354241 1.91755 0
M  V30 10890 O 1044.38 -0.629838 1.85499 0
M  V30 10891 H 1042.96 0.603103 0.440767 0
M  V30 10892 H 1045.62 1.88293 0.503159 0
M  V30 10893 H 1044.72 2.46342 1.9163 0
M  V30 10894 N 1045.02 -0.694098 1.41492 0
M  V30 10895 C 1045.93 -1.83778 1.45818 0
M  V30 10896 C 1046.94 -1.70471 0.348639 0
M  V30 10897 O 1048.12 -1.92361 0.596588 0
M  V30 10898 C 1045.18 -3.19771 1.33967 0
M  V30 10899 C 1044.24 -3.45175 2.5525 0
M  V30 10900 C 1043.48 -4.74681 2.43955 0
M  V30 10901 O 1043.7 -5.51268 1.46491 0
M  V30 10902 O 1042.63 -5.00901 3.33739 0
M  V30 10903 H 1046.46 -1.83084 2.42309 0
M  V30 10904 H 1044.05 -0.847349 1.23046 0
M  V30 10905 H 1045.93 -4.00961 1.29648 0
M  V30 10906 H 1044.6 -3.21145 0.405926 0
M  V30 10907 H 1043.51 -2.6391 2.65146 0
M  V30 10908 H 1044.84 -3.48617 3.47458 0
M  V30 10909 N 1046.49 -1.27344 -0.928501 0
M  V30 10910 C 1047.91 -1.12361 -1.49103 0
M  V30 10911 C 1048.26 0.291667 -1.9402 0
M  V30 10912 O 1047.38 1.18449 -1.81104 0
M  V30 10913 C 1047.98 -2.03358 -2.70981 0
M  V30 10914 C 1046.54 -1.92483 -3.23461 0
M  V30 10915 C 1045.68 -1.95961 -1.962 0
M  V30 10916 H 1048.63 -1.40249 -0.742689 0
M  V30 10917 H 1048.65 -1.58892 -3.45736 0
M  V30 10918 H 1048.17 -3.06356 -2.38259 0
M  V30 10919 H 1046.27 -0.924676 -3.60944 0
M  V30 10920 H 1046.38 -2.78682 -3.89709 0
M  V30 10921 H 1044.74 -1.40175 -2.12657 0
M  V30 10922 H 1045.53 -3.00612 -1.65793 0
M  V30 10923 N 1047.97 1.13488 -1.09353 0
M  V30 10924 C 1049.39 1.36739 -0.823086 0
M  V30 10925 C 1049.59 1.93476 0.562963 0
M  V30 10926 O 1048.64 2.15374 1.31796 0
M  V30 10927 C 1049.96 2.31943 -1.91371 0
M  V30 10928 C 1051.51 2.4556 -1.94085 0
M  V30 10929 C 1051.98 3.44072 -3.02289 0
M  V30 10930 N 1053.47 3.51622 -3.01524 0
M  V30 10931 C 1054.21 4.27724 -3.8189 0
M  V30 10932 N 1053.7 5.06987 -4.72161 0
M  V30 10933 N 1055.5 4.23018 -3.70152 0
M  V30 10934 H 1047.65 0.75012 -1.98713 0
M  V30 10935 H 1049.91 0.392564 -0.862901 0
M  V30 10936 H 1049.62 1.97408 -2.91072 0
M  V30 10937 H 1049.49 3.31952 -1.79131 0
M  V30 10938 H 1051.88 2.79382 -0.950234 0
M  V30 10939 H 1051.96 1.45479 -2.10403 0
M  V30 10940 H 1051.6 3.10981 -4.01564 0
M  V30 10941 H 1051.53 4.43956 -2.83214 0
M  V30 10942 H 1054.02 2.95066 -2.36103 0
M  V30 10943 H 1054.34 5.6236 -5.30067 0
M  V30 10944 H 1052.68 5.06222 -4.76197 0
M  V30 10945 H 1055.87 3.60171 -2.98989 0
M  V30 10946 H 1056.04 4.82075 -4.33022 0
M  V30 10947 N 1049.45 0.880621 1.30701 0
M  V30 10948 C 1050.68 0.510909 2.01009 0
M  V30 10949 C 1051.1 -0.892041 1.65603 0
M  V30 10950 O 1050.46 -1.59045 0.870309 0
M  V30 10951 C 1050.51 0.687759 3.53981 0
M  V30 10952 O 1049.61 -0.268275 4.11526 0
M  V30 10953 H 1048.95 0.201864 0.632572 0
M  V30 10954 H 1051.48 1.18697 1.6665 0
M  V30 10955 H 1051.49 0.585095 4.03783 0
M  V30 10956 H 1050.17 1.71068 3.79089 0
M  V30 10957 H 1048.74 -0.119673 3.72708 0
M  V30 10958 N 1050.93 -1.4397 0.641131 0
M  V30 10959 C 1052.18 -2.01946 0.149629 0
M  V30 10960 C 1052.5 -1.50496 -1.23212 0
M  V30 10961 O 1051.76 -0.683453 -1.83378 0
M  V30 10962 C 1052.06 -3.5727 0.0963368 0
M  V30 10963 C 1051.72 -4.28016 1.4182 0
M  V30 10964 C 1050.39 -4.47059 1.78021 0
M  V30 10965 C 1052.74 -4.68183 2.29028 0
M  V30 10966 C 1050.07 -5.03532 3.01119 0
M  V30 10967 C 1052.42 -5.26019 3.51406 0
M  V30 10968 C 1051.08 -5.4328 3.87818 0
M  V30 10969 H 1050.35 -0.738974 0.0547531 0
M  V30 10970 H 1053 -1.72605 0.829436 0
M  V30 10971 H 1051.3 -3.86083 -0.666879 0
M  V30 10972 H 1053 -3.99871 -0.300635 0
M  V30 10973 H 1049.59 -4.13531 1.12651 0
M  V30 10974 H 1053.78 -4.53175 2.02353 0
M  V30 10975 H 1049.03 -5.15082 3.29395 0
M  V30 10976 H 1053.21 -5.56092 4.19208 0
M  V30 10977 H 1050.83 -5.86805 4.83284 0
M  V30 10978 N 1052.41 -0.382291 -1.52893 0
M  V30 10979 C 1053.36 0.471187 -2.27778 0
M  V30 10980 C 1054.35 1.0691 -1.31402 0
M  V30 10981 O 1055.56 1.01038 -1.48967 0
M  V30 10982 H 1051.93 0.170696 -0.732371 0
M  V30 10983 H 1053.9 -0.181954 -2.97845 0
M  V30 10984 C 1052.65 1.59012 -3.09209 0
M  V30 10985 H 1051.97 1.13935 -3.83222 0
M  V30 10986 H 1053.41 2.16167 -3.64757 0
M  V30 10987 C 1051.87 2.54212 -2.21084 0
M  V30 10988 O 1052.4 3.57447 -1.83288 0
M  V30 10989 N 1050.61 2.23789 -1.85383 0
M  V30 10990 H 1050.16 1.39872 -2.16318 0
M  V30 10991 H 1050.11 2.87737 -1.26708 0
M  V30 10992 N 1053.89 1.57202 -0.111913 0
M  V30 10993 C 1055.13 1.95239 0.548607 0
M  V30 10994 C 1055.46 0.994897 1.6678 0
M  V30 10995 O 1054.74 0.0308603 1.94476 0
M  V30 10996 C 1055.02 3.43271 1.08798 0
M  V30 10997 C 1054.88 4.49792 -0.0273064 0
M  V30 10998 C 1056.19 3.92989 1.98109 0
M  V30 10999 H 1053.31 0.709919 0.197951 0
M  V30 11000 H 1055.96 1.89087 -0.186036 0
M  V30 11001 H 1054.11 3.48644 1.71404 0
M  V30 11002 H 1055.78 4.56521 -0.662302 0
M  V30 11003 H 1054.02 4.28254 -0.691426 0
M  V30 11004 H 1054.69 5.50612 0.391201 0
M  V30 11005 H 1057.17 3.89875 1.45385 0
M  V30 11006 H 1056.04 4.97101 2.32769 0
M  V30 11007 H 1056.3 3.33267 2.90492 0
M  V30 11008 N 1055.36 -0.161842 1.56767 0
M  V30 11009 C 1056.59 -0.896274 1.87034 0
M  V30 11010 C 1057.01 -1.74617 0.699314 0
M  V30 11011 O 1056.37 -1.77861 -0.351435 0
M  V30 11012 C 1056.42 -1.74105 3.15784 0
M  V30 11013 O 1055.52 -2.84372 2.98674 0
M  V30 11014 H 1054.86 -0.250523 0.614926 0
M  V30 11015 H 1057.39 -0.157127 2.03996 0
M  V30 11016 H 1057.4 -2.13907 3.4743 0
M  V30 11017 H 1056.08 -1.11684 4.00624 0
M  V30 11018 H 1054.66 -2.48084 2.78404 0
M  V30 11019 N 1056.84 -1.516 -0.430713 0
M  V30 11020 C 1057.77 -1.76342 -1.53054 0
M  V30 11021 C 1058.75 -0.61349 -1.58652 0
M  V30 11022 O 1059.94 -0.856888 -1.74273 0
M  V30 11023 C 1057.07 -1.8945 -2.91077 0
M  V30 11024 C 1056.02 -3.04928 -3.00339 0
M  V30 11025 C 1055.35 -3.03228 -4.40405 0
M  V30 11026 C 1056.65 -4.44777 -2.73808 0
M  V30 11027 H 1058.34 -2.68435 -1.326 0
M  V30 11028 H 1055.89 -1.29171 -0.636466 0
M  V30 11029 H 1057.84 -2.05343 -3.67984 0
M  V30 11030 H 1056.56 -0.940114 -3.12777 0
M  V30 11031 H 1055.22 -2.88751 -2.25872 0
M  V30 11032 H 1054.87 -2.05553 -4.59083 0
M  V30 11033 H 1054.57 -3.80776 -4.47531 0
M  V30 11034 H 1056.1 -3.21222 -5.19277 0
M  V30 11035 H 1057.51 -4.6127 -3.40445 0
M  V30 11036 H 1055.91 -5.2408 -2.92335 0
M  V30 11037 H 1056.98 -4.54358 -1.69372 0
M  V30 11038 N 1058.32 0.686584 -1.41858 0
M  V30 11039 C 1059.74 0.998283 -1.24525 0
M  V30 11040 C 1059.94 2.01006 -0.141007 0
M  V30 11041 O 1058.99 2.47667 0.491648 0
M  V30 11042 C 1060.3 1.51432 -2.59786 0
M  V30 11043 C 1061.85 1.6327 -2.67043 0
M  V30 11044 C 1062.33 2.18274 -4.02642 0
M  V30 11045 N 1063.82 2.25622 -4.04535 0
M  V30 11046 C 1064.55 2.69229 -5.06264 0
M  V30 11047 N 1064.05 3.12375 -6.1838 0
M  V30 11048 N 1065.84 2.68873 -4.93623 0
M  V30 11049 H 1057.99 0.0164825 -2.12394 0
M  V30 11050 H 1060.26 0.0698613 -0.945422 0
M  V30 11051 H 1059.96 0.845426 -3.41388 0
M  V30 11052 H 1059.84 2.49502 -2.82894 0
M  V30 11053 H 1062.22 2.29269 -1.85794 0
M  V30 11054 H 1062.3 0.637221 -2.47736 0
M  V30 11055 H 1061.95 1.52887 -4.84343 0
M  V30 11056 H 1061.88 3.18591 -4.19294 0
M  V30 11057 H 1064.37 1.95186 -3.23591 0
M  V30 11058 H 1064.68 3.44301 -6.91864 0
M  V30 11059 H 1063.03 3.10262 -6.21902 0
M  V30 11060 H 1066.22 2.34521 -4.05114 0
M  V30 11061 H 1066.39 3.02539 -5.7304 0
M  V30 11062 N 1059.8 1.27835 0.921735 0
M  V30 11063 C 1061.05 1.14296 1.66676 0
M  V30 11064 C 1061.37 -0.310493 1.92512 0
M  V30 11065 O 1060.64 -1.21637 1.53562 0
M  V30 11066 H 1059.22 0.419994 0.617749 0
M  V30 11067 H 1061.88 1.60449 1.10644 0
M  V30 11068 H 1060.97 1.67654 2.63246 0
M  V30 11069 N 1061.28 -1.12907 1.09954 0
M  V30 11070 C 1062.24 -2.16673 0.747364 0
M  V30 11071 C 1063.24 -1.59208 -0.225741 0
M  V30 11072 O 1064.43 -1.742 -0.00322482 0
M  V30 11073 C 1061.56 -3.40735 0.106169 0
M  V30 11074 H 1062.75 -2.49341 1.6664 0
M  V30 11075 H 1060.31 -1.27828 0.899421 0
M  V30 11076 H 1061.04 -3.13661 -0.82384 0
M  V30 11077 H 1060.83 -3.83717 0.806434 0
M  V30 11078 H 1062.32 -4.17414 -0.12464 0
M  V30 11079 N 1062.75 -0.88754 -1.30232 0
M  V30 11080 C 1064 -0.507279 -1.96043 0
M  V30 11081 C 1064.33 0.944059 -1.70052 0
M  V30 11082 O 1063.58 1.68255 -0.999444 0
M  V30 11083 C 1063.88 -0.731765 -3.49828 0
M  V30 11084 C 1063.55 -2.15858 -3.95874 0
M  V30 11085 C 1062.21 -2.54875 -4.08157 0
M  V30 11086 C 1064.56 -3.0883 -4.19849 0
M  V30 11087 C 1061.89 -3.86069 -4.41778 0
M  V30 11088 C 1064.24 -4.39559 -4.5494 0
M  V30 11089 C 1062.91 -4.78465 -4.65432 0
M  V30 11090 H 1062.18 -0.185627 -0.717373 0
M  V30 11091 H 1064.82 -1.12388 -1.55052 0
M  V30 11092 H 1063.13 -0.0321473 -3.91787 0
M  V30 11093 H 1064.83 -0.417107 -3.98825 0
M  V30 11094 H 1061.42 -1.84574 -3.86821 0
M  V30 11095 H 1065.6 -2.79906 -4.09837 0
M  V30 11096 H 1060.86 -4.1595 -4.48102 0
M  V30 11097 H 1065.03 -5.11636 -4.72442 0
M  V30 11098 H 1062.66 -5.80162 -4.91239 0
M  V30 11099 O 1064.27 1.40948 -0.788408 0
M  V30 11100 H 1064.96 1.90359 -0.358211 0
M  V30 END ATOM
M  V30 BEGIN BOND
M  V30 END BOND
M  V30 END CTAB
M  END
$$$$
