drugbank_target|P48544 G protein-activated inward rectifier potassium channel 4 (DB00898; DB08954)
 OpenBabel12092120073D

  0  0  0     0  0            999 V3000
M  V30 BEGIN CTAB
M  V30 COUNTS 6654 6728 0 0 0
M  V30 BEGIN ATOM
M  V30 1 H -0.908 1.98254 -0.117106 0
M  V30 2 N 0 1.576 0 0
M  V30 3 C 0.933 2.03868 1.02534 0
M  V30 4 C 1.911 0.928543 1.3348 0
M  V30 5 O 3.095 1.19667 1.45644 0
M  V30 6 C 0.222 2.43627 2.35294 0
M  V30 7 C -0.732 3.65373 2.2001 0
M  V30 8 S 0.101 5.13292 1.52614 0
M  V30 9 C 1.257 5.56322 2.86805 0
M  V30 10 H 1.49 2.90518 0.631377 0
M  V30 11 H -0.977 1.52953 0.210867 0
M  V30 12 H 0.981 2.67203 3.11629 0
M  V30 13 H -0.358 1.57376 2.7183 0
M  V30 14 H -1.165 3.90944 3.18086 0
M  V30 15 H -1.563 3.418 1.51819 0
M  V30 16 H 0.729 5.58782 3.83104 0
M  V30 17 H 1.672 6.56266 2.65933 0
M  V30 18 H 2.08 4.83886 2.90714 0
M  V30 19 N 1.4781 -0.272755 1.55222 0
M  V30 20 C 2.4411 -1.32041 1.87344 0
M  V30 21 C 3.4411 -1.42342 0.74803 0
M  V30 22 O 4.6311 -1.41488 1.0162 0
M  V30 23 C 1.7631 -2.70173 2.07893 0
M  V30 24 H 2.9561 -1.04789 2.80997 0
M  V30 25 H 0.5091 -0.51083 1.47717 0
M  V30 26 H 1.2441 -3.02605 1.16622 0
M  V30 27 H 1.0291 -2.64082 2.89833 0
M  V30 28 H 2.5191 -3.45869 2.34017 0
M  V30 29 N 2.9562 -1.48159 -0.537278 0
M  V30 30 C 4.2042 -1.55497 -1.29094 0
M  V30 31 C 4.5252 -0.227454 -1.93669 0
M  V30 32 O 3.7952 0.750386 -1.80959 0
M  V30 33 H 2.3752 -0.572832 -0.47945 0
M  V30 34 H 5.0372 -1.84579 -0.625818 0
M  V30 35 H 4.1332 -2.33216 -2.07405 0
M  V30 36 N 4.4343 0.785586 -1.36625 0
M  V30 37 C 5.7113 1.53198 -1.21613 0
M  V30 38 C 6.0913 2.10187 0.196113 0
M  V30 39 O 5.4393 1.94318 1.20219 0
M  V30 40 C 5.6493 2.62388 -2.30116 0
M  V30 41 C 6.9973 3.30167 -2.66974 0
M  V30 42 O 8.0213 2.72674 -2.29188 0
M  V30 43 O 6.8803 4.34077 -3.32023 0
M  V30 44 H 3.9743 0.677865 -0.473738 0
M  V30 45 H 6.5203 0.823739 -1.48367 0
M  V30 46 H 5.2923 2.18299 -3.24748 0
M  V30 47 H 4.9153 3.40827 -2.0475 0
M  V30 48 N 5.9124 1.20967 1.01018 0
M  V30 49 C 7.1374 1.0503 1.78839 0
M  V30 50 C 7.5624 -0.395752 1.8389 0
M  V30 51 O 6.9204 -1.28529 1.27867 0
M  V30 52 C 6.9684 1.64602 3.2084 0
M  V30 53 O 6.0724 0.887988 4.02726 0
M  V30 54 H 5.4134 0.369987 0.551367 0
M  V30 55 H 7.9434 1.60399 1.27018 0
M  V30 56 H 7.9534 1.68607 3.71532 0
M  V30 57 H 6.6284 2.69841 3.16479 0
M  V30 58 H 5.2054 0.922648 3.61305 0
M  V30 59 N 7.3905 -1.2043 1.01659 0
M  V30 60 C 8.8065 -1.41852 0.731442 0
M  V30 61 C 9.0065 -1.89358 -0.688898 0
M  V30 62 O 8.0625 -2.06247 -1.45666 0
M  V30 63 C 9.3755 -2.44019 1.75714 0
M  V30 64 C 10.9235 -2.57785 1.77527 0
M  V30 65 C 11.3985 -3.63194 2.79023 0
M  V30 66 N 12.8895 -3.70678 2.77763 0
M  V30 67 C 13.6245 -4.51897 3.52954 0
M  V30 68 N 13.1205 -5.36921 4.37821 0
M  V30 69 N 14.9135 -4.4643 3.41551 0
M  V30 70 H 7.0645 -0.879093 1.93354 0
M  V30 71 H 9.3275 -0.448425 0.835236 0
M  V30 72 H 9.0335 -2.1611 2.77469 0
M  V30 73 H 8.9075 -3.43007 1.56927 0
M  V30 74 H 11.2945 -2.85023 0.764569 0
M  V30 75 H 11.3755 -1.58992 2.00387 0
M  V30 76 H 11.0195 -3.36699 3.80258 0
M  V30 77 H 10.9495 -4.61609 2.53425 0
M  V30 78 H 13.4405 -3.09944 2.16201 0
M  V30 79 H 13.7535 -5.95981 4.91962 0
M  V30 80 H 12.0985 -5.36424 4.41899 0
M  V30 81 H 15.2895 -3.79042 2.74672 0
M  V30 82 H 15.4625 -5.09491 4.00404 0
M  V30 83 N 8.8686 -0.792821 -1.36206 0
M  V30 84 C 9.8166 -0.181555 -2.3189 0
M  V30 85 C 10.8106 0.661025 -1.55971 0
M  V30 86 O 12.0166 0.555728 -1.71206 0
M  V30 87 H 8.3916 -0.0399382 -0.750939 0
M  V30 88 H 10.3626 -1.00394 -2.81005 0
M  V30 89 C 9.1116 0.666444 -3.41253 0
M  V30 90 H 8.4346 0.0274489 -3.99791 0
M  V30 91 H 9.8746 1.06076 -4.10517 0
M  V30 92 C 8.3336 1.82614 -2.83114 0
M  V30 93 O 8.8636 2.9229 -2.75553 0
M  V30 94 N 7.0696 1.63333 -2.40356 0
M  V30 95 H 6.6166 0.741217 -2.46706 0
M  V30 96 H 6.5746 2.41087 -2.01803 0
M  V30 97 N 10.3467 1.47872 -0.545128 0
M  V30 98 C 11.3097 2.28337 0.198717 0
M  V30 99 C 12.3097 1.36255 0.853888 0
M  V30 100 O 13.4997 1.59003 0.711606 0
M  V30 101 C 10.6317 3.15585 1.28915 0
M  V30 102 H 11.8247 2.95567 -0.507941 0
M  V30 103 H 9.3777 1.53362 -0.301616 0
M  V30 104 H 10.1127 2.53019 2.02859 0
M  V30 105 H 9.8977 3.83337 0.824309 0
M  V30 106 H 11.3877 3.76243 1.81194 0
M  V30 107 N 11.8248 0.280983 1.55075 0
M  V30 108 C 12.7578 -0.645439 2.18882 0
M  V30 109 C 13.7358 -1.14786 1.15165 0
M  V30 110 O 14.9198 -1.21975 1.43716 0
M  V30 111 C 12.0468 -1.88088 2.81674 0
M  V30 112 C 11.0928 -1.51343 3.98745 0
M  V30 113 S 11.9258 -0.586548 5.32278 0
M  V30 114 C 13.0818 -1.83024 5.98543 0
M  V30 115 H 13.3148 -0.1033 2.9712 0
M  V30 116 H 10.8478 0.0652099 1.54262 0
M  V30 117 H 12.8058 -2.58997 3.18482 0
M  V30 118 H 11.4668 -2.39417 2.03318 0
M  V30 119 H 10.6598 -2.43289 4.41392 0
M  V30 120 H 10.2618 -0.884477 3.63391 0
M  V30 121 H 12.5538 -2.77342 6.18133 0
M  V30 122 H 13.4968 -1.44668 6.93164 0
M  V30 123 H 13.9048 -1.99785 5.27964 0
M  V30 124 N 13.3029 -1.57598 0.00835791 0
M  V30 125 C 14.2509 -2.10078 -0.998508 0
M  V30 126 C 15.2449 -1.02262 -1.35051 0
M  V30 127 O 16.4509 -1.20719 -1.33518 0
M  V30 128 H 12.8259 -0.670903 -0.339696 0
M  V30 129 H 14.7969 -2.93648 -0.530398 0
M  V30 130 C 13.5459 -2.62615 -2.27879 0
M  V30 131 H 12.8689 -3.45213 -2.01662 0
M  V30 132 H 14.3089 -3.03004 -2.96588 0
M  V30 133 C 12.7679 -1.54407 -2.99433 0
M  V30 134 O 13.2979 -0.931812 -3.90743 0
M  V30 135 N 11.5039 -1.2695 -2.61404 0
M  V30 136 H 11.0509 -1.76924 -1.87232 0
M  V30 137 H 11.0089 -0.547704 -3.09593 0
M  V30 138 N 14.781 0.264519 -1.55364 0
M  V30 139 C 15.713 1.34965 -1.85248 0
M  V30 140 C 16.726 1.45136 -0.737525 0
M  V30 141 O 17.915 1.46801 -1.01547 0
M  V30 142 C 15.015 2.73008 -2.00797 0
M  V30 143 C 14.188 2.85324 -3.31525 0
M  V30 144 C 13.247 4.04097 -3.37034 0
M  V30 145 O 12.273 3.94455 -4.10358 0
M  V30 146 N 13.475 5.16458 -2.65049 0
M  V30 147 H 16.24 1.09672 -2.78913 0
M  V30 148 H 13.801 0.454635 -1.55386 0
M  V30 149 H 15.793 3.50772 -2.01844 0
M  V30 150 H 14.363 2.91087 -1.1396 0
M  V30 151 H 13.583 1.94377 -3.42945 0
M  V30 152 H 14.871 2.9049 -4.17724 0
M  V30 153 H 14.269 5.27181 -2.05175 0
M  V30 154 H 12.826 5.92422 -2.71809 0
M  V30 155 N 16.2591 1.48442 0.529413 0
M  V30 156 C 17.5361 1.46978 1.29062 0
M  V30 157 C 17.9161 0.181769 2.10316 0
M  V30 158 O 17.2641 -0.836481 2.12639 0
M  V30 159 C 17.4741 2.7321 2.17157 0
M  V30 160 C 18.8221 3.21562 2.77278 0
M  V30 161 O 19.8461 2.74131 2.27444 0
M  V30 162 O 18.7051 4.04094 3.67927 0
M  V30 163 H 15.7991 0.587003 0.582543 0
M  V30 164 H 18.3451 1.60676 0.546021 0
M  V30 165 H 17.1171 3.58465 1.56903 0
M  V30 166 H 16.7401 2.62235 2.98862 0
M  V30 167 N 17.7372 -0.778329 1.37039 0
M  V30 168 C 18.6702 -1.8984 1.26633 0
M  V30 169 C 19.6482 -1.61923 0.148197 0
M  V30 170 O 20.8322 -1.85742 0.321265 0
M  V30 171 C 17.9592 -3.24916 0.956403 0
M  V30 172 C 17.0052 -3.71752 2.09051 0
M  V30 173 S 17.8382 -3.86201 3.70957 0
M  V30 174 C 18.9942 -5.24135 3.42101 0
M  V30 175 H 19.2272 -1.98377 2.21436 0
M  V30 176 H 16.7602 -0.938738 1.22585 0
M  V30 177 H 18.7182 -4.02936 0.784409 0
M  V30 178 H 17.3792 -3.14089 0.0259713 0
M  V30 179 H 16.5722 -4.69661 1.8285 0
M  V30 180 H 16.1742 -3.00815 2.2223 0
M  V30 181 H 18.4662 -6.09086 2.96682 0
M  V30 182 H 19.4092 -5.55346 4.39314 0
M  V30 183 H 19.8172 -4.91761 2.77185 0
M  V30 184 N 19.2153 -1.21501 -1.00376 0
M  V30 185 C 20.1253 -0.991447 -2.12621 0
M  V30 186 C 21.1413 0.0568446 -1.73907 0
M  V30 187 O 22.3173 -0.13348 -2.00957 0
M  V30 188 C 19.3823 -0.560312 -3.42142 0
M  V30 189 C 18.4433 -1.68096 -3.95022 0
M  V30 190 C 17.6763 -1.2703 -5.18362 0
M  V30 191 O 17.8993 -0.144438 -5.70217 0
M  V30 192 O 16.8333 -2.08269 -5.64719 0
M  V30 193 H 20.6593 -1.93158 -2.34358 0
M  V30 194 H 18.2443 -0.999999 -1.10997 0
M  V30 195 H 20.1263 -0.329724 -4.20108 0
M  V30 196 H 18.8013 0.351089 -3.2179 0
M  V30 197 H 17.7083 -1.96597 -3.18278 0
M  V30 198 H 19.0413 -2.56983 -4.19786 0
M  V30 199 N 20.6934 1.19889 -1.02296 0
M  V30 200 C 21.9424 1.88743 -0.711257 0
M  V30 201 C 22.2554 1.80112 0.762817 0
M  V30 202 O 23.4614 2.44161 1.18733 0
M  V30 203 C 21.9174 3.38525 -1.22185 0
M  V30 204 C 21.5254 3.55727 -2.72328 0
M  V30 205 C 23.2694 4.12893 -0.985864 0
M  V30 206 C 21.1764 4.99369 -3.16835 0
M  V30 207 H 20.1064 0.706885 -0.262353 0
M  V30 208 H 22.7574 1.35586 -1.23648 0
M  V30 209 H 21.1394 3.91044 -0.624571 0
M  V30 210 H 22.3134 3.13564 -3.3766 0
M  V30 211 H 20.6284 2.94739 -2.9414 0
M  V30 212 H 23.2254 5.18813 -1.29374 0
M  V30 213 H 23.5684 4.16228 0.0775055 0
M  V30 214 H 24.1014 3.66494 -1.54684 0
M  V30 215 H 20.8404 5.01193 -4.22476 0
M  V30 216 H 20.3604 5.42317 -2.56228 0
M  V30 217 H 22.0394 5.67988 -3.09837 0
M  V30 218 N 22.1715 0.800033 1.35784 0
M  V30 219 C 23.4195 0.376597 1.9856 0
M  V30 220 C 23.7405 -1.05812 1.63795 0
M  V30 221 O 23.0105 -1.73103 0.917171 0
M  V30 222 H 21.5905 0.136261 0.734467 0
M  V30 223 H 24.2525 1.02442 1.65806 0
M  V30 224 H 23.3485 0.477002 3.08433 0
M  V30 225 N 23.6496 -1.47581 0.552962 0
M  V30 226 C 24.8956 -2.02782 0.0273648 0
M  V30 227 C 25.2286 -1.42687 -1.31734 0
M  V30 228 O 24.5036 -0.580897 -1.85623 0
M  V30 229 C 24.7866 -3.60031 -0.0702371 0
M  V30 230 C 24.6396 -4.30566 1.30126 0
M  V30 231 C 25.9586 -4.33028 -0.785771 0
M  V30 232 H 23.0776 -0.736912 0.0114185 0
M  V30 233 H 25.7196 -1.76056 0.714432 0
M  V30 234 H 23.8696 -3.82932 -0.655382 0
M  V30 235 H 25.5416 -4.19018 1.92929 0
M  V30 236 H 23.7846 -3.91086 1.87709 0
M  V30 237 H 24.4556 -5.39114 1.18573 0
M  V30 238 H 26.9316 -4.15095 -0.288982 0
M  V30 239 H 25.8076 -5.42695 -0.823013 0
M  V30 240 H 26.0686 -4.01945 -1.841 0
M  V30 241 N 25.1277 -0.289203 -1.54924 0
M  V30 242 C 26.3557 0.326463 -2.04308 0
M  V30 243 C 26.7707 1.48413 -1.16701 0
M  V30 244 O 26.1277 1.81507 -0.190087 0
M  V30 245 C 26.1787 0.794014 -3.52672 0
M  V30 246 O 25.8997 -0.317564 -4.36948 0
M  V30 247 C 27.4007 1.47605 -4.18004 0
M  V30 248 H 24.6207 0.0726272 -0.667058 0
M  V30 249 H 27.1647 -0.425401 -2.00026 0
M  V30 250 H 25.3197 1.49593 -3.57352 0
M  V30 251 H 25.7337 0.0443186 -5.24481 0
M  V30 252 H 27.2077 1.75447 -5.23376 0
M  V30 253 H 27.6847 2.41224 -3.67025 0
M  V30 254 H 28.2907 0.81762 -4.17367 0
M  V30 255 N 26.6058 1.57591 -0.0167156 0
M  V30 256 C 28.0168 1.79201 0.523834 0
M  V30 257 C 28.3678 0.925796 1.72984 0
M  V30 258 O 27.4928 0.132792 2.15992 0
M  V30 259 C 28.0878 3.25 0.957091 0
M  V30 260 C 26.6468 3.47648 1.44283 0
M  V30 261 C 25.7938 2.74374 0.401757 0
M  V30 262 H 28.7448 1.56831 -0.242816 0
M  V30 263 H 28.7658 3.34031 1.82219 0
M  V30 264 H 28.2778 3.88019 0.0791415 0
M  V30 265 H 26.3788 2.89866 2.34113 0
M  V30 266 H 26.4918 4.56352 1.45877 0
M  V30 267 H 24.8558 2.39485 0.867121 0
M  V30 268 H 25.6388 3.40102 -0.467513 0
M  V30 269 N 28.0839 -0.256276 1.55502 0
M  V30 270 C 29.3299 -0.982884 1.78076 0
M  V30 271 C 29.6849 -1.83319 0.584109 0
M  V30 272 O 28.9779 -1.86875 -0.422877 0
M  V30 273 C 29.1719 -1.88432 3.03691 0
M  V30 274 C 29.0009 -1.12276 4.35459 0
M  V30 275 C 27.7709 -0.831647 4.98409 0
M  V30 276 C 29.9689 -0.504933 5.11815 0
M  V30 277 N 27.9509 -0.0450423 6.13883 0
M  V30 278 C 29.3219 0.146696 6.19826 0
M  V30 279 C 31.3769 -0.414455 4.96172 0
M  V30 280 C 30.0799 0.880103 7.13895 0
M  V30 281 C 32.1059 0.305398 5.90611 0
M  V30 282 C 31.4679 0.945701 6.98023 0
M  V30 283 H 27.5669 -0.341084 0.703694 0
M  V30 284 H 30.1509 -0.256909 1.92998 0
M  V30 285 H 28.3219 -2.58241 2.90114 0
M  V30 286 H 30.0539 -2.54579 3.14598 0
M  V30 287 H 26.8089 -1.14111 4.59647 0
M  V30 288 H 27.2329 0.336079 6.76165 0
M  V30 289 H 31.8749 -0.895163 4.13215 0
M  V30 290 H 29.5929 1.37244 7.9636 0
M  V30 291 H 33.1789 0.375946 5.80584 0
M  V30 292 H 32.0589 1.49383 7.6984 0
M  V30 293 N 29.562 -1.4872 -0.521534 0
M  V30 294 C 30.839 -1.4766 -1.2828 0
M  V30 295 C 31.219 -0.19292 -2.10217 0
M  V30 296 O 30.567 0.825193 -2.13079 0
M  V30 297 C 30.777 -2.74358 -2.15705 0
M  V30 298 C 32.125 -3.23028 -2.75569 0
M  V30 299 O 33.149 -2.75333 -2.25987 0
M  V30 300 O 32.008 -4.0604 -3.65778 0
M  V30 301 H 29.102 -0.590085 -0.579421 0
M  V30 302 H 31.648 -1.60963 -0.537492 0
M  V30 303 H 30.42 -3.59292 -1.54999 0
M  V30 304 H 30.043 -2.63816 -2.97467 0
M  V30 305 N 31.0401 0.771051 -1.3745 0
M  V30 306 C 32.4511 1.34737 -1.29239 0
M  V30 307 C 32.8021 1.96109 0.0596908 0
M  V30 308 O 31.9271 1.93865 0.961534 0
M  V30 309 C 32.5221 2.44973 -2.34037 0
M  V30 310 C 31.0811 2.98372 -2.29458 0
M  V30 311 C 30.2281 1.71595 -2.17831 0
M  V30 312 H 33.1791 0.571256 -1.48062 0
M  V30 313 H 33.2001 3.24471 -1.98744 0
M  V30 314 H 32.7121 2.00276 -3.32432 0
M  V30 315 H 30.8131 3.47443 -1.34589 0
M  V30 316 H 30.9261 3.53939 -3.229 0
M  V30 317 H 29.2901 1.94547 -1.64388 0
M  V30 318 H 30.0731 1.29001 -3.18141 0
M  V30 319 N 32.5182 1.22032 0.997298 0
M  V30 320 C 33.4652 0.986467 2.08656 0
M  V30 321 C 34.4352 -0.0902671 1.65855 0
M  V30 322 O 35.6202 0.0584294 1.90711 0
M  V30 323 C 32.7602 0.565569 3.40434 0
M  V30 324 C 31.8732 1.71259 3.96604 0
M  V30 325 C 31.0082 1.24011 5.16522 0
M  V30 326 C 30.0472 2.35896 5.64818 0
M  V30 327 N 29.1842 1.89726 6.7598 0
M  V30 328 H 34.0242 1.91892 2.27994 0
M  V30 329 H 31.5612 0.956199 1.11782 0
M  V30 330 H 33.5192 0.302738 4.161 0
M  V30 331 H 32.1492 -0.329879 3.2111 0
M  V30 332 H 31.2012 2.08986 3.17851 0
M  V30 333 H 32.5132 2.55436 4.28432 0
M  V30 334 H 31.6672 0.934395 5.99461 0
M  V30 335 H 30.4062 0.368487 4.86306 0
M  V30 336 H 29.4112 2.67261 4.8047 0
M  V30 337 H 30.6362 3.23567 5.97061 0
M  V30 338 H 28.5822 1.0492 6.47555 0
M  V30 339 H 28.4992 2.67471 7.07103 0
M  V30 340 H 29.7672 1.62211 7.62435 0
M  V30 341 N 33.9963 -1.19345 1.0293 0
M  V30 342 C 34.9433 -2.2258 0.610464 0
M  V30 343 C 35.9133 -1.6179 -0.375946 0
M  V30 344 O 37.0983 -1.88844 -0.272511 0
M  V30 345 C 34.2383 -3.45085 -0.0321473 0
M  V30 346 C 33.3513 -4.20258 1.00035 0
M  V30 347 C 32.4863 -5.3019 0.32746 0
M  V30 348 C 31.5253 -5.97121 1.34584 0
M  V30 349 N 30.6623 -6.98615 0.698726 0
M  V30 350 H 35.5023 -2.57764 1.49538 0
M  V30 351 H 33.0393 -1.26644 0.748311 0
M  V30 352 H 34.9973 -4.15061 -0.421966 0
M  V30 353 H 33.6273 -3.10555 -0.88064 0
M  V30 354 H 32.6793 -3.49223 1.50823 0
M  V30 355 H 33.9913 -4.66175 1.77433 0
M  V30 356 H 33.1453 -6.06587 -0.11718 0
M  V30 357 H 31.8843 -4.85345 -0.478713 0
M  V30 358 H 30.8893 -5.19474 1.80074 0
M  V30 359 H 32.1143 -6.4405 2.15352 0
M  V30 360 H 30.0603 -6.55942 -0.0873471 0
M  V30 361 H 29.9773 -7.42724 1.41058 0
M  V30 362 H 31.2453 -7.79004 0.278102 0
M  V30 363 N 35.4744 -0.807222 -1.35358 0
M  V30 364 C 36.7234 -0.384376 -1.98004 0
M  V30 365 C 37.0364 1.0543 -1.64754 0
M  V30 366 O 38.2424 1.58029 -2.20769 0
M  V30 367 C 36.6984 -0.636326 -3.5423 0
M  V30 368 C 36.3064 -2.08759 -3.96388 0
M  V30 369 C 38.0504 -0.278869 -4.23583 0
M  V30 370 C 35.9574 -2.28525 -5.45463 0
M  V30 371 H 34.8874 -0.139986 -0.740891 0
M  V30 372 H 37.5384 -0.991369 -1.54415 0
M  V30 373 H 35.9204 0.0406256 -3.95979 0
M  V30 374 H 37.0944 -2.8024 -3.6579 0
M  V30 375 H 35.4094 -2.40497 -3.39926 0
M  V30 376 H 38.0064 -0.404599 -5.33167 0
M  V30 377 H 38.3494 0.775012 -4.09022 0
M  V30 378 H 38.8824 -0.909764 -3.87257 0
M  V30 379 H 35.6214 -3.32361 -5.64992 0
M  V30 380 H 35.1414 -1.61569 -5.77629 0
M  V30 381 H 36.8204 -2.10109 -6.11934 0
M  V30 382 N 36.9525 1.47285 -0.560781 0
M  V30 383 C 38.3635 1.86258 -0.128343 0
M  V30 384 C 38.7145 1.46699 1.30284 0
M  V30 385 O 37.8395 0.871698 1.98067 0
M  V30 386 C 38.4345 3.38044 -0.22614 0
M  V30 387 C 36.9935 3.76096 0.151283 0
M  V30 388 C 36.1405 2.71335 -0.572084 0
M  V30 389 H 39.0915 1.38752 -0.770297 0
M  V30 390 H 39.1125 3.76441 0.554322 0
M  V30 391 H 38.6245 3.66806 -1.26788 0
M  V30 392 H 36.7255 3.52951 1.19399 0
M  V30 393 H 36.8385 4.78641 -0.209765 0
M  V30 394 H 35.2025 2.54696 -0.0147653 0
M  V30 395 H 35.9855 3.02938 -1.61504 0
M  V30 396 N 38.4306 0.297415 1.54768 0
M  V30 397 C 39.3776 -0.580276 2.23386 0
M  V30 398 C 40.3476 -1.13238 1.21517 0
M  V30 399 O 41.5326 -1.17757 1.50126 0
M  V30 400 C 38.6726 -1.74801 2.97555 0
M  V30 401 C 37.7856 -1.22764 4.1419 0
M  V30 402 C 36.9206 -2.35895 4.75949 0
M  V30 403 C 35.9596 -1.80974 5.84735 0
M  V30 404 N 35.0966 -2.87664 6.40464 0
M  V30 405 H 39.9366 0.0114833 2.97998 0
M  V30 406 H 37.4736 0.0174361 1.4709 0
M  V30 407 H 39.4316 -2.43475 3.38786 0
M  V30 408 H 38.0616 -2.31145 2.25326 0
M  V30 409 H 37.1136 -0.433271 3.77924 0
M  V30 410 H 38.4256 -0.785551 4.92575 0
M  V30 411 H 37.5796 -3.12523 5.20014 0
M  V30 412 H 36.3186 -2.83429 3.96887 0
M  V30 413 H 35.3236 -1.02834 5.40097 0
M  V30 414 H 36.5486 -1.34348 6.65678 0
M  V30 415 H 34.4946 -3.34538 5.64287 0
M  V30 416 H 34.4116 -2.4794 7.14186 0
M  V30 417 H 35.6796 -3.642 6.89187 0
M  V30 418 N 39.9087 -1.5758 0.0250728 0
M  V30 419 C 40.8407 -2.06869 -0.986796 0
M  V30 420 C 41.8537 -0.991332 -1.29137 0
M  V30 421 O 43.0427 -1.26761 -1.25674 0
M  V30 422 C 40.1427 -2.47486 -2.31525 0
M  V30 423 C 39.3157 -3.78253 -2.19643 0
M  V30 424 C 38.3747 -4.05464 -3.35388 0
M  V30 425 O 37.4007 -4.75774 -3.12454 0
M  V30 426 N 38.6027 -3.55321 -4.59051 0
M  V30 427 H 41.3677 -2.94302 -0.566276 0
M  V30 428 H 38.9287 -1.6109 -0.161776 0
M  V30 429 H 40.9207 -2.62785 -3.07776 0
M  V30 430 H 39.4907 -1.65441 -2.65232 0
M  V30 431 H 38.7107 -3.7279 -1.28144 0
M  V30 432 H 39.9987 -4.63936 -2.08903 0
M  V30 433 H 39.3967 -2.98431 -4.80578 0
M  V30 434 H 37.9537 -3.75905 -5.32483 0
M  V30 435 N 41.3868 0.248026 -1.55636 0
M  V30 436 C 42.3498 1.29044 -1.89421 0
M  V30 437 C 43.3498 1.41134 -0.770581 0
M  V30 438 O 44.5398 1.39854 -1.03858 0
M  V30 439 C 41.6718 2.66831 -2.12165 0
M  V30 440 H 42.8648 1.00305 -2.82629 0
M  V30 441 H 40.4178 0.487265 -1.48511 0
M  V30 442 H 41.1528 3.00711 -1.21422 0
M  V30 443 H 40.9378 2.59438 -2.93997 0
M  V30 444 H 42.4278 3.42103 -2.3949 0
M  V30 445 N 42.8649 1.48995 0.513639 0
M  V30 446 C 44.2809 1.35478 0.843682 0
M  V30 447 C 44.4809 0.378213 1.97919 0
M  V30 448 O 43.5369 -0.194689 2.51748 0
M  V30 449 C 44.8499 2.75901 1.1958 0
M  V30 450 C 46.3979 2.84509 1.30474 0
M  V30 451 C 46.8729 4.25671 1.69021 0
M  V30 452 N 48.3639 4.28422 1.76094 0
M  V30 453 C 49.0989 5.34601 2.07338 0
M  V30 454 N 48.5949 6.5104 2.36894 0
M  V30 455 N 50.3879 5.22007 2.08483 0
M  V30 456 H 42.5389 2.11092 -0.235328 0
M  V30 457 H 44.8019 0.947039 -0.0426669 0
M  V30 458 H 44.5079 3.49001 0.434913 0
M  V30 459 H 44.3819 3.10467 2.1422 0
M  V30 460 H 46.7689 2.11655 2.05637 0
M  V30 461 H 46.8499 2.53542 0.339155 0
M  V30 462 H 46.4939 4.99048 0.944135 0
M  V30 463 H 46.4239 4.54094 2.66658 0
M  V30 464 H 48.9149 3.44441 1.55464 0
M  V30 465 H 49.2279 7.2779 2.59887 0
M  V30 466 H 47.5729 6.54287 2.34378 0
M  V30 467 H 50.7639 4.30051 1.84861 0
M  V30 468 H 50.9369 6.04854 2.325 0
M  V30 469 N 44.343 -0.763751 1.37857 0
M  V30 470 C 45.62 -1.51244 1.24035 0
M  V30 471 C 46 -2.10472 -0.162649 0
M  V30 472 O 45.348 -1.96206 -1.17112 0
M  V30 473 C 45.558 -2.58694 2.34261 0
M  V30 474 C 46.906 -3.25878 2.72193 0
M  V30 475 O 47.93 -2.68993 2.33497 0
M  V30 476 O 46.789 -4.2874 3.38887 0
M  V30 477 H 43.883 -0.670243 0.484462 0
M  V30 478 H 46.429 -0.800031 1.49658 0
M  V30 479 H 45.201 -2.13105 3.2818 0
M  V30 480 H 44.824 -3.37527 2.10146 0
M  V30 481 N 45.8211 -1.22559 -0.990812 0
M  V30 482 C 47.0511 -1.07623 -1.76355 0
M  V30 483 C 47.4591 0.37601 -1.85426 0
M  V30 484 O 46.8021 1.27228 -1.32509 0
M  V30 485 C 46.8641 -1.61507 -3.21179 0
M  V30 486 C 46.5281 -3.10146 -3.35646 0
M  V30 487 C 47.5251 -4.07553 -3.22796 0
M  V30 488 C 45.2101 -3.49644 -3.60631 0
M  V30 489 C 47.2041 -5.42442 -3.34716 0
M  V30 490 C 44.8911 -4.84682 -3.72192 0
M  V30 491 C 45.8891 -5.8089 -3.59243 0
M  V30 492 O 45.5771 -7.13476 -3.70415 0
M  V30 493 H 45.3091 -0.377745 -0.560611 0
M  V30 494 H 47.8631 -1.62658 -1.25425 0
M  V30 495 H 46.0931 -1.00881 -3.73309 0
M  V30 496 H 47.7821 -1.42202 -3.80175 0
M  V30 497 H 48.5481 -3.78381 -3.03403 0
M  V30 498 H 44.4271 -2.75282 -3.69785 0
M  V30 499 H 47.9711 -6.17518 -3.24526 0
M  V30 500 H 43.8681 -5.13534 -3.91092 0
M  V30 501 H 44.6361 -7.21083 -3.87275 0
M  V30 502 N 47.2992 1.18797 -1.03562 0
M  V30 503 C 48.5452 1.8893 -0.737113 0
M  V30 504 C 48.8782 1.79837 0.732956 0
M  V30 505 O 48.1532 1.19525 1.5344 0
M  V30 506 C 48.4362 3.39607 -1.19745 0
M  V30 507 C 48.2892 3.57537 -2.72924 0
M  V30 508 C 49.6082 4.33069 -0.783526 0
M  V30 509 H 46.7272 0.686057 -0.269249 0
M  V30 510 H 49.3692 1.39797 -1.28673 0
M  V30 511 H 47.5192 3.81583 -0.729855 0
M  V30 512 H 49.1912 3.24688 -3.27682 0
M  V30 513 H 47.4342 3.00363 -3.12993 0
M  V30 514 H 48.1052 4.63238 -3.00191 0
M  V30 515 H 50.5812 3.98846 -1.18581 0
M  V30 516 H 49.4572 5.3707 -1.13343 0
M  V30 517 H 49.7182 4.40986 0.313681 0
M  V30 518 N 48.7773 0.814389 1.34928 0
M  V30 519 C 50.1883 0.458364 1.80986 0
M  V30 520 C 50.5393 -1.02042 1.67577 0
M  V30 521 O 49.6643 -1.79352 1.21086 0
M  V30 522 C 50.2593 0.825212 3.28597 0
M  V30 523 C 48.8183 0.521677 3.72767 0
M  V30 524 C 47.9653 1.04668 2.56788 0
M  V30 525 H 50.9163 1.00533 1.22795 0
M  V30 526 H 50.9373 0.12571 3.80292 0
M  V30 527 H 50.4493 1.90154 3.38324 0
M  V30 528 H 48.5503 -0.545589 3.68584 0
M  V30 529 H 48.6633 1.05977 4.67232 0
M  V30 530 H 47.0273 0.468622 2.50352 0
M  V30 531 H 47.8103 2.12927 2.6929 0
M  V30 532 N 50.2554 -1.46986 0.568584 0
M  V30 533 C 51.5044 -2.01646 0.0465894 0
M  V30 534 C 51.8174 -1.44721 -1.31587 0
M  V30 535 O 53.0234 -1.91113 -1.92842 0
M  V30 536 C 51.4794 -3.59885 0.032752 0
M  V30 537 C 51.0874 -4.25804 1.39266 0
M  V30 538 C 52.8314 -4.22255 -0.436038 0
M  V30 539 C 50.7384 -5.76081 1.33732 0
M  V30 540 H 49.6684 -0.753876 0.013647 0
M  V30 541 H 52.3194 -1.68864 0.718131 0
M  V30 542 H 50.7014 -3.8968 -0.704669 0
M  V30 543 H 51.8754 -4.07637 2.1487 0
M  V30 544 H 50.1904 -3.7547 1.80032 0
M  V30 545 H 52.7874 -5.32394 -0.49602 0
M  V30 546 H 53.1304 -3.90212 -1.45053 0
M  V30 547 H 53.6634 -3.97033 0.246877 0
M  V30 548 H 50.4024 -6.12761 2.32817 0
M  V30 549 H 49.9224 -5.96553 0.623267 0
M  V30 550 H 51.6014 -6.38518 1.0442 0
M  V30 551 N 51.7335 -0.305618 -1.54608 0
M  V30 552 C 52.6965 0.555591 -2.22364 0
M  V30 553 C 53.6965 1.05768 -1.21119 0
M  V30 554 O 54.8865 0.952972 -1.45822 0
M  V30 555 C 52.0185 1.76974 -2.91364 0
M  V30 556 H 53.2115 -0.0364572 -2.99878 0
M  V30 557 H 50.7645 -0.0565007 -1.56198 0
M  V30 558 H 51.4995 2.40151 -2.17941 0
M  V30 559 H 51.2845 1.41732 -3.65588 0
M  V30 560 H 52.7745 2.38148 -3.43038 0
M  V30 561 N 53.2116 1.57565 -0.0334293 0
M  V30 562 C 54.4396 1.9628 0.654347 0
M  V30 563 C 54.8546 0.910138 1.65414 0
M  V30 564 O 54.2116 -0.107595 1.82183 0
M  V30 565 C 54.2626 3.35067 1.35693 0
M  V30 566 O 53.9836 4.36296 0.397191 0
M  V30 567 C 55.4846 3.88439 2.13613 0
M  V30 568 H 52.7046 0.646369 0.180132 0
M  V30 569 H 55.2486 2.04282 -0.0944721 0
M  V30 570 H 53.4036 3.2827 2.05712 0
M  V30 571 H 53.8176 5.1678 0.896597 0
M  V30 572 H 55.2916 4.8788 2.58219 0
M  V30 573 H 55.7686 3.22914 2.97696 0
M  V30 574 H 56.3746 3.98516 1.48543 0
M  V30 575 N 54.6897 -0.239769 1.55765 0
M  V30 576 C 55.9667 -0.990056 1.68693 0
M  V30 577 C 56.3467 -2.03107 0.5754 0
M  V30 578 O 55.6947 -2.24604 -0.42017 0
M  V30 579 C 55.9047 -1.61696 3.09282 0
M  V30 580 C 57.2527 -2.11613 3.6811 0
M  V30 581 O 58.2767 -1.71624 3.12127 0
M  V30 582 O 57.1357 -2.85057 4.66267 0
M  V30 583 H 54.2297 -0.461299 0.686391 0
M  V30 584 H 56.7757 -0.232991 1.68093 0
M  V30 585 H 55.5477 -0.864357 3.81634 0
M  V30 586 H 55.1707 -2.44005 3.13923 0
M  V30 587 N 56.1678 -1.49265 -0.50573 0
M  V30 588 C 57.5838 -1.35923 -0.836486 0
M  V30 589 C 57.7838 -0.388704 -1.97715 0
M  V30 590 O 56.8398 0.181336 -2.51848 0
M  V30 591 C 58.1528 -2.76531 -1.18115 0
M  V30 592 C 59.7008 -2.85197 -1.28964 0
M  V30 593 C 60.1758 -4.26561 -1.66761 0
M  V30 594 N 61.6668 -4.2935 -1.73819 0
M  V30 595 C 62.4018 -5.35693 -2.045 0
M  V30 596 N 61.8978 -6.52287 -2.33438 0
M  V30 597 N 63.6908 -5.23105 -2.05711 0
M  V30 598 H 55.8418 -2.10965 0.246519 0
M  V30 599 H 58.1048 -0.9468 0.0476887 0
M  V30 600 H 57.8108 -3.49226 -0.416398 0
M  V30 601 H 57.6848 -3.11599 -2.1257 0
M  V30 602 H 60.0718 -2.12742 -2.04511 0
M  V30 603 H 60.1528 -2.53718 -0.325704 0
M  V30 604 H 59.7968 -4.99541 -0.917656 0
M  V30 605 H 59.7268 -4.55502 -2.64246 0
M  V30 606 H 62.2178 -3.4526 -1.53635 0
M  V30 607 H 62.5308 -7.29158 -2.56024 0
M  V30 608 H 60.8758 -6.55521 -2.30905 0
M  V30 609 H 64.0668 -4.31026 -1.82577 0
M  V30 610 H 64.2398 -6.06078 -2.29289 0
M  V30 611 N 57.6459 0.756429 -1.3826 0
M  V30 612 C 58.8739 1.54565 -1.3754 0
M  V30 613 C 59.2889 1.88767 0.0355331 0
M  V30 614 O 58.6459 1.52572 1.0014 0
M  V30 615 C 58.6969 2.84654 -2.22833 0
M  V30 616 O 58.4179 2.51912 -3.5843 0
M  V30 617 C 59.9189 3.78807 -2.30261 0
M  V30 618 H 57.1389 0.478353 -0.470553 0
M  V30 619 H 59.6829 0.936381 -1.81803 0
M  V30 620 H 57.8379 3.41965 -1.8204 0
M  V30 621 H 58.2519 3.35325 -4.03308 0
M  V30 622 H 59.7259 4.67045 -2.94233 0
M  V30 623 H 60.2029 4.19038 -1.31545 0
M  V30 624 H 60.8089 3.2742 -2.71433 0
M  V30 625 N 59.124 1.23083 0.984299 0
M  V30 626 C 60.54 0.992637 1.24975 0
M  V30 627 C 60.74 -0.308618 1.99123 0
M  V30 628 O 59.796 -1.02905 2.30579 0
M  V30 629 C 61.109 2.19698 2.05312 0
M  V30 630 C 62.657 2.24147 2.18465 0
M  V30 631 C 63.132 3.44157 3.02192 0
M  V30 632 N 64.623 3.44372 3.09777 0
M  V30 633 C 65.358 4.33886 3.74874 0
M  V30 634 N 64.854 5.3363 4.41827 0
M  V30 635 N 66.647 4.21639 3.71721 0
M  V30 636 H 58.798 2.06731 0.487453 0
M  V30 637 H 61.061 0.906339 0.277944 0
M  V30 638 H 60.767 3.1411 1.58201 0
M  V30 639 H 60.641 2.20465 3.06064 0
M  V30 640 H 63.028 1.30277 2.64786 0
M  V30 641 H 63.109 2.27415 1.17115 0
M  V30 642 H 62.753 4.38332 2.56568 0
M  V30 643 H 62.683 3.3813 4.03702 0
M  V30 644 H 65.174 2.72201 2.62135 0
M  V30 645 H 65.487 5.98196 4.89266 0
M  V30 646 H 63.832 5.37534 4.40548 0
M  V30 647 H 67.023 3.42962 3.18582 0
M  V30 648 H 67.196 4.91604 4.22173 0
M  V30 649 N 60.6021 -1.18246 1.0419 0
M  V30 650 C 61.5321 -2.24127 0.654914 0
M  V30 651 C 62.5131 -1.66617 -0.342451 0
M  V30 652 O 63.6981 -1.92924 -0.222277 0
M  V30 653 C 60.8281 -3.47295 0.0183757 0
M  V30 654 C 59.7821 -4.17563 0.939414 0
M  V30 655 C 59.1081 -5.34438 0.167286 0
M  V30 656 C 60.4081 -4.70917 2.25908 0
M  V30 657 H 62.1021 -2.56753 1.54007 0
M  V30 658 H 59.6481 -1.23414 0.74195 0
M  V30 659 H 61.6011 -4.20572 -0.264082 0
M  V30 660 H 60.3251 -3.13907 -0.901664 0
M  V30 661 H 58.9841 -3.46186 1.20628 0
M  V30 662 H 58.6321 -4.97298 -0.7552 0
M  V30 663 H 58.3321 -5.82388 0.780901 0
M  V30 664 H 59.8561 -6.10504 -0.108125 0
M  V30 665 H 61.2701 -5.35882 2.03724 0
M  V30 666 H 59.6671 -5.29406 2.82577 0
M  V30 667 H 60.7371 -3.88272 2.9047 0
M  V30 668 N 62.0802 -0.821533 -1.34494 0
M  V30 669 C 63.0102 -0.257138 -2.3208 0
M  V30 670 C 63.9912 0.625645 -1.58176 0
M  V30 671 O 65.1762 0.552811 -1.86166 0
M  V30 672 C 62.3062 0.582958 -3.42372 0
M  V30 673 C 61.2602 -0.202571 -4.2752 0
M  V30 674 C 60.5862 0.760179 -5.29269 0
M  V30 675 C 61.8862 -1.40998 -5.02908 0
M  V30 676 H 63.5802 -1.07247 -2.79532 0
M  V30 677 H 61.1262 -0.517163 -1.34393 0
M  V30 678 H 63.0792 0.987972 -4.09655 0
M  V30 679 H 61.8032 1.43133 -2.93565 0
M  V30 680 H 60.4622 -0.588936 -3.61838 0
M  V30 681 H 60.1102 1.60447 -4.76724 0
M  V30 682 H 59.8102 0.238809 -5.87115 0
M  V30 683 H 61.3342 1.16308 -5.9942 0
M  V30 684 H 62.7482 -1.07905 -5.63054 0
M  V30 685 H 61.1452 -1.86689 -5.70322 0
M  V30 686 H 62.2152 -2.1889 -4.32684 0
M  V30 687 N 63.5583 1.46682 -0.576371 0
M  V30 688 C 64.5213 2.28707 0.150239 0
M  V30 689 C 65.5213 1.38035 0.824794 0
M  V30 690 O 66.7113 1.60476 0.677719 0
M  V30 691 C 63.8433 3.18248 1.22192 0
M  V30 692 H 65.0363 2.94423 -0.570521 0
M  V30 693 H 62.5893 1.52688 -0.334078 0
M  V30 694 H 63.3243 2.57265 1.97447 0
M  V30 695 H 63.1093 3.85 0.742812 0
M  V30 696 H 64.5993 3.80001 1.73172 0
M  V30 697 N 65.0364 0.313813 1.54444 0
M  V30 698 C 65.9464 -0.565714 2.27677 0
M  V30 699 C 66.9624 -1.13754 1.31666 0
M  V30 700 O 68.1384 -1.15959 1.64668 0
M  V30 701 C 65.2034 -1.71528 3.01296 0
M  V30 702 C 64.2644 -1.17624 4.12872 0
M  V30 703 C 63.4974 -2.27102 4.8297 0
M  V30 704 O 63.7204 -3.47256 4.52514 0
M  V30 705 O 62.6544 -1.9307 5.70094 0
M  V30 706 H 66.4804 0.0287296 3.03686 0
M  V30 707 H 64.0654 0.0798312 1.49187 0
M  V30 708 H 65.9474 -2.38476 3.4743 0
M  V30 709 H 64.6224 -2.29608 2.2817 0
M  V30 710 H 63.5294 -0.472124 3.71109 0
M  V30 711 H 64.8624 -0.640695 4.88012 0
M  V30 712 N 66.5145 -1.57545 0.0417849 0
M  V30 713 C 67.7625 -1.91937 -0.632829 0
M  V30 714 C 68.0835 -0.919978 -1.71934 0
M  V30 715 O 67.3535 0.0366064 -1.95866 0
M  V30 716 H 65.9335 -0.708493 -0.236742 0
M  V30 717 H 68.5955 -1.9468 0.0925745 0
M  V30 718 H 67.6915 -2.92912 -1.07746 0
M  V30 719 N 67.9926 0.231505 -1.5589 0
M  V30 720 C 68.9396 1.28682 -1.91598 0
M  V30 721 C 69.9096 1.47071 -0.771974 0
M  V30 722 O 71.0946 1.60802 -1.027 0
M  V30 723 C 68.2346 2.6342 -2.22944 0
M  V30 724 C 67.3476 2.52912 -3.50228 0
M  V30 725 C 66.4826 3.80106 -3.7107 0
M  V30 726 C 65.5216 3.64279 -4.91902 0
M  V30 727 N 64.6586 4.834 -5.09184 0
M  V30 728 H 69.4986 0.975305 -2.81588 0
M  V30 729 H 67.0356 0.470299 -1.39379 0
M  V30 730 H 68.9936 3.41869 -2.39126 0
M  V30 731 H 67.6236 2.92687 -1.36139 0
M  V30 732 H 66.6756 1.6595 -3.42294 0
M  V30 733 H 67.9876 2.37133 -4.38827 0
M  V30 734 H 67.1416 4.66999 -3.87295 0
M  V30 735 H 65.8806 3.98799 -2.80733 0
M  V30 736 H 64.8856 2.7577 -4.75637 0
M  V30 737 H 66.1106 3.47067 -5.83714 0
M  V30 738 H 64.0566 5.02425 -4.21788 0
M  V30 739 H 63.9736 4.70311 -5.91898 0
M  V30 740 H 65.2416 5.71747 -5.29835 0
M  V30 741 N 69.4707 1.49531 0.497807 0
M  V30 742 C 70.4177 1.66436 1.59899 0
M  V30 743 C 71.3877 0.505793 1.58212 0
M  V30 744 O 72.5727 0.733202 1.7615 0
M  V30 745 C 69.7127 1.7399 2.98029 0
M  V30 746 C 68.8257 3.01172 3.09708 0
M  V30 747 C 67.9607 2.99686 4.38591 0
M  V30 748 C 66.9997 4.21434 4.43914 0
M  V30 749 N 66.1367 4.1784 5.64229 0
M  V30 750 H 70.9767 2.60459 1.44793 0
M  V30 751 H 68.5137 1.29137 0.704423 0
M  V30 752 H 70.4717 1.76352 3.78095 0
M  V30 753 H 69.1017 0.834301 3.11832 0
M  V30 754 H 68.1537 3.08408 2.22685 0
M  V30 755 H 69.4657 3.91165 3.09502 0
M  V30 756 H 68.6197 3.00628 5.2698 0
M  V30 757 H 67.3587 2.07477 4.41367 0
M  V30 758 H 66.3637 4.20733 3.53926 0
M  V30 759 H 67.5887 5.14839 4.42851 0
M  V30 760 H 65.5347 3.28469 5.67841 0
M  V30 761 H 65.4517 5.01571 5.65652 0
M  V30 762 H 66.7197 4.22889 6.54817 0
M  V30 763 N 70.9488 -0.749086 1.3866 0
M  V30 764 C 72.3598 -1.32664 1.31366 0
M  V30 765 C 72.7108 -1.96179 -0.028484 0
M  V30 766 O 71.8358 -1.9537 -0.93057 0
M  V30 767 C 72.4308 -2.41219 2.37905 0
M  V30 768 C 70.9898 -2.94684 2.34176 0
M  V30 769 C 70.1368 -1.68108 2.20533 0
M  V30 770 H 73.0878 -0.547628 1.48952 0
M  V30 771 H 73.1088 -3.21268 2.0388 0
M  V30 772 H 72.6208 -1.94962 3.35576 0
M  V30 773 H 70.7218 -3.45258 1.401 0
M  V30 774 H 70.8348 -3.48757 3.2849 0
M  V30 775 H 69.1988 -1.91907 1.67463 0
M  V30 776 H 69.9818 -1.23923 3.20153 0
M  V30 777 N 72.4269 -1.23603 -0.977757 0
M  V30 778 C 73.8429 -0.999251 -1.24447 0
M  V30 779 C 74.0429 0.298053 -1.99283 0
M  V30 780 O 73.0989 1.01681 -2.31122 0
M  V30 781 C 74.4119 -2.20784 -2.04144 0
M  V30 782 C 75.9599 -2.25303 -2.17273 0
M  V30 783 C 76.4349 -3.45755 -3.00362 0
M  V30 784 N 77.9259 -3.4601 -3.07947 0
M  V30 785 C 78.6609 -4.35868 -3.72568 0
M  V30 786 N 78.1569 -5.35966 -4.38991 0
M  V30 787 N 79.9499 -4.23605 -3.6948 0
M  V30 788 H 72.1009 -2.06986 -0.476483 0
M  V30 789 H 74.3639 -0.907801 -0.273134 0
M  V30 790 H 74.0699 -3.14945 -1.56533 0
M  V30 791 H 73.9439 -2.22085 -3.04891 0
M  V30 792 H 76.3309 -1.3168 -2.64092 0
M  V30 793 H 76.4119 -2.28033 -1.15907 0
M  V30 794 H 76.0559 -4.39687 -2.5424 0
M  V30 795 H 75.9859 -3.40266 -4.01904 0
M  V30 796 H 78.4769 -2.73588 -2.60688 0
M  V30 797 H 78.7899 -6.00783 -4.86086 0
M  V30 798 H 77.1349 -5.39863 -4.37691 0
M  V30 799 H 80.3259 -3.44647 -3.16759 0
M  V30 800 H 80.4989 -4.93836 -4.1956 0
M  V30 801 N 73.905 1.17692 -1.04816 0
M  V30 802 C 74.837 2.21103 -0.603822 0
M  V30 803 C 75.85 1.59411 0.33046 0
M  V30 804 O 77.039 1.7807 0.12379 0
M  V30 805 C 74.139 3.38623 0.136898 0
M  V30 806 C 73.312 4.29888 -0.807137 0
M  V30 807 C 72.371 5.26088 -0.10836 0
M  V30 808 O 71.397 5.64353 -0.741232 0
M  V30 809 N 72.599 5.68882 1.15558 0
M  V30 810 H 75.364 2.59848 -1.49329 0
M  V30 811 H 72.925 1.32553 -0.929587 0
M  V30 812 H 74.917 4.00009 0.614401 0
M  V30 813 H 73.487 2.98508 0.927993 0
M  V30 814 H 72.707 3.65993 -1.46434 0
M  V30 815 H 73.995 4.87759 -1.44807 0
M  V30 816 H 73.393 5.39861 1.69015 0
M  V30 817 H 71.95 6.32429 1.57722 0
M  V30 818 N 75.3831 0.828654 1.34056 0
M  V30 819 C 76.7991 0.515135 1.51058 0
M  V30 820 C 76.9991 -0.959581 1.77184 0
M  V30 821 O 76.0551 -1.74382 1.82612 0
M  V30 822 C 77.3681 1.37963 2.67183 0
M  V30 823 C 78.9161 1.37735 2.81066 0
M  V30 824 C 79.3911 2.22645 4.00241 0
M  V30 825 N 80.8821 2.203 4.07458 0
M  V30 826 C 81.6171 2.82744 4.98842 0
M  V30 827 N 81.1131 3.54201 5.9541 0
M  V30 828 N 82.9061 2.72268 4.91759 0
M  V30 829 H 75.0571 1.78343 1.15358 0
M  V30 830 H 77.3201 0.760304 0.566252 0
M  V30 831 H 77.0261 2.42714 2.54525 0
M  V30 832 H 76.9001 1.0484 3.62338 0
M  V30 833 H 79.2871 0.337593 2.93163 0
M  V30 834 H 79.3681 1.74859 1.86703 0
M  V30 835 H 79.0121 3.26674 3.88905 0
M  V30 836 H 78.9421 1.82869 4.93829 0
M  V30 837 H 81.4331 1.68327 3.38341 0
M  V30 838 H 81.7461 3.9908 6.61782 0
M  V30 839 H 80.0911 3.58308 5.95517 0
M  V30 840 H 83.2821 2.16014 4.15278 0
M  V30 841 H 83.4551 3.21219 5.62781 0
M  V30 842 N 76.8612 -1.46375 0.584142 0
M  V30 843 C 78.0912 -2.06461 0.0758195 0
M  V30 844 C 78.4992 -1.43322 -1.23512 0
M  V30 845 O 77.8422 -0.533216 -1.75791 0
M  V30 846 C 77.9042 -3.59131 -0.162773 0
M  V30 847 C 77.5682 -4.4447 1.06279 0
M  V30 848 C 78.5652 -4.80918 1.97519 0
M  V30 849 C 76.2502 -4.85584 1.28504 0
M  V30 850 C 78.2442 -5.57309 3.09331 0
M  V30 851 C 75.9312 -5.61734 2.4062 0
M  V30 852 C 76.9292 -5.9751 3.30863 0
M  V30 853 O 76.6172 -6.72121 4.41032 0
M  V30 854 H 76.3492 -0.673745 0.0551725 0
M  V30 855 H 78.9032 -1.88969 0.804984 0
M  V30 856 H 77.1332 -3.74936 -0.946565 0
M  V30 857 H 78.8222 -4.0114 -0.619782 0
M  V30 858 H 79.5882 -4.49732 1.81565 0
M  V30 859 H 75.4672 -4.57187 0.591702 0
M  V30 860 H 79.0112 -5.85152 3.79793 0
M  V30 861 H 74.9082 -5.92334 2.56537 0
M  V30 862 H 75.6762 -6.90547 4.39417 0
M  V30 863 N 78.3393 -0.321999 -1.54275 0
M  V30 864 C 79.2723 0.58718 -2.20516 0
M  V30 865 C 80.2503 1.11693 -1.18167 0
M  V30 866 O 81.4343 1.18122 -1.46899 0
M  V30 867 C 78.5613 1.80554 -2.86562 0
M  V30 868 C 77.6073 1.40718 -4.02617 0
M  V30 869 S 78.4403 0.445218 -5.33646 0
M  V30 870 C 79.5963 1.6709 -6.03185 0
M  V30 871 H 79.8293 0.0244875 -2.9729 0
M  V30 872 H 77.3623 -0.106087 -1.54035 0
M  V30 873 H 79.3203 2.50462 -3.25237 0
M  V30 874 H 77.9813 2.33942 -2.09595 0
M  V30 875 H 77.1743 2.31501 -4.47687 0
M  V30 876 H 76.7763 0.78782 -3.65608 0
M  V30 877 H 79.0683 2.60856 -6.25268 0
M  V30 878 H 80.0113 1.26239 -6.96756 0
M  V30 879 H 80.4193 1.85716 -5.33076 0
M  V30 880 N 79.8174 1.5752 -0.0501392 0
M  V30 881 C 80.7274 2.14952 0.939827 0
M  V30 882 C 81.7434 1.10706 1.34239 0
M  V30 883 O 82.9194 1.42869 1.41952 0
M  V30 884 C 79.9844 2.68232 2.19665 0
M  V30 885 C 79.0454 3.87272 1.85253 0
M  V30 886 C 78.2784 4.38002 3.04943 0
M  V30 887 O 78.5014 3.87811 4.18281 0
M  V30 888 O 77.4354 5.29602 2.86017 0
M  V30 889 H 81.2614 2.9986 0.481392 0
M  V30 890 H 78.8464 1.4841 0.171699 0
M  V30 891 H 80.7284 3.02475 2.93406 0
M  V30 892 H 79.4034 1.86395 2.64648 0
M  V30 893 H 78.3104 3.5792 1.0883 0
M  V30 894 H 79.6434 4.70336 1.4507 0
M  V30 895 N 81.2955 -0.223234 1.56011 0
M  V30 896 C 82.2425 -1.27664 1.92277 0
M  V30 897 C 83.2125 -1.46659 0.779763 0
M  V30 898 O 84.3975 -1.60256 1.03551 0
M  V30 899 C 81.5375 -2.62234 2.24338 0
M  V30 900 C 80.6505 -2.51051 3.51564 0
M  V30 901 C 79.7855 -3.78133 3.7308 0
M  V30 902 C 78.8245 -3.61665 4.93827 0
M  V30 903 N 77.9615 -4.80693 5.11741 0
M  V30 904 H 82.8015 -0.960358 2.82101 0
M  V30 905 H 80.3385 -0.462901 1.39627 0
M  V30 906 H 82.2965 -3.40596 2.40936 0
M  V30 907 H 80.9265 -2.91961 1.3769 0
M  V30 908 H 79.9785 -1.64132 3.43169 0
M  V30 909 H 81.2905 -2.34803 4.40079 0
M  V30 910 H 80.4445 -4.64938 3.89766 0
M  V30 911 H 79.1835 -3.97304 2.82844 0
M  V30 912 H 78.1885 -2.73244 4.77093 0
M  V30 913 H 79.4135 -3.43966 5.85546 0
M  V30 914 H 77.3595 -5.00181 4.24446 0
M  V30 915 H 77.2765 -4.67165 5.94384 0
M  V30 916 H 78.5445 -5.6893 5.3286 0
M  V30 917 N 82.7736 -1.49793 -0.48987 0
M  V30 918 C 83.9986 -1.63836 -1.27172 0
M  V30 919 C 84.4236 -0.31402 -1.8546 0
M  V30 920 O 83.7816 0.719803 -1.66399 0
M  V30 921 C 83.8296 -2.71797 -2.36978 0
M  V30 922 O 82.9336 -2.31744 -3.41128 0
M  V30 923 H 82.2746 -0.547997 -0.37496 0
M  V30 924 H 84.8046 -1.96053 -0.585191 0
M  V30 925 H 84.8146 -2.94305 -2.82575 0
M  V30 926 H 83.4896 -3.67923 -1.93921 0
M  V30 927 H 82.0666 -2.1961 -3.01373 0
M  V30 928 N 84.2517 0.741722 -1.39055 0
M  V30 929 C 85.4997 1.49818 -1.35643 0
M  V30 930 C 85.8207 1.94938 0.0491642 0
M  V30 931 O 85.0907 1.68505 0.999141 0
M  V30 932 H 83.6707 0.555755 -0.499144 0
M  V30 933 H 86.3327 0.880957 -1.73854 0
M  V30 934 H 85.4287 2.38348 -2.01486 0
M  V30 935 N 85.7298 1.2412 0.971189 0
M  V30 936 C 86.6768 1.0305 2.06517 0
M  V30 937 C 87.6468 -0.0550666 1.66009 0
M  V30 938 O 88.8318 0.0988688 1.90544 0
M  V30 939 C 85.9718 0.637653 3.39158 0
M  V30 940 C 85.0848 1.79633 3.92882 0
M  V30 941 C 84.2198 1.34939 5.13775 0
M  V30 942 C 83.2588 2.47823 5.59687 0
M  V30 943 N 82.3958 2.04022 6.71803 0
M  V30 944 H 87.2358 1.96685 2.23873 0
M  V30 945 H 84.7728 0.979694 1.09729 0
M  V30 946 H 86.7308 0.390931 4.15364 0
M  V30 947 H 85.3608 -0.261693 3.21737 0
M  V30 948 H 84.4128 2.15681 3.13346 0
M  V30 949 H 85.7248 2.64466 4.22918 0
M  V30 950 H 84.8788 1.06134 5.97345 0
M  V30 951 H 83.6178 0.471557 4.85415 0
M  V30 952 H 82.6228 2.77392 4.74693 0
M  V30 953 H 83.8478 3.36158 5.90063 0
M  V30 954 H 81.7938 1.18632 6.45184 0
M  V30 955 H 81.7108 2.82409 7.01271 0
M  V30 956 H 82.9788 1.78347 7.58823 0
M  V30 957 N 87.2079 -1.17134 1.05439 0
M  V30 958 C 88.4479 -1.89137 0.77502 0
M  V30 959 C 88.8119 -1.79345 -0.685526 0
M  V30 960 O 90.0129 -2.46188 -1.0791 0
M  V30 961 C 88.2839 -3.35003 1.2453 0
M  V30 962 S 89.8429 -4.24952 1.09367 0
M  V30 963 H 86.6609 -0.652949 0.281387 0
M  V30 964 H 89.2629 -1.4145 1.34953 0
M  V30 965 H 87.9669 -3.39666 2.30338 0
M  V30 966 H 87.4979 -3.87736 0.665166 0
M  V30 967 H 89.5129 -4.96196 0.0193397 0
M  V30 968 N 88.686 -0.835752 -1.33615 0
M  V30 969 C 89.634 -0.255238 -2.31195 0
M  V30 970 C 90.628 0.61107 -1.57995 0
M  V30 971 O 91.834 0.500979 -1.72888 0
M  V30 972 H 88.209 -0.0638085 -0.749288 0
M  V30 973 H 90.18 -1.09283 -2.77669 0
M  V30 974 C 88.929 0.55754 -3.43201 0
M  V30 975 H 88.252 -0.0997553 -3.99676 0
M  V30 976 H 89.692 0.929622 -4.13683 0
M  V30 977 C 88.151 1.73515 -2.88781 0
M  V30 978 O 88.681 2.83376 -2.84712 0
M  V30 979 N 86.887 1.55603 -2.4543 0
M  V30 980 H 86.434 0.662354 -2.48939 0
M  V30 981 H 86.392 2.34545 -2.09371 0
M  V30 982 N 90.1641 1.46063 -0.591896 0
M  V30 983 C 91.4101 2.02638 -0.0811191 0
M  V30 984 C 91.7431 1.4613 1.27905 0
M  V30 985 O 91.0181 0.629908 1.84017 0
M  V30 986 C 91.3011 3.60091 -0.0252436 0
M  V30 987 C 91.1541 4.26965 -1.41496 0
M  V30 988 C 92.4731 4.3496 0.670685 0
M  V30 989 H 89.5921 0.73635 -0.0309524 0
M  V30 990 H 92.2341 1.741 -0.760859 0
M  V30 991 H 90.3841 3.84535 0.553624 0
M  V30 992 H 92.0561 4.13756 -2.0397 0
M  V30 993 H 90.2991 3.85971 -1.98011 0
M  V30 994 H 90.9701 5.35781 -1.32825 0
M  V30 995 H 93.4461 4.15716 0.178825 0
M  V30 996 H 92.3221 5.44686 0.678837 0
M  V30 997 H 92.5831 4.06685 1.73379 0
M  V30 998 N 91.6422 0.330177 1.54103 0
M  V30 999 C 92.5922 -0.548456 2.21305 0
M  V30 1000 C 93.5762 -1.07651 1.19583 0
M  V30 1001 O 94.7682 -1.01243 1.45186 0
M  V30 1002 C 91.8972 -1.70559 2.97934 0
M  V30 1003 C 90.9832 -1.19212 4.07 0
M  V30 1004 N 91.3742 -0.398831 5.04225 0
M  V30 1005 C 89.6722 -1.47024 4.2107 0
M  V30 1006 C 90.3732 -0.121761 5.81573 0
M  V30 1007 N 89.3492 -0.709722 5.38947 0
M  V30 1008 H 93.1512 0.0648483 2.93828 0
M  V30 1009 H 90.6652 0.136363 1.61826 0
M  V30 1010 H 92.6622 -2.34688 3.44568 0
M  V30 1011 H 91.3222 -2.32231 2.26934 0
M  V30 1012 H 92.3332 -0.0410869 5.17884 0
M  V30 1013 H 89.0102 -2.09232 3.61287 0
M  V30 1014 H 90.4002 0.517298 6.69906 0
M  V30 1015 N 93.1203 -1.57491 0.0584922 0
M  V30 1016 C 94.0703 -2.08474 -0.923188 0
M  V30 1017 C 95.0543 -0.991479 -1.26722 0
M  V30 1018 O 96.2463 -1.25473 -1.24842 0
M  V30 1019 C 93.3753 -2.6392 -2.19548 0
M  V30 1020 C 92.4613 -3.80227 -1.87852 0
M  V30 1021 N 92.8523 -4.89714 -1.26546 0
M  V30 1022 C 91.1503 -3.89271 -2.17679 0
M  V30 1023 C 91.8513 -5.70689 -1.12644 0
M  V30 1024 N 90.8273 -5.18531 -1.63176 0
M  V30 1025 H 94.6293 -2.90517 -0.444653 0
M  V30 1026 H 92.1433 -1.61745 -0.145764 0
M  V30 1027 H 94.1403 -2.98752 -2.9078 0
M  V30 1028 H 92.8003 -1.83318 -2.68001 0
M  V30 1029 H 93.8113 -5.09358 -0.936757 0
M  V30 1030 H 90.4883 -3.19623 -2.68602 0
M  V30 1031 H 91.8783 -6.6875 -0.6499 0
M  V30 1032 N 94.5984 0.214957 -1.56127 0
M  V30 1033 C 95.8464 0.936518 -1.79091 0
M  V30 1034 C 96.1674 1.84606 -0.628148 0
M  V30 1035 O 95.4374 1.92664 0.35462 0
M  V30 1036 H 94.0174 0.3488 -0.660566 0
M  V30 1037 H 96.6794 0.22523 -1.93594 0
M  V30 1038 H 95.7754 1.53943 -2.71492 0
M  V30 1039 N 96.0765 1.50051 0.48192 0
M  V30 1040 C 97.0245 1.68635 1.60203 0
M  V30 1041 C 98.0185 0.552184 1.60148 0
M  V30 1042 O 99.2245 0.732377 1.64427 0
M  V30 1043 H 95.5995 0.532081 0.531407 0
M  V30 1044 H 97.5705 2.62616 1.41688 0
M  V30 1045 C 96.3195 1.78775 2.9822 0
M  V30 1046 H 95.6425 2.6543 2.98976 0
M  V30 1047 H 97.0825 1.95806 3.7608 0
M  V30 1048 C 95.5415 0.536849 3.32595 0
M  V30 1049 O 96.0715 -0.328897 4.00351 0
M  V30 1050 N 94.2775 0.394091 2.87915 0
M  V30 1051 H 93.8245 1.09962 2.32951 0
M  V30 1052 H 93.7825 -0.441737 3.11281 0
M  V30 1053 N 97.5546 -0.734337 1.39446 0
M  V30 1054 C 98.8006 -1.49613 1.36908 0
M  V30 1055 C 99.1336 -1.94169 -0.0347829 0
M  V30 1056 O 98.4086 -1.66833 -0.999847 0
M  V30 1057 C 98.6916 -2.73534 2.34203 0
M  V30 1058 C 98.5446 -2.34993 3.83534 0
M  V30 1059 C 99.8636 -3.75635 2.29317 0
M  V30 1060 H 96.9826 -0.542714 0.498629 0
M  V30 1061 H 99.6246 -0.839597 1.70443 0
M  V30 1062 H 97.7746 -3.29553 2.05736 0
M  V30 1063 H 99.4466 -1.84601 4.22753 0
M  V30 1064 H 97.6896 -1.67213 4.00278 0
M  V30 1065 H 98.3606 -3.23738 4.47099 0
M  V30 1066 H 100.837 -3.29203 2.54489 0
M  V30 1067 H 99.7126 -4.60008 2.99472 0
M  V30 1068 H 99.9736 -4.22603 1.29842 0
M  V30 1069 N 99.0327 -1.24633 -0.964593 0
M  V30 1070 C 99.9647 -0.999302 -2.06268 0
M  V30 1071 C 100.978 0.0323226 -1.62768 0
M  V30 1072 O 102.167 -0.205079 -1.77318 0
M  V30 1073 C 99.2667 -0.486816 -3.35385 0
M  V30 1074 C 98.4397 -1.5823 -4.07777 0
M  V30 1075 C 97.4987 -1.07191 -5.15166 0
M  V30 1076 O 96.5247 -1.76426 -5.41168 0
M  V30 1077 N 97.7267 0.0920373 -5.80427 0
M  V30 1078 H 100.492 -1.94477 -2.28033 0
M  V30 1079 H 98.0527 -1.15704 -1.13244 0
M  V30 1080 H 100.045 -0.130066 -4.04491 0
M  V30 1081 H 98.6147 0.364459 -3.10468 0
M  V30 1082 H 97.8347 -2.11109 -3.32906 0
M  V30 1083 H 99.1227 -2.31854 -4.52903 0
M  V30 1084 H 98.5207 0.670784 -5.61709 0
M  V30 1085 H 97.0777 0.389905 -6.50633 0
M  V30 1086 N 100.511 1.16574 -1.06058 0
M  V30 1087 C 101.421 2.2452 -0.680282 0
M  V30 1088 C 102.437 1.71348 0.302604 0
M  V30 1089 O 103.613 2.00822 0.152513 0
M  V30 1090 C 100.678 3.46629 -0.0700315 0
M  V30 1091 C 99.7388 4.14849 -1.10448 0
M  V30 1092 C 98.9718 5.31129 -0.523256 0
M  V30 1093 O 99.1948 5.66514 0.664709 0
M  V30 1094 O 98.1288 5.88526 -1.26179 0
M  V30 1095 H 101.955 2.59355 -1.58015 0
M  V30 1096 H 99.5398 1.24043 -0.832694 0
M  V30 1097 H 101.422 4.20543 0.268667 0
M  V30 1098 H 100.097 3.13573 0.803353 0
M  V30 1099 H 99.0038 3.42916 -1.49532 0
M  V30 1100 H 100.337 4.51954 -1.94931 0
M  V30 1101 N 101.989 0.842826 1.3317 0
M  V30 1102 C 103.217 0.454055 2.01856 0
M  V30 1103 C 103.632 -0.94587 1.63397 0
M  V30 1104 O 102.989 -1.61534 0.849302 0
M  V30 1105 C 103.04 0.569715 3.56982 0
M  V30 1106 O 102.761 1.91448 3.94055 0
M  V30 1107 C 104.262 0.178412 4.42941 0
M  V30 1108 H 101.482 0.17979 0.646465 0
M  V30 1109 H 104.026 1.1365 1.70012 0
M  V30 1110 H 102.181 -0.0648587 3.87346 0
M  V30 1111 H 102.595 1.90282 4.88767 0
M  V30 1112 H 104.069 0.310376 5.51127 0
M  V30 1113 H 104.546 -0.880056 4.30293 0
M  V30 1114 H 105.152 0.787579 4.17944 0
M  V30 1115 N 103.467 -1.45747 0.599634 0
M  V30 1116 C 104.697 -2.06369 0.0977132 0
M  V30 1117 C 105.105 -1.44624 -1.21985 0
M  V30 1118 O 104.448 -0.551831 -1.75216 0
M  V30 1119 C 104.51 -3.59284 -0.124673 0
M  V30 1120 C 104.174 -4.43318 1.10987 0
M  V30 1121 C 105.171 -4.78796 2.02609 0
M  V30 1122 C 102.856 -4.84194 1.33647 0
M  V30 1123 C 104.85 -5.53997 3.15224 0
M  V30 1124 C 102.537 -5.5915 2.46565 0
M  V30 1125 C 103.535 -5.93968 3.37182 0
M  V30 1126 O 103.223 -6.67405 4.48136 0
M  V30 1127 H 102.955 -0.673122 0.0623153 0
M  V30 1128 H 105.509 -1.88104 0.824981 0
M  V30 1129 H 103.739 -3.75919 -0.906745 0
M  V30 1130 H 105.428 -4.01775 -0.577201 0
M  V30 1131 H 106.194 -4.47781 1.86325 0
M  V30 1132 H 102.073 -4.56534 0.64016 0
M  V30 1133 H 105.617 -5.81091 3.85978 0
M  V30 1134 H 101.514 -5.89579 2.62805 0
M  V30 1135 H 102.282 -6.85847 4.46717 0
M  V30 1136 N 104.945 -0.338344 -1.53925 0
M  V30 1137 C 106.361 0.0137736 -1.59594 0
M  V30 1138 C 106.561 1.49186 -1.35447 0
M  V30 1139 O 105.617 2.24987 -1.14616 0
M  V30 1140 C 106.93 -0.41773 -2.97784 0
M  V30 1141 C 108.478 -0.369633 -3.1081 0
M  V30 1142 C 108.953 -0.776524 -4.51369 0
M  V30 1143 N 110.444 -0.730506 -4.57403 0
M  V30 1144 C 111.179 -1.01736 -5.64303 0
M  V30 1145 N 110.675 -1.3721 -6.79077 0
M  V30 1146 N 112.468 -0.941942 -5.54151 0
M  V30 1147 H 104.619 -1.3012 -1.67876 0
M  V30 1148 H 106.882 -0.530082 -0.78595 0
M  V30 1149 H 106.588 -1.44811 -3.20504 0
M  V30 1150 H 106.462 0.209729 -3.76616 0
M  V30 1151 H 108.849 0.651568 -2.87817 0
M  V30 1152 H 108.93 -1.03223 -2.34049 0
M  V30 1153 H 108.574 -1.79571 -4.75096 0
M  V30 1154 H 108.504 -0.0914649 -5.26521 0
M  V30 1155 H 110.995 -0.468783 -3.74981 0
M  V30 1156 H 111.308 -1.57597 -7.5656 0
M  V30 1157 H 109.653 -1.4105 -6.80536 0
M  V30 1158 H 112.844 -0.664184 -4.63364 0
M  V30 1159 H 113.017 -1.16884 -6.37371 0
M  V30 1160 N 106.423 1.57458 -0.0668435 0
M  V30 1161 C 107.653 1.97337 0.611677 0
M  V30 1162 C 108.061 0.943744 1.63982 0
M  V30 1163 O 107.404 -0.0785584 1.83532 0
M  V30 1164 C 107.466 3.33511 1.34205 0
M  V30 1165 C 107.13 4.54598 0.467941 0
M  V30 1166 C 108.127 5.19186 -0.272439 0
M  V30 1167 C 105.812 5.0075 0.39427 0
M  V30 1168 C 107.806 6.28274 -1.07476 0
M  V30 1169 C 105.493 6.09711 -0.411729 0
M  V30 1170 C 106.491 6.73335 -1.14492 0
M  V30 1171 O 106.179 7.80199 -1.93763 0
M  V30 1172 H 105.911 0.654042 0.170893 0
M  V30 1173 H 108.465 2.04961 -0.134289 0
M  V30 1174 H 106.695 3.22487 2.13398 0
M  V30 1175 H 108.384 3.58029 1.91233 0
M  V30 1176 H 109.15 4.84477 -0.225086 0
M  V30 1177 H 105.029 4.51009 0.954569 0
M  V30 1178 H 108.573 6.77866 -1.64755 0
M  V30 1179 H 104.47 6.43854 -0.460664 0
M  V30 1180 H 105.238 7.97053 -1.86142 0
M  V30 1181 N 107.901 -0.206675 1.56239 0
M  V30 1182 C 108.831 -1.25909 1.96645 0
M  V30 1183 C 109.812 -1.48097 0.836734 0
M  V30 1184 O 110.997 -1.6003 1.10019 0
M  V30 1185 C 108.127 -2.6058 2.29599 0
M  V30 1186 C 107.081 -2.53024 3.452 0
M  V30 1187 C 106.407 -3.91861 3.63798 0
M  V30 1188 C 107.707 -2.06524 4.79734 0
M  V30 1189 H 109.401 -0.923369 2.84806 0
M  V30 1190 H 106.947 -0.442735 1.37025 0
M  V30 1191 H 108.9 -3.34375 2.56459 0
M  V30 1192 H 107.624 -2.95869 1.38307 0
M  V30 1193 H 106.283 -1.81684 3.18412 0
M  V30 1194 H 105.931 -4.24483 2.69857 0
M  V30 1195 H 105.631 -3.87683 4.4156 0
M  V30 1196 H 107.155 -4.67296 3.93022 0
M  V30 1197 H 108.569 -2.70072 5.05702 0
M  V30 1198 H 106.966 -2.13374 5.60885 0
M  V30 1199 H 108.036 -1.01802 4.74093 0
M  V30 1200 N 109.379 -1.50304 -0.473955 0
M  V30 1201 C 110.604 -1.65175 -1.25427 0
M  V30 1202 C 111.029 -0.333673 -1.85117 0
M  V30 1203 O 110.387 0.702114 -1.67153 0
M  V30 1204 C 110.435 -2.74295 -2.34082 0
M  V30 1205 O 109.539 -2.35349 -3.38651 0
M  V30 1206 H 108.88 -0.551944 -0.369126 0
M  V30 1207 H 111.41 -1.96662 -0.564364 0
M  V30 1208 H 111.42 -2.97285 -2.79438 0
M  V30 1209 H 110.095 -3.69959 -1.90008 0
M  V30 1210 H 108.672 -2.22794 -2.99027 0
M  V30 1211 N 110.857 0.726932 -1.39834 0
M  V30 1212 C 112.134 1.47902 -1.28001 0
M  V30 1213 C 112.514 2.1083 0.106789 0
M  V30 1214 O 111.862 1.99242 1.11869 0
M  V30 1215 C 112.072 2.52392 -2.41038 0
M  V30 1216 C 113.42 3.18546 -2.80737 0
M  V30 1217 O 114.444 2.62708 -2.40547 0
M  V30 1218 O 113.303 4.19604 -3.50135 0
M  V30 1219 H 110.397 0.657163 -0.502062 0
M  V30 1220 H 112.943 0.760071 -1.51727 0
M  V30 1221 H 111.715 2.04329 -3.33715 0
M  V30 1222 H 111.338 3.31837 -2.19021 0
M  V30 1223 N 112.336 1.25143 0.95797 0
M  V30 1224 C 113.266 1.07711 2.07173 0
M  V30 1225 C 114.247 -0.0128462 1.70095 0
M  V30 1226 O 115.432 0.156061 1.93572 0
M  V30 1227 C 112.562 0.691503 3.40346 0
M  V30 1228 C 111.516 1.73132 3.9142 0
M  V30 1229 C 110.842 1.20049 5.21049 0
M  V30 1230 C 112.142 3.1294 4.1817 0
M  V30 1231 H 113.836 2.00873 2.22014 0
M  V30 1232 H 111.382 0.967191 1.06684 0
M  V30 1233 H 113.335 0.556505 4.17709 0
M  V30 1234 H 112.059 -0.275819 3.25433 0
M  V30 1235 H 110.718 1.8547 3.16222 0
M  V30 1236 H 110.366 0.223499 5.02503 0
M  V30 1237 H 110.066 1.89545 5.56189 0
M  V30 1238 H 111.59 1.07782 6.01012 0
M  V30 1239 H 113.004 3.03775 4.86203 0
M  V30 1240 H 111.401 3.79875 4.64559 0
M  V30 1241 H 112.471 3.6025 3.24573 0
M  V30 1242 N 113.814 -1.1601 1.06675 0
M  V30 1243 C 115.061 -1.86633 0.785781 0
M  V30 1244 C 115.389 -1.81929 -0.687896 0
M  V30 1245 O 114.644 -1.23253 -1.52011 0
M  V30 1246 C 114.943 -3.35547 1.23057 0
M  V30 1247 C 114.609 -3.60448 2.70902 0
M  V30 1248 C 113.271 -3.66954 3.11285 0
M  V30 1249 C 115.623 -3.7071 3.66365 0
M  V30 1250 C 112.951 -3.81225 4.45965 0
M  V30 1251 C 115.303 -3.86503 5.00797 0
M  V30 1252 C 113.967 -3.91252 5.40813 0
M  V30 1253 H 113.237 -0.682937 0.287538 0
M  V30 1254 H 115.884 -1.37146 1.33654 0
M  V30 1255 H 114.189 -3.87193 0.59907 0
M  V30 1256 H 115.886 -3.88583 0.990163 0
M  V30 1257 H 112.476 -3.56021 2.38636 0
M  V30 1258 H 116.66 -3.64991 3.36296 0
M  V30 1259 H 111.916 -3.83155 4.76447 0
M  V30 1260 H 116.09 -3.93385 5.74649 0
M  V30 1261 H 113.717 -4.02062 6.45174 0
M  V30 1262 N 115.292 -0.849877 -1.32721 0
M  V30 1263 C 116.52 -0.464754 -2.01613 0
M  V30 1264 C 116.935 0.937191 -1.63897 0
M  V30 1265 O 116.292 1.61081 -0.857856 0
M  V30 1266 C 116.343 -0.588638 -3.56675 0
M  V30 1267 O 116.064 -1.93535 -3.93034 0
M  V30 1268 C 117.565 -0.2019 -4.4284 0
M  V30 1269 H 114.785 -0.183215 -0.645502 0
M  V30 1270 H 117.329 -1.1455 -1.69407 0
M  V30 1271 H 115.484 0.0443159 -3.87375 0
M  V30 1272 H 115.898 -1.92871 -4.87751 0
M  V30 1273 H 117.372 -0.339599 -5.50954 0
M  V30 1274 H 117.849 0.857224 -4.30753 0
M  V30 1275 H 118.455 -0.809733 -4.17521 0
M  V30 1276 N 116.77 1.45427 -0.607355 0
M  V30 1277 C 117.998 2.06614 -0.108814 0
M  V30 1278 C 118.413 1.45204 1.2067 0
M  V30 1279 O 117.77 0.566132 1.73497 0
M  V30 1280 C 117.821 3.61481 0.0375347 0
M  V30 1281 O 117.542 4.20598 -1.22593 0
M  V30 1282 C 119.043 4.39652 0.567561 0
M  V30 1283 H 116.263 0.66747 -0.0687351 0
M  V30 1284 H 118.807 1.86675 -0.835022 0
M  V30 1285 H 116.962 3.80762 0.714068 0
M  V30 1286 H 117.376 5.1377 -1.05547 0
M  V30 1287 H 118.85 5.48518 0.61905 0
M  V30 1288 H 119.327 4.09417 1.58978 0
M  V30 1289 H 119.933 4.25234 -0.0749202 0
M  V30 1290 N 118.248 0.346503 1.53744 0
M  V30 1291 C 119.178 -0.501193 2.28058 0
M  V30 1292 C 120.159 -1.10014 1.29734 0
M  V30 1293 O 121.344 -1.12097 1.58581 0
M  V30 1294 C 118.474 -1.65078 3.05559 0
M  V30 1295 C 117.428 -1.18003 4.11411 0
M  V30 1296 C 116.754 -2.41837 4.76884 0
M  V30 1297 C 118.054 -0.278394 5.21558 0
M  V30 1298 H 119.748 0.11875 2.99164 0
M  V30 1299 H 117.294 0.0585531 1.43881 0
M  V30 1300 H 119.247 -2.25028 3.56287 0
M  V30 1301 H 117.971 -2.29767 2.32109 0
M  V30 1302 H 116.63 -0.603331 3.61601 0
M  V30 1303 H 116.278 -3.0494 4.00026 0
M  V30 1304 H 115.978 -2.1102 5.48402 0
M  V30 1305 H 117.502 -3.02508 5.30397 0
M  V30 1306 H 118.916 -0.784823 5.67903 0
M  V30 1307 H 117.313 -0.0619707 6.00068 0
M  V30 1308 H 118.383 0.684677 4.80042 0
M  V30 1309 N 119.726 -1.57421 0.075193 0
M  V30 1310 C 120.972 -1.93905 -0.594025 0
M  V30 1311 C 121.305 -0.955701 -1.69056 0
M  V30 1312 O 120.58 0.0145373 -1.94495 0
M  V30 1313 C 120.863 -3.40638 -1.1678 0
M  V30 1314 C 120.716 -4.49733 -0.0776792 0
M  V30 1315 C 122.035 -3.88259 -2.07228 0
M  V30 1316 H 119.154 -0.705105 -0.214466 0
M  V30 1317 H 121.796 -1.8947 0.141854 0
M  V30 1318 H 119.946 -3.44549 -1.79494 0
M  V30 1319 H 121.618 -4.57942 0.555573 0
M  V30 1320 H 119.861 -4.29751 0.591286 0
M  V30 1321 H 120.532 -5.49549 -0.519603 0
M  V30 1322 H 123.008 -3.86376 -1.54445 0
M  V30 1323 H 121.884 -4.91533 -2.44308 0
M  V30 1324 H 122.145 -3.26396 -2.98191 0
M  V30 1325 N 121.204 0.198386 -1.56346 0
M  V30 1326 C 122.481 0.944982 -1.71258 0
M  V30 1327 C 122.861 2.0151 -0.629048 0
M  V30 1328 O 122.209 2.25639 0.360473 0
M  V30 1329 C 122.419 1.5344 -3.1346 0
M  V30 1330 C 123.767 2.01778 -3.73591 0
M  V30 1331 O 124.791 1.63288 -3.16568 0
M  V30 1332 O 123.65 2.72594 -4.73661 0
M  V30 1333 H 120.744 0.442939 -0.69838 0
M  V30 1334 H 123.29 0.188342 -1.68652 0
M  V30 1335 H 122.062 0.762869 -3.83792 0
M  V30 1336 H 121.685 2.35596 -3.20282 0
M  V30 1337 N 122.682 1.50554 0.465978 0
M  V30 1338 C 123.612 1.72722 1.57128 0
M  V30 1339 C 124.593 0.576294 1.6004 0
M  V30 1340 O 125.778 0.81598 1.76225 0
M  V30 1341 C 122.908 1.82605 2.95419 0
M  V30 1342 C 121.862 2.97835 3.07373 0
M  V30 1343 C 121.188 2.92867 4.47363 0
M  V30 1344 C 122.488 4.38265 2.84114 0
M  V30 1345 H 124.182 2.65267 1.38829 0
M  V30 1346 H 121.728 1.2765 0.666441 0
M  V30 1347 H 123.681 1.96698 3.72677 0
M  V30 1348 H 122.405 0.866858 3.14886 0
M  V30 1349 H 121.064 2.83401 2.3255 0
M  V30 1350 H 120.712 1.94783 4.63755 0
M  V30 1351 H 120.412 3.70227 4.56296 0
M  V30 1352 H 121.936 3.09015 5.26633 0
M  V30 1353 H 123.35 4.53198 3.51118 0
M  V30 1354 H 121.747 5.17115 3.04487 0
M  V30 1355 H 122.817 4.50281 1.7993 0
M  V30 1356 N 124.16 -0.719506 1.40217 0
M  V30 1357 C 125.107 -1.83359 1.40172 0
M  V30 1358 C 126.077 -1.64065 0.259206 0
M  V30 1359 O 127.262 -1.85254 0.456677 0
M  V30 1360 C 124.402 -3.2103 1.26624 0
M  V30 1361 C 123.515 -3.51923 2.50548 0
M  V30 1362 C 122.65 -4.79079 2.29471 0
M  V30 1363 C 121.689 -5.02863 3.48992 0
M  V30 1364 N 120.826 -6.2123 3.27135 0
M  V30 1365 H 125.666 -1.82733 2.35399 0
M  V30 1366 H 123.203 -0.892688 1.16917 0
M  V30 1367 H 125.161 -4.00524 1.16776 0
M  V30 1368 H 123.791 -3.20895 0.350176 0
M  V30 1369 H 122.843 -2.67014 2.70939 0
M  V30 1370 H 124.155 -3.6541 3.39525 0
M  V30 1371 H 123.309 -5.66582 2.16955 0
M  V30 1372 H 122.048 -4.67794 1.37913 0
M  V30 1373 H 121.053 -4.13816 3.6199 0
M  V30 1374 H 122.278 -5.16023 4.41472 0
M  V30 1375 H 120.224 -6.11204 2.38256 0
M  V30 1376 H 120.141 -6.35375 4.09675 0
M  V30 1377 H 121.409 -7.11532 3.18344 0
M  V30 1378 N 125.638 -1.25649 -0.95132 0
M  V30 1379 C 126.884 -1.11766 -1.69941 0
M  V30 1380 C 127.239 0.33735 -1.89419 0
M  V30 1381 O 126.532 1.24491 -1.45645 0
M  V30 1382 C 126.726 -1.80909 -3.08231 0
M  V30 1383 C 126.555 -3.32984 -3.02245 0
M  V30 1384 C 125.325 -4.02247 -3.05819 0
M  V30 1385 C 127.523 -4.29332 -2.83157 0
M  V30 1386 N 125.505 -5.41072 -2.90024 0
M  V30 1387 C 126.876 -5.55265 -2.75828 0
M  V30 1388 C 128.931 -4.19707 -2.67863 0
M  V30 1389 C 127.634 -6.72671 -2.54767 0
M  V30 1390 C 129.66 -5.36809 -2.48173 0
M  V30 1391 C 129.022 -6.61683 -2.41567 0
M  V30 1392 H 125.121 -0.463708 -0.629682 0
M  V30 1393 H 127.705 -1.58796 -1.12659 0
M  V30 1394 H 125.876 -1.36369 -3.63673 0
M  V30 1395 H 127.608 -1.59739 -3.71841 0
M  V30 1396 H 124.363 -3.53531 -3.15139 0
M  V30 1397 H 124.787 -6.13938 -2.85323 0
M  V30 1398 H 129.429 -3.23907 -2.71743 0
M  V30 1399 H 127.147 -7.68577 -2.49629 0
M  V30 1400 H 130.733 -5.31224 -2.37259 0
M  V30 1401 H 129.613 -7.50768 -2.26531 0
M  V30 1402 N 127.117 1.15442 -1.07289 0
M  V30 1403 C 128.533 1.38201 -0.798288 0
M  V30 1404 C 128.733 1.92429 0.597769 0
M  V30 1405 O 127.789 2.12962 1.3566 0
M  V30 1406 C 129.102 2.35357 -1.87156 0
M  V30 1407 C 130.65 2.49021 -1.89624 0
M  V30 1408 C 131.125 3.49468 -2.96034 0
M  V30 1409 N 132.616 3.57003 -2.95132 0
M  V30 1410 C 133.351 4.34543 -3.74112 0
M  V30 1411 N 132.847 5.15421 -4.6294 0
M  V30 1412 N 134.64 4.29625 -3.62462 0
M  V30 1413 H 126.791 0.78584 -1.97328 0
M  V30 1414 H 129.054 0.408065 -0.855679 0
M  V30 1415 H 128.76 2.02626 -2.87464 0
M  V30 1416 H 128.634 3.35129 -1.73114 0
M  V30 1417 H 131.021 2.81051 -0.899687 0
M  V30 1418 H 131.102 1.4925 -2.07745 0
M  V30 1419 H 130.746 3.18173 -3.95889 0
M  V30 1420 H 130.676 4.48992 -2.75161 0
M  V30 1421 H 133.167 2.99276 -2.30743 0
M  V30 1422 H 133.48 5.7183 -5.19837 0
M  V30 1423 H 131.825 5.14729 -4.66989 0
M  V30 1424 H 135.016 3.65505 -2.92444 0
M  V30 1425 H 135.189 4.89807 -4.24256 0
M  V30 1426 N 128.595 0.856903 1.32268 0
M  V30 1427 C 129.842 0.461386 1.97174 0
M  V30 1428 C 130.17 -0.983491 1.67803 0
M  V30 1429 O 129.425 -1.70541 0.959903 0
M  V30 1430 C 129.724 0.649919 3.51441 0
M  V30 1431 C 129.39 2.0656 4.00804 0
M  V30 1432 C 128.052 2.45279 4.13995 0
M  V30 1433 C 130.404 2.98947 4.26943 0
M  V30 1434 C 127.732 3.75653 4.50668 0
M  V30 1435 C 130.084 4.28822 4.65075 0
M  V30 1436 C 128.748 4.67472 4.76472 0
M  V30 1437 H 128.018 0.168833 0.72151 0
M  V30 1438 H 130.665 1.08739 1.57633 0
M  V30 1439 H 128.97 -0.0593018 3.91755 0
M  V30 1440 H 130.667 0.32391 3.9969 0
M  V30 1441 H 127.257 1.75495 3.91024 0
M  V30 1442 H 131.441 2.70265 4.16258 0
M  V30 1443 H 126.697 4.05379 4.57688 0
M  V30 1444 H 130.871 5.0047 4.84255 0
M  V30 1445 H 128.498 5.68539 5.04646 0
M  V30 1446 N 130.073 -1.45103 0.615059 0
M  V30 1447 C 131.021 -2.32331 -0.111791 0
M  V30 1448 C 132.015 -1.46409 -0.852102 0
M  V30 1449 O 133.221 -1.62849 -0.766821 0
M  V30 1450 H 129.596 -0.749993 -0.0549072 0
M  V30 1451 H 131.567 -2.91407 0.642225 0
M  V30 1452 C 130.316 -3.3015 -1.09071 0
M  V30 1453 H 129.639 -3.96265 -0.530485 0
M  V30 1454 H 131.079 -3.93898 -1.56908 0
M  V30 1455 C 129.538 -2.57875 -2.168 0
M  V30 1456 O 130.068 -2.36567 -3.24652 0
M  V30 1457 N 128.274 -2.17884 -1.92289 0
M  V30 1458 H 127.821 -2.35413 -1.04587 0
M  V30 1459 H 127.779 -1.6985 -2.64572 0
M  V30 1460 N 131.551 -0.354651 -1.53558 0
M  V30 1461 C 132.481 0.489091 -2.2832 0
M  V30 1462 C 133.462 1.09324 -1.30316 0
M  V30 1463 O 134.647 1.11255 -1.59173 0
M  V30 1464 C 131.777 1.63456 -3.0643 0
M  V30 1465 C 130.731 1.1582 -4.12031 0
M  V30 1466 C 130.057 2.39305 -4.7816 0
M  V30 1467 C 131.357 0.250731 -5.21698 0
M  V30 1468 H 133.051 -0.134614 -2.99097 0
M  V30 1469 H 130.597 -0.0661826 -1.43848 0
M  V30 1470 H 132.55 2.23136 -3.57475 0
M  V30 1471 H 131.274 2.28533 -2.33325 0
M  V30 1472 H 129.933 0.584146 -3.61916 0
M  V30 1473 H 129.581 3.02814 -4.01637 0
M  V30 1474 H 129.281 2.08109 -5.49513 0
M  V30 1475 H 130.805 2.99691 -5.31994 0
M  V30 1476 H 132.219 0.754695 -5.68311 0
M  V30 1477 H 130.616 0.0301468 -6.00092 0
M  V30 1478 H 131.686 -0.710125 -4.79672 0
M  V30 1479 N 133.029 1.57378 -0.0835403 0
M  V30 1480 C 133.959 2.1641 0.87686 0
M  V30 1481 C 134.94 1.09429 1.30228 0
M  V30 1482 O 136.125 1.37516 1.37124 0
M  V30 1483 C 133.255 2.73517 2.14022 0
M  V30 1484 C 132.209 3.85769 1.85381 0
M  V30 1485 C 131.535 4.29529 3.18448 0
M  V30 1486 C 132.835 5.09486 1.14984 0
M  V30 1487 H 134.529 2.96914 0.385059 0
M  V30 1488 H 132.075 1.42823 0.18377 0
M  V30 1489 H 134.028 3.13463 2.81636 0
M  V30 1490 H 132.752 1.90252 2.65465 0
M  V30 1491 H 131.411 3.46345 1.20169 0
M  V30 1492 H 131.059 3.43169 3.67755 0
M  V30 1493 H 130.759 5.05204 3.00071 0
M  V30 1494 H 132.283 4.72099 3.8724 0
M  V30 1495 H 133.697 5.46674 1.72687 0
M  V30 1496 H 132.094 5.90515 1.06826 0
M  V30 1497 H 133.164 4.84724 0.130749 0
M  V30 1498 N 134.507 -0.190092 1.56449 0
M  V30 1499 C 135.753 -0.911052 1.81184 0
M  V30 1500 C 136.086 -1.82699 0.658396 0
M  V30 1501 O 135.361 -1.91491 -0.340775 0
M  V30 1502 C 135.644 -1.72297 3.16205 0
M  V30 1503 C 135.497 -0.831419 4.42049 0
M  V30 1504 C 136.816 -2.69454 3.47969 0
M  V30 1505 H 133.935 -0.32977 0.659106 0
M  V30 1506 H 136.577 -0.178169 1.89163 0
M  V30 1507 H 134.727 -2.34778 3.09534 0
M  V30 1508 H 136.399 -0.220929 4.60771 0
M  V30 1509 H 134.642 -0.138406 4.33579 0
M  V30 1510 H 135.313 -1.43461 5.33032 0
M  V30 1511 H 137.789 -2.17104 3.54972 0
M  V30 1512 H 136.665 -3.23342 4.43555 0
M  V30 1513 H 136.926 -3.48744 2.71717 0
M  V30 1514 N 135.985 -1.50799 -0.457987 0
M  V30 1515 C 137.232 -1.62442 -1.20908 0
M  V30 1516 C 137.56 -0.330865 -1.91665 0
M  V30 1517 O 136.815 0.68401 -1.83357 0
M  V30 1518 C 137.114 -2.76358 -2.2663 0
M  V30 1519 C 136.78 -4.16378 -1.73033 0
M  V30 1520 C 135.442 -4.54473 -1.58138 0
M  V30 1521 C 137.794 -5.03836 -1.33413 0
M  V30 1522 C 135.122 -5.77754 -1.02065 0
M  V30 1523 C 137.474 -6.27676 -0.78778 0
M  V30 1524 C 136.138 -6.64562 -0.625561 0
M  V30 1525 H 135.408 -0.594417 -0.442435 0
M  V30 1526 H 138.055 -1.84772 -0.503136 0
M  V30 1527 H 136.36 -2.48167 -3.03184 0
M  V30 1528 H 138.057 -2.82568 -2.84528 0
M  V30 1529 H 134.647 -3.86331 -1.85598 0
M  V30 1530 H 138.831 -4.75026 -1.4375 0
M  V30 1531 H 134.087 -6.04997 -0.882547 0
M  V30 1532 H 138.261 -6.94797 -0.472177 0
M  V30 1533 H 135.888 -7.59965 -0.188926 0
M  V30 1534 N 137.463 0.71206 -1.40597 0
M  V30 1535 C 138.691 1.50111 -1.42388 0
M  V30 1536 C 139.106 1.88784 -0.0245395 0
M  V30 1537 O 138.463 1.55681 0.952351 0
M  V30 1538 C 138.514 2.7742 -2.31776 0
M  V30 1539 O 138.235 2.40382 -3.66262 0
M  V30 1540 C 139.736 3.7129 -2.42196 0
M  V30 1541 H 136.956 0.46314 -0.485533 0
M  V30 1542 H 139.5 0.878068 -1.8469 0
M  V30 1543 H 137.655 3.36001 -1.92827 0
M  V30 1544 H 138.069 3.22324 -4.13772 0
M  V30 1545 H 139.543 4.57448 -3.08943 0
M  V30 1546 H 140.02 4.14641 -1.44809 0
M  V30 1547 H 140.626 3.18619 -2.81712 0
M  V30 1548 N 138.941 1.26152 0.944643 0
M  V30 1549 C 139.874 1.01729 2.04271 0
M  V30 1550 C 140.852 -0.0568101 1.62501 0
M  V30 1551 O 142.036 0.0848987 1.88309 0
M  V30 1552 C 139.163 0.539792 3.34371 0
M  V30 1553 C 138.209 1.60593 3.9511 0
M  V30 1554 S 139.042 3.19392 4.29825 0
M  V30 1555 C 140.198 2.73402 5.63029 0
M  V30 1556 H 140.431 1.94703 2.24673 0
M  V30 1557 H 137.964 1.09793 1.08558 0
M  V30 1558 H 139.922 0.270956 4.09605 0
M  V30 1559 H 138.583 -0.369609 3.11918 0
M  V30 1560 H 137.776 1.22275 4.88943 0
M  V30 1561 H 137.378 1.82596 3.26397 0
M  V30 1562 H 139.67 2.1765 6.41588 0
M  V30 1563 H 140.613 3.65913 6.06229 0
M  V30 1564 H 141.021 2.13077 5.22741 0
M  V30 1565 N 140.419 -1.14872 1.07899 0
M  V30 1566 C 141.665 -1.86064 0.806725 0
M  V30 1567 C 141.998 -1.82434 -0.665706 0
M  V30 1568 O 141.273 -1.25138 -1.48899 0
M  V30 1569 C 141.556 -3.34929 1.32267 0
M  V30 1570 C 141.409 -3.47161 2.86006 0
M  V30 1571 C 142.728 -4.29863 0.943717 0
M  V30 1572 H 139.847 -0.675591 0.294526 0
M  V30 1573 H 142.489 -1.34925 1.33773 0
M  V30 1574 H 140.639 -3.78611 0.870974 0
M  V30 1575 H 142.311 -3.12302 3.39507 0
M  V30 1576 H 140.554 -2.88539 3.23925 0
M  V30 1577 H 141.225 -4.51777 3.17177 0
M  V30 1578 H 143.701 -3.9417 1.33302 0
M  V30 1579 H 142.577 -5.32494 1.33198 0
M  V30 1580 H 142.838 -4.41846 -0.149796 0
M  V30 1581 N 141.898 -0.863906 -1.31812 0
M  V30 1582 C 143.128 -0.485406 -2.00817 0
M  V30 1583 C 143.536 0.925007 -1.65046 0
M  V30 1584 O 142.879 1.61653 -0.872574 0
M  V30 1585 C 142.941 -0.555589 -3.55181 0
M  V30 1586 C 142.605 -1.92654 -4.14407 0
M  V30 1587 C 143.602 -2.89324 -4.31958 0
M  V30 1588 C 141.287 -2.2262 -4.50273 0
M  V30 1589 C 143.281 -4.14108 -4.84555 0
M  V30 1590 C 140.968 -3.47654 -5.02573 0
M  V30 1591 C 141.966 -4.43214 -5.19664 0
M  V30 1592 O 141.654 -5.66033 -5.70843 0
M  V30 1593 H 141.386 -0.188224 -0.649267 0
M  V30 1594 H 143.94 -1.16514 -1.69156 0
M  V30 1595 H 142.17 0.181037 -3.86276 0
M  V30 1596 H 143.859 -0.19138 -4.05449 0
M  V30 1597 H 144.625 -2.6748 -4.04573 0
M  V30 1598 H 140.504 -1.4902 -4.3625 0
M  V30 1599 H 144.048 -4.88703 -4.9781 0
M  V30 1600 H 139.945 -3.69345 -5.29391 0
M  V30 1601 H 140.713 -5.6812 -5.89222 0
M  V30 1602 N 143.376 1.44774 -0.622745 0
M  V30 1603 C 144.604 2.06487 -0.130722 0
M  V30 1604 C 145.019 1.46476 1.19123 0
M  V30 1605 O 144.376 0.584502 1.72887 0
M  V30 1606 C 144.427 3.615 -0.000807207 0
M  V30 1607 O 144.148 4.19274 -1.27048 0
M  V30 1608 C 145.649 4.40229 0.520898 0
M  V30 1609 H 142.869 0.666704 -0.0758106 0
M  V30 1610 H 145.413 1.85779 -0.854774 0
M  V30 1611 H 143.568 3.81498 0.673643 0
M  V30 1612 H 143.982 5.12622 -1.1099 0
M  V30 1613 H 145.456 5.49144 0.560838 0
M  V30 1614 H 145.933 4.1108 1.54627 0
M  V30 1615 H 146.539 4.25131 -0.120018 0
M  V30 1616 N 144.854 0.36279 1.53368 0
M  V30 1617 C 146.1 -0.228113 2.01513 0
M  V30 1618 C 146.433 -1.48648 1.2497 0
M  V30 1619 O 145.708 -1.91459 0.342616 0
M  V30 1620 C 145.991 -0.522884 3.56284 0
M  V30 1621 C 145.844 0.74892 4.43521 0
M  V30 1622 C 147.163 -1.32461 4.19693 0
M  V30 1623 H 144.282 -0.0814343 0.732487 0
M  V30 1624 H 146.924 0.48713 1.83649 0
M  V30 1625 H 145.074 -1.1322 3.71636 0
M  V30 1626 H 146.746 1.38648 4.39971 0
M  V30 1627 H 144.989 1.36986 4.11603 0
M  V30 1628 H 145.66 0.497667 5.49752 0
M  V30 1629 H 148.136 -0.809203 4.08156 0
M  V30 1630 H 147.012 -1.49961 5.28018 0
M  V30 1631 H 147.273 -2.33232 3.75573 0
M  V30 1632 N 146.332 -1.57332 0.0918853 0
M  V30 1633 C 147.56 -1.98574 -0.581048 0
M  V30 1634 C 147.975 -0.970903 -1.61923 0
M  V30 1635 O 147.332 0.0399054 -1.82456 0
M  V30 1636 C 147.383 -3.39872 -1.23164 0
M  V30 1637 O 147.104 -4.37469 -0.234989 0
M  V30 1638 C 148.605 -3.96099 -1.99049 0
M  V30 1639 H 145.825 -0.65261 -0.156018 0
M  V30 1640 H 148.369 -2.0379 0.170225 0
M  V30 1641 H 146.524 -3.35679 -1.93386 0
M  V30 1642 H 146.938 -5.19751 -0.70418 0
M  V30 1643 H 148.412 -4.97127 -2.39934 0
M  V30 1644 H 148.889 -3.3374 -2.85507 0
M  V30 1645 H 149.495 -4.03755 -1.3365 0
M  V30 1646 N 147.81 0.181792 -1.56548 0
M  V30 1647 C 149.056 0.896803 -1.82562 0
M  V30 1648 C 149.411 1.80324 -0.670908 0
M  V30 1649 O 148.704 1.8868 0.333235 0
M  V30 1650 C 148.898 1.73728 -3.12335 0
M  V30 1651 C 148.727 0.913714 -4.4032 0
M  V30 1652 C 147.497 0.592903 -5.01809 0
M  V30 1653 C 149.695 0.260164 -5.13642 0
M  V30 1654 N 147.677 -0.247901 -6.13399 0
M  V30 1655 C 149.048 -0.442256 -6.18421 0
M  V30 1656 C 151.103 0.177253 -4.97584 0
M  V30 1657 C 149.806 -1.21971 -7.08883 0
M  V30 1658 C 151.832 -0.586839 -5.88481 0
M  V30 1659 C 151.194 -1.27766 -6.92716 0
M  V30 1660 H 147.293 0.307122 -0.719166 0
M  V30 1661 H 149.877 0.164535 -1.94004 0
M  V30 1662 H 148.048 2.44105 -3.02105 0
M  V30 1663 H 149.78 2.39279 -3.26386 0
M  V30 1664 H 146.535 0.920502 -4.64568 0
M  V30 1665 H 146.959 -0.658304 -6.73792 0
M  V30 1666 H 151.601 0.696993 -4.17015 0
M  V30 1667 H 149.319 -1.75083 -7.88905 0
M  V30 1668 H 152.905 -0.652522 -5.78129 0
M  V30 1669 H 151.785 -1.85943 -7.61836 0
M  V30 1670 N 149.288 1.51039 0.449983 0
M  V30 1671 C 150.218 1.74379 1.55288 0
M  V30 1672 C 151.199 0.593236 1.5942 0
M  V30 1673 O 152.384 0.834625 1.7535 0
M  V30 1674 C 149.514 1.85728 2.93466 0
M  V30 1675 C 148.468 3.01078 3.04197 0
M  V30 1676 C 147.794 2.97595 4.44231 0
M  V30 1677 C 149.094 4.41254 2.7945 0
M  V30 1678 H 150.788 2.66725 1.36008 0
M  V30 1679 H 148.334 1.2835 0.652864 0
M  V30 1680 H 150.287 2.0064 3.70569 0
M  V30 1681 H 149.011 0.900207 3.13949 0
M  V30 1682 H 147.67 2.85851 2.29531 0
M  V30 1683 H 147.318 1.99691 4.61663 0
M  V30 1684 H 147.018 3.75046 4.52343 0
M  V30 1685 H 148.542 3.14583 5.23326 0
M  V30 1686 H 149.956 4.56897 3.46292 0
M  V30 1687 H 148.353 5.20315 2.98985 0
M  V30 1688 H 149.423 4.52164 1.75144 0
M  V30 1689 N 150.766 -0.704594 1.40972 0
M  V30 1690 C 152.013 -1.46458 1.39844 0
M  V30 1691 C 152.341 -1.94499 0.00447594 0
M  V30 1692 O 151.596 -1.69275 -0.982057 0
M  V30 1693 C 151.895 -2.698 2.34399 0
M  V30 1694 C 151.561 -2.40464 3.81429 0
M  V30 1695 C 150.223 -2.32174 4.21484 0
M  V30 1696 C 152.575 -2.16086 4.74296 0
M  V30 1697 C 149.903 -1.97589 5.52427 0
M  V30 1698 C 152.255 -1.83011 6.05549 0
M  V30 1699 C 150.919 -1.7321 6.44635 0
M  V30 1700 H 150.189 -0.535927 0.511725 0
M  V30 1701 H 152.836 -0.806124 1.73706 0
M  V30 1702 H 151.141 -3.40536 1.93759 0
M  V30 1703 H 152.838 -3.27919 2.30804 0
M  V30 1704 H 149.428 -2.47808 3.49699 0
M  V30 1705 H 153.612 -2.2144 4.4416 0
M  V30 1706 H 148.868 -1.88547 5.81601 0
M  V30 1707 H 153.042 -1.63164 6.77016 0
M  V30 1708 H 150.669 -1.46179 7.46013 0
M  V30 1709 N 152.244 -1.26651 -0.937939 0
M  V30 1710 C 153.491 -1.12387 -1.6845 0
M  V30 1711 C 153.819 0.332208 -1.91642 0
M  V30 1712 O 153.074 1.2602 -1.49725 0
M  V30 1713 C 153.373 -1.84168 -3.06295 0
M  V30 1714 C 153.039 -3.34056 -3.02849 0
M  V30 1715 C 151.701 -3.74942 -3.01616 0
M  V30 1716 C 154.053 -4.29741 -2.9491 0
M  V30 1717 C 151.381 -5.09894 -2.90215 0
M  V30 1718 C 153.733 -5.64738 -2.8505 0
M  V30 1719 C 152.397 -6.0493 -2.82162 0
M  V30 1720 H 151.667 -0.411252 -0.616403 0
M  V30 1721 H 154.314 -1.57134 -1.09459 0
M  V30 1722 H 152.619 -1.319 -3.6893 0
M  V30 1723 H 154.316 -1.70569 -3.62915 0
M  V30 1724 H 150.906 -3.01534 -3.0459 0
M  V30 1725 H 155.09 -3.99133 -2.94969 0
M  V30 1726 H 150.346 -5.40194 -2.86358 0
M  V30 1727 H 154.52 -6.38561 -2.77872 0
M  V30 1728 H 152.147 -7.09457 -2.73084 0
M  V30 1729 N 153.722 1.14298 -1.08507 0
M  V30 1730 C 154.97 1.84993 -0.813763 0
M  V30 1731 C 155.291 1.83405 0.662393 0
M  V30 1732 O 154.561 1.28319 1.48024 0
M  V30 1733 H 153.141 0.684966 -0.298045 0
M  V30 1734 H 155.803 1.385 -1.37126 0
M  V30 1735 H 154.899 2.89788 -1.15884 0
M  V30 1736 N 155.201 0.870884 1.31352 0
M  V30 1737 C 156.448 0.482273 1.96673 0
M  V30 1738 C 156.776 -0.965638 1.68836 0
M  V30 1739 O 156.031 -1.69514 0.977937 0
M  V30 1740 C 156.33 0.687157 3.50732 0
M  V30 1741 C 155.996 2.108 3.9859 0
M  V30 1742 C 154.658 2.49656 4.1137 0
M  V30 1743 C 157.01 3.03459 4.23748 0
M  V30 1744 C 154.338 3.80412 4.46659 0
M  V30 1745 C 156.69 4.3373 4.60501 0
M  V30 1746 C 155.354 4.725 4.71487 0
M  V30 1747 H 154.624 0.176476 0.719679 0
M  V30 1748 H 157.271 1.10405 1.56471 0
M  V30 1749 H 155.576 -0.0177476 3.91796 0
M  V30 1750 H 157.273 0.366284 3.99324 0
M  V30 1751 H 153.863 1.79633 3.8914 0
M  V30 1752 H 158.047 2.74665 4.13368 0
M  V30 1753 H 153.303 4.1021 4.53362 0
M  V30 1754 H 157.477 5.05578 4.78919 0
M  V30 1755 H 155.104 5.73859 4.98588 0
M  V30 1756 N 156.679 -1.44442 0.630414 0
M  V30 1757 C 157.928 -2.01267 0.132073 0
M  V30 1758 C 158.241 -1.50172 -1.25331 0
M  V30 1759 O 159.447 -1.9912 -1.84562 0
M  V30 1760 C 157.903 -3.59422 0.185362 0
M  V30 1761 C 157.511 -4.19514 1.57201 0
M  V30 1762 C 159.255 -4.23724 -0.256553 0
M  V30 1763 C 157.162 -5.69891 1.58045 0
M  V30 1764 H 156.092 -0.752619 0.0456092 0
M  V30 1765 H 158.743 -1.65666 0.789106 0
M  V30 1766 H 157.125 -3.92318 -0.538759 0
M  V30 1767 H 158.299 -3.98156 2.31966 0
M  V30 1768 H 156.614 -3.67496 1.95795 0
M  V30 1769 H 159.211 -5.34019 -0.269767 0
M  V30 1770 H 159.554 -3.96013 -1.28372 0
M  V30 1771 H 160.087 -3.95629 0.41505 0
M  V30 1772 H 156.826 -6.02336 2.58597 0
M  V30 1773 H 156.346 -5.93373 0.875725 0
M  V30 1774 H 158.025 -6.33515 1.31408 0
M  V30 1775 N 158.157 -0.370918 -1.53173 0
M  V30 1776 C 159.403 0.209976 -2.02313 0
M  V30 1777 C 159.758 1.45987 -1.25322 0
M  V30 1778 O 159.051 1.8856 -0.339965 0
M  V30 1779 C 159.245 0.549696 -3.53147 0
M  V30 1780 C 159.074 -0.665721 -4.44745 0
M  V30 1781 C 157.844 -1.17942 -4.91343 0
M  V30 1782 C 160.042 -1.53255 -4.90935 0
M  V30 1783 N 158.024 -2.35431 -5.66962 0
M  V30 1784 C 159.395 -2.55403 -5.64951 0
M  V30 1785 C 161.45 -1.5548 -4.73002 0
M  V30 1786 C 160.153 -3.5964 -6.22938 0
M  V30 1787 C 162.179 -2.58613 -5.31858 0
M  V30 1788 C 161.541 -3.59485 -6.05764 0
M  V30 1789 H 157.64 0.0394095 -0.781006 0
M  V30 1790 H 160.224 -0.516666 -1.8772 0
M  V30 1791 H 158.395 1.24541 -3.67891 0
M  V30 1792 H 160.127 1.11614 -3.89004 0
M  V30 1793 H 156.882 -0.743228 -4.67732 0
M  V30 1794 H 157.306 -2.94827 -6.09431 0
M  V30 1795 H 161.948 -0.788457 -4.15383 0
M  V30 1796 H 159.666 -4.37153 -6.79649 0
M  V30 1797 H 163.252 -2.61195 -5.19873 0
M  V30 1798 H 162.132 -4.3798 -6.50495 0
M  V30 1799 N 159.635 1.57281 -0.100228 0
M  V30 1800 C 160.881 1.95626 0.556946 0
M  V30 1801 C 161.236 0.981655 1.65473 0
M  V30 1802 O 160.529 0.00849847 1.91598 0
M  V30 1803 C 160.723 3.38305 1.15259 0
M  V30 1804 C 160.552 4.49555 0.114035 0
M  V30 1805 C 159.322 5.0434 -0.311266 0
M  V30 1806 C 161.52 5.10051 -0.659768 0
M  V30 1807 N 159.502 5.99152 -1.33755 0
M  V30 1808 C 160.873 6.00628 -1.53774 0
M  V30 1809 C 162.928 4.92772 -0.712723 0
M  V30 1810 C 161.631 6.7578 -2.46403 0
M  V30 1811 C 163.657 5.6859 -1.62663 0
M  V30 1812 C 163.019 6.58838 -2.49222 0
M  V30 1813 H 159.118 0.7624 0.173982 0
M  V30 1814 H 161.702 1.93829 -0.183988 0
M  V30 1815 H 159.873 3.40786 1.86332 0
M  V30 1816 H 161.605 3.63817 1.77254 0
M  V30 1817 H 158.36 4.73537 0.0774812 0
M  V30 1818 H 158.784 6.5126 -1.84905 0
M  V30 1819 H 163.426 4.22761 -0.0576648 0
M  V30 1820 H 161.144 7.4505 -3.12931 0
M  V30 1821 H 164.73 5.57233 -1.67281 0
M  V30 1822 H 163.61 7.16479 -3.18791 0
M  V30 1823 N 161.113 -0.173488 1.56642 0
M  V30 1824 C 162.043 -1.2171 1.99271 0
M  V30 1825 C 163.024 -1.46289 0.867959 0
M  V30 1826 O 164.209 -1.5766 1.13388 0
M  V30 1827 C 161.339 -2.55651 2.35074 0
M  V30 1828 C 160.293 -2.45645 3.50489 0
M  V30 1829 C 159.619 -3.84056 3.72028 0
M  V30 1830 C 160.919 -1.96302 4.84007 0
M  V30 1831 H 162.613 -0.86275 2.867 0
M  V30 1832 H 160.159 -0.413571 1.37933 0
M  V30 1833 H 162.112 -3.2886 2.63494 0
M  V30 1834 H 160.836 -2.92869 1.44552 0
M  V30 1835 H 159.495 -1.7489 3.22194 0
M  V30 1836 H 159.143 -4.18664 2.788 0
M  V30 1837 H 158.843 -3.7823 4.49684 0
M  V30 1838 H 160.367 -4.58854 4.02846 0
M  V30 1839 H 161.781 -2.59284 5.11317 0
M  V30 1840 H 160.178 -2.01429 5.65284 0
M  V30 1841 H 161.248 -0.917226 4.76146 0
M  V30 1842 N 162.591 -1.51276 -0.441967 0
M  V30 1843 C 163.84 -1.6295 -1.18871 0
M  V30 1844 C 164.153 -0.349312 -1.92456 0
M  V30 1845 O 165.359 -0.345355 -2.69295 0
M  V30 1846 C 163.815 -2.87759 -2.16155 0
M  V30 1847 C 163.423 -4.22764 -1.48239 0
M  V30 1848 C 165.167 -3.08788 -2.91291 0
M  V30 1849 C 163.074 -5.38728 -2.4398 0
M  V30 1850 H 162.004 -0.606913 -0.447406 0
M  V30 1851 H 164.655 -1.77739 -0.456205 0
M  V30 1852 H 163.037 -2.66593 -2.92821 0
M  V30 1853 H 164.211 -4.54293 -0.771635 0
M  V30 1854 H 162.526 -4.07575 -0.852741 0
M  V30 1855 H 165.123 -3.92599 -3.63002 0
M  V30 1856 H 165.466 -2.21679 -3.5237 0
M  V30 1857 H 165.999 -3.30272 -2.21733 0
M  V30 1858 H 162.738 -6.28082 -1.87598 0
M  V30 1859 H 162.258 -5.1158 -3.13123 0
M  V30 1860 H 163.937 -5.70489 -3.05207 0
M  V30 1861 N 164.069 0.697108 -1.41344 0
M  V30 1862 C 165.032 1.79281 -1.42797 0
M  V30 1863 C 166.032 1.57607 -0.318837 0
M  V30 1864 O 167.222 1.64309 -0.578642 0
M  V30 1865 C 164.354 3.17632 -1.23785 0
M  V30 1866 H 165.547 1.79385 -2.40335 0
M  V30 1867 H 163.1 0.904582 -1.27464 0
M  V30 1868 H 163.835 3.23167 -0.270814 0
M  V30 1869 H 163.62 3.34765 -2.04144 0
M  V30 1870 H 165.11 3.97617 -1.27633 0
M  V30 1871 N 165.547 1.27147 0.931209 0
M  V30 1872 C 166.777 1.15914 1.71019 0
M  V30 1873 C 167.185 -0.287112 1.87009 0
M  V30 1874 O 166.528 -1.20761 1.38429 0
M  V30 1875 C 166.59 1.76647 3.13107 0
M  V30 1876 C 166.254 3.25807 3.20467 0
M  V30 1877 C 167.251 4.22489 3.02983 0
M  V30 1878 C 164.936 3.66452 3.43538 0
M  V30 1879 C 166.93 5.57794 3.08454 0
M  V30 1880 C 164.617 5.01888 3.48643 0
M  V30 1881 C 165.615 5.97369 3.31119 0
M  V30 1882 O 165.303 7.30337 3.35952 0
M  V30 1883 H 165.035 0.404062 0.54195 0
M  V30 1884 H 167.589 1.68457 1.17521 0
M  V30 1885 H 165.819 1.18578 3.68071 0
M  V30 1886 H 167.508 1.60179 3.72958 0
M  V30 1887 H 168.274 3.92425 2.85004 0
M  V30 1888 H 164.153 2.92611 3.5623 0
M  V30 1889 H 167.697 6.32298 2.94694 0
M  V30 1890 H 163.594 5.31609 3.66145 0
M  V30 1891 H 164.362 7.38739 3.5243 0
M  V30 1892 N 167.025 -1.13721 1.09112 0
M  V30 1893 C 168.274 -1.84275 0.82009 0
M  V30 1894 C 168.587 -1.84253 -0.656509 0
M  V30 1895 O 169.793 -2.50668 -1.04296 0
M  V30 1896 C 168.249 -3.30825 1.41714 0
M  V30 1897 C 167.857 -3.39244 2.92605 0
M  V30 1898 C 169.601 -4.06443 1.22492 0
M  V30 1899 C 167.508 -4.80047 3.45411 0
M  V30 1900 H 166.438 -0.690387 0.30312 0
M  V30 1901 H 169.089 -1.28146 1.31343 0
M  V30 1902 H 167.471 -3.86737 0.851498 0
M  V30 1903 H 168.645 -2.93344 3.55367 0
M  V30 1904 H 166.96 -2.77088 3.10823 0
M  V30 1905 H 169.557 -5.10387 1.59402 0
M  V30 1906 H 169.9 -4.15972 0.165299 0
M  V30 1907 H 170.433 -3.56852 1.75788 0
M  V30 1908 H 167.172 -4.75709 4.50978 0
M  V30 1909 H 166.692 -5.26455 2.87411 0
M  V30 1910 H 168.371 -5.48957 3.42425 0
M  V30 1911 N 168.503 -0.877838 -1.30888 0
M  V30 1912 C 169.919 -0.570844 -1.49042 0
M  V30 1913 C 170.119 0.893159 -1.80624 0
M  V30 1914 O 169.175 1.67485 -1.88958 0
M  V30 1915 C 170.488 -1.47784 -2.61878 0
M  V30 1916 C 172.036 -1.48071 -2.75761 0
M  V30 1917 C 172.511 -2.37347 -3.91702 0
M  V30 1918 N 174.002 -2.35271 -3.99001 0
M  V30 1919 C 174.737 -3.01063 -4.88004 0
M  V30 1920 N 174.233 -3.76055 -5.81854 0
M  V30 1921 N 176.026 -2.90332 -4.81315 0
M  V30 1922 H 168.177 -1.82502 -1.0866 0
M  V30 1923 H 170.44 -0.780797 -0.537644 0
M  V30 1924 H 170.146 -2.51993 -2.45341 0
M  V30 1925 H 170.02 -1.18215 -3.58197 0
M  V30 1926 H 172.407 -0.446166 -2.91708 0
M  V30 1927 H 172.488 -1.81668 -1.80085 0
M  V30 1928 H 172.132 -3.40883 -3.76512 0
M  V30 1929 H 172.062 -2.01071 -4.86701 0
M  V30 1930 H 174.553 -1.80768 -3.3186 0
M  V30 1931 H 174.866 -4.23366 -6.46514 0
M  V30 1932 H 173.211 -3.80163 -5.81808 0
M  V30 1933 H 176.402 -2.31278 -4.06974 0
M  V30 1934 H 176.575 -3.41885 -5.50471 0
M  V30 1935 N 169.982 1.44106 -0.638065 0
M  V30 1936 C 171.23 2.01579 -0.145043 0
M  V30 1937 C 171.551 1.50496 1.24 0
M  V30 1938 O 170.821 0.711374 1.82527 0
M  V30 1939 H 169.401 0.745282 -0.05063 0
M  V30 1940 H 172.063 1.76516 -0.826327 0
M  V30 1941 H 171.159 3.11877 -0.118039 0
M  V30 1942 N 171.46 0.379036 1.52974 0
M  V30 1943 C 172.737 -0.263479 1.93817 0
M  V30 1944 C 173.117 -1.65244 1.31368 0
M  V30 1945 O 172.465 -2.23448 0.477856 0
M  V30 1946 C 172.675 -0.300166 3.47707 0
M  V30 1947 C 174.023 -0.534061 4.21228 0
M  V30 1948 O 175.047 -0.38081 3.54159 0
M  V30 1949 O 173.906 -0.833501 5.40106 0
M  V30 1950 H 171 -0.161149 0.811147 0
M  V30 1951 H 173.546 0.432798 1.64088 0
M  V30 1952 H 172.318 0.673138 3.85467 0
M  V30 1953 H 171.941 -1.04179 3.83709 0
M  V30 1954 N 172.938 -1.57226 0.108567 0
M  V30 1955 C 173.868 -2.17778 -0.84232 0
M  V30 1956 C 174.849 -1.11487 -1.2847 0
M  V30 1957 O 176.034 -1.39681 -1.34918 0
M  V30 1958 C 173.164 -2.76888 -2.09644 0
M  V30 1959 C 172.118 -3.88669 -1.79221 0
M  V30 1960 C 171.444 -4.34541 -3.11574 0
M  V30 1961 C 172.744 -5.11251 -1.06864 0
M  V30 1962 H 174.438 -2.97489 -0.337774 0
M  V30 1963 H 171.984 -1.43097 -0.161025 0
M  V30 1964 H 173.937 -3.17904 -2.76614 0
M  V30 1965 H 172.661 -1.94451 -2.62405 0
M  V30 1966 H 171.32 -3.48213 -1.14644 0
M  V30 1967 H 170.968 -3.48977 -3.62249 0
M  V30 1968 H 170.668 -5.09914 -2.91996 0
M  V30 1969 H 172.192 -4.782 -3.7968 0
M  V30 1970 H 173.606 -5.49352 -1.63968 0
M  V30 1971 H 172.003 -5.9214 -0.974178 0
M  V30 1972 H 173.073 -4.8487 -0.0536168 0
M  V30 1973 N 174.416 0.165178 -1.56732 0
M  V30 1974 C 175.693 0.908443 -1.73224 0
M  V30 1975 C 176.073 2.0013 -0.67165 0
M  V30 1976 O 175.421 2.26353 0.31253 0
M  V30 1977 C 175.631 1.46756 -3.16644 0
M  V30 1978 C 176.979 1.93809 -3.77787 0
M  V30 1979 O 178.003 1.56537 -3.1996 0
M  V30 1980 O 176.862 2.62486 -4.79336 0
M  V30 1981 H 173.956 0.428025 -0.707618 0
M  V30 1982 H 176.502 0.152526 -1.69013 0
M  V30 1983 H 175.274 0.68129 -3.85323 0
M  V30 1984 H 174.897 2.28749 -3.25207 0
M  V30 1985 N 175.894 1.51508 0.433938 0
M  V30 1986 C 176.844 1.69451 1.52546 0
M  V30 1987 C 177.828 0.548474 1.51263 0
M  V30 1988 O 179.02 0.804529 1.57659 0
M  V30 1989 C 176.149 1.82604 2.90707 0
M  V30 1990 C 175.235 3.03002 2.96733 0
M  V30 1991 N 175.626 4.26121 2.72496 0
M  V30 1992 C 173.924 3.02327 3.27894 0
M  V30 1993 C 174.625 5.07407 2.84452 0
M  V30 1994 N 173.601 4.42126 3.16269 0
M  V30 1995 H 177.403 2.62305 1.32564 0
M  V30 1996 H 174.917 1.49202 0.641297 0
M  V30 1997 H 176.914 1.93569 3.69238 0
M  V30 1998 H 175.574 0.909339 3.11707 0
M  V30 1999 H 176.585 4.55009 2.4736 0
M  V30 2000 H 173.262 2.20301 3.54646 0
M  V30 2001 H 174.652 6.15422 2.69639 0
M  V30 2002 N 177.372 -0.689602 1.41712 0
M  V30 2003 C 178.618 -1.45181 1.41599 0
M  V30 2004 C 178.951 -1.94181 0.0270081 0
M  V30 2005 O 178.226 -1.6993 -0.946265 0
M  V30 2006 C 178.509 -2.65945 2.42787 0
M  V30 2007 C 178.362 -2.22672 3.90816 0
M  V30 2008 C 179.681 -3.68149 2.41151 0
M  V30 2009 H 176.8 -0.526576 0.515642 0
M  V30 2010 H 179.442 -0.784947 1.73028 0
M  V30 2011 H 177.592 -3.2284 2.16116 0
M  V30 2012 H 179.264 -1.71058 4.28412 0
M  V30 2013 H 177.507 -1.54394 4.05395 0
M  V30 2014 H 178.178 -3.0935 4.57172 0
M  V30 2015 H 180.654 -3.2094 2.64834 0
M  V30 2016 H 179.53 -4.50248 3.13955 0
M  V30 2017 H 179.791 -4.18259 1.43221 0
M  V30 2018 N 178.85 -1.27639 -0.924453 0
M  V30 2019 C 180.098 -1.13941 -1.66918 0
M  V30 2020 C 180.419 0.314589 -1.92446 0
M  V30 2021 O 179.689 1.21964 -1.53303 0
M  V30 2022 H 178.269 -0.418678 -0.618642 0
M  V30 2023 H 180.931 -1.60213 -1.10985 0
M  V30 2024 H 180.027 -1.67094 -2.63602 0
M  V30 2025 N 180.328 1.1314 -1.09713 0
M  V30 2026 C 181.605 1.80762 -0.747302 0
M  V30 2027 C 181.985 1.96663 0.767265 0
M  V30 2028 O 181.333 1.53706 1.69076 0
M  V30 2029 C 181.543 3.15606 -1.48975 0
M  V30 2030 C 182.891 3.90914 -1.65746 0
M  V30 2031 O 183.915 3.25239 -1.45251 0
M  V30 2032 O 182.774 5.08718 -1.9967 0
M  V30 2033 H 179.868 0.782103 -0.268782 0
M  V30 2034 H 182.414 1.20041 -1.19951 0
M  V30 2035 H 181.186 2.99278 -2.52088 0
M  V30 2036 H 180.809 3.84029 -1.02991 0
M  V30 2037 N 181.806 0.884767 1.30421 0
M  V30 2038 C 182.738 0.308655 2.27112 0
M  V30 2039 C 183.751 -0.536655 1.53701 0
M  V30 2040 O 184.94 -0.35624 1.74909 0
M  V30 2041 C 182.04 -0.579782 3.33904 0
M  V30 2042 C 181.213 0.236417 4.36761 0
M  V30 2043 C 180.272 -0.582482 5.22966 0
M  V30 2044 O 179.298 -0.00525502 5.692 0
M  V30 2045 N 180.5 -1.89163 5.48815 0
M  V30 2046 H 183.265 1.13964 2.77186 0
M  V30 2047 H 180.826 0.747731 1.43599 0
M  V30 2048 H 182.818 -1.13366 3.88497 0
M  V30 2049 H 181.388 -1.31144 2.83761 0
M  V30 2050 H 180.608 0.97174 3.82035 0
M  V30 2051 H 181.896 0.795924 5.02536 0
M  V30 2052 H 181.294 -2.38352 5.13035 0
M  V30 2053 H 179.851 -2.39296 6.06284 0
M  V30 2054 N 183.284 -1.43765 0.645699 0
M  V30 2055 C 184.194 -2.34544 -0.0512957 0
M  V30 2056 C 185.21 -1.53455 -0.82022 0
M  V30 2057 O 186.386 -1.86133 -0.769176 0
M  V30 2058 C 183.451 -3.31636 -1.01087 0
M  V30 2059 C 182.512 -4.2863 -0.239712 0
M  V30 2060 C 181.745 -5.21084 -1.15358 0
M  V30 2061 O 181.968 -5.1779 -2.39269 0
M  V30 2062 O 180.902 -5.98593 -0.630038 0
M  V30 2063 H 184.728 -2.95624 0.695718 0
M  V30 2064 H 182.313 -1.43781 0.405882 0
M  V30 2065 H 184.195 -3.9136 -1.56254 0
M  V30 2066 H 182.87 -2.73069 -1.73824 0
M  V30 2067 H 181.777 -3.72408 0.355356 0
M  V30 2068 H 183.11 -4.90157 0.447936 0
M  V30 2069 N 184.763 -0.387143 -1.52771 0
M  V30 2070 C 186.009 0.188506 -2.02525 0
M  V30 2071 C 186.364 1.44649 -1.26864 0
M  V30 2072 O 185.657 1.88189 -0.359945 0
M  V30 2073 C 185.851 0.512209 -3.53711 0
M  V30 2074 C 185.68 -0.712855 -4.44014 0
M  V30 2075 C 184.45 -1.23147 -4.90064 0
M  V30 2076 C 186.648 -1.58453 -4.89282 0
M  V30 2077 N 184.63 -2.41431 -5.64433 0
M  V30 2078 C 186.001 -2.61381 -5.6221 0
M  V30 2079 C 188.056 -1.60488 -4.71326 0
M  V30 2080 C 186.759 -3.66227 -6.19088 0
M  V30 2081 C 188.785 -2.6424 -5.29085 0
M  V30 2082 C 188.147 -3.6589 -6.01917 0
M  V30 2083 H 184.246 0.0311236 -0.78138 0
M  V30 2084 H 186.83 -0.536548 -1.87161 0
M  V30 2085 H 185.001 1.20632 -3.69192 0
M  V30 2086 H 186.733 1.07482 -3.90166 0
M  V30 2087 H 183.488 -0.792795 -4.66917 0
M  V30 2088 H 183.912 -3.01274 -6.0627 0
M  V30 2089 H 188.554 -0.83247 -4.14524 0
M  V30 2090 H 186.272 -4.44337 -6.74974 0
M  V30 2091 H 189.858 -2.66695 -5.17074 0
M  V30 2092 H 188.738 -4.44855 -6.45813 0
M  V30 2093 N 186.241 1.57166 -0.116904 0
M  V30 2094 C 187.49 1.94298 0.541407 0
M  V30 2095 C 187.803 1.00236 1.67964 0
M  V30 2096 O 189.009 1.26826 2.40057 0
M  V30 2097 C 187.465 3.45306 1.01449 0
M  V30 2098 C 187.073 4.47899 -0.0951738 0
M  V30 2099 C 188.817 3.91361 1.6443 0
M  V30 2100 C 186.724 5.90083 0.394491 0
M  V30 2101 H 185.654 0.725308 0.206019 0
M  V30 2102 H 188.305 1.82446 -0.196419 0
M  V30 2103 H 186.687 3.52385 1.80667 0
M  V30 2104 H 187.861 4.52486 -0.871374 0
M  V30 2105 H 186.176 4.11583 -0.631505 0
M  V30 2106 H 188.773 4.95004 2.02176 0
M  V30 2107 H 189.116 3.3122 2.52189 0
M  V30 2108 H 189.649 3.87073 0.917559 0
M  V30 2109 H 186.388 6.53974 -0.447004 0
M  V30 2110 H 185.908 5.88921 1.13722 0
M  V30 2111 H 187.587 6.41307 0.856399 0
M  V30 2112 N 187.719 -0.156864 1.56817 0
M  V30 2113 C 189.13 -0.717916 1.72345 0
M  V30 2114 C 189.481 -1.82124 0.729747 0
M  V30 2115 O 188.606 -2.16141 -0.105781 0
M  V30 2116 C 189.201 -1.30904 3.12489 0
M  V30 2117 C 187.76 -1.81676 3.29653 0
M  V30 2118 C 186.907 -0.701349 2.68284 0
M  V30 2119 H 189.858 0.0686989 1.58551 0
M  V30 2120 H 189.879 -2.17882 3.11942 0
M  V30 2121 H 189.391 -0.505796 3.8479 0
M  V30 2122 H 187.492 -2.64598 2.62333 0
M  V30 2123 H 187.605 -1.95226 4.3752 0
M  V30 2124 H 185.969 -1.12548 2.28484 0
M  V30 2125 H 186.752 0.0902846 3.43181 0
M  V30 2126 N 189.197 -1.51736 -0.425897 0
M  V30 2127 C 190.437 -1.66636 -1.18371 0
M  V30 2128 C 190.801 -0.379854 -1.88205 0
M  V30 2129 O 192.002 -0.404758 -2.65735 0
M  V30 2130 C 190.273 -2.84382 -2.16476 0
M  V30 2131 S 191.832 -3.19673 -3.0059 0
M  V30 2132 H 188.65 -0.586957 -0.40125 0
M  V30 2133 H 191.252 -1.89679 -0.473518 0
M  V30 2134 H 189.956 -3.76281 -1.63831 0
M  V30 2135 H 189.487 -2.63562 -2.92059 0
M  V30 2136 H 191.502 -2.66994 -4.18245 0
M  V30 2137 N 190.675 0.682077 -1.42076 0
M  V30 2138 C 191.921 1.44428 -1.42367 0
M  V30 2139 C 192.254 1.94164 -0.0373056 0
M  V30 2140 O 191.529 1.70429 0.937239 0
M  V30 2141 C 191.812 2.64654 -2.44194 0
M  V30 2142 C 191.665 2.20596 -3.91991 0
M  V30 2143 C 192.984 3.66865 -2.431 0
M  V30 2144 H 190.103 0.523834 -0.518428 0
M  V30 2145 H 192.745 0.77576 -1.73442 0
M  V30 2146 H 190.895 3.2169 -2.17826 0
M  V30 2147 H 192.567 1.68783 -4.29313 0
M  V30 2148 H 190.81 1.52242 -4.06208 0
M  V30 2149 H 191.481 3.06921 -4.58807 0
M  V30 2150 H 193.957 3.19531 -2.66532 0
M  V30 2151 H 192.833 4.48577 -3.16339 0
M  V30 2152 H 193.094 4.17493 -1.45437 0
M  V30 2153 N 192.153 1.28127 0.917671 0
M  V30 2154 C 193.063 1.13556 2.05286 0
M  V30 2155 C 194.079 0.0630914 1.73886 0
M  V30 2156 O 195.255 0.271598 1.9956 0
M  V30 2157 C 192.32 0.794676 3.3747 0
M  V30 2158 C 191.381 1.94909 3.82504 0
M  V30 2159 C 190.614 1.62437 5.0838 0
M  V30 2160 O 190.837 0.536905 5.67867 0
M  V30 2161 O 189.771 2.46677 5.4903 0
M  V30 2162 H 193.597 2.08844 2.20495 0
M  V30 2163 H 191.182 1.07409 1.03845 0
M  V30 2164 H 193.064 0.618344 4.16839 0
M  V30 2165 H 191.739 -0.128581 3.23445 0
M  V30 2166 H 190.646 2.18055 3.03978 0
M  V30 2167 H 191.979 2.85291 4.01086 0
M  V30 2168 N 193.631 -1.12557 1.10312 0
M  V30 2169 C 194.579 -2.20325 0.745629 0
M  V30 2170 C 195.573 -1.67429 -0.25763 0
M  V30 2171 O 196.779 -1.79612 -0.118132 0
M  V30 2172 H 193.154 -0.718118 0.223182 0
M  V30 2173 H 195.125 -2.47733 1.66346 0
M  V30 2174 C 193.874 -3.47168 0.192262 0
M  V30 2175 H 193.197 -3.88215 0.955475 0
M  V30 2176 H 194.637 -4.23995 -0.0198274 0
M  V30 2177 C 193.096 -3.19298 -1.07472 0
M  V30 2178 O 193.626 -3.3891 -2.15645 0
M  V30 2179 N 191.832 -2.73113 -0.992847 0
M  V30 2180 H 191.379 -2.57354 -0.112474 0
M  V30 2181 H 191.337 -2.54842 -1.84127 0
M  V30 2182 N 195.109 -0.891671 -1.2995 0
M  V30 2183 C 196.039 -0.379797 -2.30391 0
M  V30 2184 C 197.02 0.540919 -1.6127 0
M  V30 2185 O 198.205 0.453352 -1.88834 0
M  V30 2186 C 195.335 0.400654 -3.44981 0
M  V30 2187 C 194.289 -0.428905 -4.25846 0
M  V30 2188 C 193.615 0.478557 -5.32554 0
M  V30 2189 C 194.915 -1.67458 -4.94727 0
M  V30 2190 H 196.609 -1.21914 -2.73454 0
M  V30 2191 H 194.155 -0.587675 -1.31462 0
M  V30 2192 H 196.108 0.769434 -4.14316 0
M  V30 2193 H 194.832 1.27371 -3.0074 0
M  V30 2194 H 193.491 -0.779911 -3.58208 0
M  V30 2195 H 193.139 1.34951 -4.84559 0
M  V30 2196 H 192.839 -0.0727433 -5.87555 0
M  V30 2197 H 194.363 0.843705 -6.04743 0
M  V30 2198 H 195.777 -1.376 -5.56542 0
M  V30 2199 H 194.174 -2.16659 -5.59624 0
M  V30 2200 H 195.244 -2.41518 -4.20473 0
M  V30 2201 N 196.587 1.43421 -0.653314 0
M  V30 2202 C 197.812 2.06678 -0.172846 0
M  V30 2203 C 198.237 1.48648 1.15262 0
M  V30 2204 O 197.595 0.596457 1.71208 0
M  V30 2205 C 197.643 3.60474 -0.0953184 0
M  V30 2206 O 196.747 4.01487 0.942442 0
M  V30 2207 H 196.088 0.657181 -0.0949155 0
M  V30 2208 H 198.618 1.83925 -0.896265 0
M  V30 2209 H 198.628 4.07905 0.0879728 0
M  V30 2210 H 197.303 4.02088 -1.06291 0
M  V30 2211 H 195.88 3.65646 0.731932 0
M  V30 2212 N 198.065 0.39524 1.52563 0
M  V30 2213 C 199.313 -0.184678 2.01254 0
M  V30 2214 C 199.634 -1.46822 1.28329 0
M  V30 2215 O 198.904 -1.91666 0.405094 0
M  V30 2216 H 197.484 -0.0712355 0.743596 0
M  V30 2217 H 200.146 0.528293 1.87603 0
M  V30 2218 H 199.242 -0.390681 3.09645 0
M  V30 2219 N 199.544 -1.57102 0.125237 0
M  V30 2220 C 200.791 -1.95407 -0.531248 0
M  V30 2221 C 201.119 -1.0089 -1.66287 0
M  V30 2222 O 200.374 -0.0339431 -1.95671 0
M  V30 2223 C 200.673 -3.40096 -1.09862 0
M  V30 2224 C 200.339 -4.50815 -0.0876989 0
M  V30 2225 C 199.001 -4.80824 0.19026 0
M  V30 2226 C 201.353 -5.17724 0.600902 0
M  V30 2227 C 198.681 -5.75058 1.163 0
M  V30 2228 C 201.033 -6.13005 1.56231 0
M  V30 2229 C 199.697 -6.41403 1.8482 0
M  V30 2230 H 198.967 -0.715046 -0.194397 0
M  V30 2231 H 201.614 -1.90373 0.207463 0
M  V30 2232 H 199.919 -3.41855 -1.91422 0
M  V30 2233 H 201.616 -3.6705 -1.61478 0
M  V30 2234 H 198.206 -4.27444 -0.314528 0
M  V30 2235 H 202.39 -4.94691 0.399333 0
M  V30 2236 H 197.646 -5.95362 1.39117 0
M  V30 2237 H 201.82 -6.63934 2.10153 0
M  V30 2238 H 199.447 -7.14229 2.60349 0
M  V30 2239 N 201.022 0.148545 -1.56898 0
M  V30 2240 C 202.268 0.862694 -1.83536 0
M  V30 2241 C 202.601 1.80889 -0.706604 0
M  V30 2242 O 201.876 1.92328 0.289885 0
M  V30 2243 C 202.159 1.63853 -3.20662 0
M  V30 2244 C 202.012 0.713925 -4.44098 0
M  V30 2245 C 203.331 2.60133 -3.54991 0
M  V30 2246 H 200.45 0.312179 -0.667618 0
M  V30 2247 H 203.092 0.127953 -1.89569 0
M  V30 2248 H 201.242 2.26489 -3.1565 0
M  V30 2249 H 202.914 0.098686 -4.61194 0
M  V30 2250 H 201.157 0.0234019 -4.33794 0
M  V30 2251 H 201.828 1.29278 -5.36648 0
M  V30 2252 H 204.304 2.07616 -3.60603 0
M  V30 2253 H 203.18 3.11468 -4.51972 0
M  V30 2254 H 203.441 3.41417 -2.80868 0
M  V30 2255 N 202.5 1.5196 0.417844 0
M  V30 2256 C 203.725 1.69717 1.1921 0
M  V30 2257 C 204.15 0.402148 1.83751 0
M  V30 2258 O 203.508 -0.639593 1.69643 0
M  V30 2259 C 203.556 2.82794 2.2374 0
M  V30 2260 O 202.66 2.47756 3.29683 0
M  V30 2261 H 202.001 0.565263 0.348387 0
M  V30 2262 H 204.531 1.98621 0.490985 0
M  V30 2263 H 204.541 3.07452 2.68212 0
M  V30 2264 H 203.216 3.76756 1.76146 0
M  V30 2265 H 201.793 2.33739 2.90552 0
M  V30 2266 N 203.978 -0.674533 1.42435 0
M  V30 2267 C 204.941 -1.76986 1.45632 0
M  V30 2268 C 205.941 -1.5708 0.343871 0
M  V30 2269 O 207.131 -1.63367 0.604709 0
M  V30 2270 C 204.263 -3.15623 1.28822 0
M  V30 2271 H 205.456 -1.75539 2.43158 0
M  V30 2272 H 203.009 -0.884189 1.28887 0
M  V30 2273 H 203.744 -3.22696 0.322193 0
M  V30 2274 H 203.529 -3.31475 2.09444 0
M  V30 2275 H 205.019 -3.95537 1.33942 0
M  V30 2276 N 205.456 -1.28612 -0.910864 0
M  V30 2277 C 206.703 -1.15934 -1.66029 0
M  V30 2278 C 207.031 0.291483 -1.92303 0
M  V30 2279 O 206.286 1.22816 -1.52364 0
M  V30 2280 C 206.585 -1.90624 -3.0232 0
M  V30 2281 C 206.251 -3.40405 -2.95695 0
M  V30 2282 C 204.913 -3.81255 -2.93595 0
M  V30 2283 C 207.265 -4.359 -2.85728 0
M  V30 2284 C 204.593 -5.15936 -2.79334 0
M  V30 2285 C 206.945 -5.70657 -2.73007 0
M  V30 2286 C 205.609 -6.10779 -2.69267 0
M  V30 2287 H 204.879 -0.424234 -0.607541 0
M  V30 2288 H 207.526 -1.5942 -1.06101 0
M  V30 2289 H 205.831 -1.39696 -3.6605 0
M  V30 2290 H 207.528 -1.78228 -3.59215 0
M  V30 2291 H 204.118 -3.07927 -2.98125 0
M  V30 2292 H 208.302 -4.053 -2.86436 0
M  V30 2293 H 203.558 -5.46146 -2.74835 0
M  V30 2294 H 207.732 -6.44311 -2.64264 0
M  V30 2295 H 205.359 -7.1509 -2.57974 0
M  V30 2296 N 206.934 1.1197 -1.10907 0
M  V30 2297 C 207.864 2.19928 -0.784473 0
M  V30 2298 C 208.845 1.6833 0.244726 0
M  V30 2299 O 210.03 1.93892 0.109418 0
M  V30 2300 C 207.16 3.46597 -0.220827 0
M  V30 2301 C 206.114 4.11376 -1.18127 0
M  V30 2302 C 205.44 5.32554 -0.478594 0
M  V30 2303 C 206.74 4.56945 -2.52979 0
M  V30 2304 H 208.434 2.47337 -1.68715 0
M  V30 2305 H 205.98 1.18879 -0.812642 0
M  V30 2306 H 207.933 4.21396 0.0184278 0
M  V30 2307 H 206.657 3.1863 0.717113 0
M  V30 2308 H 205.316 3.38564 -1.40606 0
M  V30 2309 H 204.964 5.00856 0.463976 0
M  V30 2310 H 204.664 5.76844 -1.11912 0
M  V30 2311 H 206.188 6.10096 -0.248 0
M  V30 2312 H 207.602 5.23093 -2.3462 0
M  V30 2313 H 205.999 5.1203 -3.12962 0
M  V30 2314 H 207.069 3.70676 -3.12614 0
M  V30 2315 N 208.412 0.89855 1.29475 0
M  V30 2316 C 209.659 0.523882 1.95606 0
M  V30 2317 C 209.987 -0.929608 1.70847 0
M  V30 2318 O 209.242 -1.67401 1.01367 0
M  V30 2319 C 209.541 0.761398 3.49195 0
M  V30 2320 C 209.207 2.19207 3.94029 0
M  V30 2321 C 207.869 2.58326 4.05982 0
M  V30 2322 C 210.221 3.12379 4.17216 0
M  V30 2323 C 207.549 3.898 4.38489 0
M  V30 2324 C 209.901 4.43401 4.51197 0
M  V30 2325 C 208.565 4.82394 4.61359 0
M  V30 2326 H 207.835 0.191702 0.715773 0
M  V30 2327 H 210.482 1.13699 1.54094 0
M  V30 2328 H 208.787 0.0653622 3.91745 0
M  V30 2329 H 210.484 0.450904 3.98457 0
M  V30 2330 H 207.074 1.87846 3.85242 0
M  V30 2331 H 211.258 2.83371 4.07449 0
M  V30 2332 H 206.514 4.19734 4.44559 0
M  V30 2333 H 210.688 5.15623 4.68087 0
M  V30 2334 H 208.315 5.84306 4.86303 0
M  V30 2335 N 209.89 -1.43072 0.660911 0
M  V30 2336 C 211.115 -2.06584 0.183805 0
M  V30 2337 C 211.54 -1.49257 -1.14472 0
M  V30 2338 O 210.898 -0.605528 -1.70889 0
M  V30 2339 C 210.946 -3.60418 0.114434 0
M  V30 2340 O 210.05 -4.01981 -0.921137 0
M  V30 2341 H 209.391 -0.656669 0.0983994 0
M  V30 2342 H 211.921 -1.83447 0.906006 0
M  V30 2343 H 211.931 -4.07946 -0.0663394 0
M  V30 2344 H 210.606 -4.01519 1.08422 0
M  V30 2345 H 209.183 -3.66029 -0.71253 0
M  V30 2346 N 211.368 -0.403325 -1.52352 0
M  V30 2347 C 212.617 0.175668 -2.00934 0
M  V30 2348 C 212.93 1.46718 -1.29356 0
M  V30 2349 O 214.136 2.12708 -1.68724 0
M  V30 2350 C 212.592 0.363612 -3.58058 0
M  V30 2351 C 212.2 -0.915472 -4.38547 0
M  V30 2352 C 213.944 0.89821 -4.14888 0
M  V30 2353 C 211.851 -0.695035 -5.87302 0
M  V30 2354 H 210.781 0.0694234 -0.750797 0
M  V30 2355 H 213.432 -0.527879 -1.75743 0
M  V30 2356 H 211.814 1.12935 -3.79555 0
M  V30 2357 H 212.988 -1.68691 -4.28812 0
M  V30 2358 H 211.303 -1.37606 -3.93006 0
M  V30 2359 H 213.9 1.07907 -5.23699 0
M  V30 2360 H 214.243 1.87126 -3.71873 0
M  V30 2361 H 214.776 0.191681 -3.97338 0
M  V30 2362 H 211.515 -1.63948 -6.34666 0
M  V30 2363 H 211.035 0.0372116 -5.99788 0
M  V30 2364 H 212.714 -0.33497 -6.46132 0
M  V30 2365 N 212.846 1.57033 -0.133567 0
M  V30 2366 C 213.756 2.19632 0.824564 0
M  V30 2367 C 214.772 1.17666 1.28182 0
M  V30 2368 O 215.948 1.50193 1.3418 0
M  V30 2369 C 213.013 2.79499 2.05137 0
M  V30 2370 C 212.074 3.96548 1.64464 0
M  V30 2371 C 211.307 4.5355 2.81297 0
M  V30 2372 O 211.53 4.09438 3.97136 0
M  V30 2373 O 210.464 5.44018 2.57542 0
M  V30 2374 H 214.29 3.01991 0.321766 0
M  V30 2375 H 211.875 1.49112 0.0927889 0
M  V30 2376 H 213.757 3.17602 2.7696 0
M  V30 2377 H 212.432 2.00162 2.54395 0
M  V30 2378 H 211.339 3.63186 0.897048 0
M  V30 2379 H 212.672 4.77364 1.19934 0
M  V30 2380 N 214.325 -0.140222 1.56975 0
M  V30 2381 C 215.553 -0.866437 1.87884 0
M  V30 2382 C 215.968 -1.74428 0.722517 0
M  V30 2383 O 215.325 -1.79891 -0.30749 0
M  V30 2384 C 215.376 -1.71753 3.18093 0
M  V30 2385 O 215.097 -0.875056 4.29272 0
M  V30 2386 C 216.598 -2.55074 3.62563 0
M  V30 2387 H 213.818 -0.25019 0.622612 0
M  V30 2388 H 216.362 -0.130977 2.0408 0
M  V30 2389 H 214.517 -2.40598 3.03631 0
M  V30 2390 H 214.931 -1.46002 5.03769 0
M  V30 2391 H 216.405 -3.10356 4.5649 0
M  V30 2392 H 216.882 -3.31434 2.88181 0
M  V30 2393 H 217.488 -1.91509 3.79743 0
M  V30 2394 N 215.803 -1.52179 -0.40978 0
M  V30 2395 C 216.713 -1.78364 -1.52392 0
M  V30 2396 C 217.729 -0.669183 -1.60617 0
M  V30 2397 O 218.905 -0.954518 -1.77344 0
M  V30 2398 C 215.97 -1.92822 -2.88133 0
M  V30 2399 C 215.031 -3.16725 -2.898 0
M  V30 2400 C 214.264 -3.30483 -4.19067 0
M  V30 2401 O 214.487 -2.49522 -5.12928 0
M  V30 2402 O 213.421 -4.2363 -4.27576 0
M  V30 2403 H 217.247 -2.72931 -1.33201 0
M  V30 2404 H 214.832 -1.37016 -0.59557 0
M  V30 2405 H 216.714 -2.04157 -3.68643 0
M  V30 2406 H 215.389 -1.01444 -3.07393 0
M  V30 2407 H 214.296 -3.10848 -2.08146 0
M  V30 2408 H 215.629 -4.07881 -2.75489 0
M  V30 2409 N 217.281 0.66697 -1.42791 0
M  V30 2410 C 218.509 1.45505 -1.47091 0
M  V30 2411 C 218.924 1.8861 -0.0845873 0
M  V30 2412 O 218.281 1.58632 0.90234 0
M  V30 2413 C 218.332 2.69906 -2.40485 0
M  V30 2414 O 218.053 2.28608 -3.73725 0
M  V30 2415 C 219.554 3.63396 -2.53886 0
M  V30 2416 H 216.774 0.447459 -0.500022 0
M  V30 2417 H 219.318 0.818866 -1.8739 0
M  V30 2418 H 217.473 3.29696 -2.03419 0
M  V30 2419 H 217.887 3.08997 -4.23817 0
M  V30 2420 H 219.361 4.47387 -3.2334 0
M  V30 2421 H 219.838 4.09824 -1.57927 0
M  V30 2422 H 220.444 3.09495 -2.91706 0
M  V30 2423 N 218.759 1.29093 0.90403 0
M  V30 2424 C 219.987 1.19689 1.68766 0
M  V30 2425 C 220.402 -0.243113 1.87228 0
M  V30 2426 O 219.759 -1.16326 1.40621 0
M  V30 2427 C 219.81 1.90144 3.07453 0
M  V30 2428 O 219.531 3.2852 2.89838 0
M  V30 2429 C 221.032 1.87162 4.01852 0
M  V30 2430 H 218.252 0.415035 0.527244 0
M  V30 2431 H 220.796 1.7039 1.13082 0
M  V30 2432 H 218.951 1.43289 3.59926 0
M  V30 2433 H 219.365 3.63944 3.77684 0
M  V30 2434 H 220.839 2.41032 4.96596 0
M  V30 2435 H 221.316 0.84617 4.30972 0
M  V30 2436 H 221.922 2.33741 3.5531 0
M  V30 2437 N 220.237 -1.11381 1.11499 0
M  V30 2438 C 221.486 -1.82494 0.858993 0
M  V30 2439 C 221.799 -1.85605 -0.617278 0
M  V30 2440 O 223.005 -2.52824 -0.989552 0
M  V30 2441 C 221.461 -3.27745 1.48699 0
M  V30 2442 C 221.069 -3.32961 2.99735 0
M  V30 2443 C 222.813 -4.03754 1.31085 0
M  V30 2444 C 220.72 -4.72612 3.55516 0
M  V30 2445 H 219.65 -0.683802 0.317696 0
M  V30 2446 H 222.301 -1.25331 1.34031 0
M  V30 2447 H 220.683 -3.84844 0.933339 0
M  V30 2448 H 221.857 -2.85741 3.61509 0
M  V30 2449 H 220.172 -2.70433 3.16631 0
M  V30 2450 H 222.769 -5.06891 1.70192 0
M  V30 2451 H 223.112 -4.15527 0.253496 0
M  V30 2452 H 223.645 -3.53043 1.83318 0
M  V30 2453 H 220.384 -4.66036 4.60967 0
M  V30 2454 H 219.904 -5.2024 2.98513 0
M  V30 2455 H 221.583 -5.4157 3.53992 0
M  V30 2456 N 221.715 -0.905404 -1.28997 0
M  V30 2457 C 222.963 -0.533192 -1.9494 0
M  V30 2458 C 223.284 0.924618 -1.71685 0
M  V30 2459 O 222.554 1.65268 -1.05183 0
M  V30 2460 H 221.134 -0.194194 -0.721317 0
M  V30 2461 H 223.796 -1.15294 -1.57141 0
M  V30 2462 H 222.892 -0.72059 -3.03667 0
M  V30 2463 N 223.193 1.4272 -0.668489 0
M  V30 2464 C 224.423 2.05668 -0.196063 0
M  V30 2465 C 224.831 1.5028 1.14946 0
M  V30 2466 O 224.174 0.6348 1.72383 0
M  V30 2467 C 224.236 3.59469 -0.0468879 0
M  V30 2468 C 223.9 4.37518 -1.32012 0
M  V30 2469 C 224.897 4.68584 -2.25222 0
M  V30 2470 C 222.582 4.77266 -1.56596 0
M  V30 2471 C 224.576 5.38326 -3.41297 0
M  V30 2472 C 222.263 5.4675 -2.72962 0
M  V30 2473 C 223.261 5.77204 -3.65137 0
M  V30 2474 O 222.949 6.45264 -4.79468 0
M  V30 2475 H 222.681 0.669382 -0.0943599 0
M  V30 2476 H 225.235 1.83954 -0.913788 0
M  V30 2477 H 223.465 3.79817 0.726357 0
M  V30 2478 H 225.154 4.04071 0.384852 0
M  V30 2479 H 225.92 4.38382 -2.07477 0
M  V30 2480 H 221.799 4.52959 -0.857249 0
M  V30 2481 H 225.343 5.62014 -4.13263 0
M  V30 2482 H 221.24 5.76369 -2.90635 0
M  V30 2483 H 222.008 6.63753 -4.78931 0
M  V30 2484 N 224.671 0.411399 1.52136 0
M  V30 2485 C 225.919 -0.163322 2.01439 0
M  V30 2486 C 226.24 -1.45453 1.29879 0
M  V30 2487 O 225.51 -1.91225 0.4254 0
M  V30 2488 H 224.09 -0.0633447 0.744309 0
M  V30 2489 H 226.752 0.548161 1.87033 0
M  V30 2490 H 225.848 -0.357817 3.10042 0
M  V30 2491 N 226.149 -1.5696 0.141893 0
M  V30 2492 C 227.396 -1.9596 -0.510492 0
M  V30 2493 C 227.724 -1.02648 -1.65208 0
M  V30 2494 O 226.979 -0.0546947 -1.95624 0
M  V30 2495 C 227.278 -3.41242 -1.06249 0
M  V30 2496 C 226.944 -4.50882 -0.0398791 0
M  V30 2497 C 225.606 -4.80595 0.241247 0
M  V30 2498 C 227.958 -5.17058 0.65578 0
M  V30 2499 C 225.286 -5.73792 1.22393 0
M  V30 2500 C 227.638 -6.11313 1.62724 0
M  V30 2501 C 226.302 -6.39407 1.91612 0
M  V30 2502 H 225.572 -0.717068 -0.186802 0
M  V30 2503 H 228.219 -1.90142 0.227643 0
M  V30 2504 H 226.524 -3.43866 -1.87785 0
M  V30 2505 H 228.221 -3.68742 -1.57576 0
M  V30 2506 H 224.811 -4.27754 -0.269174 0
M  V30 2507 H 228.995 -4.94239 0.451779 0
M  V30 2508 H 224.251 -5.93853 1.45424 0
M  V30 2509 H 228.425 -6.61668 2.17183 0
M  V30 2510 H 226.052 -7.11427 2.6791 0
M  V30 2511 N 227.627 0.131896 -1.57047 0
M  V30 2512 C 229.043 0.485031 -1.52051 0
M  V30 2513 C 229.243 1.82563 -0.85281 0
M  V30 2514 O 228.299 2.48817 -0.429694 0
M  V30 2515 C 229.612 0.481409 -2.96821 0
M  V30 2516 C 231.16 0.565868 -3.07842 0
M  V30 2517 C 231.635 0.592762 -4.54148 0
M  V30 2518 N 233.126 0.654564 -4.58552 0
M  V30 2519 C 233.861 0.696608 -5.69153 0
M  V30 2520 N 233.357 0.697078 -6.89284 0
M  V30 2521 N 235.15 0.738639 -5.57226 0
M  V30 2522 H 227.301 -0.746664 -1.98843 0
M  V30 2523 H 229.564 -0.273999 -0.90754 0
M  V30 2524 H 229.27 -0.435731 -3.4899 0
M  V30 2525 H 229.144 1.3139 -3.53577 0
M  V30 2526 H 231.531 1.47343 -2.55684 0
M  V30 2527 H 231.612 -0.29406 -2.54104 0
M  V30 2528 H 231.256 -0.310701 -5.06949 0
M  V30 2529 H 231.186 1.46939 -5.05684 0
M  V30 2530 H 233.677 0.660887 -3.72076 0
M  V30 2531 H 233.99 0.731426 -7.69331 0
M  V30 2532 H 232.335 0.66471 -6.91814 0
M  V30 2533 H 235.526 0.735545 -4.62285 0
M  V30 2534 H 235.699 0.767938 -6.43434 0
M  V30 2535 N 229.106 1.52395 0.401703 0
M  V30 2536 C 230.352 1.67065 1.14966 0
M  V30 2537 C 230.685 0.403052 1.89971 0
M  V30 2538 O 229.96 -0.598774 1.85054 0
M  V30 2539 C 230.243 2.8975 2.13815 0
M  V30 2540 C 230.096 4.26578 1.42658 0
M  V30 2541 C 231.415 3.07965 3.14397 0
M  V30 2542 H 228.534 0.607968 0.416587 0
M  V30 2543 H 231.176 1.84965 0.434511 0
M  V30 2544 H 229.326 2.74619 2.74803 0
M  V30 2545 H 230.998 4.53451 0.847329 0
M  V30 2546 H 229.241 4.27639 0.72849 0
M  V30 2547 H 229.912 5.08483 2.14823 0
M  V30 2548 H 232.388 3.22043 2.63491 0
M  V30 2549 H 231.264 3.95308 3.80819 0
M  V30 2550 H 231.525 2.21611 3.82545 0
M  V30 2551 N 230.584 -0.659388 1.43143 0
M  V30 2552 C 231.833 -1.41518 1.43721 0
M  V30 2553 C 232.146 -1.95499 0.0628176 0
M  V30 2554 O 233.352 -2.71446 -0.0539683 0
M  V30 2555 C 231.808 -2.5608 2.52885 0
M  V30 2556 C 231.416 -2.08733 3.96402 0
M  V30 2557 C 233.16 -3.3349 2.62649 0
M  V30 2558 C 231.067 -3.20469 4.97045 0
M  V30 2559 H 229.997 -0.531705 0.534608 0
M  V30 2560 H 232.648 -0.712343 1.69109 0
M  V30 2561 H 231.03 -3.28805 2.20688 0
M  V30 2562 H 232.204 -1.43059 4.3803 0
M  V30 2563 H 230.519 -1.44219 3.90627 0
M  V30 2564 H 233.116 -4.16734 3.35017 0
M  V30 2565 H 233.459 -3.8111 1.67513 0
M  V30 2566 H 233.992 -2.67842 2.94118 0
M  V30 2567 H 230.731 -2.77824 5.93712 0
M  V30 2568 H 230.251 -3.84874 4.60034 0
M  V30 2569 H 231.93 -3.85698 5.19467 0
M  V30 2570 N 232.062 -1.29571 -0.897171 0
M  V30 2571 C 233.29 -1.20583 -1.68129 0
M  V30 2572 C 233.705 0.233181 -1.87354 0
M  V30 2573 O 233.062 1.15579 -1.41236 0
M  V30 2574 C 233.113 -1.91772 -3.06441 0
M  V30 2575 O 232.834 -3.30053 -2.88091 0
M  V30 2576 C 234.335 -1.89291 -4.00854 0
M  V30 2577 H 231.555 -0.417826 -0.525036 0
M  V30 2578 H 234.099 -1.70987 -1.12177 0
M  V30 2579 H 232.254 -1.45196 -3.59161 0
M  V30 2580 H 232.668 -3.65942 -3.75748 0
M  V30 2581 H 234.142 -2.43662 -4.95311 0
M  V30 2582 H 234.619 -0.869014 -4.30517 0
M  V30 2583 H 235.225 -2.35622 -3.54066 0
M  V30 2584 N 233.54 1.10788 -1.12088 0
M  V30 2585 C 234.45 2.20599 -0.798338 0
M  V30 2586 C 235.466 1.72712 0.21135 0
M  V30 2587 O 236.642 2.01348 0.0458477 0
M  V30 2588 C 233.707 3.45771 -0.253674 0
M  V30 2589 C 232.768 4.08411 -1.32283 0
M  V30 2590 C 232.001 5.27608 -0.80406 0
M  V30 2591 O 232.224 5.69241 0.363478 0
M  V30 2592 O 231.158 5.8101 -1.57198 0
M  V30 2593 H 234.984 2.50614 -1.7154 0
M  V30 2594 H 232.569 1.19454 -0.897275 0
M  V30 2595 H 234.451 4.21376 0.0453691 0
M  V30 2596 H 233.126 3.1739 0.636005 0
M  V30 2597 H 232.033 3.34507 -1.67499 0
M  V30 2598 H 233.366 4.40986 -2.18614 0
M  V30 2599 N 235.018 0.912232 1.28515 0
M  V30 2600 C 235.965 0.397954 2.27343 0
M  V30 2601 C 236.935 -0.526766 1.57526 0
M  V30 2602 O 238.12 -0.449292 1.85435 0
M  V30 2603 C 235.26 -0.357263 3.43246 0
M  V30 2604 C 234.373 0.599788 4.27816 0
M  V30 2605 C 233.508 -0.173725 5.30916 0
M  V30 2606 C 232.547 0.777039 6.07148 0
M  V30 2607 N 231.684 0.0371398 7.0209 0
M  V30 2608 H 236.524 1.24577 2.70711 0
M  V30 2609 H 234.061 0.625612 1.33133 0
M  V30 2610 H 236.019 -0.8113 4.09236 0
M  V30 2611 H 234.649 -1.16943 3.00872 0
M  V30 2612 H 233.701 1.17235 3.61884 0
M  V30 2613 H 235.013 1.32704 4.80823 0
M  V30 2614 H 234.167 -0.688394 6.02782 0
M  V30 2615 H 232.906 -0.934041 4.78672 0
M  V30 2616 H 231.911 1.3031 5.34134 0
M  V30 2617 H 233.136 1.53689 6.61481 0
M  V30 2618 H 231.082 -0.705213 6.52198 0
M  V30 2619 H 230.999 0.704249 7.52713 0
M  V30 2620 H 232.267 -0.457383 7.78157 0
M  V30 2621 N 236.496 -1.42363 0.676048 0
M  V30 2622 C 237.736 -2.03392 0.20273 0
M  V30 2623 C 238.1 -1.52306 -1.16906 0
M  V30 2624 O 239.301 -2.05129 -1.73711 0
M  V30 2625 C 237.572 -3.56614 0.236947 0
M  V30 2626 S 239.131 -4.38489 -0.165186 0
M  V30 2627 H 235.949 -0.70611 0.0832418 0
M  V30 2628 H 238.551 -1.74093 0.88948 0
M  V30 2629 H 237.255 -3.91293 1.23767 0
M  V30 2630 H 236.786 -3.90587 -0.469596 0
M  V30 2631 H 238.801 -4.76093 -1.39822 0
M  V30 2632 N 237.974 -0.419461 -1.51915 0
M  V30 2633 C 239.385 0.0477853 -1.86639 0
M  V30 2634 C 239.736 1.43531 -1.33766 0
M  V30 2635 O 238.861 2.05401 -0.68113 0
M  V30 2636 C 239.456 0.0934885 -3.38671 0
M  V30 2637 C 238.015 0.505097 -3.72996 0
M  V30 2638 C 237.162 -0.313792 -2.75519 0
M  V30 2639 H 240.113 -0.636088 -1.45395 0
M  V30 2640 H 240.134 0.906667 -3.6954 0
M  V30 2641 H 239.646 -0.916501 -3.77123 0
M  V30 2642 H 237.747 1.52135 -3.40126 0
M  V30 2643 H 237.86 0.242309 -4.78487 0
M  V30 2644 H 236.224 0.225363 -2.53701 0
M  V30 2645 H 237.007 -1.32232 -3.16812 0
M  V30 2646 N 239.452 1.56882 -0.150215 0
M  V30 2647 C 240.362 2.20494 0.801222 0
M  V30 2648 C 241.378 1.19019 1.26927 0
M  V30 2649 O 242.554 1.51607 1.32579 0
M  V30 2650 C 239.619 2.81659 2.02161 0
M  V30 2651 C 238.68 3.9827 1.60249 0
M  V30 2652 C 237.913 4.56508 2.7647 0
M  V30 2653 O 238.136 4.13627 3.92771 0
M  V30 2654 O 237.07 5.46719 2.51757 0
M  V30 2655 H 240.896 3.02315 0.289717 0
M  V30 2656 H 238.481 1.49202 0.0769684 0
M  V30 2657 H 240.363 3.20522 2.73576 0
M  V30 2658 H 239.038 2.02849 2.52258 0
M  V30 2659 H 237.945 3.64117 0.858477 0
M  V30 2660 H 239.278 4.78609 1.14864 0
M  V30 2661 N 240.93 -0.123565 1.57115 0
M  V30 2662 C 242.178 -0.83051 1.84247 0
M  V30 2663 C 242.499 -1.80629 0.73471 0
M  V30 2664 O 241.769 -1.94403 -0.241688 0
M  V30 2665 H 240.349 -0.309694 0.679778 0
M  V30 2666 H 243.011 -0.111976 1.94578 0
M  V30 2667 H 242.107 -1.37852 2.80006 0
M  V30 2668 N 242.408 -1.52605 -0.393616 0
M  V30 2669 C 243.657 -1.66649 -1.13627 0
M  V30 2670 C 243.97 -0.410364 -1.91247 0
M  V30 2671 O 245.176 -0.430854 -2.68059 0
M  V30 2672 C 243.632 -2.9449 -2.06891 0
M  V30 2673 C 243.24 -4.27266 -1.34714 0
M  V30 2674 C 244.984 -3.17899 -2.81319 0
M  V30 2675 C 242.891 -5.46217 -2.26717 0
M  V30 2676 H 241.821 -0.62084 -0.427871 0
M  V30 2677 H 244.472 -1.791 -0.399428 0
M  V30 2678 H 242.854 -2.75774 -2.84191 0
M  V30 2679 H 244.028 -4.56518 -0.626714 0
M  V30 2680 H 242.343 -4.10081 -0.722643 0
M  V30 2681 H 244.94 -4.03949 -3.50328 0
M  V30 2682 H 245.283 -2.32777 -3.45139 0
M  V30 2683 H 245.816 -3.37159 -2.11113 0
M  V30 2684 H 242.555 -6.33733 -1.67521 0
M  V30 2685 H 242.075 -5.21283 -2.96689 0
M  V30 2686 H 243.754 -5.7991 -2.86903 0
M  V30 2687 N 243.887 0.651787 -1.4349 0
M  V30 2688 C 245.136 1.40754 -1.44469 0
M  V30 2689 C 245.449 1.95463 -0.0731845 0
M  V30 2690 O 246.655 2.71471 0.0395721 0
M  V30 2691 C 245.111 2.54735 -2.5424 0
M  V30 2692 C 244.719 2.06628 -3.97504 0
M  V30 2693 C 246.463 3.32092 -2.64414 0
M  V30 2694 C 244.37 3.17829 -4.98737 0
M  V30 2695 H 243.3 0.528862 -0.53742 0
M  V30 2696 H 245.951 0.703365 -1.69485 0
M  V30 2697 H 244.333 3.2763 -2.22428 0
M  V30 2698 H 245.507 1.40734 -4.38783 0
M  V30 2699 H 243.822 1.42146 -3.91387 0
M  V30 2700 H 246.419 4.14952 -3.37223 0
M  V30 2701 H 246.762 3.80217 -1.69532 0
M  V30 2702 H 247.295 2.66279 -2.95534 0
M  V30 2703 H 244.034 2.74671 -5.95177 0
M  V30 2704 H 243.554 3.82429 -4.62069 0
M  V30 2705 H 245.233 3.82937 -5.21505 0
M  V30 2706 N 245.365 1.30045 0.890287 0
M  V30 2707 C 246.295 1.18541 2.01172 0
M  V30 2708 C 247.276 0.0773356 1.69924 0
M  V30 2709 O 248.461 0.25845 1.92473 0
M  V30 2710 C 245.591 0.870941 3.36202 0
M  V30 2711 C 244.545 1.93637 3.81692 0
M  V30 2712 C 243.871 1.475 5.13953 0
M  V30 2713 C 245.171 3.34666 4.00994 0
M  V30 2714 H 246.865 2.12359 2.11054 0
M  V30 2715 H 244.411 1.02238 1.01407 0
M  V30 2716 H 246.364 0.777141 4.14172 0
M  V30 2717 H 245.088 -0.102926 3.26438 0
M  V30 2718 H 243.747 2.01972 3.05946 0
M  V30 2719 H 243.395 0.489551 5.00612 0
M  V30 2720 H 243.095 2.1876 5.4536 0
M  V30 2721 H 244.619 1.39489 5.94454 0
M  V30 2722 H 246.033 3.2912 4.69417 0
M  V30 2723 H 244.43 4.03966 4.43769 0
M  V30 2724 H 245.5 3.76949 3.05021 0
M  V30 2725 N 246.843 -1.10192 1.12674 0
M  V30 2726 C 247.773 -2.18652 0.819362 0
M  V30 2727 C 248.754 -1.68698 -0.217915 0
M  V30 2728 O 249.939 -1.94041 -0.0785581 0
M  V30 2729 C 247.069 -3.46202 0.27594 0
M  V30 2730 C 246.023 -4.09444 1.24656 0
M  V30 2731 C 245.349 -5.31725 0.563258 0
M  V30 2732 C 246.649 -4.52863 2.60217 0
M  V30 2733 H 248.343 -2.44622 1.72628 0
M  V30 2734 H 245.889 -1.17571 0.831451 0
M  V30 2735 H 247.842 -4.21372 0.0486149 0
M  V30 2736 H 246.566 -3.1973 -0.666331 0
M  V30 2737 H 245.225 -3.36284 1.45974 0
M  V30 2738 H 244.873 -5.0153 -0.384235 0
M  V30 2739 H 244.573 -5.74991 1.21075 0
M  V30 2740 H 246.097 -6.09624 0.34503 0
M  V30 2741 H 247.511 -5.19294 2.42913 0
M  V30 2742 H 245.908 -5.06986 3.21068 0
M  V30 2743 H 246.978 -3.65656 3.18471 0
M  V30 2744 N 248.321 -0.919034 -1.28029 0
M  V30 2745 C 249.251 -0.428581 -2.29533 0
M  V30 2746 C 250.232 0.50659 -1.62381 0
M  V30 2747 O 251.417 0.413195 -1.89753 0
M  V30 2748 C 248.547 0.327388 -3.45753 0
M  V30 2749 C 247.501 -0.519137 -4.2484 0
M  V30 2750 C 246.827 0.365486 -5.33449 0
M  V30 2751 C 248.127 -1.77914 -4.91064 0
M  V30 2752 H 249.821 -1.27687 -2.70807 0
M  V30 2753 H 247.367 -0.615428 -1.30186 0
M  V30 2754 H 249.32 0.681378 -4.15855 0
M  V30 2755 H 248.044 1.20963 -3.03374 0
M  V30 2756 H 246.703 -0.855717 -3.56473 0
M  V30 2757 H 246.351 1.24642 -4.87312 0
M  V30 2758 H 246.051 -0.197356 -5.87268 0
M  V30 2759 H 247.575 0.715241 -6.06396 0
M  V30 2760 H 248.989 -1.49374 -5.53498 0
M  V30 2761 H 247.386 -2.2848 -5.54903 0
M  V30 2762 H 248.456 -2.50382 -4.15255 0
M  V30 2763 N 249.799 1.42003 -0.683588 0
M  V30 2764 C 251.045 2.01712 -0.209825 0
M  V30 2765 C 251.378 1.53968 1.18353 0
M  V30 2766 O 250.653 0.745661 1.79639 0
M  V30 2767 C 250.936 3.59202 -0.254197 0
M  V30 2768 C 250.789 4.17102 -1.68363 0
M  V30 2769 C 252.108 4.38344 0.392709 0
M  V30 2770 H 249.227 0.732891 -0.0777189 0
M  V30 2771 H 251.869 1.68909 -0.87004 0
M  V30 2772 H 250.019 3.87278 0.307954 0
M  V30 2773 H 251.691 3.99946 -2.29871 0
M  V30 2774 H 249.934 3.72597 -2.22157 0
M  V30 2775 H 250.605 5.26249 -1.6663 0
M  V30 2776 H 253.081 4.16011 -0.0859162 0
M  V30 2777 H 251.957 5.47901 0.331063 0
M  V30 2778 H 252.218 4.16887 1.47164 0
M  V30 2779 N 251.277 0.427512 1.51691 0
M  V30 2780 C 252.209 -0.424521 2.25234 0
M  V30 2781 C 253.222 -0.994671 1.2888 0
M  V30 2782 O 254.411 -0.890483 1.54702 0
M  V30 2783 C 251.511 -1.60479 2.98496 0
M  V30 2784 C 250.684 -1.15527 4.21868 0
M  V30 2785 C 249.743 -2.20454 4.77793 0
M  V30 2786 O 248.769 -1.8029 5.39893 0
M  V30 2787 N 249.971 -3.52831 4.60967 0
M  V30 2788 H 252.736 0.205749 2.98993 0
M  V30 2789 H 250.297 0.255867 1.59865 0
M  V30 2790 H 252.289 -2.30276 3.32799 0
M  V30 2791 H 250.859 -2.14061 2.27809 0
M  V30 2792 H 250.079 -0.284736 3.9317 0
M  V30 2793 H 251.367 -0.832173 5.01949 0
M  V30 2794 H 250.765 -3.88201 4.11481 0
M  V30 2795 H 249.322 -4.18551 4.99658 0
M  V30 2796 N 252.755 -1.56801 0.158532 0
M  V30 2797 C 253.718 -2.16138 -0.762705 0
M  V30 2798 C 254.718 -1.1061 -1.16713 0
M  V30 2799 O 255.908 -1.36191 -1.08617 0
M  V30 2800 C 253.04 -2.73386 -2.03649 0
M  V30 2801 H 254.233 -2.98886 -0.246354 0
M  V30 2802 H 251.786 -1.56035 -0.0909744 0
M  V30 2803 H 252.521 -1.94335 -2.59623 0
M  V30 2804 H 252.306 -3.50601 -1.75559 0
M  V30 2805 H 253.796 -3.19065 -2.6942 0
M  V30 2806 N 254.233 0.115231 -1.57178 0
M  V30 2807 C 255.482 0.820945 -1.84237 0
M  V30 2808 C 255.795 1.80866 -0.744761 0
M  V30 2809 O 257.001 2.56083 -0.901871 0
M  V30 2810 C 255.457 1.51072 -3.26658 0
M  V30 2811 C 255.065 0.563795 -4.44438 0
M  V30 2812 C 256.809 2.20134 -3.62962 0
M  V30 2813 C 254.716 1.25701 -5.77887 0
M  V30 2814 H 253.646 0.310328 -0.687177 0
M  V30 2815 H 256.297 0.0737134 -1.83352 0
M  V30 2816 H 254.679 2.30471 -3.22024 0
M  V30 2817 H 255.853 -0.197247 -4.60378 0
M  V30 2818 H 254.168 -0.0200638 -4.16395 0
M  V30 2819 H 256.765 2.72696 -4.59936 0
M  V30 2820 H 257.108 2.98107 -2.90582 0
M  V30 2821 H 257.641 1.47619 -3.69396 0
M  V30 2822 H 254.38 0.518493 -6.53446 0
M  V30 2823 H 253.9 1.98997 -5.65827 0
M  V30 2824 H 255.579 1.78915 -6.2177 0
M  V30 2825 N 255.711 1.52812 0.385517 0
M  V30 2826 C 256.641 1.80808 1.47752 0
M  V30 2827 C 257.622 0.660318 1.5676 0
M  V30 2828 O 258.807 0.908246 1.71652 0
M  V30 2829 C 255.937 1.98008 2.85324 0
M  V30 2830 C 254.891 3.13709 2.91154 0
M  V30 2831 C 254.217 3.16169 4.31209 0
M  V30 2832 C 255.517 4.52709 2.60483 0
M  V30 2833 H 257.211 2.72253 1.24573 0
M  V30 2834 H 254.757 1.31003 0.597839 0
M  V30 2835 H 256.71 2.16176 3.61726 0
M  V30 2836 H 255.434 1.03255 3.09848 0
M  V30 2837 H 254.093 2.95329 2.17201 0
M  V30 2838 H 253.741 2.19092 4.52778 0
M  V30 2839 H 253.441 3.93894 4.36029 0
M  V30 2840 H 254.965 3.36496 5.09512 0
M  V30 2841 H 256.379 4.71173 3.26602 0
M  V30 2842 H 254.776 5.32528 2.76648 0
M  V30 2843 H 255.846 4.59186 1.55809 0
M  V30 2844 N 257.189 -0.644168 1.43834 0
M  V30 2845 C 258.437 -1.40117 1.45642 0
M  V30 2846 C 258.758 -1.94814 0.0852413 0
M  V30 2847 O 258.028 -1.74988 -0.880688 0
M  V30 2848 H 256.608 -0.52005 0.536243 0
M  V30 2849 H 259.27 -0.7591 1.7951 0
M  V30 2850 H 258.366 -2.23902 2.17427 0
M  V30 2851 N 258.668 -1.30515 -0.883378 0
M  V30 2852 C 259.893 -1.22487 -1.67367 0
M  V30 2853 C 260.318 0.208767 -1.86938 0
M  V30 2854 O 259.676 1.15015 -1.40148 0
M  V30 2855 C 259.724 -1.96041 -3.02655 0
M  V30 2856 O 258.828 -1.28859 -3.91751 0
M  V30 2857 H 258.169 -0.423573 -0.511353 0
M  V30 2858 H 260.699 -1.72362 -1.10239 0
M  V30 2859 H 260.709 -2.05124 -3.52687 0
M  V30 2860 H 259.384 -3.00307 -2.8773 0
M  V30 2861 H 257.961 -1.28141 -3.50192 0
M  V30 2862 N 260.146 1.09593 -1.13257 0
M  V30 2863 C 261.395 1.81105 -0.887917 0
M  V30 2864 C 261.708 1.86563 0.587672 0
M  V30 2865 O 262.914 2.54367 0.949204 0
M  V30 2866 C 261.37 3.25338 -1.53895 0
M  V30 2867 C 260.978 3.28151 -3.04994 0
M  V30 2868 C 262.722 4.01617 -1.37492 0
M  V30 2869 C 260.629 4.66897 -3.6299 0
M  V30 2870 H 259.559 0.678661 -0.328534 0
M  V30 2871 H 262.21 1.23183 -1.36008 0
M  V30 2872 H 260.592 3.8331 -0.994446 0
M  V30 2873 H 261.766 2.79953 -3.66009 0
M  V30 2874 H 260.081 2.65361 -3.20893 0
M  V30 2875 H 262.678 5.04119 -1.78235 0
M  V30 2876 H 263.021 4.15072 -0.31957 0
M  V30 2877 H 263.554 3.50082 -1.88912 0
M  V30 2878 H 260.293 4.58643 -4.68323 0
M  V30 2879 H 259.813 5.15426 -3.06752 0
M  V30 2880 H 261.492 5.3587 -3.62563 0
M  V30 2881 N 261.624 0.925811 1.2754 0
M  V30 2882 C 262.87 0.566092 1.94739 0
M  V30 2883 C 263.203 -0.890057 1.72603 0
M  V30 2884 O 262.478 -1.63467 1.05399 0
M  V30 2885 C 262.761 0.89054 3.48915 0
M  V30 2886 C 262.614 2.4003 3.80402 0
M  V30 2887 C 263.933 0.395101 4.38323 0
M  V30 2888 H 261.052 0.20714 0.707292 0
M  V30 2889 H 263.694 1.15725 1.50691 0
M  V30 2890 H 261.844 0.387452 3.86563 0
M  V30 2891 H 263.516 2.97494 3.52555 0
M  V30 2892 H 261.759 2.85028 3.2702 0
M  V30 2893 H 262.43 2.57785 4.8811 0
M  V30 2894 H 264.906 0.826241 4.07814 0
M  V30 2895 H 263.782 0.651086 5.45025 0
M  V30 2896 H 264.043 -0.704798 4.36446 0
M  V30 2897 N 263.102 -1.41638 0.69111 0
M  V30 2898 C 264.05 -2.32597 0.0115199 0
M  V30 2899 C 265.044 -1.5072 -0.773296 0
M  V30 2900 O 266.25 -1.66685 -0.67942 0
M  V30 2901 H 262.625 -0.751849 -0.0150746 0
M  V30 2902 H 264.596 -2.87593 0.795791 0
M  V30 2903 C 263.345 -3.35467 -0.914172 0
M  V30 2904 H 262.668 -3.9852 -0.319687 0
M  V30 2905 H 264.108 -4.01662 -1.35808 0
M  V30 2906 C 262.567 -2.69004 -2.02826 0
M  V30 2907 O 263.097 -2.53444 -3.11655 0
M  V30 2908 N 261.303 -2.2777 -1.80469 0
M  V30 2909 H 260.85 -2.40626 -0.919615 0
M  V30 2910 H 260.808 -1.83635 -2.55197 0
M  V30 2911 N 264.58 -0.43555 -1.51462 0
M  V30 2912 C 265.543 0.365137 -2.26273 0
M  V30 2913 C 266.543 0.951227 -1.29647 0
M  V30 2914 O 267.733 0.825958 -1.53374 0
M  V30 2915 C 264.865 1.51645 -3.05314 0
M  V30 2916 H 266.058 -0.290474 -2.9849 0
M  V30 2917 H 263.611 -0.188676 -1.55157 0
M  V30 2918 H 264.346 2.20816 -2.3751 0
M  V30 2919 H 264.131 1.10238 -3.76284 0
M  V30 2920 H 265.621 2.08218 -3.61987 0
M  V30 2921 N 266.058 1.56714 -0.166846 0
M  V30 2922 C 267.305 1.96747 0.479252 0
M  V30 2923 C 267.633 1.05263 1.63554 0
M  V30 2924 O 266.888 0.0858098 1.95512 0
M  V30 2925 C 267.187 3.42889 1.00806 0
M  V30 2926 C 266.853 4.50889 -0.0318574 0
M  V30 2927 C 265.515 4.8015 -0.317675 0
M  V30 2928 C 267.867 5.15949 -0.737956 0
M  V30 2929 C 265.195 5.71772 -1.31506 0
M  V30 2930 C 267.547 6.08647 -1.72429 0
M  V30 2931 C 266.211 6.36277 -2.0176 0
M  V30 2932 H 265.481 0.719949 0.175371 0
M  V30 2933 H 268.128 1.89756 -0.257864 0
M  V30 2934 H 266.433 3.4681 1.82291 0
M  V30 2935 H 268.13 3.71203 1.51689 0
M  V30 2936 H 264.72 4.28128 0.201088 0
M  V30 2937 H 268.904 4.93458 -0.530351 0
M  V30 2938 H 264.16 5.91465 -1.54853 0
M  V30 2939 H 268.334 6.58129 -2.27682 0
M  V30 2940 H 265.961 7.07075 -2.79194 0
M  V30 2941 N 267.536 -0.106894 1.57237 0
M  V30 2942 C 268.469 -1.16125 1.96444 0
M  V30 2943 C 269.447 -1.3947 0.835871 0
M  V30 2944 O 270.631 -1.53425 1.09513 0
M  V30 2945 C 267.758 -2.51277 2.27107 0
M  V30 2946 C 266.804 -2.44285 3.4961 0
M  V30 2947 S 267.637 -1.87077 5.01759 0
M  V30 2948 C 268.793 -3.23877 5.35588 0
M  V30 2949 H 269.026 -0.826971 2.85567 0
M  V30 2950 H 266.559 -0.314124 1.51171 0
M  V30 2951 H 268.517 -3.29035 2.45451 0
M  V30 2952 H 267.178 -2.81879 1.38576 0
M  V30 2953 H 266.371 -3.4387 3.68469 0
M  V30 2954 H 265.973 -1.74652 3.30715 0
M  V30 2955 H 268.265 -4.20122 5.31511 0
M  V30 2956 H 269.208 -3.09833 6.36717 0
M  V30 2957 H 269.616 -3.22864 4.63054 0
M  V30 2958 N 269.014 -1.53014 -0.377408 0
M  V30 2959 C 270.26 -1.68872 -1.12294 0
M  V30 2960 C 270.593 -0.433224 -1.89306 0
M  V30 2961 O 269.868 0.569258 -1.85983 0
M  V30 2962 C 270.151 -2.93115 -2.09179 0
M  V30 2963 C 270.004 -4.28794 -1.35853 0
M  V30 2964 C 271.323 -3.12928 -3.09458 0
M  V30 2965 H 268.442 -0.614518 -0.406862 0
M  V30 2966 H 271.084 -1.85633 -0.40503 0
M  V30 2967 H 269.234 -2.78956 -2.70399 0
M  V30 2968 H 270.906 -4.54742 -0.775082 0
M  V30 2969 H 269.149 -4.28744 -0.660364 0
M  V30 2970 H 269.82 -5.11837 -2.06706 0
M  V30 2971 H 272.296 -3.26194 -2.58334 0
M  V30 2972 H 271.172 -4.01316 -3.74482 0
M  V30 2973 H 271.433 -2.27669 -3.78971 0
M  V30 2974 N 270.492 0.636531 -1.44174 0
M  V30 2975 C 271.74 1.39343 -1.46383 0
M  V30 2976 C 272.061 1.94766 -0.0955715 0
M  V30 2977 O 271.331 1.75452 0.871395 0
M  V30 2978 H 269.911 0.517199 -0.538994 0
M  V30 2979 H 272.573 0.74957 -1.7991 0
M  V30 2980 H 271.669 2.22746 -2.18611 0
M  V30 2981 N 271.97 1.30982 0.876444 0
M  V30 2982 C 273.21 1.21589 1.64303 0
M  V30 2983 C 273.574 -0.223962 1.90689 0
M  V30 2984 O 274.775 -0.44128 2.65153 0
M  V30 2985 C 273.046 2.03007 2.94148 0
M  V30 2986 S 274.605 2.10405 3.85065 0
M  V30 2987 H 271.423 0.433161 0.563819 0
M  V30 2988 H 274.025 1.65565 1.03964 0
M  V30 2989 H 272.729 3.06719 2.72675 0
M  V30 2990 H 272.26 1.59725 3.59515 0
M  V30 2991 H 274.275 1.23765 4.80517 0
M  V30 2992 N 273.449 -1.08991 1.13837 0
M  V30 2993 C 274.382 -2.15049 0.763477 0
M  V30 2994 C 275.36 -1.60629 -0.252398 0
M  V30 2995 O 276.544 -1.87958 -0.142853 0
M  V30 2996 C 273.671 -3.38441 0.132545 0
M  V30 2997 C 272.717 -4.11596 1.11763 0
M  V30 2998 S 273.55 -4.6521 2.65216 0
M  V30 2999 C 274.706 -5.91896 2.03495 0
M  V30 3000 H 274.939 -2.46518 1.66182 0
M  V30 3001 H 272.472 -1.21008 0.958976 0
M  V30 3002 H 274.43 -4.09883 -0.225074 0
M  V30 3003 H 273.091 -3.05182 -0.743135 0
M  V30 3004 H 272.284 -5.00121 0.624076 0
M  V30 3005 H 271.886 -3.46038 1.41894 0
M  V30 3006 H 274.178 -6.63156 1.38675 0
M  V30 3007 H 275.121 -6.45938 2.9012 0
M  V30 3008 H 275.529 -5.44625 1.48471 0
M  V30 3009 N 274.927 -0.932562 -1.27047 0
M  V30 3010 C 276.174 -0.575559 -1.94148 0
M  V30 3011 C 276.502 0.883984 -1.73251 0
M  V30 3012 O 275.757 1.64655 -1.0577 0
M  V30 3013 C 276.056 -0.853713 -3.47054 0
M  V30 3014 C 275.722 -2.29577 -3.88079 0
M  V30 3015 C 274.384 -2.68999 -3.9899 0
M  V30 3016 C 276.736 -3.23331 -4.08787 0
M  V30 3017 C 274.064 -4.01289 -4.28 0
M  V30 3018 C 276.416 -4.55207 -4.39282 0
M  V30 3019 C 275.08 -4.94457 -4.48407 0
M  V30 3020 H 274.35 -0.210612 -0.710439 0
M  V30 3021 H 276.997 -1.17744 -1.51025 0
M  V30 3022 H 275.302 -0.169204 -3.91434 0
M  V30 3023 H 276.999 -0.55639 -3.97121 0
M  V30 3024 H 273.589 -1.97994 -3.80127 0
M  V30 3025 H 277.773 -2.94074 -3.99793 0
M  V30 3026 H 273.029 -4.31374 -4.33275 0
M  V30 3027 H 277.203 -5.27852 -4.54252 0
M  V30 3028 H 274.83 -5.96994 -4.7064 0
M  V30 3029 N 276.405 1.4127 -0.698611 0
M  V30 3030 C 277.651 2.01478 -0.231207 0
M  V30 3031 C 277.984 1.55215 1.16713 0
M  V30 3032 O 277.259 0.764672 1.78838 0
M  V30 3033 C 277.542 3.58912 -0.292281 0
M  V30 3034 C 277.395 4.15293 -1.72778 0
M  V30 3035 C 278.714 4.38736 0.346194 0
M  V30 3036 H 275.833 0.732025 -0.0854878 0
M  V30 3037 H 278.475 1.67977 -0.887906 0
M  V30 3038 H 276.625 3.87582 0.26686 0
M  V30 3039 H 278.297 3.97486 -2.341 0
M  V30 3040 H 276.54 3.7022 -2.26096 0
M  V30 3041 H 277.211 5.24452 -1.72202 0
M  V30 3042 H 279.687 4.15897 -0.130035 0
M  V30 3043 H 278.563 5.48221 0.272932 0
M  V30 3044 H 278.824 4.18425 1.42734 0
M  V30 3045 N 277.883 0.443576 1.51229 0
M  V30 3046 C 278.83 -0.364716 2.279 0
M  V30 3047 C 279.8 -1.0114 1.31757 0
M  V30 3048 O 280.985 -1.02912 1.60667 0
M  V30 3049 C 278.125 -1.45644 3.12861 0
M  V30 3050 C 277.238 -0.827269 4.24005 0
M  V30 3051 C 276.373 -1.89456 4.96266 0
M  V30 3052 C 275.412 -1.24416 5.99322 0
M  V30 3053 N 274.549 -2.25309 6.64966 0
M  V30 3054 H 279.389 0.295464 2.96532 0
M  V30 3055 H 276.926 0.157554 1.46254 0
M  V30 3056 H 278.884 -2.10076 3.6045 0
M  V30 3057 H 277.514 -2.08616 2.46331 0
M  V30 3058 H 276.566 -0.0710839 3.80334 0
M  V30 3059 H 277.878 -0.312481 4.9782 0
M  V30 3060 H 277.032 -2.61535 5.47434 0
M  V30 3061 H 275.771 -2.4431 4.22095 0
M  V30 3062 H 274.776 -0.508868 5.4744 0
M  V30 3063 H 276.001 -0.702882 6.75453 0
M  V30 3064 H 273.947 -2.79231 5.93604 0
M  V30 3065 H 273.864 -1.78739 7.34567 0
M  V30 3066 H 275.132 -2.96853 7.20763 0
M  V30 3067 N 279.361 -1.56624 0.175154 0
M  V30 3068 C 280.61 -1.96173 -0.468921 0
M  V30 3069 C 280.923 -1.06401 -1.64128 0
M  V30 3070 O 282.129 -1.35648 -2.35185 0
M  V30 3071 C 280.585 -3.48833 -0.885633 0
M  V30 3072 C 280.193 -4.47237 0.261343 0
M  V30 3073 C 281.937 -3.97194 -1.49791 0
M  V30 3074 C 279.844 -5.9114 -0.175214 0
M  V30 3075 H 278.774 -0.732455 -0.178958 0
M  V30 3076 H 281.425 -1.81591 0.263997 0
M  V30 3077 H 279.807 -3.58848 -1.67464 0
M  V30 3078 H 280.981 -4.4894 1.03871 0
M  V30 3079 H 279.296 -4.08956 0.783827 0
M  V30 3080 H 281.893 -5.02167 -1.83665 0
M  V30 3081 H 282.236 -3.40351 -2.39722 0
M  V30 3082 H 282.769 -3.90212 -0.773267 0
M  V30 3083 H 279.508 -6.51865 0.689414 0
M  V30 3084 H 279.028 -5.92735 -0.91786 0
M  V30 3085 H 280.707 -6.44044 -0.617792 0
M  V30 3086 N 280.839 0.0985539 -1.57292 0
M  V30 3087 C 282.064 0.820196 -1.90493 0
M  V30 3088 C 282.489 1.71658 -0.769094 0
M  V30 3089 O 281.847 1.79133 0.279495 0
M  V30 3090 C 281.895 1.61242 -3.22542 0
M  V30 3091 O 280.999 2.72108 -3.09888 0
M  V30 3092 H 280.34 0.225547 -0.62452 0
M  V30 3093 H 282.87 0.0748159 -2.04463 0
M  V30 3094 H 282.88 1.99737 -3.55766 0
M  V30 3095 H 281.555 0.954535 -4.04798 0
M  V30 3096 H 280.132 2.36667 -2.88172 0
M  V30 3097 N 282.317 1.53212 0.369288 0
M  V30 3098 C 283.249 1.75668 1.47219 0
M  V30 3099 C 284.262 0.637387 1.49804 0
M  V30 3100 O 285.451 0.913561 1.5335 0
M  V30 3101 C 282.551 1.81818 2.85999 0
M  V30 3102 C 281.724 3.11409 3.07153 0
M  V30 3103 C 280.783 3.08849 4.26026 0
M  V30 3104 O 279.809 3.82659 4.2138 0
M  V30 3105 N 281.011 2.29409 5.33246 0
M  V30 3106 H 283.776 2.70832 1.28337 0
M  V30 3107 H 281.337 1.51944 0.55898 0
M  V30 3108 H 283.329 1.77588 3.63655 0
M  V30 3109 H 281.899 0.939544 2.98146 0
M  V30 3110 H 281.119 3.28971 2.1719 0
M  V30 3111 H 282.407 3.97059 3.18154 0
M  V30 3112 H 281.805 1.68946 5.39883 0
M  V30 3113 H 280.362 2.31001 6.09493 0
M  V30 3114 N 283.795 -0.628877 1.44509 0
M  V30 3115 C 285.206 -1.21054 1.42137 0
M  V30 3116 C 285.557 -1.95715 0.137881 0
M  V30 3117 O 284.682 -2.02554 -0.761645 0
M  V30 3118 C 285.277 -2.20189 2.57493 0
M  V30 3119 C 283.836 -2.73777 2.58308 0
M  V30 3120 C 282.983 -1.48813 2.33987 0
M  V30 3121 H 285.934 -0.41942 1.53057 0
M  V30 3122 H 285.955 -3.02833 2.30375 0
M  V30 3123 H 285.467 -1.6582 3.50892 0
M  V30 3124 H 283.568 -3.32142 1.68856 0
M  V30 3125 H 283.681 -3.19662 3.56865 0
M  V30 3126 H 282.045 -1.77024 1.83124 0
M  V30 3127 H 282.828 -0.963442 3.29504 0
M  V30 3128 N 285.273 -1.31445 -0.869486 0
M  V30 3129 C 286.22 -1.19135 -1.97675 0
M  V30 3130 C 287.19 -0.0770266 -1.65921 0
M  V30 3131 O 288.375 -0.249972 -1.89155 0
M  V30 3132 C 285.515 -0.905149 -3.33018 0
M  V30 3133 C 284.628 -2.10285 -3.77365 0
M  V30 3134 C 283.763 -1.75339 -5.01427 0
M  V30 3135 C 282.802 -2.91515 -5.38224 0
M  V30 3136 N 281.939 -2.56762 -6.53466 0
M  V30 3137 H 286.779 -2.13853 -2.07535 0
M  V30 3138 H 284.316 -1.06379 -1.01597 0
M  V30 3139 H 286.274 -0.719765 -4.10944 0
M  V30 3140 H 284.904 0.00519624 -3.228 0
M  V30 3141 H 283.956 -2.39899 -2.95216 0
M  V30 3142 H 285.268 -2.97237 -4.00564 0
M  V30 3143 H 284.422 -1.53266 -5.87022 0
M  V30 3144 H 283.161 -0.855801 -4.80133 0
M  V30 3145 H 282.166 -3.14237 -4.51149 0
M  V30 3146 H 283.391 -3.81985 -5.61484 0
M  V30 3147 H 281.337 -1.69526 -6.33717 0
M  V30 3148 H 281.254 -3.37243 -6.76612 0
M  V30 3149 H 282.522 -2.38083 -7.42251 0
M  V30 3150 N 286.751 1.08385 -1.14413 0
M  V30 3151 C 287.698 2.15311 -0.831265 0
M  V30 3152 C 288.668 1.64751 0.211292 0
M  V30 3153 O 289.853 1.90627 0.0811674 0
M  V30 3154 C 286.993 3.43658 -0.315143 0
M  V30 3155 C 286.106 4.08064 -1.41802 0
M  V30 3156 C 285.241 5.24207 -0.859126 0
M  V30 3157 C 284.28 5.80554 -1.93967 0
M  V30 3158 N 283.417 6.88042 -1.39793 0
M  V30 3159 H 288.257 2.41415 -1.74708 0
M  V30 3160 H 285.794 1.18474 -0.871909 0
M  V30 3161 H 287.752 4.172 0.00230884 0
M  V30 3162 H 286.382 3.17839 0.56378 0
M  V30 3163 H 285.434 3.3228 -1.85187 0
M  V30 3164 H 286.746 4.45962 -2.23427 0
M  V30 3165 H 285.9 6.04689 -0.49359 0
M  V30 3166 H 284.639 4.87699 -0.011932 0
M  V30 3167 H 283.644 4.98725 -2.31415 0
M  V30 3168 H 284.869 6.19121 -2.79046 0
M  V30 3169 H 282.815 6.53493 -0.572919 0
M  V30 3170 H 282.732 7.24767 -2.15054 0
M  V30 3171 H 284 7.72255 -1.0603 0
M  V30 3172 N 288.23 0.939286 1.26551 0
M  V30 3173 C 289.646 0.641304 1.46149 0
M  V30 3174 C 289.846 -0.805964 1.84679 0
M  V30 3175 O 288.902 -1.58278 1.96734 0
M  V30 3176 C 290.215 1.6011 2.54529 0
M  V30 3177 C 291.763 1.6106 2.68382 0
M  V30 3178 C 292.238 2.55765 3.79932 0
M  V30 3179 N 293.729 2.5404 3.87322 0
M  V30 3180 C 294.464 3.24004 4.73085 0
M  V30 3181 N 293.96 4.03388 5.63249 0
M  V30 3182 N 295.753 3.12965 4.66914 0
M  V30 3183 H 287.904 1.87478 0.998285 0
M  V30 3184 H 290.167 0.805559 0.499779 0
M  V30 3185 H 289.873 2.63412 2.33039 0
M  V30 3186 H 289.747 1.35171 3.52149 0
M  V30 3187 H 292.134 0.584835 2.89247 0
M  V30 3188 H 292.215 1.90053 1.71212 0
M  V30 3189 H 291.859 3.58458 3.5982 0
M  V30 3190 H 291.789 2.24063 4.76554 0
M  V30 3191 H 294.28 1.96396 3.22858 0
M  V30 3192 H 294.593 4.5373 6.25579 0
M  V30 3193 H 292.938 4.07489 5.63008 0
M  V30 3194 H 296.129 2.50432 3.95476 0
M  V30 3195 H 296.302 3.67759 5.33533 0
M  V30 3196 N 289.708 -1.40897 0.706093 0
M  V30 3197 C 290.671 -2.29131 0.0562841 0
M  V30 3198 C 291.671 -1.44901 -0.697166 0
M  V30 3199 O 292.861 -1.65926 -0.530484 0
M  V30 3200 C 289.993 -3.27957 -0.93043 0
M  V30 3201 H 291.186 -2.88091 0.833284 0
M  V30 3202 H 288.739 -1.4906 0.470192 0
M  V30 3203 H 289.474 -2.73997 -1.73482 0
M  V30 3204 H 289.259 -3.90124 -0.393166 0
M  V30 3205 H 290.749 -3.94049 -1.38256 0
M  V30 3206 N 291.186 -0.45159 -1.50991 0
M  V30 3207 C 292.096 0.358431 -2.31846 0
M  V30 3208 C 293.112 1.01438 -1.41373 0
M  V30 3209 O 294.288 1.00663 -1.74439 0
M  V30 3210 C 291.353 1.43704 -3.15515 0
M  V30 3211 C 290.414 0.799742 -4.21785 0
M  V30 3212 C 289.647 1.82696 -5.01456 0
M  V30 3213 O 289.87 3.05105 -4.81941 0
M  V30 3214 O 288.804 1.40958 -5.85162 0
M  V30 3215 H 292.63 -0.302032 -3.02194 0
M  V30 3216 H 290.215 -0.213825 -1.47862 0
M  V30 3217 H 292.097 2.06227 -3.67489 0
M  V30 3218 H 290.772 2.08133 -2.47916 0
M  V30 3219 H 289.679 0.136084 -3.73852 0
M  V30 3220 H 291.012 0.198718 -4.91799 0
M  V30 3221 N 292.664 1.56529 -0.183458 0
M  V30 3222 C 293.892 2.01623 0.464285 0
M  V30 3223 C 294.307 1.06366 1.55986 0
M  V30 3224 O 293.664 0.0665398 1.82379 0
M  V30 3225 C 293.715 3.46475 1.03139 0
M  V30 3226 O 293.436 4.38095 -0.0204675 0
M  V30 3227 C 294.937 4.0703 1.75617 0
M  V30 3228 H 292.157 0.660596 0.117704 0
M  V30 3229 H 294.701 2.02451 -0.288751 0
M  V30 3230 H 292.856 3.46383 1.73486 0
M  V30 3231 H 293.27 5.22973 0.399952 0
M  V30 3232 H 294.744 5.10271 2.10542 0
M  V30 3233 H 295.221 3.49819 2.65563 0
M  V30 3234 H 295.827 4.1086 1.09882 0
M  V30 3235 N 294.142 -0.090211 1.57342 0
M  V30 3236 C 295.072 -1.10976 2.05443 0
M  V30 3237 C 296.053 -1.41482 0.944284 0
M  V30 3238 O 297.238 -1.51428 1.21586 0
M  V30 3239 C 294.368 -2.42831 2.48295 0
M  V30 3240 C 293.322 -2.26721 3.63018 0
M  V30 3241 C 292.648 -3.63796 3.91863 0
M  V30 3242 C 293.948 -1.7037 4.93732 0
M  V30 3243 H 295.642 -0.709564 2.9087 0
M  V30 3244 H 293.188 -0.339874 1.39932 0
M  V30 3245 H 295.141 -3.14431 2.80555 0
M  V30 3246 H 293.865 -2.84795 1.59873 0
M  V30 3247 H 292.524 -1.57565 3.31012 0
M  V30 3248 H 292.172 -4.03297 3.00601 0
M  V30 3249 H 291.872 -3.53861 4.69101 0
M  V30 3250 H 293.396 -4.36855 4.26603 0
M  V30 3251 H 294.81 -2.31816 5.24342 0
M  V30 3252 H 293.207 -1.71181 5.75167 0
M  V30 3253 H 294.277 -0.663542 4.80339 0
M  V30 3254 N 295.62 -1.53406 -0.361157 0
M  V30 3255 C 296.553 -1.74946 -1.46524 0
M  V30 3256 C 297.531 -0.59795 -1.51206 0
M  V30 3257 O 298.715 -0.831062 -1.69191 0
M  V30 3258 C 295.842 -1.83224 -2.84863 0
M  V30 3259 C 294.888 -3.05233 -2.97885 0
M  V30 3260 S 295.721 -4.6466 -2.66179 0
M  V30 3261 C 296.877 -4.75793 -4.06659 0
M  V30 3262 H 297.11 -2.68319 -1.28033 0
M  V30 3263 H 294.643 -1.44051 -0.555764 0
M  V30 3264 H 296.601 -1.88679 -3.64569 0
M  V30 3265 H 295.262 -0.908948 -3.00661 0
M  V30 3266 H 294.455 -3.07648 -3.9921 0
M  V30 3267 H 294.057 -2.97913 -2.26106 0
M  V30 3268 H 296.349 -4.5612 -5.0096 0
M  V30 3269 H 297.292 -5.7786 -4.09247 0
M  V30 3270 H 297.7 -4.04389 -3.93865 0
M  V30 3271 N 297.098 0.621204 -1.44841 0
M  V30 3272 C 298.345 1.38055 -1.48145 0
M  V30 3273 C 298.673 1.94143 -0.117867 0
M  V30 3274 O 297.928 1.74713 0.881694 0
M  V30 3275 C 298.227 2.55675 -2.4973 0
M  V30 3276 C 297.893 2.17817 -3.94799 0
M  V30 3277 C 296.555 2.07205 -4.34303 0
M  V30 3278 C 298.907 1.88065 -4.86087 0
M  V30 3279 C 296.235 1.65045 -5.63007 0
M  V30 3280 C 298.587 1.47394 -6.15189 0
M  V30 3281 C 297.251 1.35331 -6.53637 0
M  V30 3282 H 296.521 0.505181 -0.542101 0
M  V30 3283 H 299.168 0.703477 -1.78111 0
M  V30 3284 H 297.473 3.2866 -2.13284 0
M  V30 3285 H 299.17 3.13904 -2.4953 0
M  V30 3286 H 295.76 2.26998 -3.63552 0
M  V30 3287 H 299.944 1.95168 -4.56315 0
M  V30 3288 H 295.2 1.54317 -5.91605 0
M  V30 3289 H 299.374 1.23415 -6.85377 0
M  V30 3290 H 297.001 1.02435 -7.53267 0
M  V30 3291 N 298.576 1.31904 0.862503 0
M  V30 3292 C 299.801 1.25135 1.65397 0
M  V30 3293 C 300.226 -0.179 1.87246 0
M  V30 3294 O 299.584 -1.1277 1.4196 0
M  V30 3295 C 299.632 2.00832 2.99498 0
M  V30 3296 O 298.736 1.35075 3.89652 0
M  V30 3297 H 298.077 0.431655 0.504549 0
M  V30 3298 H 300.607 1.74094 1.07483 0
M  V30 3299 H 300.617 2.10709 3.49379 0
M  V30 3300 H 299.292 3.04847 2.82916 0
M  V30 3301 H 297.869 1.33696 3.48109 0
M  V30 3302 N 300.054 -1.07777 1.14986 0
M  V30 3303 C 301.002 -2.16964 0.838406 0
M  V30 3304 C 301.996 -1.68372 -0.186386 0
M  V30 3305 O 303.202 -1.79951 -0.0418465 0
M  V30 3306 H 299.577 -0.708006 0.253439 0
M  V30 3307 H 301.548 -2.40454 1.76704 0
M  V30 3308 C 300.297 -3.4604 0.339335 0
M  V30 3309 H 299.62 -3.83813 1.11927 0
M  V30 3310 H 301.06 -4.23698 0.160021 0
M  V30 3311 C 299.519 -3.23569 -0.938325 0
M  V30 3312 O 300.049 -3.47752 -2.01077 0
M  V30 3313 N 298.255 -2.77079 -0.876117 0
M  V30 3314 H 297.802 -2.576 -0.00322037 0
M  V30 3315 H 297.76 -2.62422 -1.73153 0
M  V30 3316 N 301.532 -0.945985 -1.26051 0
M  V30 3317 C 302.48 -0.450259 -2.282 0
M  V30 3318 C 303.474 0.47497 -1.62605 0
M  V30 3319 O 304.68 0.352653 -1.76512 0
M  V30 3320 H 301.055 -0.127081 -0.741184 0
M  V30 3321 H 303.026 -1.32422 -2.67408 0
M  V30 3322 C 301.775 0.26467 -3.46691 0
M  V30 3323 H 301.098 -0.438123 -3.97392 0
M  V30 3324 H 302.538 0.575678 -4.20074 0
M  V30 3325 C 300.997 1.48416 -3.02447 0
M  V30 3326 O 301.527 2.58227 -3.07704 0
M  V30 3327 N 299.733 1.34243 -2.57735 0
M  V30 3328 H 299.28 0.448994 -2.53657 0
M  V30 3329 H 299.238 2.15957 -2.28495 0
M  V30 3330 N 303.011 1.40521 -0.713556 0
M  V30 3331 C 303.974 2.29098 -0.0684347 0
M  V30 3332 C 304.974 1.45268 0.689472 0
M  V30 3333 O 306.164 1.66205 0.521677 0
M  V30 3334 C 303.296 3.28446 0.913024 0
M  V30 3335 H 304.489 2.87645 -0.84855 0
M  V30 3336 H 302.042 1.48809 -0.47809 0
M  V30 3337 H 302.777 2.74913 1.72027 0
M  V30 3338 H 302.562 3.90327 0.372472 0
M  V30 3339 H 304.052 3.94777 1.36165 0
M  V30 3340 N 304.489 0.459591 1.5075 0
M  V30 3341 C 305.735 -0.0994966 2.02556 0
M  V30 3342 C 306.068 -1.40399 1.3417 0
M  V30 3343 O 305.343 -1.88892 0.463683 0
M  V30 3344 C 305.626 -0.295242 3.58888 0
M  V30 3345 C 305.479 1.02947 4.37861 0
M  V30 3346 C 306.798 -1.05502 4.27267 0
M  V30 3347 H 303.917 -0.034686 0.736183 0
M  V30 3348 H 306.559 0.602938 1.8018 0
M  V30 3349 H 304.709 -0.893563 3.78084 0
M  V30 3350 H 306.381 1.66348 4.30263 0
M  V30 3351 H 304.624 1.62885 4.02058 0
M  V30 3352 H 305.295 0.846281 5.45474 0
M  V30 3353 H 307.771 -0.547993 4.12476 0
M  V30 3354 H 306.647 -1.16077 5.36486 0
M  V30 3355 H 306.908 -2.08875 3.89645 0
M  V30 3356 N 305.967 -1.56429 0.191757 0
M  V30 3357 C 307.216 -1.9666 -0.448088 0
M  V30 3358 C 307.529 -1.08136 -1.62991 0
M  V30 3359 O 308.735 -1.38135 -2.33733 0
M  V30 3360 C 307.191 -3.49753 -0.848585 0
M  V30 3361 C 306.799 -4.46935 0.308764 0
M  V30 3362 C 308.543 -3.9876 -1.4557 0
M  V30 3363 C 306.45 -5.91293 -0.112506 0
M  V30 3364 H 305.38 -0.734312 -0.171179 0
M  V30 3365 H 308.031 -1.81301 0.283242 0
M  V30 3366 H 306.413 -3.60604 -1.63649 0
M  V30 3367 H 307.587 -4.47813 1.08627 0
M  V30 3368 H 305.902 -4.08102 0.827158 0
M  V30 3369 H 308.499 -5.04086 -1.78328 0
M  V30 3370 H 308.842 -3.42875 -2.36099 0
M  V30 3371 H 309.375 -3.9101 -0.731836 0
M  V30 3372 H 306.114 -6.51097 0.758514 0
M  V30 3373 H 305.634 -5.93676 -0.854941 0
M  V30 3374 H 307.313 -6.44663 -0.549448 0
M  V30 3375 N 307.445 0.0818655 -1.57387 0
M  V30 3376 C 308.67 0.799946 -1.91352 0
M  V30 3377 C 309.095 1.70833 -0.787258 0
M  V30 3378 O 308.453 1.79419 0.26048 0
M  V30 3379 C 308.501 1.57812 -3.24234 0
M  V30 3380 O 307.605 2.68806 -3.12757 0
M  V30 3381 H 306.946 0.21891 -0.626877 0
M  V30 3382 H 309.476 0.0531256 -2.04531 0
M  V30 3383 H 309.486 1.95952 -3.57864 0
M  V30 3384 H 308.161 0.911548 -4.05788 0
M  V30 3385 H 306.738 2.33597 -2.90666 0
M  V30 3386 N 308.923 1.53595 0.353017 0
M  V30 3387 C 309.856 1.7572 1.45594 0
M  V30 3388 C 310.834 0.605961 1.50887 0
M  V30 3389 O 312.018 0.840023 1.68748 0
M  V30 3390 C 309.145 1.84732 2.83887 0
M  V30 3391 C 308.191 3.06808 2.96262 0
M  V30 3392 S 309.024 4.66065 2.63711 0
M  V30 3393 C 310.18 4.77943 4.04131 0
M  V30 3394 H 310.413 2.68994 1.26608 0
M  V30 3395 H 307.946 1.44343 0.548117 0
M  V30 3396 H 309.904 1.9061 3.63563 0
M  V30 3397 H 308.565 0.92488 3.00175 0
M  V30 3398 H 307.758 3.09761 3.97573 0
M  V30 3399 H 307.36 2.99108 2.24523 0
M  V30 3400 H 309.652 4.5877 4.98534 0
M  V30 3401 H 310.595 5.80022 4.06177 0
M  V30 3402 H 311.003 4.06472 3.91715 0
M  V30 3403 N 310.401 -0.613514 1.45168 0
M  V30 3404 C 311.817 -0.933629 1.29443 0
M  V30 3405 C 312.017 -2.00028 0.243101 0
M  V30 3406 O 311.073 -2.49848 -0.364992 0
M  V30 3407 C 312.386 -1.38018 2.67155 0
M  V30 3408 C 313.934 -1.49471 2.75004 0
M  V30 3409 C 314.409 -1.97503 4.13227 0
M  V30 3410 N 315.9 -2.04746 4.15491 0
M  V30 3411 C 316.635 -2.43121 5.19307 0
M  V30 3412 N 316.131 -2.80506 6.33473 0
M  V30 3413 N 317.924 -2.43408 5.06664 0
M  V30 3414 H 310.075 0.0916097 2.12202 0
M  V30 3415 H 312.338 -0.0216655 0.947752 0
M  V30 3416 H 312.044 -0.670625 3.45247 0
M  V30 3417 H 311.918 -2.34784 2.95222 0
M  V30 3418 H 314.305 -2.19519 1.9722 0
M  V30 3419 H 314.386 -0.510342 2.50657 0
M  V30 3420 H 314.03 -1.28045 4.91495 0
M  V30 3421 H 313.96 -2.96843 4.34962 0
M  V30 3422 H 316.451 -1.78468 3.33103 0
M  V30 3423 H 316.764 -3.08652 7.08487 0
M  V30 3424 H 315.109 -2.78216 6.36884 0
M  V30 3425 H 318.3 -2.13604 4.16523 0
M  V30 3426 H 318.473 -2.72989 5.87691 0
M  V30 3427 N 311.879 -1.3236 -0.855495 0
M  V30 3428 C 313.156 -1.13491 -1.59309 0
M  V30 3429 C 313.536 0.30503 -2.08885 0
M  V30 3430 O 312.884 1.30151 -1.87811 0
M  V30 3431 C 313.094 -2.16176 -2.73987 0
M  V30 3432 C 314.442 -2.49463 -3.43589 0
M  V30 3433 O 315.466 -2.14715 -2.84211 0
M  V30 3434 O 314.325 -3.09027 -4.50738 0
M  V30 3435 H 311.419 -0.437887 -0.701559 0
M  V30 3436 H 313.965 -1.43887 -0.899696 0
M  V30 3437 H 312.737 -3.1297 -2.34873 0
M  V30 3438 H 312.36 -1.86769 -3.51003 0
M  V30 3439 N 313.357 1.07166 -1.15556 0
M  V30 3440 C 314.267 2.17947 -0.868116 0
M  V30 3441 C 315.283 1.73297 0.156297 0
M  V30 3442 O 316.459 2.01392 -0.0182327 0
M  V30 3443 C 313.524 3.44789 -0.36355 0
M  V30 3444 C 312.585 4.03996 -1.45209 0
M  V30 3445 C 311.818 5.24783 -0.971508 0
M  V30 3446 O 312.041 5.70109 0.182194 0
M  V30 3447 O 310.975 5.75715 -1.75603 0
M  V30 3448 H 314.801 2.4503 -1.79427 0
M  V30 3449 H 312.386 1.16539 -0.934824 0
M  V30 3450 H 314.268 4.21307 -0.0887113 0
M  V30 3451 H 312.943 3.19253 0.534708 0
M  V30 3452 H 311.85 3.29009 -1.78056 0
M  V30 3453 H 313.183 4.33808 -2.32533 0
M  V30 3454 N 314.835 0.952656 1.25548 0
M  V30 3455 C 315.782 0.47008 2.25962 0
M  V30 3456 C 316.752 -0.476384 1.59122 0
M  V30 3457 O 317.937 -0.39007 1.8677 0
M  V30 3458 C 315.077 -0.247881 3.44209 0
M  V30 3459 C 314.19 0.735591 4.25691 0
M  V30 3460 C 313.325 -0.0047306 5.312 0
M  V30 3461 C 312.364 0.969805 6.04368 0
M  V30 3462 N 311.501 0.260486 7.01617 0
M  V30 3463 H 316.341 1.33126 2.66611 0
M  V30 3464 H 313.878 0.66765 1.31076 0
M  V30 3465 H 315.836 -0.680695 4.1161 0
M  V30 3466 H 314.466 -1.07312 3.0444 0
M  V30 3467 H 313.518 1.28689 3.57971 0
M  V30 3468 H 314.83 1.47934 4.76358 0
M  V30 3469 H 313.984 -0.496275 6.04667 0
M  V30 3470 H 312.723 -0.781282 4.81401 0
M  V30 3471 H 311.728 1.47237 5.29718 0
M  V30 3472 H 312.953 1.74655 6.56256 0
M  V30 3473 H 310.899 -0.497364 6.54112 0
M  V30 3474 H 310.816 0.943362 7.50091 0
M  V30 3475 H 312.084 -0.209587 7.79218 0
M  V30 3476 N 316.313 -1.40141 0.720998 0
M  V30 3477 C 317.243 -2.33339 0.0867621 0
M  V30 3478 C 318.224 -1.53178 -0.739622 0
M  V30 3479 O 319.409 -1.81625 -0.687449 0
M  V30 3480 C 316.539 -3.37194 -0.831728 0
M  V30 3481 C 315.493 -4.27857 -0.110558 0
M  V30 3482 C 314.819 -5.22294 -1.14513 0
M  V30 3483 C 316.119 -5.11872 1.0385 0
M  V30 3484 H 317.813 -2.86626 0.865219 0
M  V30 3485 H 315.359 -1.37814 0.417516 0
M  V30 3486 H 317.312 -4.01335 -1.28485 0
M  V30 3487 H 316.036 -2.82314 -1.64214 0
M  V30 3488 H 314.695 -3.65176 0.322797 0
M  V30 3489 H 314.343 -4.63717 -1.94874 0
M  V30 3490 H 314.043 -5.83797 -0.667446 0
M  V30 3491 H 315.567 -5.89312 -1.59824 0
M  V30 3492 H 316.981 -5.69436 0.664482 0
M  V30 3493 H 315.378 -5.82445 1.4449 0
M  V30 3494 H 316.448 -4.4753 1.86668 0
M  V30 3495 N 317.792 -0.46758 -1.50504 0
M  V30 3496 C 319.032 0.0874114 -2.04213 0
M  V30 3497 C 319.396 1.37301 -1.34211 0
M  V30 3498 O 320.597 2.01015 -1.78456 0
M  V30 3499 C 318.868 0.270571 -3.56374 0
M  V30 3500 S 320.427 0.784623 -4.31728 0
M  V30 3501 H 317.245 0.0176153 -0.710782 0
M  V30 3502 H 319.847 -0.633915 -1.84937 0
M  V30 3503 H 318.551 -0.670942 -4.04878 0
M  V30 3504 H 318.082 1.01811 -3.79997 0
M  V30 3505 H 320.097 2.05849 -4.51487 0
M  V30 3506 N 319.27 1.56325 -0.20005 0
M  V30 3507 C 320.2 2.22318 0.713916 0
M  V30 3508 C 321.181 1.18788 1.21752 0
M  V30 3509 O 322.366 1.47309 1.26545 0
M  V30 3510 C 319.496 2.88639 1.93144 0
M  V30 3511 C 318.45 3.98457 1.56255 0
M  V30 3512 C 317.776 4.51967 2.85709 0
M  V30 3513 C 319.076 5.16612 0.768747 0
M  V30 3514 H 320.77 2.98952 0.163755 0
M  V30 3515 H 318.316 1.43792 0.0773219 0
M  V30 3516 H 320.269 3.33491 2.57608 0
M  V30 3517 H 318.993 2.09419 2.50621 0
M  V30 3518 H 317.652 3.54305 0.941471 0
M  V30 3519 H 317.3 3.69503 3.41287 0
M  V30 3520 H 317 5.26071 2.6177 0
M  V30 3521 H 318.524 4.99523 3.51154 0
M  V30 3522 H 319.938 5.57977 1.3166 0
M  V30 3523 H 318.335 5.96812 0.627286 0
M  V30 3524 H 319.405 4.84358 -0.229168 0
M  V30 3525 N 320.748 -0.0735177 1.57428 0
M  V30 3526 C 321.681 -1.11932 1.98863 0
M  V30 3527 C 322.659 -1.37666 0.865266 0
M  V30 3528 O 323.843 -1.51068 1.12742 0
M  V30 3529 C 320.97 -2.46403 2.32386 0
M  V30 3530 C 320.016 -2.36815 3.54713 0
M  V30 3531 S 320.849 -1.76392 5.05614 0
M  V30 3532 C 322.005 -3.12444 5.42337 0
M  V30 3533 H 322.238 -0.766212 2.87257 0
M  V30 3534 H 319.771 -0.281987 1.51803 0
M  V30 3535 H 321.729 -3.23755 2.52375 0
M  V30 3536 H 320.39 -2.78876 1.44524 0
M  V30 3537 H 319.583 -3.35977 3.7568 0
M  V30 3538 H 319.185 -1.67598 3.34345 0
M  V30 3539 H 321.477 -4.08753 5.40303 0
M  V30 3540 H 322.42 -2.96258 6.43146 0
M  V30 3541 H 322.828 -3.1297 4.69798 0
M  V30 3542 N 322.226 -1.5378 -0.344866 0
M  V30 3543 C 323.473 -1.70963 -1.08526 0
M  V30 3544 C 323.801 -0.472126 -1.88683 0
M  V30 3545 O 323.056 0.546116 -1.87926 0
M  V30 3546 C 323.355 -2.92407 -2.05506 0
M  V30 3547 C 323.021 -4.28066 -1.41671 0
M  V30 3548 C 321.683 -4.64951 -1.2399 0
M  V30 3549 C 324.035 -5.12344 -0.956726 0
M  V30 3550 C 321.363 -5.83733 -0.589277 0
M  V30 3551 C 323.715 -6.3179 -0.320015 0
M  V30 3552 C 322.379 -6.67372 -0.130881 0
M  V30 3553 H 321.649 -0.625598 -0.397124 0
M  V30 3554 H 324.296 -1.87995 -0.36469 0
M  V30 3555 H 322.601 -2.69973 -2.8394 0
M  V30 3556 H 324.298 -3.02895 -2.62784 0
M  V30 3557 H 320.888 -3.99034 -1.56429 0
M  V30 3558 H 325.072 -4.8438 -1.08118 0
M  V30 3559 H 320.328 -6.09877 -0.431344 0
M  V30 3560 H 324.502 -6.96386 0.0445072 0
M  V30 3561 H 322.129 -7.59273 0.375318 0
M  V30 3562 N 323.704 0.605807 -1.45491 0
M  V30 3563 C 325.12 0.926751 -1.29936 0
M  V30 3564 C 325.32 1.99896 -0.253706 0
M  V30 3565 O 324.376 2.50038 0.351737 0
M  V30 3566 C 325.689 1.36599 -2.67883 0
M  V30 3567 C 327.237 1.4801 -2.75793 0
M  V30 3568 C 327.712 1.95309 -4.14268 0
M  V30 3569 N 329.203 2.0254 -4.16571 0
M  V30 3570 C 329.938 2.40363 -5.20589 0
M  V30 3571 N 329.434 2.77143 -6.34952 0
M  V30 3572 N 331.227 2.40718 -5.07948 0
M  V30 3573 H 323.378 -0.102862 -2.12151 0
M  V30 3574 H 325.641 0.016639 -0.947854 0
M  V30 3575 H 325.347 0.652306 -3.45598 0
M  V30 3576 H 325.221 2.33215 -2.96463 0
M  V30 3577 H 327.608 2.1847 -1.98381 0
M  V30 3578 H 327.689 0.497041 -2.50925 0
M  V30 3579 H 327.333 1.25436 -4.92167 0
M  V30 3580 H 327.263 2.94532 -4.3653 0
M  V30 3581 H 329.754 1.76699 -3.34045 0
M  V30 3582 H 330.067 3.0489 -7.10114 0
M  V30 3583 H 328.412 2.74834 -6.3835 0
M  V30 3584 H 331.603 2.11392 -4.1765 0
M  V30 3585 H 331.776 2.69869 -5.89131 0
M  V30 3586 N 325.182 1.32811 0.848464 0
M  V30 3587 C 326.428 1.23907 1.60546 0
M  V30 3588 C 326.761 -0.197161 1.93197 0
M  V30 3589 O 326.036 -1.13596 1.5788 0
M  V30 3590 C 326.319 2.10489 2.92175 0
M  V30 3591 C 326.172 3.62522 2.66266 0
M  V30 3592 C 327.491 1.97075 3.93509 0
M  V30 3593 H 324.61 0.451459 0.58254 0
M  V30 3594 H 327.252 1.62818 0.979296 0
M  V30 3595 H 325.402 1.77434 3.45614 0
M  V30 3596 H 327.074 4.05821 2.19334 0
M  V30 3597 H 325.317 3.84879 2.00126 0
M  V30 3598 H 325.988 4.18437 3.6002 0
M  V30 3599 H 328.464 2.26045 3.49346 0
M  V30 3600 H 327.34 2.59923 4.83457 0
M  V30 3601 H 327.601 0.940186 4.31987 0
M  V30 3602 N 326.66 -1.06551 1.16123 0
M  V30 3603 C 327.908 -1.78947 0.939267 0
M  V30 3604 C 328.229 -1.87532 -0.534476 0
M  V30 3605 O 327.499 -1.38211 -1.38833 0
M  V30 3606 H 326.079 -0.662807 0.344523 0
M  V30 3607 H 328.741 -1.28725 1.46342 0
M  V30 3608 H 327.837 -2.81117 1.35572 0
M  V30 3609 N 328.138 -0.959301 -1.25041 0
M  V30 3610 C 329.415 -0.533805 -1.88175 0
M  V30 3611 C 329.795 0.988994 -1.865 0
M  V30 3612 O 329.143 1.85677 -1.33177 0
M  V30 3613 C 329.353 -1.11575 -3.30684 0
M  V30 3614 C 330.701 -1.19548 -4.07423 0
M  V30 3615 O 331.725 -1.06765 -3.39823 0
M  V30 3616 O 330.584 -1.39656 -5.28354 0
M  V30 3617 H 327.678 -0.176772 -0.807887 0
M  V30 3618 H 330.224 -1.05303 -1.33076 0
M  V30 3619 H 328.996 -2.15884 -3.26358 0
M  V30 3620 H 328.619 -0.580059 -3.93346 0
M  V30 3621 N 329.616 1.39756 -0.72842 0
M  V30 3622 C 330.546 2.33289 -0.0991354 0
M  V30 3623 C 331.527 1.53568 0.731489 0
M  V30 3624 O 332.712 1.81987 0.677807 0
M  V30 3625 C 329.842 3.3763 0.813834 0
M  V30 3626 C 328.796 4.2791 0.0878663 0
M  V30 3627 C 328.122 5.22894 1.11741 0
M  V30 3628 C 329.422 5.11314 -1.06563 0
M  V30 3629 H 331.116 2.86163 -0.880408 0
M  V30 3630 H 328.662 1.37591 -0.424819 0
M  V30 3631 H 330.615 4.0201 1.26355 0
M  V30 3632 H 329.339 2.83181 1.62715 0
M  V30 3633 H 327.998 3.65 -0.342159 0
M  V30 3634 H 327.646 4.64744 1.92412 0
M  V30 3635 H 327.346 5.84143 0.636477 0
M  V30 3636 H 328.87 5.90151 1.56697 0
M  V30 3637 H 330.284 5.69076 -0.694671 0
M  V30 3638 H 328.681 5.81671 -1.47577 0
M  V30 3639 H 329.751 4.46534 -1.89038 0
M  V30 3640 N 331.094 0.475555 1.50254 0
M  V30 3641 C 332.51 0.12997 1.5907 0
M  V30 3642 C 332.71 -1.36385 1.48328 0
M  V30 3643 O 331.766 -2.13754 1.34407 0
M  V30 3644 C 333.079 0.684139 2.92814 0
M  V30 3645 C 334.627 0.647965 3.0622 0
M  V30 3646 C 335.102 1.17975 4.42545 0
M  V30 3647 N 336.593 1.13936 4.48969 0
M  V30 3648 C 337.328 1.52129 5.52851 0
M  V30 3649 N 336.824 1.97793 6.63965 0
M  V30 3650 N 338.617 1.43704 5.4342 0
M  V30 3651 H 330.768 1.44706 1.55479 0
M  V30 3652 H 333.031 0.598691 0.735033 0
M  V30 3653 H 332.737 1.73079 3.06164 0
M  V30 3654 H 332.611 0.130204 3.76975 0
M  V30 3655 H 334.998 -0.38979 2.92514 0
M  V30 3656 H 335.079 1.23876 2.23805 0
M  V30 3657 H 334.723 2.21616 4.57 0
M  V30 3658 H 334.653 0.565138 5.23559 0
M  V30 3659 H 337.144 0.804488 3.69238 0
M  V30 3660 H 337.457 2.25072 7.39299 0
M  V30 3661 H 335.802 2.01749 6.65073 0
M  V30 3662 H 338.993 1.07867 4.55502 0
M  V30 3663 H 339.166 1.73794 6.24259 0
M  V30 3664 N 332.573 -1.56217 0.208337 0
M  V30 3665 C 333.521 -2.21053 -0.723769 0
M  V30 3666 C 334.515 -1.18578 -1.20978 0
M  V30 3667 O 335.721 -1.36691 -1.17114 0
M  V30 3668 H 332.096 -0.708595 -0.251788 0
M  V30 3669 H 334.067 -2.98006 -0.153365 0
M  V30 3670 C 332.816 -2.89417 -1.927 0
M  V30 3671 H 332.139 -3.68019 -1.56212 0
M  V30 3672 H 333.579 -3.38201 -2.55727 0
M  V30 3673 C 332.038 -1.91166 -2.77411 0
M  V30 3674 O 332.568 -1.42026 -3.75754 0
M  V30 3675 N 330.774 -1.59105 -2.43175 0
M  V30 3676 H 330.321 -1.99259 -1.63259 0
M  V30 3677 H 330.279 -0.936255 -3.00136 0
M  V30 3678 N 334.051 0.0651679 -1.57465 0
M  V30 3679 C 335.276 0.779605 -1.9219 0
M  V30 3680 C 335.701 1.69988 -0.805333 0
M  V30 3681 O 335.059 1.79685 0.241435 0
M  V30 3682 C 335.107 1.54364 -3.2589 0
M  V30 3683 O 334.211 2.65474 -3.1559 0
M  V30 3684 H 333.552 0.212249 -0.629163 0
M  V30 3685 H 336.082 0.0314294 -2.04576 0
M  V30 3686 H 336.092 1.92146 -3.59922 0
M  V30 3687 H 334.767 0.868457 -4.06732 0
M  V30 3688 H 333.344 2.30501 -2.93128 0
M  V30 3689 N 335.529 1.53961 0.336706 0
M  V30 3690 C 336.479 1.7881 1.41461 0
M  V30 3691 C 337.463 0.643561 1.47469 0
M  V30 3692 O 338.655 0.903166 1.52223 0
M  V30 3693 C 335.784 2.00722 2.78506 0
M  V30 3694 C 334.87 3.2126 2.76862 0
M  V30 3695 N 335.261 4.42588 2.44845 0
M  V30 3696 C 333.559 3.22568 3.08004 0
M  V30 3697 C 334.26 5.2447 2.51607 0
M  V30 3698 N 333.236 4.61344 2.87511 0
M  V30 3699 H 337.038 2.70205 1.15615 0
M  V30 3700 H 334.552 1.52978 0.545112 0
M  V30 3701 H 336.549 2.1666 3.5618 0
M  V30 3702 H 335.209 1.10573 3.05293 0
M  V30 3703 H 336.22 4.69819 2.17922 0
M  V30 3704 H 332.897 2.42409 3.39918 0
M  V30 3705 H 334.287 6.31324 2.29955 0
M  V30 3706 N 337.007 -0.598083 1.45811 0
M  V30 3707 C 338.256 -1.35295 1.49594 0
M  V30 3708 C 338.569 -1.95057 0.145679 0
M  V30 3709 O 339.775 -2.71431 0.0612099 0
M  V30 3710 C 338.231 -2.45124 2.63519 0
M  V30 3711 C 337.839 -1.91732 4.04899 0
M  V30 3712 C 339.583 -3.2205 2.76558 0
M  V30 3713 C 337.49 -2.991 5.1019 0
M  V30 3714 H 336.42 -0.508552 0.556679 0
M  V30 3715 H 339.071 -0.639977 1.71978 0
M  V30 3716 H 337.453 -3.19149 2.34435 0
M  V30 3717 H 338.627 -1.24352 4.43704 0
M  V30 3718 H 336.942 -1.27522 3.96393 0
M  V30 3719 H 339.539 -4.0215 3.52391 0
M  V30 3720 H 339.882 -3.73663 1.83526 0
M  V30 3721 H 340.415 -2.55127 3.05213 0
M  V30 3722 H 337.154 -2.52393 6.04961 0
M  V30 3723 H 336.674 -3.65017 4.75944 0
M  V30 3724 H 338.353 -3.63318 5.35359 0
M  V30 3725 N 338.485 -1.33259 -0.841409 0
M  V30 3726 C 339.731 -1.24757 -1.59886 0
M  V30 3727 C 340.064 0.186913 -1.93298 0
M  V30 3728 O 339.339 1.12757 -1.5848 0
M  V30 3729 C 339.622 -2.12036 -2.91055 0
M  V30 3730 C 339.475 -3.63929 -2.6434 0
M  V30 3731 C 340.794 -1.9916 -3.92458 0
M  V30 3732 H 337.913 -0.454542 -0.580138 0
M  V30 3733 H 340.555 -1.63335 -0.970647 0
M  V30 3734 H 338.705 -1.79265 -3.44669 0
M  V30 3735 H 340.377 -4.06978 -2.17178 0
M  V30 3736 H 338.62 -3.85935 -1.98082 0
M  V30 3737 H 339.291 -4.20341 -3.57796 0
M  V30 3738 H 341.767 -2.27895 -3.48143 0
M  V30 3739 H 340.643 -2.62484 -4.82072 0
M  V30 3740 H 340.904 -0.963082 -4.31482 0
M  V30 3741 N 339.963 1.05934 -1.16686 0
M  V30 3742 C 340.873 2.17014 -0.891183 0
M  V30 3743 C 341.889 1.73453 0.137907 0
M  V30 3744 O 343.065 2.01361 -0.039592 0
M  V30 3745 C 340.13 3.44384 -0.400099 0
M  V30 3746 C 339.191 4.02433 -1.49486 0
M  V30 3747 C 338.424 5.23723 -1.02711 0
M  V30 3748 O 338.647 5.7027 0.121716 0
M  V30 3749 O 337.581 5.7382 -1.81699 0
M  V30 3750 H 341.407 2.43113 -1.82015 0
M  V30 3751 H 338.992 1.15541 -0.947132 0
M  V30 3752 H 340.874 4.21189 -0.133392 0
M  V30 3753 H 339.549 3.19802 0.500817 0
M  V30 3754 H 338.456 3.27102 -1.81535 0
M  V30 3755 H 339.789 4.31317 -2.37121 0
M  V30 3756 N 341.441 0.965919 1.2453 0
M  V30 3757 C 342.404 0.499547 2.2369 0
M  V30 3758 C 343.404 -0.40294 1.5567 0
M  V30 3759 O 344.594 -0.19865 1.73064 0
M  V30 3760 C 341.726 -0.276792 3.39774 0
M  V30 3761 H 342.919 1.37613 2.66463 0
M  V30 3762 H 340.472 0.750324 1.37112 0
M  V30 3763 H 341.207 -1.17055 3.02438 0
M  V30 3764 H 340.992 0.370826 3.90343 0
M  V30 3765 H 342.482 -0.592175 4.1338 0
M  V30 3766 N 342.919 -1.39368 0.735821 0
M  V30 3767 C 344.144 -2.05319 0.293052 0
M  V30 3768 C 344.569 -1.55115 -1.064 0
M  V30 3769 O 343.927 -0.695261 -1.67439 0
M  V30 3770 C 343.975 -3.59305 0.305323 0
M  V30 3771 O 343.079 -4.06299 -0.706761 0
M  V30 3772 H 342.42 -0.650529 0.13307 0
M  V30 3773 H 344.95 -1.78386 1.00197 0
M  V30 3774 H 344.96 -4.07724 0.149997 0
M  V30 3775 H 343.635 -3.95207 1.29553 0
M  V30 3776 H 342.212 -3.69292 -0.517504 0
M  V30 3777 N 344.397 -0.483516 -1.5 0
M  V30 3778 C 345.646 0.0689102 -2.01582 0
M  V30 3779 C 345.959 1.39655 -1.36952 0
M  V30 3780 O 347.165 2.03465 -1.79762 0
M  V30 3781 C 345.621 0.173302 -3.59483 0
M  V30 3782 C 345.229 -1.14665 -4.33077 0
M  V30 3783 C 346.973 0.677024 -4.19066 0
M  V30 3784 C 344.88 -1.00537 -5.82792 0
M  V30 3785 H 343.81 0.0295277 -0.753422 0
M  V30 3786 H 346.461 -0.620295 -1.72698 0
M  V30 3787 H 344.843 0.926569 -3.85007 0
M  V30 3788 H 346.017 -1.91184 -4.19268 0
M  V30 3789 H 344.332 -1.58244 -3.85159 0
M  V30 3790 H 346.929 0.799952 -5.28682 0
M  V30 3791 H 347.272 1.67151 -3.81269 0
M  V30 3792 H 347.805 -0.0192083 -3.97795 0
M  V30 3793 H 344.544 -1.9736 -6.25083 0
M  V30 3794 H 344.064 -0.280776 -5.99142 0
M  V30 3795 H 345.743 -0.677 -6.43448 0
M  V30 3796 N 345.875 1.56104 -0.216619 0
M  V30 3797 C 347.291 1.58995 0.13886 0
M  V30 3798 C 347.491 1.23333 1.59346 0
M  V30 3799 O 346.547 0.966234 2.33281 0
M  V30 3800 C 347.86 3.00143 -0.182968 0
M  V30 3801 C 349.408 3.12751 -0.124807 0
M  V30 3802 C 349.883 4.56068 -0.420241 0
M  V30 3803 N 351.374 4.61723 -0.369634 0
M  V30 3804 C 352.109 5.70542 -0.571789 0
M  V30 3805 N 351.605 6.87744 -0.835453 0
M  V30 3806 N 353.398 5.59831 -0.504563 0
M  V30 3807 H 345.549 1.77562 -1.16557 0
M  V30 3808 H 347.812 0.825091 -0.466828 0
M  V30 3809 H 347.518 3.30871 -1.19237 0
M  V30 3810 H 347.392 3.73813 0.504367 0
M  V30 3811 H 349.779 2.81822 0.875223 0
M  V30 3812 H 349.86 2.41421 -0.845544 0
M  V30 3813 H 349.504 4.87713 -1.41769 0
M  V30 3814 H 349.434 5.25617 0.321631 0
M  V30 3815 H 351.925 3.77502 -0.173338 0
M  V30 3816 H 352.238 7.66587 -0.977938 0
M  V30 3817 H 350.583 6.895 -0.872592 0
M  V30 3818 H 353.774 4.67145 -0.298842 0
M  V30 3819 H 353.947 6.44573 -0.665519 0
M  V30 3820 N 347.353 -0.0568162 1.57498 0
M  V30 3821 C 348.316 -1.05038 2.03715 0
M  V30 3822 C 349.316 -1.30709 0.936577 0
M  V30 3823 O 350.506 -1.26178 1.20103 0
M  V30 3824 C 347.638 -2.39034 2.43055 0
M  V30 3825 H 348.831 -0.651715 2.92733 0
M  V30 3826 H 346.384 -0.302947 1.53336 0
M  V30 3827 H 347.119 -2.83703 1.57108 0
M  V30 3828 H 346.904 -2.21739 3.2338 0
M  V30 3829 H 348.394 -3.10421 2.79336 0
M  V30 3830 N 348.832 -1.54138 -0.328536 0
M  V30 3831 C 349.779 -1.83176 -1.40411 0
M  V30 3832 C 350.749 -0.678494 -1.5161 0
M  V30 3833 O 351.934 -0.92443 -1.6691 0
M  V30 3834 C 349.074 -2.06035 -2.76846 0
M  V30 3835 C 348.187 -3.33727 -2.74318 0
M  V30 3836 C 347.322 -3.46574 -4.02567 0
M  V30 3837 C 346.361 -4.68159 -3.94327 0
M  V30 3838 N 345.498 -4.77959 -5.14296 0
M  V30 3839 H 350.338 -2.74938 -1.14948 0
M  V30 3840 H 347.875 -1.36166 -0.556538 0
M  V30 3841 H 349.833 -2.1728 -3.56153 0
M  V30 3842 H 348.463 -1.1757 -3.00628 0
M  V30 3843 H 347.515 -3.31246 -1.8703 0
M  V30 3844 H 348.827 -4.23139 -2.64111 0
M  V30 3845 H 347.981 -3.57333 -4.90304 0
M  V30 3846 H 346.72 -2.55245 -4.15574 0
M  V30 3847 H 345.725 -4.57461 -3.04974 0
M  V30 3848 H 346.95 -5.60868 -3.82889 0
M  V30 3849 H 344.896 -3.89544 -5.27818 0
M  V30 3850 H 344.813 -5.6133 -5.06404 0
M  V30 3851 H 346.081 -4.93044 -6.03761 0
M  V30 3852 N 350.31 0.590341 -1.46126 0
M  V30 3853 C 351.24 1.71032 -1.58966 0
M  V30 3854 C 352.221 1.64302 -0.440335 0
M  V30 3855 O 353.406 1.82436 -0.665634 0
M  V30 3856 C 350.536 3.09665 -1.57241 0
M  V30 3857 C 349.49 3.31221 -2.71066 0
M  V30 3858 C 348.816 4.70303 -2.54399 0
M  V30 3859 C 350.116 3.19796 -4.1295 0
M  V30 3860 H 351.81 1.60543 -2.52718 0
M  V30 3861 H 349.356 0.770933 -1.21625 0
M  V30 3862 H 351.309 3.87831 -1.64819 0
M  V30 3863 H 350.033 3.21036 -0.600289 0
M  V30 3864 H 348.692 2.55452 -2.62944 0
M  V30 3865 H 348.34 4.78429 -1.55288 0
M  V30 3866 H 348.04 4.85679 -3.30741 0
M  V30 3867 H 349.564 5.50647 -2.63857 0
M  V30 3868 H 350.978 3.87815 -4.22223 0
M  V30 3869 H 349.375 3.46696 -4.89818 0
M  V30 3870 H 350.445 2.16983 -4.33643 0
M  V30 3871 N 351.788 1.33704 0.83433 0
M  V30 3872 C 353.037 1.24763 1.58484 0
M  V30 3873 C 353.35 -0.183775 1.94735 0
M  V30 3874 O 354.556 -0.395234 2.68608 0
M  V30 3875 C 353.012 2.18638 2.85876 0
M  V30 3876 C 352.62 3.66974 2.56971 0
M  V30 3877 C 354.364 2.18581 3.63899 0
M  V30 3878 C 352.271 4.5275 3.80488 0
M  V30 3879 H 351.201 0.463425 0.594772 0
M  V30 3880 H 353.852 1.58797 0.919551 0
M  V30 3881 H 352.234 1.77542 3.5397 0
M  V30 3882 H 353.408 4.16538 1.9706 0
M  V30 3883 H 351.723 3.69366 1.92244 0
M  V30 3884 H 354.32 2.79894 4.55591 0
M  V30 3885 H 354.663 1.18207 3.99165 0
M  V30 3886 H 355.196 2.58062 3.02735 0
M  V30 3887 H 351.935 5.54017 3.5035 0
M  V30 3888 H 351.455 4.07927 4.39722 0
M  V30 3889 H 353.134 4.66784 4.4802 0
M  V30 3890 N 353.266 -1.05314 1.17247 0
M  V30 3891 C 354.213 -2.13031 0.888058 0
M  V30 3892 C 355.183 -1.65253 -0.167537 0
M  V30 3893 O 356.368 -1.90775 -0.0305974 0
M  V30 3894 C 353.508 -3.42702 0.406147 0
M  V30 3895 C 352.621 -4.04161 1.52572 0
M  V30 3896 C 351.756 -5.21744 0.997808 0
M  V30 3897 C 350.795 -5.75207 2.09291 0
M  V30 3898 N 349.932 -6.84094 1.57986 0
M  V30 3899 H 354.772 -2.36698 1.81048 0
M  V30 3900 H 352.309 -1.16121 0.903013 0
M  V30 3901 H 354.267 -4.17059 0.108305 0
M  V30 3902 H 352.897 -3.19222 -0.479313 0
M  V30 3903 H 351.949 -3.27253 1.93931 0
M  V30 3904 H 353.261 -4.39881 2.35172 0
M  V30 3905 H 352.415 -6.03168 0.653739 0
M  V30 3906 H 351.154 -4.87495 0.141232 0
M  V30 3907 H 350.159 -4.92414 2.44557 0
M  V30 3908 H 351.384 -6.11505 2.95362 0
M  V30 3909 H 349.33 -6.51745 0.74598 0
M  V30 3910 H 349.247 -7.18811 2.34195 0
M  V30 3911 H 350.515 -7.69172 1.26468 0
M  V30 3912 N 354.744 -0.972509 -1.24016 0
M  V30 3913 C 355.969 -0.654417 -1.96805 0
M  V30 3914 C 356.394 0.770398 -1.716 0
M  V30 3915 O 355.752 1.52361 -0.982647 0
M  V30 3916 C 355.8 -0.941031 -3.48105 0
M  V30 3917 O 354.904 -0.0289472 -4.1239 0
M  V30 3918 H 354.245 -0.24692 -0.616382 0
M  V30 3919 H 356.775 -1.30396 -1.57664 0
M  V30 3920 H 356.785 -0.87452 -3.98517 0
M  V30 3921 H 355.46 -1.97939 -3.65777 0
M  V30 3922 H 354.037 -0.149192 -3.72601 0
M  V30 3923 N 356.222 1.38976 -0.743202 0
M  V30 3924 C 357.638 1.53984 -0.419664 0
M  V30 3925 C 357.838 1.70837 1.0685 0
M  V30 3926 O 356.894 1.7135 1.8546 0
M  V30 3927 C 358.207 2.75287 -1.20985 0
M  V30 3928 C 359.755 2.89129 -1.19889 0
M  V30 3929 C 360.23 4.13381 -1.97181 0
M  V30 3930 N 361.721 4.20437 -1.94389 0
M  V30 3931 C 362.456 5.15547 -2.50996 0
M  V30 3932 N 361.952 6.16395 -3.16274 0
M  V30 3933 N 363.745 5.07822 -2.40984 0
M  V30 3934 H 355.896 1.26285 -1.7078 0
M  V30 3935 H 358.159 0.612689 -0.723406 0
M  V30 3936 H 357.865 2.69204 -2.26323 0
M  V30 3937 H 357.739 3.68184 -0.819759 0
M  V30 3938 H 360.126 2.947 -0.153606 0
M  V30 3939 H 360.207 1.97272 -1.62841 0
M  V30 3940 H 359.851 4.08572 -3.01714 0
M  V30 3941 H 359.781 5.04298 -1.51629 0
M  V30 3942 H 362.272 3.48205 -1.46839 0
M  V30 3943 H 362.585 6.85443 -3.56915 0
M  V30 3944 H 360.93 6.16758 -3.20367 0
M  V30 3945 H 364.121 4.27973 -1.89622 0
M  V30 3946 H 364.294 5.81767 -2.85397 0
M  V30 3947 N 357.7 0.491464 1.49741 0
M  V30 3948 C 358.632 -0.328609 2.26832 0
M  V30 3949 C 359.645 -0.939113 1.32983 0
M  V30 3950 O 360.834 -0.824067 1.58339 0
M  V30 3951 C 357.934 -1.47675 3.05033 0
M  V30 3952 C 357.107 -0.975305 4.26388 0
M  V30 3953 C 356.166 -1.99991 4.86714 0
M  V30 3954 O 355.192 -1.57229 5.47054 0
M  V30 3955 N 356.394 -3.32962 4.75517 0
M  V30 3956 H 359.159 0.332377 2.97851 0
M  V30 3957 H 356.72 0.323441 1.58636 0
M  V30 3958 H 358.712 -2.15954 3.42266 0
M  V30 3959 H 357.282 -2.04206 2.36683 0
M  V30 3960 H 356.502 -0.117723 3.94024 0
M  V30 3961 H 357.79 -0.618531 5.05026 0
M  V30 3962 H 357.188 -3.70399 4.27576 0
M  V30 3963 H 355.745 -3.96982 5.16961 0
M  V30 3964 N 359.178 -1.55987 0.224894 0
M  V30 3965 C 360.406 -2.02784 -0.410665 0
M  V30 3966 C 360.821 -1.10464 -1.53112 0
M  V30 3967 O 360.178 -0.114871 -1.82138 0
M  V30 3968 C 360.229 -3.49087 -0.939165 0
M  V30 3969 O 359.95 -4.37887 0.136614 0
M  V30 3970 C 361.451 -4.11543 -1.64763 0
M  V30 3971 H 358.671 -0.663484 -0.100148 0
M  V30 3972 H 361.215 -2.01614 0.342326 0
M  V30 3973 H 359.37 -3.50861 -1.64242 0
M  V30 3974 H 359.784 -5.23849 -0.261155 0
M  V30 3975 H 361.258 -5.15673 -1.96939 0
M  V30 3976 H 361.735 -3.56736 -2.56195 0
M  V30 3977 H 362.341 -4.13629 -0.989503 0
M  V30 3978 N 360.656 0.0484629 -1.57525 0
M  V30 3979 C 361.603 1.05504 -2.05275 0
M  V30 3980 C 362.573 1.37084 -0.937927 0
M  V30 3981 O 363.758 1.47754 -1.2072 0
M  V30 3982 C 360.898 2.35676 -2.52093 0
M  V30 3983 C 360.011 2.10423 -3.77288 0
M  V30 3984 C 359.146 3.34327 -4.12794 0
M  V30 3985 C 358.185 3.04542 -5.30962 0
M  V30 3986 N 357.322 4.20841 -5.61994 0
M  V30 3987 H 362.162 0.640885 -2.91027 0
M  V30 3988 H 359.699 0.304854 -1.43906 0
M  V30 3989 H 361.657 3.11709 -2.77297 0
M  V30 3990 H 360.287 2.7485 -1.69285 0
M  V30 3991 H 359.339 1.24976 -3.59284 0
M  V30 3992 H 360.651 1.84438 -4.63448 0
M  V30 3993 H 359.805 4.1874 -4.39024 0
M  V30 3994 H 358.544 3.63408 -3.25247 0
M  V30 3995 H 357.549 2.18528 -5.04505 0
M  V30 3996 H 358.774 2.76758 -6.20146 0
M  V30 3997 H 356.72 4.4991 -4.77406 0
M  V30 3998 H 356.637 3.98212 -6.42622 0
M  V30 3999 H 357.905 5.06184 -5.92789 0
M  V30 4000 N 362.134 1.5431 0.320358 0
M  V30 4001 C 363.044 1.86946 1.41734 0
M  V30 4002 C 364.06 0.761689 1.56443 0
M  V30 4003 O 365.236 1.05629 1.71477 0
M  V30 4004 C 362.301 2.09293 2.76401 0
M  V30 4005 C 361.362 3.33082 2.70841 0
M  V30 4006 C 360.595 3.54353 3.99086 0
M  V30 4007 O 360.818 2.79002 4.97508 0
M  V30 4008 O 359.752 4.47838 4.0215 0
M  V30 4009 H 363.578 2.80232 1.17062 0
M  V30 4010 H 361.163 1.40255 0.514673 0
M  V30 4011 H 363.045 2.25303 3.56113 0
M  V30 4012 H 361.72 1.19194 3.00956 0
M  V30 4013 H 360.627 3.22454 1.89668 0
M  V30 4014 H 361.96 4.23249 2.5124 0
M  V30 4015 N 363.613 -0.582584 1.46437 0
M  V30 4016 C 364.861 -1.33814 1.51453 0
M  V30 4017 C 365.182 -1.94277 0.167792 0
M  V30 4018 O 364.452 -1.78566 -0.805677 0
M  V30 4019 H 363.032 -0.496838 0.557818 0
M  V30 4020 H 365.694 -0.682281 1.82568 0
M  V30 4021 H 364.79 -2.14479 2.26728 0
M  V30 4022 N 365.091 -1.34144 -0.827227 0
M  V30 4023 C 366.001 -1.27428 -1.96975 0
M  V30 4024 C 367.017 -0.182728 -1.73038 0
M  V30 4025 O 368.193 -0.408426 -1.97215 0
M  V30 4026 C 365.258 -1.02526 -3.31194 0
M  V30 4027 C 364.319 -2.20796 -3.68168 0
M  V30 4028 C 363.552 -1.97073 -4.95982 0
M  V30 4029 O 363.775 -0.926822 -5.6282 0
M  V30 4030 O 362.709 -2.83912 -5.30733 0
M  V30 4031 H 366.535 -2.23537 -2.05584 0
M  V30 4032 H 364.12 -1.14307 -0.961989 0
M  V30 4033 H 366.002 -0.904026 -4.11589 0
M  V30 4034 H 364.677 -0.0945389 -3.23562 0
M  V30 4035 H 363.584 -2.38477 -2.88235 0
M  V30 4036 H 364.917 -3.12243 -3.8048 0
M  V30 4037 N 366.569 1.04691 -1.17803 0
M  V30 4038 C 367.816 1.77782 -0.969532 0
M  V30 4039 C 368.144 1.87926 0.501401 0
M  V30 4040 O 367.399 1.37918 1.38842 0
M  V30 4041 C 367.698 3.21467 -1.56186 0
M  V30 4042 C 367.364 3.3137 -3.05786 0
M  V30 4043 C 366.026 3.3378 -3.46619 0
M  V30 4044 C 368.378 3.31976 -4.01797 0
M  V30 4045 C 365.706 3.34431 -4.82051 0
M  V30 4046 C 368.058 3.34167 -5.37136 0
M  V30 4047 C 366.722 3.34866 -5.77426 0
M  V30 4048 H 365.992 0.650549 -0.354777 0
M  V30 4049 H 368.639 1.23006 -1.46772 0
M  V30 4050 H 366.944 3.79203 -0.985515 0
M  V30 4051 H 368.641 3.76652 -1.37602 0
M  V30 4052 H 365.231 3.3021 -2.73238 0
M  V30 4053 H 369.415 3.29311 -3.71306 0
M  V30 4054 H 364.671 3.33285 -5.12573 0
M  V30 4055 H 368.845 3.33585 -6.11305 0
M  V30 4056 H 366.472 3.35124 -6.82346 0
M  V30 4057 N 368.047 0.979072 1.23499 0
M  V30 4058 C 369.296 0.642751 1.91185 0
M  V30 4059 C 369.609 -0.827253 1.77245 0
M  V30 4060 O 370.815 -1.27458 2.39722 0
M  V30 4061 C 369.271 1.09901 3.42709 0
M  V30 4062 C 368.879 2.59327 3.65313 0
M  V30 4063 C 370.623 0.836371 4.16179 0
M  V30 4064 C 368.53 2.98627 5.10467 0
M  V30 4065 H 367.46 0.236698 0.715884 0
M  V30 4066 H 370.111 1.1868 1.39955 0
M  V30 4067 H 368.493 0.48319 3.93041 0
M  V30 4068 H 369.667 3.26136 3.25533 0
M  V30 4069 H 367.982 2.83323 3.05151 0
M  V30 4070 H 370.579 1.10586 5.23139 0
M  V30 4071 H 370.922 -0.227509 4.15678 0
M  V30 4072 H 371.455 1.41371 3.71832 0
M  V30 4073 H 368.194 4.04133 5.16098 0
M  V30 4074 H 367.714 2.3651 5.51201 0
M  V30 4075 H 369.393 2.89159 5.78788 0
M  V30 4076 N 369.525 -1.3858 0.750561 0
M  V30 4077 C 370.936 -1.82927 0.373438 0
M  V30 4078 C 371.287 -1.62634 -1.09748 0
M  V30 4079 O 370.412 -1.12588 -1.84805 0
M  V30 4080 C 371.007 -3.32088 0.671029 0
M  V30 4081 C 369.566 -3.74795 0.34722 0
M  V30 4082 C 368.713 -2.61391 0.92575 0
M  V30 4083 H 371.664 -1.27351 0.946958 0
M  V30 4084 H 371.685 -3.80465 -0.0518269 0
M  V30 4085 H 371.197 -3.46826 1.74164 0
M  V30 4086 H 369.298 -3.65638 -0.716933 0
M  V30 4087 H 369.411 -4.71667 0.840656 0
M  V30 4088 H 367.775 -2.52265 0.351327 0
M  V30 4089 H 368.558 -2.78929 2.00133 0
M  V30 4090 N 371.003 -0.499398 -1.49478 0
M  V30 4091 C 371.933 0.269244 -2.31943 0
M  V30 4092 C 372.914 0.964054 -1.40143 0
M  V30 4093 O 374.099 0.955767 -1.69052 0
M  V30 4094 C 371.229 1.33504 -3.20615 0
M  V30 4095 C 370.183 0.760202 -4.21195 0
M  V30 4096 C 369.509 1.9264 -4.98792 0
M  V30 4097 C 370.809 -0.247661 -5.21712 0
M  V30 4098 H 372.503 -0.419082 -2.96452 0
M  V30 4099 H 370.049 -0.202988 -1.42562 0
M  V30 4100 H 372.002 1.88048 -3.77115 0
M  V30 4101 H 370.726 2.05253 -2.54045 0
M  V30 4102 H 369.385 0.23653 -3.65836 0
M  V30 4103 H 369.033 2.63154 -4.28671 0
M  V30 4104 H 368.733 1.54785 -5.66847 0
M  V30 4105 H 370.257 2.4762 -5.58137 0
M  V30 4106 H 371.671 0.209579 -5.72917 0
M  V30 4107 H 370.068 -0.541962 -5.97648 0
M  V30 4108 H 371.138 -1.16409 -4.7072 0
M  V30 4109 N 372.481 1.55866 -0.233164 0
M  V30 4110 C 373.429 2.22176 0.68851 0
M  V30 4111 C 374.423 1.20487 1.19076 0
M  V30 4112 O 375.629 1.38536 1.14925 0
M  V30 4113 H 372.004 0.712511 0.240483 0
M  V30 4114 H 373.975 2.98212 0.105935 0
M  V30 4115 C 372.724 2.92446 1.88071 0
M  V30 4116 H 372.047 3.70458 1.50337 0
M  V30 4117 H 373.487 3.42226 2.50314 0
M  V30 4118 C 371.946 1.95555 2.74335 0
M  V30 4119 O 372.476 1.47986 3.73447 0
M  V30 4120 N 370.682 1.62953 2.40613 0
M  V30 4121 H 370.229 2.01831 1.60069 0
M  V30 4122 H 370.187 0.983886 2.98609 0
M  V30 4123 N 373.959 -0.0401083 1.57549 0
M  V30 4124 C 374.891 -1.07149 2.02612 0
M  V30 4125 C 375.904 -1.33126 0.937085 0
M  V30 4126 O 377.093 -1.30808 1.21456 0
M  V30 4127 C 374.193 -2.41561 2.37701 0
M  V30 4128 C 373.366 -2.35096 3.68848 0
M  V30 4129 C 372.425 -3.51867 3.91249 0
M  V30 4130 O 371.451 -3.3186 4.62447 0
M  V30 4131 N 372.653 -4.73351 3.36035 0
M  V30 4132 H 375.418 -0.687485 2.91708 0
M  V30 4133 H 372.979 -0.228248 1.60283 0
M  V30 4134 H 374.971 -3.18379 2.49833 0
M  V30 4135 H 373.541 -2.71846 1.54332 0
M  V30 4136 H 372.761 -1.4345 3.67173 0
M  V30 4137 H 374.049 -2.27908 4.54901 0
M  V30 4138 H 373.447 -4.92507 2.78304 0
M  V30 4139 H 372.004 -5.47572 3.53565 0
M  V30 4140 N 375.437 -1.54477 -0.31217 0
M  V30 4141 C 376.665 -1.77205 -1.068 0
M  V30 4142 C 377.08 -0.526114 -1.81321 0
M  V30 4143 O 376.437 0.503647 -1.75413 0
M  V30 4144 C 376.488 -2.97253 -2.05725 0
M  V30 4145 O 376.209 -4.1703 -1.34228 0
M  V30 4146 C 377.71 -3.32281 -2.93435 0
M  V30 4147 H 374.93 -0.591287 -0.317208 0
M  V30 4148 H 377.474 -2.01398 -0.354834 0
M  V30 4149 H 375.629 -2.753 -2.72559 0
M  V30 4150 H 376.043 -4.84636 -2.00571 0
M  V30 4151 H 377.517 -4.19551 -3.58721 0
M  V30 4152 H 377.994 -2.49945 -3.61143 0
M  V30 4153 H 378.6 -3.56353 -2.32147 0
M  V30 4154 N 376.915 0.57481 -1.46744 0
M  V30 4155 C 378.192 1.3352 -1.4294 0
M  V30 4156 C 378.572 2.10775 -0.117009 0
M  V30 4157 O 377.92 2.09966 0.901474 0
M  V30 4158 C 378.13 2.25456 -2.66403 0
M  V30 4159 C 379.478 2.87035 -3.12883 0
M  V30 4160 O 380.502 2.35766 -2.67007 0
M  V30 4161 O 379.361 3.80179 -3.92589 0
M  V30 4162 H 376.455 0.600318 -0.568812 0
M  V30 4163 H 379.001 0.595171 -1.58921 0
M  V30 4164 H 377.773 1.67851 -3.53471 0
M  V30 4165 H 377.396 3.06785 -2.52921 0
M  V30 4166 N 378.394 1.34581 0.820102 0
M  V30 4167 C 379.643 1.26437 1.57151 0
M  V30 4168 C 379.956 -0.163111 1.94919 0
M  V30 4169 O 381.162 -0.366722 2.69012 0
M  V30 4170 C 379.618 2.21658 2.83541 0
M  V30 4171 C 379.226 3.69679 2.53065 0
M  V30 4172 C 380.97 2.22428 3.61561 0
M  V30 4173 C 378.877 4.56761 3.75664 0
M  V30 4174 H 377.807 0.469707 0.589823 0
M  V30 4175 H 380.458 1.59763 0.902656 0
M  V30 4176 H 378.84 1.81287 3.52067 0
M  V30 4177 H 380.014 4.18605 1.92631 0
M  V30 4178 H 378.329 3.71384 1.88316 0
M  V30 4179 H 380.926 2.8471 4.52597 0
M  V30 4180 H 381.269 1.22434 3.97889 0
M  V30 4181 H 381.802 2.61259 2.99981 0
M  V30 4182 H 378.541 5.57702 3.44454 0
M  V30 4183 H 378.061 4.12568 4.35371 0
M  V30 4184 H 379.74 4.71509 4.43044 0
M  V30 4185 N 379.872 -1.04064 1.18357 0
M  V30 4186 C 380.82 -2.14187 0.907007 0
M  V30 4187 C 381.814 -1.68879 -0.132725 0
M  V30 4188 O 383.02 -1.79993 0.0154248 0
M  V30 4189 H 379.395 -0.699585 0.275835 0
M  V30 4190 H 381.366 -2.34711 1.84264 0
M  V30 4191 C 380.115 -3.44785 0.449254 0
M  V30 4192 H 379.438 -3.80058 1.24081 0
M  V30 4193 H 380.878 -4.22974 0.294737 0
M  V30 4194 C 379.337 -3.26391 -0.834909 0
M  V30 4195 O 379.867 -3.53973 -1.89911 0
M  V30 4196 N 378.073 -2.79726 -0.787523 0
M  V30 4197 H 377.62 -2.5748 0.0787347 0
M  V30 4198 H 377.578 -2.67798 -1.64716 0
M  V30 4199 N 381.35 -0.985608 -1.22978 0
M  V30 4200 C 382.596 -0.65836 -1.91816 0
M  V30 4201 C 382.929 0.806692 -1.76653 0
M  V30 4202 O 382.204 1.58252 -1.13078 0
M  V30 4203 C 382.487 -1.056 -3.44268 0
M  V30 4204 C 382.34 -2.57906 -3.68516 0
M  V30 4205 C 383.659 -0.603781 -4.35939 0
M  V30 4206 H 380.778 -0.24065 -0.696604 0
M  V30 4207 H 383.42 -1.22783 -1.44998 0
M  V30 4208 H 381.57 -0.571445 -3.84274 0
M  V30 4209 H 383.242 -3.13976 -3.3796 0
M  V30 4210 H 381.485 -3.00305 -3.13048 0
M  V30 4211 H 382.156 -2.80779 -4.75255 0
M  V30 4212 H 384.632 -1.01987 -4.03408 0
M  V30 4213 H 383.508 -0.910383 -5.41298 0
M  V30 4214 H 383.769 0.495761 -4.39312 0
M  V30 4215 N 382.828 1.3818 -0.7579 0
M  V30 4216 C 384.076 1.99624 -0.315361 0
M  V30 4217 C 384.397 1.60464 1.10799 0
M  V30 4218 O 383.667 0.863507 1.75842 0
M  V30 4219 H 382.247 0.73831 -0.113611 0
M  V30 4220 H 384.909 1.68878 -0.972952 0
M  V30 4221 H 384.005 3.09754 -0.381931 0
M  V30 4222 N 384.306 0.507319 1.49211 0
M  V30 4223 C 385.553 -0.0349529 2.0247 0
M  V30 4224 C 385.881 -1.36409 1.38647 0
M  V30 4225 O 385.136 -1.88841 0.513566 0
M  V30 4226 C 385.435 -0.229513 3.56662 0
M  V30 4227 C 385.101 1.02241 4.39156 0
M  V30 4228 C 383.763 1.36557 4.61417 0
M  V30 4229 C 386.115 1.85428 4.871 0
M  V30 4230 C 383.443 2.53999 5.28868 0
M  V30 4231 C 385.795 3.02028 5.55843 0
M  V30 4232 C 384.459 3.36717 5.76349 0
M  V30 4233 H 383.729 -0.0127902 0.74089 0
M  V30 4234 H 386.376 0.668756 1.79443 0
M  V30 4235 H 384.681 -1.0158 3.78403 0
M  V30 4236 H 386.378 -0.663641 3.9547 0
M  V30 4237 H 382.968 0.745124 4.22073 0
M  V30 4238 H 387.152 1.6023 4.69723 0
M  V30 4239 H 382.408 2.81105 5.42946 0
M  V30 4240 H 386.582 3.66808 5.91967 0
M  V30 4241 H 384.209 4.27821 6.28389 0
M  V30 4242 N 385.784 -1.5574 0.241426 0
M  V30 4243 C 387.061 -1.90704 -0.434881 0
M  V30 4244 C 387.441 -1.16145 -1.76277 0
M  V30 4245 O 386.789 -0.277152 -2.26813 0
M  V30 4246 C 386.999 -3.43657 -0.608343 0
M  V30 4247 C 388.347 -4.14806 -0.906725 0
M  V30 4248 O 389.371 -3.49366 -0.694408 0
M  V30 4249 O 388.23 -5.30548 -1.31075 0
M  V30 4250 H 385.324 -0.793592 -0.23268 0
M  V30 4251 H 387.87 -1.67288 0.285086 0
M  V30 4252 H 386.642 -3.89927 0.327505 0
M  V30 4253 H 386.265 -3.72918 -1.37906 0
M  V30 4254 N 387.262 0.0317525 -1.57568 0
M  V30 4255 C 388.49 0.734949 -1.93407 0
M  V30 4256 C 388.905 1.69036 -0.84096 0
M  V30 4257 O 388.262 1.81582 0.182836 0
M  V30 4258 C 388.313 1.49432 -3.29169 0
M  V30 4259 O 388.034 0.577261 -4.3428 0
M  V30 4260 C 389.535 2.29492 -3.79273 0
M  V30 4261 H 386.755 0.206706 -0.638368 0
M  V30 4262 H 389.299 -0.00992046 -2.04498 0
M  V30 4263 H 387.454 2.1911 -3.19483 0
M  V30 4264 H 387.868 1.10952 -5.1263 0
M  V30 4265 H 389.342 2.78172 -4.76785 0
M  V30 4266 H 389.819 3.10794 -3.10328 0
M  V30 4267 H 390.425 1.64894 -3.92033 0
M  V30 4268 N 388.74 1.54641 0.303973 0
M  V30 4269 C 389.988 1.73437 1.0375 0
M  V30 4270 C 390.309 0.521449 1.87899 0
M  V30 4271 O 389.579 -0.46432 1.90318 0
M  V30 4272 H 388.159 0.639518 0.386039 0
M  V30 4273 H 390.821 1.91988 0.335675 0
M  V30 4274 H 389.917 2.62235 1.69231 0
M  V30 4275 N 390.218 -0.567019 1.47046 0
M  V30 4276 C 391.495 -1.3276 1.43646 0
M  V30 4277 C 391.875 -2.1071 0.128186 0
M  V30 4278 O 391.223 -2.10441 -0.890326 0
M  V30 4279 C 391.433 -2.2404 2.67595 0
M  V30 4280 C 392.781 -2.85372 3.14401 0
M  V30 4281 O 393.805 -2.34346 2.68254 0
M  V30 4282 O 392.664 -3.78091 3.946 0
M  V30 4283 H 389.758 -0.597293 0.571988 0
M  V30 4284 H 392.304 -0.586735 1.59234 0
M  V30 4285 H 391.076 -1.65975 3.54356 0
M  V30 4286 H 390.699 -3.05439 2.54544 0
M  V30 4287 N 391.696 -1.35014 -0.812953 0
M  V30 4288 C 392.973 -1.18502 -1.55617 0
M  V30 4289 C 393.353 0.238421 -2.09749 0
M  V30 4290 O 392.701 1.2411 -1.91857 0
M  V30 4291 C 392.911 -2.24783 -2.66971 0
M  V30 4292 C 394.259 -2.60268 -3.35478 0
M  V30 4293 O 395.283 -2.23648 -2.77236 0
M  V30 4294 O 394.142 -3.2321 -4.40678 0
M  V30 4295 H 391.236 -0.459984 -0.687272 0
M  V30 4296 H 393.782 -1.46677 -0.853464 0
M  V30 4297 H 392.554 -3.20284 -2.24798 0
M  V30 4298 H 392.177 -1.97841 -3.44884 0
M  V30 4299 N 393.175 1.03435 -1.18907 0
M  V30 4300 C 394.591 1.28973 -0.940111 0
M  V30 4301 C 394.791 1.97676 0.390691 0
M  V30 4302 O 393.847 2.26127 1.12352 0
M  V30 4303 C 395.16 2.14221 -2.11021 0
M  V30 4304 C 396.708 2.27547 -2.14922 0
M  V30 4305 C 397.183 3.16164 -3.31367 0
M  V30 4306 N 398.674 3.23752 -3.31269 0
M  V30 4307 C 399.409 3.92495 -4.18014 0
M  V30 4308 N 398.905 4.63515 -5.14904 0
M  V30 4309 N 400.698 3.88838 -4.05908 0
M  V30 4310 H 392.849 0.57252 -2.04538 0
M  V30 4311 H 395.112 0.315184 -0.894071 0
M  V30 4312 H 394.818 1.71054 -3.073 0
M  V30 4313 H 394.692 3.14919 -2.0762 0
M  V30 4314 H 397.079 2.69947 -1.19217 0
M  V30 4315 H 397.16 1.26418 -2.22378 0
M  V30 4316 H 396.804 2.74474 -4.27348 0
M  V30 4317 H 396.734 4.17339 -3.21148 0
M  V30 4318 H 399.225 2.73167 -2.61129 0
M  V30 4319 H 399.538 5.13583 -5.77453 0
M  V30 4320 H 397.883 4.62398 -5.18857 0
M  V30 4321 H 401.074 3.32491 -3.29495 0
M  V30 4322 H 401.247 4.4214 -4.73726 0
M  V30 4323 N 394.653 0.992116 1.22453 0
M  V30 4324 C 395.583 0.561677 2.26644 0
M  V30 4325 C 396.564 -0.411055 1.65059 0
M  V30 4326 O 397.749 -0.301861 1.9184 0
M  V30 4327 C 394.879 -0.125247 3.47074 0
M  V30 4328 C 393.833 0.765948 4.21091 0
M  V30 4329 C 393.159 -0.0538484 5.34673 0
M  V30 4330 C 394.459 2.06242 4.79856 0
M  V30 4331 H 396.153 1.43259 2.62902 0
M  V30 4332 H 393.699 0.690283 1.26377 0
M  V30 4333 H 395.652 -0.437764 4.1912 0
M  V30 4334 H 394.376 -1.03069 3.0991 0
M  V30 4335 H 393.035 1.0621 3.50878 0
M  V30 4336 H 392.683 -0.960188 4.9375 0
M  V30 4337 H 392.383 0.539415 5.85119 0
M  V30 4338 H 393.907 -0.360477 6.09535 0
M  V30 4339 H 395.321 1.8139 5.43848 0
M  V30 4340 H 393.718 2.60444 5.40638 0
M  V30 4341 H 394.788 2.74167 3.99951 0
M  V30 4342 N 396.131 -1.37776 0.765217 0
M  V30 4343 C 397.378 -1.99849 0.326588 0
M  V30 4344 C 397.706 -1.60746 -1.09504 0
M  V30 4345 O 396.961 -0.84202 -1.76659 0
M  V30 4346 C 397.26 -3.5504 0.410053 0
M  V30 4347 C 396.926 -4.13891 1.78899 0
M  V30 4348 C 395.588 -4.29678 2.16635 0
M  V30 4349 C 397.94 -4.46236 2.69301 0
M  V30 4350 C 395.268 -4.7511 3.44221 0
M  V30 4351 C 397.62 -4.93089 3.9629 0
M  V30 4352 C 396.284 -5.07082 4.34078 0
M  V30 4353 H 395.554 -0.7313 0.119507 0
M  V30 4354 H 398.201 -1.64645 0.977968 0
M  V30 4355 H 396.506 -3.90451 -0.324878 0
M  V30 4356 H 398.203 -4.00966 0.0520699 0
M  V30 4357 H 394.793 -4.02026 1.48569 0
M  V30 4358 H 398.977 -4.3363 2.41409 0
M  V30 4359 H 394.233 -4.84129 3.73402 0
M  V30 4360 H 398.407 -5.17084 4.66472 0
M  V30 4361 H 396.034 -5.42046 5.33001 0
M  V30 4362 N 397.609 -0.515225 -1.4894 0
M  V30 4363 C 398.539 0.244628 -2.32215 0
M  V30 4364 C 399.52 0.949136 -1.41157 0
M  V30 4365 O 400.705 0.937783 -1.70057 0
M  V30 4366 C 397.835 1.30096 -3.22013 0
M  V30 4367 C 396.789 0.715486 -4.21977 0
M  V30 4368 C 396.115 1.87339 -5.00808 0
M  V30 4369 C 397.415 -0.302982 -5.2142 0
M  V30 4370 H 399.109 -0.450501 -2.95991 0
M  V30 4371 H 396.655 -0.218098 -1.42339 0
M  V30 4372 H 398.608 1.84037 -3.79089 0
M  V30 4373 H 397.332 2.02547 -2.56207 0
M  V30 4374 H 395.991 0.197715 -3.66066 0
M  V30 4375 H 395.639 2.58592 -4.31438 0
M  V30 4376 H 395.339 1.48764 -5.68457 0
M  V30 4377 H 396.863 2.41686 -5.60732 0
M  V30 4378 H 398.277 0.148802 -5.73107 0
M  V30 4379 H 396.674 -0.60532 -5.97039 0
M  V30 4380 H 397.744 -1.21395 -4.69459 0
M  V30 4381 N 399.087 1.5561 -0.249682 0
M  V30 4382 C 400.333 1.99306 0.374841 0
M  V30 4383 C 400.666 1.13767 1.57387 0
M  V30 4384 O 399.941 0.201711 1.93451 0
M  V30 4385 C 400.224 3.51507 0.781986 0
M  V30 4386 C 400.077 4.4781 -0.422629 0
M  V30 4387 C 401.396 4.08884 1.62793 0
M  V30 4388 H 398.515 0.724572 0.134773 0
M  V30 4389 H 401.157 1.86719 -0.351549 0
M  V30 4390 H 399.307 3.62363 1.4009 0
M  V30 4391 H 400.979 4.48931 -1.06108 0
M  V30 4392 H 399.222 4.20518 -1.06524 0
M  V30 4393 H 399.893 5.51919 -0.0943766 0
M  V30 4394 H 402.369 4.01147 1.10547 0
M  V30 4395 H 401.245 5.1564 1.88166 0
M  V30 4396 H 401.506 3.57515 2.60068 0
M  V30 4397 N 400.565 -0.0233959 1.57583 0
M  V30 4398 C 401.79 -0.728376 1.94189 0
M  V30 4399 C 402.215 -1.67793 0.850119 0
M  V30 4400 O 401.573 -1.80262 -0.19371 0
M  V30 4401 C 401.621 -1.45669 3.29868 0
M  V30 4402 O 400.725 -2.57013 3.22518 0
M  V30 4403 H 400.066 -0.195493 0.63457 0
M  V30 4404 H 402.596 0.0228214 2.04587 0
M  V30 4405 H 402.606 -1.82535 3.6489 0
M  V30 4406 H 401.281 -0.760314 4.08891 0
M  V30 4407 H 399.858 -2.22648 2.99136 0
M  V30 4408 N 402.043 -1.548 -0.295768 0
M  V30 4409 C 403.454 -1.65274 -0.868411 0
M  V30 4410 C 403.805 -0.56481 -1.87894 0
M  V30 4411 O 402.93 0.29767 -2.14343 0
M  V30 4412 C 403.525 -2.99603 -1.58188 0
M  V30 4413 C 402.084 -3.12181 -2.10286 0
M  V30 4414 C 401.231 -2.6098 -0.93727 0
M  V30 4415 H 404.182 -1.58534 -0.0726422 0
M  V30 4416 H 404.203 -2.91319 -2.44772 0
M  V30 4417 H 403.715 -3.78764 -0.846151 0
M  V30 4418 H 401.816 -2.3775 -2.8689 0
M  V30 4419 H 401.929 -4.18415 -2.33379 0
M  V30 4420 H 400.293 -2.17564 -1.32431 0
M  V30 4421 H 401.076 -3.42623 -0.215414 0
M  V30 4422 N 403.521 0.559213 -1.47345 0
M  V30 4423 C 404.451 1.67622 -1.62558 0
M  V30 4424 C 405.432 1.63331 -0.475087 0
M  V30 4425 O 406.617 1.80983 -0.704182 0
M  V30 4426 C 403.747 3.0626 -1.63774 0
M  V30 4427 C 402.701 3.25397 -2.7803 0
M  V30 4428 C 402.027 4.64801 -2.64318 0
M  V30 4429 C 403.327 3.10965 -4.19641 0
M  V30 4430 H 405.021 1.55146 -2.56067 0
M  V30 4431 H 402.567 0.744961 -1.23233 0
M  V30 4432 H 404.52 3.84247 -1.73008 0
M  V30 4433 H 403.244 3.1969 -0.66825 0
M  V30 4434 H 401.903 2.49817 -2.68304 0
M  V30 4435 H 401.551 4.75028 -1.65401 0
M  V30 4436 H 401.251 4.78555 -3.40968 0
M  V30 4437 H 402.775 5.44926 -2.75478 0
M  V30 4438 H 404.189 3.78772 -4.30354 0
M  V30 4439 H 402.586 3.36229 -4.97062 0
M  V30 4440 H 403.656 2.07736 -4.38148 0
M  V30 4441 N 404.999 1.35443 0.805782 0
M  V30 4442 C 406.248 1.28097 1.55801 0
M  V30 4443 C 406.561 -0.142428 1.95081 0
M  V30 4444 O 407.767 -0.33817 2.69386 0
M  V30 4445 C 406.223 2.24653 2.81174 0
M  V30 4446 C 405.831 3.72342 2.49129 0
M  V30 4447 C 407.575 2.2625 3.59181 0
M  V30 4448 C 405.482 4.60719 3.70799 0
M  V30 4449 H 404.412 0.475937 0.584808 0
M  V30 4450 H 407.063 1.60712 0.885661 0
M  V30 4451 H 405.445 1.85011 3.50124 0
M  V30 4452 H 406.619 4.20624 1.88181 0
M  V30 4453 H 404.934 3.73361 1.84366 0
M  V30 4454 H 407.531 2.89495 4.49552 0
M  V30 4455 H 407.874 1.26647 3.96568 0
M  V30 4456 H 408.407 2.64426 2.97193 0
M  V30 4457 H 405.146 5.61324 3.3852 0
M  V30 4458 H 404.666 4.17163 4.3097 0
M  V30 4459 H 406.345 4.76182 4.38018 0
M  V30 4460 N 406.477 -1.02803 1.19454 0
M  V30 4461 C 407.726 -1.7562 0.991996 0
M  V30 4462 C 408.039 -1.89672 -0.477901 0
M  V30 4463 O 409.245 -2.59468 -0.799287 0
M  V30 4464 C 407.701 -3.15812 1.72601 0
M  V30 4465 C 407.309 -3.0981 3.23607 0
M  V30 4466 C 409.053 -3.92918 1.60674 0
M  V30 4467 C 406.96 -4.44939 3.89594 0
M  V30 4468 H 405.89 -0.658352 0.367543 0
M  V30 4469 H 408.541 -1.15044 1.42959 0
M  V30 4470 H 406.923 -3.7686 1.21624 0
M  V30 4471 H 408.097 -2.58138 3.81709 0
M  V30 4472 H 406.412 -2.46201 3.35819 0
M  V30 4473 H 409.009 -4.9287 2.07323 0
M  V30 4474 H 409.352 -4.12502 0.561025 0
M  V30 4475 H 409.885 -3.38472 2.09001 0
M  V30 4476 H 406.624 -4.30559 4.94267 0
M  V30 4477 H 406.144 -4.96664 3.36281 0
M  V30 4478 H 407.823 -5.1382 3.93189 0
M  V30 4479 N 407.956 -0.998596 -1.21925 0
M  V30 4480 C 409.181 -0.696015 -1.95372 0
M  V30 4481 C 409.606 0.733826 -1.73195 0
M  V30 4482 O 408.964 1.50242 -1.01474 0
M  V30 4483 C 409.012 -1.01466 -3.4603 0
M  V30 4484 O 408.116 -0.116415 -4.12236 0
M  V30 4485 H 407.457 -0.259938 -0.611006 0
M  V30 4486 H 409.987 -1.33711 -1.54863 0
M  V30 4487 H 409.997 -0.958855 -3.96573 0
M  V30 4488 H 408.672 -2.05653 -3.61497 0
M  V30 4489 H 407.249 -0.228193 -3.72201 0
M  V30 4490 N 409.434 1.37368 -0.772513 0
M  V30 4491 C 410.384 2.27613 -0.132823 0
M  V30 4492 C 411.368 1.46138 0.673247 0
M  V30 4493 O 412.56 1.68686 0.536095 0
M  V30 4494 C 409.689 3.35122 0.744864 0
M  V30 4495 C 408.775 4.24044 -0.0690771 0
M  V30 4496 N 409.166 4.93355 -1.1151 0
M  V30 4497 C 407.464 4.45731 0.154782 0
M  V30 4498 C 408.165 5.59 -1.60917 0
M  V30 4499 N 407.141 5.35737 -0.921222 0
M  V30 4500 H 410.943 2.78675 -0.933681 0
M  V30 4501 H 408.457 1.50494 -0.610342 0
M  V30 4502 H 410.454 3.98683 1.21892 0
M  V30 4503 H 409.114 2.85616 1.54446 0
M  V30 4504 H 410.125 4.95785 -1.49726 0
M  V30 4505 H 406.802 4.07096 0.926224 0
M  V30 4506 H 408.192 6.24395 -2.48153 0
M  V30 4507 N 410.912 0.523116 1.48665 0
M  V30 4508 C 411.822 -0.247406 2.33292 0
M  V30 4509 C 412.838 -0.945769 1.46052 0
M  V30 4510 O 414.014 -0.922253 1.79043 0
M  V30 4511 C 411.079 -1.28487 3.22012 0
M  V30 4512 C 410.14 -0.597592 4.2512 0
M  V30 4513 C 409.373 -1.58563 5.09601 0
M  V30 4514 O 409.596 -2.81763 4.95949 0
M  V30 4515 O 408.53 -1.12879 5.91221 0
M  V30 4516 H 412.356 0.445869 3.00409 0
M  V30 4517 H 409.941 0.284128 1.46673 0
M  V30 4518 H 411.823 -1.88459 3.7691 0
M  V30 4519 H 410.498 -1.96068 2.57564 0
M  V30 4520 H 409.405 0.0424407 3.74076 0
M  V30 4521 H 410.738 0.0361517 4.92187 0
M  V30 4522 N 412.39 -1.55475 0.257931 0
M  V30 4523 C 413.639 -1.98383 -0.364275 0
M  V30 4524 C 413.952 -1.14952 -1.58258 0
M  V30 4525 O 415.158 -1.47924 -2.27664 0
M  V30 4526 C 413.614 -3.53037 -0.699479 0
M  V30 4527 C 413.222 -4.45223 0.498046 0
M  V30 4528 C 414.966 -4.04575 -1.28526 0
M  V30 4529 C 412.873 -5.91238 0.138383 0
M  V30 4530 H 411.803 -0.740911 -0.13988 0
M  V30 4531 H 414.454 -1.79936 0.359883 0
M  V30 4532 H 412.836 -3.6722 -1.48207 0
M  V30 4533 H 414.01 -4.42803 1.27522 0
M  V30 4534 H 412.325 -4.04226 0.999503 0
M  V30 4535 H 414.922 -5.11196 -1.56788 0
M  V30 4536 H 415.265 -3.5258 -2.21344 0
M  V30 4537 H 415.798 -3.93762 -0.565337 0
M  V30 4538 H 412.537 -6.47294 1.03398 0
M  V30 4539 H 412.057 -5.96768 -0.602374 0
M  V30 4540 H 413.736 -6.46413 -0.27553 0
M  V30 4541 N 413.868 0.0150385 -1.57593 0
M  V30 4542 C 414.816 1.02958 -2.08572 0
M  V30 4543 C 415.81 1.36554 -1.00246 0
M  V30 4544 O 417.016 1.35295 -1.18724 0
M  V30 4545 H 413.391 0.349619 -0.665786 0
M  V30 4546 H 415.362 0.573932 -2.92829 0
M  V30 4547 C 414.111 2.31752 -2.59203 0
M  V30 4548 H 413.434 2.06765 -3.42182 0
M  V30 4549 H 414.874 3.01053 -2.98568 0
M  V30 4550 C 413.333 3.01692 -1.49945 0
M  V30 4551 O 413.863 3.92083 -0.873704 0
M  V30 4552 N 412.069 2.6326 -1.23056 0
M  V30 4553 H 411.616 1.89838 -1.74125 0
M  V30 4554 H 411.574 3.10372 -0.501685 0
M  V30 4555 N 415.346 1.54954 0.287554 0
M  V30 4556 C 416.278 1.83224 1.37701 0
M  V30 4557 C 417.291 0.715898 1.46215 0
M  V30 4558 O 418.48 0.993565 1.48292 0
M  V30 4559 C 415.58 1.96723 2.75959 0
M  V30 4560 C 414.753 3.27253 2.90215 0
M  V30 4561 C 413.812 3.30998 4.09056 0
M  V30 4562 O 412.838 4.04457 4.00503 0
M  V30 4563 N 414.04 2.57353 5.20336 0
M  V30 4564 H 416.805 2.77254 1.138 0
M  V30 4565 H 414.366 1.54694 0.477652 0
M  V30 4566 H 416.358 1.96615 3.5373 0
M  V30 4567 H 414.928 1.09626 2.92747 0
M  V30 4568 H 414.148 3.40022 1.99447 0
M  V30 4569 H 415.436 4.13365 2.96659 0
M  V30 4570 H 414.834 1.97327 5.30169 0
M  V30 4571 H 413.391 2.62984 5.96391 0
M  V30 4572 N 416.824 -0.551391 1.4764 0
M  V30 4573 C 417.771 -1.65796 1.60563 0
M  V30 4574 C 418.741 -1.59932 0.448428 0
M  V30 4575 O 419.926 -1.78679 0.669222 0
M  V30 4576 C 417.066 -3.04108 1.63133 0
M  V30 4577 C 416.179 -3.20365 2.89811 0
M  V30 4578 C 415.314 -4.49109 2.8368 0
M  V30 4579 C 414.353 -4.58819 4.05156 0
M  V30 4580 N 413.49 -5.78926 3.97227 0
M  V30 4581 H 418.33 -1.54088 2.5507 0
M  V30 4582 H 415.867 -0.75052 1.26513 0
M  V30 4583 H 417.825 -3.84207 1.62606 0
M  V30 4584 H 416.455 -3.14637 0.721341 0
M  V30 4585 H 415.507 -2.33659 3.00179 0
M  V30 4586 H 416.819 -3.23402 3.79753 0
M  V30 4587 H 415.973 -5.37475 2.81434 0
M  V30 4588 H 414.712 -4.4856 1.91431 0
M  V30 4589 H 413.717 -3.68864 4.077 0
M  V30 4590 H 414.942 -4.61124 4.98539 0
M  V30 4591 H 412.888 -5.79314 3.07785 0
M  V30 4592 H 412.805 -5.83367 4.80853 0
M  V30 4593 H 414.073 -6.69637 3.99007 0
M  V30 4594 N 418.302 -1.35869 -0.798587 0
M  V30 4595 C 419.527 -1.32883 -1.59238 0
M  V30 4596 C 419.952 0.0894587 -1.87887 0
M  V30 4597 O 419.31 1.05869 -1.47178 0
M  V30 4598 C 419.358 -2.14892 -2.89575 0
M  V30 4599 O 418.462 -1.53512 -3.82763 0
M  V30 4600 H 417.803 -0.455236 -0.48338 0
M  V30 4601 H 420.333 -1.79024 -0.990539 0
M  V30 4602 H 420.343 -2.27139 -3.38928 0
M  V30 4603 H 419.018 -3.17998 -2.68049 0
M  V30 4604 H 417.595 -1.50153 -3.41334 0
M  V30 4605 N 419.78 1.02168 -1.19998 0
M  V30 4606 C 421.191 1.57135 -1.00825 0
M  V30 4607 C 421.542 1.91276 0.436818 0
M  V30 4608 O 420.667 1.71679 1.3174 0
M  V30 4609 C 421.262 2.85514 -1.82393 0
M  V30 4610 C 419.821 3.37027 -1.67601 0
M  V30 4611 C 418.968 2.10388 -1.80644 0
M  V30 4612 H 421.919 0.846106 -1.34264 0
M  V30 4613 H 421.94 3.56711 -1.32429 0
M  V30 4614 H 421.452 2.60634 -2.87561 0
M  V30 4615 H 419.553 3.66878 -0.650485 0
M  V30 4616 H 419.666 4.09572 -2.4857 0
M  V30 4617 H 418.03 2.22601 -1.23778 0
M  V30 4618 H 418.813 1.8794 -2.87286 0
M  V30 4619 N 421.258 1.00505 1.21394 0
M  V30 4620 C 422.505 0.687774 1.90462 0
M  V30 4621 C 422.833 -0.78147 1.7811 0
M  V30 4622 O 422.088 -1.58208 1.1519 0
M  V30 4623 C 422.387 1.0546 3.41486 0
M  V30 4624 C 422.053 2.51812 3.74034 0
M  V30 4625 C 420.715 2.91804 3.82628 0
M  V30 4626 C 423.067 3.46614 3.8924 0
M  V30 4627 C 420.395 4.2556 4.03876 0
M  V30 4628 C 422.747 4.80044 4.11995 0
M  V30 4629 C 421.411 5.19759 4.18816 0
M  V30 4630 H 420.681 0.251674 0.696951 0
M  V30 4631 H 423.328 1.26349 1.43903 0
M  V30 4632 H 421.633 0.397133 3.89782 0
M  V30 4633 H 423.33 0.786976 3.93202 0
M  V30 4634 H 419.92 2.1982 3.67936 0
M  V30 4635 H 424.104 3.16883 3.81967 0
M  V30 4636 H 419.36 4.55901 4.07387 0
M  V30 4637 H 423.534 5.53439 4.22704 0
M  V30 4638 H 421.161 6.23418 4.35033 0
M  V30 4639 N 422.737 -1.36956 0.779787 0
M  V30 4640 C 423.983 -2.00237 0.357324 0
M  V30 4641 C 424.338 -1.60787 -1.05666 0
M  V30 4642 O 423.631 -0.847836 -1.71821 0
M  V30 4643 C 423.825 -3.54585 0.447686 0
M  V30 4644 C 423.654 -4.09025 1.86891 0
M  V30 4645 C 422.424 -4.39612 2.49138 0
M  V30 4646 C 424.622 -4.29461 2.82963 0
M  V30 4647 N 422.604 -4.79816 3.82949 0
M  V30 4648 C 423.975 -4.72363 4.01588 0
M  V30 4649 C 426.03 -4.1161 2.80145 0
M  V30 4650 C 424.733 -4.99284 5.17791 0
M  V30 4651 C 426.759 -4.39672 3.95528 0
M  V30 4652 C 426.121 -4.82822 5.12896 0
M  V30 4653 H 422.22 -0.76148 0.177968 0
M  V30 4654 H 424.804 -1.6613 1.01533 0
M  V30 4655 H 422.975 -3.87982 -0.180184 0
M  V30 4656 H 424.707 -4.047 0.0023955 0
M  V30 4657 H 421.462 -4.28975 2.00693 0
M  V30 4658 H 421.886 -5.04216 4.51769 0
M  V30 4659 H 426.528 -3.77415 1.90572 0
M  V30 4660 H 424.246 -5.32365 6.07958 0
M  V30 4661 H 427.832 -4.27441 3.94697 0
M  V30 4662 H 426.712 -5.04118 6.00695 0
M  V30 4663 N 424.215 -0.530993 -1.48385 0
M  V30 4664 C 425.125 0.23503 -2.3342 0
M  V30 4665 C 426.141 0.93801 -1.46552 0
M  V30 4666 O 427.317 0.912745 -1.7953 0
M  V30 4667 C 424.382 1.26778 -3.22689 0
M  V30 4668 C 423.443 0.575038 -4.25431 0
M  V30 4669 C 422.676 1.55858 -5.10435 0
M  V30 4670 O 422.899 2.79129 -4.97437 0
M  V30 4671 O 421.833 1.09742 -5.91811 0
M  V30 4672 H 425.659 -0.461794 -3.00169 0
M  V30 4673 H 423.244 -0.291903 -1.46521 0
M  V30 4674 H 425.126 1.86457 -3.77904 0
M  V30 4675 H 423.801 1.94699 -2.586 0
M  V30 4676 H 422.708 -0.0622782 -3.74048 0
M  V30 4677 H 424.041 -0.062253 -4.92161 0
M  V30 4678 N 425.693 1.55336 -0.266172 0
M  V30 4679 C 426.626 2.18256 0.666296 0
M  V30 4680 C 427.604 1.14064 1.1588 0
M  V30 4681 O 428.788 1.42546 1.23341 0
M  V30 4682 C 425.915 2.79867 1.90768 0
M  V30 4683 C 424.961 3.97283 1.55141 0
M  V30 4684 S 425.794 5.31694 0.637313 0
M  V30 4685 C 426.95 5.96769 1.88727 0
M  V30 4686 H 427.183 2.97008 0.131647 0
M  V30 4687 H 424.716 1.54317 -0.0504869 0
M  V30 4688 H 426.674 3.15996 2.62025 0
M  V30 4689 H 425.335 2.01025 2.41346 0
M  V30 4690 H 424.528 4.3905 2.4749 0
M  V30 4691 H 424.13 3.6253 0.919113 0
M  V30 4692 H 426.422 6.15458 2.83227 0
M  V30 4693 H 427.365 6.91752 1.51276 0
M  V30 4694 H 427.773 5.26034 2.04814 0
M  V30 4695 N 427.171 -0.0066808 1.57599 0
M  V30 4696 C 428.396 -0.707738 1.94951 0
M  V30 4697 C 428.821 -1.66882 0.867868 0
M  V30 4698 O 428.179 -1.80457 -0.17458 0
M  V30 4699 C 428.227 -1.42162 3.31394 0
M  V30 4700 O 427.331 -2.53578 3.25226 0
M  V30 4701 H 426.672 -0.188752 0.636607 0
M  V30 4702 H 429.202 0.0445193 2.04552 0
M  V30 4703 H 429.212 -1.78655 3.66806 0
M  V30 4704 H 427.887 -0.716903 4.09675 0
M  V30 4705 H 426.464 -2.19463 3.01481 0
M  V30 4706 N 428.649 -1.55105 -0.279332 0
M  V30 4707 C 429.581 -1.83952 -1.36727 0
M  V30 4708 C 430.594 -0.723642 -1.45833 0
M  V30 4709 O 431.783 -1.00141 -1.47763 0
M  V30 4710 C 428.883 -1.98183 -2.74912 0
M  V30 4711 C 428.056 -3.28787 -2.88475 0
M  V30 4712 C 427.115 -3.33162 -4.07295 0
M  V30 4713 O 426.141 -4.06576 -3.98353 0
M  V30 4714 N 427.343 -2.60109 -5.18964 0
M  V30 4715 H 430.108 -2.77853 -1.12328 0
M  V30 4716 H 427.669 -1.54945 -0.469442 0
M  V30 4717 H 429.661 -1.98488 -3.52682 0
M  V30 4718 H 428.231 -1.11177 -2.92162 0
M  V30 4719 H 427.451 -3.41075 -1.97641 0
M  V30 4720 H 428.739 -4.14933 -2.94463 0
M  V30 4721 H 428.137 -2.00136 -5.29115 0
M  V30 4722 H 426.694 -2.66143 -5.94988 0
M  V30 4723 N 430.127 0.543554 -1.4793 0
M  V30 4724 C 431.09 1.63156 -1.60975 0
M  V30 4725 C 432.09 1.53346 -0.483899 0
M  V30 4726 O 433.28 1.5726 -0.749339 0
M  V30 4727 C 430.412 3.02743 -1.56716 0
M  V30 4728 H 431.605 1.52934 -2.57975 0
M  V30 4729 H 429.158 0.764557 -1.36324 0
M  V30 4730 H 429.893 3.18484 -0.611418 0
M  V30 4731 H 429.678 3.11272 -2.38438 0
M  V30 4732 H 431.168 3.81871 -1.6901 0
M  V30 4733 N 431.605 1.3629 0.791371 0
M  V30 4734 C 432.537 1.26321 1.91248 0
M  V30 4735 C 433.55 0.18313 1.61767 0
M  V30 4736 O 434.739 0.437682 1.73051 0
M  V30 4737 C 431.839 0.925901 3.26007 0
M  V30 4738 C 431.012 2.10746 3.83281 0
M  V30 4739 C 430.071 1.74352 4.96475 0
M  V30 4740 O 429.097 2.46416 5.13096 0
M  V30 4741 N 430.299 0.676058 5.7655 0
M  V30 4742 H 433.064 2.22915 2.00323 0
M  V30 4743 H 430.625 1.29659 0.969546 0
M  V30 4744 H 432.617 0.663636 3.99222 0
M  V30 4745 H 431.187 0.0491581 3.12561 0
M  V30 4746 H 430.407 2.53264 3.02077 0
M  V30 4747 H 431.695 2.8969 4.18279 0
M  V30 4748 H 431.093 0.0776467 5.65647 0
M  V30 4749 H 429.65 0.473612 6.50077 0
M  V30 4750 N 433.083 -1.0153 1.20538 0
M  V30 4751 C 434.013 -2.11972 0.979295 0
M  V30 4752 C 434.994 -1.6985 -0.0921787 0
M  V30 4753 O 436.179 -1.94089 0.0655932 0
M  V30 4754 C 433.309 -3.43201 0.531984 0
M  V30 4755 C 432.263 -3.9907 1.54685 0
M  V30 4756 C 431.589 -5.26082 0.956127 0
M  V30 4757 C 432.889 -4.32313 2.93092 0
M  V30 4758 H 434.583 -2.31143 1.90298 0
M  V30 4759 H 432.129 -1.11079 0.916372 0
M  V30 4760 H 434.082 -4.1985 0.361044 0
M  V30 4761 H 432.806 -3.23792 -0.427327 0
M  V30 4762 H 431.465 -3.2453 1.70517 0
M  V30 4763 H 431.113 -5.02999 -0.0111538 0
M  V30 4764 H 430.813 -5.64426 1.63393 0
M  V30 4765 H 432.337 -6.05386 0.796284 0
M  V30 4766 H 433.751 -4.99845 2.80763 0
M  V30 4767 H 432.148 -4.81774 3.57791 0
M  V30 4768 H 433.218 -3.41025 3.44717 0
M  V30 4769 N 434.561 -1.01147 -1.20859 0
M  V30 4770 C 435.511 -0.548247 -2.2131 0
M  V30 4771 C 436.495 0.393646 -1.5601 0
M  V30 4772 O 437.687 0.217445 -1.75659 0
M  V30 4773 C 434.816 0.117252 -3.431 0
M  V30 4774 C 433.902 -0.846043 -4.15575 0
M  V30 4775 N 434.293 -2.00149 -4.64515 0
M  V30 4776 C 432.591 -0.665783 -4.41003 0
M  V30 4777 C 433.292 -2.60764 -5.19978 0
M  V30 4778 N 432.268 -1.88868 -5.09735 0
M  V30 4779 H 436.07 -1.42921 -2.56809 0
M  V30 4780 H 433.584 -0.876142 -1.36739 0
M  V30 4781 H 435.581 0.46662 -4.1428 0
M  V30 4782 H 434.241 0.994115 -3.09107 0
M  V30 4783 H 435.252 -2.38162 -4.5989 0
M  V30 4784 H 431.929 0.163456 -4.1718 0
M  V30 4785 H 433.319 -3.58519 -5.68255 0
M  V30 4786 N 436.039 1.36541 -0.78704 0
M  V30 4787 C 436.971 2.28761 -0.141773 0
M  V30 4788 C 437.984 1.49365 0.647599 0
M  V30 4789 O 439.173 1.71836 0.483173 0
M  V30 4790 C 436.273 3.28771 0.822368 0
M  V30 4791 C 435.446 4.3732 0.0835594 0
M  V30 4792 C 434.505 5.17307 0.963296 0
M  V30 4793 O 433.531 5.67638 0.421419 0
M  V30 4794 N 434.733 5.33515 2.28784 0
M  V30 4795 H 437.498 2.84777 -0.933919 0
M  V30 4796 H 435.059 1.48682 -0.640735 0
M  V30 4797 H 437.051 3.79169 1.41468 0
M  V30 4798 H 435.621 2.73412 1.5154 0
M  V30 4799 H 434.841 3.88118 -0.689809 0
M  V30 4800 H 436.129 5.0701 -0.426358 0
M  V30 4801 H 435.527 4.94234 2.75226 0
M  V30 4802 H 434.084 5.87165 2.82985 0
M  V30 4803 N 437.518 0.538854 1.48102 0
M  V30 4804 C 438.428 -0.222648 2.33541 0
M  V30 4805 C 439.444 -0.930225 1.47047 0
M  V30 4806 O 440.62 -0.903211 1.80011 0
M  V30 4807 C 437.685 -1.25064 3.23357 0
M  V30 4808 C 436.746 -0.552469 4.2573 0
M  V30 4809 C 435.979 -1.53149 5.11254 0
M  V30 4810 O 436.202 -2.76487 4.9891 0
M  V30 4811 O 435.136 -1.06602 5.92385 0
M  V30 4812 H 438.962 0.477707 2.99919 0
M  V30 4813 H 436.547 0.299669 1.46364 0
M  V30 4814 H 438.429 -1.8445 3.78888 0
M  V30 4815 H 437.104 -1.93325 2.59629 0
M  V30 4816 H 436.011 0.082114 3.7401 0
M  V30 4817 H 437.344 0.0883526 4.92121 0
M  V30 4818 N 438.996 -1.55193 0.274407 0
M  V30 4819 C 439.906 -2.26164 -0.623473 0
M  V30 4820 C 440.922 -1.28729 -1.17068 0
M  V30 4821 O 442.098 -1.61663 -1.20112 0
M  V30 4822 C 439.163 -2.96833 -1.7914 0
M  V30 4823 C 438.224 -4.09745 -1.28093 0
M  V30 4824 C 437.457 -4.77034 -2.3932 0
M  V30 4825 O 437.68 -4.4353 -3.5866 0
M  V30 4826 O 436.614 -5.64996 -2.07516 0
M  V30 4827 H 440.44 -3.03661 -0.0485661 0
M  V30 4828 H 438.025 -1.49341 0.0418382 0
M  V30 4829 H 439.907 -3.41248 -2.4724 0
M  V30 4830 H 438.582 -2.22253 -2.35341 0
M  V30 4831 H 437.489 -3.69787 -0.566416 0
M  V30 4832 H 438.822 -4.86224 -0.764683 0
M  V30 4833 N 440.474 -0.00167713 -1.576 0
M  V30 4834 C 441.721 0.68282 -1.90641 0
M  V30 4835 C 442.049 1.73686 -0.875415 0
M  V30 4836 O 441.304 1.95334 0.119575 0
M  V30 4837 C 441.603 1.36189 -3.30435 0
M  V30 4838 C 441.269 0.440887 -4.48739 0
M  V30 4839 C 439.931 0.187312 -4.80835 0
M  V30 4840 C 442.283 -0.193134 -5.20842 0
M  V30 4841 C 439.611 -0.70855 -5.82406 0
M  V30 4842 C 441.963 -1.07688 -6.23367 0
M  V30 4843 C 440.627 -1.33962 -6.53919 0
M  V30 4844 H 439.897 0.249862 -0.697603 0
M  V30 4845 H 442.544 -0.0575642 -1.91413 0
M  V30 4846 H 440.849 2.17636 -3.25794 0
M  V30 4847 H 442.546 1.89759 -3.5326 0
M  V30 4848 H 439.136 0.648694 -4.23663 0
M  V30 4849 H 443.32 -0.0102445 -4.96299 0
M  V30 4850 H 438.576 -0.920097 -6.04437 0
M  V30 4851 H 442.75 -1.57451 -6.78367 0
M  V30 4852 H 440.377 -2.03549 -7.32442 0
M  V30 4853 N 441.952 1.55251 0.271103 0
M  V30 4854 C 442.862 1.9136 1.35714 0
M  V30 4855 C 443.878 0.811075 1.5394 0
M  V30 4856 O 445.054 1.11031 1.6803 0
M  V30 4857 C 442.119 2.1798 2.69603 0
M  V30 4858 C 441.18 3.4153 2.60107 0
M  V30 4859 C 440.413 3.66871 3.8761 0
M  V30 4860 O 440.636 2.94689 4.8838 0
M  V30 4861 O 439.57 4.60405 3.87699 0
M  V30 4862 H 443.396 2.83815 1.08088 0
M  V30 4863 H 440.981 1.41821 0.469792 0
M  V30 4864 H 442.863 2.36518 3.48765 0
M  V30 4865 H 441.538 1.28708 2.97012 0
M  V30 4866 H 440.445 3.28325 1.79314 0
M  V30 4867 H 441.778 4.31027 2.37647 0
M  V30 4868 N 443.43 -0.535701 1.48216 0
M  V30 4869 C 444.676 -1.29375 1.56173 0
M  V30 4870 C 445.009 -1.92804 0.232429 0
M  V30 4871 O 444.284 -1.78992 -0.761048 0
M  V30 4872 C 444.567 -2.38747 2.69577 0
M  V30 4873 C 444.42 -1.80046 4.12193 0
M  V30 4874 C 445.739 -3.40551 2.78771 0
M  V30 4875 H 442.858 -0.469027 0.568491 0
M  V30 4876 H 445.5 -0.597358 1.80365 0
M  V30 4877 H 443.65 -2.98147 2.4908 0
M  V30 4878 H 445.322 -1.24742 4.44114 0
M  V30 4879 H 443.565 -1.10609 4.19462 0
M  V30 4880 H 444.236 -2.59212 4.87353 0
M  V30 4881 H 446.712 -2.91099 2.97322 0
M  V30 4882 H 445.588 -4.1448 3.59857 0
M  V30 4883 H 445.849 -4.00746 1.86696 0
M  V30 4884 N 444.908 -1.36708 -0.784132 0
M  V30 4885 C 446.154 -1.31426 -1.54451 0
M  V30 4886 C 446.487 0.10476 -1.93917 0
M  V30 4887 O 445.762 1.05934 -1.6312 0
M  V30 4888 C 446.045 -2.24189 -2.818 0
M  V30 4889 C 445.898 -3.74813 -2.48667 0
M  V30 4890 C 447.217 -2.15626 -3.83658 0
M  V30 4891 H 444.336 -0.478739 -0.560337 0
M  V30 4892 H 446.978 -1.67305 -0.900498 0
M  V30 4893 H 445.128 -1.93722 -3.36755 0
M  V30 4894 H 446.8 -4.15823 -1.99722 0
M  V30 4895 H 445.043 -3.93989 -1.81535 0
M  V30 4896 H 445.714 -4.35138 -3.39646 0
M  V30 4897 H 448.19 -2.42456 -3.38163 0
M  V30 4898 H 447.066 -2.82694 -4.70506 0
M  V30 4899 H 447.327 -1.14522 -4.27009 0
M  V30 4900 N 446.386 1.0089 -1.21074 0
M  V30 4901 C 447.632 1.74866 -1.02712 0
M  V30 4902 C 447.965 1.89178 0.438787 0
M  V30 4903 O 447.24 1.42325 1.32567 0
M  V30 4904 C 447.523 3.16347 -1.72036 0
M  V30 4905 C 447.376 3.09782 -3.26121 0
M  V30 4906 C 448.695 4.15187 -1.45973 0
M  V30 4907 H 445.814 0.634736 -0.374539 0
M  V30 4908 H 448.456 1.17646 -1.49196 0
M  V30 4909 H 446.606 3.65201 -1.32517 0
M  V30 4910 H 448.278 2.68673 -3.74983 0
M  V30 4911 H 446.521 2.46982 -3.56626 0
M  V30 4912 H 447.192 4.09829 -3.6979 0
M  V30 4913 H 449.668 3.75022 -1.80272 0
M  V30 4914 H 448.544 5.12331 -1.96999 0
M  V30 4915 H 448.805 4.40386 -0.388924 0
M  V30 4916 N 447.864 1.01787 1.20321 0
M  V30 4917 C 449.113 0.703249 1.89043 0
M  V30 4918 C 449.426 -0.770445 1.79787 0
M  V30 4919 O 450.632 -1.19767 2.43656 0
M  V30 4920 C 449.088 1.20749 3.3904 0
M  V30 4921 C 448.696 2.70817 3.56878 0
M  V30 4922 C 450.44 0.968352 4.13308 0
M  V30 4923 C 448.347 3.14716 5.00708 0
M  V30 4924 H 447.277 0.259354 0.707991 0
M  V30 4925 H 449.928 1.23072 1.36108 0
M  V30 4926 H 448.31 0.607989 3.91305 0
M  V30 4927 H 449.484 3.36327 3.14993 0
M  V30 4928 H 447.799 2.92888 2.95983 0
M  V30 4929 H 450.396 1.27173 5.19356 0
M  V30 4930 H 450.739 -0.095149 4.16191 0
M  V30 4931 H 451.272 1.53129 3.67146 0
M  V30 4932 H 448.011 4.20347 5.02979 0
M  V30 4933 H 447.531 2.53927 5.43398 0
M  V30 4934 H 449.21 3.07426 5.69296 0
M  V30 4935 N 449.342 -1.36122 0.79427 0
M  V30 4936 C 450.272 -2.32551 0.210328 0
M  V30 4937 C 451.253 -1.56884 -0.657386 0
M  V30 4938 O 452.438 -1.85014 -0.590207 0
M  V30 4939 C 449.568 -3.41128 -0.651819 0
M  V30 4940 C 448.522 -4.27842 0.116395 0
M  V30 4941 C 447.848 -5.2763 -0.86666 0
M  V30 4942 C 449.148 -5.05647 1.30837 0
M  V30 4943 H 450.842 -2.81636 1.01594 0
M  V30 4944 H 448.388 -1.35407 0.489981 0
M  V30 4945 H 450.341 -4.07581 -1.07031 0
M  V30 4946 H 449.065 -2.90622 -1.49019 0
M  V30 4947 H 447.724 -3.62952 0.515915 0
M  V30 4948 H 447.372 -4.73395 -1.70019 0
M  V30 4949 H 447.072 -5.86514 -0.35705 0
M  V30 4950 H 448.596 -5.96955 -1.28361 0
M  V30 4951 H 450.01 -5.65113 0.965393 0
M  V30 4952 H 448.407 -5.73967 1.75161 0
M  V30 4953 H 449.477 -4.37006 2.10128 0
M  V30 4954 N 450.82 -0.546701 -1.47814 0
M  V30 4955 C 451.73 0.21026 -2.33656 0
M  V30 4956 C 452.746 0.922413 -1.47538 0
M  V30 4957 O 453.922 0.893652 -1.80488 0
M  V30 4958 C 450.987 1.23348 -3.24016 0
M  V30 4959 C 450.048 0.529883 -4.26017 0
M  V30 4960 C 449.281 1.50435 -5.12059 0
M  V30 4961 O 449.504 2.73837 -5.00369 0
M  V30 4962 O 448.438 1.03459 -5.92942 0
M  V30 4963 H 452.264 -0.493605 -2.99662 0
M  V30 4964 H 449.849 -0.307427 -1.46203 0
M  V30 4965 H 451.731 1.82438 -3.79861 0
M  V30 4966 H 450.406 1.91945 -2.60651 0
M  V30 4967 H 449.313 -0.101948 -3.73961 0
M  V30 4968 H 450.646 -0.11445 -4.92067 0
M  V30 4969 N 452.299 1.55045 -0.282633 0
M  V30 4970 C 453.547 1.99365 0.331334 0
M  V30 4971 C 453.868 1.1725 1.55812 0
M  V30 4972 O 453.138 0.263871 1.94115 0
M  V30 4973 H 451.718 0.736397 0.125414 0
M  V30 4974 H 454.38 1.90964 -0.389711 0
M  V30 4975 H 453.476 3.0596 0.616036 0
M  V30 4976 N 453.777 0.010035 1.57597 0
M  V30 4977 C 454.71 -1.01234 2.04516 0
M  V30 4978 C 455.688 -1.32886 0.937024 0
M  V30 4979 O 456.872 -1.44879 1.20592 0
M  V30 4980 C 453.999 -2.33738 2.45121 0
M  V30 4981 C 453.045 -2.17679 3.66767 0
M  V30 4982 S 453.878 -1.49343 5.14254 0
M  V30 4983 C 455.034 -2.83256 5.58137 0
M  V30 4984 H 455.267 -0.612866 2.90914 0
M  V30 4985 H 452.8 -0.201124 1.53084 0
M  V30 4986 H 454.758 -3.09922 2.69182 0
M  V30 4987 H 453.419 -2.70823 1.59103 0
M  V30 4988 H 452.612 -3.1559 3.92962 0
M  V30 4989 H 452.214 -1.4964 3.42759 0
M  V30 4990 H 454.506 -3.79538 5.6121 0
M  V30 4991 H 455.449 -2.61749 6.57946 0
M  V30 4992 H 455.857 -2.87627 4.85727 0
M  V30 4993 N 455.255 -1.55392 -0.262866 0
M  V30 4994 C 456.501 -1.76737 -0.99458 0
M  V30 4995 C 456.834 -0.572453 -1.85571 0
M  V30 4996 O 456.109 0.429732 -1.89693 0
M  V30 4997 C 456.392 -3.07824 -1.8686 0
M  V30 4998 C 456.245 -4.3769 -1.03672 0
M  V30 4999 C 457.564 -3.35021 -2.85393 0
M  V30 5000 H 454.683 -0.643005 -0.360157 0
M  V30 5001 H 457.325 -1.88126 -0.266216 0
M  V30 5002 H 455.475 -2.98245 -2.48962 0
M  V30 5003 H 457.147 -4.59238 -0.43563 0
M  V30 5004 H 455.39 -4.32461 -0.340513 0
M  V30 5005 H 456.061 -5.25759 -1.6817 0
M  V30 5006 H 458.537 -3.44458 -2.33426 0
M  V30 5007 H 457.413 -4.27989 -3.43681 0
M  V30 5008 H 457.674 -2.55153 -3.61039 0
M  V30 5009 N 456.733 0.527833 -1.48498 0
M  V30 5010 C 457.643 1.65907 -1.65867 0
M  V30 5011 C 458.659 1.6537 -0.541192 0
M  V30 5012 O 459.835 1.84282 -0.812534 0
M  V30 5013 C 456.9 3.02364 -1.69637 0
M  V30 5014 C 455.961 3.1374 -2.93028 0
M  V30 5015 C 455.194 4.43688 -2.96609 0
M  V30 5016 O 455.417 5.30913 -2.08538 0
M  V30 5017 O 454.351 4.59475 -3.88802 0
M  V30 5018 H 458.177 1.5419 -2.61647 0
M  V30 5019 H 455.762 0.701163 -1.31924 0
M  V30 5020 H 457.644 3.83515 -1.74625 0
M  V30 5021 H 456.319 3.14401 -0.770312 0
M  V30 5022 H 455.226 2.31877 -2.93571 0
M  V30 5023 H 456.559 3.06621 -3.85026 0
M  V30 5024 N 458.211 1.37122 0.776871 0
M  V30 5025 C 459.174 1.32301 1.8716 0
M  V30 5026 C 460.174 0.228099 1.59174 0
M  V30 5027 O 461.364 0.483642 1.67352 0
M  V30 5028 C 458.496 1.054 3.24197 0
M  V30 5029 H 459.689 2.29673 1.92848 0
M  V30 5030 H 457.242 1.22077 0.97606 0
M  V30 5031 H 457.977 0.0853872 3.24188 0
M  V30 5032 H 457.762 1.84648 3.45901 0
M  V30 5033 H 459.252 1.04664 4.04271 0
M  V30 5034 N 459.689 -1.00246 1.21608 0
M  V30 5035 C 460.917 -1.77631 1.06089 0
M  V30 5036 C 461.332 -1.84746 -0.38916 0
M  V30 5037 O 460.689 -1.31068 -1.26994 0
M  V30 5038 C 460.74 -3.21415 1.65453 0
M  V30 5039 O 460.461 -3.14703 3.04785 0
M  V30 5040 C 461.962 -4.15289 1.55079 0
M  V30 5041 H 459.182 -0.558162 0.37242 0
M  V30 5042 H 461.726 -1.26093 1.60999 0
M  V30 5043 H 459.881 -3.70053 1.14629 0
M  V30 5044 H 460.295 -4.05056 3.33212 0
M  V30 5045 H 461.769 -5.13965 2.01355 0
M  V30 5046 H 462.246 -4.36279 0.505665 0
M  V30 5047 H 462.852 -3.72543 2.05163 0
M  V30 5048 N 461.167 -1.02423 -1.1978 0
M  V30 5049 C 462.415 -0.716569 -1.8897 0
M  V30 5050 C 462.736 0.756769 -1.79716 0
M  V30 5051 O 462.006 1.5449 -1.20456 0
M  V30 5052 H 460.586 -0.262062 -0.699523 0
M  V30 5053 H 463.248 -1.29747 -1.45436 0
M  V30 5054 H 462.344 -1.00675 -2.95417 0
M  V30 5055 N 462.645 1.35699 -0.801477 0
M  V30 5056 C 463.578 2.2768 -0.153922 0
M  V30 5057 C 464.556 1.47832 0.67709 0
M  V30 5058 O 465.74 1.77104 0.645474 0
M  V30 5059 C 462.867 3.2943 0.786986 0
M  V30 5060 C 461.913 4.26485 0.0362447 0
M  V30 5061 S 462.746 5.19573 -1.2963 0
M  V30 5062 C 463.902 6.24866 -0.359705 0
M  V30 5063 H 464.135 2.82254 -0.9338 0
M  V30 5064 H 461.668 1.42421 -0.596283 0
M  V30 5065 H 463.626 3.8855 1.32436 0
M  V30 5066 H 462.287 2.73745 1.54021 0
M  V30 5067 H 461.48 4.98378 0.750668 0
M  V30 5068 H 461.082 3.71508 -0.431017 0
M  V30 5069 H 463.374 6.75957 0.456954 0
M  V30 5070 H 464.317 7.00307 -1.04768 0
M  V30 5071 H 464.725 5.64484 0.0423274 0
M  V30 5072 N 464.123 0.554532 1.47522 0
M  V30 5073 C 465.351 0.034257 2.06872 0
M  V30 5074 C 465.766 -1.25826 1.40759 0
M  V30 5075 O 465.123 -1.75425 0.503217 0
M  V30 5076 C 465.174 -0.167827 3.6111 0
M  V30 5077 O 464.895 1.07351 4.24744 0
M  V30 5078 C 466.396 -0.72569 4.3732 0
M  V30 5079 H 463.616 0.0446275 0.669514 0
M  V30 5080 H 466.16 0.767181 1.89564 0
M  V30 5081 H 464.315 -0.850872 3.7794 0
M  V30 5082 H 464.729 0.869563 5.17242 0
M  V30 5083 H 466.203 -0.816394 5.45929 0
M  V30 5084 H 466.68 -1.73635 4.0342 0
M  V30 5085 H 467.286 -0.0784292 4.25228 0
M  V30 5086 N 465.601 -1.54893 0.290851 0
M  V30 5087 C 466.841 -2.01842 -0.322388 0
M  V30 5088 C 467.205 -1.17477 -1.51865 0
M  V30 5089 O 468.406 -1.54077 -2.20258 0
M  V30 5090 C 466.677 -3.50874 -0.679844 0
M  V30 5091 S 468.236 -4.19796 -1.27739 0
M  V30 5092 H 465.054 -0.704005 -0.0994866 0
M  V30 5093 H 467.656 -1.91015 0.416358 0
M  V30 5094 H 466.36 -4.09915 0.199435 0
M  V30 5095 H 465.891 -3.65717 -1.44964 0
M  V30 5096 H 467.906 -4.24729 -2.56554 0
M  V30 5097 N 467.08 -0.0183926 -1.57589 0
M  V30 5098 C 468.012 0.995557 -2.06449 0
M  V30 5099 C 469.025 1.29556 -0.985849 0
M  V30 5100 O 470.214 1.2621 -1.26227 0
M  V30 5101 C 467.314 2.32572 -2.46502 0
M  V30 5102 C 466.487 2.21245 -3.77319 0
M  V30 5103 C 465.546 3.37104 -4.04039 0
M  V30 5104 O 464.572 3.14468 -4.74445 0
M  V30 5105 N 465.774 4.60553 -3.53372 0
M  V30 5106 H 468.539 0.578746 -2.94059 0
M  V30 5107 H 466.1 0.168603 -1.6102 0
M  V30 5108 H 468.092 3.08887 -2.61478 0
M  V30 5109 H 466.662 2.65931 -1.64315 0
M  V30 5110 H 465.882 1.29723 -3.72244 0
M  V30 5111 H 467.17 2.10868 -4.63047 0
M  V30 5112 H 466.568 4.81839 -2.96391 0
M  V30 5113 H 465.125 5.34072 -3.73644 0
M  V30 5114 N 468.558 1.5553 0.254621 0
M  V30 5115 C 469.521 1.88872 1.29846 0
M  V30 5116 C 470.521 0.764591 1.41459 0
M  V30 5117 O 471.711 1.03265 1.40293 0
M  V30 5118 C 468.843 2.11032 2.67728 0
M  V30 5119 H 470.036 2.82201 1.01502 0
M  V30 5120 H 467.589 1.48303 0.493556 0
M  V30 5121 H 468.324 1.20146 3.01223 0
M  V30 5122 H 468.109 2.92895 2.60682 0
M  V30 5123 H 469.599 2.38038 3.43115 0
M  V30 5124 N 470.036 -0.519951 1.48776 0
M  V30 5125 C 471.452 -0.849418 1.35119 0
M  V30 5126 C 471.652 -1.98077 0.36982 0
M  V30 5127 O 470.708 -2.51664 -0.205359 0
M  V30 5128 C 472.021 -1.20748 2.75391 0
M  V30 5129 C 473.569 -1.31679 2.83954 0
M  V30 5130 C 474.044 -1.70824 4.24951 0
M  V30 5131 N 475.535 -1.77908 4.27672 0
M  V30 5132 C 476.27 -2.09603 5.33717 0
M  V30 5133 N 475.766 -2.39652 6.5003 0
M  V30 5134 N 477.559 -2.10694 5.21119 0
M  V30 5135 H 469.71 0.226377 2.1119 0
M  V30 5136 H 471.973 0.0386519 0.947212 0
M  V30 5137 H 471.679 -0.449703 3.48813 0
M  V30 5138 H 471.553 -2.15534 3.09556 0
M  V30 5139 H 473.94 -2.06532 2.10781 0
M  V30 5140 H 474.021 -0.3499 2.53396 0
M  V30 5141 H 473.665 -0.965282 4.98643 0
M  V30 5142 H 473.595 -2.6858 4.52959 0
M  V30 5143 H 476.086 -1.56923 3.43779 0
M  V30 5144 H 476.399 -2.6297 7.26682 0
M  V30 5145 H 474.744 -2.37149 6.53288 0
M  V30 5146 H 477.935 -1.86682 4.29264 0
M  V30 5147 H 478.108 -2.35062 6.03863 0
M  V30 5148 N 471.514 -1.37532 -0.769588 0
M  V30 5149 C 472.739 -1.36231 -1.56384 0
M  V30 5150 C 473.164 0.0495849 -1.88035 0
M  V30 5151 O 472.522 1.02723 -1.49391 0
M  V30 5152 C 472.57 -2.20986 -2.84952 0
M  V30 5153 O 471.674 -1.61597 -3.79421 0
M  V30 5154 H 471.015 -0.465387 -0.473615 0
M  V30 5155 H 473.545 -1.81085 -0.952342 0
M  V30 5156 H 473.555 -2.34277 -3.34034 0
M  V30 5157 H 472.23 -3.23612 -2.61243 0
M  V30 5158 H 470.807 -1.57359 -3.38072 0
M  V30 5159 N 472.992 0.995999 -1.22138 0
M  V30 5160 C 474.217 1.77601 -1.0711 0
M  V30 5161 C 474.642 1.84339 0.374264 0
M  V30 5162 O 474 1.29359 1.27028 0
M  V30 5163 C 474.048 3.18897 -1.68336 0
M  V30 5164 O 473.152 4.01663 -0.934928 0
M  V30 5165 H 472.493 0.547011 -0.376397 0
M  V30 5166 H 475.023 1.25137 -1.6187 0
M  V30 5167 H 475.033 3.69539 -1.72931 0
M  V30 5168 H 473.708 3.13308 -2.73516 0
M  V30 5169 H 472.285 3.60204 -0.964751 0
M  V30 5170 N 474.47 1.03057 1.19235 0
M  V30 5171 C 475.7 0.746613 1.92638 0
M  V30 5172 C 476.108 -0.698708 1.75826 0
M  V30 5173 O 475.451 -1.487 1.07861 0
M  V30 5174 C 475.513 1.02024 3.44719 0
M  V30 5175 C 475.177 2.45745 3.85303 0
M  V30 5176 C 476.174 3.43887 3.8992 0
M  V30 5177 C 473.859 2.8019 4.16892 0
M  V30 5178 C 475.853 4.74529 4.2556 0
M  V30 5179 C 473.54 4.1104 4.52205 0
M  V30 5180 C 474.538 5.0802 4.56513 0
M  V30 5181 O 474.226 6.36527 4.91008 0
M  V30 5182 H 473.958 0.272401 0.618687 0
M  V30 5183 H 476.512 1.37853 1.52269 0
M  V30 5184 H 474.742 0.331184 3.85279 0
M  V30 5185 H 476.431 0.725677 3.9936 0
M  V30 5186 H 477.197 3.18614 3.65664 0
M  V30 5187 H 473.076 2.05382 4.12722 0
M  V30 5188 H 476.62 5.50222 4.28838 0
M  V30 5189 H 472.517 4.36086 4.7592 0
M  V30 5190 H 473.285 6.41025 5.08949 0
M  V30 5191 N 475.948 -1.35272 0.808662 0
M  V30 5192 C 476.881 -2.27595 0.165994 0
M  V30 5193 C 477.859 -1.48189 -0.669241 0
M  V30 5194 O 479.043 -1.77444 -0.636073 0
M  V30 5195 C 476.17 -3.29843 -0.769505 0
M  V30 5196 C 475.216 -4.26498 -0.0136267 0
M  V30 5197 S 476.049 -5.18878 1.32384 0
M  V30 5198 C 477.205 -6.24666 0.392838 0
M  V30 5199 H 477.438 -2.81755 0.948756 0
M  V30 5200 H 474.971 -1.42103 0.603828 0
M  V30 5201 H 476.929 -3.89247 -1.30374 0
M  V30 5202 H 475.59 -2.74558 -1.52567 0
M  V30 5203 H 474.783 -4.98769 -0.724227 0
M  V30 5204 H 474.385 -3.71274 0.450713 0
M  V30 5205 H 476.677 -6.7619 -0.4211 0
M  V30 5206 H 477.62 -6.99741 1.0848 0
M  V30 5207 H 478.028 -5.64499 -0.0123908 0
M  V30 5208 N 477.426 -0.562348 -1.47226 0
M  V30 5209 C 478.703 0.0256985 -1.95583 0
M  V30 5210 C 479.083 1.48032 -1.50498 0
M  V30 5211 O 478.431 2.15973 -0.746181 0
M  V30 5212 C 478.641 -0.125129 -3.48776 0
M  V30 5213 C 479.989 0.0175728 -4.24596 0
M  V30 5214 O 481.013 -0.0529341 -3.56161 0
M  V30 5215 O 479.872 0.170145 -5.46235 0
M  V30 5216 H 476.966 0.0612565 -0.824728 0
M  V30 5217 H 479.512 -0.629233 -1.57603 0
M  V30 5218 H 478.284 -1.13715 -3.74412 0
M  V30 5219 H 477.907 0.567178 -3.93534 0
M  V30 5220 N 478.904 1.54736 -0.299062 0
M  V30 5221 C 480.132 2.04512 0.313447 0
M  V30 5222 C 480.547 1.17643 1.47667 0
M  V30 5223 O 479.904 0.20164 1.81383 0
M  V30 5224 C 479.955 3.53171 0.771542 0
M  V30 5225 O 479.676 4.36736 -0.345379 0
M  V30 5226 C 481.177 4.18936 1.4494 0
M  V30 5227 H 478.397 0.667507 0.0683784 0
M  V30 5228 H 480.941 1.99752 -0.438129 0
M  V30 5229 H 479.096 3.58298 1.47314 0
M  V30 5230 H 479.51 5.24499 0.0109219 0
M  V30 5231 H 480.984 5.24482 1.72111 0
M  V30 5232 H 481.461 3.68554 2.38883 0
M  V30 5233 H 482.067 4.17879 0.791028 0
M  V30 5234 N 480.382 0.0267497 1.57577 0
M  V30 5235 C 481.292 -0.971633 2.13533 0
M  V30 5236 C 482.308 -1.35868 1.08701 0
M  V30 5237 O 483.484 -1.44058 1.40746 0
M  V30 5238 C 480.549 -2.23622 2.64941 0
M  V30 5239 C 479.61 -1.90982 3.8448 0
M  V30 5240 C 478.843 -3.11411 4.33427 0
M  V30 5241 O 479.066 -4.23992 3.81558 0
M  V30 5242 O 478 -2.93848 5.25297 0
M  V30 5243 H 481.826 -0.525853 2.99113 0
M  V30 5244 H 479.411 -0.193712 1.48139 0
M  V30 5245 H 481.293 -2.97864 2.98086 0
M  V30 5246 H 479.968 -2.67386 1.82446 0
M  V30 5247 H 478.875 -1.14132 3.56265 0
M  V30 5248 H 480.208 -1.52036 4.6813 0
M  V30 5249 N 481.861 -1.55662 -0.24637 0
M  V30 5250 C 483.107 -1.77782 -0.975779 0
M  V30 5251 C 483.44 -0.592103 -1.84953 0
M  V30 5252 O 482.715 0.409588 -1.90138 0
M  V30 5253 C 482.998 -3.09788 -1.83584 0
M  V30 5254 C 482.851 -4.38764 -0.990241 0
M  V30 5255 C 484.17 -3.38029 -2.81823 0
M  V30 5256 H 481.289 -0.646789 -0.353317 0
M  V30 5257 H 483.931 -1.88398 -0.246248 0
M  V30 5258 H 482.081 -3.00869 -2.45784 0
M  V30 5259 H 483.753 -4.59675 -0.386897 0
M  V30 5260 H 481.996 -4.32798 -0.294626 0
M  V30 5261 H 482.667 -5.27514 -1.62584 0
M  V30 5262 H 485.143 -3.46915 -2.2976 0
M  V30 5263 H 484.019 -4.3161 -3.39122 0
M  V30 5264 H 484.28 -2.58968 -3.58313 0
M  V30 5265 N 483.339 0.512053 -1.4905 0
M  V30 5266 C 484.269 1.62365 -1.67809 0
M  V30 5267 C 485.25 1.61737 -0.526809 0
M  V30 5268 O 486.435 1.78651 -0.761404 0
M  V30 5269 C 483.565 3.00895 -1.73435 0
M  V30 5270 C 482.519 3.16387 -2.88242 0
M  V30 5271 C 481.845 4.56157 -2.78971 0
M  V30 5272 C 483.145 2.97457 -4.29321 0
M  V30 5273 H 484.839 1.46921 -2.60873 0
M  V30 5274 H 482.385 0.705379 -1.2554 0
M  V30 5275 H 484.338 3.78549 -1.85145 0
M  V30 5276 H 483.062 3.17403 -0.769619 0
M  V30 5277 H 481.721 2.41155 -2.76116 0
M  V30 5278 H 481.369 4.69525 -1.8043 0
M  V30 5279 H 481.069 4.67465 -3.5602 0
M  V30 5280 H 482.593 5.35886 -2.92675 0
M  V30 5281 H 484.007 3.64888 -4.42187 0
M  V30 5282 H 482.404 3.20245 -5.07507 0
M  V30 5283 H 483.474 1.93692 -4.44535 0
M  V30 5284 N 484.817 1.37938 0.762283 0
M  V30 5285 C 486.063 1.34873 1.52253 0
M  V30 5286 C 486.418 -0.0635972 1.92295 0
M  V30 5287 O 485.711 -1.02434 1.61919 0
M  V30 5288 C 485.905 2.23042 2.79261 0
M  V30 5289 C 485.734 3.72706 2.51635 0
M  V30 5290 C 484.504 4.41771 2.45289 0
M  V30 5291 C 486.702 4.65345 2.18994 0
M  V30 5292 N 484.684 5.76921 2.09846 0
M  V30 5293 C 486.055 5.88943 1.9377 0
M  V30 5294 C 488.11 4.53636 2.0523 0
M  V30 5295 C 486.813 7.02142 1.5617 0
M  V30 5296 C 488.839 5.6673 1.69031 0
M  V30 5297 C 488.201 6.89383 1.44673 0
M  V30 5298 H 484.3 0.548818 0.557067 0
M  V30 5299 H 486.884 1.73247 0.888458 0
M  V30 5300 H 485.055 1.8687 3.40491 0
M  V30 5301 H 486.787 2.11165 3.45241 0
M  V30 5302 H 483.542 3.94883 2.61465 0
M  V30 5303 H 483.966 6.4837 1.94794 0
M  V30 5304 H 488.608 3.5937 2.2274 0
M  V30 5305 H 486.326 7.96334 1.37399 0
M  V30 5306 H 489.912 5.59645 1.59026 0
M  V30 5307 H 488.792 7.75411 1.17079 0
M  V30 5308 N 486.295 -0.989507 1.22664 0
M  V30 5309 C 487.543 -1.72612 1.05117 0
M  V30 5310 C 487.864 -1.90552 -0.414131 0
M  V30 5311 O 487.134 -1.4676 -1.29762 0
M  V30 5312 H 485.714 -0.639555 0.385977 0
M  V30 5313 H 488.376 -1.19158 1.54232 0
M  V30 5314 H 487.472 -2.71926 1.53175 0
M  V30 5315 N 487.773 -1.03688 -1.18687 0
M  V30 5316 C 488.723 -0.595067 -2.20098 0
M  V30 5317 C 489.707 0.360465 -1.5681 0
M  V30 5318 O 490.899 0.180136 -1.76081 0
M  V30 5319 C 488.028 0.0444495 -3.43271 0
M  V30 5320 C 487.114 -0.934002 -4.13687 0
M  V30 5321 N 487.505 -2.09957 -4.60165 0
M  V30 5322 C 485.803 -0.759177 -4.39491 0
M  V30 5323 C 486.504 -2.71735 -5.1433 0
M  V30 5324 N 485.48 -1.99638 -5.05614 0
M  V30 5325 H 489.282 -1.48336 -2.5372 0
M  V30 5326 H 486.796 -0.904949 -1.3485 0
M  V30 5327 H 488.793 0.37864 -4.15177 0
M  V30 5328 H 487.453 0.928325 -3.11147 0
M  V30 5329 H 488.464 -2.47863 -4.54735 0
M  V30 5330 H 485.141 0.0749292 -4.17433 0
M  V30 5331 H 486.531 -3.70492 -5.60523 0
M  V30 5332 N 489.251 1.34841 -0.815825 0
M  V30 5333 C 490.667 1.51543 -0.500697 0
M  V30 5334 C 490.867 1.76261 0.976444 0
M  V30 5335 O 489.923 1.8094 1.76117 0
M  V30 5336 C 491.236 2.68487 -1.35407 0
M  V30 5337 C 492.784 2.82368 -1.35046 0
M  V30 5338 C 493.259 4.02347 -2.18816 0
M  V30 5339 N 494.75 4.09542 -2.16402 0
M  V30 5340 C 495.485 5.01517 -2.77971 0
M  V30 5341 N 494.981 5.98763 -3.48503 0
M  V30 5342 N 496.774 4.94334 -2.67563 0
M  V30 5343 H 488.925 1.17055 -1.77234 0
M  V30 5344 H 491.188 0.573481 -0.754866 0
M  V30 5345 H 490.894 2.56829 -2.40274 0
M  V30 5346 H 490.768 3.63321 -1.01377 0
M  V30 5347 H 493.155 2.93471 -0.309604 0
M  V30 5348 H 493.236 1.88363 -1.73069 0
M  V30 5349 H 492.88 3.92004 -3.22948 0
M  V30 5350 H 492.81 4.95551 -1.78148 0
M  V30 5351 H 495.301 3.39932 -1.65091 0
M  V30 5352 H 495.614 6.6556 -3.92747 0
M  V30 5353 H 493.959 5.98909 -3.52609 0
M  V30 5354 H 497.15 4.1732 -2.12041 0
M  V30 5355 H 497.323 5.6582 -3.15834 0
M  V30 5356 N 490.729 0.570148 1.46925 0
M  V30 5357 C 491.976 0.0509529 2.02436 0
M  V30 5358 C 492.304 -1.30405 1.44308 0
M  V30 5359 O 491.559 -1.86493 0.593198 0
M  V30 5360 C 491.858 -0.0780336 3.57315 0
M  V30 5361 C 491.524 1.20775 4.34424 0
M  V30 5362 C 490.186 1.56004 4.5521 0
M  V30 5363 C 492.538 2.0592 4.78797 0
M  V30 5364 C 489.866 2.76201 5.17619 0
M  V30 5365 C 492.218 3.25332 5.42533 0
M  V30 5366 C 490.882 3.60859 5.61549 0
M  V30 5367 H 490.152 0.018645 0.740765 0
M  V30 5368 H 492.799 0.744262 1.76445 0
M  V30 5369 H 491.104 -0.854394 3.82371 0
M  V30 5370 H 492.801 -0.495312 3.97929 0
M  V30 5371 H 489.391 0.923469 4.18533 0
M  V30 5372 H 493.575 1.80008 4.62505 0
M  V30 5373 H 488.831 3.0388 5.30535 0
M  V30 5374 H 493.005 3.91586 5.75876 0
M  V30 5375 H 490.632 4.54088 6.09678 0
M  V30 5376 N 492.207 -1.54576 0.307264 0
M  V30 5377 C 493.435 -2.04675 -0.302597 0
M  V30 5378 C 493.85 -1.18425 -1.47041 0
M  V30 5379 O 493.207 -0.211257 -1.81273 0
M  V30 5380 C 493.258 -3.53575 -0.752801 0
M  V30 5381 O 492.979 -4.36547 0.368536 0
M  V30 5382 C 494.48 -4.19699 -1.42717 0
M  V30 5383 H 491.7 -0.66786 -0.0648374 0
M  V30 5384 H 494.244 -1.99516 0.448716 0
M  V30 5385 H 492.399 -3.59074 -1.45412 0
M  V30 5386 H 492.813 -5.24497 0.0168937 0
M  V30 5387 H 494.287 -5.25388 -1.69327 0
M  V30 5388 H 494.764 -3.69815 -2.36925 0
M  V30 5389 H 495.37 -4.18293 -0.768856 0
M  V30 5390 N 493.685 -0.035106 -1.57561 0
M  V30 5391 C 495.096 0.502885 -1.798 0
M  V30 5392 C 495.447 1.71892 -0.945921 0
M  V30 5393 O 494.572 2.15822 -0.157991 0
M  V30 5394 C 495.167 0.919097 -3.26095 0
M  V30 5395 C 493.726 1.40216 -3.49308 0
M  V30 5396 C 492.873 0.369709 -2.74824 0
M  V30 5397 H 495.824 -0.261102 -1.56537 0
M  V30 5398 H 495.845 1.78308 -3.36135 0
M  V30 5399 H 495.357 0.0338526 -3.88085 0
M  V30 5400 H 493.458 2.30714 -2.92578 0
M  V30 5401 H 493.571 1.40541 -4.58023 0
M  V30 5402 H 491.935 0.839113 -2.40481 0
M  V30 5403 H 492.718 -0.507173 -3.39533 0
M  V30 5404 N 495.163 1.55791 0.238111 0
M  V30 5405 C 496.409 1.78297 0.966337 0
M  V30 5406 C 496.742 0.601903 1.84637 0
M  V30 5407 O 496.017 -0.399499 1.90353 0
M  V30 5408 C 496.3 3.10758 1.81939 0
M  V30 5409 C 496.153 4.39283 0.966958 0
M  V30 5410 C 497.472 3.39519 2.80027 0
M  V30 5411 H 494.591 0.648654 0.349882 0
M  V30 5412 H 497.233 1.88525 0.236253 0
M  V30 5413 H 495.383 3.02168 2.44185 0
M  V30 5414 H 497.055 4.59873 0.362514 0
M  V30 5415 H 495.298 4.32948 0.271669 0
M  V30 5416 H 495.969 5.28368 1.59784 0
M  V30 5417 H 498.445 3.48128 2.27917 0
M  V30 5418 H 497.321 4.33402 3.36829 0
M  V30 5419 H 497.582 2.60864 3.56934 0
M  V30 5420 N 496.642 -0.504142 1.49319 0
M  V30 5421 C 497.572 -1.61473 1.68667 0
M  V30 5422 C 498.553 -1.61455 0.535378 0
M  V30 5423 O 499.738 -1.78245 0.770868 0
M  V30 5424 C 496.868 -2.99971 1.75028 0
M  V30 5425 C 495.822 -3.14854 2.89916 0
M  V30 5426 C 495.148 -4.54671 2.81387 0
M  V30 5427 C 496.448 -2.95176 4.30893 0
M  V30 5428 H 498.142 -1.45535 2.61648 0
M  V30 5429 H 495.688 -0.698711 1.25913 0
M  V30 5430 H 497.641 -3.77562 1.8715 0
M  V30 5431 H 496.365 -3.1699 0.786441 0
M  V30 5432 H 495.024 -2.39687 2.77391 0
M  V30 5433 H 494.672 -4.68562 1.82917 0
M  V30 5434 H 494.372 -4.6557 3.58494 0
M  V30 5435 H 495.896 -5.34327 2.95512 0
M  V30 5436 H 497.31 -3.62538 4.44116 0
M  V30 5437 H 495.707 -3.17549 5.09198 0
M  V30 5438 H 496.777 -1.91332 4.45556 0
M  V30 5439 N 498.12 -1.38341 -0.754957 0
M  V30 5440 C 499.348 -1.37704 -1.54419 0
M  V30 5441 C 499.763 0.0335243 -1.8877 0
M  V30 5442 O 499.12 0.999773 -1.52679 0
M  V30 5443 C 499.171 -2.23136 -2.84416 0
M  V30 5444 O 498.892 -3.58697 -2.51531 0
M  V30 5445 C 500.393 -2.30664 -3.78562 0
M  V30 5446 H 497.613 -0.471061 -0.477852 0
M  V30 5447 H 500.157 -1.81902 -0.934446 0
M  V30 5448 H 498.312 -1.82403 -3.41772 0
M  V30 5449 H 498.726 -4.03665 -3.34896 0
M  V30 5450 H 500.2 -2.9473 -4.66732 0
M  V30 5451 H 500.677 -1.3199 -4.18898 0
M  V30 5452 H 501.283 -2.71781 -3.27131 0
M  V30 5453 N 499.598 0.982988 -1.23187 0
M  V30 5454 C 500.528 2.09301 -1.03515 0
M  V30 5455 C 501.509 1.70035 0.0471136 0
M  V30 5456 O 502.694 1.93847 -0.117029 0
M  V30 5457 C 499.824 3.4167 -0.622791 0
M  V30 5458 C 498.778 3.94828 -1.65211 0
M  V30 5459 C 498.104 5.23362 -1.09527 0
M  V30 5460 C 499.404 4.2439 -3.04451 0
M  V30 5461 H 501.098 2.26016 -1.96359 0
M  V30 5462 H 498.644 1.08611 -0.945501 0
M  V30 5463 H 500.597 4.18746 -0.472233 0
M  V30 5464 H 499.321 3.24811 0.341329 0
M  V30 5465 H 497.98 3.19895 -1.79061 0
M  V30 5466 H 497.628 5.02852 -0.122211 0
M  V30 5467 H 497.328 5.59895 -1.783 0
M  V30 5468 H 498.852 6.03062 -0.956511 0
M  V30 5469 H 500.266 4.92225 -2.93917 0
M  V30 5470 H 498.663 4.72118 -3.70438 0
M  V30 5471 H 499.733 3.31765 -3.53638 0
M  V30 5472 N 501.076 1.04316 1.18135 0
M  V30 5473 C 501.986 0.646876 2.25505 0
M  V30 5474 C 503.002 -0.328008 1.7088 0
M  V30 5475 O 504.178 -0.182309 2.00573 0
M  V30 5476 C 501.243 0.0185664 3.46695 0
M  V30 5477 C 500.304 1.04277 4.16443 0
M  V30 5478 C 499.537 0.444352 5.31847 0
M  V30 5479 O 499.76 -0.748735 5.65465 0
M  V30 5480 O 498.694 1.17428 5.90334 0
M  V30 5481 H 502.52 1.54147 2.61672 0
M  V30 5482 H 500.105 0.814188 1.25265 0
M  V30 5483 H 501.987 -0.331068 4.20097 0
M  V30 5484 H 500.662 -0.849814 3.12346 0
M  V30 5485 H 499.569 1.44425 3.45098 0
M  V30 5486 H 500.902 1.882 4.54798 0
M  V30 5487 N 502.554 -1.34406 0.822964 0
M  V30 5488 C 503.501 -2.29519 0.24284 0
M  V30 5489 C 504.471 -1.5359 -0.632397 0
M  V30 5490 O 505.656 -1.8196 -0.57403 0
M  V30 5491 C 502.796 -3.40032 -0.58925 0
M  V30 5492 C 501.909 -4.30899 0.308236 0
M  V30 5493 C 501.044 -5.28515 -0.533425 0
M  V30 5494 C 500.083 -6.1102 0.363444 0
M  V30 5495 N 499.22 -7.00725 -0.439147 0
M  V30 5496 H 504.06 -2.78537 1.05929 0
M  V30 5497 H 501.597 -1.3707 0.533872 0
M  V30 5498 H 503.555 -4.0279 -1.087 0
M  V30 5499 H 502.185 -2.92248 -1.37081 0
M  V30 5500 H 501.237 -3.69002 0.924203 0
M  V30 5501 H 502.549 -4.88717 0.997862 0
M  V30 5502 H 501.703 -5.96725 -1.09565 0
M  V30 5503 H 500.442 -4.71235 -1.25656 0
M  V30 5504 H 499.447 -5.41743 0.937812 0
M  V30 5505 H 500.672 -6.70381 1.08469 0
M  V30 5506 H 498.618 -6.45913 -1.14595 0
M  V30 5507 H 498.535 -7.55756 0.19209 0
M  V30 5508 H 499.803 -7.73263 -0.984124 0
M  V30 5509 N 504.032 -0.577932 -1.46621 0
M  V30 5510 C 505.28 -0.061566 -2.02006 0
M  V30 5511 C 505.601 1.30117 -1.4524 0
M  V30 5512 O 504.871 1.85313 -0.63529 0
M  V30 5513 H 503.451 -0.0197692 -0.746738 0
M  V30 5514 H 506.113 -0.752631 -1.79782 0
M  V30 5515 H 505.209 0.0110238 -3.12098 0
M  V30 5516 N 505.51 1.54411 -0.315457 0
M  V30 5517 C 506.757 2.00419 0.289543 0
M  V30 5518 C 507.085 1.20373 1.52776 0
M  V30 5519 O 506.34 0.271769 1.93804 0
M  V30 5520 C 506.639 3.50936 0.676652 0
M  V30 5521 C 506.305 4.48532 -0.461472 0
M  V30 5522 C 504.967 4.74936 -0.773879 0
M  V30 5523 C 507.319 5.06567 -1.22637 0
M  V30 5524 C 504.647 5.56634 -1.85405 0
M  V30 5525 C 506.999 5.89441 -2.29657 0
M  V30 5526 C 505.663 6.1415 -2.61488 0
M  V30 5527 H 504.933 0.733386 0.105951 0
M  V30 5528 H 507.58 1.86434 -0.437554 0
M  V30 5529 H 505.885 3.62606 1.48405 0
M  V30 5530 H 507.582 3.83971 1.15618 0
M  V30 5531 H 504.172 4.28096 -0.207893 0
M  V30 5532 H 508.356 4.86157 -0.998271 0
M  V30 5533 H 503.612 5.74012 -2.10523 0
M  V30 5534 H 507.786 6.33432 -2.89374 0
M  V30 5535 H 505.413 6.77245 -3.45317 0
M  V30 5536 N 506.988 0.0434614 1.5754 0
M  V30 5537 C 508.218 -0.640905 1.96408 0
M  V30 5538 C 508.626 -1.65365 0.919297 0
M  V30 5539 O 507.969 -1.83395 -0.105795 0
M  V30 5540 C 508.031 -1.39141 3.31482 0
M  V30 5541 C 507.695 -0.535375 4.53853 0
M  V30 5542 C 508.692 0.195335 5.19533 0
M  V30 5543 C 506.377 -0.468564 5.0011 0
M  V30 5544 C 508.371 0.981377 6.298 0
M  V30 5545 C 506.058 0.321171 6.10255 0
M  V30 5546 C 507.056 1.04484 6.74961 0
M  V30 5547 O 506.744 1.8216 7.8299 0
M  V30 5548 H 506.476 -0.180584 0.651433 0
M  V30 5549 H 509.03 0.103848 2.05137 0
M  V30 5550 H 507.26 -2.18162 3.19284 0
M  V30 5551 H 508.949 -1.96526 3.55151 0
M  V30 5552 H 509.715 0.15314 4.84758 0
M  V30 5553 H 505.594 -1.02142 4.49542 0
M  V30 5554 H 509.138 1.54674 6.80237 0
M  V30 5555 H 505.035 0.365032 6.44467 0
M  V30 5556 H 505.803 1.74289 7.99728 0
M  V30 5557 N 508.466 -1.55915 -0.229846 0
M  V30 5558 C 509.376 -1.94891 -1.30593 0
M  V30 5559 C 510.392 -0.851604 -1.51736 0
M  V30 5560 O 511.568 -1.15447 -1.65027 0
M  V30 5561 C 508.633 -2.25052 -2.63728 0
M  V30 5562 C 507.694 -3.48306 -2.5096 0
M  V30 5563 C 506.927 -3.77019 -3.77747 0
M  V30 5564 O 507.15 -3.07534 -4.80395 0
M  V30 5565 O 506.084 -4.70523 -3.75356 0
M  V30 5566 H 509.91 -2.86581 -1.00525 0
M  V30 5567 H 507.495 -1.43017 -0.432025 0
M  V30 5568 H 509.377 -2.45682 -3.42372 0
M  V30 5569 H 508.052 -1.36538 -2.93495 0
M  V30 5570 H 506.959 -3.32964 -1.70546 0
M  V30 5571 H 508.292 -4.37177 -2.26136 0
M  V30 5572 N 509.944 0.496216 -1.49584 0
M  V30 5573 C 511.19 1.25189 -1.59548 0
M  V30 5574 C 511.523 1.9212 -0.283466 0
M  V30 5575 O 510.798 1.80947 0.713324 0
M  V30 5576 C 511.081 2.31516 -2.75812 0
M  V30 5577 C 510.934 1.69054 -4.16822 0
M  V30 5578 C 512.253 3.3304 -2.87702 0
M  V30 5579 H 509.372 0.45379 -0.580727 0
M  V30 5580 H 512.014 0.549327 -1.81886 0
M  V30 5581 H 510.164 2.91438 -2.56897 0
M  V30 5582 H 511.836 1.12923 -4.47265 0
M  V30 5583 H 510.079 0.994485 -4.22247 0
M  V30 5584 H 510.75 2.462 -4.94054 0
M  V30 5585 H 513.226 2.83114 -3.04936 0
M  V30 5586 H 512.102 4.04794 -3.7072 0
M  V30 5587 H 512.363 3.95655 -1.97255 0
M  V30 5588 N 511.423 1.38739 0.74761 0
M  V30 5589 C 512.7 1.25791 1.49786 0
M  V30 5590 C 513.08 -0.138075 2.10648 0
M  V30 5591 O 512.428 -1.14815 1.9756 0
M  V30 5592 C 512.638 2.37265 2.55942 0
M  V30 5593 C 513.986 2.75978 3.22679 0
M  V30 5594 O 515.01 2.36621 2.6625 0
M  V30 5595 O 513.869 3.43867 4.24756 0
M  V30 5596 H 510.963 0.492251 0.664543 0
M  V30 5597 H 513.509 1.50582 0.782511 0
M  V30 5598 H 512.281 3.30644 2.0926 0
M  V30 5599 H 511.904 2.14071 3.35051 0
M  V30 5600 N 512.901 -0.976442 1.23707 0
M  V30 5601 C 514.131 -1.75087 1.09673 0
M  V30 5602 C 514.539 -1.85852 -0.354344 0
M  V30 5603 O 513.882 -1.33985 -1.25673 0
M  V30 5604 C 513.944 -3.19272 1.65245 0
M  V30 5605 C 513.608 -3.32004 3.14042 0
M  V30 5606 C 514.605 -3.18017 4.11292 0
M  V30 5607 C 512.29 -3.56525 3.53829 0
M  V30 5608 C 514.284 -3.28363 5.46312 0
M  V30 5609 C 511.971 -3.6651 4.88993 0
M  V30 5610 C 512.969 -3.52439 5.85043 0
M  V30 5611 O 512.657 -3.62063 7.1775 0
M  V30 5612 H 512.389 -0.556164 0.384262 0
M  V30 5613 H 514.943 -1.23518 1.64111 0
M  V30 5614 H 513.173 -3.72107 1.05231 0
M  V30 5615 H 514.862 -3.7849 1.46629 0
M  V30 5616 H 515.628 -2.98966 3.81896 0
M  V30 5617 H 511.507 -3.66547 2.79579 0
M  V30 5618 H 515.051 -3.17297 6.21263 0
M  V30 5619 H 510.948 -3.85072 5.18063 0
M  V30 5620 H 511.716 -3.78833 7.25553 0
M  V30 5621 N 514.379 -1.04941 -1.1758 0
M  V30 5622 C 515.327 -0.64204 -2.23563 0
M  V30 5623 C 516.321 0.335453 -1.66045 0
M  V30 5624 O 517.527 0.20179 -1.78865 0
M  V30 5625 H 513.902 -0.18944 -0.727748 0
M  V30 5626 H 515.873 -1.54609 -2.55223 0
M  V30 5627 C 514.622 -0.0301051 -3.47687 0
M  V30 5628 H 513.945 -0.773339 -3.92249 0
M  V30 5629 H 515.385 0.217592 -4.23441 0
M  V30 5630 C 513.844 1.2225 -3.13937 0
M  V30 5631 O 514.374 2.3122 -3.28482 0
M  V30 5632 N 512.58 1.11917 -2.68185 0
M  V30 5633 H 512.127 0.232403 -2.5655 0
M  V30 5634 H 512.085 1.95814 -2.45976 0
M  V30 5635 N 515.857 1.33968 -0.830081 0
M  V30 5636 C 517.085 2.0228 -0.434773 0
M  V30 5637 C 517.5 1.62487 0.961419 0
M  V30 5638 O 516.857 0.833849 1.62337 0
M  V30 5639 C 516.908 3.5751 -0.535625 0
M  V30 5640 O 516.629 3.95864 -1.87679 0
M  V30 5641 C 518.13 4.43091 -0.136137 0
M  V30 5642 H 515.35 0.648151 -0.173613 0
M  V30 5643 H 517.894 1.71089 -1.12022 0
M  V30 5644 H 516.049 3.87266 0.101817 0
M  V30 5645 H 516.463 4.9056 -1.85609 0
M  V30 5646 H 517.937 5.51398 -0.257772 0
M  V30 5647 H 518.414 4.29433 0.921076 0
M  V30 5648 H 519.02 4.18677 -0.747662 0
M  V30 5649 N 517.335 0.585699 1.46312 0
M  V30 5650 C 518.582 0.0724211 2.0237 0
M  V30 5651 C 518.91 -1.28868 1.45683 0
M  V30 5652 O 518.165 -1.85853 0.612945 0
M  V30 5653 C 518.464 -0.0401312 3.57377 0
M  V30 5654 C 518.13 1.25376 4.33119 0
M  V30 5655 C 516.792 1.60824 4.5353 0
M  V30 5656 C 519.144 2.10987 4.76586 0
M  V30 5657 C 516.472 2.81676 5.14661 0
M  V30 5658 C 518.824 3.31068 5.39052 0
M  V30 5659 C 517.488 3.66794 5.5769 0
M  V30 5660 H 516.758 0.0265007 0.740526 0
M  V30 5661 H 519.405 0.762935 1.75646 0
M  V30 5662 H 517.71 -0.813791 3.83255 0
M  V30 5663 H 519.407 -0.453078 3.98432 0
M  V30 5664 H 515.997 0.967808 4.1753 0
M  V30 5665 H 520.181 1.84904 4.60569 0
M  V30 5666 H 515.437 3.0949 5.27282 0
M  V30 5667 H 519.611 3.97672 5.71691 0
M  V30 5668 H 517.238 4.60529 6.04828 0
M  V30 5669 N 518.813 -1.54241 0.323641 0
M  V30 5670 C 519.763 -2.21071 -0.557833 0
M  V30 5671 C 520.747 -1.19126 -1.08157 0
M  V30 5672 O 521.939 -1.44755 -1.01857 0
M  V30 5673 C 519.068 -2.97208 -1.71821 0
M  V30 5674 C 518.154 -4.06491 -1.20936 0
M  V30 5675 N 518.545 -5.04052 -0.420202 0
M  V30 5676 C 516.843 -4.20443 -1.48808 0
M  V30 5677 C 517.544 -5.81516 -0.146413 0
M  V30 5678 N 516.52 -5.38641 -0.732562 0
M  V30 5679 H 520.322 -2.93853 0.0523921 0
M  V30 5680 H 517.836 -1.61883 0.129502 0
M  V30 5681 H 519.833 -3.4357 -2.36146 0
M  V30 5682 H 518.493 -2.25947 -2.33191 0
M  V30 5683 H 519.504 -5.17862 -0.0630401 0
M  V30 5684 H 516.181 -3.60396 -2.10762 0
M  V30 5685 H 517.571 -6.70119 0.488895 0
M  V30 5686 N 520.291 -0.0518155 -1.57515 0
M  V30 5687 C 521.568 0.661727 -1.84067 0
M  V30 5688 C 521.948 1.88999 -0.940351 0
M  V30 5689 O 521.296 2.285 -0.00155404 0
M  V30 5690 C 521.506 1.01841 -3.3381 0
M  V30 5691 C 522.854 1.40043 -4.00841 0
M  V30 5692 O 523.878 1.11073 -3.38439 0
M  V30 5693 O 522.737 1.94111 -5.10865 0
M  V30 5694 H 519.831 0.326702 -0.759733 0
M  V30 5695 H 522.377 -0.0812277 -1.69505 0
M  V30 5696 H 521.149 0.145202 -3.91031 0
M  V30 5697 H 520.772 1.81879 -3.53562 0
M  V30 5698 N 521.769 1.56035 0.221574 0
M  V30 5699 C 522.997 1.8313 0.962864 0
M  V30 5700 C 523.412 0.630934 1.77946 0
M  V30 5701 O 522.769 -0.400519 1.78051 0
M  V30 5702 C 522.82 3.08742 1.88045 0
M  V30 5703 O 522.541 4.24147 1.09686 0
M  V30 5704 C 524.042 3.48824 2.73563 0
M  V30 5705 H 521.262 0.608775 0.282194 0
M  V30 5706 H 523.806 2.03124 0.23681 0
M  V30 5707 H 521.961 2.90723 2.56045 0
M  V30 5708 H 522.375 4.95505 1.71974 0
M  V30 5709 H 523.849 4.39752 3.3365 0
M  V30 5710 H 524.326 2.70575 3.45956 0
M  V30 5711 H 524.932 3.69282 2.10976 0
M  V30 5712 N 523.247 -0.488276 1.49845 0
M  V30 5713 C 524.477 -1.26344 1.63465 0
M  V30 5714 C 524.885 -1.86637 0.310379 0
M  V30 5715 O 524.228 -1.69184 -0.715712 0
M  V30 5716 C 524.29 -2.42407 2.65479 0
M  V30 5717 C 523.954 -2.02886 4.09495 0
M  V30 5718 C 524.951 -1.56124 4.95904 0
M  V30 5719 C 522.636 -2.12131 4.55308 0
M  V30 5720 C 524.63 -1.19129 6.26169 0
M  V30 5721 C 522.317 -1.74747 5.85582 0
M  V30 5722 C 523.315 -1.28322 6.70837 0
M  V30 5723 O 523.003 -0.914491 7.98682 0
M  V30 5724 H 522.735 -0.388921 0.552916 0
M  V30 5725 H 525.289 -0.591288 1.96705 0
M  V30 5726 H 523.519 -3.12739 2.27445 0
M  V30 5727 H 525.208 -3.04409 2.68495 0
M  V30 5728 H 525.974 -1.48417 4.61733 0
M  V30 5729 H 521.853 -2.47217 3.89107 0
M  V30 5730 H 525.397 -0.828211 6.92666 0
M  V30 5731 H 521.294 -1.82109 6.19279 0
M  V30 5732 H 522.062 -1.04485 8.11804 0
M  V30 5733 N 524.725 -1.39134 -0.740242 0
M  V30 5734 C 525.635 -1.39697 -1.88473 0
M  V30 5735 C 526.651 -0.292403 -1.71526 0
M  V30 5736 O 527.827 -0.533021 -1.94219 0
M  V30 5737 C 524.892 -1.23382 -3.24003 0
M  V30 5738 C 523.953 -2.43763 -3.53381 0
M  V30 5739 C 523.186 -2.28216 -4.82445 0
M  V30 5740 O 523.409 -1.28288 -5.55786 0
M  V30 5741 O 522.343 -3.1709 -5.11603 0
M  V30 5742 H 526.169 -2.36159 -1.90952 0
M  V30 5743 H 523.754 -1.20194 -0.887346 0
M  V30 5744 H 525.636 -1.16395 -4.05006 0
M  V30 5745 H 524.311 -0.300121 -3.22306 0
M  V30 5746 H 523.218 -2.56325 -2.72485 0
M  V30 5747 H 524.551 -3.35808 -3.59852 0
M  V30 5748 N 526.204 0.969867 -1.24223 0
M  V30 5749 C 527.432 1.74756 -1.10761 0
M  V30 5750 C 527.847 1.85713 0.340041 0
M  V30 5751 O 527.204 1.34389 1.23474 0
M  V30 5752 C 527.255 3.16915 -1.73917 0
M  V30 5753 O 526.976 3.06511 -3.13021 0
M  V30 5754 C 528.477 4.11032 -1.66036 0
M  V30 5755 H 525.697 0.548092 -0.387087 0
M  V30 5756 H 528.241 1.2178 -1.64286 0
M  V30 5757 H 526.396 3.66884 -1.244 0
M  V30 5758 H 526.81 3.96079 -3.43834 0
M  V30 5759 H 528.284 5.08446 -2.14911 0
M  V30 5760 H 528.761 4.34785 -0.621159 0
M  V30 5761 H 529.367 3.66972 -2.14969 0
M  V30 5762 N 527.682 1.05563 1.17022 0
M  V30 5763 C 528.63 0.653887 2.2322 0
M  V30 5764 C 529.624 -0.326642 1.66221 0
M  V30 5765 O 530.83 -0.192301 1.7897 0
M  V30 5766 H 527.205 0.193297 0.726733 0
M  V30 5767 H 529.176 1.5596 2.54399 0
M  V30 5768 C 527.925 0.0485434 3.47666 0
M  V30 5769 H 527.248 0.79413 3.91834 0
M  V30 5770 H 528.688 -0.195133 4.23551 0
M  V30 5771 C 527.147 -1.20583 3.14581 0
M  V30 5772 O 527.677 -2.29475 3.29703 0
M  V30 5773 N 525.883 -1.10493 2.68774 0
M  V30 5774 H 525.43 -0.218795 2.56669 0
M  V30 5775 H 525.388 -1.94507 2.47011 0
M  V30 5776 N 529.16 -1.33526 0.837174 0
M  V30 5777 C 530.388 -2.02047 0.445494 0
M  V30 5778 C 530.803 -1.62995 -0.952788 0
M  V30 5779 O 530.16 -0.842447 -1.61892 0
M  V30 5780 C 530.211 -3.57221 0.554577 0
M  V30 5781 O 529.932 -3.94863 1.89776 0
M  V30 5782 C 531.433 -4.43012 0.159634 0
M  V30 5783 H 528.653 -0.647221 0.177048 0
M  V30 5784 H 531.197 -1.70492 1.12928 0
M  V30 5785 H 529.352 -3.87315 -0.0812781 0
M  V30 5786 H 529.766 -4.89569 1.88208 0
M  V30 5787 H 531.24 -5.51253 0.28701 0
M  V30 5788 H 531.717 -4.29916 -0.898289 0
M  V30 5789 H 532.323 -4.18274 0.769855 0
M  V30 5790 N 530.638 -0.59345 -1.46 0
M  V30 5791 C 532.049 -0.169801 -1.85926 0
M  V30 5792 C 532.4 1.26984 -1.49565 0
M  V30 5793 O 531.525 1.96076 -0.915602 0
M  V30 5794 C 532.12 -0.301385 -3.37457 0
M  V30 5795 C 530.679 0.0674684 -3.7634 0
M  V30 5796 C 529.826 -0.632383 -2.69993 0
M  V30 5797 H 532.777 -0.801014 -1.37002 0
M  V30 5798 H 532.798 0.470331 -3.77582 0
M  V30 5799 H 532.31 -1.34927 -3.63891 0
M  V30 5800 H 530.411 1.11507 -3.55523 0
M  V30 5801 H 530.524 -0.316332 -4.78055 0
M  V30 5802 H 528.888 -0.0714961 -2.546 0
M  V30 5803 H 529.671 -1.68212 -2.99265 0
M  V30 5804 N 532.116 1.54067 -0.331816 0
M  V30 5805 C 533.341 2.05599 0.272705 0
M  V30 5806 C 533.766 1.2059 1.44359 0
M  V30 5807 O 533.124 0.216907 1.79998 0
M  V30 5808 C 533.172 3.54188 0.677021 0
M  V30 5809 O 532.276 3.72082 1.77844 0
M  V30 5810 H 531.617 0.662286 0.0476801 0
M  V30 5811 H 534.147 1.98826 -0.482624 0
M  V30 5812 H 534.157 3.96608 0.957415 0
M  V30 5813 H 532.832 4.15513 -0.179325 0
M  V30 5814 H 531.409 3.41566 1.49622 0
M  V30 5815 N 533.594 0.0601682 1.57485 0
M  V30 5816 C 534.834 -0.615384 1.94916 0
M  V30 5817 C 535.198 -1.67475 0.938948 0
M  V30 5818 O 536.399 -2.40502 1.20051 0
M  V30 5819 C 534.67 -1.18788 3.37082 0
M  V30 5820 S 536.229 -1.88018 3.96478 0
M  V30 5821 H 533.047 -0.201821 0.681754 0
M  V30 5822 H 535.649 0.131252 1.95059 0
M  V30 5823 H 534.353 -0.404869 4.08398 0
M  V30 5824 H 533.884 -1.97114 3.40455 0
M  V30 5825 H 535.899 -3.16161 3.82435 0
M  V30 5826 N 535.072 -1.5615 -0.213296 0
M  V30 5827 C 536.312 -1.81325 -0.943435 0
M  V30 5828 C 536.676 -0.634934 -1.81198 0
M  V30 5829 O 537.877 -0.766166 -2.5765 0
M  V30 5830 C 536.148 -3.11437 -1.75334 0
M  V30 5831 S 537.707 -3.57955 -2.53799 0
M  V30 5832 H 534.525 -0.636538 -0.316766 0
M  V30 5833 H 537.127 -1.94387 -0.208313 0
M  V30 5834 H 535.831 -3.95228 -1.10556 0
M  V30 5835 H 535.362 -3.01204 -2.53061 0
M  V30 5836 H 537.377 -3.21947 -3.77577 0
M  V30 5837 N 536.55 0.480323 -1.50102 0
M  V30 5838 C 537.513 1.56181 -1.6775 0
M  V30 5839 C 538.513 1.51156 -0.548503 0
M  V30 5840 O 539.703 1.5394 -0.815363 0
M  V30 5841 C 536.835 2.95823 -1.69415 0
M  V30 5842 H 538.028 1.41855 -2.6423 0
M  V30 5843 H 535.581 0.70605 -1.39444 0
M  V30 5844 H 536.316 3.15604 -0.745948 0
M  V30 5845 H 536.101 3.00878 -2.51425 0
M  V30 5846 H 537.591 3.74359 -1.85054 0
M  V30 5847 N 538.028 1.39524 0.732853 0
M  V30 5848 C 538.975 1.38416 1.84688 0
M  V30 5849 C 539.945 0.243539 1.64305 0
M  V30 5850 O 541.13 0.438979 1.85681 0
M  V30 5851 C 538.27 1.23555 3.22224 0
M  V30 5852 C 537.383 2.47179 3.54298 0
M  V30 5853 C 536.518 2.2489 4.81246 0
M  V30 5854 C 535.557 3.44178 5.0617 0
M  V30 5855 N 534.694 3.21192 6.24323 0
M  V30 5856 H 539.534 2.33645 1.84971 0
M  V30 5857 H 537.071 1.16059 0.903804 0
M  V30 5858 H 539.029 1.12949 4.0162 0
M  V30 5859 H 537.659 0.31954 3.21215 0
M  V30 5860 H 536.711 2.68379 2.69587 0
M  V30 5861 H 538.023 3.36022 3.68633 0
M  V30 5862 H 537.177 2.11538 5.68627 0
M  V30 5863 H 535.916 1.33443 4.69089 0
M  V30 5864 H 534.921 3.58025 4.17251 0
M  V30 5865 H 536.146 4.36528 5.20212 0
M  V30 5866 H 534.092 2.32413 6.1345 0
M  V30 5867 H 534.009 4.03594 6.39256 0
M  V30 5868 H 535.277 3.1154 7.14537 0
M  V30 5869 N 539.506 -0.963266 1.24736 0
M  V30 5870 C 540.416 -2.09246 1.06082 0
M  V30 5871 C 541.432 -1.74 0.000363101 0
M  V30 5872 O 542.608 -2.0041 0.199479 0
M  V30 5873 C 539.673 -3.40115 0.672498 0
M  V30 5874 C 538.734 -3.89282 1.80993 0
M  V30 5875 C 537.967 -5.13905 1.44004 0
M  V30 5876 O 538.19 -5.69434 0.331835 0
M  V30 5877 O 537.124 -5.57566 2.26723 0
M  V30 5878 H 540.95 -2.27881 2.00759 0
M  V30 5879 H 538.535 -1.07649 1.03595 0
M  V30 5880 H 540.417 -4.18797 0.467668 0
M  V30 5881 H 539.092 -3.22771 -0.245102 0
M  V30 5882 H 537.999 -3.11642 2.06955 0
M  V30 5883 H 539.332 -4.1111 2.70646 0
M  V30 5884 N 540.985 -1.06182 -1.16461 0
M  V30 5885 C 541.915 -0.692861 -2.22984 0
M  V30 5886 C 542.896 0.314122 -1.67174 0
M  V30 5887 O 544.081 0.189499 -1.93273 0
M  V30 5888 C 541.211 -0.07732 -3.47214 0
M  V30 5889 C 540.165 -1.01015 -4.15909 0
M  V30 5890 C 539.491 -0.257973 -5.34077 0
M  V30 5891 C 540.791 -2.33868 -4.67015 0
M  V30 5892 H 542.485 -1.58343 -2.54102 0
M  V30 5893 H 540.031 -0.76279 -1.22137 0
M  V30 5894 H 541.984 0.19266 -4.20959 0
M  V30 5895 H 540.708 0.848254 -3.15392 0
M  V30 5896 H 539.367 -1.26486 -3.44088 0
M  V30 5897 H 539.015 0.670684 -4.98509 0
M  V30 5898 H 538.715 -0.879638 -5.80979 0
M  V30 5899 H 540.239 0.00448788 -6.106 0
M  V30 5900 H 541.653 -2.1279 -5.32347 0
M  V30 5901 H 540.05 -2.91522 -5.24533 0
M  V30 5902 H 541.12 -2.97019 -3.83286 0
M  V30 5903 N 542.463 1.3308 -0.844243 0
M  V30 5904 C 543.426 2.27403 -0.286485 0
M  V30 5905 C 544.426 1.51179 0.547872 0
M  V30 5906 O 545.616 1.70421 0.360886 0
M  V30 5907 C 542.748 3.35653 0.595813 0
M  V30 5908 H 543.941 2.78248 -1.11885 0
M  V30 5909 H 541.494 1.43574 -0.617749 0
M  V30 5910 H 542.229 2.90058 1.4504 0
M  V30 5911 H 542.014 3.921 -0.00125994 0
M  V30 5912 H 543.504 4.05958 0.979168 0
M  V30 5913 N 543.941 0.601185 1.45683 0
M  V30 5914 C 544.851 -0.123395 2.34275 0
M  V30 5915 C 545.867 -0.86702 1.5086 0
M  V30 5916 O 547.043 -0.826049 1.8368 0
M  V30 5917 C 544.108 -1.11237 3.2837 0
M  V30 5918 C 543.169 -0.371405 4.2769 0
M  V30 5919 C 542.402 -1.31327 5.1729 0
M  V30 5920 O 542.625 -2.55078 5.10188 0
M  V30 5921 O 541.559 -0.813811 5.96373 0
M  V30 5922 H 545.385 0.604483 2.97623 0
M  V30 5923 H 542.97 0.361477 1.44961 0
M  V30 5924 H 544.852 -1.68214 3.8637 0
M  V30 5925 H 543.527 -1.82139 2.67595 0
M  V30 5926 H 542.434 0.24067 3.73325 0
M  V30 5927 H 543.767 0.296998 4.91303 0
M  V30 5928 N 545.419 -1.53889 0.339982 0
M  V30 5929 C 546.352 -2.21187 -0.561405 0
M  V30 5930 C 547.33 -1.19463 -1.10306 0
M  V30 5931 O 548.514 -1.48268 -1.164 0
M  V30 5932 C 545.641 -2.8865 -1.77198 0
M  V30 5933 C 544.687 -4.04232 -1.3601 0
M  V30 5934 S 545.52 -5.34129 -0.382909 0
M  V30 5935 C 546.676 -6.05094 -1.60039 0
M  V30 5936 H 546.909 -2.97298 0.0102092 0
M  V30 5937 H 544.442 -1.53901 0.124056 0
M  V30 5938 H 546.4 -3.28138 -2.4665 0
M  V30 5939 H 545.061 -2.12311 -2.3148 0
M  V30 5940 H 544.254 -4.50358 -2.2626 0
M  V30 5941 H 543.856 -3.66503 -0.745098 0
M  V30 5942 H 546.148 -6.2827 -2.53541 0
M  V30 5943 H 547.091 -6.98182 -1.18099 0
M  V30 5944 H 547.499 -5.35207 -1.79483 0
M  V30 5945 N 546.897 -0.0685191 -1.57451 0
M  V30 5946 C 547.844 0.899861 -2.12535 0
M  V30 5947 C 548.814 1.29749 -1.03703 0
M  V30 5948 O 549.999 1.38392 -1.31348 0
M  V30 5949 C 547.139 2.16328 -2.6888 0
M  V30 5950 C 546.252 1.81857 -3.91857 0
M  V30 5951 C 545.387 3.02786 -4.36457 0
M  V30 5952 C 544.426 2.64317 -5.5209 0
M  V30 5953 N 543.563 3.77994 -5.91663 0
M  V30 5954 H 548.403 0.423243 -2.94979 0
M  V30 5955 H 545.94 0.197268 -1.45771 0
M  V30 5956 H 547.898 2.90281 -2.99655 0
M  V30 5957 H 546.528 2.61536 -1.89206 0
M  V30 5958 H 545.58 0.979808 -3.67565 0
M  V30 5959 H 546.892 1.49553 -4.75852 0
M  V30 5960 H 546.046 3.85021 -4.68875 0
M  V30 5961 H 544.785 3.38281 -3.51308 0
M  V30 5962 H 543.79 1.80503 -5.19325 0
M  V30 5963 H 545.015 2.29995 -6.38967 0
M  V30 5964 H 542.961 4.13258 -5.09464 0
M  V30 5965 H 542.878 3.49447 -6.7039 0
M  V30 5966 H 544.146 4.60818 -6.28703 0
M  V30 5967 N 548.375 1.56261 0.205012 0
M  V30 5968 C 549.791 1.49623 0.555433 0
M  V30 5969 C 549.991 0.766719 1.86343 0
M  V30 5970 O 549.047 0.313158 2.50551 0
M  V30 5971 C 550.36 2.94253 0.619347 0
M  V30 5972 C 551.908 3.04868 0.708855 0
M  V30 5973 C 552.383 4.50888 0.803969 0
M  V30 5974 N 553.874 4.54999 0.867758 0
M  V30 5975 C 554.609 5.65284 0.96135 0
M  V30 5976 N 554.105 6.85282 1.01786 0
M  V30 5977 N 555.898 5.53174 0.997771 0
M  V30 5978 H 548.049 2.0211 -0.653094 0
M  V30 5979 H 550.312 0.919333 -0.231366 0
M  V30 5980 H 550.018 3.50643 -0.272458 0
M  V30 5981 H 549.892 3.47063 1.47741 0
M  V30 5982 H 552.279 2.48532 1.5911 0
M  V30 5983 H 552.36 2.55199 -0.175205 0
M  V30 5984 H 552.004 5.07846 -0.0738798 0
M  V30 5985 H 551.934 4.98279 1.70369 0
M  V30 5986 H 554.425 3.68588 0.833735 0
M  V30 5987 H 554.738 7.65081 1.08951 0
M  V30 5988 H 553.083 6.8796 0.986706 0
M  V30 5989 H 556.274 4.5835 0.950392 0
M  V30 5990 H 556.447 6.39151 1.06725 0
M  V30 5991 N 549.853 -0.472356 1.50355 0
M  V30 5992 C 550.763 -1.59637 1.7191 0
M  V30 5993 C 551.779 -1.63247 0.602195 0
M  V30 5994 O 552.955 -1.81139 0.880369 0
M  V30 5995 C 550.02 -2.9586 1.80742 0
M  V30 5996 C 549.081 -3.02649 3.04471 0
M  V30 5997 C 548.314 -4.32374 3.12872 0
M  V30 5998 O 548.537 -5.22807 2.28099 0
M  V30 5999 O 547.471 -4.44728 4.05587 0
M  V30 6000 H 551.297 -1.44373 2.67189 0
M  V30 6001 H 548.882 -0.651717 1.34436 0
M  V30 6002 H 550.764 -3.7677 1.88739 0
M  V30 6003 H 549.439 -3.11325 0.88647 0
M  V30 6004 H 548.346 -2.20821 3.01975 0
M  V30 6005 H 549.679 -2.92119 3.9614 0
M  V30 6006 N 551.331 -1.39911 -0.725443 0
M  V30 6007 C 552.579 -1.37382 -1.48224 0
M  V30 6008 C 552.9 0.0264107 -1.94982 0
M  V30 6009 O 552.17 0.979408 -1.6966 0
M  V30 6010 H 550.75 -0.505596 -0.549892 0
M  V30 6011 H 553.412 -1.7487 -0.860608 0
M  V30 6012 H 552.508 -2.04254 -2.3598 0
M  V30 6013 N 552.809 0.956637 -1.25245 0
M  V30 6014 C 554.225 1.22733 -1.02023 0
M  V30 6015 C 554.425 1.99761 0.264186 0
M  V30 6016 O 553.481 2.32814 0.977436 0
M  V30 6017 C 554.794 2.00367 -2.24217 0
M  V30 6018 C 556.342 2.13418 -2.28958 0
M  V30 6019 C 556.817 2.9445 -3.50803 0
M  V30 6020 N 558.308 3.02029 -3.51187 0
M  V30 6021 C 559.043 3.65116 -4.42129 0
M  V30 6022 N 558.539 4.2983 -5.43339 0
M  V30 6023 N 560.332 3.62237 -4.29815 0
M  V30 6024 H 552.483 0.441282 -2.07765 0
M  V30 6025 H 554.746 0.257686 -0.912306 0
M  V30 6026 H 554.452 1.51165 -3.17556 0
M  V30 6027 H 554.326 3.01077 -2.27228 0
M  V30 6028 H 556.713 2.61819 -1.36143 0
M  V30 6029 H 556.794 1.1202 -2.29968 0
M  V30 6030 H 556.438 2.46741 -4.43939 0
M  V30 6031 H 556.368 3.9607 -3.47039 0
M  V30 6032 H 558.859 2.56007 -2.77973 0
M  V30 6033 H 559.172 4.75819 -6.08947 0
M  V30 6034 H 557.517 4.28465 -5.47214 0
M  V30 6035 H 560.708 3.10863 -3.49974 0
M  V30 6036 H 560.881 4.11117 -5.00886 0
M  V30 6037 N 554.287 1.06798 1.15896 0
M  V30 6038 C 555.217 0.704677 2.22613 0
M  V30 6039 C 556.198 -0.305252 1.67339 0
M  V30 6040 O 557.383 -0.179247 1.93371 0
M  V30 6041 C 554.513 0.0957325 3.47168 0
M  V30 6042 C 553.467 1.0322 4.15367 0
M  V30 6043 C 552.793 0.286293 5.33933 0
M  V30 6044 C 554.093 2.36341 4.65768 0
M  V30 6045 H 555.787 1.59688 2.53259 0
M  V30 6046 H 553.333 0.769257 1.21731 0
M  V30 6047 H 555.286 -0.170333 4.21056 0
M  V30 6048 H 554.01 -0.831516 3.15838 0
M  V30 6049 H 552.669 1.28309 3.43413 0
M  V30 6050 H 552.317 -0.644237 4.98857 0
M  V30 6051 H 552.017 0.910436 5.80504 0
M  V30 6052 H 553.541 0.0278938 6.10594 0
M  V30 6053 H 554.955 2.1561 5.31211 0
M  V30 6054 H 553.352 2.94299 5.2298 0
M  V30 6055 H 554.422 2.99047 3.81705 0
M  V30 6056 N 555.766 -1.3263 0.851289 0
M  V30 6057 C 556.696 -2.31449 0.308771 0
M  V30 6058 C 557.677 -1.59531 -0.590255 0
M  V30 6059 O 558.862 -1.87351 -0.511205 0
M  V30 6060 C 555.992 -3.43586 -0.506548 0
M  V30 6061 C 554.946 -4.26963 0.297753 0
M  V30 6062 C 554.272 -5.30831 -0.642094 0
M  V30 6063 C 555.572 -4.99643 1.52166 0
M  V30 6064 H 557.266 -2.77074 1.13447 0
M  V30 6065 H 554.812 -1.33207 0.546971 0
M  V30 6066 H 556.765 -4.11754 -0.896474 0
M  V30 6067 H 555.489 -2.96681 -1.36558 0
M  V30 6068 H 554.148 -3.60437 0.669391 0
M  V30 6069 H 553.796 -4.8018 -1.49788 0
M  V30 6070 H 553.496 -5.87501 -0.107968 0
M  V30 6071 H 555.02 -6.01862 -1.02927 0
M  V30 6072 H 556.434 -5.6051 1.20421 0
M  V30 6073 H 554.831 -5.66022 1.99347 0
M  V30 6074 H 555.901 -4.27701 2.28474 0
M  V30 6075 N 557.244 -0.608902 -1.45362 0
M  V30 6076 C 558.176 0.147318 -2.28726 0
M  V30 6077 C 559.189 0.830468 -1.40025 0
M  V30 6078 O 560.378 0.695636 -1.64387 0
M  V30 6079 C 557.478 1.22968 -3.15804 0
M  V30 6080 C 556.651 0.633391 -4.3279 0
M  V30 6081 C 555.71 1.60682 -5.01067 0
M  V30 6082 O 554.736 1.13261 -5.57818 0
M  V30 6083 N 555.938 2.94123 -5.00472 0
M  V30 6084 H 558.703 -0.568014 -2.94268 0
M  V30 6085 H 556.264 -0.448479 -1.55564 0
M  V30 6086 H 558.256 1.88072 -3.58345 0
M  V30 6087 H 556.826 1.84752 -2.52162 0
M  V30 6088 H 556.046 -0.195762 -3.93714 0
M  V30 6089 H 557.334 0.215255 -5.08344 0
M  V30 6090 H 556.732 3.3525 -4.55657 0
M  V30 6091 H 555.289 3.54646 -5.46872 0
M  V30 6092 N 558.722 1.53707 -0.348139 0
M  V30 6093 C 559.952 2.05108 0.247864 0
M  V30 6094 C 560.36 1.22252 1.44399 0
M  V30 6095 O 559.703 0.251853 1.81965 0
M  V30 6096 C 559.765 3.52171 0.722187 0
M  V30 6097 C 559.429 4.5562 -0.354902 0
M  V30 6098 C 560.426 5.05883 -1.19911 0
M  V30 6099 C 558.111 4.99703 -0.510145 0
M  V30 6100 C 560.105 5.98814 -2.18406 0
M  V30 6101 C 557.792 5.92443 -1.49848 0
M  V30 6102 C 558.79 6.41887 -2.33389 0
M  V30 6103 O 558.478 7.32802 -3.3054 0
M  V30 6104 H 558.21 0.674086 0.0508296 0
M  V30 6105 H 560.764 1.99229 -0.49968 0
M  V30 6106 H 558.994 3.55529 1.52105 0
M  V30 6107 H 560.683 3.8652 1.23925 0
M  V30 6108 H 561.449 4.72586 -1.09028 0
M  V30 6109 H 557.328 4.60816 0.130274 0
M  V30 6110 H 560.872 6.3733 -2.83649 0
M  V30 6111 H 556.769 6.25155 -1.60786 0
M  V30 6112 H 557.537 7.50749 -3.26064 0
M  V30 6113 N 560.2 0.0768682 1.57412 0
M  V30 6114 C 561.13 -0.886026 2.16037 0
M  V30 6115 C 562.111 -1.30691 1.08876 0
M  V30 6116 O 563.296 -1.37705 1.36934 0
M  V30 6117 C 560.426 -2.1518 2.72608 0
M  V30 6118 C 559.38 -1.87015 3.8498 0
M  V30 6119 C 558.706 -3.20266 4.28175 0
M  V30 6120 C 560.006 -1.17143 5.08994 0
M  V30 6121 H 561.7 -0.397642 2.96748 0
M  V30 6122 H 559.246 -0.189823 1.42743 0
M  V30 6123 H 561.199 -2.82962 3.12266 0
M  V30 6124 H 559.923 -2.66269 1.89125 0
M  V30 6125 H 558.582 -1.21636 3.45833 0
M  V30 6126 H 558.23 -3.69207 3.41607 0
M  V30 6127 H 557.93 -3.0221 5.03927 0
M  V30 6128 H 559.454 -3.89237 4.70454 0
M  V30 6129 H 560.868 -1.75003 5.45937 0
M  V30 6130 H 559.265 -1.09328 5.90057 0
M  V30 6131 H 560.335 -0.151295 4.84664 0
M  V30 6132 N 561.678 -1.56367 -0.196722 0
M  V30 6133 C 563.089 -1.70462 -0.761545 0
M  V30 6134 C 563.44 -0.683161 -1.83922 0
M  V30 6135 O 562.565 0.160753 -2.15802 0
M  V30 6136 C 563.16 -3.09057 -1.38814 0
M  V30 6137 C 561.719 -3.24922 -1.90007 0
M  V30 6138 C 560.866 -2.66412 -0.769399 0
M  V30 6139 H 563.817 -1.58675 0.0283263 0
M  V30 6140 H 563.838 -3.06296 -2.2575 0
M  V30 6141 H 563.35 -3.83378 -0.603559 0
M  V30 6142 H 561.451 -2.55514 -2.71189 0
M  V30 6143 H 561.564 -4.3241 -2.06297 0
M  V30 6144 H 559.928 -2.25546 -1.18326 0
M  V30 6145 H 560.711 -3.433 0.00291773 0
M  V30 6146 N 563.156 0.464375 -1.50603 0
M  V30 6147 C 564.381 1.24372 -1.65971 0
M  V30 6148 C 564.806 1.84901 -0.345453 0
M  V30 6149 O 564.164 1.67596 0.691457 0
M  V30 6150 C 564.212 2.32331 -2.7578 0
M  V30 6151 O 563.316 3.37146 -2.375 0
M  V30 6152 H 562.657 0.365604 -0.554283 0
M  V30 6153 H 565.187 0.55183 -1.97018 0
M  V30 6154 H 565.197 2.77539 -2.99059 0
M  V30 6155 H 563.872 1.87648 -3.71162 0
M  V30 6156 H 562.449 2.97602 -2.24694 0
M  V30 6157 N 564.634 1.40294 0.718013 0
M  V30 6158 C 566.045 1.34289 1.29705 0
M  V30 6159 C 566.396 0.0152228 1.96194 0
M  V30 6160 O 565.521 -0.88682 1.97394 0
M  V30 6161 C 566.116 2.43219 2.3586 0
M  V30 6162 C 564.675 2.40682 2.89394 0
M  V30 6163 C 563.822 2.24223 1.63154 0
M  V30 6164 H 566.773 1.50135 0.514312 0
M  V30 6165 H 566.794 2.10986 3.16647 0
M  V30 6166 H 566.306 3.39836 1.87439 0
M  V30 6167 H 564.407 1.47756 3.42051 0
M  V30 6168 H 564.52 3.36177 3.41353 0
M  V30 6169 H 562.884 1.71696 1.88129 0
M  V30 6170 H 563.667 3.22834 1.16761 0
M  V30 6171 N 566.112 -0.949982 1.2575 0
M  V30 6172 C 567.523 -1.50989 1.09815 0
M  V30 6173 C 567.874 -1.93497 -0.324556 0
M  V30 6174 O 566.999 -1.79068 -1.21506 0
M  V30 6175 C 567.594 -2.74394 1.98729 0
M  V30 6176 C 566.153 -3.26682 1.86965 0
M  V30 6177 C 565.3 -1.99498 1.92603 0
M  V30 6178 H 568.251 -0.766387 1.38968 0
M  V30 6179 H 568.272 -3.48383 1.53001 0
M  V30 6180 H 567.784 -2.43425 3.02268 0
M  V30 6181 H 565.885 -3.62461 0.863279 0
M  V30 6182 H 565.998 -3.94383 2.72027 0
M  V30 6183 H 564.362 -2.15005 1.36546 0
M  V30 6184 H 565.145 -1.70871 2.97755 0
M  V30 6185 N 567.59 -1.07411 -1.15328 0
M  V30 6186 C 568.52 -0.716472 -2.22236 0
M  V30 6187 C 569.501 0.296373 -1.67498 0
M  V30 6188 O 570.686 0.168989 -1.93463 0
M  V30 6189 C 567.816 -0.114142 -3.47112 0
M  V30 6190 C 566.77 -1.05421 -4.14814 0
M  V30 6191 C 566.096 -0.314604 -5.33774 0
M  V30 6192 C 567.396 -2.38808 -4.64508 0
M  V30 6193 H 569.09 -1.61029 -2.52408 0
M  V30 6194 H 566.636 -0.775702 -1.21321 0
M  V30 6195 H 568.589 0.148001 -4.2114 0
M  V30 6196 H 567.313 0.814755 -3.16274 0
M  V30 6197 H 565.972 -1.30128 -3.42728 0
M  V30 6198 H 565.62 0.617772 -4.99192 0
M  V30 6199 H 565.32 -0.941209 -5.80013 0
M  V30 6200 H 566.844 -0.0602747 -6.1057 0
M  V30 6201 H 568.258 -2.18424 -5.3006 0
M  V30 6202 H 566.655 -2.97069 -5.21412 0
M  V30 6203 H 567.725 -3.01067 -3.80114 0
M  V30 6204 N 569.068 1.32177 -0.85831 0
M  V30 6205 C 569.998 2.31282 -0.321041 0
M  V30 6206 C 570.979 1.59841 0.581786 0
M  V30 6207 O 572.164 1.87619 0.501262 0
M  V30 6208 C 569.294 3.4385 0.48832 0
M  V30 6209 C 568.248 4.26799 -0.320391 0
M  V30 6210 C 567.574 5.31164 0.613934 0
M  V30 6211 C 568.874 4.98829 -1.54813 0
M  V30 6212 H 570.568 2.76469 -1.14915 0
M  V30 6213 H 568.114 1.32916 -0.554028 0
M  V30 6214 H 570.067 4.12224 0.874626 0
M  V30 6215 H 568.791 2.97401 1.34983 0
M  V30 6216 H 567.45 3.60077 -0.688497 0
M  V30 6217 H 567.098 4.80967 1.47239 0
M  V30 6218 H 566.798 5.8755 0.0768097 0
M  V30 6219 H 568.322 6.024 0.997336 0
M  V30 6220 H 569.736 5.59864 -1.23392 0
M  V30 6221 H 568.133 5.64957 -2.02346 0
M  V30 6222 H 569.203 4.26483 -2.30739 0
M  V30 6223 N 570.547 0.616602 1.45037 0
M  V30 6224 C 571.795 0.115103 2.01772 0
M  V30 6225 C 572.116 -1.2622 1.48639 0
M  V30 6226 O 571.386 -1.83563 0.684199 0
M  V30 6227 H 569.966 0.0395607 0.745952 0
M  V30 6228 H 572.628 0.800032 1.77723 0
M  V30 6229 H 571.724 0.0717274 3.12018 0
M  V30 6230 N 572.025 -1.5352 0.356285 0
M  V30 6231 C 573.273 -2.00719 -0.235837 0
M  V30 6232 C 573.594 -1.24551 -1.5004 0
M  V30 6233 O 572.864 -0.356185 -1.92635 0
M  V30 6234 H 571.444 -0.741542 -0.0901366 0
M  V30 6235 H 574.106 -1.88887 0.480378 0
M  V30 6236 H 573.202 -3.08551 -0.469357 0
M  V30 6237 N 573.503 -0.0852151 -1.57369 0
M  V30 6238 C 574.743 0.584297 -1.95871 0
M  V30 6239 C 575.107 1.6596 -0.965473 0
M  V30 6240 O 576.308 2.38561 -1.23862 0
M  V30 6241 C 574.579 1.13411 -3.38929 0
M  V30 6242 S 576.138 1.81687 -3.99419 0
M  V30 6243 H 572.956 0.19095 -0.684879 0
M  V30 6244 H 575.558 -0.162267 -1.94825 0
M  V30 6245 H 574.262 0.339845 -4.0899 0
M  V30 6246 H 573.793 1.91672 -3.43548 0
M  V30 6247 H 575.808 3.10037 -3.87417 0
M  V30 6248 N 574.981 1.5647 0.188427 0
M  V30 6249 C 575.944 1.9421 1.21718 0
M  V30 6250 C 576.944 0.823901 1.38089 0
M  V30 6251 O 578.134 1.09122 1.35787 0
M  V30 6252 C 575.266 2.22197 2.58537 0
M  V30 6253 H 576.459 2.86252 0.894418 0
M  V30 6254 H 574.012 1.50263 0.430211 0
M  V30 6255 H 574.747 1.32814 2.95856 0
M  V30 6256 H 574.532 3.03688 2.48025 0
M  V30 6257 H 576.022 2.52376 3.3271 0
M  V30 6258 N 576.459 -0.456382 1.50847 0
M  V30 6259 C 577.369 -1.57805 1.73594 0
M  V30 6260 C 578.385 -1.62599 0.619476 0
M  V30 6261 O 579.561 -1.80195 0.899532 0
M  V30 6262 C 576.626 -2.93926 1.8387 0
M  V30 6263 C 575.687 -2.99402 3.07663 0
M  V30 6264 C 574.92 -4.29031 3.1744 0
M  V30 6265 O 575.143 -5.20358 2.33631 0
M  V30 6266 O 574.077 -4.40401 4.10281 0
M  V30 6267 H 577.903 -1.41531 2.68705 0
M  V30 6268 H 575.488 -0.637422 1.3512 0
M  V30 6269 H 577.37 -3.74747 1.92725 0
M  V30 6270 H 576.045 -3.10368 0.91944 0
M  V30 6271 H 574.952 -2.17606 3.043 0
M  V30 6272 H 576.285 -2.87901 3.99216 0
M  V30 6273 N 577.937 -1.40673 -0.710563 0
M  V30 6274 C 578.9 -1.4108 -1.80635 0
M  V30 6275 C 579.9 -0.303783 -1.57904 0
M  V30 6276 O 581.09 -0.562937 -1.64853 0
M  V30 6277 C 578.222 -1.20748 -3.18799 0
M  V30 6278 H 579.415 -2.38612 -1.81671 0
M  V30 6279 H 576.968 -1.26595 -0.916704 0
M  V30 6280 H 577.703 -0.239964 -3.23411 0
M  V30 6281 H 577.488 -2.00941 -3.36698 0
M  V30 6282 H 578.978 -1.23833 -3.98817 0
M  V30 6283 N 579.415 0.9433 -1.26252 0
M  V30 6284 C 580.663 1.68592 -1.11451 0
M  V30 6285 C 580.984 1.91957 0.343123 0
M  V30 6286 O 580.254 1.51475 1.24226 0
M  V30 6287 H 578.834 0.624789 -0.409448 0
M  V30 6288 H 581.496 1.13351 -1.58548 0
M  V30 6289 H 580.592 2.66054 -1.63162 0
M  V30 6290 N 580.893 1.08022 1.14757 0
M  V30 6291 C 581.823 0.728248 2.21853 0
M  V30 6292 C 582.804 -0.287486 1.67653 0
M  V30 6293 O 583.989 -0.158727 1.9355 0
M  V30 6294 C 581.119 0.132549 3.47047 0
M  V30 6295 C 580.073 1.07619 4.14249 0
M  V30 6296 C 579.399 0.342907 5.33599 0
M  V30 6297 C 580.699 2.41268 4.63235 0
M  V30 6298 H 582.393 1.62365 2.51551 0
M  V30 6299 H 579.939 0.782125 1.20908 0
M  V30 6300 H 581.892 -0.125665 4.21213 0
M  V30 6301 H 580.616 -0.797971 3.16702 0
M  V30 6302 H 579.275 1.31944 3.42033 0
M  V30 6303 H 578.923 -0.59129 4.99513 0
M  V30 6304 H 578.623 0.971955 5.79506 0
M  V30 6305 H 580.147 0.0926538 6.1053 0
M  V30 6306 H 581.561 2.21232 5.28894 0
M  V30 6307 H 579.958 2.9983 5.19829 0
M  V30 6308 H 581.028 3.03079 3.78512 0
M  V30 6309 N 582.371 -1.3172 0.865308 0
M  V30 6310 C 583.648 -1.91574 0.394789 0
M  V30 6311 C 584.028 -1.78769 -1.12271 0
M  V30 6312 O 583.376 -1.19245 -1.94918 0
M  V30 6313 C 583.586 -3.37957 0.870982 0
M  V30 6314 C 584.934 -4.15073 0.894384 0
M  V30 6315 O 585.958 -3.4672 0.816325 0
M  V30 6316 O 584.817 -5.37151 1.00651 0
M  V30 6317 H 581.911 -0.818649 0.117229 0
M  V30 6318 H 584.457 -1.4042 0.952913 0
M  V30 6319 H 583.229 -3.41269 1.91444 0
M  V30 6320 H 582.852 -3.96534 0.290907 0
M  V30 6321 N 583.85 -0.624285 -1.44708 0
M  V30 6322 C 584.812 0.0749638 -2.29077 0
M  V30 6323 C 585.812 0.778965 -1.40673 0
M  V30 6324 O 587.003 0.624591 -1.62618 0
M  V30 6325 C 584.135 1.11663 -3.22094 0
M  V30 6326 H 585.327 -0.667013 -2.92388 0
M  V30 6327 H 582.88 -0.384098 -1.51507 0
M  V30 6328 H 583.615 1.88881 -2.63618 0
M  V30 6329 H 583.401 0.61583 -3.87234 0
M  V30 6330 H 584.891 1.60585 -3.8549 0
M  V30 6331 N 585.328 1.53329 -0.364422 0
M  V30 6332 C 586.238 2.29414 0.490552 0
M  V30 6333 C 587.254 1.35335 1.09363 0
M  V30 6334 O 588.43 1.68391 1.10483 0
M  V30 6335 C 585.495 3.06772 1.61529 0
M  V30 6336 C 584.556 4.16516 1.03986 0
M  V30 6337 C 583.789 4.90176 2.111 0
M  V30 6338 O 584.012 4.63687 3.32191 0
M  V30 6339 O 582.946 5.76134 1.74222 0
M  V30 6340 H 586.772 3.03428 -0.12856 0
M  V30 6341 H 584.357 1.48843 -0.128837 0
M  V30 6342 H 586.239 3.55082 2.26924 0
M  V30 6343 H 584.914 2.35596 2.21983 0
M  V30 6344 H 583.821 3.7246 0.349856 0
M  V30 6345 H 585.154 4.89855 0.4799 0
M  V30 6346 N 586.806 0.0935595 1.57322 0
M  V30 6347 C 587.769 -0.851426 2.12799 0
M  V30 6348 C 588.769 -1.21187 1.0569 0
M  V30 6349 O 589.959 -1.14156 1.31583 0
M  V30 6350 C 587.091 -2.14779 2.64731 0
M  V30 6351 H 588.284 -0.369733 2.97612 0
M  V30 6352 H 585.837 -0.155417 1.55525 0
M  V30 6353 H 586.572 -2.67437 1.83434 0
M  V30 6354 H 586.357 -1.89907 3.43042 0
M  V30 6355 H 587.847 -2.82383 3.07651 0
M  V30 6356 N 588.284 -1.56567 -0.180126 0
M  V30 6357 C 589.194 -1.98947 -1.24327 0
M  V30 6358 C 590.21 -0.899446 -1.4895 0
M  V30 6359 O 591.386 -1.20639 -1.61271 0
M  V30 6360 C 588.451 -2.33328 -2.56435 0
M  V30 6361 C 587.512 -3.56114 -2.39752 0
M  V30 6362 C 586.745 -3.88845 -3.65561 0
M  V30 6363 O 586.968 -3.22662 -4.70368 0
M  V30 6364 O 585.902 -4.82226 -3.60197 0
M  V30 6365 H 589.728 -2.89634 -0.913565 0
M  V30 6366 H 587.313 -1.44319 -0.386306 0
M  V30 6367 H 589.195 -2.5645 -3.34382 0
M  V30 6368 H 587.87 -1.45806 -2.89002 0
M  V30 6369 H 586.777 -3.38221 -1.59866 0
M  V30 6370 H 588.11 -4.4415 -2.12113 0
M  V30 6371 N 589.762 0.448376 -1.51087 0
M  V30 6372 C 590.694 1.56146 -1.67783 0
M  V30 6373 C 591.707 1.52913 -0.55871 0
M  V30 6374 O 592.896 1.57889 -0.83267 0
M  V30 6375 C 589.996 2.95057 -1.66716 0
M  V30 6376 C 589.169 3.22915 -2.95033 0
M  V30 6377 C 588.228 4.41495 -2.86302 0
M  V30 6378 O 587.254 4.40688 -3.60254 0
M  V30 6379 N 588.456 5.44443 -2.014 0
M  V30 6380 H 591.221 1.42232 -2.638 0
M  V30 6381 H 588.782 0.637153 -1.48835 0
M  V30 6382 H 590.774 3.72388 -1.58458 0
M  V30 6383 H 589.344 3.02624 -0.783403 0
M  V30 6384 H 588.564 2.33985 -3.17245 0
M  V30 6385 H 589.852 3.38349 -3.79996 0
M  V30 6386 H 589.25 5.4793 -1.40674 0
M  V30 6387 H 587.807 6.2067 -1.99029 0
M  V30 6388 N 591.24 1.41047 0.703093 0
M  V30 6389 C 592.188 1.42494 1.83843 0
M  V30 6390 C 593.182 0.303885 1.66652 0
M  V30 6391 O 594.388 0.475544 1.73605 0
M  V30 6392 H 590.763 0.445685 0.605697 0
M  V30 6393 H 592.734 2.38194 1.79739 0
M  V30 6394 C 591.483 1.31666 3.21807 0
M  V30 6395 H 590.806 2.17212 3.35647 0
M  V30 6396 H 592.246 1.36738 4.01346 0
M  V30 6397 C 590.705 0.0281828 3.36888 0
M  V30 6398 O 591.235 -0.929995 3.90786 0
M  V30 6399 N 589.441 -0.0454322 2.90564 0
M  V30 6400 H 588.988 0.735046 2.4689 0
M  V30 6401 H 588.946 -0.906968 3.01034 0
M  V30 6402 N 592.718 -0.936591 1.26751 0
M  V30 6403 C 593.628 -2.06949 1.10496 0
M  V30 6404 C 594.644 -1.7396 0.037271 0
M  V30 6405 O 595.82 -1.99941 0.241944 0
M  V30 6406 C 592.885 -3.38612 0.744491 0
M  V30 6407 C 591.946 -3.85355 1.89209 0
M  V30 6408 C 591.179 -5.10735 1.54873 0
M  V30 6409 O 591.402 -5.68602 0.452546 0
M  V30 6410 O 590.336 -5.52632 2.38499 0
M  V30 6411 H 594.162 -2.23571 2.05547 0
M  V30 6412 H 591.747 -1.05428 1.05855 0
M  V30 6413 H 593.629 -4.17711 0.556396 0
M  V30 6414 H 592.304 -3.23218 -0.176582 0
M  V30 6415 H 591.211 -3.07182 2.13518 0
M  V30 6416 H 592.544 -4.05277 2.79305 0
M  V30 6417 N 594.196 -1.08629 -1.14182 0
M  V30 6418 C 595.106 -0.730126 -2.22949 0
M  V30 6419 C 596.122 0.26436 -1.7198 0
M  V30 6420 O 597.298 0.107742 -2.01112 0
M  V30 6421 C 594.363 -0.147227 -3.46387 0
M  V30 6422 C 593.424 -1.19662 -4.12286 0
M  V30 6423 C 592.657 -0.641437 -5.29831 0
M  V30 6424 O 592.88 0.538351 -5.67854 0
M  V30 6425 O 591.814 -1.39257 -5.85569 0
M  V30 6426 H 595.64 -1.63753 -2.55771 0
M  V30 6427 H 593.225 -0.860118 -1.22157 0
M  V30 6428 H 595.107 0.174923 -4.21037 0
M  V30 6429 H 593.782 0.733304 -3.15285 0
M  V30 6430 H 592.689 -1.57133 -3.395 0
M  V30 6431 H 594.022 -2.0495 -4.475 0
M  V30 6432 N 595.674 1.31259 -0.872281 0
M  V30 6433 C 596.951 1.91362 -0.404943 0
M  V30 6434 C 597.331 1.79362 1.11321 0
M  V30 6435 O 596.679 1.20277 1.94283 0
M  V30 6436 C 596.889 3.3749 -0.888893 0
M  V30 6437 C 598.237 4.14593 -0.916384 0
M  V30 6438 O 599.261 3.46282 -0.834701 0
M  V30 6439 O 598.12 5.3661 -1.03498 0
M  V30 6440 H 595.214 0.818016 -0.121569 0
M  V30 6441 H 597.76 1.39912 -0.960346 0
M  V30 6442 H 596.532 3.40249 -1.93251 0
M  V30 6443 H 596.155 3.96375 -0.311932 0
M  V30 6444 N 597.152 0.631951 1.44375 0
M  V30 6445 C 598.062 -0.073674 2.34484 0
M  V30 6446 C 599.078 -0.834825 1.52665 0
M  V30 6447 O 600.254 -0.786902 1.85391 0
M  V30 6448 C 597.319 -1.04247 3.30656 0
M  V30 6449 C 596.38 -0.280602 4.28382 0
M  V30 6450 C 595.613 -1.20325 5.19959 0
M  V30 6451 O 595.836 -2.44199 5.15484 0
M  V30 6452 O 594.77 -0.687128 5.97965 0
M  V30 6453 H 598.596 0.667477 2.96274 0
M  V30 6454 H 596.181 0.392144 1.44162 0
M  V30 6455 H 598.063 -1.59981 3.89851 0
M  V30 6456 H 596.738 -1.76422 2.71398 0
M  V30 6457 H 595.645 0.319804 3.72731 0
M  V30 6458 H 596.978 0.401144 4.90563 0
M  V30 6459 N 598.631 -1.53133 0.372548 0
M  V30 6460 C 600.042 -1.86404 -0.105155 0
M  V30 6461 C 600.393 -1.29289 -1.47576 0
M  V30 6462 O 599.518 -0.617646 -2.07398 0
M  V30 6463 C 600.113 -3.38223 -0.197588 0
M  V30 6464 C 598.672 -3.71266 -0.619556 0
M  V30 6465 C 597.819 -2.76353 0.228919 0
M  V30 6466 H 600.77 -1.47282 0.591077 0
M  V30 6467 H 600.791 -3.66577 -1.01987 0
M  V30 6468 H 600.303 -3.79763 0.800099 0
M  V30 6469 H 598.404 -3.35287 -1.62522 0
M  V30 6470 H 598.517 -4.77515 -0.389332 0
M  V30 6471 H 596.881 -2.52888 -0.303271 0
M  V30 6472 H 597.664 -3.20728 1.22428 0
M  V30 6473 N 600.109 -0.101901 -1.5727 0
M  V30 6474 C 601.056 0.854577 -2.14396 0
M  V30 6475 C 602.026 1.27521 -1.06432 0
M  V30 6476 O 603.211 1.35575 -1.34253 0
M  V30 6477 C 600.351 2.10576 -2.73408 0
M  V30 6478 C 599.464 1.73504 -3.95626 0
M  V30 6479 C 598.599 2.9346 -4.42781 0
M  V30 6480 C 597.638 2.52547 -5.57572 0
M  V30 6481 N 596.775 3.65359 -5.99547 0
M  V30 6482 H 601.615 0.360578 -2.9581 0
M  V30 6483 H 599.152 0.166303 -1.46157 0
M  V30 6484 H 601.11 2.83859 -3.05745 0
M  V30 6485 H 599.74 2.57463 -1.94711 0
M  V30 6486 H 598.792 0.901622 -3.6956 0
M  V30 6487 H 600.104 1.39426 -4.78917 0
M  V30 6488 H 599.258 3.74988 -4.76937 0
M  V30 6489 H 597.997 3.30753 -3.58404 0
M  V30 6490 H 597.002 1.69446 -5.23037 0
M  V30 6491 H 598.227 2.1639 -6.43702 0
M  V30 6492 H 596.173 4.02358 -5.18116 0
M  V30 6493 H 596.09 3.35148 -6.77652 0
M  V30 6494 H 597.358 4.47378 -6.38336 0
M  V30 6495 N 601.587 1.56661 0.17182 0
M  V30 6496 C 602.835 1.81606 0.886774 0
M  V30 6497 C 603.156 0.678818 1.82803 0
M  V30 6498 O 602.426 -0.301354 1.93568 0
M  V30 6499 H 601.006 0.669934 0.330451 0
M  V30 6500 H 603.668 1.94142 0.171757 0
M  V30 6501 H 602.764 2.75634 1.46398 0
M  V30 6502 N 603.065 -0.440357 1.51323 0
M  V30 6503 C 603.995 -1.54174 1.75364 0
M  V30 6504 C 604.976 -1.59039 0.603375 0
M  V30 6505 O 606.161 -1.74815 0.845774 0
M  V30 6506 C 603.291 -2.92277 1.87593 0
M  V30 6507 C 602.245 -3.02274 3.03009 0
M  V30 6508 C 601.571 -4.42327 3.00418 0
M  V30 6509 C 602.871 -2.76634 4.43024 0
M  V30 6510 H 604.565 -1.34307 2.67585 0
M  V30 6511 H 602.111 -0.644678 1.28763 0
M  V30 6512 H 604.064 -3.69284 2.02995 0
M  V30 6513 H 602.788 -3.13369 0.920179 0
M  V30 6514 H 601.447 -2.27706 2.87307 0
M  V30 6515 H 601.095 -4.60382 2.02626 0
M  V30 6516 H 600.795 -4.49946 3.77918 0
M  V30 6517 H 602.319 -5.21312 3.17909 0
M  V30 6518 H 603.733 -3.43376 4.59093 0
M  V30 6519 H 602.13 -2.95666 5.22208 0
M  V30 6520 H 603.2 -1.72262 4.5327 0
M  V30 6521 N 604.543 -1.41418 -0.695603 0
M  V30 6522 C 605.791 -1.40496 -1.45277 0
M  V30 6523 C 606.112 -0.0149538 -1.94994 0
M  V30 6524 O 605.382 0.9432 -1.71699 0
M  V30 6525 H 603.962 -0.517147 -0.539044 0
M  V30 6526 H 606.624 -1.76656 -0.823321 0
M  V30 6527 H 605.72 -2.09214 -2.31595 0
M  V30 6528 N 606.021 0.929856 -1.27246 0
M  V30 6529 C 607.269 1.674 -1.13233 0
M  V30 6530 C 607.59 1.92311 0.322744 0
M  V30 6531 O 606.86 1.52784 1.22612 0
M  V30 6532 H 605.44 0.620411 -0.416052 0
M  V30 6533 H 608.102 1.11663 -1.59741 0
M  V30 6534 H 607.198 2.64308 -1.65975 0
M  V30 6535 N 607.499 1.09233 1.13605 0
M  V30 6536 C 608.724 0.849067 1.89224 0
M  V30 6537 C 609.149 -0.593875 1.78479 0
M  V30 6538 O 608.507 -1.41703 1.13092 0
M  V30 6539 C 608.555 1.28642 3.36873 0
M  V30 6540 O 607.659 0.44363 4.10007 0
M  V30 6541 H 607 0.30767 0.588417 0
M  V30 6542 H 609.53 1.45595 1.43748 0
M  V30 6543 H 609.54 1.27096 3.87699 0
M  V30 6544 H 608.215 2.33729 3.44011 0
M  V30 6545 H 606.792 0.523241 3.69211 0
M  V30 6546 N 608.977 -1.30795 0.87923 0
M  V30 6547 C 610.393 -1.48981 0.57243 0
M  V30 6548 C 610.593 -1.80719 -0.891236 0
M  V30 6549 O 609.649 -1.89136 -1.67283 0
M  V30 6550 C 610.962 -2.61721 1.48063 0
M  V30 6551 C 612.51 -2.75603 1.48365 0
M  V30 6552 C 612.985 -3.91449 2.37763 0
M  V30 6553 N 614.476 -3.98751 2.35695 0
M  V30 6554 C 615.211 -4.87684 3.01583 0
M  V30 6555 N 614.707 -5.81454 3.76674 0
M  V30 6556 N 616.5 -4.81005 2.90844 0
M  V30 6557 H 608.651 -1.08465 1.82617 0
M  V30 6558 H 610.914 -0.536813 0.781368 0
M  V30 6559 H 610.62 -2.45073 2.52254 0
M  V30 6560 H 610.494 -3.58071 1.18596 0
M  V30 6561 H 612.881 -2.9166 0.44927 0
M  V30 6562 H 612.962 -1.79891 1.81859 0
M  V30 6563 H 612.606 -3.76149 3.41283 0
M  V30 6564 H 612.536 -4.86487 2.01589 0
M  V30 6565 H 615.027 -3.31668 1.81121 0
M  V30 6566 H 615.34 -6.46063 4.24054 0
M  V30 6567 H 613.685 -5.81403 3.80782 0
M  V30 6568 H 616.876 -4.06728 2.31711 0
M  V30 6569 H 617.049 -5.50107 3.42471 0
M  V30 6570 N 610.455 -0.639598 -1.44038 0
M  V30 6571 C 611.365 0.0612377 -2.3452 0
M  V30 6572 C 612.381 0.826717 -1.53106 0
M  V30 6573 O 613.557 0.777059 -1.85806 0
M  V30 6574 C 610.622 1.02492 -3.31204 0
M  V30 6575 C 609.683 0.25788 -4.28525 0
M  V30 6576 C 608.916 1.17566 -5.2059 0
M  V30 6577 O 609.139 2.41461 -5.16771 0
M  V30 6578 O 608.073 0.655407 -5.98321 0
M  V30 6579 H 611.899 -0.68318 -2.95916 0
M  V30 6580 H 609.484 -0.399784 -1.43952 0
M  V30 6581 H 611.366 1.57911 -3.90694 0
M  V30 6582 H 610.041 1.7498 -2.7233 0
M  V30 6583 H 608.948 -0.339566 -3.72556 0
M  V30 6584 H 610.281 -0.427154 -4.90343 0
M  V30 6585 N 611.933 1.52934 -0.380664 0
M  V30 6586 C 612.896 2.24809 0.446473 0
M  V30 6587 C 613.896 1.26133 0.997347 0
M  V30 6588 O 615.086 1.50297 0.880714 0
M  V30 6589 C 612.218 2.99649 1.62553 0
M  V30 6590 H 613.411 2.99343 -0.182677 0
M  V30 6591 H 610.964 1.55736 -0.132618 0
M  V30 6592 H 611.699 2.29395 2.29235 0
M  V30 6593 H 611.484 3.72066 1.23732 0
M  V30 6594 H 612.974 3.54246 2.21133 0
M  V30 6595 N 613.412 0.11024 1.57214 0
M  V30 6596 C 614.828 -0.24638 1.57687 0
M  V30 6597 C 615.028 -1.67344 1.12241 0
M  V30 6598 O 614.084 -2.39298 0.805783 0
M  V30 6599 C 615.397 -0.0210288 3.00693 0
M  V30 6600 C 616.945 -0.0876077 3.12877 0
M  V30 6601 C 617.42 0.10994 4.57868 0
M  V30 6602 N 618.911 0.0556135 4.63167 0
M  V30 6603 C 619.646 0.183495 5.73106 0
M  V30 6604 N 619.142 0.367058 6.91827 0
M  V30 6605 N 620.935 0.123689 5.61964 0
M  V30 6606 H 613.086 1.04246 1.85058 0
M  V30 6607 H 615.349 0.40979 0.854854 0
M  V30 6608 H 615.055 0.965203 3.38196 0
M  V30 6609 H 614.929 -0.756748 3.69531 0
M  V30 6610 H 617.316 -1.06436 2.75237 0
M  V30 6611 H 617.397 0.67985 2.466 0
M  V30 6612 H 617.041 1.08362 4.96206 0
M  V30 6613 H 616.971 -0.677397 5.22225 0
M  V30 6614 H 619.462 -0.0831062 3.77809 0
M  V30 6615 H 619.775 0.455739 7.71455 0
M  V30 6616 H 618.12 0.40292 6.93831 0
M  V30 6617 H 621.311 -0.0186928 4.68096 0
M  V30 6618 H 621.484 0.226797 6.47603 0
M  V30 6619 N 614.89 -1.56749 -0.16351 0
M  V30 6620 C 616.138 -1.82074 -0.87713 0
M  V30 6621 C 616.459 -0.688503 -1.82441 0
M  V30 6622 O 615.729 0.291085 -1.93725 0
M  V30 6623 H 614.309 -0.671677 -0.326893 0
M  V30 6624 H 616.971 -1.9423 -0.161459 0
M  V30 6625 H 616.067 -2.76407 -1.44934 0
M  V30 6626 N 616.368 0.432326 -1.51554 0
M  V30 6627 C 617.593 1.20824 -1.68571 0
M  V30 6628 C 618.018 1.84126 -0.384596 0
M  V30 6629 O 617.376 1.69025 0.655751 0
M  V30 6630 C 617.424 2.26429 -2.80646 0
M  V30 6631 O 616.528 3.32032 -2.44598 0
M  V30 6632 H 615.869 0.353765 -0.561913 0
M  V30 6633 H 618.399 0.509916 -1.98144 0
M  V30 6634 H 618.409 2.71133 -3.04878 0
M  V30 6635 H 617.084 1.79733 -3.75058 0
M  V30 6636 H 615.661 2.92769 -2.30956 0
M  V30 6637 N 617.846 1.41785 0.688094 0
M  V30 6638 C 619.092 1.41753 1.4503 0
M  V30 6639 C 619.425 0.0290745 1.94178 0
M  V30 6640 O 618.7 -0.944456 1.7003 0
M  V30 6641 C 618.983 2.43069 2.65686 0
M  V30 6642 C 618.836 3.91053 2.22256 0
M  V30 6643 C 620.155 2.41543 3.67893 0
M  V30 6644 H 617.274 0.516202 0.526027 0
M  V30 6645 H 619.916 1.73111 0.783105 0
M  V30 6646 H 618.066 2.1646 3.2261 0
M  V30 6647 H 619.738 4.28594 1.70602 0
M  V30 6648 H 617.981 4.05559 1.53963 0
M  V30 6649 H 618.652 4.57501 3.08863 0
M  V30 6650 H 621.128 2.65175 3.20658 0
M  V30 6651 H 620.004 3.14434 4.49914 0
M  V30 6652 H 620.265 1.43666 4.18106 0
M  V30 6653 O 619.363 -0.830368 1.38518 0
M  V30 6654 H 620.054 -1.47302 1.25785 0
M  V30 END ATOM
M  V30 BEGIN BOND
M  V30 END BOND
M  V30 END CTAB
M  END
$$$$
