drugbank_target|Q16678 Cytochrome P450 1B1 (DB01645; DB02342; DB03467; DB04216; DB06732; DB07776; DB09061; DB14011)
 OpenBabel12092119473D

  0  0  0     0  0            999 V3000
M  V30 BEGIN CTAB
M  V30 COUNTS 8561 8666 0 0 0
M  V30 BEGIN ATOM
M  V30 1 H -0.908 1.98254 -0.117106 0
M  V30 2 N 0 1.576 0 0
M  V30 3 C 0.933 2.03868 1.02534 0
M  V30 4 C 1.911 0.928543 1.3348 0
M  V30 5 O 3.095 1.19667 1.45644 0
M  V30 6 C 0.222 2.43627 2.35294 0
M  V30 7 C -0.732 3.65373 2.2001 0
M  V30 8 S 0.101 5.13292 1.52614 0
M  V30 9 C 1.257 5.56322 2.86805 0
M  V30 10 H 1.49 2.90518 0.631377 0
M  V30 11 H -0.977 1.52953 0.210867 0
M  V30 12 H 0.981 2.67203 3.11629 0
M  V30 13 H -0.358 1.57376 2.7183 0
M  V30 14 H -1.165 3.90944 3.18086 0
M  V30 15 H -1.563 3.418 1.51819 0
M  V30 16 H 0.729 5.58782 3.83104 0
M  V30 17 H 1.672 6.56266 2.65933 0
M  V30 18 H 2.08 4.83886 2.90714 0
M  V30 19 N 1.4781 -0.272755 1.55222 0
M  V30 20 C 2.7261 -1.00234 1.75492 0
M  V30 21 C 3.0471 -1.8681 0.5592 0
M  V30 22 O 2.3171 -1.91215 -0.425882 0
M  V30 23 H 0.8971 -0.373076 0.647166 0
M  V30 24 H 3.5591 -0.296926 1.92625 0
M  V30 25 H 2.6551 -1.63913 2.65592 0
M  V30 26 N 2.9562 -1.48159 -0.537278 0
M  V30 27 C 4.1842 -1.59454 -1.31841 0
M  V30 28 C 4.5992 -0.252065 -1.8711 0
M  V30 29 O 3.9562 0.757621 -1.66031 0
M  V30 30 C 4.0072 -2.63546 -2.47439 0
M  V30 31 O 3.7282 -3.92583 -1.94449 0
M  V30 32 C 5.2292 -2.85212 -3.39366 0
M  V30 33 H 2.4492 -0.53785 -0.401196 0
M  V30 34 H 4.9932 -1.93932 -0.648891 0
M  V30 35 H 3.1482 -2.31946 -3.1029 0
M  V30 36 H 3.5622 -4.49629 -2.70063 0
M  V30 37 H 5.0362 -3.61863 -4.16844 0
M  V30 38 H 5.5132 -1.93765 -3.94147 0
M  V30 39 H 6.1192 -3.18086 -2.82314 0
M  V30 40 N 4.4343 0.785586 -1.36625 0
M  V30 41 C 5.6593 1.57963 -1.34397 0
M  V30 42 C 6.0843 1.87964 0.071526 0
M  V30 43 O 5.4423 1.48182 1.0446 0
M  V30 44 C 5.4903 2.87511 -2.17646 0
M  V30 45 O 4.5943 3.81281 -1.57158 0
M  V30 46 H 3.9353 0.479014 -0.459828 0
M  V30 47 H 6.4653 0.973411 -1.79961 0
M  V30 48 H 6.4753 3.36745 -2.30362 0
M  V30 49 H 5.1503 2.65002 -3.20541 0
M  V30 50 H 3.7273 3.39885 -1.53403 0
M  V30 51 N 5.9124 1.20967 1.01018 0
M  V30 52 C 6.8424 0.988272 2.11555 0
M  V30 53 C 7.8234 -0.0849778 1.69888 0
M  V30 54 O 9.0084 0.0738202 1.9406 0
M  V30 55 C 6.1384 0.546528 3.42973 0
M  V30 56 C 5.0924 1.56375 3.9841 0
M  V30 57 C 4.4184 0.97842 5.25672 0
M  V30 58 C 5.7184 2.94922 4.31066 0
M  V30 59 H 7.4124 1.91276 2.30334 0
M  V30 60 H 4.9584 0.921073 1.1069 0
M  V30 61 H 6.9114 0.378839 4.19694 0
M  V30 62 H 5.6354 -0.413598 3.23971 0
M  V30 63 H 4.2944 1.71891 3.23804 0
M  V30 64 H 3.9424 0.0101688 5.02999 0
M  V30 65 H 3.6424 1.65784 5.63728 0
M  V30 66 H 5.1664 0.821939 6.05043 0
M  V30 67 H 6.5804 2.8288 4.9865 0
M  V30 68 H 4.9774 3.5983 4.80253 0
M  V30 69 H 6.0474 3.4616 3.39561 0
M  V30 70 N 7.3905 -1.2043 1.01659 0
M  V30 71 C 8.6155 -1.94318 0.724942 0
M  V30 72 C 9.0405 -1.74266 -0.708034 0
M  V30 73 O 8.3985 -1.03694 -1.48719 0
M  V30 74 C 8.4465 -3.44486 1.06591 0
M  V30 75 O 7.5505 -4.12017 0.177599 0
M  V30 76 H 6.8915 -0.60708 0.26898 0
M  V30 77 H 9.4215 -1.52861 1.35995 0
M  V30 78 H 9.4315 -3.95106 1.01762 0
M  V30 79 H 8.1065 -3.58404 2.10997 0
M  V30 80 H 6.6835 -3.71821 0.283421 0
M  V30 81 N 8.8686 -0.792821 -1.36206 0
M  V30 82 C 10.2796 -0.429513 -1.81692 0
M  V30 83 C 10.6306 1.04695 -1.65932 0
M  V30 84 O 9.7556 1.81256 -1.18218 0
M  V30 85 C 10.3506 -0.772831 -3.29868 0
M  V30 86 C 8.9096 -0.462307 -3.7355 0
M  V30 87 C 8.0566 -1.00569 -2.5842 0
M  V30 88 H 11.0076 -0.985672 -1.24379 0
M  V30 89 H 11.0286 -0.0651928 -3.80444 0
M  V30 90 H 10.5406 -1.84747 -3.41307 0
M  V30 91 H 8.6416 0.604158 -3.67669 0
M  V30 92 H 8.7546 -0.985299 -4.68859 0
M  V30 93 H 7.1186 -0.428734 -2.51066 0
M  V30 94 H 7.9016 -2.08616 -2.72643 0
M  V30 95 N 10.3467 1.47872 -0.545128 0
M  V30 96 C 11.2947 2.31533 0.222512 0
M  V30 97 C 12.2887 1.42177 0.920985 0
M  V30 98 O 13.4947 1.59005 0.843645 0
M  V30 99 H 9.8697 0.746519 0.0906278 0
M  V30 100 H 11.8407 2.94139 -0.50246 0
M  V30 101 C 10.5897 3.2457 1.24699 0
M  V30 102 H 9.9127 3.93283 0.718944 0
M  V30 103 H 11.3527 3.85963 1.75523 0
M  V30 104 C 9.8117 2.47237 2.28856 0
M  V30 105 O 10.3417 2.20808 3.35569 0
M  V30 106 N 8.5477 2.08461 2.02466 0
M  V30 107 H 8.0947 2.30155 1.157 0
M  V30 108 H 8.0527 1.57033 2.72375 0
M  V30 109 N 11.8248 0.280983 1.55075 0
M  V30 110 C 13.1018 -0.386207 1.91749 0
M  V30 111 C 13.4818 -1.73264 1.20594 0
M  V30 112 O 12.8298 -2.26034 0.334784 0
M  V30 113 C 13.0398 -0.520687 3.45094 0
M  V30 114 C 14.3878 -0.800865 4.16979 0
M  V30 115 O 15.4118 -0.605271 3.5102 0
M  V30 116 O 14.2708 -1.1753 5.33712 0
M  V30 117 H 11.3648 -0.212408 0.799257 0
M  V30 118 H 13.9108 0.327568 1.66509 0
M  V30 119 H 12.6828 0.426633 3.88967 0
M  V30 120 H 12.3058 -1.2837 3.76307 0
M  V30 121 N 13.3029 -1.57598 0.00835791 0
M  V30 122 C 14.7139 -1.7892 -0.53333 0
M  V30 123 C 15.0649 -0.916609 -1.73473 0
M  V30 124 O 14.1899 -0.121336 -2.1606 0
M  V30 125 C 14.7849 -3.24488 -0.974313 0
M  V30 126 C 13.3439 -3.46878 -1.46125 0
M  V30 127 C 12.4909 -2.74157 -0.416302 0
M  V30 128 H 15.4419 -1.56958 0.234495 0
M  V30 129 H 15.4629 -3.3306 -1.83988 0
M  V30 130 H 14.9749 -3.87972 -0.099718 0
M  V30 131 H 13.0759 -2.8862 -2.35646 0
M  V30 132 H 13.1889 -4.55572 -1.48295 0
M  V30 133 H 11.5529 -2.39022 -0.87981 0
M  V30 134 H 12.3359 -3.40345 0.44947 0
M  V30 135 N 14.781 0.264519 -1.55364 0
M  V30 136 C 16.027 0.992314 -1.77552 0
M  V30 137 C 16.382 1.83626 -0.574379 0
M  V30 138 O 15.675 1.86648 0.432782 0
M  V30 139 C 15.869 1.9004 -3.02687 0
M  V30 140 C 15.698 1.14583 -4.34857 0
M  V30 141 C 14.468 0.858068 -4.97961 0
M  V30 142 C 16.666 0.532069 -5.1154 0
M  V30 143 N 14.648 0.0775974 -6.13851 0
M  V30 144 C 16.019 -0.113823 -6.19896 0
M  V30 145 C 18.074 0.440763 -4.95945 0
M  V30 146 C 16.777 -0.842231 -7.14352 0
M  V30 147 C 18.803 -0.274072 -5.90765 0
M  V30 148 C 18.165 -0.90867 -6.98515 0
M  V30 149 H 14.264 0.344811 -0.701875 0
M  V30 150 H 16.848 0.267141 -1.92859 0
M  V30 151 H 15.019 2.59775 -2.88741 0
M  V30 152 H 16.751 2.56243 -3.13243 0
M  V30 153 H 13.506 1.16547 -4.59036 0
M  V30 154 H 13.93 -0.300216 -6.76334 0
M  V30 155 H 18.572 0.917064 -4.12735 0
M  V30 156 H 16.29 -1.33019 -7.97077 0
M  V30 157 H 19.876 -0.345151 -5.80775 0
M  V30 158 H 18.756 -1.45299 -7.70622 0
M  V30 159 N 16.2591 1.48442 0.529413 0
M  V30 160 C 17.6701 1.5002 1.11134 0
M  V30 161 C 18.0211 0.27031 1.94329 0
M  V30 162 O 17.1461 -0.622507 2.07253 0
M  V30 163 C 17.7411 2.71834 2.02217 0
M  V30 164 C 16.3001 2.76283 2.55627 0
M  V30 165 C 15.4471 2.43542 1.326 0
M  V30 166 H 18.3981 1.5555 0.314641 0
M  V30 167 H 18.4191 2.50384 2.8651 0
M  V30 168 H 17.9311 3.61331 1.41639 0
M  V30 169 H 16.0321 1.90995 3.19924 0
M  V30 170 H 16.1451 3.77725 2.94721 0
M  V30 171 H 14.5091 1.94709 1.64196 0
M  V30 172 H 15.2921 3.3528 0.737734 0
M  V30 173 N 17.7372 -0.778329 1.37039 0
M  V30 174 C 18.6672 -1.90546 1.34962 0
M  V30 175 C 19.6482 -1.68681 0.219274 0
M  V30 176 O 20.8332 -1.89634 0.418624 0
M  V30 177 C 17.9632 -3.27734 1.14925 0
M  V30 178 C 16.9172 -3.64147 2.24902 0
M  V30 179 C 16.2432 -4.99806 1.89996 0
M  V30 180 C 17.5432 -3.71579 3.67051 0
M  V30 181 H 19.2372 -1.92541 2.29277 0
M  V30 182 H 16.7832 -0.924948 1.10366 0
M  V30 183 H 18.7362 -4.06215 1.12104 0
M  V30 184 H 17.4602 -3.26154 0.170631 0
M  V30 185 H 16.1192 -2.8797 2.26868 0
M  V30 186 H 15.7672 -4.94759 0.906796 0
M  V30 187 H 15.4672 -5.25139 2.63634 0
M  V30 188 H 16.9912 -5.80694 1.88749 0
M  V30 189 H 18.4052 -4.40227 3.67251 0
M  V30 190 H 16.8022 -4.08405 4.39688 0
M  V30 191 H 17.8722 -2.72404 4.01154 0
M  V30 192 N 19.2153 -1.21501 -1.00376 0
M  V30 193 C 20.1633 -0.972442 -2.11297 0
M  V30 194 C 21.1573 0.080731 -1.69208 0
M  V30 195 O 22.3633 -0.0707666 -1.79861 0
M  V30 196 H 18.7383 -0.297218 -0.690772 0
M  V30 197 H 20.7093 -1.91394 -2.28934 0
M  V30 198 C 19.4583 -0.555065 -3.43241 0
M  V30 199 H 18.7813 -1.35709 -3.76062 0
M  V30 200 H 20.2213 -0.424664 -4.21868 0
M  V30 201 C 18.6803 0.734147 -3.28804 0
M  V30 202 O 19.2103 1.78937 -3.59645 0
M  V30 203 N 17.4163 0.701133 -2.82015 0
M  V30 204 H 16.9633 -0.157874 -2.57116 0
M  V30 205 H 16.9213 1.56403 -2.72737 0
M  V30 206 N 20.6934 1.19889 -1.02296 0
M  V30 207 C 22.1044 1.71124 -0.746568 0
M  V30 208 C 22.4554 1.81939 0.734335 0
M  V30 209 O 21.5804 1.48639 1.57275 0
M  V30 210 C 22.1754 3.10804 -1.34857 0
M  V30 211 C 20.7344 3.59323 -1.1209 0
M  V30 212 C 19.8814 2.3635 -1.45031 0
M  V30 213 H 22.8324 1.04813 -1.19163 0
M  V30 214 H 22.8534 3.73186 -0.742437 0
M  V30 215 H 22.3654 3.029 -2.42638 0
M  V30 216 H 20.4664 3.7255 -0.0610337 0
M  V30 217 H 20.5794 4.4378 -1.80544 0
M  V30 218 H 18.9434 2.39399 -0.869487 0
M  V30 219 H 19.7264 2.31081 -2.53883 0
M  V30 220 N 22.1715 0.800033 1.35784 0
M  V30 221 C 23.1015 0.220184 2.3246 0
M  V30 222 C 24.0825 -0.65073 1.57161 0
M  V30 223 O 25.2675 -0.582359 1.85263 0
M  V30 224 C 22.3975 -0.637353 3.41402 0
M  V30 225 C 21.3515 0.134531 4.27789 0
M  V30 226 C 20.6775 -0.844285 5.27992 0
M  V30 227 C 21.9775 1.32979 5.05088 0
M  V30 228 H 23.6715 1.02787 2.81203 0
M  V30 229 H 21.2175 0.495717 1.35199 0
M  V30 230 H 23.1705 -1.05302 4.08031 0
M  V30 231 H 21.8945 -1.47785 2.91251 0
M  V30 232 H 20.5535 0.531296 3.6273 0
M  V30 233 H 20.2015 -1.68011 4.74111 0
M  V30 234 H 19.9015 -0.332184 5.8666 0
M  V30 235 H 21.4255 -1.2583 5.97494 0
M  V30 236 H 22.8395 0.98934 5.64699 0
M  V30 237 H 21.2365 1.77593 5.7322 0
M  V30 238 H 22.3065 2.11978 4.36111 0
M  V30 239 N 23.6496 -1.47581 0.552962 0
M  V30 240 C 24.8746 -2.07378 0.0300593 0
M  V30 241 C 25.2996 -1.40355 -1.25229 0
M  V30 242 O 24.6576 -0.477099 -1.7491 0
M  V30 243 C 24.7056 -3.60274 -0.153231 0
M  V30 244 O 23.8096 -3.94041 -1.21678 0
M  V30 245 H 23.1506 -0.662158 0.0494182 0
M  V30 246 H 25.6806 -1.89662 0.767434 0
M  V30 247 H 25.6906 -4.0633 -0.368761 0
M  V30 248 H 24.3656 -4.08455 0.783397 0
M  V30 249 H 22.9426 -3.59735 -0.982079 0
M  V30 250 N 25.1277 -0.289203 -1.54924 0
M  V30 251 C 26.3767 0.324231 -1.99077 0
M  V30 252 C 26.6897 1.5591 -1.18117 0
M  V30 253 O 27.8957 2.24637 -1.52481 0
M  V30 254 C 26.3517 0.628209 -3.54375 0
M  V30 255 C 25.9597 -0.587647 -4.44129 0
M  V30 256 C 27.7037 1.20349 -4.07083 0
M  V30 257 C 25.6107 -0.257475 -5.90839 0
M  V30 258 H 24.5407 0.124924 -0.743579 0
M  V30 259 H 27.1917 -0.396063 -1.79175 0
M  V30 260 H 25.5737 1.40778 -3.70132 0
M  V30 261 H 26.7477 -1.36418 -4.40144 0
M  V30 262 H 25.0627 -1.08074 -4.0213 0
M  V30 263 H 27.6597 1.46456 -5.14252 0
M  V30 264 H 28.0027 2.14195 -3.56968 0
M  V30 265 H 28.5357 0.485889 -3.94821 0
M  V30 266 H 25.2747 -1.16419 -6.45079 0
M  V30 267 H 24.7947 0.482018 -5.9786 0
M  V30 268 H 26.4737 0.145238 -6.46837 0
M  V30 269 N 26.6058 1.57591 -0.0167156 0
M  V30 270 C 27.5378 2.06343 0.997753 0
M  V30 271 C 28.5508 0.984469 1.29661 0
M  V30 272 O 29.7398 1.26093 1.26344 0
M  V30 273 C 26.8398 2.46255 2.32834 0
M  V30 274 C 26.0128 3.77083 2.21646 0
M  V30 275 C 25.0718 4.0368 3.37534 0
M  V30 276 O 24.0978 4.7411 3.14973 0
M  V30 277 N 25.2998 3.52881 4.60929 0
M  V30 278 H 28.0648 2.93997 0.581875 0
M  V30 279 H 25.6258 1.61002 0.170316 0
M  V30 280 H 27.6178 2.61149 3.09166 0
M  V30 281 H 26.1878 1.64032 2.66106 0
M  V30 282 H 25.4078 3.72106 1.30119 0
M  V30 283 H 26.6958 4.62822 2.11361 0
M  V30 284 H 26.0938 2.95878 4.82154 0
M  V30 285 H 24.6508 3.73076 5.34469 0
M  V30 286 N 28.0839 -0.256276 1.55502 0
M  V30 287 C 29.0159 -1.33981 1.85962 0
M  V30 288 C 30.0289 -1.44743 0.745212 0
M  V30 289 O 31.2179 -1.4626 1.02324 0
M  V30 290 C 28.3179 -2.7194 2.02242 0
M  V30 291 C 27.4909 -2.83562 3.33033 0
M  V30 292 C 26.5499 -4.02304 3.39172 0
M  V30 293 O 25.5759 -3.92273 4.12444 0
M  V30 294 N 26.7779 -5.15045 2.67784 0
M  V30 295 H 29.5429 -1.08191 2.7949 0
M  V30 296 H 27.1039 -0.446388 1.55624 0
M  V30 297 H 29.0959 -3.49697 2.03701 0
M  V30 298 H 27.6659 -2.90479 1.15502 0
M  V30 299 H 26.8859 -1.92555 3.43971 0
M  V30 300 H 28.1739 -2.88271 4.19258 0
M  V30 301 H 27.5719 -5.26085 2.07968 0
M  V30 302 H 26.1289 -5.90972 2.74947 0
M  V30 303 N 29.562 -1.4872 -0.521534 0
M  V30 304 C 30.79 -1.60843 -1.30142 0
M  V30 305 C 31.205 -0.271897 -1.86832 0
M  V30 306 O 30.562 0.739969 -1.66825 0
M  V30 307 C 30.613 -2.66155 -2.4463 0
M  V30 308 O 30.334 -3.94623 -1.90275 0
M  V30 309 C 31.835 -2.88795 -3.36322 0
M  V30 310 H 29.055 -0.542075 -0.395468 0
M  V30 311 H 31.599 -1.94609 -0.628285 0
M  V30 312 H 29.754 -2.35224 -3.07812 0
M  V30 313 H 30.168 -4.52468 -2.65279 0
M  V30 314 H 31.642 -3.66264 -4.12983 0
M  V30 315 H 32.119 -1.97934 -3.9207 0
M  V30 316 H 32.725 -3.21063 -2.78924 0
M  V30 317 N 31.0401 0.771051 -1.3745 0
M  V30 318 C 32.2681 1.56015 -1.35893 0
M  V30 319 C 32.6831 1.88718 0.0555523 0
M  V30 320 O 32.0401 1.51502 1.01752 0
M  V30 321 C 32.0911 2.87001 -2.19801 0
M  V30 322 O 31.8121 2.557 -3.55738 0
M  V30 323 C 33.3131 3.81228 -2.26231 0
M  V30 324 H 30.5331 0.483317 -0.465453 0
M  V30 325 H 33.0771 0.955611 -1.80799 0
M  V30 326 H 31.2321 3.43877 -1.78402 0
M  V30 327 H 31.6461 3.39584 -3.99729 0
M  V30 328 H 33.1201 4.70139 -2.89263 0
M  V30 329 H 33.5971 4.20409 -1.27093 0
M  V30 330 H 34.2031 3.30281 -2.67945 0
M  V30 331 N 32.5182 1.22032 0.997298 0
M  V30 332 C 33.4482 1.01065 2.10495 0
M  V30 333 C 34.4292 -0.0669542 1.69968 0
M  V30 334 O 35.6142 0.0943987 1.9397 0
M  V30 335 C 32.7442 0.582874 3.42374 0
M  V30 336 C 31.6982 1.60592 3.96729 0
M  V30 337 C 31.0242 1.03412 5.24605 0
M  V30 338 C 32.3242 2.99478 4.27914 0
M  V30 339 H 34.0182 1.93708 2.28292 0
M  V30 340 H 31.5642 0.932761 1.09707 0
M  V30 341 H 33.5172 0.423332 4.19268 0
M  V30 342 H 32.2412 -0.379213 3.24391 0
M  V30 343 H 30.9002 1.75316 3.21963 0
M  V30 344 H 30.5482 0.063518 5.0296 0
M  V30 345 H 30.2482 1.71754 5.61938 0
M  V30 346 H 31.7722 0.886066 6.04137 0
M  V30 347 H 33.1862 2.88153 4.95622 0
M  V30 348 H 31.5832 3.64903 4.76409 0
M  V30 349 H 32.6532 3.49742 3.3587 0
M  V30 350 N 33.9963 -1.19345 1.0293 0
M  V30 351 C 34.9263 -2.2481 0.631105 0
M  V30 352 C 35.9073 -1.66245 -0.360104 0
M  V30 353 O 37.0923 -1.92677 -0.242726 0
M  V30 354 C 34.2223 -3.47295 -0.0184607 0
M  V30 355 C 33.1763 -4.18536 0.895073 0
M  V30 356 C 32.5023 -5.34586 0.110592 0
M  V30 357 C 33.8023 -4.73287 2.209 0
M  V30 358 H 35.4963 -2.58372 1.51275 0
M  V30 359 H 33.0423 -1.24194 0.728818 0
M  V30 360 H 34.9953 -4.20268 -0.308675 0
M  V30 361 H 33.7193 -3.12933 -0.934907 0
M  V30 362 H 32.3783 -3.47446 1.16949 0
M  V30 363 H 32.0263 -4.96469 -0.807902 0
M  V30 364 H 31.7263 -5.83183 0.719087 0
M  V30 365 H 33.2503 -6.10355 -0.172871 0
M  V30 366 H 34.6643 -5.38013 1.98028 0
M  V30 367 H 33.0613 -5.32373 2.76946 0
M  V30 368 H 34.1313 -3.91331 2.86336 0
M  V30 369 N 35.4744 -0.807222 -1.35358 0
M  V30 370 C 36.4044 -0.232509 -2.3234 0
M  V30 371 C 37.3854 0.642386 -1.57504 0
M  V30 372 O 38.5704 0.572526 -1.85569 0
M  V30 373 C 35.7004 0.619238 -3.41735 0
M  V30 374 C 34.6544 -0.157215 -4.27711 0
M  V30 375 C 33.9804 0.816273 -5.28433 0
M  V30 376 C 35.2804 -1.35656 -5.04376 0
M  V30 377 H 36.9744 -1.04276 -2.80654 0
M  V30 378 H 34.5204 -0.50288 -1.34934 0
M  V30 379 H 36.4734 1.03137 -4.08584 0
M  V30 380 H 35.1974 1.46239 -2.92031 0
M  V30 381 H 33.8564 -0.550525 -3.62443 0
M  V30 382 H 33.5044 1.65494 -4.74996 0
M  V30 383 H 33.2044 0.301067 -5.86828 0
M  V30 384 H 34.7284 1.22659 -5.98153 0
M  V30 385 H 36.1424 -1.01927 -5.64166 0
M  V30 386 H 34.5394 -1.8063 -5.7227 0
M  V30 387 H 35.6094 -2.14288 -4.34981 0
M  V30 388 N 36.9525 1.47285 -0.560781 0
M  V30 389 C 37.8825 2.32857 0.173105 0
M  V30 390 C 38.8635 1.44009 0.905281 0
M  V30 391 O 40.0485 1.7286 0.885046 0
M  V30 392 C 37.1785 3.25861 1.20133 0
M  V30 393 C 36.1325 4.23978 0.585388 0
M  V30 394 C 35.4585 5.06332 1.7185 0
M  V30 395 C 36.7585 5.20242 -0.463178 0
M  V30 396 H 38.4525 2.94466 -0.541307 0
M  V30 397 H 35.9985 1.41601 -0.261764 0
M  V30 398 H 37.9515 3.84569 1.72293 0
M  V30 399 H 36.6755 2.62315 1.94573 0
M  V30 400 H 35.3345 3.66501 0.085054 0
M  V30 401 H 34.9825 4.39186 2.45203 0
M  V30 402 H 34.6825 5.72762 1.31213 0
M  V30 403 H 36.2065 5.67899 2.24329 0
M  V30 404 H 37.6205 5.73293 -0.027502 0
M  V30 405 H 36.0175 5.94896 -0.788627 0
M  V30 406 H 37.0875 4.65504 -1.35773 0
M  V30 407 N 38.4306 0.297415 1.54768 0
M  V30 408 C 39.3606 -0.573494 2.26348 0
M  V30 409 C 40.3416 -1.14085 1.26169 0
M  V30 410 O 41.5266 -1.17086 1.54934 0
M  V30 411 C 38.6566 -1.74716 3.00153 0
M  V30 412 C 37.6106 -1.31032 4.07449 0
M  V30 413 C 36.9366 -2.56887 4.68949 0
M  V30 414 C 38.2366 -0.444183 5.20408 0
M  V30 415 H 39.9306 0.0235131 2.99391 0
M  V30 416 H 37.4766 0.0127488 1.43994 0
M  V30 417 H 39.4296 -2.3625 3.48947 0
M  V30 418 H 38.1536 -2.37035 2.24682 0
M  V30 419 H 36.8126 -0.718066 3.59499 0
M  V30 420 H 36.4606 -3.17512 3.90122 0
M  V30 421 H 36.1606 -2.2836 5.41411 0
M  V30 422 H 37.6846 -3.19229 5.20505 0
M  V30 423 H 39.0986 -0.9651 5.65118 0
M  V30 424 H 37.4956 -0.252846 5.99567 0
M  V30 425 H 38.5656 0.531609 4.81977 0
M  V30 426 N 39.9087 -1.5758 0.0250728 0
M  V30 427 C 41.1337 -1.96337 -0.668317 0
M  V30 428 C 41.5587 -0.901314 -1.651 0
M  V30 429 O 40.9167 0.138187 -1.80773 0
M  V30 430 C 40.9647 -3.34191 -1.35457 0
M  V30 431 O 40.0687 -3.30269 -2.46974 0
M  V30 432 H 39.4097 -0.640281 -0.175887 0
M  V30 433 H 41.9397 -2.0442 0.0857224 0
M  V30 434 H 41.9497 -3.70331 -1.71228 0
M  V30 435 H 40.6247 -4.11036 -0.634218 0
M  V30 436 H 39.2017 -3.05841 -2.13344 0
M  V30 437 N 41.3868 0.248026 -1.55636 0
M  V30 438 C 42.6328 0.97767 -1.77678 0
M  V30 439 C 42.9658 1.85016 -0.590135 0
M  V30 440 O 42.2408 1.90095 0.411611 0
M  V30 441 C 42.5238 1.83914 -3.09593 0
M  V30 442 C 42.3768 0.99491 -4.38659 0
M  V30 443 C 43.6958 2.82183 -3.37729 0
M  V30 444 H 40.8148 0.354005 -0.646413 0
M  V30 445 H 43.4568 0.248253 -1.88371 0
M  V30 446 H 41.6068 2.46104 -3.00608 0
M  V30 447 H 43.2788 0.391789 -4.59633 0
M  V30 448 H 41.5218 0.299231 -4.32767 0
M  V30 449 H 42.1928 1.63145 -5.2734 0
M  V30 450 H 44.6688 2.30129 -3.4667 0
M  V30 451 H 43.5448 3.39582 -4.31249 0
M  V30 452 H 43.8058 3.58588 -2.58586 0
M  V30 453 N 42.8649 1.48995 0.513639 0
M  V30 454 C 43.7949 1.67636 1.62544 0
M  V30 455 C 44.7759 0.525087 1.61793 0
M  V30 456 O 45.9609 0.759502 1.78732 0
M  V30 457 C 43.0909 1.73114 3.01079 0
M  V30 458 C 42.0449 2.87905 3.16693 0
M  V30 459 C 41.3709 2.78486 4.56453 0
M  V30 460 C 42.6709 4.29005 2.97913 0
M  V30 461 H 44.3649 2.60716 1.47198 0
M  V30 462 H 41.9109 1.25465 0.706714 0
M  V30 463 H 43.8639 1.84742 3.78746 0
M  V30 464 H 42.5879 0.766241 3.17484 0
M  V30 465 H 41.2469 2.75859 2.41448 0
M  V30 466 H 40.8949 1.7993 4.69717 0
M  V30 467 H 40.5949 3.55523 4.67843 0
M  V30 468 H 42.1189 2.92104 5.36197 0
M  V30 469 H 43.5329 4.41798 3.65359 0
M  V30 470 H 41.9299 5.07166 3.20785 0
M  V30 471 H 42.9999 4.44329 1.94165 0
M  V30 472 N 44.343 -0.763751 1.37857 0
M  V30 473 C 45.306 -1.85889 1.34081 0
M  V30 474 C 46.306 -1.58949 0.243277 0
M  V30 475 O 47.496 -1.66882 0.499589 0
M  V30 476 C 44.628 -3.23176 1.08489 0
M  V30 477 H 45.821 -1.90648 2.31502 0
M  V30 478 H 43.374 -0.964367 1.23003 0
M  V30 479 H 44.109 -3.24091 0.116318 0
M  V30 480 H 43.894 -3.44124 1.8794 0
M  V30 481 H 45.384 -4.03254 1.08517 0
M  V30 482 N 45.8211 -1.22559 -0.990812 0
M  V30 483 C 47.0491 -1.07779 -1.76611 0
M  V30 484 C 47.4641 0.371513 -1.85109 0
M  V30 485 O 46.8211 1.25737 -1.32274 0
M  V30 486 C 46.8721 -1.68512 -3.19822 0
M  V30 487 O 46.5931 -3.07774 -3.1178 0
M  V30 488 C 48.0941 -1.59035 -4.13791 0
M  V30 489 H 45.3141 -0.377729 -0.554583 0
M  V30 490 H 47.8581 -1.62195 -1.24551 0
M  V30 491 H 46.0131 -1.18154 -3.68942 0
M  V30 492 H 46.4271 -3.37062 -4.01858 0
M  V30 493 H 47.9011 -2.0625 -5.1202 0
M  V30 494 H 48.3781 -0.547273 -4.35777 0
M  V30 495 H 48.9841 -2.08709 -3.70568 0
M  V30 496 N 47.2992 1.18797 -1.03562 0
M  V30 497 C 48.5452 1.8893 -0.737113 0
M  V30 498 C 48.8782 1.79837 0.732956 0
M  V30 499 O 48.1532 1.19525 1.5344 0
M  V30 500 C 48.4362 3.39607 -1.19745 0
M  V30 501 C 48.2892 3.57537 -2.72924 0
M  V30 502 C 49.6082 4.33069 -0.783526 0
M  V30 503 H 46.7272 0.686057 -0.269249 0
M  V30 504 H 49.3692 1.39797 -1.28673 0
M  V30 505 H 47.5192 3.81583 -0.729855 0
M  V30 506 H 49.1912 3.24688 -3.27682 0
M  V30 507 H 47.4342 3.00363 -3.12993 0
M  V30 508 H 48.1052 4.63238 -3.00191 0
M  V30 509 H 50.5812 3.98846 -1.18581 0
M  V30 510 H 49.4572 5.3707 -1.13343 0
M  V30 511 H 49.7182 4.40986 0.313681 0
M  V30 512 N 48.7773 0.814389 1.34928 0
M  V30 513 C 49.7273 0.202752 2.27097 0
M  V30 514 C 50.7113 -0.62799 1.48139 0
M  V30 515 O 51.9033 -0.483969 1.70255 0
M  V30 516 C 49.0323 -0.64146 3.37254 0
M  V30 517 C 48.1183 0.19944 4.23631 0
M  V30 518 N 48.5093 1.26628 4.89693 0
M  V30 519 C 46.8073 -0.0176433 4.45997 0
M  V30 520 C 47.5083 1.78031 5.53787 0
M  V30 521 N 46.4843 1.08553 5.32651 0
M  V30 522 H 50.2863 1.01893 2.75672 0
M  V30 523 H 47.8003 0.656332 1.48546 0
M  V30 524 H 49.7973 -1.09575 4.02243 0
M  V30 525 H 48.4573 -1.4559 2.9023 0
M  V30 526 H 49.4683 1.64901 4.90946 0
M  V30 527 H 46.1453 -0.800601 4.09752 0
M  V30 528 H 47.5353 2.67236 6.16469 0
M  V30 529 N 50.2554 -1.46986 0.568584 0
M  V30 530 C 51.5014 -2.02741 0.0488709 0
M  V30 531 C 51.8344 -1.44077 -1.30214 0
M  V30 532 O 51.1094 -0.600552 -1.84996 0
M  V30 533 C 51.3924 -3.60086 -0.032047 0
M  V30 534 C 51.2454 -4.29162 1.34686 0
M  V30 535 C 52.5644 -4.33838 -0.739798 0
M  V30 536 H 49.6834 -0.736749 0.0192338 0
M  V30 537 H 52.3254 -1.75289 0.733065 0
M  V30 538 H 50.4754 -3.83606 -0.61473 0
M  V30 539 H 52.1474 -4.16948 1.97362 0
M  V30 540 H 50.3904 -3.89073 1.91846 0
M  V30 541 H 51.0614 -5.37826 1.24285 0
M  V30 542 H 53.5374 -4.15378 -0.244939 0
M  V30 543 H 52.4134 -5.43537 -0.765406 0
M  V30 544 H 52.6744 -4.03875 -1.79827 0
M  V30 545 N 51.7335 -0.305618 -1.54608 0
M  V30 546 C 52.9815 0.301701 -1.99835 0
M  V30 547 C 53.3025 1.54054 -1.19551 0
M  V30 548 O 52.5725 1.93702 -0.292658 0
M  V30 549 H 51.1525 0.114468 -0.738178 0
M  V30 550 H 53.8145 -0.418016 -1.90364 0
M  V30 551 H 52.9105 0.570548 -3.06841 0
M  V30 552 N 53.2116 1.57565 -0.0334293 0
M  V30 553 C 54.1436 2.0739 0.975811 0
M  V30 554 C 55.1566 0.998166 1.2861 0
M  V30 555 O 56.3456 1.27426 1.25 0
M  V30 556 C 53.4456 2.4871 2.30209 0
M  V30 557 C 52.6186 3.79413 2.17634 0
M  V30 558 C 51.6776 4.07237 3.33233 0
M  V30 559 O 50.7036 4.77425 3.09927 0
M  V30 560 N 51.9056 3.5775 4.5716 0
M  V30 561 H 54.6706 2.94598 0.55066 0
M  V30 562 H 52.2316 1.61173 0.15323 0
M  V30 563 H 54.2236 2.64413 3.06378 0
M  V30 564 H 52.7936 1.66845 2.64351 0
M  V30 565 H 52.0136 3.73465 1.26165 0
M  V30 566 H 53.3016 4.65038 2.0644 0
M  V30 567 H 52.6996 3.00976 4.78989 0
M  V30 568 H 51.2566 3.78724 5.30482 0
M  V30 569 N 54.6897 -0.239769 1.55765 0
M  V30 570 C 56.1057 -0.588624 1.48349 0
M  V30 571 C 56.3057 -1.88005 0.72502 0
M  V30 572 O 55.3617 -2.51186 0.257269 0
M  V30 573 C 56.6747 -0.68474 2.928 0
M  V30 574 C 58.2227 -0.77659 3.03213 0
M  V30 575 C 58.6977 -0.904207 4.48986 0
M  V30 576 N 60.1887 -0.968896 4.52953 0
M  V30 577 C 60.9237 -1.08703 5.63002 0
M  V30 578 N 60.4197 -1.17026 6.82845 0
M  V30 579 N 62.2127 -1.12074 5.50814 0
M  V30 580 H 54.3637 0.607911 2.03515 0
M  V30 581 H 56.6267 0.21083 0.924259 0
M  V30 582 H 56.3327 0.194284 3.51163 0
M  V30 583 H 56.2067 -1.55435 3.43686 0
M  V30 584 H 58.5937 -1.64606 2.44926 0
M  V30 585 H 58.6747 0.118315 2.55526 0
M  V30 586 H 58.3187 -0.0392633 5.07885 0
M  V30 587 H 58.2487 -1.81426 4.9436 0
M  V30 588 H 60.7397 -0.915633 3.6664 0
M  V30 589 H 61.0527 -1.25966 7.62465 0
M  V30 590 H 59.3977 -1.13971 6.85591 0
M  V30 591 H 62.5887 -1.05226 4.5612 0
M  V30 592 H 62.7617 -1.20936 6.36615 0
M  V30 593 N 56.1678 -1.49265 -0.50573 0
M  V30 594 C 57.0978 -1.68495 -1.61653 0
M  V30 595 C 58.0788 -0.53366 -1.61512 0
M  V30 596 O 59.2638 -0.76897 -1.78327 0
M  V30 597 C 56.3938 -1.74709 -3.00157 0
M  V30 598 C 55.3478 -2.89581 -3.15162 0
M  V30 599 C 54.6738 -2.80903 -4.5497 0
M  V30 600 C 55.9738 -4.30578 -2.95634 0
M  V30 601 H 57.6678 -2.61493 -1.45814 0
M  V30 602 H 55.2138 -1.25838 -0.70005 0
M  V30 603 H 57.1668 -1.86748 -3.77761 0
M  V30 604 H 55.8908 -0.783067 -3.17074 0
M  V30 605 H 54.5498 -2.77136 -2.39982 0
M  V30 606 H 54.1978 -1.82419 -4.68756 0
M  V30 607 H 53.8978 -3.57999 -4.65951 0
M  V30 608 H 55.4218 -2.94944 -5.34641 0
M  V30 609 H 56.8358 -4.4373 -3.63011 0
M  V30 610 H 55.2328 -5.0886 -3.18091 0
M  V30 611 H 56.3028 -4.45352 -1.91806 0
M  V30 612 N 57.6459 0.756429 -1.3826 0
M  V30 613 C 58.5759 1.88374 -1.37976 0
M  V30 614 C 59.5569 1.68311 -0.246082 0
M  V30 615 O 60.7419 1.88944 -0.44874 0
M  V30 616 C 57.8719 3.25864 -1.20125 0
M  V30 617 C 56.8259 3.60523 -2.30666 0
M  V30 618 C 56.1519 4.9672 -1.97923 0
M  V30 619 C 57.4519 3.65692 -3.72916 0
M  V30 620 H 59.1459 1.88869 -2.32312 0
M  V30 621 H 56.6919 0.907272 -1.11824 0
M  V30 622 H 58.6449 4.0438 -1.18552 0
M  V30 623 H 57.3689 3.25841 -0.222498 0
M  V30 624 H 56.0279 2.84324 -2.3142 0
M  V30 625 H 55.6759 4.93253 -0.985393 0
M  V30 626 H 55.3759 5.20878 -2.71955 0
M  V30 627 H 56.8999 5.77618 -1.97964 0
M  V30 628 H 58.3139 4.34328 -3.74208 0
M  V30 629 H 56.7109 4.01358 -4.4613 0
M  V30 630 H 57.7809 2.65987 -4.05436 0
M  V30 631 N 59.124 1.23083 0.984299 0
M  V30 632 C 60.54 0.992637 1.24975 0
M  V30 633 C 60.74 -0.308618 1.99123 0
M  V30 634 O 59.796 -1.02905 2.30579 0
M  V30 635 C 61.109 2.19698 2.05312 0
M  V30 636 C 62.657 2.24147 2.18465 0
M  V30 637 C 63.132 3.44157 3.02192 0
M  V30 638 N 64.623 3.44372 3.09777 0
M  V30 639 C 65.358 4.33886 3.74874 0
M  V30 640 N 64.854 5.3363 4.41827 0
M  V30 641 N 66.647 4.21639 3.71721 0
M  V30 642 H 58.798 2.06731 0.487453 0
M  V30 643 H 61.061 0.906339 0.277944 0
M  V30 644 H 60.767 3.1411 1.58201 0
M  V30 645 H 60.641 2.20465 3.06064 0
M  V30 646 H 63.028 1.30277 2.64786 0
M  V30 647 H 63.109 2.27415 1.17115 0
M  V30 648 H 62.753 4.38332 2.56568 0
M  V30 649 H 62.683 3.3813 4.03702 0
M  V30 650 H 65.174 2.72201 2.62135 0
M  V30 651 H 65.487 5.98196 4.89266 0
M  V30 652 H 63.832 5.37534 4.40548 0
M  V30 653 H 67.023 3.42962 3.18582 0
M  V30 654 H 67.196 4.91604 4.22173 0
M  V30 655 N 60.6021 -1.18246 1.0419 0
M  V30 656 C 61.5341 -2.2142 0.592088 0
M  V30 657 C 62.5471 -1.59233 -0.338909 0
M  V30 658 O 63.7361 -1.78002 -0.133231 0
M  V30 659 C 60.8361 -3.38546 -0.154854 0
M  V30 660 C 60.0091 -4.3031 0.784328 0
M  V30 661 C 59.0681 -5.26138 0.0804583 0
M  V30 662 O 58.0941 -5.64738 0.711292 0
M  V30 663 N 59.2961 -5.68261 -1.18574 0
M  V30 664 H 62.0611 -2.60636 1.47949 0
M  V30 665 H 59.6221 -1.33044 0.922544 0
M  V30 666 H 61.6141 -3.99678 -0.635606 0
M  V30 667 H 60.1841 -2.98012 -0.943811 0
M  V30 668 H 59.4041 -3.66764 1.44491 0
M  V30 669 H 60.6921 -4.8852 1.42218 0
M  V30 670 H 60.0901 -5.38957 -1.71876 0
M  V30 671 H 58.6471 -6.31584 -1.61074 0
M  V30 672 N 62.0802 -0.821533 -1.34494 0
M  V30 673 C 63.4962 -0.507117 -1.51329 0
M  V30 674 C 63.6962 0.968964 -1.76673 0
M  V30 675 O 62.7522 1.75348 -1.81685 0
M  V30 676 C 64.0652 -1.36544 -2.67911 0
M  V30 677 C 65.6132 -1.36242 -2.81793 0
M  V30 678 C 66.0882 -2.2052 -4.01416 0
M  V30 679 N 67.5792 -2.18136 -4.08621 0
M  V30 680 C 68.3142 -2.80095 -5.00334 0
M  V30 681 N 67.8102 -3.51039 -5.9728 0
M  V30 682 N 69.6032 -2.69656 -4.93196 0
M  V30 683 H 61.7542 -1.77729 -1.16302 0
M  V30 684 H 64.0172 -0.757291 -0.570276 0
M  V30 685 H 63.7232 -2.41361 -2.55808 0
M  V30 686 H 63.5972 -1.02917 -3.62888 0
M  V30 687 H 65.9842 -0.322041 -2.93338 0
M  V30 688 H 66.0652 -1.73866 -1.87628 0
M  V30 689 H 65.7092 -3.24607 -3.90631 0
M  V30 690 H 65.6392 -1.80247 -4.94791 0
M  V30 691 H 68.1302 -1.6653 -3.39229 0
M  V30 692 H 68.4432 -3.95565 -6.63889 0
M  V30 693 H 66.7882 -3.55145 -5.97409 0
M  V30 694 H 69.9792 -2.13808 -4.16418 0
M  V30 695 H 70.1522 -3.1823 -5.64476 0
M  V30 696 N 63.5583 1.46682 -0.576371 0
M  V30 697 C 64.9743 1.57822 -0.237562 0
M  V30 698 C 65.1743 1.57237 1.26011 0
M  V30 699 O 64.2303 1.48596 2.04146 0
M  V30 700 C 65.5433 2.87499 -0.881168 0
M  V30 701 C 67.0913 3.01119 -0.85417 0
M  V30 702 C 67.5663 4.33524 -1.4772 0
M  V30 703 N 69.0573 4.40207 -1.44125 0
M  V30 704 C 69.7923 5.4126 -1.89276 0
M  V30 705 N 69.2883 6.49021 -2.42371 0
M  V30 706 N 71.0813 5.32422 -1.80231 0
M  V30 707 H 63.2323 1.45306 -1.54919 0
M  V30 708 H 65.4953 0.692733 -0.647167 0
M  V30 709 H 65.2013 2.9372 -1.93447 0
M  V30 710 H 65.0753 3.75224 -0.385592 0
M  V30 711 H 67.4623 2.94485 0.190491 0
M  V30 712 H 67.5433 2.14887 -1.3877 0
M  V30 713 H 67.1873 4.40916 -2.52103 0
M  V30 714 H 67.1173 5.1852 -0.918947 0
M  V30 715 H 69.6083 3.62931 -1.05307 0
M  V30 716 H 69.9213 7.2233 -2.74698 0
M  V30 717 H 68.2663 6.49858 -2.46393 0
M  V30 718 H 71.4573 4.47137 -1.38514 0
M  V30 719 H 71.6303 6.11034 -2.15735 0
M  V30 720 N 65.0364 0.313813 1.54444 0
M  V30 721 C 66.4524 -0.0391619 1.59552 0
M  V30 722 C 66.6524 -1.51322 1.33056 0
M  V30 723 O 65.7084 -2.26782 1.11022 0
M  V30 724 C 67.0214 0.370302 2.98411 0
M  V30 725 C 68.5694 0.320139 3.11358 0
M  V30 726 C 69.0444 0.704617 4.52547 0
M  V30 727 N 70.5354 0.657645 4.58508 0
M  V30 728 C 71.2704 0.927453 5.6585 0
M  V30 729 N 70.7664 1.26389 6.81174 0
M  V30 730 N 72.5594 0.853662 5.5558 0
M  V30 731 H 64.7104 1.27433 1.69925 0
M  V30 732 H 66.9734 0.517511 0.794284 0
M  V30 733 H 66.6794 1.39694 3.22767 0
M  V30 734 H 66.5534 -0.269619 3.76235 0
M  V30 735 H 68.9404 -0.697275 2.86744 0
M  V30 736 H 69.0214 0.99486 2.35661 0
M  V30 737 H 68.6654 1.7199 4.77893 0
M  V30 738 H 68.5954 0.00768843 5.26599 0
M  V30 739 H 71.0864 0.409067 3.75679 0
M  V30 740 H 71.3994 1.4554 7.58972 0
M  V30 741 H 69.7444 1.30206 6.82694 0
M  V30 742 H 72.9354 0.590383 4.64362 0
M  V30 743 H 73.1084 1.0673 6.3915 0
M  V30 744 N 66.5145 -1.57545 0.0417849 0
M  V30 745 C 67.4465 -2.07904 -0.964799 0
M  V30 746 C 68.4595 -1.00497 -1.28079 0
M  V30 747 O 69.6485 -1.28087 -1.24322 0
M  V30 748 C 66.7485 -2.49928 -2.28887 0
M  V30 749 C 65.9215 -3.80562 -2.15619 0
M  V30 750 C 64.9805 -4.08999 -3.31069 0
M  V30 751 O 64.0065 -4.79061 -3.0739 0
M  V30 752 N 65.2085 -3.6017 -4.55256 0
M  V30 753 H 67.9735 -2.94886 -0.535029 0
M  V30 754 H 65.5345 -1.61252 -0.144681 0
M  V30 755 H 67.5265 -2.66034 -3.04972 0
M  V30 756 H 66.0965 -1.68245 -2.63463 0
M  V30 757 H 65.3165 -3.74129 -1.24183 0
M  V30 758 H 66.6045 -4.66126 -2.03971 0
M  V30 759 H 66.0025 -3.03512 -4.77386 0
M  V30 760 H 64.5595 -3.81532 -5.28466 0
M  V30 761 N 67.9926 0.231505 -1.5589 0
M  V30 762 C 68.9226 1.29022 -1.94617 0
M  V30 763 C 69.9036 1.4941 -0.813067 0
M  V30 764 O 71.0886 1.6176 -1.07459 0
M  V30 765 C 68.2186 2.64199 -2.25424 0
M  V30 766 C 67.1726 2.58484 -3.41131 0
M  V30 767 C 66.4986 3.97599 -3.57518 0
M  V30 768 C 67.7986 2.1413 -4.76388 0
M  V30 769 H 69.4926 0.968563 -2.83301 0
M  V30 770 H 67.0386 0.464479 -1.36303 0
M  V30 771 H 68.9916 3.38413 -2.51107 0
M  V30 772 H 67.7156 2.98032 -1.33583 0
M  V30 773 H 66.3746 1.86727 -3.15481 0
M  V30 774 H 66.0226 4.28723 -2.6307 0
M  V30 775 H 65.7226 3.94659 -4.35337 0
M  V30 776 H 67.2466 4.7349 -3.85538 0
M  V30 777 H 68.6606 2.78083 -5.01341 0
M  V30 778 H 67.0576 2.2227 -5.57419 0
M  V30 779 H 68.1276 1.09331 -4.72414 0
M  V30 780 N 69.4707 1.49531 0.497807 0
M  V30 781 C 70.8867 1.36365 0.829266 0
M  V30 782 C 71.0867 0.399184 1.97506 0
M  V30 783 O 70.1427 -0.167977 2.51941 0
M  V30 784 C 71.4557 2.77153 1.16647 0
M  V30 785 C 73.0037 2.85877 1.27449 0
M  V30 786 C 73.4787 4.2744 1.64497 0
M  V30 787 N 74.9697 4.30265 1.7154 0
M  V30 788 C 75.7047 5.3677 2.01656 0
M  V30 789 N 75.2007 6.53516 2.29976 0
M  V30 790 N 76.9937 5.24189 2.02934 0
M  V30 791 H 69.1447 2.10831 -0.257703 0
M  V30 792 H 71.4077 0.946534 -0.0527091 0
M  V30 793 H 71.1137 3.49442 0.397872 0
M  V30 794 H 70.9877 3.12722 2.10915 0
M  V30 795 H 73.3747 2.13824 2.0338 0
M  V30 796 H 73.4557 2.53887 0.312244 0
M  V30 797 H 73.0997 5.00021 0.891151 0
M  V30 798 H 73.0297 4.56896 2.61827 0
M  V30 799 H 75.5207 3.4607 1.51802 0
M  V30 800 H 75.8337 7.30506 2.52153 0
M  V30 801 H 74.1787 6.56737 2.27425 0
M  V30 802 H 77.3697 4.31988 1.80289 0
M  V30 803 H 77.5427 6.07286 2.26071 0
M  V30 804 N 70.9488 -0.749086 1.3866 0
M  V30 805 C 72.1738 -1.54344 1.38538 0
M  V30 806 C 72.5988 -1.88088 -0.0216655 0
M  V30 807 O 71.9568 -1.50899 -1.00494 0
M  V30 808 C 72.0048 -2.8164 2.25192 0
M  V30 809 O 71.1088 -3.7698 1.67212 0
M  V30 810 H 70.4498 -0.466654 0.472367 0
M  V30 811 H 72.9798 -0.925355 1.82478 0
M  V30 812 H 72.9898 -3.30519 2.3921 0
M  V30 813 H 71.6648 -2.56411 3.27454 0
M  V30 814 H 70.2418 -3.35699 1.6236 0
M  V30 815 N 72.4269 -1.23603 -0.977757 0
M  V30 816 C 73.3899 -1.02069 -2.05218 0
M  V30 817 C 74.3899 0.0184305 -1.60789 0
M  V30 818 O 75.5799 -0.221569 -1.72785 0
M  V30 819 C 72.7119 -0.544926 -3.36517 0
M  V30 820 H 73.9049 -1.9742 -2.25755 0
M  V30 821 H 71.4579 -1.05684 -1.15155 0
M  V30 822 H 72.1929 0.412241 -3.21669 0
M  V30 823 H 71.9779 -1.2948 -3.70105 0
M  V30 824 H 73.4679 -0.414985 -4.15533 0
M  V30 825 N 73.905 1.17692 -1.04816 0
M  V30 826 C 75.316 1.69501 -0.782698 0
M  V30 827 C 75.667 1.83456 0.695577 0
M  V30 828 O 74.792 1.51942 1.54086 0
M  V30 829 C 75.387 3.07874 -1.41419 0
M  V30 830 C 73.946 3.56864 -1.19686 0
M  V30 831 C 73.093 2.3322 -1.50012 0
M  V30 832 H 76.044 1.02262 -1.2136 0
M  V30 833 H 76.065 3.71528 -0.821428 0
M  V30 834 H 75.577 2.97685 -2.49009 0
M  V30 835 H 73.678 3.72337 -0.140043 0
M  V30 836 H 73.791 4.39851 -1.89916 0
M  V30 837 H 72.155 2.37501 -0.920071 0
M  V30 838 H 72.938 2.25644 -2.58727 0
M  V30 839 N 75.3831 0.828654 1.34056 0
M  V30 840 C 76.7941 0.477534 1.8049 0
M  V30 841 C 77.1451 -1.00258 1.6865 0
M  V30 842 O 76.2701 -1.78057 1.22982 0
M  V30 843 C 76.8651 0.860018 3.27703 0
M  V30 844 C 75.4241 0.561185 3.72193 0
M  V30 845 C 74.5711 1.07385 2.55663 0
M  V30 846 H 77.5221 1.0183 1.21722 0
M  V30 847 H 77.5431 0.166038 3.80138 0
M  V30 848 H 77.0551 1.93731 3.36288 0
M  V30 849 H 75.1561 -0.506465 3.69142 0
M  V30 850 H 75.2691 1.10926 4.66082 0
M  V30 851 H 73.6331 0.495149 2.49841 0
M  V30 852 H 74.4161 2.15771 2.67016 0
M  V30 853 N 76.8612 -1.46375 0.584142 0
M  V30 854 C 78.1092 -2.01978 0.0701287 0
M  V30 855 C 78.4302 -1.4579 -1.295 0
M  V30 856 O 77.7002 -0.64314 -1.85042 0
M  V30 857 H 76.2802 -0.746648 0.0229345 0
M  V30 858 H 78.9422 -1.79461 0.760245 0
M  V30 859 H 78.0382 -3.121 0.0022064 0
M  V30 860 N 78.3393 -0.321999 -1.54275 0
M  V30 861 C 79.7503 0.166384 -1.85957 0
M  V30 862 C 80.1013 1.51747 -1.24367 0
M  V30 863 O 79.2263 2.09317 -0.549124 0
M  V30 864 C 79.8213 0.308681 -3.37391 0
M  V30 865 C 78.3803 0.741286 -3.69028 0
M  V30 866 C 77.5273 -0.137937 -2.76957 0
M  V30 867 H 80.4783 -0.542335 -1.49146 0
M  V30 868 H 80.4993 1.13984 -3.63026 0
M  V30 869 H 80.0113 -0.674809 -3.82188 0
M  V30 870 H 78.1123 1.73458 -3.29762 0
M  V30 871 H 78.2253 0.546118 -4.75977 0
M  V30 872 H 76.5893 0.386251 -2.51754 0
M  V30 873 H 77.3723 -1.11816 -3.2458 0
M  V30 874 N 79.8174 1.5752 -0.0501392 0
M  V30 875 C 81.0644 1.9265 0.623874 0
M  V30 876 C 81.3924 0.928411 1.70912 0
M  V30 877 O 80.6474 -0.0594525 1.9561 0
M  V30 878 C 80.9464 3.34467 1.25963 0
M  V30 879 C 80.6124 4.49883 0.302689 0
M  V30 880 C 79.2744 4.81184 0.0393636 0
M  V30 881 C 81.6264 5.20002 -0.353205 0
M  V30 882 C 78.9544 5.79951 -0.887308 0
M  V30 883 C 81.3064 6.1976 -1.26806 0
M  V30 884 C 79.9704 6.49491 -1.54007 0
M  V30 885 H 79.2404 0.704957 0.228292 0
M  V30 886 H 81.8874 1.91146 -0.116398 0
M  V30 887 H 80.1924 3.32333 2.07514 0
M  V30 888 H 81.8894 3.58928 1.78806 0
M  V30 889 H 78.4794 4.25457 0.518109 0
M  V30 890 H 82.6634 4.96033 -0.162854 0
M  V30 891 H 77.9194 6.01322 -1.10553 0
M  V30 892 H 82.0934 6.73205 -1.78236 0
M  V30 893 H 79.7204 7.25837 -2.25976 0
M  V30 894 N 81.2955 -0.223234 1.56011 0
M  V30 895 C 82.2585 -1.26014 1.9145 0
M  V30 896 C 83.2585 -1.3989 0.792937 0
M  V30 897 O 84.4485 -1.38184 1.0607 0
M  V30 898 C 81.5805 -2.63422 2.16383 0
M  V30 899 H 82.7735 -0.95796 2.84189 0
M  V30 900 H 80.3265 -0.463576 1.49267 0
M  V30 901 H 81.0615 -2.98741 1.2619 0
M  V30 902 H 80.8465 -2.54728 2.98088 0
M  V30 903 H 82.3365 -3.38249 2.44903 0
M  V30 904 N 82.7736 -1.49793 -0.48987 0
M  V30 905 C 84.0196 -1.61049 -1.24236 0
M  V30 906 C 84.3746 -0.298412 -1.90072 0
M  V30 907 O 83.6676 0.702262 -1.78266 0
M  V30 908 C 83.8616 -2.71488 -2.32441 0
M  V30 909 C 83.6906 -4.13308 -1.77218 0
M  V30 910 C 82.4606 -4.79955 -1.58023 0
M  V30 911 C 84.6586 -4.98176 -1.27772 0
M  V30 912 N 82.6406 -6.06052 -0.978465 0
M  V30 913 C 84.0116 -6.14843 -0.798 0
M  V30 914 C 86.0666 -4.84091 -1.16449 0
M  V30 915 C 84.7696 -7.18975 -0.216245 0
M  V30 916 C 86.7956 -5.88382 -0.596698 0
M  V30 917 C 86.1576 -7.04285 -0.127262 0
M  V30 918 H 82.2566 -0.643611 -0.444172 0
M  V30 919 H 84.8406 -1.86842 -0.54754 0
M  V30 920 H 83.0116 -2.47449 -2.99372 0
M  V30 921 H 84.7436 -2.72205 -2.99477 0
M  V30 922 H 81.4986 -4.36936 -1.82712 0
M  V30 923 H 81.9226 -6.73407 -0.696534 0
M  V30 924 H 86.5646 -3.94786 -1.5134 0
M  V30 925 H 84.2826 -8.0797 0.144903 0
M  V30 926 H 87.8686 -5.79545 -0.511716 0
M  V30 927 H 86.7486 -7.83606 0.30523 0
M  V30 928 N 84.2517 0.741722 -1.39055 0
M  V30 929 C 85.6627 1.31966 -1.32068 0
M  V30 930 C 86.0137 1.96192 0.0180797 0
M  V30 931 O 85.1387 1.95861 0.920196 0
M  V30 932 C 85.7337 2.39954 -2.39181 0
M  V30 933 C 84.2927 2.93438 -2.35735 0
M  V30 934 C 83.4397 1.66936 -2.21422 0
M  V30 935 H 86.3907 0.539721 -1.4924 0
M  V30 936 H 86.4117 3.20182 -2.05581 0
M  V30 937 H 85.9237 1.9318 -3.36605 0
M  V30 938 H 84.0247 3.4451 -1.41929 0
M  V30 939 H 84.1377 3.4701 -3.30335 0
M  V30 940 H 82.5017 1.91016 -1.68478 0
M  V30 941 H 83.2847 1.22224 -3.20806 0
M  V30 942 N 85.7298 1.2412 0.971189 0
M  V30 943 C 86.6598 1.05508 2.08304 0
M  V30 944 C 87.6408 -0.0308864 1.70072 0
M  V30 945 O 88.8258 0.135521 1.93727 0
M  V30 946 C 85.9558 0.655365 3.4106 0
M  V30 947 C 84.9098 1.68971 3.93234 0
M  V30 948 C 84.2358 1.14516 5.22293 0
M  V30 949 C 85.5358 3.08487 4.21465 0
M  V30 950 H 87.2298 1.98507 2.24132 0
M  V30 951 H 84.7758 0.955821 1.07704 0
M  V30 952 H 86.7288 0.51217 4.18276 0
M  V30 953 H 85.4528 -0.31032 3.25122 0
M  V30 954 H 84.1118 1.82106 3.18171 0
M  V30 955 H 83.7598 0.170189 5.02712 0
M  V30 956 H 83.4598 1.83635 5.58168 0
M  V30 957 H 84.9838 1.01401 6.02121 0
M  V30 958 H 86.3978 2.98601 4.89398 0
M  V30 959 H 84.7948 3.74926 4.68562 0
M  V30 960 H 85.8648 3.56787 3.28376 0
M  V30 961 N 87.2079 -1.17134 1.05439 0
M  V30 962 C 88.4569 -1.86791 0.761049 0
M  V30 963 C 88.7699 -1.82072 -0.714795 0
M  V30 964 O 89.9759 -2.47223 -1.12218 0
M  V30 965 C 88.4319 -3.35166 1.31117 0
M  V30 966 C 88.0399 -3.48381 2.81664 0
M  V30 967 C 89.7839 -4.10134 1.09499 0
M  V30 968 C 87.6909 -4.90793 3.29964 0
M  V30 969 H 86.6209 -0.699681 0.281002 0
M  V30 970 H 89.2719 -1.3226 1.27199 0
M  V30 971 H 87.6539 -3.8925 0.72803 0
M  V30 972 H 88.8279 -3.04502 3.45855 0
M  V30 973 H 87.1429 -2.86836 3.01851 0
M  V30 974 H 89.7399 -5.152 1.43084 0
M  V30 975 H 90.0829 -4.16287 0.0328772 0
M  V30 976 H 90.6159 -3.62264 1.64346 0
M  V30 977 H 87.3549 -4.89816 4.35616 0
M  V30 978 H 86.8749 -5.35333 2.70516 0
M  V30 979 H 88.5539 -5.59573 3.24787 0
M  V30 980 N 88.686 -0.835752 -1.33615 0
M  V30 981 C 89.934 -0.429109 -1.97492 0
M  V30 982 C 90.255 1.01433 -1.66543 0
M  V30 983 O 89.525 1.70611 -0.962744 0
M  V30 984 H 88.105 -0.155686 -0.730596 0
M  V30 985 H 90.767 -1.06802 -1.63031 0
M  V30 986 H 89.863 -0.55861 -3.0706 0
M  V30 987 N 90.1641 1.46063 -0.591896 0
M  V30 988 C 91.1121 2.32124 0.148739 0
M  V30 989 C 92.1061 1.45035 0.875286 0
M  V30 990 O 93.3121 1.61609 0.792632 0
M  V30 991 H 89.6871 0.749024 0.066832 0
M  V30 992 H 91.6581 2.92392 -0.595783 0
M  V30 993 C 90.4071 3.28373 1.1431 0
M  V30 994 H 89.7301 3.95371 0.59346 0
M  V30 995 H 91.1701 3.91352 1.63155 0
M  V30 996 C 89.6291 2.54393 2.20875 0
M  V30 997 O 90.1591 2.31373 3.28374 0
M  V30 998 N 88.3651 2.14797 1.95731 0
M  V30 999 H 87.9121 2.33719 1.08319 0
M  V30 1000 H 87.8701 1.65619 2.67241 0
M  V30 1001 N 91.6422 0.330177 1.54103 0
M  V30 1002 C 92.6052 -0.520144 2.2322 0
M  V30 1003 C 93.6052 -1.03828 1.22786 0
M  V30 1004 O 94.7952 -0.929652 1.4732 0
M  V30 1005 C 91.9272 -1.72317 2.94142 0
M  V30 1006 H 93.1202 0.0841605 2.99782 0
M  V30 1007 H 90.6732 0.0813433 1.56088 0
M  V30 1008 H 91.4082 -2.36653 2.21734 0
M  V30 1009 H 91.1932 -1.35898 3.67796 0
M  V30 1010 H 92.6832 -2.3266 3.46784 0
M  V30 1011 N 93.1203 -1.57491 0.0584922 0
M  V30 1012 C 94.0833 -2.1085 -0.898617 0
M  V30 1013 C 95.0833 -1.02964 -1.23511 0
M  V30 1014 O 96.2733 -1.29007 -1.17059 0
M  V30 1015 C 93.4053 -2.59881 -2.20623 0
M  V30 1016 H 94.5983 -2.96715 -0.435936 0
M  V30 1017 H 92.1513 -1.55141 -0.190023 0
M  V30 1018 H 92.8863 -1.77431 -2.71457 0
M  V30 1019 H 92.6713 -3.38727 -1.97501 0
M  V30 1020 H 94.1613 -3.01285 -2.89166 0
M  V30 1021 N 94.5984 0.214957 -1.56127 0
M  V30 1022 C 95.5614 1.24997 -1.92116 0
M  V30 1023 C 96.5614 1.39467 -0.800344 0
M  V30 1024 O 97.7514 1.37619 -1.06802 0
M  V30 1025 C 94.8834 2.62271 -2.17777 0
M  V30 1026 H 96.0764 0.942875 -2.84693 0
M  V30 1027 H 93.6294 0.455654 -1.49511 0
M  V30 1028 H 94.3644 2.98068 -1.27773 0
M  V30 1029 H 94.1494 2.53143 -2.99434 0
M  V30 1030 H 95.6394 3.36946 -2.46693 0
M  V30 1031 N 96.0765 1.50051 0.48192 0
M  V30 1032 C 97.3225 1.60736 1.2366 0
M  V30 1033 C 97.6555 0.301786 1.91841 0
M  V30 1034 O 96.9305 -0.696025 1.8162 0
M  V30 1035 C 97.2135 2.78009 2.28874 0
M  V30 1036 C 97.0665 4.18416 1.65069 0
M  V30 1037 C 98.3855 2.90867 3.30279 0
M  V30 1038 H 95.5045 0.585031 0.448228 0
M  V30 1039 H 98.1465 1.82402 0.531946 0
M  V30 1040 H 96.2965 2.59667 2.88973 0
M  V30 1041 H 97.9685 4.48322 1.0865 0
M  V30 1042 H 96.2115 4.23177 0.954148 0
M  V30 1043 H 96.8825 4.96381 2.41474 0
M  V30 1044 H 99.3585 3.07623 2.80191 0
M  V30 1045 H 98.2345 3.74566 4.01238 0
M  V30 1046 H 98.4955 2.01021 3.93755 0
M  V30 1047 N 97.5546 -0.734337 1.39446 0
M  V30 1048 C 98.8026 -1.49096 1.36436 0
M  V30 1049 C 99.1236 -1.94961 -0.0388255 0
M  V30 1050 O 98.3936 -1.69033 -0.990191 0
M  V30 1051 H 96.9736 -0.5531 0.502085 0
M  V30 1052 H 99.6356 -0.871725 1.74319 0
M  V30 1053 H 98.7316 -2.37276 2.02747 0
M  V30 1054 N 99.0327 -1.24633 -0.964593 0
M  V30 1055 C 99.9647 -0.999302 -2.06268 0
M  V30 1056 C 100.978 0.0323226 -1.62768 0
M  V30 1057 O 102.167 -0.205079 -1.77318 0
M  V30 1058 C 99.2667 -0.486816 -3.35385 0
M  V30 1059 C 98.4397 -1.5823 -4.07777 0
M  V30 1060 C 97.4987 -1.07191 -5.15166 0
M  V30 1061 O 96.5247 -1.76426 -5.41168 0
M  V30 1062 N 97.7267 0.0920373 -5.80427 0
M  V30 1063 H 100.492 -1.94477 -2.28033 0
M  V30 1064 H 98.0527 -1.15704 -1.13244 0
M  V30 1065 H 100.045 -0.130066 -4.04491 0
M  V30 1066 H 98.6147 0.364459 -3.10468 0
M  V30 1067 H 97.8347 -2.11109 -3.32906 0
M  V30 1068 H 99.1227 -2.31854 -4.52903 0
M  V30 1069 H 98.5207 0.670784 -5.61709 0
M  V30 1070 H 97.0777 0.389905 -6.50633 0
M  V30 1071 N 100.511 1.16574 -1.06058 0
M  V30 1072 C 101.474 2.19085 -0.673392 0
M  V30 1073 C 102.474 1.5835 0.279648 0
M  V30 1074 O 103.664 1.74088 0.0623488 0
M  V30 1075 C 100.796 3.40899 0.00954234 0
M  V30 1076 H 101.989 2.54853 -1.58081 0
M  V30 1077 H 99.5418 1.30808 -0.855516 0
M  V30 1078 H 100.277 3.10684 0.929826 0
M  V30 1079 H 100.062 3.86233 -0.67573 0
M  V30 1080 H 101.552 4.1675 0.266245 0
M  V30 1081 N 101.989 0.842826 1.3317 0
M  V30 1082 C 102.952 0.284065 2.27433 0
M  V30 1083 C 103.952 -0.54948 1.5112 0
M  V30 1084 O 105.142 -0.362699 1.70382 0
M  V30 1085 C 102.274 -0.599384 3.35589 0
M  V30 1086 H 103.467 1.11589 2.78366 0
M  V30 1087 H 101.02 0.616221 1.4364 0
M  V30 1088 H 101.755 -1.45349 2.89904 0
M  V30 1089 H 101.54 -0.00291266 3.921 0
M  V30 1090 H 103.03 -0.983488 4.05854 0
M  V30 1091 N 103.467 -1.45747 0.599634 0
M  V30 1092 C 104.417 -2.27538 -0.145107 0
M  V30 1093 C 105.401 -1.3686 -0.846055 0
M  V30 1094 O 106.593 -1.6091 -0.737357 0
M  V30 1095 C 103.722 -3.23569 -1.14708 0
M  V30 1096 C 102.808 -4.21734 -0.447383 0
M  V30 1097 N 103.199 -5.03257 0.506535 0
M  V30 1098 C 101.497 -4.40536 -0.695966 0
M  V30 1099 C 102.198 -5.74426 0.917068 0
M  V30 1100 N 101.174 -5.42966 0.26253 0
M  V30 1101 H 104.976 -2.87965 0.587672 0
M  V30 1102 H 102.49 -1.56803 0.422697 0
M  V30 1103 H 104.487 -3.8089 -1.69495 0
M  V30 1104 H 103.147 -2.64702 -1.8805 0
M  V30 1105 H 104.158 -5.10319 0.882899 0
M  V30 1106 H 100.835 -3.92802 -1.41467 0
M  V30 1107 H 102.225 -6.4995 1.70338 0
M  V30 1108 N 104.945 -0.338344 -1.53925 0
M  V30 1109 C 105.875 0.51328 -2.27789 0
M  V30 1110 C 106.856 1.107 -1.29149 0
M  V30 1111 O 108.041 1.12937 -1.57984 0
M  V30 1112 C 105.171 1.66697 -3.04679 0
M  V30 1113 C 104.125 1.20183 -4.1078 0
M  V30 1114 C 103.451 2.44363 -4.75595 0
M  V30 1115 C 104.751 0.30605 -5.21403 0
M  V30 1116 H 106.445 -0.102883 -2.99223 0
M  V30 1117 H 103.991 -0.0509219 -1.4391 0
M  V30 1118 H 105.944 2.26915 -3.55088 0
M  V30 1119 H 104.668 2.30995 -2.30887 0
M  V30 1120 H 103.327 0.622499 -3.61276 0
M  V30 1121 H 102.975 3.07057 -3.98403 0
M  V30 1122 H 102.675 2.13925 -5.47275 0
M  V30 1123 H 104.199 3.05317 -5.28786 0
M  V30 1124 H 105.613 0.814929 -5.67478 0
M  V30 1125 H 104.01 0.0937929 -6.00027 0
M  V30 1126 H 105.08 -0.65921 -4.80398 0
M  V30 1127 N 106.423 1.57458 -0.0668435 0
M  V30 1128 C 107.648 1.9804 0.616027 0
M  V30 1129 C 108.073 0.944771 1.62652 0
M  V30 1130 O 107.431 -0.0902094 1.81075 0
M  V30 1131 C 107.479 3.37665 1.26549 0
M  V30 1132 O 106.583 3.36701 2.38131 0
M  V30 1133 H 105.924 0.644719 0.158849 0
M  V30 1134 H 108.454 2.04121 -0.139891 0
M  V30 1135 H 108.464 3.7474 1.6135 0
M  V30 1136 H 107.139 4.12573 0.525016 0
M  V30 1137 H 105.716 3.1139 2.0516 0
M  V30 1138 N 107.901 -0.206675 1.56239 0
M  V30 1139 C 109.148 -0.928842 1.79941 0
M  V30 1140 C 109.476 -1.83734 0.638131 0
M  V30 1141 O 108.731 -1.92039 -0.376746 0
M  V30 1142 C 109.03 -1.78675 3.09532 0
M  V30 1143 C 108.696 -1.03022 4.38973 0
M  V30 1144 C 107.358 -0.821302 4.74139 0
M  V30 1145 C 109.71 -0.497081 5.18824 0
M  V30 1146 C 107.038 -0.0675719 5.86661 0
M  V30 1147 C 109.39 0.24338 6.32132 0
M  V30 1148 C 108.054 0.463422 6.65889 0
M  V30 1149 H 107.324 -0.339887 0.658451 0
M  V30 1150 H 109.971 -0.195977 1.90495 0
M  V30 1151 H 108.276 -2.58794 2.94165 0
M  V30 1152 H 109.973 -2.34792 3.25075 0
M  V30 1153 H 106.563 -1.20306 4.11369 0
M  V30 1154 H 110.747 -0.645921 4.92079 0
M  V30 1155 H 106.003 0.112995 6.11296 0
M  V30 1156 H 110.177 0.66393 6.93228 0
M  V30 1157 H 107.804 1.04938 7.52922 0
M  V30 1158 N 109.379 -1.50304 -0.473955 0
M  V30 1159 C 110.342 -1.6841 -1.55469 0
M  V30 1160 C 111.342 -0.554905 -1.50922 0
M  V30 1161 O 112.532 -0.821882 -1.53593 0
M  V30 1162 C 109.664 -1.70667 -2.95102 0
M  V30 1163 H 110.857 -2.64828 -1.40733 0
M  V30 1164 H 108.41 -1.39742 -0.700132 0
M  V30 1165 H 109.145 -0.75932 -3.15285 0
M  V30 1166 H 108.93 -2.52698 -2.9981 0
M  V30 1167 H 110.42 -1.8664 -3.73571 0
M  V30 1168 N 110.857 0.726932 -1.39834 0
M  V30 1169 C 112.273 1.03354 -1.21615 0
M  V30 1170 C 112.473 2.01327 -0.08338 0
M  V30 1171 O 111.529 2.46158 0.56238 0
M  V30 1172 C 112.842 1.58811 -2.55342 0
M  V30 1173 C 114.39 1.70851 -2.62257 0
M  V30 1174 C 114.865 2.29716 -3.96225 0
M  V30 1175 N 116.356 2.37116 -3.97907 0
M  V30 1176 C 117.091 2.83619 -4.98345 0
M  V30 1177 N 116.587 3.29958 -6.09179 0
M  V30 1178 N 118.38 2.82901 -4.8572 0
M  V30 1179 H 110.531 0.0773069 -2.12259 0
M  V30 1180 H 112.794 0.0969102 -0.943034 0
M  V30 1181 H 112.5 0.942855 -3.38826 0
M  V30 1182 H 112.374 2.57502 -2.75632 0
M  V30 1183 H 114.761 2.34497 -1.79152 0
M  V30 1184 H 114.842 0.707913 -2.45809 0
M  V30 1185 H 114.486 1.66696 -4.79765 0
M  V30 1186 H 114.416 3.30469 -4.09997 0
M  V30 1187 H 116.907 2.04374 -3.17868 0
M  V30 1188 H 117.22 3.63976 -6.8172 0
M  V30 1189 H 115.565 3.27946 -6.12761 0
M  V30 1190 H 118.756 2.46027 -3.98231 0
M  V30 1191 H 118.929 3.18827 -5.6414 0
M  V30 1192 N 112.336 1.25143 0.95797 0
M  V30 1193 C 113.266 1.07711 2.07173 0
M  V30 1194 C 114.247 -0.0128462 1.70095 0
M  V30 1195 O 115.432 0.156061 1.93572 0
M  V30 1196 C 112.562 0.691503 3.40346 0
M  V30 1197 C 111.516 1.73132 3.9142 0
M  V30 1198 C 110.842 1.20049 5.21049 0
M  V30 1199 C 112.142 3.1294 4.1817 0
M  V30 1200 H 113.836 2.00873 2.22014 0
M  V30 1201 H 111.382 0.967191 1.06684 0
M  V30 1202 H 113.335 0.556505 4.17709 0
M  V30 1203 H 112.059 -0.275819 3.25433 0
M  V30 1204 H 110.718 1.8547 3.16222 0
M  V30 1205 H 110.366 0.223499 5.02503 0
M  V30 1206 H 110.066 1.89545 5.56189 0
M  V30 1207 H 111.59 1.07782 6.01012 0
M  V30 1208 H 113.004 3.03775 4.86203 0
M  V30 1209 H 111.401 3.79875 4.64559 0
M  V30 1210 H 112.471 3.6025 3.24573 0
M  V30 1211 N 113.814 -1.1601 1.06675 0
M  V30 1212 C 114.777 -2.18724 0.685001 0
M  V30 1213 C 115.777 -1.58496 -0.271246 0
M  V30 1214 O 116.967 -1.74119 -0.0531156 0
M  V30 1215 C 114.099 -3.40899 0.00853648 0
M  V30 1216 H 115.292 -2.54011 1.59431 0
M  V30 1217 H 112.845 -1.30352 0.862441 0
M  V30 1218 H 113.58 -3.11173 -0.913337 0
M  V30 1219 H 113.365 -3.8587 0.696204 0
M  V30 1220 H 114.855 -4.16886 -0.24414 0
M  V30 1221 N 115.292 -0.849877 -1.32721 0
M  V30 1222 C 116.708 -0.539102 -1.50219 0
M  V30 1223 C 116.908 0.931271 -1.78689 0
M  V30 1224 O 115.964 1.71455 -1.85363 0
M  V30 1225 C 117.277 -1.42196 -2.64954 0
M  V30 1226 C 118.825 -1.42189 -2.78839 0
M  V30 1227 C 119.3 -2.28985 -3.96648 0
M  V30 1228 N 120.791 -2.26754 -4.03902 0
M  V30 1229 C 121.526 -2.90644 -4.94281 0
M  V30 1230 N 121.022 -3.63629 -5.897 0
M  V30 1231 N 122.815 -2.80057 -4.87365 0
M  V30 1232 H 114.966 -1.80156 -1.12506 0
M  V30 1233 H 117.229 -0.769217 -0.554085 0
M  V30 1234 H 116.935 -2.46733 -2.50631 0
M  V30 1235 H 116.809 -1.10591 -3.60624 0
M  V30 1236 H 119.196 -0.38419 -2.92588 0
M  V30 1237 H 119.277 -1.77807 -1.83898 0
M  V30 1238 H 118.921 -3.32819 -3.83658 0
M  V30 1239 H 118.851 -1.90702 -4.90857 0
M  V30 1240 H 121.342 -1.73688 -3.3562 0
M  V30 1241 H 121.655 -4.09558 -6.55349 0
M  V30 1242 H 120 -3.67737 -5.89741 0
M  V30 1243 H 123.191 -2.22593 -4.11789 0
M  V30 1244 H 123.364 -3.30132 -5.57599 0
M  V30 1245 N 116.77 1.45427 -0.607355 0
M  V30 1246 C 118.186 1.57283 -0.270985 0
M  V30 1247 C 118.386 1.59875 1.22647 0
M  V30 1248 O 117.442 1.52893 2.00948 0
M  V30 1249 C 118.755 2.85566 -0.941952 0
M  V30 1250 C 120.303 2.9924 -0.917849 0
M  V30 1251 C 120.778 4.30293 -1.56882 0
M  V30 1252 N 122.269 4.37051 -1.5343 0
M  V30 1253 C 123.004 5.37123 -2.00715 0
M  V30 1254 N 122.5 6.43734 -2.56084 0
M  V30 1255 N 124.293 5.28479 -1.91484 0
M  V30 1256 H 116.444 1.41988 -1.57966 0
M  V30 1257 H 118.707 0.67885 -0.661715 0
M  V30 1258 H 118.413 2.8955 -1.99633 0
M  V30 1259 H 118.287 3.74322 -0.465096 0
M  V30 1260 H 120.674 2.94822 0.127984 0
M  V30 1261 H 120.755 2.11895 -1.43297 0
M  V30 1262 H 120.399 4.35469 -2.61398 0
M  V30 1263 H 120.329 5.16454 -1.02873 0
M  V30 1264 H 122.82 3.60615 -1.12982 0
M  V30 1265 H 123.133 7.16341 -2.89958 0
M  V30 1266 H 121.478 6.44485 -2.60122 0
M  V30 1267 H 124.669 4.44098 -1.47967 0
M  V30 1268 H 124.842 6.0632 -2.28648 0
M  V30 1269 N 118.248 0.346503 1.53744 0
M  V30 1270 C 119.478 -0.250047 2.05081 0
M  V30 1271 C 119.886 -1.44529 1.22098 0
M  V30 1272 O 119.229 -1.81992 0.249917 0
M  V30 1273 C 119.291 -0.725934 3.52094 0
M  V30 1274 C 118.955 0.350053 4.55657 0
M  V30 1275 C 119.952 1.19372 5.0601 0
M  V30 1276 C 117.637 0.504827 4.99757 0
M  V30 1277 C 119.631 2.17768 5.99046 0
M  V30 1278 C 117.318 1.49218 5.92602 0
M  V30 1279 C 118.316 2.32706 6.42135 0
M  V30 1280 O 118.004 3.2976 7.33153 0
M  V30 1281 H 117.736 -0.0515469 0.674032 0
M  V30 1282 H 120.29 0.497559 1.99282 0
M  V30 1283 H 118.52 -1.52483 3.55367 0
M  V30 1284 H 120.209 -1.24336 3.86388 0
M  V30 1285 H 120.975 1.08525 4.72702 0
M  V30 1286 H 116.854 -0.135178 4.60802 0
M  V30 1287 H 120.398 2.82971 6.37631 0
M  V30 1288 H 116.295 1.6012 6.25325 0
M  V30 1289 H 117.063 3.25265 7.51096 0
M  V30 1290 N 119.726 -1.57421 0.075193 0
M  V30 1291 C 120.974 -1.93236 -0.591974 0
M  V30 1292 C 121.295 -0.956241 -1.69944 0
M  V30 1293 O 120.565 -0.00494792 -1.95899 0
M  V30 1294 H 119.145 -0.713355 -0.22166 0
M  V30 1295 H 121.807 -1.9444 0.133848 0
M  V30 1296 H 120.903 -2.95131 -1.01509 0
M  V30 1297 N 121.204 0.198386 -1.56346 0
M  V30 1298 C 122.481 0.944982 -1.71258 0
M  V30 1299 C 122.861 2.0151 -0.629048 0
M  V30 1300 O 122.209 2.25639 0.360473 0
M  V30 1301 C 122.419 1.5344 -3.1346 0
M  V30 1302 C 123.767 2.01778 -3.73591 0
M  V30 1303 O 124.791 1.63288 -3.16568 0
M  V30 1304 O 123.65 2.72594 -4.73661 0
M  V30 1305 H 120.744 0.442939 -0.69838 0
M  V30 1306 H 123.29 0.188342 -1.68652 0
M  V30 1307 H 122.062 0.762869 -3.83792 0
M  V30 1308 H 121.685 2.35596 -3.20282 0
M  V30 1309 N 122.682 1.50554 0.465978 0
M  V30 1310 C 123.928 1.62038 1.21949 0
M  V30 1311 C 124.261 0.322116 1.9151 0
M  V30 1312 O 123.536 -0.676723 1.82348 0
M  V30 1313 C 123.819 2.80421 2.25912 0
M  V30 1314 C 123.672 4.20144 1.60622 0
M  V30 1315 C 124.991 2.94354 3.27176 0
M  V30 1316 H 122.11 0.589752 0.441998 0
M  V30 1317 H 124.752 1.82956 0.51257 0
M  V30 1318 H 122.902 2.62717 2.86203 0
M  V30 1319 H 124.574 4.49449 1.03889 0
M  V30 1320 H 122.817 4.24165 0.909211 0
M  V30 1321 H 123.488 4.98914 2.36196 0
M  V30 1322 H 125.964 3.10578 2.76913 0
M  V30 1323 H 124.84 3.788 3.97242 0
M  V30 1324 H 125.101 2.05186 3.916 0
M  V30 1325 N 124.16 -0.719506 1.40217 0
M  V30 1326 C 125.407 -1.47933 1.38283 0
M  V30 1327 C 125.735 -1.94493 -0.0161536 0
M  V30 1328 O 124.99 -1.68224 -0.999956 0
M  V30 1329 C 125.289 -2.72271 2.31524 0
M  V30 1330 C 124.955 -2.44496 3.78857 0
M  V30 1331 C 123.617 -2.36631 4.18998 0
M  V30 1332 C 125.969 -2.21104 4.71977 0
M  V30 1333 C 123.297 -2.03437 5.503 0
M  V30 1334 C 125.649 -1.89423 6.03574 0
M  V30 1335 C 124.313 -1.80038 6.42762 0
M  V30 1336 H 123.583 -0.541325 0.506012 0
M  V30 1337 H 126.23 -0.824502 1.72842 0
M  V30 1338 H 124.535 -3.42572 1.90137 0
M  V30 1339 H 126.232 -3.30348 2.27313 0
M  V30 1340 H 122.822 -2.51503 3.47051 0
M  V30 1341 H 127.006 -2.26139 4.41786 0
M  V30 1342 H 122.262 -1.94705 5.79569 0
M  V30 1343 H 126.436 -1.70336 6.75247 0
M  V30 1344 H 124.063 -1.54083 7.44421 0
M  V30 1345 N 125.638 -1.25649 -0.95132 0
M  V30 1346 C 126.57 -1.02112 -2.05197 0
M  V30 1347 C 127.583 0.0150571 -1.62793 0
M  V30 1348 O 128.772 -0.223874 -1.77091 0
M  V30 1349 C 125.872 -0.522361 -3.3485 0
M  V30 1350 C 125.045 -1.62546 -4.06076 0
M  V30 1351 C 124.104 -1.12649 -5.14001 0
M  V30 1352 O 123.13 -1.82156 -5.39266 0
M  V30 1353 N 124.332 0.03047 -5.80492 0
M  V30 1354 H 127.097 -1.96885 -2.25957 0
M  V30 1355 H 124.658 -1.16899 -1.1201 0
M  V30 1356 H 126.65 -0.172961 -4.0433 0
M  V30 1357 H 125.22 0.33151 -3.10837 0
M  V30 1358 H 124.44 -2.14628 -3.30649 0
M  V30 1359 H 125.728 -2.36644 -4.50419 0
M  V30 1360 H 125.126 0.611169 -5.62389 0
M  V30 1361 H 123.683 0.320875 -6.5101 0
M  V30 1362 N 127.117 1.15442 -1.07289 0
M  V30 1363 C 128.366 1.85557 -0.790669 0
M  V30 1364 C 128.679 1.83186 0.685739 0
M  V30 1365 O 129.885 2.48977 1.0827 0
M  V30 1366 C 128.341 3.33038 -1.36433 0
M  V30 1367 C 127.949 3.43856 -2.8717 0
M  V30 1368 C 129.693 4.0834 -1.1601 0
M  V30 1369 C 127.6 4.85482 -3.3773 0
M  V30 1370 H 126.53 0.695122 -0.292098 0
M  V30 1371 H 129.181 1.30219 -1.29287 0
M  V30 1372 H 127.563 3.88043 -0.789864 0
M  V30 1373 H 128.737 2.98961 -3.50655 0
M  V30 1374 H 127.052 2.81998 -3.06376 0
M  V30 1375 H 129.649 5.12859 -1.51262 0
M  V30 1376 H 129.992 4.16182 -0.0991007 0
M  V30 1377 H 130.525 3.59603 -1.70089 0
M  V30 1378 H 127.264 4.82823 -4.43353 0
M  V30 1379 H 126.784 5.30961 -2.78999 0
M  V30 1380 H 128.463 5.54335 -3.33648 0
M  V30 1381 N 128.595 0.856903 1.32268 0
M  V30 1382 C 130.011 0.547061 1.49931 0
M  V30 1383 C 130.211 -0.921781 1.7918 0
M  V30 1384 O 129.267 -1.70469 1.8627 0
M  V30 1385 C 130.58 1.43599 2.64196 0
M  V30 1386 C 132.128 1.43665 2.78081 0
M  V30 1387 C 132.603 2.31085 3.95428 0
M  V30 1388 N 134.094 2.28893 4.02694 0
M  V30 1389 C 134.829 2.93262 4.92732 0
M  V30 1390 N 134.325 3.66751 5.87763 0
M  V30 1391 N 136.118 2.82638 4.85873 0
M  V30 1392 H 128.269 1.8075 1.11549 0
M  V30 1393 H 130.532 0.772144 0.549997 0
M  V30 1394 H 130.238 2.48058 2.49319 0
M  V30 1395 H 130.112 1.12502 3.60032 0
M  V30 1396 H 132.499 0.399701 2.92381 0
M  V30 1397 H 132.58 1.7878 1.82952 0
M  V30 1398 H 132.224 3.34849 3.81888 0
M  V30 1399 H 132.154 1.93302 4.89839 0
M  V30 1400 H 134.645 1.75466 3.34694 0
M  V30 1401 H 134.958 4.13027 6.53168 0
M  V30 1402 H 133.303 3.70859 5.87783 0
M  V30 1403 H 136.494 2.24774 4.10602 0
M  V30 1404 H 136.667 3.33084 5.55841 0
M  V30 1405 N 130.073 -1.45103 0.615059 0
M  V30 1406 C 131.003 -2.33339 -0.0865619 0
M  V30 1407 C 131.984 -1.4727 -0.851209 0
M  V30 1408 O 133.169 -1.76026 -0.820281 0
M  V30 1409 C 130.299 -3.30095 -1.07956 0
M  V30 1410 C 129.253 -4.25858 -0.427628 0
M  V30 1411 C 128.579 -5.12361 -1.5294 0
M  V30 1412 C 129.879 -5.18165 0.655944 0
M  V30 1413 H 131.573 -2.92254 0.650224 0
M  V30 1414 H 129.119 -1.40532 0.314138 0
M  V30 1415 H 131.072 -3.90698 -1.57901 0
M  V30 1416 H 129.796 -2.69355 -1.84703 0
M  V30 1417 H 128.455 -3.66564 0.0510292 0
M  V30 1418 H 128.103 -4.47984 -2.28734 0
M  V30 1419 H 127.803 -5.77238 -1.09865 0
M  V30 1420 H 129.327 -5.75833 -2.03098 0
M  V30 1421 H 130.741 -5.72796 0.240257 0
M  V30 1422 H 129.138 -5.91559 1.00888 0
M  V30 1423 H 130.208 -4.60144 1.52957 0
M  V30 1424 N 131.551 -0.354651 -1.53558 0
M  V30 1425 C 132.799 0.237972 -2.00694 0
M  V30 1426 C 133.12 1.50173 -1.24391 0
M  V30 1427 O 132.39 1.92673 -0.354135 0
M  V30 1428 H 130.97 0.0909256 -0.741446 0
M  V30 1429 H 133.632 -0.478368 -1.88938 0
M  V30 1430 H 132.728 0.47264 -3.085 0
M  V30 1431 N 133.029 1.57378 -0.0835403 0
M  V30 1432 C 134.254 1.98682 0.594987 0
M  V30 1433 C 134.679 0.961969 1.61641 0
M  V30 1434 O 134.037 -0.0709989 1.81161 0
M  V30 1435 C 134.085 3.38988 1.2296 0
M  V30 1436 O 133.189 3.39208 2.34546 0
M  V30 1437 H 132.53 0.646368 0.152002 0
M  V30 1438 H 135.06 2.03961 -0.161533 0
M  V30 1439 H 135.07 3.76431 1.57366 0
M  V30 1440 H 133.745 4.13107 0.481228 0
M  V30 1441 H 132.322 3.13548 2.01846 0
M  V30 1442 N 134.507 -0.190092 1.56449 0
M  V30 1443 C 135.747 -0.916414 1.82705 0
M  V30 1444 C 136.111 -1.80235 0.661763 0
M  V30 1445 O 137.312 -2.56484 0.80433 0
M  V30 1446 C 135.583 -1.70691 3.14005 0
M  V30 1447 S 137.142 -2.48457 3.61683 0
M  V30 1448 H 133.96 -0.307281 0.64117 0
M  V30 1449 H 136.562 -0.179433 1.94675 0
M  V30 1450 H 135.266 -1.04677 3.96826 0
M  V30 1451 H 134.797 -2.48562 3.04927 0
M  V30 1452 H 136.812 -3.72756 3.27517 0
M  V30 1453 N 135.985 -1.50799 -0.457987 0
M  V30 1454 C 137.396 -1.55152 -1.0385 0
M  V30 1455 C 137.747 -0.362719 -1.92818 0
M  V30 1456 O 136.872 0.522915 -2.09987 0
M  V30 1457 C 137.467 -2.81173 -1.89017 0
M  V30 1458 C 136.026 -2.88164 -2.42154 0
M  V30 1459 C 135.173 -2.49591 -1.20829 0
M  V30 1460 H 138.124 -1.56874 -0.240068 0
M  V30 1461 H 138.145 -2.63769 -2.74238 0
M  V30 1462 H 137.657 -3.67677 -1.24238 0
M  V30 1463 H 135.758 -2.06042 -3.10447 0
M  V30 1464 H 135.871 -3.91356 -2.76364 0
M  V30 1465 H 134.235 -2.02322 -1.54719 0
M  V30 1466 H 135.018 -3.38418 -0.576927 0
M  V30 1467 N 137.463 0.71206 -1.40597 0
M  V30 1468 C 138.712 1.46754 -1.38369 0
M  V30 1469 C 139.025 1.95598 0.0097839 0
M  V30 1470 O 140.231 2.71059 0.154677 0
M  V30 1471 C 138.687 2.65289 -2.43207 0
M  V30 1472 C 138.295 2.23301 -3.88382 0
M  V30 1473 C 140.039 3.43008 -2.50091 0
M  V30 1474 C 137.946 3.38696 -4.84808 0
M  V30 1475 H 136.876 0.55118 -0.514506 0
M  V30 1476 H 139.527 0.774616 -1.66349 0
M  V30 1477 H 137.909 3.36769 -2.08332 0
M  V30 1478 H 139.083 1.59218 -4.32419 0
M  V30 1479 H 137.398 1.58618 -3.85006 0
M  V30 1480 H 139.995 4.28881 -3.1932 0
M  V30 1481 H 140.338 3.87065 -1.53253 0
M  V30 1482 H 140.871 2.78574 -2.83974 0
M  V30 1483 H 137.61 2.99668 -5.82992 0
M  V30 1484 H 137.13 4.01683 -4.45433 0
M  V30 1485 H 138.809 4.04712 -5.04794 0
M  V30 1486 N 138.941 1.26152 0.944643 0
M  V30 1487 C 140.187 1.11657 1.69294 0
M  V30 1488 C 140.52 -0.339926 1.91202 0
M  V30 1489 O 139.795 -1.24994 1.49019 0
M  V30 1490 C 140.078 1.88236 3.06984 0
M  V30 1491 C 139.931 3.41772 2.92424 0
M  V30 1492 C 141.25 1.67343 4.07043 0
M  V30 1493 H 138.369 0.407004 0.614424 0
M  V30 1494 H 141.011 1.55106 1.09737 0
M  V30 1495 H 139.161 1.51308 3.57824 0
M  V30 1496 H 140.833 3.88433 2.48832 0
M  V30 1497 H 139.076 3.68974 2.28124 0
M  V30 1498 H 139.747 3.90579 3.90067 0
M  V30 1499 H 142.223 1.99509 3.65151 0
M  V30 1500 H 141.099 2.23346 5.01406 0
M  V30 1501 H 141.36 0.617158 4.37771 0
M  V30 1502 N 140.419 -1.14872 1.07899 0
M  V30 1503 C 141.665 -1.86064 0.806725 0
M  V30 1504 C 141.998 -1.82434 -0.665706 0
M  V30 1505 O 141.273 -1.25138 -1.48899 0
M  V30 1506 C 141.556 -3.34929 1.32267 0
M  V30 1507 C 141.409 -3.47161 2.86006 0
M  V30 1508 C 142.728 -4.29863 0.943717 0
M  V30 1509 H 139.847 -0.675591 0.294526 0
M  V30 1510 H 142.489 -1.34925 1.33773 0
M  V30 1511 H 140.639 -3.78611 0.870974 0
M  V30 1512 H 142.311 -3.12302 3.39507 0
M  V30 1513 H 140.554 -2.88539 3.23925 0
M  V30 1514 H 141.225 -4.51777 3.17177 0
M  V30 1515 H 143.701 -3.9417 1.33302 0
M  V30 1516 H 142.577 -5.32494 1.33198 0
M  V30 1517 H 142.838 -4.41846 -0.149796 0
M  V30 1518 N 141.898 -0.863906 -1.31812 0
M  V30 1519 C 142.828 -0.330843 -2.31144 0
M  V30 1520 C 143.809 0.575005 -1.60087 0
M  V30 1521 O 144.994 0.493304 -1.8783 0
M  V30 1522 C 142.124 0.47374 -3.44054 0
M  V30 1523 C 141.078 -0.338481 -4.26659 0
M  V30 1524 C 140.404 0.591412 -5.31419 0
M  V30 1525 C 141.704 -1.56926 -4.98168 0
M  V30 1526 H 143.398 -1.16086 -2.75979 0
M  V30 1527 H 140.944 -0.559657 -1.32679 0
M  V30 1528 H 142.897 0.857143 -4.12591 0
M  V30 1529 H 141.621 1.33721 -2.9797 0
M  V30 1530 H 140.28 -0.703754 -3.59782 0
M  V30 1531 H 139.928 1.45199 -4.81587 0
M  V30 1532 H 139.628 0.0519022 -5.87577 0
M  V30 1533 H 141.152 0.97179 -6.02817 0
M  V30 1534 H 142.566 -1.25764 -5.59336 0
M  V30 1535 H 140.963 -2.04739 -5.64094 0
M  V30 1536 H 142.033 -2.32544 -4.25501 0
M  V30 1537 N 143.376 1.44774 -0.622745 0
M  V30 1538 C 144.324 2.32387 0.0994683 0
M  V30 1539 C 145.318 1.46859 0.844326 0
M  V30 1540 O 146.524 1.63254 0.758174 0
M  V30 1541 H 142.899 0.750273 0.0509291 0
M  V30 1542 H 144.87 2.91062 -0.65767 0
M  V30 1543 C 143.619 3.30723 1.07319 0
M  V30 1544 H 142.942 3.96541 0.509462 0
M  V30 1545 H 144.382 3.94725 1.54817 0
M  V30 1546 C 142.841 2.59021 2.15429 0
M  V30 1547 O 143.371 2.38286 3.23393 0
M  V30 1548 N 141.577 2.189 1.91131 0
M  V30 1549 H 141.124 2.35964 1.03337 0
M  V30 1550 H 141.082 1.71251 2.63668 0
M  V30 1551 N 144.854 0.36279 1.53368 0
M  V30 1552 C 146.102 -0.227326 2.00817 0
M  V30 1553 C 146.423 -1.49511 1.25186 0
M  V30 1554 O 145.693 -1.92482 0.364348 0
M  V30 1555 H 144.273 -0.0869923 0.741917 0
M  V30 1556 H 146.935 0.488381 1.88682 0
M  V30 1557 H 146.031 -0.456273 3.08747 0
M  V30 1558 N 146.332 -1.57332 0.0918853 0
M  V30 1559 C 147.242 -2.17368 -0.882505 0
M  V30 1560 C 148.258 -1.14226 -1.31257 0
M  V30 1561 O 149.434 -1.46582 -1.38115 0
M  V30 1562 C 146.499 -2.73962 -2.12476 0
M  V30 1563 C 145.56 -3.92048 -1.7492 0
M  V30 1564 C 144.793 -4.45933 -2.93223 0
M  V30 1565 O 145.016 -3.98764 -4.07852 0
M  V30 1566 O 143.95 -5.36999 -2.71875 0
M  V30 1567 H 147.776 -3.01031 -0.40172 0
M  V30 1568 H 145.361 -1.48813 -0.132291 0
M  V30 1569 H 147.243 -3.10147 -2.85283 0
M  V30 1570 H 145.918 -1.93347 -2.59613 0
M  V30 1571 H 144.825 -3.6068 -0.993025 0
M  V30 1572 H 146.158 -4.74017 -1.32548 0
M  V30 1573 N 147.81 0.181792 -1.56548 0
M  V30 1574 C 149.226 0.53316 -1.50431 0
M  V30 1575 C 149.426 1.85184 -0.794297 0
M  V30 1576 O 148.482 2.50058 -0.350318 0
M  V30 1577 C 149.795 0.575597 -2.9514 0
M  V30 1578 C 151.343 0.663519 -3.05886 0
M  V30 1579 C 151.818 0.736946 -4.52032 0
M  V30 1580 N 153.309 0.800118 -4.56237 0
M  V30 1581 C 154.044 0.877327 -5.66649 0
M  V30 1582 N 153.54 0.916016 -6.86718 0
M  V30 1583 N 155.333 0.915542 -5.54594 0
M  V30 1584 H 147.484 -0.683025 -2.01118 0
M  V30 1585 H 149.747 -0.244988 -0.915797 0
M  V30 1586 H 149.453 -0.324482 -3.502 0
M  V30 1587 H 149.327 1.42572 -3.49218 0
M  V30 1588 H 151.714 1.55403 -2.50867 0
M  V30 1589 H 151.795 -0.21307 -2.54911 0
M  V30 1590 H 151.439 -0.149262 -5.07681 0
M  V30 1591 H 151.369 1.62953 -5.00753 0
M  V30 1592 H 153.86 0.778926 -3.69785 0
M  V30 1593 H 154.173 0.975813 -7.66614 0
M  V30 1594 H 152.518 0.884469 -6.89349 0
M  V30 1595 H 155.709 0.882245 -4.59711 0
M  V30 1596 H 155.882 0.972253 -6.40665 0
M  V30 1597 N 149.288 1.51039 0.449983 0
M  V30 1598 C 150.251 1.70863 1.5277 0
M  V30 1599 C 151.251 0.578846 1.5002 0
M  V30 1600 O 152.441 0.846213 1.52266 0
M  V30 1601 C 149.573 1.75341 2.9235 0
M  V30 1602 H 150.766 2.67034 1.36502 0
M  V30 1603 H 148.319 1.40838 0.677812 0
M  V30 1604 H 149.054 0.809383 3.14037 0
M  V30 1605 H 148.839 2.57436 2.95752 0
M  V30 1606 H 150.329 1.92559 3.70555 0
M  V30 1607 N 150.766 -0.704594 1.40972 0
M  V30 1608 C 152.015 -1.46018 1.39146 0
M  V30 1609 C 152.328 -1.956 0.000589254 0
M  V30 1610 O 153.534 -2.71137 -0.1403 0
M  V30 1611 C 151.99 -2.63996 2.4461 0
M  V30 1612 C 151.598 -2.21238 3.89561 0
M  V30 1613 C 153.342 -3.41677 2.51907 0
M  V30 1614 C 151.249 -3.3612 4.86598 0
M  V30 1615 H 150.179 -0.548444 0.517422 0
M  V30 1616 H 152.83 -0.765784 1.66757 0
M  V30 1617 H 151.212 -3.3566 2.10115 0
M  V30 1618 H 152.386 -1.56923 4.33257 0
M  V30 1619 H 150.701 -1.56574 3.85841 0
M  V30 1620 H 153.298 -4.27182 3.2159 0
M  V30 1621 H 153.641 -3.86247 1.55303 0
M  V30 1622 H 154.174 -2.77064 2.85448 0
M  V30 1623 H 150.913 -2.96572 5.84573 0
M  V30 1624 H 150.433 -3.99315 4.47557 0
M  V30 1625 H 152.112 -4.02029 5.06934 0
M  V30 1626 N 152.244 -1.26651 -0.937939 0
M  V30 1627 C 153.194 -1.05156 -2.02302 0
M  V30 1628 C 154.178 0.0171233 -1.60891 0
M  V30 1629 O 155.37 -0.200213 -1.75864 0
M  V30 1630 C 152.499 -0.689962 -3.36295 0
M  V30 1631 C 151.585 -1.79626 -3.84181 0
M  V30 1632 N 151.976 -3.03422 -4.04684 0
M  V30 1633 C 150.274 -1.6806 -4.13124 0
M  V30 1634 C 150.975 -3.75345 -4.444 0
M  V30 1635 N 149.951 -3.03051 -4.51288 0
M  V30 1636 H 153.753 -1.99117 -2.1617 0
M  V30 1637 H 151.267 -1.17216 -1.12402 0
M  V30 1638 H 153.264 -0.517112 -4.13681 0
M  V30 1639 H 151.924 0.242139 -3.23796 0
M  V30 1640 H 152.935 -3.39293 -3.91281 0
M  V30 1641 H 149.612 -0.818629 -4.09396 0
M  V30 1642 H 151.002 -4.81691 -4.68427 0
M  V30 1643 N 153.722 1.14298 -1.08507 0
M  V30 1644 C 154.654 2.1907 -0.673859 0
M  V30 1645 C 155.667 1.60381 0.279577 0
M  V30 1646 O 156.856 1.78374 0.0670754 0
M  V30 1647 C 153.956 3.38888 0.0290979 0
M  V30 1648 C 153.129 4.27103 -0.943494 0
M  V30 1649 C 152.188 5.25477 -0.275676 0
M  V30 1650 O 151.214 5.61709 -0.920401 0
M  V30 1651 N 152.416 5.7227 0.974013 0
M  V30 1652 H 155.181 2.54965 -1.57521 0
M  V30 1653 H 152.742 1.29528 -0.971287 0
M  V30 1654 H 154.734 4.01761 0.48683 0
M  V30 1655 H 153.304 3.01309 0.832555 0
M  V30 1656 H 152.524 3.61149 -1.58004 0
M  V30 1657 H 153.812 4.82905 -1.60251 0
M  V30 1658 H 153.21 5.44965 1.51755 0
M  V30 1659 H 151.767 6.37127 1.37522 0
M  V30 1660 N 155.201 0.870884 1.31352 0
M  V30 1661 C 156.164 0.332243 2.26779 0
M  V30 1662 C 157.164 -0.517302 1.52252 0
M  V30 1663 O 158.354 -0.326477 1.71113 0
M  V30 1664 C 155.486 -0.528066 3.36785 0
M  V30 1665 H 156.679 1.17469 2.75937 0
M  V30 1666 H 154.232 0.64655 1.423 0
M  V30 1667 H 154.967 -1.39167 2.92922 0
M  V30 1668 H 154.752 0.0802582 3.92018 0
M  V30 1669 H 156.242 -0.897179 4.07849 0
M  V30 1670 N 156.679 -1.44442 0.630414 0
M  V30 1671 C 157.609 -2.33418 -0.0618083 0
M  V30 1672 C 158.59 -1.48165 -0.835541 0
M  V30 1673 O 159.775 -1.76886 -0.801564 0
M  V30 1674 C 156.905 -3.31222 -1.04449 0
M  V30 1675 C 155.859 -4.26288 -0.382436 0
M  V30 1676 C 155.185 -5.13954 -1.47497 0
M  V30 1677 C 156.485 -5.1744 0.710865 0
M  V30 1678 H 158.179 -2.91548 0.681184 0
M  V30 1679 H 155.725 -1.40191 0.329026 0
M  V30 1680 H 157.678 -3.92351 -1.53748 0
M  V30 1681 H 156.402 -2.71299 -1.81836 0
M  V30 1682 H 155.061 -3.6649 0.0899054 0
M  V30 1683 H 154.709 -4.50385 -2.2397 0
M  V30 1684 H 154.409 -5.7837 -1.03737 0
M  V30 1685 H 155.933 -5.77955 -1.96979 0
M  V30 1686 H 157.347 -5.72509 0.300996 0
M  V30 1687 H 155.744 -5.90455 1.07156 0
M  V30 1688 H 156.814 -4.58496 1.57829 0
M  V30 1689 N 158.157 -0.370918 -1.53173 0
M  V30 1690 C 159.403 0.217423 -2.01631 0
M  V30 1691 C 159.736 1.47983 -1.25756 0
M  V30 1692 O 159.011 1.91274 -0.352764 0
M  V30 1693 C 159.294 0.503982 -3.56556 0
M  V30 1694 C 159.147 -0.77243 -4.43118 0
M  V30 1695 C 160.466 1.30234 -4.20389 0
M  V30 1696 H 157.585 0.0775486 -0.732909 0
M  V30 1697 H 160.227 -0.496863 -1.83388 0
M  V30 1698 H 158.377 1.11248 -3.72231 0
M  V30 1699 H 160.049 -1.4098 -4.39229 0
M  V30 1700 H 158.292 -1.39167 -4.10871 0
M  V30 1701 H 158.963 -0.526815 -5.4948 0
M  V30 1702 H 161.439 0.787546 -4.08579 0
M  V30 1703 H 160.315 1.47158 -5.28806 0
M  V30 1704 H 160.576 2.31237 -3.76805 0
M  V30 1705 N 159.635 1.57281 -0.100228 0
M  V30 1706 C 160.567 2.11342 0.886972 0
M  V30 1707 C 161.58 1.05182 1.24261 0
M  V30 1708 O 162.769 1.32613 1.19483 0
M  V30 1709 C 159.869 2.5825 2.19454 0
M  V30 1710 C 159.042 3.88302 2.01346 0
M  V30 1711 C 158.101 4.21004 3.15661 0
M  V30 1712 O 157.127 4.9014 2.89398 0
M  V30 1713 N 158.329 3.76818 4.41575 0
M  V30 1714 H 161.094 2.96668 0.425216 0
M  V30 1715 H 158.655 1.61678 0.0847334 0
M  V30 1716 H 160.647 2.7717 2.94888 0
M  V30 1717 H 159.217 1.77907 2.57037 0
M  V30 1718 H 158.437 3.7848 1.10212 0
M  V30 1719 H 159.725 4.73375 1.8653 0
M  V30 1720 H 159.123 3.2102 4.65792 0
M  V30 1721 H 157.68 4.00882 5.13942 0
M  V30 1722 N 161.113 -0.173488 1.56642 0
M  V30 1723 C 162.045 -1.23935 1.92802 0
M  V30 1724 C 163.058 -1.40589 0.820889 0
M  V30 1725 O 164.247 -1.40631 1.09933 0
M  V30 1726 C 161.347 -2.60837 2.16373 0
M  V30 1727 C 160.52 -2.6551 3.47596 0
M  V30 1728 C 159.579 -3.8376 3.60021 0
M  V30 1729 O 158.605 -3.69859 4.32658 0
M  V30 1730 N 159.807 -5.00127 2.94709 0
M  V30 1731 H 162.572 -0.932236 2.84832 0
M  V30 1732 H 160.133 -0.363268 1.57772 0
M  V30 1733 H 162.125 -3.38407 2.21952 0
M  V30 1734 H 160.695 -2.83948 1.30738 0
M  V30 1735 H 159.915 -1.74052 3.53694 0
M  V30 1736 H 161.203 -2.65641 4.33949 0
M  V30 1737 H 160.601 -5.14322 2.35563 0
M  V30 1738 H 159.158 -5.75567 3.05886 0
M  V30 1739 N 162.591 -1.51276 -0.441967 0
M  V30 1740 C 163.839 -1.63392 -1.18943 0
M  V30 1741 C 164.16 -0.350159 -1.9183 0
M  V30 1742 O 163.43 0.633784 -1.85364 0
M  V30 1743 H 162.01 -0.602164 -0.442049 0
M  V30 1744 H 164.672 -1.88186 -0.507165 0
M  V30 1745 H 163.768 -2.45934 -1.92154 0
M  V30 1746 N 164.069 0.697108 -1.41344 0
M  V30 1747 C 165.294 1.49096 -1.44171 0
M  V30 1748 C 165.719 1.88038 -0.0481568 0
M  V30 1749 O 165.077 1.54525 0.948243 0
M  V30 1750 C 165.125 2.73088 -2.3549 0
M  V30 1751 O 164.229 3.70514 -1.81088 0
M  V30 1752 H 163.57 0.448801 -0.489361 0
M  V30 1753 H 166.1 0.856992 -1.85787 0
M  V30 1754 H 166.11 3.21413 -2.51312 0
M  V30 1755 H 164.785 2.44081 -3.36745 0
M  V30 1756 H 163.362 3.29441 -1.74708 0
M  V30 1757 N 165.547 1.27147 0.931209 0
M  V30 1758 C 166.51 1.09615 2.01289 0
M  V30 1759 C 167.51 0.0412581 1.60747 0
M  V30 1760 O 168.7 0.285545 1.71844 0
M  V30 1761 C 165.832 0.669447 3.34262 0
M  V30 1762 H 167.025 2.05662 2.18273 0
M  V30 1763 H 164.578 1.09885 1.11153 0
M  V30 1764 H 165.313 -0.292572 3.22978 0
M  V30 1765 H 165.098 1.43127 3.65044 0
M  V30 1766 H 166.588 0.568921 4.13706 0
M  V30 1767 N 167.025 -1.13721 1.09112 0
M  V30 1768 C 168.272 -1.84924 0.825192 0
M  V30 1769 C 168.6 -1.83347 -0.649151 0
M  V30 1770 O 167.855 -1.26449 -1.49362 0
M  V30 1771 C 168.154 -3.32861 1.30146 0
M  V30 1772 C 167.82 -3.54621 2.78486 0
M  V30 1773 C 166.482 -3.60268 3.18999 0
M  V30 1774 C 168.834 -3.62855 3.74146 0
M  V30 1775 C 166.162 -3.71679 4.53951 0
M  V30 1776 C 168.514 -3.75793 5.08883 0
M  V30 1777 C 167.178 -3.79692 5.4899 0
M  V30 1778 H 166.448 -0.676684 0.301959 0
M  V30 1779 H 169.095 -1.3428 1.36533 0
M  V30 1780 H 167.4 -3.85835 0.681064 0
M  V30 1781 H 169.097 -3.86395 1.07236 0
M  V30 1782 H 165.687 -3.50879 2.46134 0
M  V30 1783 H 169.871 -3.57775 3.43963 0
M  V30 1784 H 165.127 -3.72963 4.84467 0
M  V30 1785 H 169.301 -3.81107 5.82864 0
M  V30 1786 H 166.928 -3.88287 6.53558 0
M  V30 1787 N 168.503 -0.877838 -1.30888 0
M  V30 1788 C 169.466 -0.344265 -2.266 0
M  V30 1789 C 170.466 0.50922 -1.52524 0
M  V30 1790 O 171.656 0.317398 -1.71284 0
M  V30 1791 C 168.788 0.510198 -3.37061 0
M  V30 1792 H 169.981 -1.1893 -2.7531 0
M  V30 1793 H 167.534 -0.654088 -1.41956 0
M  V30 1794 H 168.269 1.37612 -2.93655 0
M  V30 1795 H 168.054 -0.101047 -3.9197 0
M  V30 1796 H 169.544 0.875537 -4.08319 0
M  V30 1797 N 169.982 1.44106 -0.638065 0
M  V30 1798 C 171.259 1.95453 -0.0759321 0
M  V30 1799 C 171.639 1.57984 1.40015 0
M  V30 1800 O 170.987 0.857361 2.11806 0
M  V30 1801 C 171.197 3.47655 -0.306132 0
M  V30 1802 C 172.545 4.24114 -0.203008 0
M  V30 1803 O 173.569 3.55405 -0.237871 0
M  V30 1804 O 172.428 5.46381 -0.113827 0
M  V30 1805 H 169.522 0.826797 0.0183332 0
M  V30 1806 H 172.068 1.54122 -0.710251 0
M  V30 1807 H 170.84 3.68 -1.3301 0
M  V30 1808 H 170.463 3.95949 0.361991 0
M  V30 1809 N 171.46 0.379036 1.52974 0
M  V30 1810 C 172.876 0.0285448 1.59574 0
M  V30 1811 C 173.076 -1.45542 1.39355 0
M  V30 1812 O 172.132 -2.2187 1.20541 0
M  V30 1813 C 173.445 0.496535 2.96572 0
M  V30 1814 C 174.993 0.451909 3.0972 0
M  V30 1815 C 175.468 0.895924 4.49152 0
M  V30 1816 N 176.959 0.851522 4.55306 0
M  V30 1817 C 177.694 1.16661 5.61407 0
M  V30 1818 N 177.19 1.55166 6.752 0
M  V30 1819 N 178.983 1.08853 5.51459 0
M  V30 1820 H 171.134 1.34525 1.64367 0
M  V30 1821 H 173.397 0.550733 0.771619 0
M  V30 1822 H 173.103 1.53258 3.16552 0
M  V30 1823 H 172.977 -0.109802 3.7704 0
M  V30 1824 H 175.364 -0.575029 2.89443 0
M  V30 1825 H 175.445 1.09392 2.3123 0
M  V30 1826 H 175.089 1.92104 4.70168 0
M  V30 1827 H 175.019 0.23103 5.26093 0
M  V30 1828 H 177.51 0.568038 3.73606 0
M  V30 1829 H 177.823 1.776 7.52116 0
M  V30 1830 H 176.168 1.59044 6.76557 0
M  V30 1831 H 179.359 0.786803 4.6144 0
M  V30 1832 H 179.532 1.33742 6.34048 0
M  V30 1833 N 172.938 -1.57226 0.108567 0
M  V30 1834 C 174.349 -1.8195 -0.418464 0
M  V30 1835 C 174.7 -1.02508 -1.67292 0
M  V30 1836 O 173.825 -0.258496 -2.14851 0
M  V30 1837 C 174.42 -3.30028 -0.765979 0
M  V30 1838 C 172.979 -3.55469 -1.23769 0
M  V30 1839 C 172.126 -2.7625 -0.241106 0
M  V30 1840 H 175.077 -1.55149 0.33384 0
M  V30 1841 H 175.098 -3.44086 -1.62434 0
M  V30 1842 H 174.61 -3.87821 0.147219 0
M  V30 1843 H 172.711 -3.03022 -2.16814 0
M  V30 1844 H 172.824 -4.6408 -1.19022 0
M  V30 1845 H 171.188 -2.44133 -0.72602 0
M  V30 1846 H 171.971 -3.36797 0.665007 0
M  V30 1847 N 174.416 0.165178 -1.56732 0
M  V30 1848 C 175.379 1.18822 -1.95995 0
M  V30 1849 C 176.379 1.3685 -0.84431 0
M  V30 1850 O 177.569 1.34152 -1.11126 0
M  V30 1851 C 174.701 2.5521 -2.26011 0
M  V30 1852 H 175.894 0.851825 -2.87548 0
M  V30 1853 H 173.447 0.407857 -1.50885 0
M  V30 1854 H 174.182 2.93852 -1.37191 0
M  V30 1855 H 173.967 2.43489 -3.07336 0
M  V30 1856 H 175.457 3.28927 -2.57288 0
M  V30 1857 N 175.894 1.51508 0.433938 0
M  V30 1858 C 177.141 1.64345 1.18309 0
M  V30 1859 C 177.469 0.361315 1.91115 0
M  V30 1860 O 176.724 -0.654753 1.84422 0
M  V30 1861 C 177.023 2.79928 2.22205 0
M  V30 1862 C 176.689 4.19078 1.66387 0
M  V30 1863 C 175.351 4.56932 1.50887 0
M  V30 1864 C 177.703 5.05894 1.25381 0
M  V30 1865 C 175.031 5.79305 0.928608 0
M  V30 1866 C 177.383 6.2885 0.687823 0
M  V30 1867 C 176.047 6.65473 0.519755 0
M  V30 1868 H 175.317 0.601381 0.432923 0
M  V30 1869 H 177.964 1.85549 0.473676 0
M  V30 1870 H 176.269 2.52959 2.99197 0
M  V30 1871 H 177.966 2.87059 2.79997 0
M  V30 1872 H 174.556 3.89234 1.79428 0
M  V30 1873 H 178.74 4.77253 1.36175 0
M  V30 1874 H 173.996 6.06324 0.786186 0
M  V30 1875 H 178.17 6.95461 0.361581 0
M  V30 1876 H 175.797 7.6017 0.0679979 0
M  V30 1877 N 177.372 -0.689602 1.41712 0
M  V30 1878 C 178.335 -1.78521 1.43746 0
M  V30 1879 C 179.335 -1.57436 0.327191 0
M  V30 1880 O 180.525 -1.64 0.587348 0
M  V30 1881 C 177.657 -3.16971 1.25467 0
M  V30 1882 H 178.85 -1.78108 2.41283 0
M  V30 1883 H 176.403 -0.89781 1.27942 0
M  V30 1884 H 177.138 -3.23019 0.287948 0
M  V30 1885 H 176.923 -3.33678 2.05917 0
M  V30 1886 H 178.413 -3.96935 1.2974 0
M  V30 1887 N 178.85 -1.27639 -0.924453 0
M  V30 1888 C 180.075 -1.17101 -1.71179 0
M  V30 1889 C 180.5 0.268134 -1.86179 0
M  V30 1890 O 179.858 1.19415 -1.36418 0
M  V30 1891 C 179.906 -1.86313 -3.08739 0
M  V30 1892 O 179.01 -1.16331 -3.95652 0
M  V30 1893 H 178.351 -0.407091 -0.524569 0
M  V30 1894 H 180.881 -1.68767 -1.15666 0
M  V30 1895 H 180.891 -1.938 -3.59034 0
M  V30 1896 H 179.566 -2.91001 -2.97138 0
M  V30 1897 H 178.143 -1.16935 -3.54091 0
M  V30 1898 N 180.328 1.1314 -1.09713 0
M  V30 1899 C 181.575 1.84484 -0.834987 0
M  V30 1900 C 181.903 1.83689 0.639418 0
M  V30 1901 O 181.158 1.2724 1.4869 0
M  V30 1902 C 181.457 3.32167 -1.3191 0
M  V30 1903 C 181.123 3.53139 -2.80363 0
M  V30 1904 C 179.785 3.58571 -3.20905 0
M  V30 1905 C 182.137 3.60866 -3.76065 0
M  V30 1906 C 179.465 3.69267 -4.55916 0
M  V30 1907 C 181.817 3.73089 -5.10869 0
M  V30 1908 C 180.481 3.76775 -5.50996 0
M  V30 1909 H 179.751 0.675073 -0.305544 0
M  V30 1910 H 182.398 1.33554 -1.37243 0
M  V30 1911 H 180.703 3.85469 -0.701517 0
M  V30 1912 H 182.4 3.85821 -1.09284 0
M  V30 1913 H 178.99 3.49569 -2.47991 0
M  V30 1914 H 183.174 3.55946 -3.45855 0
M  V30 1915 H 178.43 3.70388 -4.86438 0
M  V30 1916 H 182.604 3.78011 -5.84877 0
M  V30 1917 H 180.231 3.84815 -6.55608 0
M  V30 1918 N 181.806 0.884767 1.30421 0
M  V30 1919 C 183.222 0.57874 1.48737 0
M  V30 1920 C 183.422 -0.883567 1.81095 0
M  V30 1921 O 182.478 -1.6648 1.89844 0
M  V30 1922 C 183.791 1.49171 2.61091 0
M  V30 1923 C 185.339 1.49532 2.74971 0
M  V30 1924 C 185.814 2.39421 3.90438 0
M  V30 1925 N 187.305 2.37383 3.97748 0
M  V30 1926 C 188.04 3.03647 4.86401 0
M  V30 1927 N 187.536 3.79136 5.79852 0
M  V30 1928 N 189.329 2.9288 4.79768 0
M  V30 1929 H 181.48 1.83075 1.0769 0
M  V30 1930 H 183.743 0.783637 0.533495 0
M  V30 1931 H 183.449 2.53291 2.44001 0
M  V30 1932 H 183.323 1.20113 3.57565 0
M  V30 1933 H 185.71 0.46163 2.91467 0
M  V30 1934 H 185.791 1.8262 1.79119 0
M  V30 1935 H 185.435 3.42874 3.74699 0
M  V30 1936 H 185.365 2.03649 4.85628 0
M  V30 1937 H 187.856 1.82525 3.30897 0
M  V30 1938 H 188.169 4.26789 6.4426 0
M  V30 1939 H 186.514 3.83243 5.79784 0
M  V30 1940 H 189.705 2.33433 4.05742 0
M  V30 1941 H 189.878 3.448 5.4865 0
M  V30 1942 N 183.284 -1.43765 0.645699 0
M  V30 1943 C 184.53 -2.02197 0.156271 0
M  V30 1944 C 184.863 -1.50776 -1.22393 0
M  V30 1945 O 184.138 -0.697771 -1.81553 0
M  V30 1946 C 184.421 -3.59749 0.158872 0
M  V30 1947 C 184.274 -4.21419 1.57245 0
M  V30 1948 C 185.593 -4.37149 -0.50879 0
M  V30 1949 H 182.712 -0.734694 0.0582602 0
M  V30 1950 H 185.354 -1.71157 0.824951 0
M  V30 1951 H 183.504 -3.86325 -0.410525 0
M  V30 1952 H 185.176 -4.059 2.19186 0
M  V30 1953 H 183.419 -3.78356 2.122 0
M  V30 1954 H 184.09 -5.30482 1.52619 0
M  V30 1955 H 186.566 -4.16093 -0.024412 0
M  V30 1956 H 185.442 -5.4683 -0.476213 0
M  V30 1957 H 185.703 -4.12839 -1.58165 0
M  V30 1958 N 184.763 -0.387143 -1.52771 0
M  V30 1959 C 186.009 0.196025 -2.0185 0
M  V30 1960 C 186.342 1.46641 -1.27319 0
M  V30 1961 O 185.617 1.90889 -0.373032 0
M  V30 1962 C 185.9 0.466136 -3.5707 0
M  V30 1963 C 185.753 -0.819385 -4.42274 0
M  V30 1964 C 187.072 1.25768 -4.21747 0
M  V30 1965 H 184.191 0.0697708 -0.73369 0
M  V30 1966 H 186.833 -0.516286 -1.82851 0
M  V30 1967 H 184.983 1.07293 -3.7339 0
M  V30 1968 H 186.655 -1.4563 -4.37709 0
M  V30 1969 H 184.898 -1.43517 -4.09372 0
M  V30 1970 H 185.569 -0.585065 -5.48891 0
M  V30 1971 H 188.045 0.744167 -4.09391 0
M  V30 1972 H 186.921 1.41541 -5.30337 0
M  V30 1973 H 187.182 2.27228 -3.79236 0
M  V30 1974 N 186.241 1.57166 -0.116904 0
M  V30 1975 C 187.466 1.999 0.55271 0
M  V30 1976 C 187.891 0.996039 1.59564 0
M  V30 1977 O 187.249 -0.032556 1.81271 0
M  V30 1978 C 187.297 3.4152 1.15742 0
M  V30 1979 O 186.401 3.44106 2.27299 0
M  V30 1980 H 185.742 0.649447 0.138258 0
M  V30 1981 H 188.272 2.03573 -0.204759 0
M  V30 1982 H 188.282 3.79684 1.49346 0
M  V30 1983 H 186.957 4.14034 0.393493 0
M  V30 1984 H 185.534 3.17759 1.9515 0
M  V30 1985 N 187.719 -0.156864 1.56817 0
M  V30 1986 C 188.967 -0.869404 1.82444 0
M  V30 1987 C 189.288 -1.82147 0.69623 0
M  V30 1988 O 188.558 -1.93847 -0.28287 0
M  V30 1989 H 187.138 -0.324043 0.673056 0
M  V30 1990 H 189.8 -0.153224 1.94297 0
M  V30 1991 H 188.896 -1.43761 2.77019 0
M  V30 1992 N 189.197 -1.51736 -0.425897 0
M  V30 1993 C 190.445 -1.64644 -1.17204 0
M  V30 1994 C 190.766 -0.370486 -1.91448 0
M  V30 1995 O 190.036 0.614088 -1.86026 0
M  V30 1996 H 188.616 -0.606819 -0.435638 0
M  V30 1997 H 191.278 -1.88713 -0.487177 0
M  V30 1998 H 190.374 -2.47958 -1.89534 0
M  V30 1999 N 190.675 0.682077 -1.42076 0
M  V30 2000 C 192.091 0.994324 -1.24841 0
M  V30 2001 C 192.291 2.0096 -0.147389 0
M  V30 2002 O 191.347 2.47822 0.483782 0
M  V30 2003 C 192.66 1.50607 -2.60265 0
M  V30 2004 C 194.208 1.62421 -2.6756 0
M  V30 2005 C 194.683 2.16994 -4.03333 0
M  V30 2006 N 196.174 2.24337 -4.0525 0
M  V30 2007 C 196.909 2.67621 -5.07116 0
M  V30 2008 N 196.405 3.1041 -6.19368 0
M  V30 2009 N 198.198 2.67305 -4.94474 0
M  V30 2010 H 190.349 0.00973908 -2.12398 0
M  V30 2011 H 192.612 0.0668593 -0.945639 0
M  V30 2012 H 192.318 0.834583 -3.41654 0
M  V30 2013 H 192.192 2.48602 -2.83684 0
M  V30 2014 H 194.579 2.28678 -1.86521 0
M  V30 2015 H 194.66 0.629352 -2.47937 0
M  V30 2016 H 194.304 1.51349 -4.84826 0
M  V30 2017 H 194.234 3.17258 -4.20304 0
M  V30 2018 H 196.725 1.94158 -3.24209 0
M  V30 2019 H 197.038 3.42103 -6.92954 0
M  V30 2020 H 195.383 3.08286 -6.22884 0
M  V30 2021 H 198.574 2.33233 -4.05857 0
M  V30 2022 H 198.747 3.00718 -5.73997 0
M  V30 2023 N 192.153 1.28127 0.917671 0
M  V30 2024 C 193.378 1.18007 1.70555 0
M  V30 2025 C 193.803 -0.258257 1.86319 0
M  V30 2026 O 193.161 -1.1869 1.37049 0
M  V30 2027 C 193.209 1.87948 3.07746 0
M  V30 2028 O 192.313 1.18427 3.9503 0
M  V30 2029 H 191.654 0.409867 0.522403 0
M  V30 2030 H 194.184 1.69379 1.1477 0
M  V30 2031 H 194.194 1.95701 3.58001 0
M  V30 2032 H 192.869 2.92573 2.95591 0
M  V30 2033 H 191.446 1.18811 3.53466 0
M  V30 2034 N 193.631 -1.12557 1.10312 0
M  V30 2035 C 194.564 -2.1737 0.694674 0
M  V30 2036 C 195.542 -1.59745 -0.303373 0
M  V30 2037 O 196.726 -1.87408 -0.202578 0
M  V30 2038 C 193.853 -3.38691 0.0248052 0
M  V30 2039 C 192.899 -4.14943 0.986121 0
M  V30 2040 S 193.732 -4.73413 2.50281 0
M  V30 2041 C 194.888 -5.9807 1.84562 0
M  V30 2042 H 195.121 -2.5168 1.58255 0
M  V30 2043 H 192.654 -1.23998 0.919992 0
M  V30 2044 H 194.612 -4.08959 -0.355361 0
M  V30 2045 H 193.273 -3.02664 -0.839851 0
M  V30 2046 H 192.466 -5.01854 0.464651 0
M  V30 2047 H 192.068 -3.50377 1.30813 0
M  V30 2048 H 194.36 -6.67232 1.17507 0
M  V30 2049 H 195.303 -6.54841 2.69423 0
M  V30 2050 H 195.711 -5.49073 1.31069 0
M  V30 2051 N 195.109 -0.891671 -1.2995 0
M  V30 2052 C 196.072 -0.36828 -2.26222 0
M  V30 2053 C 197.072 0.493014 -1.53056 0
M  V30 2054 O 198.262 0.299213 -1.71611 0
M  V30 2055 C 195.394 0.47442 -3.37583 0
M  V30 2056 H 196.587 -1.21844 -2.74033 0
M  V30 2057 H 194.14 -0.669107 -1.41254 0
M  V30 2058 H 194.875 1.34489 -2.95099 0
M  V30 2059 H 194.66 -0.142615 -3.91841 0
M  V30 2060 H 196.15 0.83218 -4.09224 0
M  V30 2061 N 196.587 1.43421 -0.653314 0
M  V30 2062 C 197.834 2.01812 -0.166745 0
M  V30 2063 C 198.162 1.51535 1.21931 0
M  V30 2064 O 197.417 0.698975 1.82792 0
M  V30 2065 C 197.716 3.57176 -0.126623 0
M  V30 2066 C 197.382 4.26798 -1.45444 0
M  V30 2067 C 196.044 4.45534 -1.81805 0
M  V30 2068 C 198.396 4.66225 -2.32989 0
M  V30 2069 C 195.724 5.00961 -3.05377 0
M  V30 2070 C 198.076 5.23021 -3.55853 0
M  V30 2071 C 196.74 5.39973 -3.9241 0
M  V30 2072 H 196.01 0.738484 -0.0610162 0
M  V30 2073 H 198.657 1.71896 -0.84404 0
M  V30 2074 H 196.962 3.86634 0.634123 0
M  V30 2075 H 198.659 4.00112 0.266723 0
M  V30 2076 H 195.249 4.12561 -1.16153 0
M  V30 2077 H 199.433 4.51443 -2.06187 0
M  V30 2078 H 194.689 5.12271 -3.3375 0
M  V30 2079 H 198.863 5.52518 -4.23907 0
M  V30 2080 H 196.49 5.82687 -4.88242 0
M  V30 2081 N 198.065 0.39524 1.52563 0
M  V30 2082 C 199.313 -0.184678 2.01254 0
M  V30 2083 C 199.634 -1.46822 1.28329 0
M  V30 2084 O 198.904 -1.91666 0.405094 0
M  V30 2085 H 197.484 -0.0712355 0.743596 0
M  V30 2086 H 200.146 0.528293 1.87603 0
M  V30 2087 H 199.242 -0.390681 3.09645 0
M  V30 2088 N 199.544 -1.57102 0.125237 0
M  V30 2089 C 200.494 -2.12202 -0.833936 0
M  V30 2090 C 201.478 -1.04433 -1.22403 0
M  V30 2091 O 202.67 -1.30655 -1.19408 0
M  V30 2092 C 199.799 -2.72994 -2.08157 0
M  V30 2093 C 198.885 -3.87852 -1.71556 0
M  V30 2094 N 199.276 -4.9464 -1.05662 0
M  V30 2095 C 197.574 -3.98153 -2.00973 0
M  V30 2096 C 198.275 -5.74953 -0.883376 0
M  V30 2097 N 197.251 -5.24985 -1.41036 0
M  V30 2098 H 201.053 -2.92141 -0.321035 0
M  V30 2099 H 198.567 -1.62217 -0.0770315 0
M  V30 2100 H 200.564 -3.10816 -2.77847 0
M  V30 2101 H 199.224 -1.9452 -2.59985 0
M  V30 2102 H 200.235 -5.12872 -0.719878 0
M  V30 2103 H 196.912 -3.30728 -2.54804 0
M  V30 2104 H 198.302 -6.70904 -0.365675 0
M  V30 2105 N 201.022 0.148545 -1.56898 0
M  V30 2106 C 202.252 0.875118 -1.8715 0
M  V30 2107 C 202.66 1.75322 -0.711262 0
M  V30 2108 O 202.003 1.80745 0.328151 0
M  V30 2109 C 202.065 1.7844 -3.12089 0
M  V30 2110 C 201.729 1.08361 -4.43967 0
M  V30 2111 C 202.726 0.438247 -5.1805 0
M  V30 2112 C 200.411 1.07358 -4.90693 0
M  V30 2113 C 202.405 -0.20779 -6.37061 0
M  V30 2114 C 200.092 0.42373 -6.09629 0
M  V30 2115 C 201.09 -0.215829 -6.82659 0
M  V30 2116 O 200.778 -0.855378 -7.99336 0
M  V30 2117 H 200.51 0.258504 -0.624621 0
M  V30 2118 H 203.064 0.14652 -2.04877 0
M  V30 2119 H 201.294 2.55389 -2.90367 0
M  V30 2120 H 202.983 2.38279 -3.286 0
M  V30 2121 H 203.749 0.437817 -4.8302 0
M  V30 2122 H 199.628 1.5608 -4.33774 0
M  V30 2123 H 203.172 -0.70758 -6.94002 0
M  V30 2124 H 199.069 0.421822 -6.4412 0
M  V30 2125 H 199.837 -0.756892 -8.14993 0
M  V30 2126 N 202.5 1.5196 0.417844 0
M  V30 2127 C 203.725 1.69717 1.1921 0
M  V30 2128 C 204.15 0.402148 1.83751 0
M  V30 2129 O 203.508 -0.639593 1.69643 0
M  V30 2130 C 203.556 2.82794 2.2374 0
M  V30 2131 O 202.66 2.47756 3.29683 0
M  V30 2132 H 202.001 0.565263 0.348387 0
M  V30 2133 H 204.531 1.98621 0.490985 0
M  V30 2134 H 204.541 3.07452 2.68212 0
M  V30 2135 H 203.216 3.76756 1.76146 0
M  V30 2136 H 201.793 2.33739 2.90552 0
M  V30 2137 N 203.978 -0.674533 1.42435 0
M  V30 2138 C 204.888 -1.81751 1.48337 0
M  V30 2139 C 205.904 -1.69975 0.372099 0
M  V30 2140 O 207.08 -1.91521 0.62304 0
M  V30 2141 C 204.145 -3.17895 1.38361 0
M  V30 2142 C 203.206 -3.41625 2.59982 0
M  V30 2143 C 202.439 -4.71274 2.50473 0
M  V30 2144 O 202.662 -5.49197 1.54075 0
M  V30 2145 O 201.596 -4.96254 3.4061 0
M  V30 2146 H 205.422 -1.79728 2.44809 0
M  V30 2147 H 203.007 -0.830312 1.24202 0
M  V30 2148 H 204.889 -3.99136 1.35161 0
M  V30 2149 H 203.564 -3.20555 0.450144 0
M  V30 2150 H 202.471 -2.60231 2.68757 0
M  V30 2151 H 203.804 -3.43796 3.52229 0
M  V30 2152 N 205.456 -1.28612 -0.910864 0
M  V30 2153 C 206.406 -1.09423 -2.00026 0
M  V30 2154 C 207.39 -0.0170079 -1.60891 0
M  V30 2155 O 208.582 -0.237472 -1.754 0
M  V30 2156 C 205.711 -0.76114 -3.34756 0
M  V30 2157 C 204.797 -1.87735 -3.80285 0
M  V30 2158 N 205.188 -3.11938 -3.98156 0
M  V30 2159 C 203.486 -1.76786 -4.09467 0
M  V30 2160 C 204.187 -3.84687 -4.36338 0
M  V30 2161 N 203.163 -3.12555 -4.44759 0
M  V30 2162 H 206.965 -2.03658 -2.11898 0
M  V30 2163 H 204.479 -1.19573 -1.09891 0
M  V30 2164 H 206.476 -0.604743 -4.12491 0
M  V30 2165 H 205.136 0.173403 -3.24237 0
M  V30 2166 H 206.147 -3.47516 -3.83996 0
M  V30 2167 H 202.824 -0.905284 -4.07567 0
M  V30 2168 H 204.214 -4.91518 -4.58104 0
M  V30 2169 N 206.934 1.1197 -1.10907 0
M  V30 2170 C 208.18 1.84059 -0.865674 0
M  V30 2171 C 208.535 1.82731 0.602254 0
M  V30 2172 O 207.828 1.26543 1.43866 0
M  V30 2173 C 208.022 3.30749 -1.35425 0
M  V30 2174 C 207.851 3.46363 -2.86815 0
M  V30 2175 C 206.621 3.59712 -3.54874 0
M  V30 2176 C 208.819 3.41116 -3.84895 0
M  V30 2177 N 206.801 3.63741 -4.94536 0
M  V30 2178 C 208.172 3.51698 -5.10596 0
M  V30 2179 C 210.227 3.24612 -3.77533 0
M  V30 2180 C 208.93 3.4748 -6.29802 0
M  V30 2181 C 210.956 3.21708 -4.96244 0
M  V30 2182 C 210.318 3.32856 -6.20795 0
M  V30 2183 H 206.417 0.689015 -0.369841 0
M  V30 2184 H 209.001 1.34016 -1.41237 0
M  V30 2185 H 207.172 3.79322 -0.834814 0
M  V30 2186 H 208.904 3.90718 -1.05458 0
M  V30 2187 H 205.659 3.62038 -3.05329 0
M  V30 2188 H 206.083 3.69408 -5.67333 0
M  V30 2189 H 210.725 3.14883 -2.8215 0
M  V30 2190 H 208.443 3.55978 -7.25469 0
M  V30 2191 H 212.029 3.10113 -4.92261 0
M  V30 2192 H 210.909 3.3059 -7.11112 0
M  V30 2193 N 208.412 0.89855 1.29475 0
M  V30 2194 C 209.359 0.373819 2.27753 0
M  V30 2195 C 210.329 -0.543444 1.56958 0
M  V30 2196 O 211.514 -0.468934 1.84948 0
M  V30 2197 C 208.654 -0.393648 3.42848 0
M  V30 2198 C 207.767 0.554379 4.28428 0
M  V30 2199 C 206.902 -0.230026 5.30702 0
M  V30 2200 C 205.941 0.712599 6.07938 0
M  V30 2201 N 205.078 -0.0373283 7.0209 0
M  V30 2202 H 209.918 1.21699 2.72017 0
M  V30 2203 H 207.455 0.611456 1.33789 0
M  V30 2204 H 209.413 -0.85466 4.08352 0
M  V30 2205 H 208.043 -1.20128 2.99615 0
M  V30 2206 H 207.095 1.13391 3.63107 0
M  V30 2207 H 208.407 1.27597 4.82204 0
M  V30 2208 H 207.561 -0.752288 6.02018 0
M  V30 2209 H 206.3 -0.984758 4.77654 0
M  V30 2210 H 205.305 1.24637 5.35486 0
M  V30 2211 H 206.53 1.46664 6.63074 0
M  V30 2212 H 204.476 -0.774348 6.51414 0
M  V30 2213 H 204.393 0.624374 7.53417 0
M  V30 2214 H 205.661 -0.539891 7.77628 0
M  V30 2215 N 209.89 -1.43072 0.660911 0
M  V30 2216 C 211.136 -2.0202 0.177708 0
M  V30 2217 C 211.469 -1.52066 -1.20787 0
M  V30 2218 O 210.744 -0.716987 -1.80802 0
M  V30 2219 C 211.027 -3.59561 0.197019 0
M  V30 2220 C 210.88 -4.19727 1.61706 0
M  V30 2221 C 212.199 -4.37664 -0.462396 0
M  V30 2222 H 209.318 -0.734034 0.0660494 0
M  V30 2223 H 211.96 -1.70272 0.843058 0
M  V30 2224 H 210.11 -3.86739 -0.369527 0
M  V30 2225 H 211.782 -4.03553 2.23479 0
M  V30 2226 H 210.025 -3.76084 2.16201 0
M  V30 2227 H 210.696 -5.28834 1.58237 0
M  V30 2228 H 213.172 -4.16095 0.0197215 0
M  V30 2229 H 212.048 -5.47305 -0.418188 0
M  V30 2230 H 212.309 -4.14493 -1.53778 0
M  V30 2231 N 211.368 -0.403325 -1.52352 0
M  V30 2232 C 212.3 0.4603 -2.2453 0
M  V30 2233 C 213.313 1.01505 -1.27282 0
M  V30 2234 O 214.502 0.914982 -1.53266 0
M  V30 2235 C 211.602 1.65208 -2.95905 0
M  V30 2236 C 210.775 1.22224 -4.19976 0
M  V30 2237 C 209.834 2.28028 -4.74226 0
M  V30 2238 O 208.86 1.88857 -5.36956 0
M  V30 2239 N 210.062 3.6012 -4.55295 0
M  V30 2240 H 212.827 -0.158156 -2.99282 0
M  V30 2241 H 210.388 -0.230402 -1.60252 0
M  V30 2242 H 212.38 2.35541 -3.29093 0
M  V30 2243 H 210.95 2.17658 -2.24374 0
M  V30 2244 H 210.17 0.34725 -3.92668 0
M  V30 2245 H 211.458 0.911924 -5.00561 0
M  V30 2246 H 210.856 3.94698 -4.05253 0
M  V30 2247 H 209.413 4.26447 -4.92936 0
M  V30 2248 N 212.846 1.57033 -0.133567 0
M  V30 2249 C 214.262 1.58035 0.222944 0
M  V30 2250 C 214.462 1.14713 1.6566 0
M  V30 2251 O 213.518 0.841218 2.38075 0
M  V30 2252 C 214.831 3.00691 -0.0236116 0
M  V30 2253 C 216.379 3.12973 0.0411512 0
M  V30 2254 C 216.854 4.57654 -0.177899 0
M  V30 2255 N 218.345 4.63033 -0.124365 0
M  V30 2256 C 219.08 5.72771 -0.268553 0
M  V30 2257 N 218.576 6.91206 -0.46972 0
M  V30 2258 N 220.369 5.61718 -0.2071 0
M  V30 2259 H 212.52 1.8349 -1.06981 0
M  V30 2260 H 214.783 0.848677 -0.422436 0
M  V30 2261 H 214.489 3.36726 -1.0153 0
M  V30 2262 H 214.363 3.70614 0.701808 0
M  V30 2263 H 216.75 2.76787 1.02338 0
M  V30 2264 H 216.831 2.45564 -0.716383 0
M  V30 2265 H 216.475 4.94542 -1.15717 0
M  V30 2266 H 216.405 5.23173 0.599797 0
M  V30 2267 H 218.896 3.7789 0.027011 0
M  V30 2268 H 219.209 7.70693 -0.570212 0
M  V30 2269 H 217.554 6.93156 -0.505876 0
M  V30 2270 H 220.745 4.68072 -0.0507986 0
M  V30 2271 H 220.918 6.47195 -0.322909 0
M  V30 2272 N 214.325 -0.140222 1.56975 0
M  V30 2273 C 215.741 -0.493088 1.51792 0
M  V30 2274 C 215.941 -1.83013 0.843116 0
M  V30 2275 O 214.997 -2.49041 0.416493 0
M  V30 2276 C 216.31 -0.497144 2.96562 0
M  V30 2277 C 217.858 -0.582186 3.07538 0
M  V30 2278 C 218.333 -0.616838 4.53827 0
M  V30 2279 N 219.824 -0.678873 4.58198 0
M  V30 2280 C 220.559 -0.726782 5.68775 0
M  V30 2281 N 220.055 -0.733623 6.88905 0
M  V30 2282 N 221.848 -0.768179 5.56826 0
M  V30 2283 H 213.999 0.736108 1.99237 0
M  V30 2284 H 216.262 0.269182 0.90898 0
M  V30 2285 H 215.968 0.417217 3.49217 0
M  V30 2286 H 215.842 -1.33263 3.52875 0
M  V30 2287 H 218.229 -1.48697 2.54899 0
M  V30 2288 H 218.31 0.280581 2.54257 0
M  V30 2289 H 217.954 0.283812 5.07106 0
M  V30 2290 H 217.884 -1.49619 5.04898 0
M  V30 2291 H 220.375 -0.68061 3.7172 0
M  V30 2292 H 220.688 -0.772215 7.68932 0
M  V30 2293 H 219.033 -0.701389 6.91452 0
M  V30 2294 H 222.224 -0.760051 4.61888 0
M  V30 2295 H 222.397 -0.80205 6.43017 0
M  V30 2296 N 215.803 -1.52179 -0.40978 0
M  V30 2297 C 216.766 -1.74853 -1.48186 0
M  V30 2298 C 217.766 -0.618417 -1.48433 0
M  V30 2299 O 218.956 -0.886286 -1.49969 0
M  V30 2300 C 216.088 -1.8303 -2.87598 0
M  V30 2301 H 217.281 -2.70559 -1.29374 0
M  V30 2302 H 214.834 -1.42586 -0.640233 0
M  V30 2303 H 215.569 -0.89236 -3.11781 0
M  V30 2304 H 215.354 -2.65187 -2.88822 0
M  V30 2305 H 216.844 -2.02316 -3.65319 0
M  V30 2306 N 217.281 0.66697 -1.42791 0
M  V30 2307 C 218.244 1.76211 -1.46568 0
M  V30 2308 C 219.244 1.56896 -0.352196 0
M  V30 2309 O 220.434 1.63044 -0.613364 0
M  V30 2310 C 217.566 3.14935 -1.30494 0
M  V30 2311 H 218.759 1.74247 -2.44086 0
M  V30 2312 H 216.312 0.877342 -1.29354 0
M  V30 2313 H 217.047 3.2252 -0.339301 0
M  V30 2314 H 216.832 3.30359 -2.11199 0
M  V30 2315 H 218.322 3.94821 -1.36038 0
M  V30 2316 N 218.759 1.29093 0.90403 0
M  V30 2317 C 219.709 1.10482 1.99443 0
M  V30 2318 C 220.693 0.0255401 1.6088 0
M  V30 2319 O 221.885 0.24677 1.75271 0
M  V30 2320 C 219.014 0.778882 3.34348 0
M  V30 2321 C 218.1 1.89749 3.79284 0
M  V30 2322 N 218.491 3.14045 3.96497 0
M  V30 2323 C 216.789 1.78955 4.08523 0
M  V30 2324 C 217.49 3.86996 4.34292 0
M  V30 2325 N 216.466 3.14909 4.43095 0
M  V30 2326 H 220.268 2.04778 2.10815 0
M  V30 2327 H 217.782 1.20155 1.09255 0
M  V30 2328 H 219.779 0.62661 4.12164 0
M  V30 2329 H 218.439 -0.156205 3.24324 0
M  V30 2330 H 219.45 3.49548 3.82148 0
M  V30 2331 H 216.127 0.926886 4.07081 0
M  V30 2332 H 217.517 4.93941 4.55491 0
M  V30 2333 N 220.237 -1.11381 1.11499 0
M  V30 2334 C 221.462 -1.87475 0.887019 0
M  V30 2335 C 221.887 -1.79639 -0.557796 0
M  V30 2336 O 221.245 -1.15924 -1.39396 0
M  V30 2337 C 221.293 -3.34213 1.35403 0
M  V30 2338 O 220.397 -4.0903 0.526146 0
M  V30 2339 H 219.738 -0.582099 0.319463 0
M  V30 2340 H 222.268 -1.40785 1.48461 0
M  V30 2341 H 222.278 -3.8506 1.34881 0
M  V30 2342 H 220.953 -3.39232 2.40612 0
M  V30 2343 H 219.53 -3.68082 0.597522 0
M  V30 2344 N 221.715 -0.905404 -1.28997 0
M  V30 2345 C 222.648 -0.331959 -2.25773 0
M  V30 2346 C 223.626 0.559099 -1.52685 0
M  V30 2347 O 224.81 0.50463 -1.8162 0
M  V30 2348 C 221.937 0.526276 -3.34586 0
M  V30 2349 C 220.983 -0.298249 -4.25456 0
M  V30 2350 S 221.816 -1.69968 -5.0781 0
M  V30 2351 C 222.972 -0.848519 -6.20122 0
M  V30 2352 H 223.205 -1.15222 -2.74064 0
M  V30 2353 H 220.738 -0.706112 -1.37308 0
M  V30 2354 H 222.696 1.01565 -3.97737 0
M  V30 2355 H 221.357 1.32084 -2.84978 0
M  V30 2356 H 220.55 0.357607 -5.0273 0
M  V30 2357 H 220.152 -0.720968 -3.66985 0
M  V30 2358 H 222.444 -0.0744325 -6.77459 0
M  V30 2359 H 223.387 -1.59353 -6.89937 0
M  V30 2360 H 223.795 -0.400383 -5.63078 0
M  V30 2361 N 223.193 1.4272 -0.668489 0
M  V30 2362 C 224.126 2.28111 0.0637898 0
M  V30 2363 C 225.104 1.40705 0.814912 0
M  V30 2364 O 226.288 1.70146 0.81134 0
M  V30 2365 C 223.415 3.20429 1.0974 0
M  V30 2366 C 222.461 4.24197 0.442579 0
M  V30 2367 S 223.294 5.29563 -0.795173 0
M  V30 2368 C 224.45 6.25449 0.237516 0
M  V30 2369 H 224.683 2.8987 -0.660521 0
M  V30 2370 H 222.216 1.47456 -0.457821 0
M  V30 2371 H 224.174 3.74158 1.68868 0
M  V30 2372 H 222.835 2.57818 1.79411 0
M  V30 2373 H 222.028 4.88954 1.22227 0
M  V30 2374 H 221.63 3.73925 -0.0749554 0
M  V30 2375 H 223.922 6.68524 1.09915 0
M  V30 2376 H 224.865 7.07104 -0.375421 0
M  V30 2377 H 225.273 5.61511 0.580167 0
M  V30 2378 N 224.671 0.411399 1.52136 0
M  V30 2379 C 226.087 0.0623865 1.59478 0
M  V30 2380 C 226.287 -1.42554 1.4241 0
M  V30 2381 O 225.343 -2.19263 1.2522 0
M  V30 2382 C 226.656 0.559331 2.95452 0
M  V30 2383 C 228.204 0.517503 3.08692 0
M  V30 2384 C 228.679 0.990994 4.4715 0
M  V30 2385 N 230.17 0.947908 4.53397 0
M  V30 2386 C 230.905 1.28544 5.58806 0
M  V30 2387 N 230.401 1.69454 6.71757 0
M  V30 2388 N 232.194 1.20526 5.49026 0
M  V30 2389 H 224.345 1.37982 1.61477 0
M  V30 2390 H 226.608 0.566977 0.759764 0
M  V30 2391 H 226.314 1.59938 3.1323 0
M  V30 2392 H 226.188 -0.0298014 3.77188 0
M  V30 2393 H 228.575 -0.513505 2.90598 0
M  V30 2394 H 228.656 1.14272 2.28857 0
M  V30 2395 H 228.3 2.02034 4.65988 0
M  V30 2396 H 228.23 0.34257 5.25485 0
M  V30 2397 H 230.721 0.647157 3.72317 0
M  V30 2398 H 231.034 1.93513 7.48179 0
M  V30 2399 H 229.379 1.73359 6.73032 0
M  V30 2400 H 232.57 0.884505 4.59667 0
M  V30 2401 H 232.743 1.47161 6.31069 0
M  V30 2402 N 226.149 -1.5696 0.141893 0
M  V30 2403 C 227.097 -2.17784 -0.816874 0
M  V30 2404 C 228.091 -1.1334 -1.25899 0
M  V30 2405 O 229.297 -1.316 -1.22806 0
M  V30 2406 H 225.672 -0.697278 -0.281615 0
M  V30 2407 H 227.643 -2.97087 -0.279621 0
M  V30 2408 C 226.392 -2.80983 -2.04802 0
M  V30 2409 H 225.715 -3.61062 -1.7168 0
M  V30 2410 H 227.155 -3.2705 -2.69841 0
M  V30 2411 C 225.614 -1.79228 -2.8527 0
M  V30 2412 O 226.144 -1.25962 -3.8144 0
M  V30 2413 N 224.35 -1.48647 -2.49704 0
M  V30 2414 H 223.897 -1.92155 -1.71564 0
M  V30 2415 H 223.855 -0.808115 -3.03837 0
M  V30 2416 N 227.627 0.131896 -1.57047 0
M  V30 2417 C 228.874 0.841932 -1.84168 0
M  V30 2418 C 229.202 1.8048 -0.725066 0
M  V30 2419 O 228.457 1.93618 0.284692 0
M  V30 2420 C 228.756 1.63703 -3.17704 0
M  V30 2421 C 228.422 0.81961 -4.43388 0
M  V30 2422 C 227.084 0.594148 -4.77518 0
M  V30 2423 C 229.436 0.248977 -5.20605 0
M  V30 2424 C 226.764 -0.212409 -5.86315 0
M  V30 2425 C 229.116 -0.544701 -6.30251 0
M  V30 2426 C 227.78 -0.780599 -6.6292 0
M  V30 2427 H 227.05 0.308085 -0.673917 0
M  V30 2428 H 229.697 0.104867 -1.91213 0
M  V30 2429 H 228.002 2.44464 -3.06177 0
M  V30 2430 H 229.699 2.19015 -3.35907 0
M  V30 2431 H 226.289 1.00542 -4.16641 0
M  V30 2432 H 230.473 0.410408 -4.946 0
M  V30 2433 H 225.729 -0.404524 -6.1006 0
M  V30 2434 H 229.903 -0.993922 -6.89271 0
M  V30 2435 H 227.53 -1.40742 -7.47058 0
M  V30 2436 N 229.106 1.52395 0.401703 0
M  V30 2437 C 230.353 1.66817 1.14796 0
M  V30 2438 C 230.681 0.401772 1.90305 0
M  V30 2439 O 229.936 -0.615487 1.85769 0
M  V30 2440 C 230.235 2.84578 2.16217 0
M  V30 2441 C 229.901 4.22513 1.5746 0
M  V30 2442 C 228.563 4.60029 1.41161 0
M  V30 2443 C 230.915 5.0844 1.14622 0
M  V30 2444 C 228.243 5.81144 0.80552 0
M  V30 2445 C 230.595 6.30167 0.55428 0
M  V30 2446 C 229.259 6.66426 0.378482 0
M  V30 2447 H 228.529 0.610428 0.420069 0
M  V30 2448 H 231.176 1.86512 0.434212 0
M  V30 2449 H 229.481 2.59248 2.93764 0
M  V30 2450 H 231.178 2.92933 2.73845 0
M  V30 2451 H 227.768 3.92953 1.71132 0
M  V30 2452 H 231.952 4.80034 1.26021 0
M  V30 2453 H 227.208 6.07855 0.657399 0
M  V30 2454 H 231.382 6.96071 0.213983 0
M  V30 2455 H 229.009 7.60143 -0.0932606 0
M  V30 2456 N 230.584 -0.659388 1.43143 0
M  V30 2457 C 231.812 -1.44723 1.47861 0
M  V30 2458 C 232.227 -1.88563 0.0945886 0
M  V30 2459 O 231.584 -1.59108 -0.893915 0
M  V30 2460 C 231.635 -2.68627 2.41913 0
M  V30 2461 O 231.356 -2.26623 3.74932 0
M  V30 2462 C 232.857 -3.62045 2.55809 0
M  V30 2463 H 230.077 -0.444801 0.502387 0
M  V30 2464 H 232.621 -0.808916 1.87821 0
M  V30 2465 H 230.776 -3.28613 2.05164 0
M  V30 2466 H 231.19 -3.06745 4.2545 0
M  V30 2467 H 232.664 -4.45666 3.25708 0
M  V30 2468 H 233.141 -4.08981 1.60099 0
M  V30 2469 H 233.747 -3.07944 2.93344 0
M  V30 2470 N 232.062 -1.29571 -0.897171 0
M  V30 2471 C 233.478 -1.07637 -1.17841 0
M  V30 2472 C 233.678 0.170713 -2.00776 0
M  V30 2473 O 232.734 0.867768 -2.3712 0
M  V30 2474 C 234.047 -2.3332 -1.8969 0
M  V30 2475 C 235.595 -2.38664 -2.02505 0
M  V30 2476 C 236.07 -3.64157 -2.77765 0
M  V30 2477 N 237.561 -3.64894 -2.85318 0
M  V30 2478 C 238.296 -4.58679 -3.44094 0
M  V30 2479 N 237.792 -5.62799 -4.04017 0
M  V30 2480 N 239.585 -4.46245 -3.41793 0
M  V30 2481 H 231.736 -2.09598 -0.343883 0
M  V30 2482 H 233.999 -0.923333 -0.214848 0
M  V30 2483 H 233.705 -3.24262 -1.36187 0
M  V30 2484 H 233.579 -2.41025 -2.9015 0
M  V30 2485 H 235.966 -1.48208 -2.55183 0
M  V30 2486 H 236.047 -2.34943 -1.01171 0
M  V30 2487 H 235.691 -4.54965 -2.25763 0
M  V30 2488 H 235.621 -3.65137 -3.7945 0
M  V30 2489 H 238.112 -2.89613 -2.42761 0
M  V30 2490 H 238.425 -6.3048 -4.46895 0
M  V30 2491 H 236.77 -5.66605 -4.02472 0
M  V30 2492 H 239.961 -3.64094 -2.94199 0
M  V30 2493 H 240.134 -5.19518 -3.87304 0
M  V30 2494 N 233.54 1.10788 -1.12088 0
M  V30 2495 C 234.472 2.16816 -0.743213 0
M  V30 2496 C 235.485 1.6119 0.228412 0
M  V30 2497 O 236.674 1.78497 0.0102931 0
M  V30 2498 C 233.774 3.38809 -0.0787313 0
M  V30 2499 C 232.947 4.23885 -1.0789 0
M  V30 2500 C 232.006 5.24334 -0.442713 0
M  V30 2501 O 231.032 5.58497 -1.09864 0
M  V30 2502 N 232.234 5.75079 0.791457 0
M  V30 2503 H 234.999 2.49825 -1.65552 0
M  V30 2504 H 232.56 1.26373 -1.012 0
M  V30 2505 H 234.552 4.03107 0.358766 0
M  V30 2506 H 233.122 3.03805 0.736275 0
M  V30 2507 H 232.342 3.55939 -1.69414 0
M  V30 2508 H 233.63 4.77562 -1.75533 0
M  V30 2509 H 233.028 5.49517 1.3434 0
M  V30 2510 H 231.585 6.4118 1.17183 0
M  V30 2511 N 235.018 0.912232 1.28515 0
M  V30 2512 C 236.429 0.591352 1.77087 0
M  V30 2513 C 236.78 -0.8933 1.74684 0
M  V30 2514 O 235.905 -1.69876 1.34056 0
M  V30 2515 C 236.5 1.06668 3.2157 0
M  V30 2516 C 235.059 0.79675 3.67871 0
M  V30 2517 C 234.206 1.23427 2.48316 0
M  V30 2518 H 237.157 1.09365 1.15 0
M  V30 2519 H 237.178 0.407455 3.78312 0
M  V30 2520 H 236.69 2.14726 3.23287 0
M  V30 2521 H 234.791 -0.270679 3.71616 0
M  V30 2522 H 234.904 1.40343 4.58084 0
M  V30 2523 H 233.268 0.653036 2.46186 0
M  V30 2524 H 234.051 2.32316 2.52753 0
M  V30 2525 N 236.496 -1.42363 0.676048 0
M  V30 2526 C 237.912 -1.55811 0.345718 0
M  V30 2527 C 238.112 -1.65544 -1.14879 0
M  V30 2528 O 237.168 -1.62306 -1.93424 0
M  V30 2529 C 238.481 -2.80746 1.07713 0
M  V30 2530 C 240.029 -2.9452 1.05958 0
M  V30 2531 C 240.504 -4.22318 1.77233 0
M  V30 2532 N 241.995 -4.29233 1.74108 0
M  V30 2533 C 242.73 -5.26935 2.26113 0
M  V30 2534 N 242.226 -6.30783 2.86505 0
M  V30 2535 N 244.019 -5.18741 2.1648 0
M  V30 2536 H 236.17 -1.34289 1.6456 0
M  V30 2537 H 238.433 -0.646506 0.69335 0
M  V30 2538 H 238.139 -2.79696 2.13221 0
M  V30 2539 H 238.013 -3.71676 0.64316 0
M  V30 2540 H 240.4 -2.95097 0.0128255 0
M  V30 2541 H 240.481 -2.04817 1.53244 0
M  V30 2542 H 240.125 -4.22502 2.81877 0
M  V30 2543 H 240.055 -5.10958 1.27396 0
M  V30 2544 H 242.546 -3.54814 1.30059 0
M  V30 2545 H 242.859 -7.01691 3.23805 0
M  V30 2546 H 241.204 -6.31341 2.90575 0
M  V30 2547 H 244.395 -4.36533 1.68987 0
M  V30 2548 H 244.568 -5.94721 2.57316 0
M  V30 2549 N 237.974 -0.419461 -1.51915 0
M  V30 2550 C 239.199 0.154572 -2.06823 0
M  V30 2551 C 239.624 1.3722 -1.28656 0
M  V30 2552 O 238.982 1.78461 -0.319583 0
M  V30 2553 C 239.03 0.473172 -3.57482 0
M  V30 2554 O 238.134 1.56255 -3.81652 0
M  V30 2555 H 237.475 0.0096924 -0.663929 0
M  V30 2556 H 240.005 -0.595642 -1.95738 0
M  V30 2557 H 240.015 0.728825 -4.01438 0
M  V30 2558 H 238.69 -0.416873 -4.13805 0
M  V30 2559 H 237.267 1.29825 -3.49571 0
M  V30 2560 N 239.452 1.56882 -0.150215 0
M  V30 2561 C 240.868 1.58263 0.20617 0
M  V30 2562 C 241.068 1.16464 1.64434 0
M  V30 2563 O 240.124 0.866422 2.3717 0
M  V30 2564 C 241.437 3.00649 -0.0555025 0
M  V30 2565 C 242.985 3.12999 0.00795388 0
M  V30 2566 C 243.46 4.5744 -0.226429 0
M  V30 2567 N 244.951 4.62875 -0.173469 0
M  V30 2568 C 245.686 5.72454 -0.329288 0
M  V30 2569 N 245.182 6.90669 -0.543005 0
M  V30 2570 N 246.975 5.61467 -0.266666 0
M  V30 2571 H 239.126 1.82345 -1.08922 0
M  V30 2572 H 241.389 0.844149 -0.431413 0
M  V30 2573 H 241.095 3.3563 -1.05096 0
M  V30 2574 H 240.969 3.71337 0.66246 0
M  V30 2575 H 243.356 2.77857 0.993966 0
M  V30 2576 H 243.437 2.4479 -0.742388 0
M  V30 2577 H 243.081 4.93287 -1.20956 0
M  V30 2578 H 243.011 5.2378 0.544274 0
M  V30 2579 H 245.502 3.77898 -0.0130709 0
M  V30 2580 H 245.815 7.70045 -0.651922 0
M  V30 2581 H 244.16 6.92581 -0.579366 0
M  V30 2582 H 247.351 4.67992 -0.100441 0
M  V30 2583 H 247.524 6.46816 -0.391535 0
M  V30 2584 N 240.93 -0.123565 1.57115 0
M  V30 2585 C 241.862 -1.17739 1.96648 0
M  V30 2586 C 242.875 -1.37906 0.865201 0
M  V30 2587 O 244.064 -1.37062 1.14351 0
M  V30 2588 C 241.164 -2.53821 2.24562 0
M  V30 2589 C 240.337 -2.54317 3.55867 0
M  V30 2590 C 239.396 -3.72112 3.72047 0
M  V30 2591 O 238.422 -3.55907 4.44206 0
M  V30 2592 N 239.624 -4.90498 3.10471 0
M  V30 2593 H 242.389 -0.841147 2.87654 0
M  V30 2594 H 239.95 -0.31289 1.58848 0
M  V30 2595 H 241.942 -3.31175 2.32606 0
M  V30 2596 H 240.512 -2.79645 1.39705 0
M  V30 2597 H 239.732 -1.62711 3.59053 0
M  V30 2598 H 241.02 -2.51701 4.42181 0
M  V30 2599 H 240.418 -5.06567 2.51806 0
M  V30 2600 H 238.975 -5.65544 3.24043 0
M  V30 2601 N 242.408 -1.52605 -0.393616 0
M  V30 2602 C 243.654 -1.67672 -1.14079 0
M  V30 2603 C 243.987 -0.413121 -1.89755 0
M  V30 2604 O 243.262 0.588952 -1.85369 0
M  V30 2605 C 243.545 -2.9088 -2.12276 0
M  V30 2606 C 243.398 -4.27329 -1.40394 0
M  V30 2607 C 244.717 -3.09628 -3.12759 0
M  V30 2608 H 241.836 -0.610168 -0.413356 0
M  V30 2609 H 244.478 -1.85193 -0.424696 0
M  V30 2610 H 242.628 -2.76073 -2.73342 0
M  V30 2611 H 244.3 -4.53894 -0.82327 0
M  V30 2612 H 242.543 -4.2802 -0.705801 0
M  V30 2613 H 243.214 -5.09615 -2.12123 0
M  V30 2614 H 245.69 -3.23436 -2.61779 0
M  V30 2615 H 244.566 -3.97322 -3.78717 0
M  V30 2616 H 244.827 -2.23637 -3.81365 0
M  V30 2617 N 243.887 0.651787 -1.4349 0
M  V30 2618 C 244.817 1.77621 -1.51569 0
M  V30 2619 C 245.798 1.66022 -0.370253 0
M  V30 2620 O 246.983 1.85095 -0.587658 0
M  V30 2621 C 244.113 3.16056 -1.43966 0
M  V30 2622 C 243.067 3.4242 -2.56774 0
M  V30 2623 C 242.393 4.8067 -2.34223 0
M  V30 2624 C 243.693 3.37023 -3.99015 0
M  V30 2625 H 245.387 1.71117 -2.45681 0
M  V30 2626 H 242.933 0.821825 -1.18246 0
M  V30 2627 H 244.886 3.94472 -1.48221 0
M  V30 2628 H 243.61 3.23293 -0.463586 0
M  V30 2629 H 242.269 2.66375 -2.51873 0
M  V30 2630 H 241.917 4.84585 -1.34856 0
M  V30 2631 H 241.617 4.9927 -3.09844 0
M  V30 2632 H 243.141 5.61342 -2.40265 0
M  V30 2633 H 244.555 4.05374 -4.05395 0
M  V30 2634 H 242.952 3.67159 -4.74673 0
M  V30 2635 H 244.022 2.3518 -4.2405 0
M  V30 2636 N 245.365 1.30045 0.890287 0
M  V30 2637 C 246.275 1.17885 2.02831 0
M  V30 2638 C 247.291 0.0999609 1.73713 0
M  V30 2639 O 248.467 0.313867 1.98939 0
M  V30 2640 C 245.532 0.866079 3.35708 0
M  V30 2641 C 244.593 2.02979 3.78283 0
M  V30 2642 C 243.826 1.73184 5.0482 0
M  V30 2643 O 244.049 0.657237 5.66601 0
M  V30 2644 O 242.983 2.58267 5.43674 0
M  V30 2645 H 246.809 2.13474 2.16015 0
M  V30 2646 H 244.394 1.09587 1.01543 0
M  V30 2647 H 246.276 0.706623 4.15433 0
M  V30 2648 H 244.951 -0.0599443 3.23644 0
M  V30 2649 H 243.858 2.24454 2.99285 0
M  V30 2650 H 245.191 2.93734 3.94944 0
M  V30 2651 N 246.843 -1.10192 1.12674 0
M  V30 2652 C 248.091 -1.81845 0.881861 0
M  V30 2653 C 248.412 -1.85737 -0.593867 0
M  V30 2654 O 247.682 -1.33724 -1.4316 0
M  V30 2655 H 246.262 -0.673432 0.323261 0
M  V30 2656 H 248.924 -1.33316 1.42172 0
M  V30 2657 H 248.02 -2.85288 1.2656 0
M  V30 2658 N 248.321 -0.919034 -1.28029 0
M  V30 2659 C 249.271 -0.382574 -2.24767 0
M  V30 2660 C 250.255 0.508286 -1.52661 0
M  V30 2661 O 251.447 0.347145 -1.73562 0
M  V30 2662 C 248.576 0.371432 -3.41285 0
M  V30 2663 C 247.662 -0.535449 -4.20706 0
M  V30 2664 N 248.053 -1.65141 -4.78082 0
M  V30 2665 C 246.351 -0.336824 -4.44726 0
M  V30 2666 C 247.052 -2.21475 -5.37888 0
M  V30 2667 N 246.028 -1.50537 -5.22341 0
M  V30 2668 H 249.83 -1.23477 -2.66703 0
M  V30 2669 H 247.344 -0.772299 -1.42861 0
M  V30 2670 H 249.341 0.772638 -4.09678 0
M  V30 2671 H 248.001 1.22066 -3.00882 0
M  V30 2672 H 249.012 -2.03392 -4.7629 0
M  V30 2673 H 245.689 0.47246 -4.14818 0
M  V30 2674 H 247.079 -3.15379 -5.93284 0
M  V30 2675 N 249.799 1.42003 -0.683588 0
M  V30 2676 C 251.045 2.01712 -0.209825 0
M  V30 2677 C 251.378 1.53968 1.18353 0
M  V30 2678 O 250.653 0.745661 1.79639 0
M  V30 2679 C 250.936 3.59202 -0.254197 0
M  V30 2680 C 250.789 4.17102 -1.68363 0
M  V30 2681 C 252.108 4.38344 0.392709 0
M  V30 2682 H 249.227 0.732891 -0.0777189 0
M  V30 2683 H 251.869 1.68909 -0.87004 0
M  V30 2684 H 250.019 3.87278 0.307954 0
M  V30 2685 H 251.691 3.99946 -2.29871 0
M  V30 2686 H 249.934 3.72597 -2.22157 0
M  V30 2687 H 250.605 5.26249 -1.6663 0
M  V30 2688 H 253.081 4.16011 -0.0859162 0
M  V30 2689 H 251.957 5.47901 0.331063 0
M  V30 2690 H 252.218 4.16887 1.47164 0
M  V30 2691 N 251.277 0.427512 1.51691 0
M  V30 2692 C 252.207 -0.3796 2.30394 0
M  V30 2693 C 253.188 -1.02982 1.35384 0
M  V30 2694 O 254.373 -1.03534 1.643 0
M  V30 2695 C 251.503 -1.48649 3.1388 0
M  V30 2696 C 250.457 -0.960294 4.17088 0
M  V30 2697 C 249.783 -2.16219 4.89033 0
M  V30 2698 C 251.083 -0.00153679 5.223 0
M  V30 2699 H 252.777 0.277164 2.98114 0
M  V30 2700 H 250.323 0.134739 1.43368 0
M  V30 2701 H 252.276 -2.05826 3.67714 0
M  V30 2702 H 251 -2.1714 2.43962 0
M  V30 2703 H 249.659 -0.410806 3.64291 0
M  V30 2704 H 249.307 -2.83307 4.15628 0
M  V30 2705 H 249.007 -1.81654 5.58816 0
M  V30 2706 H 250.531 -2.73968 5.45687 0
M  V30 2707 H 251.945 -0.482687 5.71264 0
M  V30 2708 H 250.342 0.256199 5.99553 0
M  V30 2709 H 251.412 0.938174 4.75738 0
M  V30 2710 N 252.755 -1.56801 0.158532 0
M  V30 2711 C 253.98 -2.01295 -0.499516 0
M  V30 2712 C 254.405 -1.03799 -1.56867 0
M  V30 2713 O 253.763 -0.0155162 -1.81293 0
M  V30 2714 C 253.811 -3.44469 -1.06647 0
M  V30 2715 O 252.915 -3.50012 -2.18095 0
M  V30 2716 H 252.256 -0.652884 -0.12099 0
M  V30 2717 H 254.786 -2.02958 0.258661 0
M  V30 2718 H 254.796 -3.8351 -1.39227 0
M  V30 2719 H 253.471 -4.14932 -0.283581 0
M  V30 2720 H 252.048 -3.22822 -1.86656 0
M  V30 2721 N 254.233 0.115231 -1.57178 0
M  V30 2722 C 255.143 1.15994 -2.03918 0
M  V30 2723 C 256.159 1.45103 -0.960268 0
M  V30 2724 O 257.335 1.56144 -1.27204 0
M  V30 2725 C 254.4 2.46568 -2.43732 0
M  V30 2726 C 253.461 2.24822 -3.65723 0
M  V30 2727 C 252.694 3.4917 -4.03629 0
M  V30 2728 O 252.917 4.56623 -3.41835 0
M  V30 2729 O 251.851 3.39949 -4.96708 0
M  V30 2730 H 255.677 0.793019 -2.93164 0
M  V30 2731 H 253.262 0.3263 -1.45793 0
M  V30 2732 H 255.144 3.23492 -2.70057 0
M  V30 2733 H 253.819 2.82726 -1.57631 0
M  V30 2734 H 252.726 1.45744 -3.44542 0
M  V30 2735 H 254.059 1.93566 -4.52541 0
M  V30 2736 N 255.711 1.52812 0.385517 0
M  V30 2737 C 256.674 1.77188 1.45386 0
M  V30 2738 C 257.674 0.641953 1.4743 0
M  V30 2739 O 258.864 0.910033 1.4854 0
M  V30 2740 C 255.996 1.87582 2.8465 0
M  V30 2741 H 257.189 2.72583 1.25054 0
M  V30 2742 H 254.742 1.43586 0.617467 0
M  V30 2743 H 255.477 0.941849 3.10322 0
M  V30 2744 H 255.262 2.69748 2.84567 0
M  V30 2745 H 256.752 2.08102 3.62054 0
M  V30 2746 N 257.189 -0.644168 1.43834 0
M  V30 2747 C 258.605 -0.960875 1.27434 0
M  V30 2748 C 258.805 -2.00499 0.200618 0
M  V30 2749 O 257.861 -2.49018 -0.417906 0
M  V30 2750 C 259.174 -1.43653 2.64167 0
M  V30 2751 C 260.722 -1.55271 2.71772 0
M  V30 2752 C 261.197 -2.06224 4.08944 0
M  V30 2753 N 262.688 -2.13513 4.11055 0
M  V30 2754 C 263.423 -2.54081 5.14033 0
M  V30 2755 N 262.919 -2.9388 6.27381 0
M  V30 2756 N 264.712 -2.54101 5.01387 0
M  V30 2757 H 256.863 0.0465779 2.12349 0
M  V30 2758 H 259.126 -0.0417638 0.94708 0
M  V30 2759 H 258.832 -0.743706 3.43747 0
M  V30 2760 H 258.706 -2.40993 2.90176 0
M  V30 2761 H 261.093 -2.23653 1.92519 0
M  V30 2762 H 261.174 -0.563395 2.49519 0
M  V30 2763 H 260.818 -1.38441 4.88668 0
M  V30 2764 H 260.748 -3.06003 4.28567 0
M  V30 2765 H 263.239 -1.85493 3.29242 0
M  V30 2766 H 263.552 -3.2361 7.01781 0
M  V30 2767 H 261.897 -2.91663 6.30839 0
M  V30 2768 H 265.088 -2.22391 4.11898 0
M  V30 2769 H 265.261 -2.85394 5.81768 0
M  V30 2770 N 258.668 -1.30515 -0.883378 0
M  V30 2771 C 259.578 -1.18959 -2.02203 0
M  V30 2772 C 260.594 -0.109172 -1.73657 0
M  V30 2773 O 261.77 -0.324413 -1.9877 0
M  V30 2774 C 258.835 -0.883871 -3.35244 0
M  V30 2775 C 257.896 -2.04982 -3.77201 0
M  V30 2776 C 257.129 -1.75859 -5.03894 0
M  V30 2777 O 257.352 -0.687276 -5.66244 0
M  V30 2778 O 256.286 -2.61146 -5.42297 0
M  V30 2779 H 260.112 -2.14616 -2.1488 0
M  V30 2780 H 257.697 -1.10124 -1.0096 0
M  V30 2781 H 259.579 -0.728644 -4.15053 0
M  V30 2782 H 258.254 0.0427798 -3.23672 0
M  V30 2783 H 257.161 -2.26038 -2.9809 0
M  V30 2784 H 258.494 -2.95825 -3.93381 0
M  V30 2785 N 260.146 1.09593 -1.13257 0
M  V30 2786 C 261.076 2.18214 -0.830946 0
M  V30 2787 C 262.057 1.68812 0.208966 0
M  V30 2788 O 263.242 1.9408 0.0682666 0
M  V30 2789 C 260.372 3.46051 -0.294296 0
M  V30 2790 C 259.326 4.08778 -1.26826 0
M  V30 2791 C 258.652 5.31419 -0.591449 0
M  V30 2792 C 259.952 4.51476 -2.62615 0
M  V30 2793 H 261.646 2.43703 -1.73923 0
M  V30 2794 H 259.192 1.17128 -0.837675 0
M  V30 2795 H 261.145 4.2134 -0.0709606 0
M  V30 2796 H 259.869 3.20079 0.649366 0
M  V30 2797 H 258.528 3.35505 -1.47756 0
M  V30 2798 H 258.176 5.01727 0.357633 0
M  V30 2799 H 257.876 5.74341 -1.24123 0
M  V30 2800 H 259.4 6.09433 -0.377355 0
M  V30 2801 H 260.814 5.17999 -2.45663 0
M  V30 2802 H 259.211 5.05277 -3.23752 0
M  V30 2803 H 260.281 3.63962 -3.20406 0
M  V30 2804 N 261.624 0.925811 1.2754 0
M  V30 2805 C 262.87 0.566092 1.94739 0
M  V30 2806 C 263.203 -0.890057 1.72603 0
M  V30 2807 O 262.478 -1.63467 1.05399 0
M  V30 2808 C 262.761 0.89054 3.48915 0
M  V30 2809 C 262.614 2.4003 3.80402 0
M  V30 2810 C 263.933 0.395101 4.38323 0
M  V30 2811 H 261.052 0.20714 0.707292 0
M  V30 2812 H 263.694 1.15725 1.50691 0
M  V30 2813 H 261.844 0.387452 3.86563 0
M  V30 2814 H 263.516 2.97494 3.52555 0
M  V30 2815 H 261.759 2.85028 3.2702 0
M  V30 2816 H 262.43 2.57785 4.8811 0
M  V30 2817 H 264.906 0.826241 4.07814 0
M  V30 2818 H 263.782 0.651086 5.45025 0
M  V30 2819 H 264.043 -0.704798 4.36446 0
M  V30 2820 N 263.102 -1.41638 0.69111 0
M  V30 2821 C 264.065 -2.29178 0.0319786 0
M  V30 2822 C 265.065 -1.44153 -0.712496 0
M  V30 2823 O 266.255 -1.65354 -0.548053 0
M  V30 2824 C 263.387 -3.26952 -0.965161 0
M  V30 2825 H 264.58 -2.88959 0.802681 0
M  V30 2826 H 262.133 -1.4955 0.454356 0
M  V30 2827 H 262.868 -2.72142 -1.76378 0
M  V30 2828 H 262.653 -3.89685 -0.434522 0
M  V30 2829 H 264.143 -3.92561 -1.42428 0
M  V30 2830 N 264.58 -0.43555 -1.51462 0
M  V30 2831 C 265.51 0.367376 -2.30592 0
M  V30 2832 C 266.491 1.02263 -1.35928 0
M  V30 2833 O 267.676 1.02661 -1.64847 0
M  V30 2834 C 264.806 1.46983 -3.14664 0
M  V30 2835 C 263.76 0.938161 -4.17591 0
M  V30 2836 C 263.086 2.13622 -4.90173 0
M  V30 2837 C 264.386 -0.0261621 -5.22293 0
M  V30 2838 H 266.08 -0.292969 -2.97963 0
M  V30 2839 H 263.626 -0.14234 -1.43295 0
M  V30 2840 H 265.579 2.03873 -3.688 0
M  V30 2841 H 264.303 2.15843 -2.4511 0
M  V30 2842 H 262.962 0.391481 -3.64504 0
M  V30 2843 H 262.61 2.81098 -4.17124 0
M  V30 2844 H 262.31 1.78688 -5.59772 0
M  V30 2845 H 263.834 2.7107 -5.47132 0
M  V30 2846 H 265.248 0.452384 -5.71512 0
M  V30 2847 H 263.645 -0.287992 -5.99409 0
M  V30 2848 H 264.715 -0.963391 -4.75233 0
M  V30 2849 N 266.058 1.56714 -0.166846 0
M  V30 2850 C 266.988 2.20754 0.760913 0
M  V30 2851 C 267.969 1.16178 1.24244 0
M  V30 2852 O 269.154 1.44592 1.29641 0
M  V30 2853 C 266.284 2.84478 1.99223 0
M  V30 2854 C 265.238 3.95053 1.64672 0
M  V30 2855 C 264.564 4.45805 2.95232 0
M  V30 2856 C 265.864 5.14865 0.878155 0
M  V30 2857 H 267.558 2.98537 0.22713 0
M  V30 2858 H 265.104 1.43596 0.107805 0
M  V30 2859 H 267.057 3.27951 2.64624 0
M  V30 2860 H 265.781 2.04056 2.55007 0
M  V30 2861 H 264.44 3.52228 1.01641 0
M  V30 2862 H 264.088 3.62181 3.49047 0
M  V30 2863 H 263.788 5.204 2.7287 0
M  V30 2864 H 265.312 4.91962 3.6167 0
M  V30 2865 H 266.726 5.55059 1.43466 0
M  V30 2866 H 265.123 5.95348 0.753738 0
M  V30 2867 H 266.193 4.84735 -0.126377 0
M  V30 2868 N 267.536 -0.106894 1.57237 0
M  V30 2869 C 268.782 -0.81373 1.85759 0
M  V30 2870 C 269.115 -1.78952 0.754315 0
M  V30 2871 O 268.39 -1.93029 -0.23879 0
M  V30 2872 C 268.673 -1.55293 3.24894 0
M  V30 2873 C 268.526 -0.595929 4.45835 0
M  V30 2874 C 269.845 -2.5063 3.61763 0
M  V30 2875 H 266.964 -0.294369 0.67566 0
M  V30 2876 H 269.606 -0.0776472 1.89841 0
M  V30 2877 H 267.756 -2.1804 3.21544 0
M  V30 2878 H 269.428 0.0236262 4.61294 0
M  V30 2879 H 267.671 0.0916191 4.33703 0
M  V30 2880 H 268.342 -1.15004 5.39887 0
M  V30 2881 H 270.818 -1.97982 3.65981 0
M  V30 2882 H 269.694 -2.99376 4.60071 0
M  V30 2883 H 269.955 -3.3385 2.89821 0
M  V30 2884 N 269.014 -1.53014 -0.377408 0
M  V30 2885 C 270.43 -1.42523 -0.718281 0
M  V30 2886 C 270.63 -0.55487 -1.9371 0
M  V30 2887 O 269.686 -0.0327593 -2.52479 0
M  V30 2888 C 270.999 -2.85546 -0.942539 0
M  V30 2889 C 272.547 -2.95101 -1.04329 0
M  V30 2890 C 273.022 -4.3916 -1.3001 0
M  V30 2891 N 274.513 -4.42536 -1.36806 0
M  V30 2892 C 275.248 -5.51097 -1.58364 0
M  V30 2893 N 274.744 -6.69724 -1.77317 0
M  V30 2894 N 276.537 -5.38657 -1.60638 0
M  V30 2895 H 268.688 -2.08116 0.424426 0
M  V30 2896 H 270.951 -0.939352 0.127759 0
M  V30 2897 H 270.657 -3.51499 -0.118929 0
M  V30 2898 H 270.531 -3.28493 -1.85397 0
M  V30 2899 H 272.918 -2.29309 -1.85745 0
M  V30 2900 H 272.999 -2.55566 -0.109505 0
M  V30 2901 H 272.643 -5.05521 -0.490991 0
M  V30 2902 H 272.573 -4.76258 -2.24691 0
M  V30 2903 H 275.064 -3.57039 -1.23821 0
M  V30 2904 H 275.377 -7.48233 -1.93306 0
M  V30 2905 H 273.722 -6.72732 -1.74518 0
M  V30 2906 H 276.913 -4.44948 -1.45391 0
M  V30 2907 H 277.086 -6.2333 -1.77098 0
M  V30 2908 N 270.492 0.636531 -1.44174 0
M  V30 2909 C 271.74 1.39343 -1.46383 0
M  V30 2910 C 272.061 1.94766 -0.0955715 0
M  V30 2911 O 271.331 1.75452 0.871395 0
M  V30 2912 H 269.911 0.517199 -0.538994 0
M  V30 2913 H 272.573 0.74957 -1.7991 0
M  V30 2914 H 271.669 2.22746 -2.18611 0
M  V30 2915 N 271.97 1.30982 0.876444 0
M  V30 2916 C 273.195 1.23373 1.66715 0
M  V30 2917 C 273.62 -0.19885 1.87046 0
M  V30 2918 O 272.978 -1.1427 1.40756 0
M  V30 2919 C 273.026 1.97644 3.01611 0
M  V30 2920 O 272.13 1.30935 3.91062 0
M  V30 2921 H 271.471 0.426279 0.509099 0
M  V30 2922 H 274.001 1.72944 1.09323 0
M  V30 2923 H 274.011 2.06992 3.51594 0
M  V30 2924 H 272.686 3.01829 2.86133 0
M  V30 2925 H 271.263 1.29996 3.49507 0
M  V30 2926 N 273.449 -1.08991 1.13837 0
M  V30 2927 C 274.412 -2.13925 0.822715 0
M  V30 2928 C 275.412 -1.599 -0.1699 0
M  V30 2929 O 276.602 -1.74104 0.0577251 0
M  V30 2930 C 273.734 -3.40155 0.225318 0
M  V30 2931 H 274.927 -2.43358 1.75262 0
M  V30 2932 H 272.48 -1.24603 0.943594 0
M  V30 2933 H 273.215 -3.16352 -0.713594 0
M  V30 2934 H 273 -3.80661 0.940193 0
M  V30 2935 H 274.49 -4.17594 0.0214784 0
M  V30 2936 N 274.927 -0.932562 -1.27047 0
M  V30 2937 C 276.204 -0.49377 -1.89265 0
M  V30 2938 C 276.584 1.02833 -1.8436 0
M  V30 2939 O 275.932 1.88461 -1.29209 0
M  V30 2940 C 276.142 -1.04536 -3.32976 0
M  V30 2941 C 277.49 -1.10879 -4.09867 0
M  V30 2942 O 278.514 -0.995327 -3.42011 0
M  V30 2943 O 277.373 -1.28417 -5.31198 0
M  V30 2944 H 274.467 -0.159596 -0.811454 0
M  V30 2945 H 277.013 -1.02457 -1.3528 0
M  V30 2946 H 275.785 -2.08913 -3.30864 0
M  V30 2947 H 275.408 -0.496494 -3.94488 0
M  V30 2948 N 276.405 1.4127 -0.698611 0
M  V30 2949 C 277.653 2.00782 -0.230409 0
M  V30 2950 C 277.974 1.5562 1.17505 0
M  V30 2951 O 277.244 0.78815 1.79346 0
M  V30 2952 H 275.824 0.742464 -0.0821944 0
M  V30 2953 H 278.486 1.72852 -0.90045 0
M  V30 2954 H 277.582 3.11095 -0.25021 0
M  V30 2955 N 277.883 0.443576 1.51229 0
M  V30 2956 C 278.846 -0.353132 2.26463 0
M  V30 2957 C 279.846 -0.944338 1.3015 0
M  V30 2958 O 281.036 -0.817813 1.5381 0
M  V30 2959 C 278.168 -1.50023 3.06114 0
M  V30 2960 H 279.361 0.3063 2.98332 0
M  V30 2961 H 276.914 0.196902 1.55055 0
M  V30 2962 H 277.649 -2.19553 2.38677 0
M  V30 2963 H 277.434 -1.08241 3.76864 0
M  V30 2964 H 278.924 -2.06296 3.63087 0
M  V30 2965 N 279.361 -1.56624 0.175154 0
M  V30 2966 C 280.608 -1.96999 -0.468811 0
M  V30 2967 C 280.936 -1.06129 -1.62994 0
M  V30 2968 O 280.191 -0.0961771 -1.95464 0
M  V30 2969 C 280.49 -3.43419 -0.989864 0
M  V30 2970 C 280.156 -4.50866 0.0557687 0
M  V30 2971 C 278.818 -4.79975 0.343134 0
M  V30 2972 C 281.17 -5.15551 0.765308 0
M  V30 2973 C 278.498 -5.71066 1.34536 0
M  V30 2974 C 280.85 -6.07724 1.75654 0
M  V30 2975 C 279.514 -6.35199 2.05132 0
M  V30 2976 H 278.784 -0.720869 -0.17155 0
M  V30 2977 H 281.431 -1.89616 0.267924 0
M  V30 2978 H 279.736 -3.47772 -1.80449 0
M  V30 2979 H 281.433 -3.72002 -1.49719 0
M  V30 2980 H 278.023 -4.28229 -0.178381 0
M  V30 2981 H 282.207 -4.9317 0.556513 0
M  V30 2982 H 277.463 -5.90635 1.57988 0
M  V30 2983 H 281.637 -6.56912 2.31169 0
M  V30 2984 H 279.264 -7.05584 2.8294 0
M  V30 2985 N 280.839 0.0985539 -1.57292 0
M  V30 2986 C 281.769 1.12064 -2.04851 0
M  V30 2987 C 282.75 1.41981 -0.936767 0
M  V30 2988 O 283.935 1.52071 -1.20781 0
M  V30 2989 C 281.065 2.44144 -2.47004 0
M  V30 2990 C 280.019 2.28643 -3.6181 0
M  V30 2991 C 279.345 3.65869 -3.89929 0
M  V30 2992 C 280.645 1.72986 -4.92822 0
M  V30 2993 H 282.339 0.724979 -2.9049 0
M  V30 2994 H 279.885 0.34729 -1.39749 0
M  V30 2995 H 281.838 3.15914 -2.78884 0
M  V30 2996 H 280.562 2.85639 -1.5836 0
M  V30 2997 H 279.221 1.59318 -3.30172 0
M  V30 2998 H 278.869 4.04885 -2.98458 0
M  V30 2999 H 278.569 3.56344 -4.67218 0
M  V30 3000 H 280.093 4.39112 -4.2428 0
M  V30 3001 H 281.507 2.34593 -5.23105 0
M  V30 3002 H 279.904 1.74229 -5.74251 0
M  V30 3003 H 280.974 0.689007 -4.7998 0
M  V30 3004 N 282.317 1.53212 0.369288 0
M  V30 3005 C 283.594 1.59815 1.12776 0
M  V30 3006 C 283.974 0.403402 2.0721 0
M  V30 3007 O 283.322 -0.606667 2.20299 0
M  V30 3008 C 283.532 2.94664 1.87013 0
M  V30 3009 C 284.88 3.49109 2.41677 0
M  V30 3010 O 285.904 2.96669 1.97144 0
M  V30 3011 O 284.763 4.40775 3.23079 0
M  V30 3012 H 281.857 0.645376 0.517125 0
M  V30 3013 H 284.403 1.65553 0.37285 0
M  V30 3014 H 283.175 3.73061 1.18071 0
M  V30 3015 H 282.798 2.92401 2.69421 0
M  V30 3016 N 283.795 -0.628877 1.44509 0
M  V30 3017 C 285.206 -1.21054 1.42137 0
M  V30 3018 C 285.557 -1.95715 0.137881 0
M  V30 3019 O 284.682 -2.02554 -0.761645 0
M  V30 3020 C 285.277 -2.20189 2.57493 0
M  V30 3021 C 283.836 -2.73777 2.58308 0
M  V30 3022 C 282.983 -1.48813 2.33987 0
M  V30 3023 H 285.934 -0.41942 1.53057 0
M  V30 3024 H 285.955 -3.02833 2.30375 0
M  V30 3025 H 285.467 -1.6582 3.50892 0
M  V30 3026 H 283.568 -3.32142 1.68856 0
M  V30 3027 H 283.681 -3.19662 3.56865 0
M  V30 3028 H 282.045 -1.77024 1.83124 0
M  V30 3029 H 282.828 -0.963442 3.29504 0
M  V30 3030 N 285.273 -1.31445 -0.869486 0
M  V30 3031 C 286.689 -1.10113 -1.15531 0
M  V30 3032 C 286.889 0.128087 -2.01092 0
M  V30 3033 O 285.945 0.817276 -2.38908 0
M  V30 3034 C 287.258 -2.37291 -1.84698 0
M  V30 3035 C 288.806 -2.42906 -1.97397 0
M  V30 3036 C 289.281 -3.69967 -2.69979 0
M  V30 3037 N 290.772 -3.70864 -2.77514 0
M  V30 3038 C 291.507 -4.65875 -3.34287 0
M  V30 3039 N 291.003 -5.71242 -3.91988 0
M  V30 3040 N 292.796 -4.53394 -3.3225 0
M  V30 3041 H 284.947 -2.1028 -0.299347 0
M  V30 3042 H 287.21 -0.927683 -0.195214 0
M  V30 3043 H 286.916 -3.27078 -1.29278 0
M  V30 3044 H 286.79 -2.47125 -2.84972 0
M  V30 3045 H 289.177 -1.53588 -2.51982 0
M  V30 3046 H 289.258 -2.37036 -0.961643 0
M  V30 3047 H 288.902 -4.59652 -2.16062 0
M  V30 3048 H 288.832 -3.73103 -3.7162 0
M  V30 3049 H 291.323 -2.94697 -2.36563 0
M  V30 3050 H 291.636 -6.39817 -4.33421 0
M  V30 3051 H 289.981 -5.75015 -3.90362 0
M  V30 3052 H 293.172 -3.70252 -2.8641 0
M  V30 3053 H 293.345 -5.27617 -3.76197 0
M  V30 3054 N 286.751 1.08385 -1.14413 0
M  V30 3055 C 288.162 1.62258 -0.923535 0
M  V30 3056 C 288.513 1.88691 0.537595 0
M  V30 3057 O 287.638 1.64454 1.40655 0
M  V30 3058 C 288.233 2.94781 -1.67002 0
M  V30 3059 C 286.792 3.45437 -1.495 0
M  V30 3060 C 285.939 2.19668 -1.69238 0
M  V30 3061 H 288.89 0.916086 -1.2959 0
M  V30 3062 H 288.911 3.63229 -1.13334 0
M  V30 3063 H 288.423 2.7551 -2.73342 0
M  V30 3064 H 286.524 3.6981 -0.455097 0
M  V30 3065 H 286.637 4.22173 -2.2651 0
M  V30 3066 H 285.001 2.28849 -1.11804 0
M  V30 3067 H 285.784 2.02905 -2.7692 0
M  V30 3068 N 288.23 0.939286 1.26551 0
M  V30 3069 C 289.16 0.465044 2.28822 0
M  V30 3070 C 290.141 -0.480692 1.63167 0
M  V30 3071 O 291.326 -0.382955 1.90387 0
M  V30 3072 C 288.456 -0.27234 3.46231 0
M  V30 3073 C 287.41 0.58666 4.2396 0
M  V30 3074 C 286.736 -0.280573 5.33963 0
M  V30 3075 C 288.036 1.85704 4.88171 0
M  V30 3076 H 289.73 1.31979 2.68741 0
M  V30 3077 H 287.276 0.636061 1.29191 0
M  V30 3078 H 289.229 -0.615133 4.16886 0
M  V30 3079 H 287.953 -1.16121 3.0526 0
M  V30 3080 H 286.612 0.91232 3.55067 0
M  V30 3081 H 286.26 -1.16874 4.89234 0
M  V30 3082 H 285.96 0.29076 5.8688 0
M  V30 3083 H 287.484 -0.618678 6.07458 0
M  V30 3084 H 288.898 1.58161 5.51052 0
M  V30 3085 H 287.295 2.37279 5.51197 0
M  V30 3086 H 288.365 2.56957 4.11219 0
M  V30 3087 N 289.708 -1.40897 0.706093 0
M  V30 3088 C 290.936 -2.05373 0.250887 0
M  V30 3089 C 291.351 -1.53172 -1.10381 0
M  V30 3090 O 290.708 -0.684305 -1.69185 0
M  V30 3091 C 290.759 -3.6088 0.211571 0
M  V30 3092 O 290.48 -4.11153 1.51276 0
M  V30 3093 C 291.981 -4.42517 -0.263346 0
M  V30 3094 H 289.201 -0.66115 0.114552 0
M  V30 3095 H 291.745 -1.80479 0.961635 0
M  V30 3096 H 289.9 -3.84777 -0.450073 0
M  V30 3097 H 290.314 -5.05279 1.40689 0
M  V30 3098 H 291.788 -5.51479 -0.239718 0
M  V30 3099 H 292.265 -4.19396 -1.30397 0
M  V30 3100 H 292.871 -4.23708 0.367677 0
M  V30 3101 N 291.186 -0.45159 -1.50991 0
M  V30 3102 C 292.432 0.110237 -2.025 0
M  V30 3103 C 292.765 1.41109 -1.33424 0
M  V30 3104 O 292.04 1.89135 -0.453659 0
M  V30 3105 C 292.323 0.314271 -3.58726 0
M  V30 3106 C 292.176 -1.00623 -4.38401 0
M  V30 3107 C 293.495 1.07767 -4.26702 0
M  V30 3108 H 290.614 0.0385897 -0.735989 0
M  V30 3109 H 293.256 -0.593374 -1.80497 0
M  V30 3110 H 291.406 0.913601 -3.77605 0
M  V30 3111 H 293.078 -1.64064 -4.31139 0
M  V30 3112 H 291.321 -1.6075 -4.02917 0
M  V30 3113 H 291.992 -0.817341 -5.45915 0
M  V30 3114 H 294.468 0.56986 -4.12179 0
M  V30 3115 H 293.344 1.18921 -5.35863 0
M  V30 3116 H 293.605 2.10939 -3.88532 0
M  V30 3117 N 292.664 1.56529 -0.183458 0
M  V30 3118 C 293.91 1.97537 0.459036 0
M  V30 3119 C 294.243 1.06989 1.62071 0
M  V30 3120 O 293.518 0.11948 1.94133 0
M  V30 3121 C 293.801 3.47874 0.930368 0
M  V30 3122 C 293.654 4.492 -0.232317 0
M  V30 3123 C 294.973 4.01612 1.79989 0
M  V30 3124 H 292.092 0.718204 0.165383 0
M  V30 3125 H 294.734 1.88042 -0.272038 0
M  V30 3126 H 292.884 3.56095 1.55333 0
M  V30 3127 H 294.556 4.53027 -0.86972 0
M  V30 3128 H 292.799 4.24657 -0.885928 0
M  V30 3129 H 293.47 5.51823 0.139796 0
M  V30 3130 H 295.946 3.96097 1.27461 0
M  V30 3131 H 294.822 5.07195 2.09867 0
M  V30 3132 H 295.083 3.46163 2.74998 0
M  V30 3133 N 294.142 -0.090211 1.57342 0
M  V30 3134 C 295.105 -1.09335 2.01441 0
M  V30 3135 C 296.105 -1.32666 0.908641 0
M  V30 3136 O 297.295 -1.28697 1.174 0
M  V30 3137 C 294.427 -2.44136 2.3793 0
M  V30 3138 H 295.62 -0.713662 2.91285 0
M  V30 3139 H 293.173 -0.335404 1.52659 0
M  V30 3140 H 293.908 -2.86972 1.51055 0
M  V30 3141 H 293.693 -2.28548 3.18603 0
M  V30 3142 H 295.183 -3.16277 2.72688 0
M  V30 3143 N 295.62 -1.53406 -0.361157 0
M  V30 3144 C 296.866 -1.70054 -1.10496 0
M  V30 3145 C 297.199 -0.453278 -1.88836 0
M  V30 3146 O 296.474 0.5495 -1.86576 0
M  V30 3147 C 296.757 -2.95317 -2.06058 0
M  V30 3148 C 296.61 -4.3021 -1.31298 0
M  V30 3149 C 297.929 -3.16193 -3.06121 0
M  V30 3150 H 295.048 -0.618799 -0.400321 0
M  V30 3151 H 297.69 -1.86052 -0.385318 0
M  V30 3152 H 295.84 -2.81809 -2.67425 0
M  V30 3153 H 297.512 -4.55538 -0.726807 0
M  V30 3154 H 295.755 -4.29421 -0.614853 0
M  V30 3155 H 296.426 -5.14 -2.01265 0
M  V30 3156 H 298.902 -3.28916 -2.5486 0
M  V30 3157 H 297.778 -4.05266 -3.70204 0
M  V30 3158 H 298.039 -2.31676 -3.76535 0
M  V30 3159 N 297.098 0.621204 -1.44841 0
M  V30 3160 C 298.061 1.71459 -1.521 0
M  V30 3161 C 299.061 1.55696 -0.401933 0
M  V30 3162 O 300.251 1.61011 -0.664925 0
M  V30 3163 C 297.383 3.10624 -1.40447 0
M  V30 3164 H 298.576 1.66394 -2.49506 0
M  V30 3165 H 296.129 0.835745 -1.3208 0
M  V30 3166 H 296.864 3.21277 -0.441737 0
M  V30 3167 H 296.649 3.23473 -2.21602 0
M  V30 3168 H 298.139 3.90293 -1.4853 0
M  V30 3169 N 298.576 1.31904 0.862503 0
M  V30 3170 C 299.524 1.20125 1.9918 0
M  V30 3171 C 300.518 0.107824 1.69056 0
M  V30 3172 O 301.724 0.270223 1.7796 0
M  V30 3173 H 298.099 0.372148 0.65346 0
M  V30 3174 H 300.07 2.15652 2.06244 0
M  V30 3175 C 298.819 0.933099 3.34946 0
M  V30 3176 H 298.142 1.76664 3.5865 0
M  V30 3177 H 299.582 0.890892 4.14535 0
M  V30 3178 C 298.041 -0.364172 3.34926 0
M  V30 3179 O 298.571 -1.37858 3.77304 0
M  V30 3180 N 296.777 -0.383362 2.8806 0
M  V30 3181 H 296.324 0.442651 2.53768 0
M  V30 3182 H 296.282 -1.25123 2.8843 0
M  V30 3183 N 300.054 -1.07777 1.14986 0
M  V30 3184 C 301.3 -1.80557 0.923422 0
M  V30 3185 C 301.633 -1.86298 -0.548337 0
M  V30 3186 O 300.908 -1.34354 -1.40639 0
M  V30 3187 C 301.191 -3.25839 1.53299 0
M  V30 3188 C 301.044 -3.28269 3.07505 0
M  V30 3189 C 302.363 -4.22991 1.21518 0
M  V30 3190 H 299.482 -0.655493 0.336894 0
M  V30 3191 H 302.124 -1.26144 1.42083 0
M  V30 3192 H 300.274 -3.72306 1.10999 0
M  V30 3193 H 301.946 -2.90079 3.58681 0
M  V30 3194 H 300.189 -2.67355 3.4162 0
M  V30 3195 H 300.86 -4.30691 3.45266 0
M  V30 3196 H 303.336 -3.84894 1.581 0
M  V30 3197 H 302.212 -5.22945 1.66793 0
M  V30 3198 H 302.473 -4.41904 0.131505 0
M  V30 3199 N 301.532 -0.945985 -1.26051 0
M  V30 3200 C 302.465 -0.403619 -2.24602 0
M  V30 3201 C 303.443 0.510241 -1.54387 0
M  V30 3202 O 304.627 0.446593 -1.83133 0
M  V30 3203 C 301.754 0.419564 -3.36091 0
M  V30 3204 C 300.8 -0.433454 -4.24292 0
M  V30 3205 S 301.633 -1.86037 -5.02146 0
M  V30 3206 C 302.789 -1.04538 -6.17108 0
M  V30 3207 H 303.022 -1.23883 -2.7026 0
M  V30 3208 H 300.555 -0.749438 -1.34992 0
M  V30 3209 H 302.513 0.888595 -4.00767 0
M  V30 3210 H 301.174 1.22951 -2.89036 0
M  V30 3211 H 300.367 0.197486 -5.03613 0
M  V30 3212 H 299.969 -0.837357 -3.64506 0
M  V30 3213 H 302.261 -0.289923 -6.76879 0
M  V30 3214 H 303.204 -1.81222 -6.84518 0
M  V30 3215 H 303.612 -0.579319 -5.61519 0
M  V30 3216 N 303.011 1.40521 -0.713556 0
M  V30 3217 C 304.236 2.05759 -0.26035 0
M  V30 3218 C 304.661 1.53403 1.08854 0
M  V30 3219 O 304.019 0.668535 1.68524 0
M  V30 3220 C 304.067 3.59745 -0.248122 0
M  V30 3221 O 303.171 4.05123 0.77131 0
M  V30 3222 H 302.512 0.652564 -0.122703 0
M  V30 3223 H 305.042 1.79958 -0.973467 0
M  V30 3224 H 305.052 4.07911 -0.0851129 0
M  V30 3225 H 303.727 3.97218 -1.2325 0
M  V30 3226 H 302.304 3.68422 0.57619 0
M  V30 3227 N 304.489 0.459591 1.5075 0
M  V30 3228 C 305.452 -0.329093 2.26825 0
M  V30 3229 C 306.452 -0.930481 1.31144 0
M  V30 3230 O 307.642 -0.801453 1.54669 0
M  V30 3231 C 304.774 -1.46768 3.07688 0
M  V30 3232 H 305.967 0.337924 2.9799 0
M  V30 3233 H 303.52 0.213336 1.54837 0
M  V30 3234 H 304.255 -2.17009 2.40993 0
M  V30 3235 H 304.04 -1.04238 3.77991 0
M  V30 3236 H 305.53 -2.02433 3.65254 0
M  V30 3237 N 305.967 -1.56429 0.191757 0
M  V30 3238 C 307.213 -1.97777 -0.448554 0
M  V30 3239 C 307.546 -1.07847 -1.61501 0
M  V30 3240 O 306.821 -0.129774 -1.94067 0
M  V30 3241 C 307.104 -3.48362 -0.911906 0
M  V30 3242 C 306.957 -4.4907 0.256136 0
M  V30 3243 C 308.276 -4.02561 -1.77857 0
M  V30 3244 H 305.395 -0.719071 -0.161572 0
M  V30 3245 H 308.037 -1.87896 0.282007 0
M  V30 3246 H 306.187 -3.56914 -1.53442 0
M  V30 3247 H 307.859 -4.5256 0.893733 0
M  V30 3248 H 306.102 -4.24181 0.908436 0
M  V30 3249 H 306.773 -5.51889 -0.11053 0
M  V30 3250 H 309.249 -3.96767 -1.25359 0
M  V30 3251 H 308.125 -5.08301 -2.07174 0
M  V30 3252 H 308.386 -3.47616 -2.73158 0
M  V30 3253 N 307.445 0.0818655 -1.57387 0
M  V30 3254 C 308.685 0.788375 -1.88584 0
M  V30 3255 C 309.049 1.75248 -0.784351 0
M  V30 3256 O 310.25 2.50334 -0.979105 0
M  V30 3257 C 308.521 1.48654 -3.25018 0
M  V30 3258 S 310.08 2.22951 -3.7794 0
M  V30 3259 H 306.898 0.262383 -0.660815 0
M  V30 3260 H 309.5 0.0448995 -1.95448 0
M  V30 3261 H 308.204 0.770919 -4.03094 0
M  V30 3262 H 307.735 2.26965 -3.21326 0
M  V30 3263 H 309.75 3.49309 -3.52417 0
M  V30 3264 N 308.923 1.53595 0.353017 0
M  V30 3265 C 310.17 1.70385 1.09431 0
M  V30 3266 C 310.498 0.462113 1.88931 0
M  V30 3267 O 309.753 -0.556074 1.87633 0
M  V30 3268 C 310.052 2.91313 2.07054 0
M  V30 3269 C 309.718 4.27308 1.43939 0
M  V30 3270 C 308.38 4.64287 1.26454 0
M  V30 3271 C 310.732 5.11829 0.983883 0
M  V30 3272 C 308.06 5.83412 0.620226 0
M  V30 3273 C 310.412 6.31611 0.353516 0
M  V30 3274 C 309.076 6.67293 0.166272 0
M  V30 3275 H 308.346 0.623484 0.400436 0
M  V30 3276 H 310.993 1.87799 0.374655 0
M  V30 3277 H 309.298 2.68463 2.85368 0
M  V30 3278 H 310.995 3.01497 2.64387 0
M  V30 3279 H 307.585 3.98198 1.58543 0
M  V30 3280 H 311.769 4.838 1.10685 0
M  V30 3281 H 307.025 6.09639 0.463681 0
M  V30 3282 H 311.199 6.964 -0.00757555 0
M  V30 3283 H 308.826 7.59461 -0.335047 0
M  V30 3284 N 310.401 -0.613514 1.45168 0
M  V30 3285 C 311.649 -1.36997 1.48581 0
M  V30 3286 C 311.97 -1.94589 0.126545 0
M  V30 3287 O 311.24 -1.76816 -0.843372 0
M  V30 3288 H 309.82 -0.508558 0.547154 0
M  V30 3289 H 312.482 -0.720853 1.81079 0
M  V30 3290 H 311.578 -2.1924 2.22127 0
M  V30 3291 N 311.879 -1.3236 -0.855495 0
M  V30 3292 C 313.119 -1.24187 -1.62348 0
M  V30 3293 C 313.483 0.193597 -1.91021 0
M  V30 3294 O 314.684 0.39904 -2.65822 0
M  V30 3295 C 312.955 -2.07661 -2.90881 0
M  V30 3296 S 314.514 -2.16505 -3.81669 0
M  V30 3297 H 311.332 -0.442076 -0.556857 0
M  V30 3298 H 313.934 -1.67198 -1.01317 0
M  V30 3299 H 312.638 -3.11018 -2.67761 0
M  V30 3300 H 312.169 -1.65425 -3.56929 0
M  V30 3301 H 314.184 -1.31394 -4.78487 0
M  V30 3302 N 313.357 1.07166 -1.15556 0
M  V30 3303 C 314.773 1.31899 -0.898603 0
M  V30 3304 C 314.973 1.96333 0.453383 0
M  V30 3305 O 314.029 2.22438 1.19489 0
M  V30 3306 C 315.342 2.20826 -2.04099 0
M  V30 3307 C 316.89 2.34269 -2.07574 0
M  V30 3308 C 317.365 3.26546 -3.21141 0
M  V30 3309 N 318.856 3.34127 -3.20801 0
M  V30 3310 C 319.591 4.05595 -4.05315 0
M  V30 3311 N 319.087 4.79661 -4.99897 0
M  V30 3312 N 320.88 4.01555 -3.93332 0
M  V30 3313 H 313.031 0.637302 -2.02613 0
M  V30 3314 H 315.294 0.343468 -0.883591 0
M  V30 3315 H 315 1.80744 -3.01703 0
M  V30 3316 H 314.874 3.21364 -1.97496 0
M  V30 3317 H 317.261 2.73603 -1.10568 0
M  V30 3318 H 317.342 1.33429 -2.18244 0
M  V30 3319 H 316.986 2.87931 -4.184 0
M  V30 3320 H 316.916 4.27345 -3.07708 0
M  V30 3321 H 319.407 2.81336 -2.52306 0
M  V30 3322 H 319.72 5.31694 -5.60822 0
M  V30 3323 H 318.065 4.78671 -5.03884 0
M  V30 3324 H 321.256 3.42806 -3.18751 0
M  V30 3325 H 321.429 4.56987 -4.5942 0
M  V30 3326 N 314.835 0.952656 1.25548 0
M  V30 3327 C 316.065 0.622592 1.96996 0
M  V30 3328 C 316.473 -0.809112 1.71026 0
M  V30 3329 O 315.816 -1.55258 0.981861 0
M  V30 3330 C 315.878 0.798946 3.5051 0
M  V30 3331 C 315.542 2.20744 4.00151 0
M  V30 3332 C 316.539 3.18394 4.11001 0
M  V30 3333 C 314.224 2.5311 4.33867 0
M  V30 3334 C 316.218 4.46504 4.54877 0
M  V30 3335 C 313.905 3.8145 4.7743 0
M  V30 3336 C 314.903 4.77959 4.87897 0
M  V30 3337 O 314.591 6.04012 5.30494 0
M  V30 3338 H 314.323 0.232503 0.634758 0
M  V30 3339 H 316.877 1.2789 1.60728 0
M  V30 3340 H 315.107 0.0854903 3.86605 0
M  V30 3341 H 316.796 0.47023 4.03167 0
M  V30 3342 H 317.562 2.94715 3.85186 0
M  V30 3343 H 313.441 1.78719 4.24948 0
M  V30 3344 H 316.985 5.21835 4.62962 0
M  V30 3345 H 312.882 4.04936 5.0269 0
M  V30 3346 H 313.65 6.0736 5.48685 0
M  V30 3347 N 316.313 -1.40141 0.720998 0
M  V30 3348 C 317.538 -2.05618 0.271258 0
M  V30 3349 C 317.963 -1.53978 -1.08039 0
M  V30 3350 O 317.321 -0.677463 -1.68167 0
M  V30 3351 C 317.369 -3.59609 0.267197 0
M  V30 3352 O 316.473 -4.05526 -0.749814 0
M  V30 3353 H 315.814 -0.651904 0.126162 0
M  V30 3354 H 318.344 -1.79439 0.982997 0
M  V30 3355 H 318.354 -4.0786 0.106744 0
M  V30 3356 H 317.029 -3.96559 1.25354 0
M  V30 3357 H 315.606 -3.68722 -0.556644 0
M  V30 3358 N 317.792 -0.46758 -1.50504 0
M  V30 3359 C 318.742 0.34698 -2.25344 0
M  V30 3360 C 319.726 0.964469 -1.2879 0
M  V30 3361 O 320.918 0.8776 -1.53711 0
M  V30 3362 C 318.047 1.43042 -3.1208 0
M  V30 3363 C 317.133 0.82084 -4.16081 0
M  V30 3364 N 317.524 -0.0567602 -5.05768 0
M  V30 3365 C 315.822 1.08517 -4.32597 0
M  V30 3366 C 316.523 -0.402343 -5.80307 0
M  V30 3367 N 315.499 0.221607 -5.43148 0
M  V30 3368 H 319.301 -0.329129 -2.92051 0
M  V30 3369 H 316.815 -0.281508 -1.59942 0
M  V30 3370 H 318.812 2.02712 -3.64299 0
M  V30 3371 H 317.472 2.10856 -2.46921 0
M  V30 3372 H 318.483 -0.425349 -5.1615 0
M  V30 3373 H 315.16 1.75855 -3.78657 0
M  V30 3374 H 316.55 -1.11834 -6.62528 0
M  V30 3375 N 319.27 1.56325 -0.20005 0
M  V30 3376 C 320.547 1.89484 0.48529 0
M  V30 3377 C 320.927 1.1143 1.79294 0
M  V30 3378 O 320.275 0.216919 2.27468 0
M  V30 3379 C 320.485 3.41923 0.699243 0
M  V30 3380 C 321.833 4.12256 1.01638 0
M  V30 3381 O 322.857 3.47402 0.786792 0
M  V30 3382 O 321.716 5.26887 1.45095 0
M  V30 3383 H 318.81 0.787144 0.253639 0
M  V30 3384 H 321.356 1.67985 -0.240633 0
M  V30 3385 H 320.128 3.90658 -0.224008 0
M  V30 3386 H 319.751 3.69131 1.47744 0
M  V30 3387 N 320.748 -0.0735177 1.57428 0
M  V30 3388 C 322.025 -0.805903 1.78226 0
M  V30 3389 C 322.405 -1.95874 0.787189 0
M  V30 3390 O 321.753 -2.2779 -0.180029 0
M  V30 3391 C 321.963 -1.28045 3.24662 0
M  V30 3392 C 323.311 -1.71453 3.88444 0
M  V30 3393 O 324.335 -1.37616 3.28543 0
M  V30 3394 O 323.194 -2.34093 4.93825 0
M  V30 3395 H 320.288 -0.386041 0.73137 0
M  V30 3396 H 322.834 -0.0537269 1.69615 0
M  V30 3397 H 321.606 -0.455476 3.8864 0
M  V30 3398 H 321.229 -2.094 3.37991 0
M  V30 3399 N 322.226 -1.5378 -0.344866 0
M  V30 3400 C 323.637 -1.62428 -0.920552 0
M  V30 3401 C 323.988 -0.504747 -1.89596 0
M  V30 3402 O 323.113 0.365711 -2.13287 0
M  V30 3403 C 323.708 -2.94419 -1.67639 0
M  V30 3404 C 322.267 -3.05333 -2.20111 0
M  V30 3405 C 321.414 -2.57866 -1.01982 0
M  V30 3406 H 324.365 -1.58222 -0.123042 0
M  V30 3407 H 324.386 -2.83384 -2.53917 0
M  V30 3408 H 323.898 -3.7588 -0.966224 0
M  V30 3409 H 321.999 -2.28502 -2.94308 0
M  V30 3410 H 322.112 -4.10778 -2.46573 0
M  V30 3411 H 320.476 -2.13241 -1.39285 0
M  V30 3412 H 321.259 -3.41765 -0.324308 0
M  V30 3413 N 323.704 0.605807 -1.45491 0
M  V30 3414 C 324.614 1.74466 -1.56839 0
M  V30 3415 C 325.63 1.68006 -0.452772 0
M  V30 3416 O 326.806 1.8833 -0.713708 0
M  V30 3417 C 323.871 3.10931 -1.53371 0
M  V30 3418 C 322.932 3.28832 -2.75986 0
M  V30 3419 C 322.165 4.58787 -2.72673 0
M  V30 3420 O 322.388 5.4122 -1.80102 0
M  V30 3421 O 321.322 4.79438 -3.63899 0
M  V30 3422 H 325.148 1.67843 -2.53106 0
M  V30 3423 H 322.733 0.770108 -1.28022 0
M  V30 3424 H 324.615 3.92233 -1.54051 0
M  V30 3425 H 323.29 3.18042 -0.602572 0
M  V30 3426 H 322.197 2.47112 -2.80867 0
M  V30 3427 H 323.53 3.26599 -3.68231 0
M  V30 3428 N 325.182 1.32811 0.848464 0
M  V30 3429 C 326.429 1.23724 1.60308 0
M  V30 3430 C 326.757 -0.1994 1.93475 0
M  V30 3431 O 326.012 -1.15406 1.5805 0
M  V30 3432 C 326.311 2.04831 2.92881 0
M  V30 3433 C 325.977 3.54125 2.79117 0
M  V30 3434 C 324.639 3.94829 2.7507 0
M  V30 3435 C 326.991 4.49036 2.64606 0
M  V30 3436 C 324.319 5.28675 2.544 0
M  V30 3437 C 326.671 5.83033 2.4547 0
M  V30 3438 C 325.335 6.22931 2.39819 0
M  V30 3439 H 324.605 0.452737 0.586609 0
M  V30 3440 H 327.252 1.64301 0.983743 0
M  V30 3441 H 325.557 1.57001 3.58968 0
M  V30 3442 H 327.254 1.95164 3.50303 0
M  V30 3443 H 323.844 3.21801 2.83094 0
M  V30 3444 H 328.028 4.18505 2.66772 0
M  V30 3445 H 323.284 5.58637 2.48465 0
M  V30 3446 H 327.458 6.56186 2.33222 0
M  V30 3447 H 325.085 7.26584 2.23562 0
M  V30 3448 N 326.66 -1.06551 1.16123 0
M  V30 3449 C 328.076 -1.3142 0.905585 0
M  V30 3450 C 328.276 -1.96571 -0.442964 0
M  V30 3451 O 327.332 -2.23068 -1.18308 0
M  V30 3452 C 328.645 -2.19741 2.05267 0
M  V30 3453 C 330.193 -2.33165 2.08813 0
M  V30 3454 C 330.668 -3.24838 3.22868 0
M  V30 3455 N 332.159 -3.32421 3.22568 0
M  V30 3456 C 332.894 -4.0344 4.0746 0
M  V30 3457 N 332.39 -4.77003 5.02434 0
M  V30 3458 N 334.183 -3.99464 3.95456 0
M  V30 3459 H 326.334 -0.626548 2.02949 0
M  V30 3460 H 328.597 -0.338777 0.8854 0
M  V30 3461 H 328.303 -1.79142 3.02657 0
M  V30 3462 H 328.177 -3.20313 1.99198 0
M  V30 3463 H 330.564 -2.73013 1.12018 0
M  V30 3464 H 330.645 -1.3227 2.18948 0
M  V30 3465 H 330.289 -2.85708 4.19921 0
M  V30 3466 H 330.219 -4.25707 3.0997 0
M  V30 3467 H 332.71 -2.79994 2.53795 0
M  V30 3468 H 333.023 -5.28712 5.63634 0
M  V30 3469 H 331.368 -4.75992 5.06415 0
M  V30 3470 H 334.559 -3.4111 3.20564 0
M  V30 3471 H 334.732 -4.54544 4.61837 0
M  V30 3472 N 328.138 -0.959301 -1.25041 0
M  V30 3473 C 329.048 -0.489994 -2.29426 0
M  V30 3474 C 330.064 0.444944 -1.68215 0
M  V30 3475 O 331.24 0.320046 -1.98841 0
M  V30 3476 C 328.305 0.220309 -3.45999 0
M  V30 3477 C 327.366 -0.753418 -4.22637 0
M  V30 3478 C 326.599 -0.076918 -5.33645 0
M  V30 3479 O 326.822 1.13649 -5.58963 0
M  V30 3480 O 325.756 -0.764824 -5.97021 0
M  V30 3481 H 329.582 -1.35755 -2.71669 0
M  V30 3482 H 327.167 -0.725961 -1.30576 0
M  V30 3483 H 329.049 0.619677 -4.16819 0
M  V30 3484 H 327.724 1.06296 -3.0575 0
M  V30 3485 H 326.631 -1.20308 -3.54227 0
M  V30 3486 H 327.964 -1.56423 -4.66683 0
M  V30 3487 N 329.616 1.39756 -0.72842 0
M  V30 3488 C 330.546 2.33289 -0.0991354 0
M  V30 3489 C 331.527 1.53568 0.731489 0
M  V30 3490 O 332.712 1.81987 0.677807 0
M  V30 3491 C 329.842 3.3763 0.813834 0
M  V30 3492 C 328.796 4.2791 0.0878663 0
M  V30 3493 C 328.122 5.22894 1.11741 0
M  V30 3494 C 329.422 5.11314 -1.06563 0
M  V30 3495 H 331.116 2.86163 -0.880408 0
M  V30 3496 H 328.662 1.37591 -0.424819 0
M  V30 3497 H 330.615 4.0201 1.26355 0
M  V30 3498 H 329.339 2.83181 1.62715 0
M  V30 3499 H 327.998 3.65 -0.342159 0
M  V30 3500 H 327.646 4.64744 1.92412 0
M  V30 3501 H 327.346 5.84143 0.636477 0
M  V30 3502 H 328.87 5.90151 1.56697 0
M  V30 3503 H 330.284 5.69076 -0.694671 0
M  V30 3504 H 328.681 5.81671 -1.47577 0
M  V30 3505 H 329.751 4.46534 -1.89038 0
M  V30 3506 N 331.094 0.475555 1.50254 0
M  V30 3507 C 332.024 -0.30611 2.31485 0
M  V30 3508 C 333.005 -0.986228 1.38591 0
M  V30 3509 O 334.19 -0.982541 1.67511 0
M  V30 3510 C 331.32 -1.38588 3.1845 0
M  V30 3511 C 330.274 -0.827115 4.19932 0
M  V30 3512 C 329.6 -2.00551 4.95665 0
M  V30 3513 C 330.9 0.16463 5.2204 0
M  V30 3514 H 332.594 0.371866 2.97082 0
M  V30 3515 H 330.14 0.180282 1.42867 0
M  V30 3516 H 332.093 -1.94023 3.74076 0
M  V30 3517 H 330.817 -2.09269 2.50747 0
M  V30 3518 H 329.476 -0.294702 3.65414 0
M  V30 3519 H 329.124 -2.6994 4.2443 0
M  V30 3520 H 328.824 -1.63784 5.64313 0
M  V30 3521 H 330.348 -2.56468 5.54127 0
M  V30 3522 H 331.762 -0.300699 5.72511 0
M  V30 3523 H 330.159 0.446813 5.98434 0
M  V30 3524 H 331.229 1.08905 4.72512 0
M  V30 3525 N 332.573 -1.56217 0.208337 0
M  V30 3526 C 333.798 -2.02782 -0.435222 0
M  V30 3527 C 334.223 -1.08738 -1.53485 0
M  V30 3528 O 333.581 -0.0731855 -1.81152 0
M  V30 3529 C 333.629 -3.47687 -0.956335 0
M  V30 3530 O 332.733 -3.56773 -2.06849 0
M  V30 3531 H 332.074 -0.656403 -0.100158 0
M  V30 3532 H 334.604 -2.02033 0.3231 0
M  V30 3533 H 334.614 -3.87745 -1.26955 0
M  V30 3534 H 333.289 -4.15624 -0.15143 0
M  V30 3535 H 331.866 -3.28597 -1.76292 0
M  V30 3536 N 334.051 0.0651679 -1.57465 0
M  V30 3537 C 335.001 1.0838 -2.00594 0
M  V30 3538 C 335.985 1.34106 -0.889071 0
M  V30 3539 O 337.177 1.34295 -1.15299 0
M  V30 3540 C 334.306 2.39565 -2.45894 0
M  V30 3541 C 333.392 2.17085 -3.64328 0
M  V30 3542 N 333.783 1.64553 -4.78285 0
M  V30 3543 C 332.081 2.4753 -3.71006 0
M  V30 3544 C 332.782 1.57042 -5.60101 0
M  V30 3545 N 331.758 2.03328 -5.04141 0
M  V30 3546 H 335.56 0.671062 -2.86136 0
M  V30 3547 H 333.074 0.27213 -1.60104 0
M  V30 3548 H 335.071 3.13308 -2.75034 0
M  V30 3549 H 333.731 2.81549 -1.61741 0
M  V30 3550 H 334.742 1.33323 -5.00445 0
M  V30 3551 H 331.419 2.92835 -2.9758 0
M  V30 3552 H 332.809 1.17223 -6.61595 0
M  V30 3553 N 335.529 1.53961 0.336706 0
M  V30 3554 C 336.477 1.83136 1.43401 0
M  V30 3555 C 337.471 0.702313 1.54156 0
M  V30 3556 O 338.677 0.885765 1.56698 0
M  V30 3557 H 335.052 0.580309 0.478273 0
M  V30 3558 H 337.023 2.74925 1.16012 0
M  V30 3559 C 335.772 2.06385 2.79822 0
M  V30 3560 H 335.095 2.92718 2.72316 0
M  V30 3561 H 336.535 2.30761 3.55704 0
M  V30 3562 C 334.994 0.851414 3.25964 0
M  V30 3563 O 335.524 0.0541904 4.01663 0
M  V30 3564 N 333.73 0.66672 2.82848 0
M  V30 3565 H 333.277 1.31665 2.21409 0
M  V30 3566 H 333.235 -0.143032 3.14074 0
M  V30 3567 N 337.007 -0.598083 1.45811 0
M  V30 3568 C 337.917 -1.73632 1.57763 0
M  V30 3569 C 338.933 -1.67763 0.461676 0
M  V30 3570 O 340.109 -1.87949 0.723685 0
M  V30 3571 C 337.174 -3.10114 1.55018 0
M  V30 3572 C 336.235 -3.27364 2.77726 0
M  V30 3573 C 335.468 -4.57334 2.75102 0
M  V30 3574 O 335.691 -5.40258 1.8297 0
M  V30 3575 O 334.625 -4.77502 3.66437 0
M  V30 3576 H 338.451 -1.66498 2.53992 0
M  V30 3577 H 336.036 -0.763308 1.28429 0
M  V30 3578 H 337.918 -3.9141 1.56129 0
M  V30 3579 H 336.593 -3.17718 0.619431 0
M  V30 3580 H 335.5 -2.45619 2.82174 0
M  V30 3581 H 336.833 -3.24641 3.69958 0
M  V30 3582 N 338.485 -1.33259 -0.841409 0
M  V30 3583 C 339.395 -1.25332 -1.98316 0
M  V30 3584 C 340.411 -0.164364 -1.73222 0
M  V30 3585 O 341.587 -0.387486 -1.97637 0
M  V30 3586 C 338.652 -0.990078 -3.32262 0
M  V30 3587 C 337.713 -2.16879 -3.70489 0
M  V30 3588 C 336.946 -1.91801 -4.98044 0
M  V30 3589 O 337.169 -0.867075 -5.63771 0
M  V30 3590 O 336.103 -2.78267 -5.33714 0
M  V30 3591 H 339.929 -2.21344 -2.07944 0
M  V30 3592 H 337.514 -1.1328 -0.974058 0
M  V30 3593 H 339.396 -0.860321 -4.12524 0
M  V30 3594 H 338.071 -0.0602155 -3.23644 0
M  V30 3595 H 336.978 -2.35407 -2.90748 0
M  V30 3596 H 338.311 -3.0819 -3.8377 0
M  V30 3597 N 339.963 1.05934 -1.16686 0
M  V30 3598 C 341.21 1.788 -0.950622 0
M  V30 3599 C 341.538 1.87384 0.521305 0
M  V30 3600 O 340.793 1.36438 1.40297 0
M  V30 3601 C 341.092 3.23105 -1.52767 0
M  V30 3602 C 340.758 3.34594 -3.02254 0
M  V30 3603 C 339.42 3.37437 -3.43059 0
M  V30 3604 C 341.772 3.36219 -3.98254 0
M  V30 3605 C 339.1 3.39525 -4.78477 0
M  V30 3606 C 341.452 3.39845 -5.33562 0
M  V30 3607 C 340.116 3.40971 -5.73842 0
M  V30 3608 H 339.386 0.654275 -0.347857 0
M  V30 3609 H 342.033 1.24555 -1.45459 0
M  V30 3610 H 340.338 3.80227 -0.94524 0
M  V30 3611 H 342.035 3.7809 -1.336 0
M  V30 3612 H 338.625 3.3309 -2.6972 0
M  V30 3613 H 342.809 3.33231 -3.67792 0
M  V30 3614 H 338.065 3.38703 -5.09009 0
M  V30 3615 H 342.239 3.4005 -6.07733 0
M  V30 3616 H 339.866 3.42342 -6.78753 0
M  V30 3617 N 341.441 0.965919 1.2453 0
M  V30 3618 C 342.689 0.625593 1.92174 0
M  V30 3619 C 343.01 -0.841652 1.75901 0
M  V30 3620 O 342.28 -1.60061 1.12948 0
M  V30 3621 H 340.86 0.228388 0.71123 0
M  V30 3622 H 343.522 1.2266 1.51461 0
M  V30 3623 H 342.618 0.864653 2.99884 0
M  V30 3624 N 342.919 -1.39368 0.735821 0
M  V30 3625 C 344.335 -1.54204 0.411492 0
M  V30 3626 C 344.535 -1.70268 -1.07755 0
M  V30 3627 O 343.591 -1.70364 -1.86366 0
M  V30 3628 C 344.904 -2.75925 1.19523 0
M  V30 3629 C 346.452 -2.89761 1.18354 0
M  V30 3630 C 346.927 -4.14421 1.94986 0
M  V30 3631 N 348.418 -4.21462 1.92156 0
M  V30 3632 C 349.153 -5.16871 2.48258 0
M  V30 3633 N 348.649 -6.18063 3.13001 0
M  V30 3634 N 350.442 -5.09093 2.38287 0
M  V30 3635 H 342.593 -1.27189 1.70108 0
M  V30 3636 H 344.856 -0.616517 0.720147 0
M  V30 3637 H 344.562 -2.70401 2.24892 0
M  V30 3638 H 344.436 -3.68614 0.800222 0
M  V30 3639 H 346.823 -2.94777 0.137975 0
M  V30 3640 H 346.904 -1.98133 1.61793 0
M  V30 3641 H 346.548 -4.10166 2.99543 0
M  V30 3642 H 346.478 -5.05095 1.48953 0
M  V30 3643 H 348.969 -3.48979 1.44991 0
M  V30 3644 H 349.282 -6.87326 3.53275 0
M  V30 3645 H 347.627 -6.18448 3.17091 0
M  V30 3646 H 350.818 -4.28973 1.8735 0
M  V30 3647 H 350.991 -5.83272 2.82308 0
M  V30 3648 N 344.397 -0.483516 -1.5 0
M  V30 3649 C 345.625 0.0644831 -2.06799 0
M  V30 3650 C 346.04 1.32399 -1.34596 0
M  V30 3651 O 345.397 1.77626 -0.418946 0
M  V30 3652 C 345.448 0.339927 -3.59898 0
M  V30 3653 O 345.169 -0.869635 -4.29382 0
M  V30 3654 C 346.67 0.933515 -4.33359 0
M  V30 3655 H 343.89 -0.0126333 -0.670881 0
M  V30 3656 H 346.434 -0.675864 -1.93009 0
M  V30 3657 H 344.589 1.03022 -3.7345 0
M  V30 3658 H 345.003 -0.62179 -5.20801 0
M  V30 3659 H 346.477 1.07593 -5.41413 0
M  V30 3660 H 346.954 1.92685 -3.94676 0
M  V30 3661 H 347.56 0.281221 -4.24369 0
M  V30 3662 N 345.875 1.56104 -0.216619 0
M  V30 3663 C 347.121 1.98466 0.417033 0
M  V30 3664 C 347.454 1.10403 1.59765 0
M  V30 3665 O 346.729 0.160632 1.93836 0
M  V30 3666 C 347.012 3.49769 0.85637 0
M  V30 3667 C 346.865 4.48606 -0.327546 0
M  V30 3668 C 348.184 4.05339 1.7143 0
M  V30 3669 H 345.303 0.721551 0.150112 0
M  V30 3670 H 347.945 1.87423 -0.311864 0
M  V30 3671 H 346.095 3.5931 1.47745 0
M  V30 3672 H 347.767 4.5108 -0.965618 0
M  V30 3673 H 346.01 4.22682 -0.975805 0
M  V30 3674 H 346.681 5.51995 0.0227149 0
M  V30 3675 H 349.157 3.98712 1.19031 0
M  V30 3676 H 348.033 5.11533 1.99061 0
M  V30 3677 H 348.294 3.51918 2.67593 0
M  V30 3678 N 347.353 -0.0568162 1.57498 0
M  V30 3679 C 348.601 -0.751617 1.87604 0
M  V30 3680 C 348.922 -1.77351 0.81066 0
M  V30 3681 O 348.192 -1.95254 -0.159018 0
M  V30 3682 H 346.772 -0.280583 0.692302 0
M  V30 3683 H 349.434 -0.0293483 1.94878 0
M  V30 3684 H 348.53 -1.25852 2.856 0
M  V30 3685 N 348.832 -1.54138 -0.328536 0
M  V30 3686 C 349.795 -1.82462 -1.38709 0
M  V30 3687 C 350.795 -0.696229 -1.44946 0
M  V30 3688 O 351.985 -0.964535 -1.4506 0
M  V30 3689 C 349.117 -1.98018 -2.77492 0
M  V30 3690 H 350.31 -2.77037 -1.14851 0
M  V30 3691 H 347.863 -1.45779 -0.563751 0
M  V30 3692 H 348.598 -1.05637 -3.06613 0
M  V30 3693 H 348.383 -2.80124 -2.74359 0
M  V30 3694 H 349.873 -2.21396 -3.54081 0
M  V30 3695 N 350.31 0.590341 -1.46126 0
M  V30 3696 C 351.558 1.34616 -1.50742 0
M  V30 3697 C 351.879 1.94363 -0.157486 0
M  V30 3698 O 351.149 1.78136 0.815136 0
M  V30 3699 H 349.729 0.499789 -0.555175 0
M  V30 3700 H 352.391 0.691953 -1.82203 0
M  V30 3701 H 351.487 2.15678 -2.25587 0
M  V30 3702 N 351.788 1.33704 0.83433 0
M  V30 3703 C 353.013 1.28615 1.62705 0
M  V30 3704 C 353.438 -0.139242 1.87584 0
M  V30 3705 O 352.796 -1.09734 1.4432 0
M  V30 3706 C 352.844 2.07139 2.95171 0
M  V30 3707 O 351.948 1.4331 3.86699 0
M  V30 3708 H 351.289 0.44226 0.49528 0
M  V30 3709 H 353.819 1.76335 1.03766 0
M  V30 3710 H 353.829 2.18073 3.44831 0
M  V30 3711 H 352.504 3.10779 2.76386 0
M  V30 3712 H 351.081 1.4105 3.45195 0
M  V30 3713 N 353.266 -1.05314 1.17247 0
M  V30 3714 C 354.196 -2.1498 0.911362 0
M  V30 3715 C 355.177 -1.69471 -0.146169 0
M  V30 3716 O 356.362 -1.942 0.003812 0
M  V30 3717 C 353.492 -3.4472 0.422528 0
M  V30 3718 C 352.446 -4.03789 1.4191 0
M  V30 3719 C 351.772 -5.28858 0.788274 0
M  V30 3720 C 353.072 -4.41418 2.7919 0
M  V30 3721 H 354.766 -2.3708 1.82848 0
M  V30 3722 H 352.312 -1.13938 0.880569 0
M  V30 3723 H 354.265 -4.20787 0.227289 0
M  V30 3724 H 352.989 -3.22269 -0.530123 0
M  V30 3725 H 351.648 -3.2979 1.60106 0
M  V30 3726 H 351.296 -5.02709 -0.171173 0
M  V30 3727 H 350.996 -5.69338 1.45353 0
M  V30 3728 H 352.52 -6.07612 0.603282 0
M  V30 3729 H 353.934 -5.08524 2.64719 0
M  V30 3730 H 352.331 -4.92913 3.42282 0
M  V30 3731 H 353.401 -3.51819 3.33693 0
M  V30 3732 N 354.744 -0.972509 -1.24016 0
M  V30 3733 C 355.99 -0.637978 -1.92504 0
M  V30 3734 C 356.323 0.825383 -1.75787 0
M  V30 3735 O 355.598 1.59442 -1.11393 0
M  V30 3736 C 355.881 -1.01942 -3.45369 0
M  V30 3737 C 355.734 -2.53983 -3.71231 0
M  V30 3738 C 357.053 -0.55751 -4.36555 0
M  V30 3739 H 354.172 -0.233248 -0.699117 0
M  V30 3740 H 356.814 -1.21238 -1.46292 0
M  V30 3741 H 354.964 -0.530656 -3.84859 0
M  V30 3742 H 356.636 -3.10374 -3.41271 0
M  V30 3743 H 354.879 -2.96968 -3.16216 0
M  V30 3744 H 355.55 -2.75723 -4.78206 0
M  V30 3745 H 358.026 -0.977029 -4.04467 0
M  V30 3746 H 356.902 -0.85292 -5.42233 0
M  V30 3747 H 357.163 0.542328 -4.38761 0
M  V30 3748 N 356.222 1.38976 -0.743202 0
M  V30 3749 C 357.499 1.94351 -0.220705 0
M  V30 3750 C 357.879 1.67935 1.2791 0
M  V30 3751 O 357.227 1.01211 2.04862 0
M  V30 3752 C 357.437 3.44426 -0.563171 0
M  V30 3753 C 358.785 4.2144 -0.517046 0
M  V30 3754 O 359.809 3.52661 -0.500846 0
M  V30 3755 O 358.668 5.44032 -0.518806 0
M  V30 3756 H 355.762 0.825879 -0.043047 0
M  V30 3757 H 358.308 1.48429 -0.822618 0
M  V30 3758 H 357.08 3.5712 -1.59941 0
M  V30 3759 H 356.703 3.97543 0.0672883 0
M  V30 3760 N 357.7 0.491464 1.49741 0
M  V30 3761 C 358.946 -0.0565092 2.02721 0
M  V30 3762 C 359.279 -1.37522 1.37118 0
M  V30 3763 O 358.554 -1.87866 0.503645 0
M  V30 3764 C 358.837 -0.219051 3.59433 0
M  V30 3765 C 358.69 1.12211 4.35579 0
M  V30 3766 C 360.009 -0.964157 4.29409 0
M  V30 3767 H 357.128 -0.0190627 0.736753 0
M  V30 3768 H 359.77 0.641021 1.7886 0
M  V30 3769 H 357.92 -0.813165 3.79895 0
M  V30 3770 H 359.592 1.75437 4.26637 0
M  V30 3771 H 357.835 1.71377 3.98513 0
M  V30 3772 H 358.506 0.961794 5.43556 0
M  V30 3773 H 360.982 -0.460378 4.13545 0
M  V30 3774 H 359.858 -1.04671 5.38828 0
M  V30 3775 H 360.119 -2.00563 3.93988 0
M  V30 3776 N 359.178 -1.55987 0.224894 0
M  V30 3777 C 360.111 -2.16413 -0.723929 0
M  V30 3778 C 361.089 -1.10952 -1.18863 0
M  V30 3779 O 362.273 -1.39225 -1.27077 0
M  V30 3780 C 359.4 -2.74711 -1.98121 0
M  V30 3781 C 358.446 -3.9303 -1.6562 0
M  V30 3782 S 359.279 -5.29817 -0.778058 0
M  V30 3783 C 360.435 -5.91555 -2.04483 0
M  V30 3784 H 360.668 -2.96555 -0.210347 0
M  V30 3785 H 358.201 -1.54397 0.00955457 0
M  V30 3786 H 360.159 -3.08938 -2.70311 0
M  V30 3787 H 358.82 -1.94555 -2.46591 0
M  V30 3788 H 358.013 -4.32334 -2.59043 0
M  V30 3789 H 357.615 -3.59966 -1.01491 0
M  V30 3790 H 359.907 -6.07732 -2.99446 0
M  V30 3791 H 360.85 -6.87498 -1.69563 0
M  V30 3792 H 361.258 -5.20419 -2.18688 0
M  V30 3793 N 360.656 0.0484629 -1.57525 0
M  V30 3794 C 362.067 0.597486 -1.76881 0
M  V30 3795 C 362.418 1.76664 -0.853475 0
M  V30 3796 O 361.543 2.16357 -0.0433656 0
M  V30 3797 C 362.138 1.09066 -3.20765 0
M  V30 3798 C 360.697 1.58535 -3.41385 0
M  V30 3799 C 359.844 0.514868 -2.72478 0
M  V30 3800 H 362.795 -0.177758 -1.57701 0
M  V30 3801 H 362.816 1.95875 -3.2621 0
M  V30 3802 H 362.328 0.239521 -3.8736 0
M  V30 3803 H 360.429 2.45898 -2.79937 0
M  V30 3804 H 360.542 1.64622 -4.49929 0
M  V30 3805 H 358.906 0.965407 -2.35695 0
M  V30 3806 H 359.689 -0.32648 -3.41744 0
M  V30 3807 N 362.134 1.5431 0.320358 0
M  V30 3808 C 363.38 1.73859 1.05568 0
M  V30 3809 C 363.735 0.507807 1.85578 0
M  V30 3810 O 363.028 -0.499789 1.84967 0
M  V30 3811 C 363.222 2.95639 2.00828 0
M  V30 3812 C 363.051 4.30444 1.30186 0
M  V30 3813 C 361.821 4.94544 1.03703 0
M  V30 3814 C 364.019 5.0929 0.716138 0
M  V30 3815 N 362.001 6.13172 0.298846 0
M  V30 3816 C 363.372 6.19903 0.109729 0
M  V30 3817 C 365.427 4.94034 0.619269 0
M  V30 3818 C 364.13 7.16924 -0.584153 0
M  V30 3819 C 366.156 5.91369 -0.0609184 0
M  V30 3820 C 365.518 7.01336 -0.656258 0
M  V30 3821 H 361.617 0.688988 0.36989 0
M  V30 3822 H 364.201 1.9177 0.336494 0
M  V30 3823 H 362.372 2.79188 2.70016 0
M  V30 3824 H 364.104 3.03802 2.6737 0
M  V30 3825 H 360.859 4.54536 1.33019 0
M  V30 3826 H 361.283 6.76977 -0.0561964 0
M  V30 3827 H 365.925 4.0916 1.06526 0
M  V30 3828 H 363.643 8.01354 -1.04197 0
M  V30 3829 H 367.229 5.81642 -0.135552 0
M  V30 3830 H 366.109 7.75359 -1.17423 0
M  V30 3831 N 363.613 -0.582584 1.46437 0
M  V30 3832 C 364.543 -1.70187 1.59871 0
M  V30 3833 C 365.524 -1.64066 0.449042 0
M  V30 3834 O 366.709 -1.82081 0.6753 0
M  V30 3835 C 363.839 -3.08827 1.58881 0
M  V30 3836 C 362.793 -3.29779 2.72819 0
M  V30 3837 C 362.119 -4.68947 2.5689 0
M  V30 3838 C 363.419 -3.17601 4.1464 0
M  V30 3839 H 365.113 -1.592 2.53566 0
M  V30 3840 H 362.659 -0.764472 1.22032 0
M  V30 3841 H 364.612 -3.86951 1.66873 0
M  V30 3842 H 363.336 -3.20713 0.617306 0
M  V30 3843 H 361.995 -2.54054 2.64296 0
M  V30 3844 H 361.643 -4.77599 1.57823 0
M  V30 3845 H 361.343 -4.83919 3.33312 0
M  V30 3846 H 362.867 -5.4924 2.66773 0
M  V30 3847 H 364.281 -3.8557 4.24274 0
M  V30 3848 H 362.678 -3.44094 4.9165 0
M  V30 3849 H 363.748 -2.14681 4.34788 0
M  V30 3850 N 365.091 -1.34144 -0.827227 0
M  V30 3851 C 366.023 -1.21206 -1.9453 0
M  V30 3852 C 367.036 -0.140176 -1.62195 0
M  V30 3853 O 368.225 -0.391647 -1.7415 0
M  V30 3854 C 365.325 -0.839141 -3.28347 0
M  V30 3855 C 364.498 -2.0051 -3.88734 0
M  V30 3856 C 363.557 -1.61128 -5.00923 0
M  V30 3857 O 362.583 -2.32726 -5.19449 0
M  V30 3858 N 363.785 -0.522958 -5.7814 0
M  V30 3859 H 366.55 -2.17525 -2.06162 0
M  V30 3860 H 364.111 -1.27043 -1.00358 0
M  V30 3861 H 366.103 -0.557556 -4.00841 0
M  V30 3862 H 364.673 0.0337293 -3.12582 0
M  V30 3863 H 363.893 -2.45166 -3.08686 0
M  V30 3864 H 365.181 -2.78498 -4.25812 0
M  V30 3865 H 364.579 0.0723518 -5.65654 0
M  V30 3866 H 363.136 -0.301089 -6.51104 0
M  V30 3867 N 366.569 1.04691 -1.17803 0
M  V30 3868 C 367.799 1.81183 -0.992788 0
M  V30 3869 C 368.207 1.8347 0.462098 0
M  V30 3870 O 367.55 1.2643 1.33271 0
M  V30 3871 C 367.612 3.28363 -1.46349 0
M  V30 3872 C 367.276 3.49749 -2.94151 0
M  V30 3873 C 368.273 3.41456 -3.92051 0
M  V30 3874 C 365.958 3.76548 -3.32441 0
M  V30 3875 C 367.952 3.59656 -5.26238 0
M  V30 3876 C 365.639 3.94396 -4.66792 0
M  V30 3877 C 366.637 3.8595 -5.635 0
M  V30 3878 O 366.325 4.03294 -6.9542 0
M  V30 3879 H 366.057 0.577622 -0.351182 0
M  V30 3880 H 368.611 1.32876 -1.5663 0
M  V30 3881 H 366.841 3.77609 -0.833574 0
M  V30 3882 H 368.53 3.86395 -1.24313 0
M  V30 3883 H 369.296 3.20723 -3.63815 0
M  V30 3884 H 365.175 3.82224 -2.57732 0
M  V30 3885 H 368.719 3.52979 -6.01707 0
M  V30 3886 H 364.616 4.14622 -4.94731 0
M  V30 3887 H 365.384 4.2049 -7.02232 0
M  V30 3888 N 368.047 0.979072 1.23499 0
M  V30 3889 C 369.294 0.647219 1.91878 0
M  V30 3890 C 369.622 -0.819074 1.76413 0
M  V30 3891 O 368.877 -1.60616 1.11808 0
M  V30 3892 C 369.176 0.981932 3.43646 0
M  V30 3893 C 368.842 2.43822 3.79291 0
M  V30 3894 C 367.504 2.83622 3.88731 0
M  V30 3895 C 369.856 3.3828 3.96505 0
M  V30 3896 C 367.184 4.16897 4.12812 0
M  V30 3897 C 369.536 4.71197 4.22085 0
M  V30 3898 C 368.2 5.10758 4.29747 0
M  V30 3899 H 367.47 0.236834 0.702133 0
M  V30 3900 H 370.117 1.23268 1.46551 0
M  V30 3901 H 368.422 0.314365 3.90537 0
M  V30 3902 H 370.119 0.703395 3.94783 0
M  V30 3903 H 366.709 2.11966 3.72516 0
M  V30 3904 H 370.893 3.0871 3.88603 0
M  V30 3905 H 366.149 4.47157 4.16966 0
M  V30 3906 H 370.323 5.44348 4.34348 0
M  V30 3907 H 367.95 6.1405 4.48159 0
M  V30 3908 N 369.525 -1.3858 0.750561 0
M  V30 3909 C 370.936 -1.82927 0.373438 0
M  V30 3910 C 371.287 -1.62634 -1.09748 0
M  V30 3911 O 370.412 -1.12588 -1.84805 0
M  V30 3912 C 371.007 -3.32088 0.671029 0
M  V30 3913 C 369.566 -3.74795 0.34722 0
M  V30 3914 C 368.713 -2.61391 0.92575 0
M  V30 3915 H 371.664 -1.27351 0.946958 0
M  V30 3916 H 371.685 -3.80465 -0.0518269 0
M  V30 3917 H 371.197 -3.46826 1.74164 0
M  V30 3918 H 369.298 -3.65638 -0.716933 0
M  V30 3919 H 369.411 -4.71667 0.840656 0
M  V30 3920 H 367.775 -2.52265 0.351327 0
M  V30 3921 H 368.558 -2.78929 2.00133 0
M  V30 3922 N 371.003 -0.499398 -1.49478 0
M  V30 3923 C 371.951 0.293604 -2.3074 0
M  V30 3924 C 372.945 0.96427 -1.39277 0
M  V30 3925 O 374.151 0.892141 -1.56336 0
M  V30 3926 H 370.526 0.113541 -0.743379 0
M  V30 3927 H 372.497 -0.411772 -2.95545 0
M  V30 3928 C 371.246 1.3462 -3.20582 0
M  V30 3929 H 370.569 0.83954 -3.90886 0
M  V30 3930 H 372.009 1.87308 -3.80384 0
M  V30 3931 C 370.468 2.36351 -2.40083 0
M  V30 3932 O 370.998 3.422 -2.10385 0
M  V30 3933 N 369.204 2.0878 -2.02137 0
M  V30 3934 H 368.751 1.22723 -2.26488 0
M  V30 3935 H 368.709 2.77075 -1.48583 0
M  V30 3936 N 372.481 1.55866 -0.233164 0
M  V30 3937 C 373.892 1.847 0.272554 0
M  V30 3938 C 374.243 1.15477 1.58617 0
M  V30 3939 O 373.368 0.42841 2.12117 0
M  V30 3940 C 373.963 3.35071 0.501299 0
M  V30 3941 C 372.522 3.6418 0.951304 0
M  V30 3942 C 371.669 2.77292 0.0208209 0
M  V30 3943 H 374.62 1.52005 -0.456074 0
M  V30 3944 H 374.641 3.55906 1.34577 0
M  V30 3945 H 374.153 3.85424 -0.454936 0
M  V30 3946 H 372.254 3.19293 1.92049 0
M  V30 3947 H 372.367 4.72071 0.817675 0
M  V30 3948 H 370.731 2.49131 0.529723 0
M  V30 3949 H 371.514 3.30448 -0.93054 0
M  V30 3950 N 373.959 -0.0401083 1.57549 0
M  V30 3951 C 375.205 -0.734211 1.89043 0
M  V30 3952 C 375.538 -1.75591 0.829535 0
M  V30 3953 O 374.813 -1.93868 -0.156706 0
M  V30 3954 C 375.096 -1.41374 3.31188 0
M  V30 3955 C 374.949 -0.406299 4.47961 0
M  V30 3956 C 376.268 -2.35061 3.72068 0
M  V30 3957 H 373.387 -0.265447 0.687537 0
M  V30 3958 H 376.029 0.00294087 1.9 0
M  V30 3959 H 374.179 -2.04206 3.30503 0
M  V30 3960 H 375.851 0.219255 4.60779 0
M  V30 3961 H 374.094 0.275485 4.32924 0
M  V30 3962 H 374.765 -0.920022 5.44279 0
M  V30 3963 H 377.241 -1.82282 3.74049 0
M  V30 3964 H 376.117 -2.79593 4.72355 0
M  V30 3965 H 376.378 -3.21258 3.0372 0
M  V30 3966 N 375.437 -1.54477 -0.31217 0
M  V30 3967 C 376.853 -1.45442 -0.657185 0
M  V30 3968 C 377.053 -0.63653 -1.91182 0
M  V30 3969 O 376.109 -0.139815 -2.52113 0
M  V30 3970 C 377.422 -2.89287 -0.82058 0
M  V30 3971 C 378.97 -2.9926 -0.917188 0
M  V30 3972 C 379.445 -4.44279 -1.11267 0
M  V30 3973 N 380.936 -4.4794 -1.17914 0
M  V30 3974 C 381.671 -5.57318 -1.34848 0
M  V30 3975 N 381.167 -6.76642 -1.48752 0
M  V30 3976 N 382.96 -5.44986 -1.37647 0
M  V30 3977 H 375.111 -2.06129 0.512313 0
M  V30 3978 H 377.374 -0.933088 0.167485 0
M  V30 3979 H 377.08 -3.51687 0.0302604 0
M  V30 3980 H 376.954 -3.36061 -1.71298 0
M  V30 3981 H 379.341 -2.36981 -1.75852 0
M  V30 3982 H 379.422 -2.558 -0.00101257 0
M  V30 3983 H 379.066 -5.07149 -0.27614 0
M  V30 3984 H 378.996 -4.85359 -2.04289 0
M  V30 3985 H 381.487 -3.61969 -1.08567 0
M  V30 3986 H 381.8 -7.55758 -1.61397 0
M  V30 3987 H 380.145 -6.79529 -1.45828 0
M  V30 3988 H 383.336 -4.50715 -1.26388 0
M  V30 3989 H 383.509 -6.3028 -1.50501 0
M  V30 3990 N 376.915 0.57481 -1.46744 0
M  V30 3991 C 378.143 1.35856 -1.56047 0
M  V30 3992 C 378.558 1.87691 -0.204365 0
M  V30 3993 O 377.915 1.64049 0.79963 0
M  V30 3994 C 377.966 2.54066 -2.57163 0
M  V30 3995 O 377.687 2.04377 -3.87507 0
M  V30 3996 C 379.188 3.46514 -2.76483 0
M  V30 3997 H 376.408 0.414754 -0.527466 0
M  V30 3998 H 378.952 0.698035 -1.92218 0
M  V30 3999 H 377.107 3.16092 -2.23974 0
M  V30 4000 H 377.521 2.81419 -4.4261 0
M  V30 4001 H 378.995 4.25919 -3.51137 0
M  V30 4002 H 379.472 3.98951 -1.83671 0
M  V30 4003 H 380.078 2.90318 -3.10799 0
M  V30 4004 N 378.394 1.34581 0.820102 0
M  V30 4005 C 379.64 1.27285 1.57881 0
M  V30 4006 C 379.973 -0.156137 1.93571 0
M  V30 4007 O 379.248 -1.10222 1.60254 0
M  V30 4008 C 379.531 2.16639 2.87645 0
M  V30 4009 C 379.384 3.68088 2.58517 0
M  V30 4010 C 380.703 2.05378 3.8924 0
M  V30 4011 H 377.822 0.463714 0.572833 0
M  V30 4012 H 380.464 1.64859 0.944539 0
M  V30 4013 H 378.614 1.84725 3.41773 0
M  V30 4014 H 380.286 4.10382 2.10676 0
M  V30 4015 H 378.529 3.89038 1.91917 0
M  V30 4016 H 379.2 4.2598 3.51063 0
M  V30 4017 H 381.676 2.33404 3.44473 0
M  V30 4018 H 380.552 2.7012 4.77835 0
M  V30 4019 H 380.813 1.0316 4.29896 0
M  V30 4020 N 379.872 -1.04064 1.18357 0
M  V30 4021 C 381.119 -1.77265 0.978947 0
M  V30 4022 C 381.447 -1.88189 -0.491428 0
M  V30 4023 O 380.702 -1.38653 -1.38108 0
M  V30 4024 C 381.001 -3.20634 1.57888 0
M  V30 4025 C 380.667 -3.29743 3.07539 0
M  V30 4026 C 379.329 -3.31937 3.48384 0
M  V30 4027 C 381.681 -3.29841 4.03552 0
M  V30 4028 C 379.009 -3.3187 4.83818 0
M  V30 4029 C 381.361 -3.31313 5.38901 0
M  V30 4030 C 380.025 -3.31799 5.79194 0
M  V30 4031 H 379.295 -0.648659 0.358222 0
M  V30 4032 H 381.942 -1.22225 1.47422 0
M  V30 4033 H 380.247 -3.78675 1.00561 0
M  V30 4034 H 381.944 -3.75917 1.39598 0
M  V30 4035 H 378.534 -3.28757 2.74986 0
M  V30 4036 H 382.718 -3.27337 3.73047 0
M  V30 4037 H 377.974 -3.30562 5.14333 0
M  V30 4038 H 382.148 -3.30338 6.13066 0
M  V30 4039 H 379.775 -3.315 6.84114 0
M  V30 4040 N 381.35 -0.985608 -1.22978 0
M  V30 4041 C 382.766 -0.695104 -1.43668 0
M  V30 4042 C 382.966 0.736866 -1.87543 0
M  V30 4043 O 382.022 1.50868 -2.02473 0
M  V30 4044 C 383.335 -1.69447 -2.48412 0
M  V30 4045 C 384.883 -1.70909 -2.62219 0
M  V30 4046 C 385.358 -2.6969 -3.70178 0
M  V30 4047 N 386.849 -2.6824 -3.77626 0
M  V30 4048 C 387.584 -3.41339 -4.60733 0
M  V30 4049 N 387.08 -4.24015 -5.4789 0
M  V30 4050 N 388.873 -3.30079 -4.54977 0
M  V30 4051 H 381.024 -1.91054 -0.928016 0
M  V30 4052 H 383.287 -0.823553 -0.469536 0
M  V30 4053 H 382.993 -2.7188 -2.23102 0
M  V30 4054 H 382.867 -1.48147 -3.46889 0
M  V30 4055 H 385.254 -0.691785 -2.86877 0
M  V30 4056 H 385.335 -1.96276 -1.6404 0
M  V30 4057 H 384.979 -3.71566 -3.46268 0
M  V30 4058 H 384.909 -2.41595 -4.67909 0
M  V30 4059 H 387.4 -2.08243 -3.15346 0
M  V30 4060 H 387.713 -4.76636 -6.08308 0
M  V30 4061 H 386.058 -4.28104 -5.47496 0
M  V30 4062 H 389.249 -2.64937 -3.85909 0
M  V30 4063 H 389.422 -3.87308 -5.19516 0
M  V30 4064 N 382.828 1.3818 -0.7579 0
M  V30 4065 C 383.738 2.3421 -0.135247 0
M  V30 4066 C 384.754 1.59487 0.695683 0
M  V30 4067 O 385.93 1.91657 0.618832 0
M  V30 4068 C 382.995 3.3862 0.744139 0
M  V30 4069 C 382.056 4.2918 -0.101658 0
M  V30 4070 C 381.289 5.28603 0.735851 0
M  V30 4071 O 381.512 5.35166 1.97366 0
M  V30 4072 O 380.446 6.01707 0.152372 0
M  V30 4073 H 384.272 2.8916 -0.928436 0
M  V30 4074 H 381.857 1.40101 -0.518855 0
M  V30 4075 H 383.739 4.02539 1.2466 0
M  V30 4076 H 382.414 2.86019 1.51575 0
M  V30 4077 H 381.321 3.68407 -0.650167 0
M  V30 4078 H 382.654 4.85048 -0.836024 0
M  V30 4079 N 384.306 0.507319 1.49211 0
M  V30 4080 C 385.553 -0.0349529 2.0247 0
M  V30 4081 C 385.881 -1.36409 1.38647 0
M  V30 4082 O 385.136 -1.88841 0.513566 0
M  V30 4083 C 385.435 -0.229513 3.56662 0
M  V30 4084 C 385.101 1.02241 4.39156 0
M  V30 4085 C 383.763 1.36557 4.61417 0
M  V30 4086 C 386.115 1.85428 4.871 0
M  V30 4087 C 383.443 2.53999 5.28868 0
M  V30 4088 C 385.795 3.02028 5.55843 0
M  V30 4089 C 384.459 3.36717 5.76349 0
M  V30 4090 H 383.729 -0.0127902 0.74089 0
M  V30 4091 H 386.376 0.668756 1.79443 0
M  V30 4092 H 384.681 -1.0158 3.78403 0
M  V30 4093 H 386.378 -0.663641 3.9547 0
M  V30 4094 H 382.968 0.745124 4.22073 0
M  V30 4095 H 387.152 1.6023 4.69723 0
M  V30 4096 H 382.408 2.81105 5.42946 0
M  V30 4097 H 386.582 3.66808 5.91967 0
M  V30 4098 H 384.209 4.27821 6.28389 0
M  V30 4099 N 385.784 -1.5574 0.241426 0
M  V30 4100 C 386.694 -2.2479 -0.671305 0
M  V30 4101 C 387.71 -1.26217 -1.19772 0
M  V30 4102 O 388.886 -1.59079 -1.23514 0
M  V30 4103 C 385.951 -2.92966 -1.85396 0
M  V30 4104 C 385.012 -4.06935 -1.36756 0
M  V30 4105 C 384.245 -4.71851 -2.49384 0
M  V30 4106 O 384.468 -4.35823 -3.67987 0
M  V30 4107 O 383.402 -5.60467 -2.19454 0
M  V30 4108 H 387.228 -3.0349 -0.112966 0
M  V30 4109 H 384.813 -1.49397 0.0101513 0
M  V30 4110 H 386.695 -3.35927 -2.54423 0
M  V30 4111 H 385.37 -2.17211 -2.40002 0
M  V30 4112 H 384.277 -3.68503 -0.644726 0
M  V30 4113 H 385.61 -4.84492 -0.867647 0
M  V30 4114 N 387.262 0.0317525 -1.57568 0
M  V30 4115 C 388.194 1.06073 -2.03178 0
M  V30 4116 C 389.207 1.32627 -0.944132 0
M  V30 4117 O 390.396 1.30162 -1.22148 0
M  V30 4118 C 387.496 2.40297 -2.38978 0
M  V30 4119 C 386.669 2.33137 -3.70089 0
M  V30 4120 C 385.728 3.49787 -3.9311 0
M  V30 4121 O 384.754 3.29403 -4.64201 0
M  V30 4122 N 385.956 4.71562 -3.38541 0
M  V30 4123 H 388.721 0.672006 -2.92069 0
M  V30 4124 H 386.282 0.219745 -1.60402 0
M  V30 4125 H 388.274 3.1705 -2.51518 0
M  V30 4126 H 386.844 2.71024 -1.55771 0
M  V30 4127 H 386.064 1.415 -3.67928 0
M  V30 4128 H 387.352 2.25493 -4.56104 0
M  V30 4129 H 386.75 4.91024 -2.80912 0
M  V30 4130 H 385.307 5.45689 -3.56464 0
M  V30 4131 N 388.74 1.54641 0.303973 0
M  V30 4132 C 389.67 1.88386 1.3796 0
M  V30 4133 C 390.651 0.742485 1.5304 0
M  V30 4134 O 391.836 0.997959 1.66597 0
M  V30 4135 C 388.966 2.12854 2.74427 0
M  V30 4136 C 387.92 3.28702 2.74115 0
M  V30 4137 C 387.246 3.38582 4.13844 0
M  V30 4138 C 388.546 4.65881 2.3612 0
M  V30 4139 H 390.24 2.78474 1.09966 0
M  V30 4140 H 387.786 1.33988 0.527556 0
M  V30 4141 H 389.739 2.35047 3.49758 0
M  V30 4142 H 388.463 1.19535 3.03939 0
M  V30 4143 H 387.122 3.06428 2.0124 0
M  V30 4144 H 386.77 2.42784 4.40528 0
M  V30 4145 H 386.47 4.16453 4.14537 0
M  V30 4146 H 387.994 3.63031 4.90959 0
M  V30 4147 H 389.408 4.87823 3.01167 0
M  V30 4148 H 387.805 5.46444 2.48031 0
M  V30 4149 H 388.875 4.66799 1.3125 0
M  V30 4150 N 390.218 -0.567019 1.47046 0
M  V30 4151 C 391.166 -1.69593 1.59188 0
M  V30 4152 C 392.16 -1.63046 0.459609 0
M  V30 4153 O 393.366 -1.6835 0.637058 0
M  V30 4154 H 389.741 -0.560993 0.500791 0
M  V30 4155 H 391.712 -1.56488 2.54075 0
M  V30 4156 C 390.461 -3.07964 1.61411 0
M  V30 4157 H 389.784 -3.13679 2.47881 0
M  V30 4158 H 391.224 -3.86671 1.73958 0
M  V30 4159 C 389.683 -3.35123 0.34559 0
M  V30 4160 O 390.213 -3.97812 -0.557521 0
M  V30 4161 N 388.419 -2.89699 0.22864 0
M  V30 4162 H 387.966 -2.38863 0.964479 0
M  V30 4163 H 387.924 -3.08242 -0.619192 0
M  V30 4164 N 391.696 -1.35014 -0.812953 0
M  V30 4165 C 393.112 -1.14914 -1.10757 0
M  V30 4166 C 393.312 0.0426818 -2.01455 0
M  V30 4167 O 392.368 0.715212 -2.42159 0
M  V30 4168 C 393.681 -2.44911 -1.74468 0
M  V30 4169 C 395.229 -2.5106 -1.86917 0
M  V30 4170 C 395.704 -3.81085 -2.54044 0
M  V30 4171 N 397.195 -3.82301 -2.61535 0
M  V30 4172 C 397.93 -4.79634 -3.14227 0
M  V30 4173 N 397.426 -5.87353 -3.67407 0
M  V30 4174 N 399.219 -4.67078 -3.12721 0
M  V30 4175 H 391.37 -2.1136 -0.20989 0
M  V30 4176 H 393.633 -0.935128 -0.155692 0
M  V30 4177 H 393.339 -3.32267 -1.15289 0
M  V30 4178 H 393.213 -2.58989 -2.74234 0
M  V30 4179 H 395.6 -1.64137 -2.45241 0
M  V30 4180 H 395.681 -2.40901 -0.860242 0
M  V30 4181 H 395.325 -4.68402 -1.96372 0
M  V30 4182 H 395.255 -3.88529 -3.55461 0
M  V30 4183 H 397.746 -3.04465 -2.23851 0
M  V30 4184 H 398.059 -6.57624 -4.05894 0
M  V30 4185 H 396.404 -5.91054 -3.65623 0
M  V30 4186 H 399.595 -3.82067 -2.70449 0
M  V30 4187 H 399.768 -5.43098 -3.53481 0
M  V30 4188 N 393.175 1.03435 -1.18907 0
M  V30 4189 C 394.123 2.13703 -0.918353 0
M  V30 4190 C 395.117 1.68947 0.123767 0
M  V30 4191 O 396.323 1.79983 -0.0249701 0
M  V30 4192 H 392.698 0.698112 -0.279542 0
M  V30 4193 H 394.669 2.33731 -1.85506 0
M  V30 4194 C 393.418 3.44542 -0.467532 0
M  V30 4195 H 392.741 3.79394 -1.26095 0
M  V30 4196 H 394.181 4.22812 -0.317164 0
M  V30 4197 C 392.64 3.26829 0.817588 0
M  V30 4198 O 393.17 3.54975 1.88031 0
M  V30 4199 N 391.376 2.80139 0.772677 0
M  V30 4200 H 390.923 2.57434 -0.0923883 0
M  V30 4201 H 390.881 2.68668 1.63294 0
M  V30 4202 N 394.653 0.992116 1.22453 0
M  V30 4203 C 395.9 0.667534 1.91181 0
M  V30 4204 C 396.228 -0.800317 1.77271 0
M  V30 4205 O 395.483 -1.59421 1.13505 0
M  V30 4206 C 395.782 1.01832 3.42586 0
M  V30 4207 C 395.448 2.47831 3.76684 0
M  V30 4208 C 394.11 2.87729 3.85701 0
M  V30 4209 C 396.462 3.42466 3.92895 0
M  V30 4210 C 393.79 4.21252 4.08367 0
M  V30 4211 C 396.142 4.75648 4.17064 0
M  V30 4212 C 394.806 5.15288 4.24305 0
M  V30 4213 H 394.076 0.244268 0.699581 0
M  V30 4214 H 396.723 1.24816 1.45235 0
M  V30 4215 H 395.028 0.355769 3.90181 0
M  V30 4216 H 396.725 0.745228 3.94014 0
M  V30 4217 H 393.315 2.15905 3.70247 0
M  V30 4218 H 397.499 3.12814 3.85307 0
M  V30 4219 H 392.755 4.51554 4.122 0
M  V30 4220 H 396.929 5.48924 4.2855 0
M  V30 4221 H 394.556 6.18769 4.41621 0
M  V30 4222 N 396.131 -1.37776 0.765217 0
M  V30 4223 C 397.356 -2.04651 0.336537 0
M  V30 4224 C 397.781 -1.57337 -1.03086 0
M  V30 4225 O 397.139 -0.730621 -1.65927 0
M  V30 4226 C 397.187 -3.58577 0.381468 0
M  V30 4227 O 396.291 -4.07706 -0.62042 0
M  V30 4228 H 395.632 -0.64756 0.146838 0
M  V30 4229 H 398.162 -1.76221 1.03959 0
M  V30 4230 H 398.172 -4.07314 0.236448 0
M  V30 4231 H 396.847 -3.9237 1.37907 0
M  V30 4232 H 395.424 -3.70306 -0.439056 0
M  V30 4233 N 397.609 -0.515225 -1.4894 0
M  V30 4234 C 398.557 0.269115 -2.31038 0
M  V30 4235 C 399.551 0.949443 -1.40292 0
M  V30 4236 O 400.757 0.87551 -1.57273 0
M  V30 4237 H 397.132 0.10565 -0.744542 0
M  V30 4238 H 399.103 -0.443096 -2.95092 0
M  V30 4239 C 397.852 1.31213 -3.21991 0
M  V30 4240 H 397.175 0.798034 -3.91754 0
M  V30 4241 H 398.615 1.83263 -3.82349 0
M  V30 4242 C 397.074 2.33791 -2.42576 0
M  V30 4243 O 397.604 3.3995 -2.14003 0
M  V30 4244 N 395.81 2.06625 -2.0434 0
M  V30 4245 H 395.357 1.20314 -2.27777 0
M  V30 4246 H 395.315 2.75483 -1.51514 0
M  V30 4247 N 399.087 1.5561 -0.249682 0
M  V30 4248 C 400.334 1.99011 0.374287 0
M  V30 4249 C 400.662 1.13785 1.57744 0
M  V30 4250 O 399.917 0.189326 1.94782 0
M  V30 4251 C 400.216 3.4775 0.824887 0
M  V30 4252 C 399.882 4.50086 -0.270819 0
M  V30 4253 C 398.544 4.77791 -0.571746 0
M  V30 4254 C 400.896 5.11312 -1.01041 0
M  V30 4255 C 398.224 5.63997 -1.61629 0
M  V30 4256 C 400.576 5.98651 -2.0445 0
M  V30 4257 C 399.24 6.24688 -2.35204 0
M  V30 4258 H 398.51 0.728233 0.136961 0
M  V30 4259 H 401.157 1.88122 -0.358087 0
M  V30 4260 H 399.462 3.55985 1.63651 0
M  V30 4261 H 401.159 3.78721 1.31799 0
M  V30 4262 H 397.749 4.28592 -0.026136 0
M  V30 4263 H 401.933 4.89953 -0.791177 0
M  V30 4264 H 397.189 5.82425 -1.85988 0
M  V30 4265 H 401.363 6.45135 -2.62248 0
M  V30 4266 H 398.99 6.91281 -3.16282 0
M  V30 4267 N 400.565 -0.0233959 1.57583 0
M  V30 4268 C 401.814 -0.712133 1.8871 0
M  V30 4269 C 402.127 -1.76217 0.848944 0
M  V30 4270 O 403.333 -2.50389 1.04964 0
M  V30 4271 C 401.789 -1.3177 3.3491 0
M  V30 4272 C 401.397 -0.303715 4.46969 0
M  V30 4273 C 403.141 -1.98598 3.75179 0
M  V30 4274 C 401.048 -0.917945 5.84233 0
M  V30 4275 H 399.978 -0.269735 0.704101 0
M  V30 4276 H 402.629 0.0333114 1.8347 0
M  V30 4277 H 401.011 -2.11304 3.34913 0
M  V30 4278 H 402.185 0.465325 4.58445 0
M  V30 4279 H 400.5 0.2628 4.1557 0
M  V30 4280 H 403.097 -2.45416 4.75053 0
M  V30 4281 H 403.44 -2.80659 3.07468 0
M  V30 4282 H 403.973 -1.25831 3.77374 0
M  V30 4283 H 400.712 -0.136633 6.55358 0
M  V30 4284 H 400.232 -1.65669 5.76467 0
M  V30 4285 H 401.911 -1.4236 6.31144 0
M  V30 4286 N 402.043 -1.548 -0.295768 0
M  V30 4287 C 402.973 -1.89115 -1.36959 0
M  V30 4288 C 403.954 -0.75059 -1.52644 0
M  V30 4289 O 405.139 -1.00678 -1.66065 0
M  V30 4290 C 402.269 -2.14307 -2.73295 0
M  V30 4291 C 401.223 -3.30151 -2.72368 0
M  V30 4292 C 400.549 -3.40772 -4.12042 0
M  V30 4293 C 401.849 -4.67126 -2.33646 0
M  V30 4294 H 403.543 -2.79053 -1.08488 0
M  V30 4295 H 401.089 -1.34266 -0.520443 0
M  V30 4296 H 403.042 -2.36898 -3.48507 0
M  V30 4297 H 401.766 -1.21145 -3.03301 0
M  V30 4298 H 400.425 -3.0749 -1.99613 0
M  V30 4299 H 400.073 -2.45117 -4.39234 0
M  V30 4300 H 399.773 -4.18645 -4.12322 0
M  V30 4301 H 401.297 -3.6563 -4.89027 0
M  V30 4302 H 402.711 -4.89414 -2.98575 0
M  V30 4303 H 401.108 -5.47751 -2.45129 0
M  V30 4304 H 402.178 -4.67489 -1.28772 0
M  V30 4305 N 403.521 0.559213 -1.47345 0
M  V30 4306 C 404.798 1.31997 -1.44348 0
M  V30 4307 C 405.178 2.1064 -0.139358 0
M  V30 4308 O 404.526 2.1091 0.879153 0
M  V30 4309 C 404.736 2.22618 -2.68779 0
M  V30 4310 C 406.084 2.83701 -3.1591 0
M  V30 4311 O 407.108 2.32921 -2.69493 0
M  V30 4312 O 405.967 3.75993 -3.966 0
M  V30 4313 H 403.061 0.594251 -0.575147 0
M  V30 4314 H 405.607 0.578282 -1.59543 0
M  V30 4315 H 404.379 1.64093 -3.55231 0
M  V30 4316 H 404.002 3.04085 -2.5616 0
M  V30 4317 N 404.999 1.35443 0.805782 0
M  V30 4318 C 405.946 1.28431 1.91766 0
M  V30 4319 C 406.916 0.156102 1.65365 0
M  V30 4320 O 408.101 0.339936 1.87747 0
M  V30 4321 C 405.241 1.06301 3.2832 0
M  V30 4322 C 404.354 2.2805 3.66902 0
M  V30 4323 C 403.489 1.99064 4.92491 0
M  V30 4324 C 402.528 3.16863 5.23703 0
M  V30 4325 N 401.665 2.87647 6.40471 0
M  V30 4326 H 406.505 2.23511 1.97096 0
M  V30 4327 H 404.042 1.11105 0.964054 0
M  V30 4328 H 406 0.915012 4.07042 0
M  V30 4329 H 404.63 0.148822 3.22457 0
M  V30 4330 H 403.682 2.53711 2.83434 0
M  V30 4331 H 404.994 3.1601 3.85927 0
M  V30 4332 H 404.148 1.81099 5.7904 0
M  V30 4333 H 402.887 1.0839 4.75503 0
M  V30 4334 H 401.892 3.35404 4.35642 0
M  V30 4335 H 403.117 4.08339 5.4262 0
M  V30 4336 H 401.063 1.99568 6.24907 0
M  V30 4337 H 400.98 3.69141 6.59751 0
M  V30 4338 H 402.248 2.73226 7.30047 0
M  V30 4339 N 406.477 -1.02803 1.19454 0
M  V30 4340 C 407.724 -1.76217 0.997693 0
M  V30 4341 C 408.052 -1.887 -0.47144 0
M  V30 4342 O 407.307 -1.4011 -1.3663 0
M  V30 4343 C 407.606 -3.18941 1.6128 0
M  V30 4344 C 407.272 -3.26463 3.11019 0
M  V30 4345 C 405.934 -3.28223 3.51885 0
M  V30 4346 C 408.286 -3.25542 4.07028 0
M  V30 4347 C 405.614 -3.26719 4.8731 0
M  V30 4348 C 407.966 -3.25579 5.42385 0
M  V30 4349 C 406.63 -3.25637 5.82681 0
M  V30 4350 H 405.9 -0.644823 0.365082 0
M  V30 4351 H 408.547 -1.20655 1.4871 0
M  V30 4352 H 406.852 -3.77587 1.04572 0
M  V30 4353 H 408.549 -3.74415 1.43577 0
M  V30 4354 H 405.139 -3.25822 2.78457 0
M  V30 4355 H 409.323 -3.23362 3.76498 0
M  V30 4356 H 404.579 -3.25089 5.1781 0
M  V30 4357 H 408.753 -3.23817 6.16535 0
M  V30 4358 H 406.38 -3.24226 6.87591 0
M  V30 4359 N 407.956 -0.998596 -1.21925 0
M  V30 4360 C 408.886 -0.573688 -2.26343 0
M  V30 4361 C 409.867 0.402296 -1.65274 0
M  V30 4362 O 411.052 0.291683 -1.91997 0
M  V30 4363 C 408.182 0.106839 -3.47136 0
M  V30 4364 C 407.136 -0.788269 -4.20678 0
M  V30 4365 C 406.462 0.0254927 -5.34694 0
M  V30 4366 C 407.762 -2.08784 -4.78755 0
M  V30 4367 H 409.456 -1.44651 -2.62138 0
M  V30 4368 H 407.002 -0.696975 -1.26009 0
M  V30 4369 H 408.955 0.415531 -4.19346 0
M  V30 4370 H 407.679 1.01424 -3.10452 0
M  V30 4371 H 406.338 -1.08069 -3.50309 0
M  V30 4372 H 405.986 0.933989 -4.94253 0
M  V30 4373 H 405.686 -0.570437 -5.84825 0
M  V30 4374 H 407.21 0.328147 -6.09718 0
M  V30 4375 H 408.624 -1.84272 -5.42878 0
M  V30 4376 H 407.021 -2.63307 -5.39249 0
M  V30 4377 H 408.091 -2.76284 -3.98491 0
M  V30 4378 N 409.434 1.37368 -0.772513 0
M  V30 4379 C 410.85 1.53059 -0.452231 0
M  V30 4380 C 411.05 1.73065 1.03203 0
M  V30 4381 O 410.106 1.75245 1.81784 0
M  V30 4382 C 411.419 2.72659 -1.26797 0
M  V30 4383 C 412.967 2.86521 -1.25995 0
M  V30 4384 C 413.442 4.09105 -2.05905 0
M  V30 4385 N 414.933 4.16219 -2.03263 0
M  V30 4386 C 415.668 5.10107 -2.61875 0
M  V30 4387 N 415.164 6.09547 -3.29278 0
M  V30 4388 N 416.957 5.02596 -2.51701 0
M  V30 4389 H 409.108 1.22634 -1.7342 0
M  V30 4390 H 411.371 0.597206 -0.736239 0
M  V30 4391 H 411.077 2.64343 -2.31982 0
M  V30 4392 H 410.951 3.66363 -0.897672 0
M  V30 4393 H 413.338 2.94308 -0.216081 0
M  V30 4394 H 413.419 1.93774 -1.66989 0
M  V30 4395 H 413.063 4.0208 -3.10313 0
M  V30 4396 H 412.993 5.00968 -1.62292 0
M  V30 4397 H 415.484 3.45012 -1.54192 0
M  V30 4398 H 415.797 6.77718 -3.71374 0
M  V30 4399 H 414.142 6.09824 -3.33377 0
M  V30 4400 H 417.333 4.23855 -1.98657 0
M  V30 4401 H 417.506 5.75582 -2.97673 0
M  V30 4402 N 410.912 0.523116 1.48665 0
M  V30 4403 C 411.862 -0.263106 2.26477 0
M  V30 4404 C 412.846 -0.916005 1.32281 0
M  V30 4405 O 414.038 -0.819946 1.56863 0
M  V30 4406 C 411.167 -1.31361 3.17174 0
M  V30 4407 C 410.253 -0.665849 4.1884 0
M  V30 4408 N 410.644 0.244434 5.05209 0
M  V30 4409 C 408.942 -0.923863 4.36326 0
M  V30 4410 C 409.643 0.617443 5.78414 0
M  V30 4411 N 408.619 -0.0198686 5.43596 0
M  V30 4412 H 412.421 0.437295 2.90629 0
M  V30 4413 H 409.935 0.340675 1.58787 0
M  V30 4414 H 411.932 -1.89052 3.71571 0
M  V30 4415 H 410.592 -2.01546 2.54576 0
M  V30 4416 H 411.603 0.616621 5.14216 0
M  V30 4417 H 408.28 -1.6168 3.84923 0
M  V30 4418 H 409.67 1.36346 6.57921 0
M  V30 4419 N 412.39 -1.55475 0.257931 0
M  V30 4420 C 413.63 -2.01112 -0.365129 0
M  V30 4421 C 413.994 -1.1423 -1.54323 0
M  V30 4422 O 415.195 -1.49371 -2.23477 0
M  V30 4423 C 413.466 -3.49353 -0.754117 0
M  V30 4424 S 415.025 -4.16992 -1.36614 0
M  V30 4425 H 411.843 -0.701737 -0.114397 0
M  V30 4426 H 414.445 -1.91855 0.375747 0
M  V30 4427 H 413.149 -4.10246 0.112441 0
M  V30 4428 H 412.68 -3.6256 -1.52689 0
M  V30 4429 H 414.695 -4.19191 -2.65505 0
M  V30 4430 N 413.868 0.0150385 -1.57593 0
M  V30 4431 C 414.778 1.02791 -2.10882 0
M  V30 4432 C 415.794 1.38702 -1.0506 0
M  V30 4433 O 416.97 1.47739 -1.36877 0
M  V30 4434 C 414.035 2.30568 -2.58919 0
M  V30 4435 C 413.096 2.01108 -3.79281 0
M  V30 4436 C 412.329 3.22794 -4.25018 0
M  V30 4437 O 412.552 4.33959 -3.70183 0
M  V30 4438 O 411.486 3.07672 -5.17322 0
M  V30 4439 H 415.312 0.604973 -2.97613 0
M  V30 4440 H 412.897 0.23292 -1.47573 0
M  V30 4441 H 414.779 3.05662 -2.90084 0
M  V30 4442 H 413.454 2.72129 -1.75293 0
M  V30 4443 H 412.361 1.23537 -3.53114 0
M  V30 4444 H 413.694 1.64394 -4.63935 0
M  V30 4445 N 415.346 1.54954 0.287554 0
M  V30 4446 C 416.571 1.79209 1.04397 0
M  V30 4447 C 416.996 0.556431 1.79682 0
M  V30 4448 O 416.354 -0.493518 1.74454 0
M  V30 4449 C 416.402 3.00739 1.98969 0
M  V30 4450 O 415.506 2.74805 3.075 0
M  V30 4451 H 414.847 0.592755 0.299227 0
M  V30 4452 H 417.377 2.02068 0.320886 0
M  V30 4453 H 417.387 3.29077 2.4119 0
M  V30 4454 H 416.062 3.90329 1.43582 0
M  V30 4455 H 414.639 2.57523 2.69697 0
M  V30 4456 N 416.824 -0.551391 1.4764 0
M  V30 4457 C 417.754 -1.66757 1.63445 0
M  V30 4458 C 418.735 -1.63077 0.483742 0
M  V30 4459 O 419.92 -1.80607 0.71377 0
M  V30 4460 C 417.05 -3.05387 1.65396 0
M  V30 4461 C 416.004 -3.23918 2.79752 0
M  V30 4462 C 415.33 -4.63393 2.66779 0
M  V30 4463 C 416.63 -3.08735 4.21284 0
M  V30 4464 H 418.324 -1.53786 2.56886 0
M  V30 4465 H 415.87 -0.738415 1.23626 0
M  V30 4466 H 417.823 -3.83325 1.75043 0
M  V30 4467 H 416.547 -3.19332 0.685195 0
M  V30 4468 H 415.206 -2.48391 2.69625 0
M  V30 4469 H 414.854 -4.74144 1.67918 0
M  V30 4470 H 414.554 -4.7674 3.43501 0
M  V30 4471 H 416.078 -5.43458 2.78364 0
M  V30 4472 H 417.492 -3.76484 4.32357 0
M  V30 4473 H 415.889 -3.33588 4.98838 0
M  V30 4474 H 416.959 -2.0541 4.39243 0
M  V30 4475 N 418.302 -1.35869 -0.798587 0
M  V30 4476 C 419.718 -1.16082 -1.09532 0
M  V30 4477 C 419.918 0.0213124 -2.01489 0
M  V30 4478 O 418.974 0.689488 -2.42904 0
M  V30 4479 C 420.287 -2.46748 -1.7186 0
M  V30 4480 C 421.835 -2.53028 -1.84244 0
M  V30 4481 C 422.31 -3.83758 -2.49988 0
M  V30 4482 N 423.801 -3.85053 -2.57465 0
M  V30 4483 C 424.536 -4.8294 -3.09122 0
M  V30 4484 N 424.032 -5.91217 -3.61157 0
M  V30 4485 N 425.825 -4.70369 -3.0775 0
M  V30 4486 H 417.976 -2.11571 -0.187461 0
M  V30 4487 H 420.239 -0.936726 -0.145765 0
M  V30 4488 H 419.945 -3.33471 -1.11759 0
M  V30 4489 H 419.819 -2.61883 -2.71472 0
M  V30 4490 H 422.206 -1.66729 -2.43486 0
M  V30 4491 H 422.287 -2.418 -0.834643 0
M  V30 4492 H 421.931 -4.70459 -1.91393 0
M  V30 4493 H 421.861 -3.92278 -3.5132 0
M  V30 4494 H 424.352 -3.06822 -2.20609 0
M  V30 4495 H 424.665 -6.61892 -3.98896 0
M  V30 4496 H 423.01 -5.94899 -3.59333 0
M  V30 4497 H 426.201 -3.84914 -2.66381 0
M  V30 4498 H 426.374 -5.46816 -3.47701 0
M  V30 4499 N 419.78 1.02168 -1.19998 0
M  V30 4500 C 421.191 1.57135 -1.00825 0
M  V30 4501 C 421.542 1.91276 0.436818 0
M  V30 4502 O 420.667 1.71679 1.3174 0
M  V30 4503 C 421.262 2.85514 -1.82393 0
M  V30 4504 C 419.821 3.37027 -1.67601 0
M  V30 4505 C 418.968 2.10388 -1.80644 0
M  V30 4506 H 421.919 0.846106 -1.34264 0
M  V30 4507 H 421.94 3.56711 -1.32429 0
M  V30 4508 H 421.452 2.60634 -2.87561 0
M  V30 4509 H 419.553 3.66878 -0.650485 0
M  V30 4510 H 419.666 4.09572 -2.4857 0
M  V30 4511 H 418.03 2.22601 -1.23778 0
M  V30 4512 H 418.813 1.8794 -2.87286 0
M  V30 4513 N 421.258 1.00505 1.21394 0
M  V30 4514 C 422.506 0.686415 1.90086 0
M  V30 4515 C 422.827 -0.785264 1.7849 0
M  V30 4516 O 422.097 -1.56387 1.17983 0
M  V30 4517 H 420.677 0.2509 0.703604 0
M  V30 4518 H 423.339 1.27417 1.47482 0
M  V30 4519 H 422.435 0.959621 2.96981 0
M  V30 4520 N 422.737 -1.36956 0.779787 0
M  V30 4521 C 423.7 -2.2851 0.177662 0
M  V30 4522 C 424.7 -1.48393 -0.619377 0
M  V30 4523 O 425.89 -1.68505 -0.441785 0
M  V30 4524 C 423.022 -3.32428 -0.755279 0
M  V30 4525 H 424.215 -2.83269 0.984823 0
M  V30 4526 H 421.768 -1.46358 0.548544 0
M  V30 4527 H 422.503 -2.82808 -1.58714 0
M  V30 4528 H 422.288 -3.91659 -0.185817 0
M  V30 4529 H 423.778 -4.00824 -1.17174 0
M  V30 4530 N 424.215 -0.530993 -1.48385 0
M  V30 4531 C 425.178 0.220497 -2.28137 0
M  V30 4532 C 426.178 0.866851 -1.35434 0
M  V30 4533 O 427.368 0.726746 -1.58316 0
M  V30 4534 C 424.5 1.31921 -3.1434 0
M  V30 4535 H 425.693 -0.479714 -2.96038 0
M  V30 4536 H 423.246 -0.286968 -1.53643 0
M  V30 4537 H 423.981 2.05264 -2.51072 0
M  V30 4538 H 423.766 0.86085 -3.82533 0
M  V30 4539 H 425.256 1.84776 -3.74497 0
M  V30 4540 N 425.693 1.55336 -0.266172 0
M  V30 4541 C 427.104 1.85236 0.233315 0
M  V30 4542 C 427.455 1.18816 1.56132 0
M  V30 4543 O 426.58 0.473307 2.11161 0
M  V30 4544 C 427.175 3.36059 0.430113 0
M  V30 4545 C 425.734 3.66116 0.873842 0
M  V30 4546 C 424.881 2.77274 -0.0380016 0
M  V30 4547 H 427.832 1.51004 -0.488214 0
M  V30 4548 H 427.853 3.58681 1.26998 0
M  V30 4549 H 427.365 3.84373 -0.536588 0
M  V30 4550 H 425.466 3.23295 1.85233 0
M  V30 4551 H 425.579 4.73699 0.717358 0
M  V30 4552 H 423.943 2.50198 0.476759 0
M  V30 4553 H 424.726 3.284 -1.00042 0
M  V30 4554 N 427.171 -0.0066808 1.57599 0
M  V30 4555 C 428.587 -0.36267 1.55425 0
M  V30 4556 C 428.787 -1.75209 0.995187 0
M  V30 4557 O 427.843 -2.44616 0.626058 0
M  V30 4558 C 429.156 -0.244017 2.99708 0
M  V30 4559 C 430.704 -0.319451 3.11366 0
M  V30 4560 C 431.179 -0.229998 4.57422 0
M  V30 4561 N 432.67 -0.288105 4.62303 0
M  V30 4562 C 433.405 -0.242127 5.72889 0
M  V30 4563 N 432.901 -0.147133 6.92644 0
M  V30 4564 N 434.694 -0.293502 5.61333 0
M  V30 4565 H 426.845 0.902314 1.92281 0
M  V30 4566 H 429.108 0.34525 0.882896 0
M  V30 4567 H 428.814 0.711678 3.44424 0
M  V30 4568 H 428.688 -1.02877 3.629 0
M  V30 4569 H 431.075 -1.26559 2.66584 0
M  V30 4570 H 431.156 0.495055 2.50964 0
M  V30 4571 H 430.8 0.712566 5.02877 0
M  V30 4572 H 430.73 -1.0629 5.15761 0
M  V30 4573 H 433.221 -0.363126 3.76151 0
M  V30 4574 H 433.534 -0.117763 7.7271 0
M  V30 4575 H 431.879 -0.112857 6.94908 0
M  V30 4576 H 435.07 -0.365864 4.66668 0
M  V30 4577 H 435.243 -0.254204 6.47501 0
M  V30 4578 N 428.649 -1.55105 -0.279332 0
M  V30 4579 C 429.926 -1.66119 -1.03267 0
M  V30 4580 C 430.306 -0.523525 -2.04505 0
M  V30 4581 O 429.654 0.477194 -2.23462 0
M  V30 4582 C 429.864 -3.05067 -1.69515 0
M  V30 4583 C 431.212 -3.62606 -2.20912 0
M  V30 4584 O 432.236 -3.07659 -1.79512 0
M  V30 4585 O 431.095 -4.58861 -2.96831 0
M  V30 4586 H 428.189 -0.674429 -0.478618 0
M  V30 4587 H 430.735 -1.67446 -0.275694 0
M  V30 4588 H 429.507 -3.79311 -0.9612 0
M  V30 4589 H 429.13 -3.07611 -2.51915 0
M  V30 4590 N 430.127 0.543554 -1.4793 0
M  V30 4591 C 431.06 1.66556 -1.55995 0
M  V30 4592 C 432.038 1.57315 -0.411205 0
M  V30 4593 O 433.222 1.7798 -0.620922 0
M  V30 4594 C 430.349 3.04883 -1.47527 0
M  V30 4595 C 429.395 3.32526 -2.67074 0
M  V30 4596 S 430.228 3.20282 -4.29162 0
M  V30 4597 C 431.384 4.61079 -4.23269 0
M  V30 4598 H 431.617 1.59462 -2.50917 0
M  V30 4599 H 429.15 0.725456 -1.36296 0
M  V30 4600 H 431.108 3.84665 -1.43328 0
M  V30 4601 H 429.769 3.09429 -0.539665 0
M  V30 4602 H 428.962 4.33403 -2.5725 0
M  V30 4603 H 428.564 2.60389 -2.68466 0
M  V30 4604 H 430.856 5.52318 -3.92365 0
M  V30 4605 H 431.799 4.75959 -5.24279 0
M  V30 4606 H 432.207 4.39766 -3.5393 0
M  V30 4607 N 431.605 1.3629 0.791371 0
M  V30 4608 C 432.538 1.24816 1.9104 0
M  V30 4609 C 433.516 0.132739 1.62057 0
M  V30 4610 O 434.7 0.303527 1.8604 0
M  V30 4611 C 431.827 0.925355 3.25814 0
M  V30 4612 C 430.873 2.05495 3.7373 0
M  V30 4613 S 431.706 3.67255 3.89723 0
M  V30 4614 C 432.862 3.37084 5.27376 0
M  V30 4615 H 433.095 2.19533 2.00481 0
M  V30 4616 H 430.628 1.21684 0.950393 0
M  V30 4617 H 432.586 0.745924 4.03666 0
M  V30 4618 H 431.247 -0.00400098 3.141 0
M  V30 4619 H 430.44 1.7836 4.71385 0
M  V30 4620 H 430.042 2.1935 3.02922 0
M  V30 4621 H 432.334 2.90856 6.1189 0
M  V30 4622 H 433.277 4.33995 5.59512 0
M  V30 4623 H 433.685 2.7248 4.94383 0
M  V30 4624 N 433.083 -1.0153 1.20538 0
M  V30 4625 C 434.36 -1.72327 0.925343 0
M  V30 4626 C 434.74 -2.03383 -0.565547 0
M  V30 4627 O 434.088 -1.69934 -1.52757 0
M  V30 4628 C 434.298 -2.9902 1.79967 0
M  V30 4629 C 435.646 -3.72258 2.04228 0
M  V30 4630 O 436.67 -3.08979 1.77231 0
M  V30 4631 O 435.529 -4.86053 2.4983 0
M  V30 4632 H 432.623 -0.751099 0.346092 0
M  V30 4633 H 435.169 -1.07366 1.31417 0
M  V30 4634 H 433.941 -2.72402 2.80915 0
M  V30 4635 H 433.564 -3.71721 1.41099 0
M  V30 4636 N 434.561 -1.01147 -1.20859 0
M  V30 4637 C 435.524 -0.582224 -2.21682 0
M  V30 4638 C 436.524 0.344887 -1.57058 0
M  V30 4639 O 437.714 0.134281 -1.73682 0
M  V30 4640 C 434.846 0.150496 -3.40568 0
M  V30 4641 H 436.039 -1.47408 -2.61172 0
M  V30 4642 H 433.592 -0.800695 -1.34233 0
M  V30 4643 H 434.327 1.0575 -3.06574 0
M  V30 4644 H 434.112 -0.515444 -3.88697 0
M  V30 4645 H 435.602 0.438344 -4.15293 0
M  V30 4646 N 436.039 1.36541 -0.78704 0
M  V30 4647 C 437.286 1.99304 -0.358341 0
M  V30 4648 C 437.614 1.62467 1.06933 0
M  V30 4649 O 436.869 0.870019 1.75297 0
M  V30 4650 C 437.168 3.54343 -0.466485 0
M  V30 4651 C 436.834 4.10993 -1.85461 0
M  V30 4652 C 435.496 4.26177 -2.23443 0
M  V30 4653 C 437.848 4.41895 -2.76366 0
M  V30 4654 C 435.176 4.69573 -3.51736 0
M  V30 4655 C 437.528 4.86722 -4.04084 0
M  V30 4656 C 436.192 5.00112 -4.42091 0
M  V30 4657 H 435.462 0.729306 -0.131126 0
M  V30 4658 H 438.109 1.63068 -1.00404 0
M  V30 4659 H 436.414 3.90918 0.262719 0
M  V30 4660 H 438.111 4.00833 -0.115854 0
M  V30 4661 H 434.701 3.99612 -1.54946 0
M  V30 4662 H 438.885 4.29735 -2.48277 0
M  V30 4663 H 434.141 4.78127 -3.81057 0
M  V30 4664 H 438.315 5.09598 -4.7464 0
M  V30 4665 H 435.942 5.33498 -5.41557 0
M  V30 4666 N 437.518 0.538854 1.48102 0
M  V30 4667 C 438.767 0.0059532 2.01699 0
M  V30 4668 C 439.08 -1.34476 1.42041 0
M  V30 4669 O 440.286 -1.96653 1.87189 0
M  V30 4670 C 438.742 -0.0397627 3.59878 0
M  V30 4671 C 438.35 1.30659 4.28523 0
M  V30 4672 C 440.094 -0.521024 4.2129 0
M  V30 4673 C 438.001 1.22098 5.78659 0
M  V30 4674 H 436.931 -0.00154456 0.753998 0
M  V30 4675 H 439.582 0.683963 1.70277 0
M  V30 4676 H 437.964 -0.783037 3.88181 0
M  V30 4677 H 439.138 2.06613 4.11883 0
M  V30 4678 H 437.453 1.7243 3.79021 0
M  V30 4679 H 440.05 -0.603184 5.31287 0
M  V30 4680 H 440.393 -1.52885 3.8721 0
M  V30 4681 H 440.926 0.166834 3.9745 0
M  V30 4682 H 437.665 2.20424 6.17328 0
M  V30 4683 H 437.185 0.50295 5.97688 0
M  V30 4684 H 438.864 0.915345 6.40492 0
M  V30 4685 N 438.996 -1.55193 0.274407 0
M  V30 4686 C 439.926 -2.25471 -0.607032 0
M  V30 4687 C 440.907 -1.24461 -1.15946 0
M  V30 4688 O 442.092 -1.53179 -1.19373 0
M  V30 4689 C 439.222 -2.97526 -1.79153 0
M  V30 4690 C 438.176 -4.05459 -1.37067 0
M  V30 4691 C 437.502 -4.65084 -2.6382 0
M  V30 4692 C 438.802 -5.19691 -0.521389 0
M  V30 4693 H 440.496 -2.99393 -0.0209343 0
M  V30 4694 H 438.042 -1.43997 -0.00862866 0
M  V30 4695 H 439.995 -3.45402 -2.41404 0
M  V30 4696 H 438.719 -2.21138 -2.40344 0
M  V30 4697 H 437.378 -3.58393 -0.771355 0
M  V30 4698 H 437.026 -3.85365 -3.23268 0
M  V30 4699 H 436.726 -5.37961 -2.36372 0
M  V30 4700 H 438.25 -5.15708 -3.26921 0
M  V30 4701 H 439.664 -5.63623 -1.04889 0
M  V30 4702 H 438.061 -5.99126 -0.341825 0
M  V30 4703 H 439.131 -4.82713 0.46 0
M  V30 4704 N 440.474 -0.00167713 -1.576 0
M  V30 4705 C 441.699 0.69739 -1.95323 0
M  V30 4706 C 442.124 1.6642 -0.876706 0
M  V30 4707 O 441.482 1.80548 0.165007 0
M  V30 4708 C 441.53 1.40403 -3.32144 0
M  V30 4709 O 440.634 2.5185 -3.26566 0
M  V30 4710 H 439.975 0.185373 -0.637599 0
M  V30 4711 H 442.505 -0.0553665 -2.04525 0
M  V30 4712 H 442.515 1.76707 -3.67748 0
M  V30 4713 H 441.19 0.695167 -4.10049 0
M  V30 4714 H 439.767 2.17861 -3.0264 0
M  V30 4715 N 441.952 1.55251 0.271103 0
M  V30 4716 C 442.915 1.87484 1.31842 0
M  V30 4717 C 443.915 0.749545 1.42262 0
M  V30 4718 O 445.105 1.01771 1.4138 0
M  V30 4719 C 442.237 2.0818 2.69951 0
M  V30 4720 H 443.43 2.81108 1.0449 0
M  V30 4721 H 440.983 1.47771 0.509258 0
M  V30 4722 H 441.718 1.16944 3.02481 0
M  V30 4723 H 441.503 2.90114 2.63774 0
M  V30 4724 H 442.993 2.34385 3.4562 0
M  V30 4725 N 443.43 -0.535701 1.48216 0
M  V30 4726 C 444.34 -1.66785 1.64985 0
M  V30 4727 C 445.356 -1.65654 0.532414 0
M  V30 4728 O 446.532 -1.8471 0.80275 0
M  V30 4729 C 443.597 -3.0326 1.68031 0
M  V30 4730 C 442.658 -3.1529 2.9136 0
M  V30 4731 C 441.891 -4.45255 2.94252 0
M  V30 4732 O 442.114 -5.32011 2.05719 0
M  V30 4733 O 441.048 -4.6153 3.86359 0
M  V30 4734 H 444.874 -1.55576 2.60825 0
M  V30 4735 H 442.459 -0.70815 1.31551 0
M  V30 4736 H 444.341 -3.84436 1.72589 0
M  V30 4737 H 443.016 -3.14805 0.753628 0
M  V30 4738 H 441.923 -2.3343 2.92337 0
M  V30 4739 H 443.256 -3.08658 3.83394 0
M  V30 4740 N 444.908 -1.36708 -0.784132 0
M  V30 4741 C 445.855 -1.31466 -1.89698 0
M  V30 4742 C 446.825 -0.18239 -1.65096 0
M  V30 4743 O 448.01 -0.369762 -1.87183 0
M  V30 4744 C 445.15 -1.1151 -3.26588 0
M  V30 4745 C 444.263 -2.33859 -3.63227 0
M  V30 4746 C 443.398 -2.06873 -4.89262 0
M  V30 4747 C 442.437 -3.25154 -5.18595 0
M  V30 4748 N 441.574 -2.978 -6.35814 0
M  V30 4749 H 446.414 -2.26619 -1.93515 0
M  V30 4750 H 443.951 -1.12625 -0.946256 0
M  V30 4751 H 445.909 -0.979653 -4.05535 0
M  V30 4752 H 444.539 -0.200103 -3.22179 0
M  V30 4753 H 443.591 -2.58188 -2.79362 0
M  V30 4754 H 444.903 -3.22109 -3.8085 0
M  V30 4755 H 444.057 -1.90289 -5.76086 0
M  V30 4756 H 442.796 -1.15942 -4.73718 0
M  V30 4757 H 441.801 -3.42292 -4.30251 0
M  V30 4758 H 443.026 -4.1692 -5.36055 0
M  V30 4759 H 440.972 -2.09485 -6.21653 0
M  V30 4760 H 440.889 -3.7959 -6.53794 0
M  V30 4761 H 442.157 -2.84805 -7.25607 0
M  V30 4762 N 446.386 1.0089 -1.21074 0
M  V30 4763 C 447.333 2.09588 -0.966512 0
M  V30 4764 C 448.303 1.65761 0.106089 0
M  V30 4765 O 449.488 1.90758 -0.0402287 0
M  V30 4766 C 446.628 3.40958 -0.533058 0
M  V30 4767 C 445.741 3.9822 -1.67467 0
M  V30 4768 C 444.876 5.17682 -1.19076 0
M  V30 4769 C 443.915 5.67043 -2.30496 0
M  V30 4770 N 443.052 6.77759 -1.83267 0
M  V30 4771 H 447.892 2.29815 -1.89708 0
M  V30 4772 H 445.429 1.12689 -0.945489 0
M  V30 4773 H 447.387 4.1637 -0.263019 0
M  V30 4774 H 446.017 3.20781 0.360505 0
M  V30 4775 H 445.069 3.1983 -2.05944 0
M  V30 4776 H 446.381 4.3085 -2.51336 0
M  V30 4777 H 445.535 6.00326 -0.877151 0
M  V30 4778 H 444.274 4.86635 -0.322066 0
M  V30 4779 H 443.279 4.82999 -2.62664 0
M  V30 4780 H 444.504 6.00121 -3.17855 0
M  V30 4781 H 442.45 6.48527 -0.987356 0
M  V30 4782 H 442.367 7.09624 -2.60711 0
M  V30 4783 H 443.635 7.63949 -1.54928 0
M  V30 4784 N 447.864 1.01787 1.20321 0
M  V30 4785 C 448.827 0.593972 2.2137 0
M  V30 4786 C 449.827 -0.336553 1.57239 0
M  V30 4787 O 451.017 -0.125069 1.7375 0
M  V30 4788 C 448.149 -0.132433 3.40643 0
M  V30 4789 H 449.342 1.48791 2.60387 0
M  V30 4790 H 446.895 0.807803 1.33807 0
M  V30 4791 H 447.63 -1.04123 3.0713 0
M  V30 4792 H 447.415 0.53605 3.88418 0
M  V30 4793 H 448.905 -0.416314 4.1552 0
M  V30 4794 N 449.342 -1.36122 0.79427 0
M  V30 4795 C 450.305 -2.28309 0.201889 0
M  V30 4796 C 451.305 -1.49041 -0.603603 0
M  V30 4797 O 452.495 -1.68964 -0.423888 0
M  V30 4798 C 449.627 -3.3321 -0.719978 0
M  V30 4799 H 450.82 -2.82208 1.01481 0
M  V30 4800 H 448.373 -1.45768 0.564037 0
M  V30 4801 H 449.108 -2.84475 -1.55706 0
M  V30 4802 H 448.893 -3.91835 -0.144266 0
M  V30 4803 H 450.383 -4.02044 -1.12916 0
M  V30 4804 N 450.82 -0.546701 -1.47814 0
M  V30 4805 C 452.068 -0.0187037 -2.02091 0
M  V30 4806 C 452.389 1.33168 -1.42447 0
M  V30 4807 O 451.659 1.86619 -0.595839 0
M  V30 4808 H 450.239 -0.00392531 -0.74699 0
M  V30 4809 H 452.901 -0.714327 -1.81338 0
M  V30 4810 H 451.997 0.0772219 -3.12004 0
M  V30 4811 N 452.299 1.55045 -0.282633 0
M  V30 4812 C 453.576 1.9179 0.384166 0
M  V30 4813 C 453.956 1.20778 1.73136 0
M  V30 4814 O 453.304 0.33719 2.25998 0
M  V30 4815 C 453.514 3.45149 0.517014 0
M  V30 4816 C 454.862 4.17064 0.796427 0
M  V30 4817 O 455.886 3.51084 0.601535 0
M  V30 4818 O 454.745 5.33837 1.16962 0
M  V30 4819 H 451.839 0.799483 0.211558 0
M  V30 4820 H 454.385 1.66474 -0.32934 0
M  V30 4821 H 453.157 3.88922 -0.430772 0
M  V30 4822 H 452.78 3.76443 1.2797 0
M  V30 4823 N 453.777 0.010035 1.57597 0
M  V30 4824 C 455.002 -0.687021 1.95691 0
M  V30 4825 C 455.427 -1.65952 0.885519 0
M  V30 4826 O 454.785 -1.80633 -0.15543 0
M  V30 4827 C 454.833 -1.3864 3.32884 0
M  V30 4828 O 453.937 -2.50115 3.27897 0
M  V30 4829 H 453.278 -0.181989 0.638573 0
M  V30 4830 H 455.808 0.0662122 2.04493 0
M  V30 4831 H 455.818 -1.74754 3.6868 0
M  V30 4832 H 454.493 -0.673411 4.10412 0
M  V30 4833 H 453.07 -2.16253 3.03791 0
M  V30 4834 N 455.255 -1.55392 -0.262866 0
M  V30 4835 C 456.205 -1.85355 -1.32768 0
M  V30 4836 C 457.189 -0.713188 -1.44231 0
M  V30 4837 O 458.381 -0.974765 -1.47741 0
M  V30 4838 C 455.51 -2.13781 -2.68612 0
M  V30 4839 C 454.596 -3.34104 -2.61219 0
M  V30 4840 N 454.987 -4.53766 -2.2345 0
M  V30 4841 C 453.285 -3.36895 -2.92263 0
M  V30 4842 C 453.986 -5.35877 -2.26298 0
M  V30 4843 N 452.962 -4.74536 -2.65172 0
M  V30 4844 H 456.764 -2.75413 -1.02591 0
M  V30 4845 H 454.278 -1.55405 -0.471503 0
M  V30 4846 H 456.275 -2.33407 -3.45437 0
M  V30 4847 H 454.935 -1.25013 -2.99669 0
M  V30 4848 H 455.946 -4.79682 -1.95258 0
M  V30 4849 H 452.623 -2.58351 -3.27965 0
M  V30 4850 H 454.013 -6.41577 -1.99572 0
M  V30 4851 N 456.733 0.527833 -1.48498 0
M  V30 4852 C 457.981 1.28101 -1.56316 0
M  V30 4853 C 458.302 1.9352 -0.239781 0
M  V30 4854 O 457.572 1.81433 0.738849 0
M  V30 4855 H 456.152 0.475793 -0.575873 0
M  V30 4856 H 458.814 0.614052 -1.84974 0
M  V30 4857 H 457.91 2.05916 -2.34532 0
M  V30 4858 N 458.211 1.37122 0.776871 0
M  V30 4859 C 459.459 1.31787 1.53221 0
M  V30 4860 C 459.78 -0.0987589 1.9475 0
M  V30 4861 O 459.05 -1.0417 1.65908 0
M  V30 4862 H 457.63 0.484839 0.568278 0
M  V30 4863 H 460.292 1.71556 0.924917 0
M  V30 4864 H 459.388 1.95355 2.43398 0
M  V30 4865 N 459.689 -1.00246 1.21608 0
M  V30 4866 C 460.937 -1.73717 1.0328 0
M  V30 4867 C 461.258 -1.90102 -0.434318 0
M  V30 4868 O 460.528 -1.45376 -1.31311 0
M  V30 4869 H 459.108 -0.643613 0.379172 0
M  V30 4870 H 461.77 -1.20787 1.52959 0
M  V30 4871 H 460.866 -2.73535 1.50283 0
M  V30 4872 N 461.167 -1.02423 -1.1978 0
M  V30 4873 C 462.13 -0.605703 -2.21052 0
M  V30 4874 C 463.13 0.328209 -1.57415 0
M  V30 4875 O 464.32 0.115853 -1.73814 0
M  V30 4876 C 461.452 0.114366 -3.40708 0
M  V30 4877 H 462.645 -1.5017 -2.59594 0
M  V30 4878 H 460.198 -0.814888 -1.33376 0
M  V30 4879 H 460.933 1.02492 -3.07678 0
M  V30 4880 H 460.718 -0.556641 -3.88129 0
M  V30 4881 H 462.208 0.394272 -4.15735 0
M  V30 4882 N 462.645 1.35699 -0.801477 0
M  V30 4883 C 464.061 1.52065 -0.484596 0
M  V30 4884 C 464.261 1.75215 0.995084 0
M  V30 4885 O 463.317 1.79061 1.78026 0
M  V30 4886 C 464.63 2.69908 -1.32552 0
M  V30 4887 C 466.178 2.83784 -1.32044 0
M  V30 4888 C 466.653 4.04646 -2.14536 0
M  V30 4889 N 468.144 4.11814 -2.12046 0
M  V30 4890 C 468.879 5.04437 -2.72636 0
M  V30 4891 N 468.375 6.02426 -3.42133 0
M  V30 4892 N 470.168 4.97144 -2.62305 0
M  V30 4893 H 462.319 1.18928 -1.75983 0
M  V30 4894 H 464.582 0.581455 -0.748741 0
M  V30 4895 H 464.288 2.59363 -2.37537 0
M  V30 4896 H 464.162 3.64376 -0.975181 0
M  V30 4897 H 466.549 2.93783 -0.27846 0
M  V30 4898 H 466.63 1.90188 -1.71062 0
M  V30 4899 H 466.274 3.95407 -3.18772 0
M  V30 4900 H 466.204 4.97413 -1.72882 0
M  V30 4901 H 468.695 3.41664 -1.61476 0
M  V30 4902 H 469.008 6.69688 -3.85666 0
M  V30 4903 H 467.353 6.02615 -3.46237 0
M  V30 4904 H 470.544 4.19546 -2.07603 0
M  V30 4905 H 470.717 5.69138 -3.09815 0
M  V30 4906 N 464.123 0.554532 1.47522 0
M  V30 4907 C 465.053 -0.182974 2.32782 0
M  V30 4908 C 466.034 -0.911377 1.43624 0
M  V30 4909 O 467.219 -0.892366 1.72483 0
M  V30 4910 C 464.349 -1.21513 3.25349 0
M  V30 4911 C 463.303 -0.603355 4.23726 0
M  V30 4912 C 462.629 -1.73995 5.05598 0
M  V30 4913 C 463.929 0.441121 5.20434 0
M  V30 4914 H 465.623 0.52882 2.94693 0
M  V30 4915 H 463.169 0.255759 1.41711 0
M  V30 4916 H 465.122 -1.73922 3.83835 0
M  V30 4917 H 463.846 -1.95683 2.61487 0
M  V30 4918 H 462.505 -0.10059 3.66462 0
M  V30 4919 H 462.153 -2.47063 4.38143 0
M  V30 4920 H 461.853 -1.3364 5.72201 0
M  V30 4921 H 463.377 -2.26735 5.66942 0
M  V30 4922 H 464.791 0.00319931 5.733 0
M  V30 4923 H 463.188 0.763402 5.95224 0
M  V30 4924 H 464.258 1.33799 4.66075 0
M  V30 4925 N 465.601 -1.54893 0.290851 0
M  V30 4926 C 466.878 -1.91991 -0.373989 0
M  V30 4927 C 467.258 -1.21694 -1.72493 0
M  V30 4928 O 466.606 -0.34917 -2.25816 0
M  V30 4929 C 466.816 -3.45419 -0.498703 0
M  V30 4930 C 468.164 -4.1748 -0.774298 0
M  V30 4931 O 469.188 -3.51398 -0.582908 0
M  V30 4932 O 468.047 -5.3445 -1.14129 0
M  V30 4933 H 465.141 -0.800593 -0.207315 0
M  V30 4934 H 467.687 -1.66297 0.338164 0
M  V30 4935 H 466.459 -3.88688 0.451392 0
M  V30 4936 H 466.082 -3.77117 -1.25972 0
M  V30 4937 N 467.08 -0.0183926 -1.57589 0
M  V30 4938 C 468.01 0.965596 -2.12599 0
M  V30 4939 C 468.991 1.34641 -1.0395 0
M  V30 4940 O 470.176 1.42693 -1.31729 0
M  V30 4941 C 467.306 2.25149 -2.64434 0
M  V30 4942 C 466.26 2.01175 -3.77773 0
M  V30 4943 C 465.586 3.35937 -4.15994 0
M  V30 4944 C 466.886 1.35953 -5.04296 0
M  V30 4945 H 468.58 0.507504 -2.95067 0
M  V30 4946 H 466.126 0.242671 -1.41941 0
M  V30 4947 H 468.079 2.94357 -3.01549 0
M  V30 4948 H 466.803 2.73105 -1.79112 0
M  V30 4949 H 465.462 1.34388 -3.4108 0
M  V30 4950 H 465.11 3.81631 -3.27669 0
M  V30 4951 H 464.81 3.20705 -4.92364 0
M  V30 4952 H 466.334 4.0643 -4.55683 0
M  V30 4953 H 467.748 1.95144 -5.39065 0
M  V30 4954 H 466.145 1.31152 -5.85593 0
M  V30 4955 H 467.215 0.331071 -4.83768 0
M  V30 4956 N 468.558 1.5553 0.254621 0
M  V30 4957 C 469.468 1.92789 1.33677 0
M  V30 4958 C 470.484 0.827356 1.53071 0
M  V30 4959 O 471.66 1.12807 1.66843 0
M  V30 4960 C 468.725 2.20827 2.67275 0
M  V30 4961 C 467.786 3.4427 2.5647 0
M  V30 4962 C 467.019 3.70961 3.83697 0
M  V30 4963 O 467.242 2.99852 4.85227 0
M  V30 4964 O 466.176 4.64491 3.82794 0
M  V30 4965 H 470.002 2.84945 1.05071 0
M  V30 4966 H 467.587 1.42312 0.454723 0
M  V30 4967 H 469.469 2.40204 3.46237 0
M  V30 4968 H 468.144 1.31851 2.9563 0
M  V30 4969 H 467.051 3.30209 1.75821 0
M  V30 4970 H 468.384 4.33524 2.33062 0
M  V30 4971 N 470.036 -0.519951 1.48776 0
M  V30 4972 C 470.984 -1.64443 1.64503 0
M  V30 4973 C 471.978 -1.61501 0.511248 0
M  V30 4974 O 473.184 -1.66238 0.690294 0
M  V30 4975 H 469.559 -0.544776 0.518385 0
M  V30 4976 H 471.53 -1.48325 2.58925 0
M  V30 4977 C 470.279 -3.02673 1.71127 0
M  V30 4978 H 469.602 -3.05635 2.57735 0
M  V30 4979 H 471.042 -3.80941 1.86172 0
M  V30 4980 C 469.501 -3.33854 0.452032 0
M  V30 4981 O 470.031 -3.99385 -0.430678 0
M  V30 4982 N 468.237 -2.88825 0.32069 0
M  V30 4983 H 467.784 -2.35674 1.03998 0
M  V30 4984 H 467.742 -3.10056 -0.520814 0
M  V30 4985 N 471.514 -1.37532 -0.769588 0
M  V30 4986 C 472.76 -1.33057 -1.53048 0
M  V30 4987 C 473.093 0.0841865 -1.94017 0
M  V30 4988 O 472.368 1.04198 -1.64235 0
M  V30 4989 C 472.651 -2.27166 -2.79406 0
M  V30 4990 C 472.504 -3.77429 -2.44677 0
M  V30 4991 C 473.823 -2.19683 -3.81349 0
M  V30 4992 H 470.942 -0.484655 -0.555228 0
M  V30 4993 H 473.584 -1.68251 -0.882702 0
M  V30 4994 H 471.734 -1.97283 -3.34682 0
M  V30 4995 H 473.406 -4.17918 -1.953 0
M  V30 4996 H 471.649 -3.95892 -1.77346 0
M  V30 4997 H 472.32 -4.38716 -3.35011 0
M  V30 4998 H 474.796 -2.46029 -3.35573 0
M  V30 4999 H 473.672 -2.87668 -4.67481 0
M  V30 5000 H 473.933 -1.19045 -4.25771 0
M  V30 5001 N 472.992 0.995999 -1.22138 0
M  V30 5002 C 474.403 1.54961 -1.04135 0
M  V30 5003 C 474.754 1.92159 0.396147 0
M  V30 5004 O 473.879 1.74435 1.28069 0
M  V30 5005 C 474.474 2.81581 -1.88408 0
M  V30 5006 C 473.033 3.33396 -1.74712 0
M  V30 5007 C 472.18 2.06509 -1.85066 0
M  V30 5008 H 475.131 0.817436 -1.36028 0
M  V30 5009 H 475.152 3.53822 -1.39966 0
M  V30 5010 H 474.664 2.54476 -2.93025 0
M  V30 5011 H 472.765 3.65416 -0.728159 0
M  V30 5012 H 472.878 4.04208 -2.57202 0
M  V30 5013 H 471.242 2.19925 -1.28472 0
M  V30 5014 H 472.025 1.81804 -2.91208 0
M  V30 5015 N 474.47 1.03057 1.19235 0
M  V30 5016 C 475.433 0.617418 2.20727 0
M  V30 5017 C 476.433 -0.319856 1.57587 0
M  V30 5018 O 477.623 -0.106633 1.73873 0
M  V30 5019 C 474.755 -0.096296 3.40764 0
M  V30 5020 H 475.948 1.51544 2.58794 0
M  V30 5021 H 473.501 0.821949 1.32942 0
M  V30 5022 H 474.236 -1.00859 3.08217 0
M  V30 5023 H 474.021 0.577217 3.87828 0
M  V30 5024 H 475.511 -0.372219 4.15938 0
M  V30 5025 N 475.948 -1.35272 0.808662 0
M  V30 5026 C 477.176 -2.02946 0.402537 0
M  V30 5027 C 477.591 -1.60937 -0.987147 0
M  V30 5028 O 476.948 -0.807917 -1.63643 0
M  V30 5029 C 476.999 -3.58317 0.47868 0
M  V30 5030 O 476.72 -3.98799 1.81358 0
M  V30 5031 C 478.221 -4.43251 0.0656281 0
M  V30 5032 H 475.441 -0.650831 0.163279 0
M  V30 5033 H 477.985 -1.72849 1.09286 0
M  V30 5034 H 476.14 -3.87055 -0.163415 0
M  V30 5035 H 476.554 -4.93451 1.77781 0
M  V30 5036 H 478.028 -5.51738 0.170017 0
M  V30 5037 H 478.505 -4.27913 -0.989278 0
M  V30 5038 H 479.111 -4.19813 0.68096 0
M  V30 5039 N 477.426 -0.562348 -1.47226 0
M  V30 5040 C 478.675 -0.038041 -2.01664 0
M  V30 5041 C 478.988 1.32199 -1.44162 0
M  V30 5042 O 480.194 1.9365 -1.90294 0
M  V30 5043 C 478.65 -0.0174958 -3.59896 0
M  V30 5044 C 478.258 -1.3746 -4.2639 0
M  V30 5045 C 480.002 0.453934 -4.22066 0
M  V30 5046 C 477.909 -1.31289 -5.76643 0
M  V30 5047 H 476.839 -0.0104511 -0.753928 0
M  V30 5048 H 479.49 -0.710966 -1.69167 0
M  V30 5049 H 477.872 0.721182 -3.89378 0
M  V30 5050 H 479.046 -2.1314 -4.08544 0
M  V30 5051 H 477.361 -1.78438 -3.7623 0
M  V30 5052 H 479.958 0.518584 -5.32179 0
M  V30 5053 H 480.301 1.46706 -3.89594 0
M  V30 5054 H 480.834 -0.230044 -3.97134 0
M  V30 5055 H 477.573 -2.30217 -6.13743 0
M  V30 5056 H 477.093 -0.597973 -5.96812 0
M  V30 5057 H 478.772 -1.01713 -6.38955 0
M  V30 5058 N 478.904 1.54736 -0.299062 0
M  V30 5059 C 480.132 2.04512 0.313447 0
M  V30 5060 C 480.547 1.17643 1.47667 0
M  V30 5061 O 479.904 0.20164 1.81383 0
M  V30 5062 C 479.955 3.53171 0.771542 0
M  V30 5063 O 479.676 4.36736 -0.345379 0
M  V30 5064 C 481.177 4.18936 1.4494 0
M  V30 5065 H 478.397 0.667507 0.0683784 0
M  V30 5066 H 480.941 1.99752 -0.438129 0
M  V30 5067 H 479.096 3.58298 1.47314 0
M  V30 5068 H 479.51 5.24499 0.0109219 0
M  V30 5069 H 480.984 5.24482 1.72111 0
M  V30 5070 H 481.461 3.68554 2.38883 0
M  V30 5071 H 482.067 4.17879 0.791028 0
M  V30 5072 N 480.382 0.0267497 1.57577 0
M  V30 5073 C 481.659 -0.690926 1.82991 0
M  V30 5074 C 482.039 -1.90471 0.910164 0
M  V30 5075 O 481.387 -2.28474 -0.0347985 0
M  V30 5076 C 481.597 -1.07139 3.32148 0
M  V30 5077 C 482.945 -1.46402 3.98562 0
M  V30 5078 O 483.969 -1.16443 3.36629 0
M  V30 5079 O 482.828 -2.02214 5.07712 0
M  V30 5080 H 479.922 -0.338747 0.75444 0
M  V30 5081 H 482.468 0.0542506 1.69613 0
M  V30 5082 H 481.24 -0.207394 3.9075 0
M  V30 5083 H 480.863 -1.87481 3.50623 0
M  V30 5084 N 481.861 -1.55662 -0.24637 0
M  V30 5085 C 483.11 -1.7672 -0.972254 0
M  V30 5086 C 483.423 -0.59078 -1.86465 0
M  V30 5087 O 484.629 -0.684391 -2.62732 0
M  V30 5088 C 483.085 -3.12869 -1.7788 0
M  V30 5089 C 482.693 -4.38161 -0.933768 0
M  V30 5090 C 484.437 -3.43265 -2.49738 0
M  V30 5091 C 482.344 -5.6534 -1.73623 0
M  V30 5092 H 481.274 -0.658795 -0.366749 0
M  V30 5093 H 483.925 -1.82092 -0.226902 0
M  V30 5094 H 482.307 -3.01606 -2.56612 0
M  V30 5095 H 483.481 -4.60413 -0.188736 0
M  V30 5096 H 481.796 -4.15102 -0.328488 0
M  V30 5097 H 484.393 -4.35501 -3.10231 0
M  V30 5098 H 484.736 -2.64614 -3.2138 0
M  V30 5099 H 485.269 -3.55746 -1.78016 0
M  V30 5100 H 482.008 -6.46814 -1.06354 0
M  V30 5101 H 481.528 -5.47188 -2.45653 0
M  V30 5102 H 483.207 -6.04616 -2.30323 0
M  V30 5103 N 483.339 0.512053 -1.4905 0
M  V30 5104 C 484.586 1.26686 -1.57978 0
M  V30 5105 C 484.914 1.92733 -0.261553 0
M  V30 5106 O 484.169 1.80772 0.749667 0
M  V30 5107 C 484.468 2.36446 -2.68008 0
M  V30 5108 C 484.134 1.87932 -4.09869 0
M  V30 5109 C 482.796 1.74419 -4.48477 0
M  V30 5110 C 485.148 1.5149 -4.98698 0
M  V30 5111 C 482.476 1.22827 -5.73699 0
M  V30 5112 C 484.828 1.01355 -6.24428 0
M  V30 5113 C 483.492 0.864735 -6.61875 0
M  V30 5114 H 482.762 0.463577 -0.578081 0
M  V30 5115 H 485.409 0.569421 -1.82838 0
M  V30 5116 H 483.714 3.11933 -2.37076 0
M  V30 5117 H 485.411 2.9453 -2.72127 0
M  V30 5118 H 482.001 1.99405 -3.79389 0
M  V30 5119 H 486.185 1.60782 -4.69535 0
M  V30 5120 H 481.441 1.10008 -6.01422 0
M  V30 5121 H 485.615 0.722351 -6.92644 0
M  V30 5122 H 483.242 0.462777 -7.5879 0
M  V30 5123 N 484.817 1.37938 0.762283 0
M  V30 5124 C 486.065 1.33404 1.51815 0
M  V30 5125 C 486.386 -0.0780975 1.94844 0
M  V30 5126 O 485.656 -1.02405 1.67003 0
M  V30 5127 H 484.236 0.490839 0.563104 0
M  V30 5128 H 486.898 1.72527 0.906669 0
M  V30 5129 H 485.994 1.97926 2.41313 0
M  V30 5130 N 486.295 -0.989507 1.22664 0
M  V30 5131 C 487.258 -2.06183 1.00106 0
M  V30 5132 C 488.258 -1.60765 -0.0337726 0
M  V30 5133 O 489.448 -1.72989 0.205072 0
M  V30 5134 C 486.58 -3.37021 0.51279 0
M  V30 5135 H 487.773 -2.27629 1.95256 0
M  V30 5136 H 485.326 -1.16158 1.0458 0
M  V30 5137 H 486.061 -3.21261 -0.442917 0
M  V30 5138 H 485.846 -3.71323 1.25942 0
M  V30 5139 H 487.336 -4.1591 0.375315 0
M  V30 5140 N 487.773 -1.03688 -1.18687 0
M  V30 5141 C 488.998 -0.757819 -1.93059 0
M  V30 5142 C 489.423 0.678353 -1.75442 0
M  V30 5143 O 488.781 1.46938 -1.06203 0
M  V30 5144 C 488.829 -1.12423 -3.42627 0
M  V30 5145 O 487.933 -0.247505 -4.11657 0
M  V30 5146 H 487.274 -0.279245 -0.602427 0
M  V30 5147 H 489.804 -1.3857 -1.5053 0
M  V30 5148 H 489.814 -1.08454 -3.93322 0
M  V30 5149 H 488.489 -2.17049 -3.54771 0
M  V30 5150 H 487.066 -0.34649 -3.71287 0
M  V30 5151 N 489.251 1.34841 -0.815825 0
M  V30 5152 C 490.183 2.28409 -0.190265 0
M  V30 5153 C 491.196 1.50705 0.615771 0
M  V30 5154 O 492.385 1.72822 0.446616 0
M  V30 5155 C 489.485 3.30441 0.752446 0
M  V30 5156 C 488.658 4.37399 -0.00922152 0
M  V30 5157 C 487.717 5.19234 0.853351 0
M  V30 5158 O 486.743 5.68404 0.300919 0
M  V30 5159 N 487.945 5.38248 2.17416 0
M  V30 5160 H 490.71 2.82732 -0.994114 0
M  V30 5161 H 488.271 1.47289 -0.672129 0
M  V30 5162 H 490.263 3.82084 1.33394 0
M  V30 5163 H 488.833 2.76565 1.45707 0
M  V30 5164 H 488.053 3.86567 -0.771979 0
M  V30 5165 H 489.341 5.05992 -0.533807 0
M  V30 5166 H 488.739 4.99961 2.6468 0
M  V30 5167 H 487.296 5.93035 2.70467 0
M  V30 5168 N 490.729 0.570148 1.46925 0
M  V30 5169 C 492.006 -0.0153259 1.95594 0
M  V30 5170 C 492.386 -1.47232 1.51281 0
M  V30 5171 O 491.734 -2.15574 0.757624 0
M  V30 5172 C 491.944 0.143624 3.48704 0
M  V30 5173 C 493.292 0.00494484 4.246 0
M  V30 5174 O 494.316 0.0718214 3.56128 0
M  V30 5175 O 493.175 -0.141175 5.46318 0
M  V30 5176 H 490.269 -0.0568819 0.825041 0
M  V30 5177 H 492.815 0.637583 1.57267 0
M  V30 5178 H 491.587 1.15699 3.73804 0
M  V30 5179 H 491.21 -0.5463 3.93829 0
M  V30 5180 N 492.207 -1.54576 0.307264 0
M  V30 5181 C 493.435 -2.04675 -0.302597 0
M  V30 5182 C 493.85 -1.18425 -1.47041 0
M  V30 5183 O 493.207 -0.211257 -1.81273 0
M  V30 5184 C 493.258 -3.53575 -0.752801 0
M  V30 5185 O 492.979 -4.36547 0.368536 0
M  V30 5186 C 494.48 -4.19699 -1.42717 0
M  V30 5187 H 491.7 -0.66786 -0.0648374 0
M  V30 5188 H 494.244 -1.99516 0.448716 0
M  V30 5189 H 492.399 -3.59074 -1.45412 0
M  V30 5190 H 492.813 -5.24497 0.0168937 0
M  V30 5191 H 494.287 -5.25388 -1.69327 0
M  V30 5192 H 494.764 -3.69815 -2.36925 0
M  V30 5193 H 495.37 -4.18293 -0.768856 0
M  V30 5194 N 493.685 -0.035106 -1.57561 0
M  V30 5195 C 494.615 0.942993 -2.13612 0
M  V30 5196 C 495.596 1.33531 -1.05373 0
M  V30 5197 O 496.781 1.41287 -1.33235 0
M  V30 5198 C 493.911 2.22332 -2.66807 0
M  V30 5199 C 492.865 1.97156 -3.79886 0
M  V30 5200 C 492.191 3.31506 -4.19533 0
M  V30 5201 C 493.491 1.30596 -5.05709 0
M  V30 5202 H 495.185 0.476179 -2.95589 0
M  V30 5203 H 492.731 0.227602 -1.4219 0
M  V30 5204 H 494.684 2.91142 -3.04654 0
M  V30 5205 H 493.408 2.7119 -1.81999 0
M  V30 5206 H 492.067 1.30763 -3.42486 0
M  V30 5207 H 491.715 3.78134 -3.31698 0
M  V30 5208 H 491.415 3.15465 -4.95738 0
M  V30 5209 H 492.939 4.01574 -4.59968 0
M  V30 5210 H 494.353 1.89416 -5.41105 0
M  V30 5211 H 492.75 1.24934 -5.86951 0
M  V30 5212 H 493.82 0.279742 -4.84092 0
M  V30 5213 N 495.163 1.55791 0.238111 0
M  V30 5214 C 496.388 1.8244 0.986432 0
M  V30 5215 C 496.813 0.613314 1.7782 0
M  V30 5216 O 496.171 -0.437767 1.75935 0
M  V30 5217 C 496.219 3.06917 1.893 0
M  V30 5218 O 495.323 2.84449 2.98601 0
M  V30 5219 H 494.664 0.601975 0.280218 0
M  V30 5220 H 497.194 2.02987 0.256437 0
M  V30 5221 H 497.204 3.36583 2.30598 0
M  V30 5222 H 495.879 3.947 1.31091 0
M  V30 5223 H 494.456 2.65972 2.61368 0
M  V30 5224 N 496.642 -0.504142 1.49319 0
M  V30 5225 C 497.87 -1.28256 1.62351 0
M  V30 5226 C 498.285 -1.86502 0.293682 0
M  V30 5227 O 497.642 -1.67678 -0.720449 0
M  V30 5228 C 497.693 -2.41507 2.68992 0
M  V30 5229 O 497.414 -1.85656 3.96817 0
M  V30 5230 C 498.915 -3.32929 2.927 0
M  V30 5231 H 496.135 -0.389115 0.546654 0
M  V30 5232 H 498.679 -0.605531 1.95329 0
M  V30 5233 H 496.834 -3.05046 2.38801 0
M  V30 5234 H 497.248 -2.59981 4.55533 0
M  V30 5235 H 498.722 -4.0868 3.71058 0
M  V30 5236 H 499.199 -3.89733 2.02496 0
M  V30 5237 H 499.805 -2.75158 3.24296 0
M  V30 5238 N 498.12 -1.38341 -0.754957 0
M  V30 5239 C 499.083 -1.35262 -1.85032 0
M  V30 5240 C 500.083 -0.253393 -1.58791 0
M  V30 5241 O 501.273 -0.510205 -1.66561 0
M  V30 5242 C 498.405 -1.10544 -3.22479 0
M  V30 5243 H 499.598 -2.32712 -1.8917 0
M  V30 5244 H 497.151 -1.23614 -0.956515 0
M  V30 5245 H 497.886 -0.136952 -3.24011 0
M  V30 5246 H 497.671 -1.90127 -3.4292 0
M  V30 5247 H 499.161 -1.11082 -4.02555 0
M  V30 5248 N 499.598 0.982988 -1.23187 0
M  V30 5249 C 500.528 2.09301 -1.03515 0
M  V30 5250 C 501.509 1.70035 0.0471136 0
M  V30 5251 O 502.694 1.93847 -0.117029 0
M  V30 5252 C 499.824 3.4167 -0.622791 0
M  V30 5253 C 498.778 3.94828 -1.65211 0
M  V30 5254 C 498.104 5.23362 -1.09527 0
M  V30 5255 C 499.404 4.2439 -3.04451 0
M  V30 5256 H 501.098 2.26016 -1.96359 0
M  V30 5257 H 498.644 1.08611 -0.945501 0
M  V30 5258 H 500.597 4.18746 -0.472233 0
M  V30 5259 H 499.321 3.24811 0.341329 0
M  V30 5260 H 497.98 3.19895 -1.79061 0
M  V30 5261 H 497.628 5.02852 -0.122211 0
M  V30 5262 H 497.328 5.59895 -1.783 0
M  V30 5263 H 498.852 6.03062 -0.956511 0
M  V30 5264 H 500.266 4.92225 -2.93917 0
M  V30 5265 H 498.663 4.72118 -3.70438 0
M  V30 5266 H 499.733 3.31765 -3.53638 0
M  V30 5267 N 501.076 1.04316 1.18135 0
M  V30 5268 C 502.008 0.594444 2.21357 0
M  V30 5269 C 503.021 -0.337215 1.59269 0
M  V30 5270 O 504.21 -0.131337 1.78016 0
M  V30 5271 C 501.31 -0.151251 3.38562 0
M  V30 5272 C 500.483 0.788907 4.30227 0
M  V30 5273 C 499.542 0.0860572 5.2613 0
M  V30 5274 O 498.568 0.717302 5.64662 0
M  V30 5275 N 499.77 -1.17969 5.68387 0
M  V30 5276 H 502.535 1.48227 2.60478 0
M  V30 5277 H 500.096 0.92396 1.32946 0
M  V30 5278 H 502.088 -0.631352 3.99745 0
M  V30 5279 H 500.658 -0.940639 2.98112 0
M  V30 5280 H 499.878 1.44882 3.6661 0
M  V30 5281 H 501.166 1.42738 4.88368 0
M  V30 5282 H 500.564 -1.71302 5.3914 0
M  V30 5283 H 499.121 -1.60402 6.31755 0
M  V30 5284 N 502.554 -1.34406 0.822964 0
M  V30 5285 C 503.8 -1.98999 0.420847 0
M  V30 5286 C 504.155 -1.64067 -1.00498 0
M  V30 5287 O 503.448 -0.902071 -1.69036 0
M  V30 5288 C 503.642 -3.52981 0.560268 0
M  V30 5289 C 503.471 -4.02873 1.99809 0
M  V30 5290 C 502.241 -4.31463 2.62998 0
M  V30 5291 C 504.439 -4.20241 2.96483 0
M  V30 5292 N 502.421 -4.6739 3.9802 0
M  V30 5293 C 503.792 -4.59348 4.16413 0
M  V30 5294 C 505.847 -4.02489 2.93098 0
M  V30 5295 C 504.55 -4.82559 5.33413 0
M  V30 5296 C 506.576 -4.26866 4.09315 0
M  V30 5297 C 505.938 -4.6626 5.27997 0
M  V30 5298 H 502.037 -0.755432 0.202104 0
M  V30 5299 H 504.621 -1.62815 1.06767 0
M  V30 5300 H 502.792 -3.88359 -0.0566596 0
M  V30 5301 H 504.524 -4.04487 0.131146 0
M  V30 5302 H 501.279 -4.22373 2.14238 0
M  V30 5303 H 501.703 -4.89588 4.67582 0
M  V30 5304 H 506.345 -3.71161 2.02483 0
M  V30 5305 H 504.063 -5.12754 6.24587 0
M  V30 5306 H 507.649 -4.14667 4.08096 0
M  V30 5307 H 506.529 -4.84752 6.16429 0
M  V30 5308 N 504.032 -0.577932 -1.46621 0
M  V30 5309 C 504.962 0.145917 -2.33044 0
M  V30 5310 C 505.943 0.888412 -1.45056 0
M  V30 5311 O 507.128 0.864812 -1.73881 0
M  V30 5312 C 504.258 1.16322 -3.27241 0
M  V30 5313 C 503.212 0.535868 -4.24632 0
M  V30 5314 C 502.538 1.65929 -5.08303 0
M  V30 5315 C 503.838 -0.523861 -5.19666 0
M  V30 5316 H 505.532 -0.575636 -2.93814 0
M  V30 5317 H 503.078 -0.278272 -1.41286 0
M  V30 5318 H 505.031 1.67793 -3.86553 0
M  V30 5319 H 503.755 1.91498 -2.64567 0
M  V30 5320 H 502.414 0.0422759 -3.66576 0
M  V30 5321 H 502.062 2.40061 -4.42018 0
M  V30 5322 H 501.762 1.2452 -5.74255 0
M  V30 5323 H 503.286 2.17686 -5.70478 0
M  V30 5324 H 504.7 -0.0944059 -5.73222 0
M  V30 5325 H 503.097 -0.858 -5.93935 0
M  V30 5326 H 504.167 -1.41197 -4.63887 0
M  V30 5327 N 505.51 1.54411 -0.315457 0
M  V30 5328 C 506.44 2.27002 0.547039 0
M  V30 5329 C 507.421 1.27492 1.12605 0
M  V30 5330 O 508.606 1.5629 1.15269 0
M  V30 5331 C 505.736 3.02171 1.71201 0
M  V30 5332 C 504.69 4.0895 1.26268 0
M  V30 5333 C 504.016 4.71915 2.51396 0
M  V30 5334 C 505.316 5.20891 0.383419 0
M  V30 5335 H 507.01 2.99343 -0.0584517 0
M  V30 5336 H 504.556 1.4397 -0.0295527 0
M  V30 5337 H 506.509 3.51681 2.32161 0
M  V30 5338 H 505.233 2.27433 2.34397 0
M  V30 5339 H 503.892 3.60312 0.676062 0
M  V30 5340 H 503.54 3.93801 3.12937 0
M  V30 5341 H 503.24 5.44039 2.22026 0
M  V30 5342 H 504.764 5.24195 3.13133 0
M  V30 5343 H 506.178 5.66206 0.899082 0
M  V30 5344 H 504.575 5.99821 0.182857 0
M  V30 5345 H 505.645 4.81324 -0.587821 0
M  V30 5346 N 506.988 0.0434614 1.5754 0
M  V30 5347 C 507.918 -0.931651 2.14109 0
M  V30 5348 C 508.899 -1.32971 1.06079 0
M  V30 5349 O 510.084 -1.40579 1.33982 0
M  V30 5350 C 507.214 -2.20914 2.67982 0
M  V30 5351 C 506.168 -1.95139 3.80926 0
M  V30 5352 C 505.494 -3.29276 4.21285 0
M  V30 5353 C 506.794 -1.27913 5.06395 0
M  V30 5354 H 508.488 -0.460497 2.95837 0
M  V30 5355 H 506.034 -0.220058 1.42309 0
M  V30 5356 H 507.987 -2.89522 3.06194 0
M  V30 5357 H 506.711 -2.70221 1.83434 0
M  V30 5358 H 505.37 -1.28945 3.43175 0
M  V30 5359 H 505.018 -3.76369 3.33699 0
M  V30 5360 H 504.718 -3.12831 4.97404 0
M  V30 5361 H 506.242 -3.99129 4.62091 0
M  V30 5362 H 507.656 -1.86544 5.42102 0
M  V30 5363 H 506.053 -1.2182 5.87605 0
M  V30 5364 H 507.123 -0.254066 4.84234 0
M  V30 5365 N 508.466 -1.55915 -0.229846 0
M  V30 5366 C 509.396 -1.94754 -1.28815 0
M  V30 5367 C 510.377 -0.814657 -1.49323 0
M  V30 5368 O 511.562 -1.07631 -1.61645 0
M  V30 5369 C 508.692 -2.25705 -2.63959 0
M  V30 5370 C 507.646 -3.41406 -2.5812 0
M  V30 5371 C 506.972 -3.57941 -3.97218 0
M  V30 5372 C 508.272 -4.76616 -2.13623 0
M  V30 5373 H 509.966 -2.83404 -0.965547 0
M  V30 5374 H 507.512 -1.36353 -0.463028 0
M  V30 5375 H 509.465 -2.51467 -3.38146 0
M  V30 5376 H 508.189 -1.339 -2.9789 0
M  V30 5377 H 506.848 -3.1568 -1.86391 0
M  V30 5378 H 506.496 -2.63526 -4.28443 0
M  V30 5379 H 506.196 -4.35757 -3.94195 0
M  V30 5380 H 507.72 -3.86042 -4.73079 0
M  V30 5381 H 509.134 -5.01637 -2.77549 0
M  V30 5382 H 507.531 -5.57655 -2.21677 0
M  V30 5383 H 508.601 -4.7253 -1.08829 0
M  V30 5384 N 509.944 0.496216 -1.49584 0
M  V30 5385 C 511.191 1.25003 -1.59312 0
M  V30 5386 C 511.519 1.92445 -0.28198 0
M  V30 5387 O 510.774 1.81557 0.730452 0
M  V30 5388 C 511.073 2.3359 -2.705 0
M  V30 5389 C 510.739 1.83574 -4.11839 0
M  V30 5390 C 509.401 1.69653 -4.50302 0
M  V30 5391 C 511.753 1.46193 -5.00277 0
M  V30 5392 C 509.081 1.16736 -5.74969 0
M  V30 5393 C 511.433 0.947265 -6.25468 0
M  V30 5394 C 510.097 0.794485 -6.62755 0
M  V30 5395 H 509.367 0.45742 -0.582965 0
M  V30 5396 H 512.014 0.549996 -1.83432 0
M  V30 5397 H 510.319 3.09401 -2.40371 0
M  V30 5398 H 512.016 2.91627 -2.75235 0
M  V30 5399 H 508.606 1.9537 -3.81482 0
M  V30 5400 H 512.79 1.55793 -4.71214 0
M  V30 5401 H 508.046 1.03623 -6.02555 0
M  V30 5402 H 512.22 0.648846 -6.93371 0
M  V30 5403 H 509.847 0.382271 -7.59238 0
M  V30 5404 N 511.423 1.38739 0.74761 0
M  V30 5405 C 512.651 1.38521 1.53686 0
M  V30 5406 C 513.066 -0.0235129 1.88785 0
M  V30 5407 O 512.423 -0.991662 1.53207 0
M  V30 5408 C 512.474 2.24641 2.83229 0
M  V30 5409 O 512.195 3.60026 2.49625 0
M  V30 5410 C 513.696 2.32669 3.77333 0
M  V30 5411 H 510.916 0.473589 0.475347 0
M  V30 5412 H 513.46 1.82395 0.924786 0
M  V30 5413 H 511.615 1.84213 3.40799 0
M  V30 5414 H 512.029 4.05435 3.3275 0
M  V30 5415 H 513.503 2.97201 4.65162 0
M  V30 5416 H 513.98 1.3421 4.18192 0
M  V30 5417 H 514.586 2.73512 3.25685 0
M  V30 5418 N 512.901 -0.976442 1.23707 0
M  V30 5419 C 514.317 -1.24341 1.00058 0
M  V30 5420 C 514.517 -1.99315 -0.295932 0
M  V30 5421 O 513.573 -2.3123 -1.01435 0
M  V30 5422 C 514.886 -2.03909 2.21001 0
M  V30 5423 C 516.434 -2.17034 2.25534 0
M  V30 5424 C 516.909 -2.99994 3.46075 0
M  V30 5425 N 518.4 -3.07578 3.46338 0
M  V30 5426 C 519.135 -3.72104 4.36264 0
M  V30 5427 N 518.631 -4.3842 5.36432 0
M  V30 5428 N 520.424 -3.69029 4.23998 0
M  V30 5429 H 512.575 -0.47428 2.07037 0
M  V30 5430 H 514.838 -0.272167 0.908091 0
M  V30 5431 H 514.544 -1.56198 3.15111 0
M  V30 5432 H 514.418 -3.04654 2.22409 0
M  V30 5433 H 516.805 -2.63951 1.31961 0
M  V30 5434 H 516.886 -1.15664 2.28156 0
M  V30 5435 H 516.53 -2.53772 4.39957 0
M  V30 5436 H 516.46 -4.01541 3.40694 0
M  V30 5437 H 518.951 -2.60397 2.73865 0
M  V30 5438 H 519.264 -4.85447 6.013 0
M  V30 5439 H 517.609 -4.37116 5.40328 0
M  V30 5440 H 520.8 -3.16392 3.44984 0
M  V30 5441 H 520.973 -4.19034 4.94282 0
M  V30 5442 N 514.379 -1.04941 -1.1758 0
M  V30 5443 C 515.609 -0.777166 -1.91425 0
M  V30 5444 C 516.017 0.670647 -1.76915 0
M  V30 5445 O 515.36 1.46965 -1.10213 0
M  V30 5446 C 515.422 -1.07495 -3.43052 0
M  V30 5447 C 515.086 -2.51844 -3.81345 0
M  V30 5448 C 516.083 -3.50047 -3.844 0
M  V30 5449 C 513.768 -2.86787 -4.12382 0
M  V30 5450 C 515.762 -4.81239 -4.17957 0
M  V30 5451 C 513.449 -4.18182 -4.45608 0
M  V30 5452 C 514.447 -5.15219 -4.48373 0
M  V30 5453 O 514.135 -6.44258 -4.80819 0
M  V30 5454 H 513.867 -0.282209 -0.614275 0
M  V30 5455 H 516.421 -1.40258 -1.50056 0
M  V30 5456 H 514.651 -0.392437 -3.84704 0
M  V30 5457 H 516.34 -0.78912 -3.98155 0
M  V30 5458 H 517.106 -3.24391 -3.60548 0
M  V30 5459 H 512.985 -2.11922 -4.09402 0
M  V30 5460 H 516.529 -5.56974 -4.2003 0
M  V30 5461 H 512.426 -4.43602 -4.68922 0
M  V30 5462 H 513.194 -6.49041 -4.98686 0
M  V30 5463 N 515.857 1.33968 -0.830081 0
M  V30 5464 C 517.268 1.80439 -0.479455 0
M  V30 5465 C 517.619 1.68756 1.00079 0
M  V30 5466 O 516.744 1.23171 1.77927 0
M  V30 5467 C 517.339 3.27611 -0.863505 0
M  V30 5468 C 515.898 3.72133 -0.565145 0
M  V30 5469 C 515.045 2.55549 -1.07657 0
M  V30 5470 H 517.996 1.21614 -1.0196 0
M  V30 5471 H 518.017 3.8012 -0.170083 0
M  V30 5472 H 517.529 3.36082 -1.94089 0
M  V30 5473 H 515.63 3.69196 0.502536 0
M  V30 5474 H 515.743 4.65963 -1.11422 0
M  V30 5475 H 514.107 2.49788 -0.497807 0
M  V30 5476 H 514.89 2.66786 -2.16055 0
M  V30 5477 N 517.335 0.585699 1.46312 0
M  V30 5478 C 518.612 0.00542031 1.95599 0
M  V30 5479 C 518.992 -1.45619 1.52834 0
M  V30 5480 O 518.34 -2.14759 0.780446 0
M  V30 5481 C 518.55 0.180601 3.48532 0
M  V30 5482 C 519.898 0.049979 4.24571 0
M  V30 5483 O 520.922 0.109589 3.56031 0
M  V30 5484 O 519.781 -0.0832226 5.46437 0
M  V30 5485 H 516.875 -0.0481281 0.825598 0
M  V30 5486 H 519.421 0.654227 1.56582 0
M  V30 5487 H 518.193 1.19657 3.72556 0
M  V30 5488 H 517.816 -0.504498 3.94386 0
M  V30 5489 N 518.813 -1.54241 0.323641 0
M  V30 5490 C 520.059 -2.00867 -0.279323 0
M  V30 5491 C 520.392 -1.21146 -1.5178 0
M  V30 5492 O 519.667 -0.29378 -1.92269 0
M  V30 5493 C 519.95 -3.54837 -0.613387 0
M  V30 5494 C 519.803 -4.45284 0.635803 0
M  V30 5495 C 521.122 -4.16186 -1.43099 0
M  V30 5496 H 518.241 -0.730177 -0.100049 0
M  V30 5497 H 520.883 -1.84829 0.440235 0
M  V30 5498 H 519.033 -3.68634 -1.22641 0
M  V30 5499 H 520.705 -4.43357 1.27406 0
M  V30 5500 H 518.948 -4.14956 1.26466 0
M  V30 5501 H 519.619 -5.5084 0.357597 0
M  V30 5502 H 522.095 -4.05964 -0.912814 0
M  V30 5503 H 520.971 -5.24031 -1.6335 0
M  V30 5504 H 521.232 -3.69516 -2.42715 0
M  V30 5505 N 520.291 -0.0518155 -1.57515 0
M  V30 5506 C 521.223 0.951542 -2.08515 0
M  V30 5507 C 522.236 1.27436 -1.01311 0
M  V30 5508 O 523.425 1.23504 -1.28876 0
M  V30 5509 C 520.525 2.27291 -2.5138 0
M  V30 5510 C 519.698 2.13191 -3.81927 0
M  V30 5511 C 518.757 3.28458 -4.11098 0
M  V30 5512 O 517.783 3.04334 -4.81009 0
M  V30 5513 N 518.985 4.52954 -3.63061 0
M  V30 5514 H 521.75 0.516242 -2.9522 0
M  V30 5515 H 519.311 0.13441 -1.61341 0
M  V30 5516 H 521.303 3.03272 -2.67971 0
M  V30 5517 H 519.873 2.62386 -1.69919 0
M  V30 5518 H 519.093 1.21798 -3.74912 0
M  V30 5519 H 520.381 2.00999 -4.67415 0
M  V30 5520 H 519.779 4.75444 -3.06545 0
M  V30 5521 H 518.336 5.26026 -3.84889 0
M  V30 5522 N 521.769 1.56035 0.221574 0
M  V30 5523 C 522.997 1.8313 0.962864 0
M  V30 5524 C 523.412 0.630934 1.77946 0
M  V30 5525 O 522.769 -0.400519 1.78051 0
M  V30 5526 C 522.82 3.08742 1.88045 0
M  V30 5527 O 522.541 4.24147 1.09686 0
M  V30 5528 C 524.042 3.48824 2.73563 0
M  V30 5529 H 521.262 0.608775 0.282194 0
M  V30 5530 H 523.806 2.03124 0.23681 0
M  V30 5531 H 521.961 2.90723 2.56045 0
M  V30 5532 H 522.375 4.95505 1.71974 0
M  V30 5533 H 523.849 4.39752 3.3365 0
M  V30 5534 H 524.326 2.70575 3.45956 0
M  V30 5535 H 524.932 3.69282 2.10976 0
M  V30 5536 N 523.247 -0.488276 1.49845 0
M  V30 5537 C 524.663 -0.820566 1.3689 0
M  V30 5538 C 524.863 -1.97248 0.411752 0
M  V30 5539 O 523.919 -2.52042 -0.151931 0
M  V30 5540 C 525.232 -1.1488 2.77891 0
M  V30 5541 C 526.78 -1.25626 2.86683 0
M  V30 5542 C 527.255 -1.61772 4.28479 0
M  V30 5543 N 528.746 -1.68797 4.31349 0
M  V30 5544 C 529.481 -1.98235 5.38043 0
M  V30 5545 N 528.977 -2.2581 6.54967 0
M  V30 5546 N 530.77 -1.99593 5.2547 0
M  V30 5547 H 522.921 0.271123 2.10662 0
M  V30 5548 H 525.184 0.058735 0.946179 0
M  V30 5549 H 524.89 -0.375614 3.49688 0
M  V30 5550 H 524.764 -2.08919 3.14058 0
M  V30 5551 H 527.151 -2.02014 2.15114 0
M  V30 5552 H 527.232 -0.296072 2.54081 0
M  V30 5553 H 526.876 -0.859295 5.00578 0
M  V30 5554 H 526.806 -2.58912 4.58554 0
M  V30 5555 H 529.297 -1.49595 3.4703 0
M  V30 5556 H 529.61 -2.47497 7.32096 0
M  V30 5557 H 527.955 -2.23239 6.58171 0
M  V30 5558 H 531.146 -1.77535 4.33127 0
M  V30 5559 H 531.319 -2.222 6.08713 0
M  V30 5560 N 524.725 -1.39134 -0.740242 0
M  V30 5561 C 525.971 -1.36273 -1.50192 0
M  V30 5562 C 526.304 0.0430136 -1.94152 0
M  V30 5563 O 525.579 1.00691 -1.66408 0
M  V30 5564 C 525.862 -2.33041 -2.74525 0
M  V30 5565 C 525.715 -3.82535 -2.36617 0
M  V30 5566 C 527.034 -2.27723 -3.76604 0
M  V30 5567 H 524.153 -0.496323 -0.544823 0
M  V30 5568 H 526.795 -1.70085 -0.846815 0
M  V30 5569 H 524.945 -2.04337 -3.30422 0
M  V30 5570 H 526.617 -4.21967 -1.86391 0
M  V30 5571 H 524.86 -3.99565 -1.68909 0
M  V30 5572 H 525.531 -4.45723 -3.2563 0
M  V30 5573 H 528.007 -2.53091 -3.30279 0
M  V30 5574 H 526.883 -2.97519 -4.61274 0
M  V30 5575 H 527.144 -1.28049 -4.2315 0
M  V30 5576 N 526.204 0.969867 -1.24223 0
M  V30 5577 C 527.136 2.0669 -0.99055 0
M  V30 5578 C 528.149 1.62753 0.0392222 0
M  V30 5579 O 529.338 1.77403 -0.197561 0
M  V30 5580 C 526.438 3.35589 -0.472594 0
M  V30 5581 C 525.611 4.08444 -1.56499 0
M  V30 5582 C 524.67 5.15616 -1.05007 0
M  V30 5583 O 523.696 5.41911 -1.7413 0
M  V30 5584 N 524.898 5.80383 0.116641 0
M  V30 5585 H 527.663 2.28855 -1.93508 0
M  V30 5586 H 525.224 1.13733 -1.15223 0
M  V30 5587 H 527.216 4.04542 -0.112919 0
M  V30 5588 H 525.786 3.10311 0.377617 0
M  V30 5589 H 525.006 3.33798 -2.09696 0
M  V30 5590 H 526.294 4.53882 -2.29932 0
M  V30 5591 H 525.692 5.6142 0.694589 0
M  V30 5592 H 524.249 6.50462 0.417483 0
M  V30 5593 N 527.682 1.05563 1.17022 0
M  V30 5594 C 528.645 0.664098 2.19368 0
M  V30 5595 C 529.645 -0.286358 1.5823 0
M  V30 5596 O 530.835 -0.069728 1.7406 0
M  V30 5597 C 527.967 -0.0239932 3.40892 0
M  V30 5598 H 529.16 1.57 2.55521 0
M  V30 5599 H 526.713 0.849964 1.31169 0
M  V30 5600 H 527.448 -0.942988 3.10287 0
M  V30 5601 H 527.233 0.659351 3.86516 0
M  V30 5602 H 528.723 -0.283909 4.16634 0
M  V30 5603 N 529.16 -1.33526 0.837174 0
M  V30 5604 C 530.07 -2.33023 0.271568 0
M  V30 5605 C 531.086 -1.63272 -0.601514 0
M  V30 5606 O 532.262 -1.94939 -0.506038 0
M  V30 5607 C 529.327 -3.42382 -0.545448 0
M  V30 5608 C 528.388 -4.27857 0.351709 0
M  V30 5609 C 527.621 -5.31994 -0.426409 0
M  V30 5610 O 527.844 -5.45763 -1.65828 0
M  V30 5611 O 526.778 -6.01572 0.1987 0
M  V30 5612 H 530.604 -2.83256 1.09545 0
M  V30 5613 H 528.189 -1.36837 0.599655 0
M  V30 5614 H 530.071 -4.09122 -1.00979 0
M  V30 5615 H 528.746 -2.94369 -1.34641 0
M  V30 5616 H 527.653 -3.6399 0.863853 0
M  V30 5617 H 528.986 -4.79349 1.1174 0
M  V30 5618 N 530.638 -0.59345 -1.46 0
M  V30 5619 C 531.568 0.121192 -2.33185 0
M  V30 5620 C 532.549 0.872977 -1.4599 0
M  V30 5621 O 533.734 0.846321 -1.74789 0
M  V30 5622 C 530.864 1.12844 -3.28456 0
M  V30 5623 C 529.818 0.4908 -4.25177 0
M  V30 5624 C 529.144 1.60529 -5.10034 0
M  V30 5625 C 530.444 -0.578949 -5.19081 0
M  V30 5626 H 532.138 -0.606767 -2.93187 0
M  V30 5627 H 529.684 -0.293242 -1.40983 0
M  V30 5628 H 531.637 1.63684 -3.88311 0
M  V30 5629 H 530.361 1.88681 -2.66584 0
M  V30 5630 H 529.02 0.00339328 -3.666 0
M  V30 5631 H 528.668 2.35359 -4.44539 0
M  V30 5632 H 528.368 1.18422 -5.75543 0
M  V30 5633 H 529.892 2.11623 -5.72755 0
M  V30 5634 H 531.306 -0.155199 -5.7309 0
M  V30 5635 H 529.703 -0.920947 -5.92991 0
M  V30 5636 H 530.773 -1.46109 -4.62364 0
M  V30 5637 N 532.116 1.54067 -0.331816 0
M  V30 5638 C 533.393 1.92915 0.322955 0
M  V30 5639 C 533.773 1.26225 1.69205 0
M  V30 5640 O 533.121 0.408919 2.24811 0
M  V30 5641 C 533.331 3.46619 0.406946 0
M  V30 5642 C 534.679 4.19386 0.663339 0
M  V30 5643 O 535.703 3.5282 0.489536 0
M  V30 5644 O 534.562 5.37288 0.999193 0
M  V30 5645 H 531.656 0.805808 0.186016 0
M  V30 5646 H 534.202 1.65342 -0.382135 0
M  V30 5647 H 532.974 3.87354 -0.554287 0
M  V30 5648 H 532.597 3.80324 1.15929 0
M  V30 5649 N 533.594 0.0601682 1.57485 0
M  V30 5650 C 534.526 -0.94047 2.09016 0
M  V30 5651 C 535.539 -1.26897 1.01985 0
M  V30 5652 O 536.728 -1.22819 1.29529 0
M  V30 5653 C 533.828 -2.25955 2.52582 0
M  V30 5654 C 533.001 -2.11163 3.83052 0
M  V30 5655 C 532.06 -3.26273 4.12835 0
M  V30 5656 O 531.086 -3.01779 4.82616 0
M  V30 5657 N 532.288 -4.51022 3.65458 0
M  V30 5658 H 535.053 -0.500578 2.9549 0
M  V30 5659 H 532.614 -0.125852 1.6141 0
M  V30 5660 H 534.606 -3.01846 2.69575 0
M  V30 5661 H 533.176 -2.61481 1.71308 0
M  V30 5662 H 532.396 -1.19808 3.75552 0
M  V30 5663 H 533.684 -1.98517 4.68475 0
M  V30 5664 H 533.082 -4.73811 3.09062 0
M  V30 5665 H 531.639 -5.23978 3.87673 0
M  V30 5666 N 535.072 -1.5615 -0.213296 0
M  V30 5667 C 536.318 -1.79812 -0.937849 0
M  V30 5668 C 536.651 -0.631201 -1.83656 0
M  V30 5669 O 535.926 0.369165 -1.90964 0
M  V30 5670 C 536.209 -3.13613 -1.76972 0
M  V30 5671 C 536.062 -4.40766 -0.89695 0
M  V30 5672 C 537.381 -3.43931 -2.7459 0
M  V30 5673 H 534.5 -0.654138 -0.339518 0
M  V30 5674 H 537.142 -1.88877 -0.20623 0
M  V30 5675 H 535.292 -3.06015 -2.39347 0
M  V30 5676 H 536.964 -4.60392 -0.289306 0
M  V30 5677 H 535.207 -4.33326 -0.202756 0
M  V30 5678 H 535.878 -5.30843 -1.51358 0
M  V30 5679 H 538.354 -3.5171 -2.22349 0
M  V30 5680 H 537.23 -4.38706 -3.29891 0
M  V30 5681 H 537.491 -2.6651 -3.52739 0
M  V30 5682 N 536.55 0.480323 -1.50102 0
M  V30 5683 C 537.796 1.23489 -1.60867 0
M  V30 5684 C 538.129 1.91809 -0.303827 0
M  V30 5685 O 537.404 1.81694 0.694092 0
M  V30 5686 C 537.687 2.28578 -2.78252 0
M  V30 5687 C 537.54 1.64624 -4.18592 0
M  V30 5688 C 538.859 3.2997 -2.91218 0
M  V30 5689 H 535.978 0.447605 -0.585507 0
M  V30 5690 H 538.62 0.530005 -1.82458 0
M  V30 5691 H 536.77 2.88697 -2.59974 0
M  V30 5692 H 538.442 1.08173 -4.48438 0
M  V30 5693 H 536.685 0.949645 -4.23278 0
M  V30 5694 H 537.356 2.40946 -4.96638 0
M  V30 5695 H 539.832 2.79864 -3.07921 0
M  V30 5696 H 538.708 4.00839 -3.74993 0
M  V30 5697 H 538.969 3.93541 -2.0144 0
M  V30 5698 N 538.028 1.39524 0.732853 0
M  V30 5699 C 539.276 1.36594 1.48951 0
M  V30 5700 C 539.597 -0.0367507 1.94965 0
M  V30 5701 O 538.867 -0.988391 1.69138 0
M  V30 5702 H 537.447 0.502673 0.552566 0
M  V30 5703 H 540.109 1.74411 0.869869 0
M  V30 5704 H 539.205 2.03 2.3706 0
M  V30 5705 N 539.506 -0.963266 1.24736 0
M  V30 5706 C 540.922 -1.23273 1.01371 0
M  V30 5707 C 541.122 -1.99618 -0.274776 0
M  V30 5708 O 540.178 -2.32293 -0.989769 0
M  V30 5709 C 541.491 -2.01554 2.23152 0
M  V30 5710 C 543.039 -2.14629 2.27823 0
M  V30 5711 C 543.514 -2.96307 3.49237 0
M  V30 5712 N 545.005 -3.03887 3.49581 0
M  V30 5713 C 545.74 -3.67456 4.40186 0
M  V30 5714 N 545.236 -4.32706 5.41052 0
M  V30 5715 N 547.029 -3.64511 4.27888 0
M  V30 5716 H 539.18 -0.452294 2.07528 0
M  V30 5717 H 541.443 -0.262521 0.910926 0
M  V30 5718 H 541.149 -1.52847 3.1675 0
M  V30 5719 H 541.023 -3.02278 2.25628 0
M  V30 5720 H 543.41 -2.62537 1.34753 0
M  V30 5721 H 543.491 -1.13238 2.2937 0
M  V30 5722 H 543.135 -2.49091 4.42624 0
M  V30 5723 H 543.065 -3.97905 3.44933 0
M  V30 5724 H 545.556 -2.57477 2.76611 0
M  V30 5725 H 545.869 -4.79042 6.06415 0
M  V30 5726 H 544.214 -4.31361 5.44934 0
M  V30 5727 H 547.405 -3.12715 3.4832 0
M  V30 5728 H 547.578 -4.13768 4.98698 0
M  V30 5729 N 540.985 -1.06182 -1.16461 0
M  V30 5730 C 542.262 -0.691364 -1.82974 0
M  V30 5731 C 542.642 0.827377 -1.9421 0
M  V30 5732 O 541.99 1.73723 -1.48434 0
M  V30 5733 C 542.2 -1.39199 -3.20038 0
M  V30 5734 C 543.548 -1.53647 -3.95825 0
M  V30 5735 O 544.572 -1.35181 -3.29552 0
M  V30 5736 O 543.431 -1.83932 -5.14618 0
M  V30 5737 H 540.525 -0.244605 -0.789998 0
M  V30 5738 H 543.071 -1.16203 -1.23673 0
M  V30 5739 H 541.843 -2.42766 -3.06888 0
M  V30 5740 H 541.466 -0.911335 -3.87015 0
M  V30 5741 N 542.463 1.3308 -0.844243 0
M  V30 5742 C 543.879 1.50447 -0.532729 0
M  V30 5743 C 544.079 1.78292 0.938837 0
M  V30 5744 O 543.135 1.84635 1.72239 0
M  V30 5745 C 544.448 2.65555 -1.41072 0
M  V30 5746 C 545.996 2.7944 -1.41005 0
M  V30 5747 C 546.471 3.97616 -2.27301 0
M  V30 5748 N 547.962 4.0486 -2.2504 0
M  V30 5749 C 548.697 4.95508 -2.88547 0
M  V30 5750 N 548.193 5.91236 -3.61126 0
M  V30 5751 N 549.986 4.88548 -2.77989 0
M  V30 5752 H 542.137 1.13269 -1.79677 0
M  V30 5753 H 544.4 0.55734 -0.766861 0
M  V30 5754 H 544.106 2.51675 -2.45668 0
M  V30 5755 H 543.98 3.61089 -1.09061 0
M  V30 5756 H 546.367 2.92749 -0.371784 0
M  V30 5757 H 546.448 1.8465 -1.77026 0
M  V30 5758 H 546.092 3.85066 -3.3119 0
M  V30 5759 H 546.022 4.91661 -1.88619 0
M  V30 5760 H 548.513 3.36353 -1.72264 0
M  V30 5761 H 548.826 6.57079 -4.06776 0
M  V30 5762 H 547.171 5.91295 -3.65234 0
M  V30 5763 H 550.362 4.12729 -2.20846 0
M  V30 5764 H 550.535 5.58994 -3.27765 0
M  V30 5765 N 543.941 0.601185 1.45683 0
M  V30 5766 C 544.871 -0.108824 2.33246 0
M  V30 5767 C 545.852 -0.865223 1.46451 0
M  V30 5768 O 547.037 -0.83704 1.75235 0
M  V30 5769 C 544.167 -1.11101 3.2905 0
M  V30 5770 C 543.121 -0.468244 4.25431 0
M  V30 5771 C 542.447 -1.57822 5.10878 0
M  V30 5772 C 543.747 0.606469 5.18767 0
M  V30 5773 H 545.441 0.622306 2.92861 0
M  V30 5774 H 542.987 0.300714 1.40825 0
M  V30 5775 H 544.94 -1.61622 3.89174 0
M  V30 5776 H 543.664 -1.87265 2.67581 0
M  V30 5777 H 542.323 0.0160484 3.66596 0
M  V30 5778 H 541.971 -2.32998 4.45781 0
M  V30 5779 H 541.671 -1.15369 5.76163 0
M  V30 5780 H 543.195 -2.08583 5.73869 0
M  V30 5781 H 544.609 0.185589 5.73 0
M  V30 5782 H 543.006 0.952381 5.92494 0
M  V30 5783 H 544.076 1.48559 4.61582 0
M  V30 5784 N 545.419 -1.53889 0.339982 0
M  V30 5785 C 546.83 -1.86139 -0.144671 0
M  V30 5786 C 547.181 -1.2613 -1.50285 0
M  V30 5787 O 546.306 -0.573515 -2.08662 0
M  V30 5788 C 546.901 -3.37728 -0.269285 0
M  V30 5789 C 545.46 -3.69868 -0.698168 0
M  V30 5790 C 544.607 -2.76777 0.170249 0
M  V30 5791 H 547.558 -1.48503 0.559704 0
M  V30 5792 H 547.579 -3.64331 -1.0974 0
M  V30 5793 H 547.091 -3.81375 0.719366 0
M  V30 5794 H 545.192 -3.31764 -1.69597 0
M  V30 5795 H 545.305 -4.76582 -0.490533 0
M  V30 5796 H 543.669 -2.52188 -0.356844 0
M  V30 5797 H 544.452 -3.23253 1.15597 0
M  V30 5798 N 546.897 -0.0685191 -1.57451 0
M  V30 5799 C 548.137 0.605038 -1.9524 0
M  V30 5800 C 548.501 1.66974 -0.947816 0
M  V30 5801 O 549.702 2.39862 -1.21325 0
M  V30 5802 C 547.973 1.16999 -3.37707 0
M  V30 5803 S 549.532 1.85913 -3.97469 0
M  V30 5804 H 546.35 0.198203 -0.682815 0
M  V30 5805 H 548.952 -0.141594 -1.94987 0
M  V30 5806 H 547.656 0.383205 -4.08607 0
M  V30 5807 H 547.187 1.95305 -3.41496 0
M  V30 5808 H 549.202 3.14128 -3.84107 0
M  V30 5809 N 548.375 1.56261 0.205012 0
M  V30 5810 C 549.308 1.88797 1.28183 0
M  V30 5811 C 550.286 0.747018 1.44424 0
M  V30 5812 O 551.47 0.997039 1.59973 0
M  V30 5813 C 548.597 2.10949 2.64987 0
M  V30 5814 C 547.643 3.33649 2.6567 0
M  V30 5815 S 548.476 4.89078 2.18088 0
M  V30 5816 C 549.632 5.14286 3.56736 0
M  V30 5817 H 549.865 2.79837 1.00393 0
M  V30 5818 H 547.398 1.48911 0.408042 0
M  V30 5819 H 549.356 2.24395 3.4374 0
M  V30 5820 H 548.017 1.20678 2.89993 0
M  V30 5821 H 547.21 3.46245 3.66239 0
M  V30 5822 H 546.812 3.19146 1.94992 0
M  V30 5823 H 549.104 5.04198 4.52537 0
M  V30 5824 H 550.047 6.16096 3.49043 0
M  V30 5825 H 550.455 4.41957 3.51189 0
M  V30 5826 N 549.853 -0.472356 1.50355 0
M  V30 5827 C 551.101 -1.22211 1.60962 0
M  V30 5828 C 551.422 -1.92497 0.311439 0
M  V30 5829 O 550.692 -1.8405 -0.671002 0
M  V30 5830 H 549.272 -0.454092 0.593135 0
M  V30 5831 H 551.934 -0.544977 1.87126 0
M  V30 5832 H 551.03 -1.9707 2.42012 0
M  V30 5833 N 551.331 -1.39911 -0.725443 0
M  V30 5834 C 552.608 -1.28158 -1.47766 0
M  V30 5835 C 552.988 0.104545 -2.10841 0
M  V30 5836 O 552.336 1.11657 -1.99361 0
M  V30 5837 C 552.546 -2.41306 -2.52135 0
M  V30 5838 C 553.894 -2.81076 -3.18247 0
M  V30 5839 O 554.918 -2.40827 -2.62452 0
M  V30 5840 O 553.777 -3.50581 -4.19231 0
M  V30 5841 H 550.871 -0.502761 -0.656628 0
M  V30 5842 H 553.417 -1.51808 -0.758456 0
M  V30 5843 H 552.189 -3.33932 -2.03974 0
M  V30 5844 H 551.812 -2.19374 -3.31603 0
M  V30 5845 N 552.809 0.956637 -1.25245 0
M  V30 5846 C 553.741 2.05628 -1.01242 0
M  V30 5847 C 554.754 1.62785 0.0219579 0
M  V30 5848 O 555.943 1.77184 -0.216365 0
M  V30 5849 C 553.043 3.35069 -0.508161 0
M  V30 5850 C 552.216 4.06761 -1.60823 0
M  V30 5851 C 551.275 5.14473 -1.1047 0
M  V30 5852 O 550.301 5.40033 -1.79868 0
M  V30 5853 N 551.503 5.80474 0.0550773 0
M  V30 5854 H 554.268 2.2679 -1.95925 0
M  V30 5855 H 551.829 1.12505 -1.16423 0
M  V30 5856 H 553.821 4.044 -0.155819 0
M  V30 5857 H 552.391 3.10694 0.344683 0
M  V30 5858 H 551.611 3.31555 -2.13224 0
M  V30 5859 H 552.899 4.51418 -2.34733 0
M  V30 5860 H 552.297 5.62125 0.635004 0
M  V30 5861 H 550.854 6.50868 0.348469 0
M  V30 5862 N 554.287 1.06798 1.15896 0
M  V30 5863 C 555.698 0.811355 1.68149 0
M  V30 5864 C 556.049 -0.664339 1.8461 0
M  V30 5865 O 555.174 -1.51485 1.54535 0
M  V30 5866 C 555.769 1.46624 3.05429 0
M  V30 5867 C 554.328 1.25726 3.54781 0
M  V30 5868 C 553.475 1.53949 2.3064 0
M  V30 5869 H 556.426 1.23078 1.00187 0
M  V30 5870 H 556.447 0.88437 3.7008 0
M  V30 5871 H 555.959 2.54025 2.93416 0
M  V30 5872 H 554.06 0.20322 3.72045 0
M  V30 5873 H 554.173 1.97354 4.36564 0
M  V30 5874 H 552.537 0.96025 2.35905 0
M  V30 5875 H 553.32 2.6252 2.2122 0
M  V30 5876 N 555.766 -1.3263 0.851289 0
M  V30 5877 C 556.714 -2.30882 0.282202 0
M  V30 5878 C 557.708 -1.58697 -0.592589 0
M  V30 5879 O 558.914 -1.73461 -0.480768 0
M  V30 5880 H 555.289 -0.748492 0.0725487 0
M  V30 5881 H 557.26 -2.76374 1.12516 0
M  V30 5882 C 556.009 -3.43828 -0.517449 0
M  V30 5883 H 555.332 -3.99532 0.146392 0
M  V30 5884 H 556.772 -4.1474 -0.88128 0
M  V30 5885 C 555.231 -2.90786 -1.70133 0
M  V30 5886 O 555.761 -2.88 -2.80034 0
M  V30 5887 N 553.967 -2.4723 -1.52728 0
M  V30 5888 H 553.514 -2.49695 -0.633257 0
M  V30 5889 H 553.472 -2.12094 -2.32085 0
M  V30 5890 N 557.244 -0.608902 -1.45362 0
M  V30 5891 C 558.174 0.0964526 -2.33301 0
M  V30 5892 C 559.155 0.857444 -1.46908 0
M  V30 5893 O 560.34 0.827735 -1.75676 0
M  V30 5894 C 557.47 1.09354 -3.29635 0
M  V30 5895 C 556.424 0.445676 -4.25673 0
M  V30 5896 C 555.75 1.5511 -5.11708 0
M  V30 5897 C 557.05 -0.633972 -5.18438 0
M  V30 5898 H 558.744 -0.637829 -2.92527 0
M  V30 5899 H 556.29 -0.308178 -1.40664 0
M  V30 5900 H 558.243 1.59556 -3.90025 0
M  V30 5901 H 556.967 1.85843 -2.6857 0
M  V30 5902 H 555.626 -0.0354897 -3.66583 0
M  V30 5903 H 555.274 2.30631 -4.4701 0
M  V30 5904 H 554.974 1.12311 -5.76767 0
M  V30 5905 H 556.498 2.05537 -5.74967 0
M  V30 5906 H 557.912 -0.215974 -5.72893 0
M  V30 5907 H 556.309 -0.983789 -5.91981 0
M  V30 5908 H 557.379 -1.51005 -4.60788 0
M  V30 5909 N 558.722 1.53707 -0.348139 0
M  V30 5910 C 560.133 1.86213 0.134797 0
M  V30 5911 C 560.484 1.26925 1.49614 0
M  V30 5912 O 559.609 0.584573 2.08355 0
M  V30 5913 C 560.204 3.37866 0.251371 0
M  V30 5914 C 558.763 3.70233 0.678543 0
M  V30 5915 C 557.91 2.76683 -0.184925 0
M  V30 5916 H 560.861 1.48204 -0.567571 0
M  V30 5917 H 560.882 3.64908 1.07806 0
M  V30 5918 H 560.394 3.80988 -0.739581 0
M  V30 5919 H 558.495 3.32659 1.67835 0
M  V30 5920 H 558.608 4.76836 0.465251 0
M  V30 5921 H 556.972 2.52374 0.343465 0
M  V30 5922 H 557.755 3.22635 -1.1731 0
M  V30 5923 N 560.2 0.0768682 1.57412 0
M  V30 5924 C 561.43 -0.5991 1.97723 0
M  V30 5925 C 561.838 -1.63378 0.954166 0
M  V30 5926 O 561.181 -1.83578 -0.0668706 0
M  V30 5927 C 561.243 -1.32078 3.34358 0
M  V30 5928 C 560.907 -0.438985 4.54887 0
M  V30 5929 C 561.904 0.305492 5.19002 0
M  V30 5930 C 559.589 -0.362378 5.00991 0
M  V30 5931 C 561.583 1.11475 6.27576 0
M  V30 5932 C 559.27 0.450543 6.09437 0
M  V30 5933 C 560.268 1.18777 6.72593 0
M  V30 5934 O 559.956 1.98727 7.7895 0
M  V30 5935 H 559.688 -0.166725 0.655117 0
M  V30 5936 H 562.242 0.147337 2.04871 0
M  V30 5937 H 560.472 -2.1134 3.2384 0
M  V30 5938 H 562.161 -1.88949 3.5924 0
M  V30 5939 H 562.927 0.25593 4.84324 0
M  V30 5940 H 558.806 -0.925832 4.51608 0
M  V30 5941 H 562.35 1.69068 6.76803 0
M  V30 5942 H 558.247 0.501651 6.43548 0
M  V30 5943 H 559.015 1.91214 7.95851 0
M  V30 5944 N 561.678 -1.56367 -0.196722 0
M  V30 5945 C 562.924 -1.80796 -0.918725 0
M  V30 5946 C 563.257 -0.650645 -1.82976 0
M  V30 5947 O 562.532 0.348889 -1.91345 0
M  V30 5948 C 562.815 -3.15472 -1.73636 0
M  V30 5949 C 562.668 -4.41693 -0.85015 0
M  V30 5950 C 563.987 -3.46824 -2.70927 0
M  V30 5951 H 561.106 -0.657702 -0.332561 0
M  V30 5952 H 563.748 -1.89086 -0.186186 0
M  V30 5953 H 561.898 -3.08536 -2.36088 0
M  V30 5954 H 563.57 -4.60673 -0.240459 0
M  V30 5955 H 561.813 -4.33517 -0.156785 0
M  V30 5956 H 562.484 -5.32419 -1.45719 0
M  V30 5957 H 564.96 -3.54049 -2.18607 0
M  V30 5958 H 563.836 -4.4218 -3.25219 0
M  V30 5959 H 564.097 -2.70236 -3.49893 0
M  V30 5960 N 563.156 0.464375 -1.50603 0
M  V30 5961 C 564.086 1.56944 -1.72889 0
M  V30 5962 C 565.067 1.59979 -0.577997 0
M  V30 5963 O 566.252 1.76138 -0.817855 0
M  V30 5964 C 563.382 2.95225 -1.8292 0
M  V30 5965 C 562.336 3.07056 -2.98162 0
M  V30 5966 C 561.662 4.47051 -2.93343 0
M  V30 5967 C 562.962 2.83648 -4.38567 0
M  V30 5968 H 564.656 1.38547 -2.65415 0
M  V30 5969 H 562.202 0.665082 -1.27721 0
M  V30 5970 H 564.155 3.72467 -1.97095 0
M  V30 5971 H 562.879 3.14793 -0.870209 0
M  V30 5972 H 561.538 2.32248 -2.83648 0
M  V30 5973 H 561.186 4.63547 -1.95276 0
M  V30 5974 H 560.886 4.55902 -3.70712 0
M  V30 5975 H 562.41 5.26304 -3.09575 0
M  V30 5976 H 563.824 3.50636 -4.53572 0
M  V30 5977 H 562.221 3.03937 -5.17438 0
M  V30 5978 H 563.291 1.79451 -4.50472 0
M  V30 5979 N 564.634 1.40294 0.718013 0
M  V30 5980 C 565.597 1.4012 1.81381 0
M  V30 5981 C 566.597 0.295405 1.58063 0
M  V30 5982 O 567.787 0.554187 1.6515 0
M  V30 5983 C 564.919 1.19056 3.19435 0
M  V30 5984 H 566.112 2.37645 1.82933 0
M  V30 5985 H 563.665 1.26107 0.923405 0
M  V30 5986 H 564.4 0.222809 3.23534 0
M  V30 5987 H 564.185 1.99152 3.37758 0
M  V30 5988 H 565.675 1.21716 3.99468 0
M  V30 5989 N 566.112 -0.949982 1.2575 0
M  V30 5990 C 567.359 -1.69515 1.10774 0
M  V30 5991 C 567.687 -1.91316 -0.350479 0
M  V30 5992 O 566.942 -1.48515 -1.27443 0
M  V30 5993 C 567.241 -3.08039 1.81237 0
M  V30 5994 C 566.907 -3.06023 3.31151 0
M  V30 5995 C 565.569 -3.0518 3.72047 0
M  V30 5996 C 567.921 -2.98998 4.26907 0
M  V30 5997 C 565.249 -2.95067 5.07102 0
M  V30 5998 C 567.601 -2.90426 5.61992 0
M  V30 5999 C 566.265 -2.87922 6.0221 0
M  V30 6000 H 565.535 -0.6203 0.405351 0
M  V30 6001 H 568.182 -1.10953 1.56082 0
M  V30 6002 H 566.487 -3.70172 1.28373 0
M  V30 6003 H 568.184 -3.64526 1.67098 0
M  V30 6004 H 564.774 -3.07453 2.98614 0
M  V30 6005 H 568.958 -2.98764 3.963 0
M  V30 6006 H 564.214 -2.915 5.37436 0
M  V30 6007 H 568.388 -2.83952 6.35881 0
M  V30 6008 H 566.015 -2.79841 7.06819 0
M  V30 6009 N 567.59 -1.07411 -1.15328 0
M  V30 6010 C 568.52 -0.716472 -2.22236 0
M  V30 6011 C 569.501 0.296373 -1.67498 0
M  V30 6012 O 570.686 0.168989 -1.93463 0
M  V30 6013 C 567.816 -0.114142 -3.47112 0
M  V30 6014 C 566.77 -1.05421 -4.14814 0
M  V30 6015 C 566.096 -0.314604 -5.33774 0
M  V30 6016 C 567.396 -2.38808 -4.64508 0
M  V30 6017 H 569.09 -1.61029 -2.52408 0
M  V30 6018 H 566.636 -0.775702 -1.21321 0
M  V30 6019 H 568.589 0.148001 -4.2114 0
M  V30 6020 H 567.313 0.814755 -3.16274 0
M  V30 6021 H 565.972 -1.30128 -3.42728 0
M  V30 6022 H 565.62 0.617772 -4.99192 0
M  V30 6023 H 565.32 -0.941209 -5.80013 0
M  V30 6024 H 566.844 -0.0602747 -6.1057 0
M  V30 6025 H 568.258 -2.18424 -5.3006 0
M  V30 6026 H 566.655 -2.97069 -5.21412 0
M  V30 6027 H 567.725 -3.01067 -3.80114 0
M  V30 6028 N 569.068 1.32177 -0.85831 0
M  V30 6029 C 570.298 2.01021 -0.476889 0
M  V30 6030 C 570.706 1.64653 0.931995 0
M  V30 6031 O 570.049 0.865713 1.62022 0
M  V30 6032 C 570.111 3.55413 -0.540528 0
M  V30 6033 C 569.775 4.1522 -1.90895 0
M  V30 6034 C 570.772 4.3318 -2.87491 0
M  V30 6035 C 568.457 4.51212 -2.20709 0
M  V30 6036 C 570.451 4.86306 -4.1205 0
M  V30 6037 C 568.138 5.04042 -3.45521 0
M  V30 6038 C 569.136 5.21538 -4.41007 0
M  V30 6039 O 568.824 5.73238 -5.63608 0
M  V30 6040 H 568.556 0.650059 -0.18547 0
M  V30 6041 H 571.11 1.69648 -1.15796 0
M  V30 6042 H 569.34 3.86196 0.19741 0
M  V30 6043 H 571.029 4.05526 -0.174191 0
M  V30 6044 H 571.795 4.05704 -2.65762 0
M  V30 6045 H 567.674 4.36878 -1.4717 0
M  V30 6046 H 571.218 4.99877 -4.86589 0
M  V30 6047 H 567.115 5.30952 -3.67098 0
M  V30 6048 H 567.883 5.91625 -5.65617 0
M  V30 6049 N 570.547 0.616602 1.45037 0
M  V30 6050 C 571.457 -0.0985401 2.34393 0
M  V30 6051 C 572.473 -0.850971 1.51771 0
M  V30 6052 O 573.649 -0.806521 1.84546 0
M  V30 6053 C 570.714 -1.07748 3.29532 0
M  V30 6054 C 569.775 -0.326022 4.2806 0
M  V30 6055 C 569.008 -1.25833 5.18654 0
M  V30 6056 O 569.231 -2.49652 5.12864 0
M  V30 6057 O 568.165 -0.750512 5.97203 0
M  V30 6058 H 571.991 0.636016 2.96966 0
M  V30 6059 H 569.576 0.376832 1.44569 0
M  V30 6060 H 571.458 -1.64107 3.88133 0
M  V30 6061 H 570.133 -1.79291 2.69512 0
M  V30 6062 H 569.04 0.280253 3.73049 0
M  V30 6063 H 570.373 0.349091 4.9096 0
M  V30 6064 N 572.025 -1.5352 0.356285 0
M  V30 6065 C 572.988 -2.24071 -0.482182 0
M  V30 6066 C 573.988 -1.24531 -1.01729 0
M  V30 6067 O 575.178 -1.48876 -0.904513 0
M  V30 6068 C 572.31 -2.97025 -1.67299 0
M  V30 6069 H 573.503 -2.99596 0.135031 0
M  V30 6070 H 571.056 -1.55928 0.107825 0
M  V30 6071 H 571.791 -2.25719 -2.32855 0
M  V30 6072 H 571.576 -3.7005 -1.29636 0
M  V30 6073 H 573.066 -3.50683 -2.26741 0
M  V30 6074 N 573.503 -0.0852151 -1.57369 0
M  V30 6075 C 574.436 0.913608 -2.09113 0
M  V30 6076 C 575.414 1.28264 -0.999358 0
M  V30 6077 O 576.598 1.3896 -1.27367 0
M  V30 6078 C 573.725 2.21777 -2.55993 0
M  V30 6079 C 572.771 1.99932 -3.76735 0
M  V30 6080 S 573.604 1.24637 -5.20794 0
M  V30 6081 C 574.76 2.56304 -5.71016 0
M  V30 6082 H 574.993 0.473369 -2.93507 0
M  V30 6083 H 572.526 0.127856 -1.5387 0
M  V30 6084 H 574.484 2.96726 -2.83662 0
M  V30 6085 H 573.145 2.62923 -1.71843 0
M  V30 6086 H 572.338 2.96482 -4.07571 0
M  V30 6087 H 571.94 1.33116 -3.49509 0
M  V30 6088 H 574.232 3.5233 -5.78679 0
M  V30 6089 H 575.175 2.3006 -6.69685 0
M  V30 6090 H 575.583 2.64125 -4.98897 0
M  V30 6091 N 574.981 1.5647 0.188427 0
M  V30 6092 C 576.397 1.50204 0.539532 0
M  V30 6093 C 576.597 0.78644 1.85519 0
M  V30 6094 O 575.653 0.339714 2.50204 0
M  V30 6095 C 576.966 2.94893 0.588103 0
M  V30 6096 C 578.514 3.05602 0.67648 0
M  V30 6097 C 578.989 4.51716 0.756101 0
M  V30 6098 N 580.48 4.55894 0.819451 0
M  V30 6099 C 581.215 5.66272 0.90134 0
M  V30 6100 N 580.711 6.86323 0.945118 0
M  V30 6101 N 582.504 5.54201 0.939043 0
M  V30 6102 H 574.655 2.01406 -0.674493 0
M  V30 6103 H 576.918 0.916828 -0.241103 0
M  V30 6104 H 576.624 3.50334 -0.309633 0
M  V30 6105 H 576.498 3.4861 1.44051 0
M  V30 6106 H 578.885 2.50206 1.56465 0
M  V30 6107 H 578.966 2.54999 -0.202262 0
M  V30 6108 H 578.61 5.07739 -0.12774 0
M  V30 6109 H 578.54 5.00058 1.65074 0
M  V30 6110 H 581.031 3.69452 0.794594 0
M  V30 6111 H 581.344 7.66194 1.0083 0
M  V30 6112 H 579.689 6.88968 0.913683 0
M  V30 6113 H 582.88 4.59333 0.901725 0
M  V30 6114 H 583.053 6.40247 0.999402 0
M  V30 6115 N 576.459 -0.456382 1.50847 0
M  V30 6116 C 577.706 -1.20736 1.62571 0
M  V30 6117 C 578.034 -1.9163 0.332904 0
M  V30 6118 O 577.289 -1.8343 -0.682058 0
M  V30 6119 C 577.588 -2.26336 2.76599 0
M  V30 6120 C 577.254 -1.7259 4.16562 0
M  V30 6121 C 575.916 -1.57654 4.54641 0
M  V30 6122 C 578.268 -1.32877 5.03977 0
M  V30 6123 C 575.596 -1.0145 5.77862 0
M  V30 6124 C 577.948 -0.7811 6.27759 0
M  V30 6125 C 576.612 -0.618488 6.64628 0
M  V30 6126 H 575.882 -0.441803 0.594888 0
M  V30 6127 H 578.529 -0.501169 1.84826 0
M  V30 6128 H 576.834 -3.0292 2.48489 0
M  V30 6129 H 578.531 -2.84227 2.82871 0
M  V30 6130 H 575.121 -1.85187 3.86528 0
M  V30 6131 H 579.305 -1.43245 4.75179 0
M  V30 6132 H 574.561 -0.876109 6.0509 0
M  V30 6133 H 578.735 -0.464783 6.94847 0
M  V30 6134 H 576.362 -0.180838 7.59985 0
M  V30 6135 N 577.937 -1.40673 -0.710563 0
M  V30 6136 C 579.162 -1.42741 -1.50465 0
M  V30 6137 C 579.587 -0.0302116 -1.88076 0
M  V30 6138 O 578.945 0.962945 -1.53613 0
M  V30 6139 C 578.993 -2.32873 -2.75322 0
M  V30 6140 O 578.097 -1.77544 -3.72226 0
M  V30 6141 H 577.438 -0.485056 -0.45345 0
M  V30 6142 H 579.968 -1.84961 -0.874681 0
M  V30 6143 H 579.978 -2.48233 -3.23797 0
M  V30 6144 H 578.653 -3.34401 -2.47283 0
M  V30 6145 H 577.23 -1.71556 -3.31093 0
M  V30 6146 N 579.415 0.9433 -1.26252 0
M  V30 6147 C 580.64 1.72898 -1.14547 0
M  V30 6148 C 581.065 1.85761 0.295743 0
M  V30 6149 O 580.423 1.3463 1.21427 0
M  V30 6150 C 580.471 3.11471 -1.8171 0
M  V30 6151 O 579.575 3.97336 -1.10445 0
M  V30 6152 H 578.916 0.530555 -0.399259 0
M  V30 6153 H 581.446 1.18159 -1.67032 0
M  V30 6154 H 581.456 3.61872 -1.88449 0
M  V30 6155 H 580.131 3.01425 -2.86558 0
M  V30 6156 H 578.708 3.55788 -1.11666 0
M  V30 6157 N 580.893 1.08022 1.14757 0
M  V30 6158 C 582.14 0.807509 1.85703 0
M  V30 6159 C 582.468 -0.666617 1.8272 0
M  V30 6160 O 581.723 -1.50562 1.25018 0
M  V30 6161 C 582.022 1.26964 3.34088 0
M  V30 6162 C 581.688 2.7509 3.57262 0
M  V30 6163 C 580.35 3.15547 3.63296 0
M  V30 6164 C 582.702 3.70667 3.66409 0
M  V30 6165 C 580.03 4.50384 3.75994 0
M  V30 6166 C 582.382 5.05274 3.80632 0
M  V30 6167 C 581.046 5.45342 3.84913 0
M  V30 6168 H 580.316 0.295488 0.679535 0
M  V30 6169 H 582.963 1.35245 1.35577 0
M  V30 6170 H 581.268 0.644216 3.86467 0
M  V30 6171 H 582.965 1.03544 3.87401 0
M  V30 6172 H 579.555 2.42775 3.53212 0
M  V30 6173 H 583.739 3.40533 3.61041 0
M  V30 6174 H 578.995 4.80886 3.77569 0
M  V30 6175 H 583.169 5.79201 3.86652 0
M  V30 6176 H 580.796 6.49823 3.94505 0
M  V30 6177 N 582.371 -1.3172 0.865308 0
M  V30 6178 C 583.617 -1.97168 0.474633 0
M  V30 6179 C 583.95 -1.68263 -0.969604 0
M  V30 6180 O 583.225 -0.976588 -1.68205 0
M  V30 6181 C 583.508 -3.52689 0.726808 0
M  V30 6182 C 583.361 -3.91185 2.22024 0
M  V30 6183 C 584.68 -4.39689 0.190201 0
M  V30 6184 H 581.799 -0.716185 0.17392 0
M  V30 6185 H 584.441 -1.55925 1.08569 0
M  V30 6186 H 582.591 -3.8795 0.206705 0
M  V30 6187 H 584.263 -3.66049 2.80724 0
M  V30 6188 H 582.506 -3.3996 2.69462 0
M  V30 6189 H 583.177 -4.99604 2.34735 0
M  V30 6190 H 585.653 -4.11225 0.635103 0
M  V30 6191 H 584.529 -5.47469 0.396132 0
M  V30 6192 H 584.79 -4.32683 -0.907625 0
M  V30 6193 N 583.85 -0.624285 -1.44708 0
M  V30 6194 C 585.26 -0.2092 -1.85524 0
M  V30 6195 C 585.611 1.23783 -1.52225 0
M  V30 6196 O 584.736 1.94089 -0.956986 0
M  V30 6197 C 585.332 -0.372897 -3.36742 0
M  V30 6198 C 583.891 -0.012374 -3.76398 0
M  V30 6199 C 583.038 -0.68951 -2.68591 0
M  V30 6200 H 585.989 -0.829894 -1.35272 0
M  V30 6201 H 586.01 0.390134 -3.78495 0
M  V30 6202 H 585.522 -1.42615 -3.60947 0
M  V30 6203 H 583.623 1.03941 -3.57809 0
M  V30 6204 H 583.736 -0.417663 -4.77276 0
M  V30 6205 H 582.1 -0.125484 -2.54391 0
M  V30 6206 H 582.883 -1.74522 -2.9563 0
M  V30 6207 N 585.328 1.53329 -0.364422 0
M  V30 6208 C 586.574 2.01537 0.225969 0
M  V30 6209 C 586.907 1.25128 1.48515 0
M  V30 6210 O 586.182 0.344653 1.91422 0
M  V30 6211 C 586.465 3.56339 0.519092 0
M  V30 6212 C 586.318 4.43441 -0.753639 0
M  V30 6213 C 587.637 4.19833 1.32015 0
M  V30 6214 H 584.756 0.732573 0.0806548 0
M  V30 6215 H 587.398 1.83597 -0.489084 0
M  V30 6216 H 585.548 3.71756 1.12825 0
M  V30 6217 H 587.22 4.39823 -1.39116 0
M  V30 6218 H 585.463 4.11457 -1.37424 0
M  V30 6219 H 586.134 5.49699 -0.503517 0
M  V30 6220 H 588.61 4.08242 0.804859 0
M  V30 6221 H 587.486 5.28177 1.49399 0
M  V30 6222 H 587.747 3.75821 2.32832 0
M  V30 6223 N 586.806 0.0935595 1.57322 0
M  V30 6224 C 588.034 -0.578934 1.98635 0
M  V30 6225 C 588.449 -1.61819 0.972626 0
M  V30 6226 O 587.806 -1.82461 -0.0379638 0
M  V30 6227 C 587.857 -1.22802 3.40003 0
M  V30 6228 O 587.578 -0.230334 4.37494 0
M  V30 6229 C 589.079 -1.98627 3.96311 0
M  V30 6230 H 586.299 -0.155324 0.652775 0
M  V30 6231 H 588.843 0.172393 2.03772 0
M  V30 6232 H 586.998 -1.93029 3.35885 0
M  V30 6233 H 587.412 -0.698649 5.19826 0
M  V30 6234 H 588.886 -2.39405 4.97382 0
M  V30 6235 H 589.363 -2.85151 3.34044 0
M  V30 6236 H 589.969 -1.3322 4.03897 0
M  V30 6237 N 588.284 -1.56567 -0.180126 0
M  V30 6238 C 589.533 -1.80685 -0.896426 0
M  V30 6239 C 589.846 -0.669335 -1.83791 0
M  V30 6240 O 591.052 -0.795209 -2.59593 0
M  V30 6241 C 589.508 -3.20132 -1.6445 0
M  V30 6242 C 589.116 -4.41727 -0.747088 0
M  V30 6243 C 590.86 -3.53549 -2.34955 0
M  V30 6244 C 588.767 -5.72195 -1.49489 0
M  V30 6245 H 587.697 -0.673758 -0.338477 0
M  V30 6246 H 590.348 -1.8289 -0.149467 0
M  V30 6247 H 588.73 -3.12218 -2.43589 0
M  V30 6248 H 589.904 -4.608 0.00671129 0
M  V30 6249 H 588.219 -4.16122 -0.152134 0
M  V30 6250 H 590.816 -4.48267 -2.91481 0
M  V30 6251 H 591.159 -2.78006 -3.09868 0
M  V30 6252 H 591.692 -3.62976 -1.62768 0
M  V30 6253 H 588.431 -6.50743 -0.788251 0
M  V30 6254 H 587.951 -5.57115 -2.22224 0
M  V30 6255 H 589.63 -6.1384 -2.04472 0
M  V30 6256 N 589.762 0.448376 -1.51087 0
M  V30 6257 C 591.173 1.0286 -1.5581 0
M  V30 6258 C 591.524 1.92583 -0.374989 0
M  V30 6259 O 590.649 2.10316 0.509533 0
M  V30 6260 C 591.244 1.87223 -2.8237 0
M  V30 6261 C 589.803 2.40314 -2.897 0
M  V30 6262 C 588.95 1.19238 -2.50355 0
M  V30 6263 H 591.901 0.230075 -1.57023 0
M  V30 6264 H 591.922 2.72553 -2.6551 0
M  V30 6265 H 591.434 1.21894 -3.68461 0
M  V30 6266 H 589.535 3.09129 -2.08014 0
M  V30 6267 H 589.648 2.73866 -3.93108 0
M  V30 6268 H 588.012 1.53428 -2.03303 0
M  V30 6269 H 588.795 0.555367 -3.38778 0
M  V30 6270 N 591.24 1.41047 0.703093 0
M  V30 6271 C 592.19 1.38774 1.80903 0
M  V30 6272 C 593.174 0.263275 1.58731 0
M  V30 6273 O 594.366 0.503362 1.69692 0
M  V30 6274 C 591.495 1.26497 3.19145 0
M  V30 6275 C 590.581 2.43775 3.47037 0
M  V30 6276 N 590.972 3.69249 3.45672 0
M  V30 6277 C 589.27 2.37425 3.77552 0
M  V30 6278 C 589.971 4.46989 3.72258 0
M  V30 6279 N 588.947 3.76998 3.91629 0
M  V30 6280 H 592.749 2.33714 1.78199 0
M  V30 6281 H 590.263 1.34996 0.902762 0
M  V30 6282 H 592.26 1.2295 3.98358 0
M  V30 6283 H 590.92 0.32534 3.23066 0
M  V30 6284 H 591.931 4.02239 3.26228 0
M  V30 6285 H 588.608 1.51895 3.88888 0
M  V30 6286 H 589.998 5.55894 3.77402 0
M  V30 6287 N 592.718 -0.936591 1.26751 0
M  V30 6288 C 593.681 -2.01752 1.08761 0
M  V30 6289 C 594.681 -1.60763 0.0344435 0
M  V30 6290 O 595.871 -1.71963 0.278258 0
M  V30 6291 C 593.003 -3.34543 0.655271 0
M  V30 6292 H 594.196 -2.19143 2.04735 0
M  V30 6293 H 591.749 -1.11618 1.09413 0
M  V30 6294 H 592.484 -3.22851 -0.30626 0
M  V30 6295 H 592.269 -3.65647 1.41578 0
M  V30 6296 H 593.759 -4.13944 0.551378 0
M  V30 6297 N 594.196 -1.08629 -1.14182 0
M  V30 6298 C 595.424 -0.838889 -1.8913 0
M  V30 6299 C 595.839 0.609153 -1.78703 0
M  V30 6300 O 595.196 1.41876 -1.14794 0
M  V30 6301 C 595.247 -1.25477 -3.39025 0
M  V30 6302 O 594.968 -2.64601 -3.49167 0
M  V30 6303 C 596.469 -1.03856 -4.30963 0
M  V30 6304 H 593.689 -0.302377 -0.599007 0
M  V30 6305 H 596.233 -1.44615 -1.44592 0
M  V30 6306 H 594.388 -0.691571 -3.81177 0
M  V30 6307 H 594.802 -2.81922 -4.42289 0
M  V30 6308 H 596.276 -1.37892 -5.345 0
M  V30 6309 H 596.753 0.0242522 -4.39193 0
M  V30 6310 H 597.359 -1.58731 -3.94569 0
M  V30 6311 N 595.674 1.31259 -0.872281 0
M  V30 6312 C 596.902 2.00795 -0.498907 0
M  V30 6313 C 597.317 1.65464 0.909238 0
M  V30 6314 O 596.674 0.885073 1.59602 0
M  V30 6315 C 596.725 3.55625 -0.649092 0
M  V30 6316 O 596.446 3.89692 -2.00179 0
M  V30 6317 C 597.947 4.42434 -0.277034 0
M  V30 6318 H 595.167 0.642299 -0.194145 0
M  V30 6319 H 597.711 1.67438 -1.17408 0
M  V30 6320 H 595.866 3.87394 -0.0214402 0
M  V30 6321 H 596.28 4.84407 -2.01122 0
M  V30 6322 H 597.754 5.50299 -0.433064 0
M  V30 6323 H 598.231 4.32146 0.783989 0
M  V30 6324 H 598.837 4.16086 -0.880483 0
M  V30 6325 N 597.152 0.631951 1.44375 0
M  V30 6326 C 598.115 -0.0628142 2.29114 0
M  V30 6327 C 599.115 -0.771494 1.41084 0
M  V30 6328 O 600.305 -0.615959 1.62947 0
M  V30 6329 C 597.437 -1.09953 3.22681 0
M  V30 6330 H 598.63 0.682509 2.92031 0
M  V30 6331 H 596.183 0.392128 1.51301 0
M  V30 6332 H 596.918 -1.87481 2.64616 0
M  V30 6333 H 596.703 -0.595286 3.87555 0
M  V30 6334 H 598.193 -1.58538 3.86336 0
M  V30 6335 N 598.631 -1.53133 0.372548 0
M  V30 6336 C 599.579 -2.27473 -0.485681 0
M  V30 6337 C 600.573 -1.30719 -1.07745 0
M  V30 6338 O 601.779 -1.48321 -1.01985 0
M  V30 6339 H 598.154 -0.731269 -0.175356 0
M  V30 6340 H 600.125 -2.97955 0.162986 0
M  V30 6341 C 598.874 -3.08191 -1.60978 0
M  V30 6342 H 598.197 -3.82488 -1.16373 0
M  V30 6343 H 599.637 -3.63373 -2.18485 0
M  V30 6344 C 598.096 -2.19461 -2.55614 0
M  V30 6345 O 598.626 -1.81008 -3.58607 0
M  V30 6346 N 596.832 -1.83955 -2.24965 0
M  V30 6347 H 596.379 -2.15423 -1.41247 0
M  V30 6348 H 596.337 -1.24874 -2.88538 0
M  V30 6349 N 600.109 -0.101901 -1.5727 0
M  V30 6350 C 601.337 0.568392 -1.98939 0
M  V30 6351 C 601.752 1.61301 -0.981194 0
M  V30 6352 O 601.109 1.82478 0.0282869 0
M  V30 6353 C 601.16 1.20997 -3.40649 0
M  V30 6354 O 600.881 0.207129 -4.3761 0
M  V30 6355 C 602.382 1.96523 -3.97358 0
M  V30 6356 H 599.602 0.15186 -0.65359 0
M  V30 6357 H 602.146 -0.183198 -2.03678 0
M  V30 6358 H 600.301 1.91245 -3.36904 0
M  V30 6359 H 600.715 0.671071 -5.20189 0
M  V30 6360 H 602.189 2.36764 -4.98645 0
M  V30 6361 H 602.666 2.83376 -3.35552 0
M  V30 6362 H 603.272 1.31076 -4.04598 0
M  V30 6363 N 601.587 1.56661 0.17182 0
M  V30 6364 C 602.812 1.86459 0.908165 0
M  V30 6365 C 603.237 0.688181 1.75059 0
M  V30 6366 O 602.595 -0.362753 1.77634 0
M  V30 6367 C 602.643 3.14669 1.76112 0
M  V30 6368 O 601.747 2.96858 2.86268 0
M  V30 6369 H 601.088 0.613318 0.254434 0
M  V30 6370 H 603.618 2.03892 0.170113 0
M  V30 6371 H 603.628 3.46061 2.16115 0
M  V30 6372 H 602.303 3.99905 1.14233 0
M  V30 6373 H 600.88 2.76819 2.49852 0
M  V30 6374 N 603.065 -0.440357 1.51323 0
M  V30 6375 C 604.311 -1.19181 1.64085 0
M  V30 6376 C 604.644 -1.90936 0.354575 0
M  V30 6377 O 603.919 -1.8347 -0.645675 0
M  V30 6378 C 604.202 -2.2112 2.84215 0
M  V30 6379 C 604.055 -1.53468 4.22809 0
M  V30 6380 C 605.374 -3.22133 2.99864 0
M  V30 6381 H 602.493 -0.431924 0.597169 0
M  V30 6382 H 605.135 -0.481443 1.83799 0
M  V30 6383 H 603.285 -2.81703 2.67537 0
M  V30 6384 H 604.957 -0.962455 4.51148 0
M  V30 6385 H 603.2 -0.837086 4.25647 0
M  V30 6386 H 603.871 -2.27694 5.02852 0
M  V30 6387 H 606.347 -2.71601 3.15233 0
M  V30 6388 H 605.223 -3.90756 3.85488 0
M  V30 6389 H 605.484 -3.88061 2.11804 0
M  V30 6390 N 604.543 -1.41418 -0.695603 0
M  V30 6391 C 605.473 -1.46035 -1.82197 0
M  V30 6392 C 606.454 -0.319025 -1.67082 0
M  V30 6393 O 607.639 -0.530462 -1.86815 0
M  V30 6394 C 604.769 -1.34179 -3.20333 0
M  V30 6395 C 603.723 -2.46123 -3.50154 0
M  V30 6396 C 603.049 -2.19332 -4.87645 0
M  V30 6397 C 604.349 -3.88463 -3.49133 0
M  V30 6398 H 606.043 -2.40303 -1.78591 0
M  V30 6399 H 603.589 -1.15663 -0.857797 0
M  V30 6400 H 605.542 -1.36021 -3.98844 0
M  V30 6401 H 604.266 -0.363952 -3.24566 0
M  V30 6402 H 602.925 -2.43563 -2.73994 0
M  V30 6403 H 602.573 -1.19891 -4.88503 0
M  V30 6404 H 602.273 -2.94344 -5.08562 0
M  V30 6405 H 603.797 -2.22889 -5.68465 0
M  V30 6406 H 605.211 -3.92738 -4.17648 0
M  V30 6407 H 603.608 -4.63158 -3.81582 0
M  V30 6408 H 604.678 -4.16617 -2.48109 0
M  V30 6409 N 606.021 0.929856 -1.27246 0
M  V30 6410 C 607.269 1.674 -1.13233 0
M  V30 6411 C 607.59 1.92311 0.322744 0
M  V30 6412 O 606.86 1.52784 1.22612 0
M  V30 6413 H 605.44 0.620411 -0.416052 0
M  V30 6414 H 608.102 1.11663 -1.59741 0
M  V30 6415 H 607.198 2.64308 -1.65975 0
M  V30 6416 N 607.499 1.09233 1.13605 0
M  V30 6417 C 608.729 0.847677 1.88409 0
M  V30 6418 C 609.137 -0.604524 1.79282 0
M  V30 6419 O 608.48 -1.42773 1.15592 0
M  V30 6420 C 608.542 1.20153 3.38827 0
M  V30 6421 C 608.206 2.65824 3.71735 0
M  V30 6422 C 609.203 3.64072 3.71143 0
M  V30 6423 C 606.888 3.01894 4.01454 0
M  V30 6424 C 608.882 4.96419 3.99808 0
M  V30 6425 C 606.569 4.34433 4.29781 0
M  V30 6426 C 607.567 5.31505 4.28942 0
M  V30 6427 O 607.255 6.61659 4.56576 0
M  V30 6428 H 606.987 0.304813 0.603378 0
M  V30 6429 H 609.541 1.4573 1.44748 0
M  V30 6430 H 607.771 0.534946 3.82982 0
M  V30 6431 H 609.46 0.936349 3.94952 0
M  V30 6432 H 610.226 3.37549 3.4826 0
M  V30 6433 H 606.105 2.26971 4.01255 0
M  V30 6434 H 609.649 5.7218 3.99069 0
M  V30 6435 H 605.546 4.607 4.52135 0
M  V30 6436 H 606.314 6.67102 4.74254 0
M  V30 6437 N 608.977 -1.30795 0.87923 0
M  V30 6438 C 609.927 -2.25838 0.313276 0
M  V30 6439 C 610.911 -1.51025 -0.55499 0
M  V30 6440 O 612.103 -1.72413 -0.400353 0
M  V30 6441 C 609.232 -3.39981 -0.476204 0
M  V30 6442 C 608.318 -4.22154 0.405826 0
M  V30 6443 N 608.709 -4.82934 1.50362 0
M  V30 6444 C 607.007 -4.45552 0.199909 0
M  V30 6445 C 607.708 -5.44444 2.0483 0
M  V30 6446 N 606.684 -5.26723 1.34403 0
M  V30 6447 H 610.486 -2.70374 1.15218 0
M  V30 6448 H 608 -1.45168 0.728003 0
M  V30 6449 H 609.997 -4.07108 -0.898251 0
M  V30 6450 H 608.657 -2.96986 -1.31261 0
M  V30 6451 H 609.668 -4.82319 1.8865 0
M  V30 6452 H 606.345 -4.13169 -0.599795 0
M  V30 6453 H 607.735 -6.02701 2.96986 0
M  V30 6454 N 610.455 -0.639598 -1.44038 0
M  V30 6455 C 611.704 -0.144885 -2.01179 0
M  V30 6456 C 612.017 1.24372 -1.50967 0
M  V30 6457 O 613.223 1.83291 -2.00292 0
M  V30 6458 C 611.679 -0.208244 -3.59297 0
M  V30 6459 C 611.287 -1.59869 -4.18504 0
M  V30 6460 C 613.031 0.229568 -4.23879 0
M  V30 6461 C 610.938 -1.61671 -5.68873 0
M  V30 6462 H 609.868 -0.0504005 -0.752314 0
M  V30 6463 H 612.519 -0.799639 -1.65161 0
M  V30 6464 H 610.901 0.513767 -3.92653 0
M  V30 6465 H 612.075 -2.34496 -3.96671 0
M  V30 6466 H 610.39 -1.98131 -3.66242 0
M  V30 6467 H 612.987 0.235758 -5.3418 0
M  V30 6468 H 613.33 1.25848 -3.96822 0
M  V30 6469 H 613.863 -0.440233 -3.95357 0
M  V30 6470 H 610.602 -2.62427 -6.00677 0
M  V30 6471 H 610.122 -0.913489 -5.92803 0
M  V30 6472 H 611.801 -1.35439 -6.32665 0
M  V30 6473 N 611.933 1.52934 -0.380664 0
M  V30 6474 C 613.344 1.86457 0.0952684 0
M  V30 6475 C 613.695 1.3007 1.46889 0
M  V30 6476 O 612.82 0.628636 2.07068 0
M  V30 6477 C 613.415 3.38323 0.179648 0
M  V30 6478 C 611.974 3.71589 0.599858 0
M  V30 6479 C 611.121 2.76228 -0.243572 0
M  V30 6480 H 614.072 1.46966 -0.59888 0
M  V30 6481 H 614.093 3.67113 1.00042 0
M  V30 6482 H 613.605 3.79333 -0.820228 0
M  V30 6483 H 611.706 3.36144 1.60742 0
M  V30 6484 H 611.819 4.77715 0.364003 0
M  V30 6485 H 610.183 2.53045 0.289855 0
M  V30 6486 H 610.966 3.20074 -1.24127 0
M  V30 6487 N 613.412 0.11024 1.57214 0
M  V30 6488 C 614.359 -0.843195 2.14846 0
M  V30 6489 C 615.329 -1.26954 1.07107 0
M  V30 6490 O 616.514 -1.34861 1.34971 0
M  V30 6491 C 613.654 -2.09123 2.74521 0
M  V30 6492 C 612.767 -1.71404 3.96541 0
M  V30 6493 C 611.902 -2.91107 4.44331 0
M  V30 6494 C 610.941 -2.49586 5.58903 0
M  V30 6495 N 610.078 -3.62175 6.01477 0
M  V30 6496 H 614.918 -0.344886 2.95998 0
M  V30 6497 H 612.455 -0.15855 1.46243 0
M  V30 6498 H 614.413 -2.82234 3.07246 0
M  V30 6499 H 613.043 -2.56427 1.96074 0
M  V30 6500 H 612.095 -0.88201 3.70033 0
M  V30 6501 H 613.407 -1.36884 4.7965 0
M  V30 6502 H 612.561 -3.72454 4.78919 0
M  V30 6503 H 611.3 -3.28848 3.60153 0
M  V30 6504 H 610.305 -1.6667 5.23929 0
M  V30 6505 H 611.53 -2.12973 6.4484 0
M  V30 6506 H 609.476 -3.99605 5.20242 0
M  V30 6507 H 609.393 -3.3155 6.79419 0
M  V30 6508 H 610.661 -4.43987 6.407 0
M  V30 6509 N 614.89 -1.56749 -0.16351 0
M  V30 6510 C 616.167 -1.73321 -0.906599 0
M  V30 6511 C 616.547 -0.673779 -2.00059 0
M  V30 6512 O 615.895 0.310121 -2.26386 0
M  V30 6513 C 616.105 -3.168 -1.46419 0
M  V30 6514 C 617.453 -3.77993 -1.93407 0
M  V30 6515 O 618.477 -3.20127 -1.56196 0
M  V30 6516 O 617.336 -4.79615 -2.61976 0
M  V30 6517 H 614.43 -0.708073 -0.427272 0
M  V30 6518 H 616.976 -1.69029 -0.150727 0
M  V30 6519 H 615.748 -3.85396 -0.677189 0
M  V30 6520 H 615.371 -3.2545 -2.28403 0
M  V30 6521 N 616.368 0.432326 -1.51554 0
M  V30 6522 C 617.596 1.20364 -1.68286 0
M  V30 6523 C 618.011 1.84888 -0.38233 0
M  V30 6524 O 617.368 1.70924 0.639627 0
M  V30 6525 C 617.419 2.28398 -2.80208 0
M  V30 6526 O 617.14 1.66512 -4.05223 0
M  V30 6527 C 618.641 3.18584 -3.08251 0
M  V30 6528 H 615.861 0.36259 -0.564596 0
M  V30 6529 H 618.405 0.511647 -1.97996 0
M  V30 6530 H 616.56 2.93305 -2.53083 0
M  V30 6531 H 616.974 2.37951 -4.67418 0
M  V30 6532 H 618.448 3.90511 -3.90135 0
M  V30 6533 H 618.925 3.79628 -2.2086 0
M  V30 6534 H 619.531 2.59372 -3.37055 0
M  V30 6535 N 617.846 1.41785 0.688094 0
M  V30 6536 C 619.092 1.41753 1.4503 0
M  V30 6537 C 619.425 0.0290745 1.94178 0
M  V30 6538 O 618.7 -0.944456 1.7003 0
M  V30 6539 C 618.983 2.43069 2.65686 0
M  V30 6540 C 618.836 3.91053 2.22256 0
M  V30 6541 C 620.155 2.41543 3.67893 0
M  V30 6542 H 617.274 0.516202 0.526027 0
M  V30 6543 H 619.916 1.73111 0.783105 0
M  V30 6544 H 618.066 2.1646 3.2261 0
M  V30 6545 H 619.738 4.28594 1.70602 0
M  V30 6546 H 617.981 4.05559 1.53963 0
M  V30 6547 H 618.652 4.57501 3.08863 0
M  V30 6548 H 621.128 2.65175 3.20658 0
M  V30 6549 H 620.004 3.14434 4.49914 0
M  V30 6550 H 620.265 1.43666 4.18106 0
M  V30 6551 N 619.324 -0.923095 1.27737 0
M  V30 6552 C 620.57 -1.67375 1.14514 0
M  V30 6553 C 620.903 -1.91751 -0.307424 0
M  V30 6554 O 620.178 -1.51119 -1.22447 0
M  V30 6555 C 620.461 -3.03745 1.9342 0
M  V30 6556 C 620.314 -2.86581 3.46686 0
M  V30 6557 C 621.633 -4.04144 1.74228 0
M  V30 6558 H 618.752 -0.607427 0.417374 0
M  V30 6559 H 621.394 -1.07089 1.56946 0
M  V30 6560 H 619.544 -3.55204 1.5736 0
M  V30 6561 H 621.216 -2.42203 3.92601 0
M  V30 6562 H 619.459 -2.21829 3.72793 0
M  V30 6563 H 620.13 -3.83381 3.97143 0
M  V30 6564 H 622.606 -3.61712 2.05678 0
M  V30 6565 H 621.482 -4.97543 2.31824 0
M  V30 6566 H 621.743 -4.36661 0.691373 0
M  V30 6567 N 620.802 -1.09834 -1.13024 0
M  V30 6568 C 622.049 -0.83695 -1.84395 0
M  V30 6569 C 622.377 0.637463 -1.83757 0
M  V30 6570 O 621.632 1.48554 -1.27398 0
M  V30 6571 C 621.931 -1.32263 -3.32026 0
M  V30 6572 C 621.597 -2.80739 -3.52841 0
M  V30 6573 C 620.259 -3.21286 -3.5823 0
M  V30 6574 C 622.611 -3.76449 -3.60466 0
M  V30 6575 C 619.939 -4.56308 -3.68781 0
M  V30 6576 C 622.291 -5.11266 -3.72546 0
M  V30 6577 C 620.955 -5.51397 -3.76189 0
M  V30 6578 H 620.225 -0.306262 -0.674748 0
M  V30 6579 H 622.872 -1.37385 -1.33408 0
M  V30 6580 H 621.177 -0.705618 -3.85394 0
M  V30 6581 H 622.874 -1.09695 -3.85705 0
M  V30 6582 H 619.464 -2.48363 -3.49305 0
M  V30 6583 H 623.648 -3.46234 -3.55578 0
M  V30 6584 H 618.904 -4.86832 -3.69871 0
M  V30 6585 H 623.078 -5.85279 -3.77388 0
M  V30 6586 H 620.705 -6.56017 -3.84117 0
M  V30 6587 N 622.28 1.30327 -0.886154 0
M  V30 6588 C 623.526 1.96388 -0.505941 0
M  V30 6589 C 623.859 1.69784 0.942712 0
M  V30 6590 O 623.134 1.00322 1.6663 0
M  V30 6591 C 623.417 3.51488 -0.782826 0
M  V30 6592 C 623.27 3.87603 -2.28219 0
M  V30 6593 C 624.589 4.39331 -0.260128 0
M  V30 6594 H 621.708 0.713327 -0.185292 0
M  V30 6595 H 624.35 1.54178 -1.11036 0
M  V30 6596 H 622.5 3.87572 -0.268399 0
M  V30 6597 H 624.172 3.61537 -2.86512 0
M  V30 6598 H 622.415 3.3563 -2.74837 0
M  V30 6599 H 623.086 4.95806 -2.42653 0
M  V30 6600 H 625.562 4.10162 -0.700444 0
M  V30 6601 H 624.438 5.46769 -0.483179 0
M  V30 6602 H 624.699 4.34072 0.838674 0
M  V30 6603 N 623.758 0.647228 1.43697 0
M  V30 6604 C 624.706 -0.0600105 2.32523 0
M  V30 6605 C 625.7 -0.819277 1.48271 0
M  V30 6606 O 626.906 -0.730356 1.64517 0
M  V30 6607 H 623.281 -0.0381872 0.75103 0
M  V30 6608 H 625.252 0.706978 2.89904 0
M  V30 6609 C 624.001 -1.0169 3.32497 0
M  V30 6610 H 623.324 -0.442083 3.97348 0
M  V30 6611 H 624.764 -1.48095 3.97296 0
M  V30 6612 C 623.223 -2.11002 2.6264 0
M  V30 6613 O 623.753 -3.19302 2.4374 0
M  V30 6614 N 621.959 -1.87388 2.22113 0
M  V30 6615 H 621.506 -0.993174 2.37684 0
M  V30 6616 H 621.464 -2.60723 1.75701 0
M  V30 6617 N 625.236 -1.5273 0.388769 0
M  V30 6618 C 626.168 -2.24081 -0.481704 0
M  V30 6619 C 627.181 -1.26307 -1.02715 0
M  V30 6620 O 628.37 -1.52386 -0.929565 0
M  V30 6621 C 625.47 -2.94315 -1.68024 0
M  V30 6622 C 624.643 -4.18791 -1.26226 0
M  V30 6623 C 623.702 -4.72028 -2.32542 0
M  V30 6624 O 622.728 -5.35129 -1.93972 0
M  V30 6625 N 623.93 -4.51838 -3.64448 0
M  V30 6626 H 626.695 -2.9942 0.129591 0
M  V30 6627 H 624.256 -1.60465 0.2151 0
M  V30 6628 H 626.248 -3.26831 -2.38671 0
M  V30 6629 H 624.818 -2.22287 -2.19789 0
M  V30 6630 H 624.038 -3.92318 -0.384703 0
M  V30 6631 H 625.326 -4.99668 -0.959647 0
M  V30 6632 H 624.724 -4.01468 -3.98547 0
M  V30 6633 H 623.281 -4.88845 -4.31131 0
M  V30 6634 N 626.714 -0.118576 -1.57153 0
M  V30 6635 C 627.96 0.534078 -1.96263 0
M  V30 6636 C 628.315 1.64316 -1.0009 0
M  V30 6637 O 627.608 1.91575 -0.0308582 0
M  V30 6638 C 627.802 1.11303 -3.39627 0
M  V30 6639 C 627.631 0.0615624 -4.49658 0
M  V30 6640 C 626.401 -0.370103 -5.03943 0
M  V30 6641 C 628.599 -0.719249 -5.09246 0
M  V30 6642 N 626.581 -1.40738 -5.9755 0
M  V30 6643 C 627.952 -1.60774 -5.98792 0
M  V30 6644 C 630.007 -0.770183 -4.91907 0
M  V30 6645 C 628.71 -2.54272 -6.72858 0
M  V30 6646 C 630.736 -1.69288 -5.66653 0
M  V30 6647 C 630.098 -2.56894 -6.55885 0
M  V30 6648 H 626.197 0.165072 -0.764379 0
M  V30 6649 H 628.781 -0.206596 -1.93601 0
M  V30 6650 H 626.952 1.82342 -3.42937 0
M  V30 6651 H 628.684 1.72996 -3.65861 0
M  V30 6652 H 625.439 0.0222121 -4.73595 0
M  V30 6653 H 625.863 -1.92493 -6.49057 0
M  V30 6654 H 630.505 -0.106999 -4.22665 0
M  V30 6655 H 628.223 -3.21605 -7.41347 0
M  V30 6656 H 631.809 -1.73772 -5.55243 0
M  V30 6657 H 630.689 -3.27131 -7.1271 0
M  V30 6658 N 628.193 1.56834 0.155195 0
M  V30 6659 C 629.418 1.87412 0.888337 0
M  V30 6660 C 629.843 0.70671 1.74319 0
M  V30 6661 O 629.201 -0.343892 1.78009 0
M  V30 6662 C 629.249 3.1652 1.72765 0
M  V30 6663 O 628.353 2.99877 2.83103 0
M  V30 6664 H 627.694 0.615983 0.247914 0
M  V30 6665 H 630.224 2.04061 0.148478 0
M  V30 6666 H 630.234 3.48334 2.12433 0
M  V30 6667 H 628.909 4.01094 1.09985 0
M  V30 6668 H 627.486 2.79453 2.46902 0
M  V30 6669 N 629.671 -0.424282 1.51781 0
M  V30 6670 C 630.917 -1.17434 1.6534 0
M  V30 6671 C 631.25 -1.90549 0.374806 0
M  V30 6672 O 630.525 -1.84145 -0.626179 0
M  V30 6673 C 630.808 -2.18093 2.86544 0
M  V30 6674 C 630.661 -1.48975 4.24413 0
M  V30 6675 C 631.98 -3.18934 3.03264 0
M  V30 6676 H 629.099 -0.425566 0.601716 0
M  V30 6677 H 631.741 -0.461921 1.84299 0
M  V30 6678 H 629.891 -2.78849 2.7051 0
M  V30 6679 H 631.563 -0.914551 4.52143 0
M  V30 6680 H 629.806 -0.791893 4.26511 0
M  V30 6681 H 630.477 -2.22347 5.05238 0
M  V30 6682 H 632.953 -2.68243 3.18096 0
M  V30 6683 H 631.829 -3.86645 3.89611 0
M  V30 6684 H 632.09 -3.85793 2.15908 0
M  V30 6685 N 631.149 -1.42148 -0.680565 0
M  V30 6686 C 632.097 -1.45401 -1.81552 0
M  V30 6687 C 633.091 -0.33036 -1.66147 0
M  V30 6688 O 634.297 -0.503103 -1.72826 0
M  V30 6689 H 630.672 -0.455265 -0.59853 0
M  V30 6690 H 632.643 -2.41024 -1.75926 0
M  V30 6691 C 631.392 -1.36769 -3.19671 0
M  V30 6692 H 630.715 -2.22525 -3.32149 0
M  V30 6693 H 632.155 -1.43106 -3.9912 0
M  V30 6694 C 630.614 -0.0817752 -3.36801 0
M  V30 6695 O 631.144 0.867707 -3.92216 0
M  V30 6696 N 629.35 -0.000799811 -2.906 0
M  V30 6697 H 628.897 -0.774231 -2.4569 0
M  V30 6698 H 628.855 0.858961 -3.02439 0
M  V30 6699 N 632.627 0.916307 -1.28225 0
M  V30 6700 C 633.577 2.00488 -1.08574 0
M  V30 6701 C 634.561 1.60897 -0.0101874 0
M  V30 6702 O 635.753 1.75499 -0.230034 0
M  V30 6703 C 632.882 3.35076 -0.746943 0
M  V30 6704 C 631.968 3.81077 -1.86121 0
M  V30 6705 N 632.359 3.99475 -3.10247 0
M  V30 6706 C 630.657 4.10212 -1.75048 0
M  V30 6707 C 631.358 4.37965 -3.82834 0
M  V30 6708 N 630.334 4.4608 -3.10667 0
M  V30 6709 H 634.136 2.1276 -2.02757 0
M  V30 6710 H 631.65 1.10397 -1.19107 0
M  V30 6711 H 633.647 4.12743 -0.587252 0
M  V30 6712 H 632.307 3.2416 0.187146 0
M  V30 6713 H 633.318 3.85466 -3.45885 0
M  V30 6714 H 629.995 4.07947 -0.887999 0
M  V30 6715 H 631.385 4.60183 -4.89572 0
M  V30 6716 N 634.105 1.10431 1.1244 0
M  V30 6717 C 635.382 0.758797 1.80282 0
M  V30 6718 C 635.762 -0.754727 1.97147 0
M  V30 6719 O 635.11 -1.68094 1.54779 0
M  V30 6720 C 635.32 1.50982 3.14651 0
M  V30 6721 C 636.668 1.68232 3.8985 0
M  V30 6722 O 637.692 1.47319 3.24308 0
M  V30 6723 O 636.551 2.02905 5.07437 0
M  V30 6724 H 633.645 0.273756 0.780376 0
M  V30 6725 H 636.191 1.20713 1.19275 0
M  V30 6726 H 634.963 2.53989 2.97666 0
M  V30 6727 H 634.586 1.05435 3.83366 0
M  V30 6728 N 635.583 -1.29855 0.893053 0
M  V30 6729 C 636.994 -1.77946 0.564998 0
M  V30 6730 C 637.345 -1.73339 -0.919134 0
M  V30 6731 O 636.47 -1.3152 -1.71847 0
M  V30 6732 C 637.065 -3.23118 1.01883 0
M  V30 6733 C 635.624 -3.69013 0.742051 0
M  V30 6734 C 634.771 -2.50121 1.19727 0
M  V30 6735 H 637.722 -1.16611 1.07646 0
M  V30 6736 H 637.743 -3.78875 0.351249 0
M  V30 6737 H 637.255 -3.26439 2.09903 0
M  V30 6738 H 635.356 -3.71173 -0.325816 0
M  V30 6739 H 635.469 -4.60117 1.33527 0
M  V30 6740 H 633.833 -2.47128 0.616418 0
M  V30 6741 H 634.616 -2.56174 2.28538 0
M  V30 6742 N 637.061 -0.65484 -1.43351 0
M  V30 6743 C 637.991 0.0221809 -2.33489 0
M  V30 6744 C 638.972 0.810272 -1.49561 0
M  V30 6745 O 640.157 0.771426 -1.78221 0
M  V30 6746 C 637.287 0.988117 -3.32947 0
M  V30 6747 C 636.241 0.310026 -4.26876 0
M  V30 6748 C 635.567 1.38752 -5.16384 0
M  V30 6749 C 636.867 -0.798589 -5.16159 0
M  V30 6750 H 638.561 -0.730571 -2.9035 0
M  V30 6751 H 636.107 -0.352773 -1.39612 0
M  V30 6752 H 638.06 1.47067 -3.94904 0
M  V30 6753 H 636.784 1.77205 -2.74346 0
M  V30 6754 H 635.443 -0.152097 -3.66284 0
M  V30 6755 H 635.091 2.16293 -4.54121 0
M  V30 6756 H 634.791 0.939051 -5.80048 0
M  V30 6757 H 636.315 1.87141 -5.81215 0
M  V30 6758 H 637.729 -0.398126 -5.71916 0
M  V30 6759 H 636.126 -1.17163 -5.88552 0
M  V30 6760 H 637.196 -1.65588 -4.55751 0
M  V30 6761 N 638.539 1.52521 -0.396863 0
M  V30 6762 C 639.486 2.26671 0.434624 0
M  V30 6763 C 640.456 1.28584 1.05144 0
M  V30 6764 O 641.641 1.57426 1.07804 0
M  V30 6765 C 638.781 3.08234 1.55196 0
M  V30 6766 C 637.894 4.21261 0.957262 0
M  V30 6767 C 637.029 4.90205 2.04627 0
M  V30 6768 C 636.068 5.95213 1.42787 0
M  V30 6769 N 635.205 6.57723 2.45651 0
M  V30 6770 H 640.045 2.973 -0.204139 0
M  V30 6771 H 637.582 1.46669 -0.112505 0
M  V30 6772 H 639.54 3.53819 2.2106 0
M  V30 6773 H 638.17 2.398 2.16092 0
M  V30 6774 H 637.222 3.79935 0.188005 0
M  V30 6775 H 638.534 4.96624 0.465416 0
M  V30 6776 H 637.688 5.39133 2.78246 0
M  V30 6777 H 636.427 4.14383 2.57174 0
M  V30 6778 H 635.432 5.45616 0.676968 0
M  V30 6779 H 636.657 6.72972 0.910255 0
M  V30 6780 H 634.603 5.84737 2.97353 0
M  V30 6781 H 634.52 7.28723 2.01243 0
M  V30 6782 H 635.788 7.11293 3.18876 0
M  V30 6783 N 640.017 0.126909 1.57088 0
M  V30 6784 C 641.263 -0.523662 1.96543 0
M  V30 6785 C 641.618 -1.63783 1.0096 0
M  V30 6786 O 640.911 -1.91556 0.0410175 0
M  V30 6787 C 641.105 -1.095 3.40212 0
M  V30 6788 C 640.934 -0.037715 4.49684 0
M  V30 6789 C 639.704 0.396823 5.03739 0
M  V30 6790 C 641.902 0.746245 5.08857 0
M  V30 6791 N 639.884 1.43905 5.96795 0
M  V30 6792 C 641.255 1.63947 5.97931 0
M  V30 6793 C 643.31 0.796259 4.91492 0
M  V30 6794 C 642.013 2.57837 6.715 0
M  V30 6795 C 644.039 1.7229 5.65747 0
M  V30 6796 C 643.401 2.60369 6.54513 0
M  V30 6797 H 639.5 -0.161016 0.765244 0
M  V30 6798 H 642.084 0.21686 1.93489 0
M  V30 6799 H 640.255 -1.80521 3.43899 0
M  V30 6800 H 641.987 -1.71054 3.66773 0
M  V30 6801 H 638.742 0.00290406 4.736 0
M  V30 6802 H 639.166 1.95932 6.48027 0
M  V30 6803 H 643.808 0.129412 4.22602 0
M  V30 6804 H 641.526 3.25532 7.39631 0
M  V30 6805 H 645.112 1.76715 5.54313 0
M  V30 6806 H 643.992 3.30906 7.10965 0
M  V30 6807 N 641.495 -1.56914 -0.146875 0
M  V30 6808 C 642.906 -1.72799 -0.706928 0
M  V30 6809 C 643.257 -0.741329 -1.81656 0
M  V30 6810 O 642.382 0.0920162 -2.16204 0
M  V30 6811 C 642.977 -3.13317 -1.28911 0
M  V30 6812 C 641.536 -3.30803 -1.79573 0
M  V30 6813 C 640.683 -2.68725 -0.684252 0
M  V30 6814 H 643.634 -1.58504 0.0787931 0
M  V30 6815 H 643.655 -3.13323 -2.15891 0
M  V30 6816 H 643.167 -3.85104 -0.481284 0
M  V30 6817 H 641.268 -2.64012 -2.62923 0
M  V30 6818 H 641.381 -4.38754 -1.92436 0
M  V30 6819 H 639.745 -2.29196 -1.11091 0
M  V30 6820 H 640.528 -3.43117 0.112134 0
M  V30 6821 N 642.974 0.416227 -1.52004 0
M  V30 6822 C 643.922 1.5272 -1.7544 0
M  V30 6823 C 644.916 1.57596 -0.621289 0
M  V30 6824 O 646.122 1.61087 -0.803172 0
M  V30 6825 H 642.497 0.507772 -0.554682 0
M  V30 6826 H 644.468 1.30136 -2.68528 0
M  V30 6827 C 643.217 2.90165 -1.91571 0
M  V30 6828 H 642.54 2.87154 -2.78178 0
M  V30 6829 H 643.98 3.67211 -2.11972 0
M  V30 6830 C 642.439 3.29947 -0.680942 0
M  V30 6831 O 642.969 4.01403 0.154527 0
M  V30 6832 N 641.175 2.8593 -0.518894 0
M  V30 6833 H 640.722 2.2795 -1.19986 0
M  V30 6834 H 640.68 3.12907 0.305985 0
M  V30 6835 N 644.452 1.42507 0.673017 0
M  V30 6836 C 645.863 1.38347 1.25367 0
M  V30 6837 C 646.214 0.0776327 1.96046 0
M  V30 6838 O 645.339 -0.823571 2.00116 0
M  V30 6839 C 645.934 2.506 2.28002 0
M  V30 6840 C 644.493 2.49767 2.81591 0
M  V30 6841 C 643.64 2.293 1.55938 0
M  V30 6842 H 646.591 1.51695 0.466288 0
M  V30 6843 H 646.612 2.20953 3.09774 0
M  V30 6844 H 646.124 3.45627 1.76532 0
M  V30 6845 H 644.225 1.58563 3.37177 0
M  V30 6846 H 644.338 3.46867 3.30485 0
M  V30 6847 H 642.702 1.77594 1.82572 0
M  V30 6848 H 643.485 3.26385 1.06431 0
M  V30 6849 N 645.93 -0.909495 1.28709 0
M  V30 6850 C 646.84 -2.04558 1.14861 0
M  V30 6851 C 647.856 -1.73842 0.0741621 0
M  V30 6852 O 649.032 -1.99383 0.2843 0
M  V30 6853 C 646.097 -3.36957 0.816148 0
M  V30 6854 C 645.158 -3.81255 1.97341 0
M  V30 6855 C 644.391 -5.07335 1.65671 0
M  V30 6856 O 644.614 -5.67514 0.573053 0
M  V30 6857 O 643.548 -5.47449 2.50167 0
M  V30 6858 H 647.374 -2.19161 2.10243 0
M  V30 6859 H 644.959 -1.03159 1.08068 0
M  V30 6860 H 646.841 -4.16436 0.644873 0
M  V30 6861 H 645.516 -3.2352 -0.107983 0
M  V30 6862 H 644.423 -3.02584 2.19986 0
M  V30 6863 H 645.756 -3.99261 2.87839 0
M  V30 6864 N 647.408 -1.11026 -1.11852 0
M  V30 6865 C 648.356 -0.759643 -2.19846 0
M  V30 6866 C 649.35 0.246964 -1.6759 0
M  V30 6867 O 650.556 0.106693 -1.79684 0
M  V30 6868 H 646.931 -0.22775 -0.716683 0
M  V30 6869 H 648.902 -1.6792 -2.46669 0
M  V30 6870 C 647.651 -0.214364 -3.47039 0
M  V30 6871 H 646.974 -0.980175 -3.87599 0
M  V30 6872 H 648.414 -0.00717047 -4.23999 0
M  V30 6873 C 646.873 1.05436 -3.19976 0
M  V30 6874 O 647.403 2.13483 -3.40276 0
M  V30 6875 N 645.609 0.975436 -2.7374 0
M  V30 6876 H 645.156 0.0960853 -2.57421 0
M  V30 6877 H 645.114 1.82501 -2.5601 0
M  V30 6878 N 648.886 1.2938 -0.899927 0
M  V30 6879 C 650.133 1.9555 -0.525963 0
M  V30 6880 C 650.461 1.70945 0.927789 0
M  V30 6881 O 649.716 1.01545 1.67293 0
M  V30 6882 C 650.015 3.49114 -0.765113 0
M  V30 6883 C 649.681 3.93796 -2.19626 0
M  V30 6884 C 648.343 4.05707 -2.58758 0
M  V30 6885 C 650.695 4.16883 -3.12823 0
M  V30 6886 C 648.023 4.38074 -3.90267 0
M  V30 6887 C 650.375 4.50725 -4.4388 0
M  V30 6888 C 649.039 4.60845 -4.82885 0
M  V30 6889 H 648.309 0.715569 -0.192463 0
M  V30 6890 H 650.956 1.53972 -1.13863 0
M  V30 6891 H 649.261 3.91738 -0.069531 0
M  V30 6892 H 650.958 3.98409 -0.455144 0
M  V30 6893 H 647.548 3.85042 -1.88256 0
M  V30 6894 H 651.732 4.07147 -2.83804 0
M  V30 6895 H 646.988 4.44112 -4.20207 0
M  V30 6896 H 651.162 4.67538 -5.16121 0
M  V30 6897 H 648.789 4.85681 -5.84823 0
M  V30 6898 N 650.364 0.662433 1.43002 0
M  V30 6899 C 651.641 0.109096 1.95296 0
M  V30 6900 C 652.021 -1.37313 1.60338 0
M  V30 6901 O 651.369 -2.1032 0.893187 0
M  V30 6902 C 651.579 0.365096 3.47085 0
M  V30 6903 C 652.927 0.274964 4.23709 0
M  V30 6904 O 653.951 0.29816 3.5495 0
M  V30 6905 O 652.81 0.206549 5.4611 0
M  V30 6906 H 649.904 -0.00429724 0.826989 0
M  V30 6907 H 652.45 0.736308 1.52894 0
M  V30 6908 H 651.222 1.39237 3.65689 0
M  V30 6909 H 650.845 -0.294733 3.96506 0
M  V30 6910 N 651.842 -1.52309 0.404946 0
M  V30 6911 C 653.253 -1.86585 -0.0655926 0
M  V30 6912 C 653.604 -1.3239 -1.44801 0
M  V30 6913 O 652.729 -0.6615 -2.06042 0
M  V30 6914 C 653.324 -3.38566 -0.125801 0
M  V30 6915 C 651.883 -3.72497 -0.540666 0
M  V30 6916 C 651.03 -2.75806 0.287487 0
M  V30 6917 H 653.981 -1.45995 0.622185 0
M  V30 6918 H 654.002 -3.68658 -0.941888 0
M  V30 6919 H 653.514 -3.77981 0.880473 0
M  V30 6920 H 651.615 -3.38659 -1.55373 0
M  V30 6921 H 651.728 -4.78234 -0.287956 0
M  V30 6922 H 650.092 -2.53474 -0.249561 0
M  V30 6923 H 650.875 -3.18059 1.29203 0
M  V30 6924 N 653.32 -0.135238 -1.57019 0
M  V30 6925 C 654.283 0.794707 -2.14981 0
M  V30 6926 C 655.283 1.18342 -1.08866 0
M  V30 6927 O 656.473 1.10627 -1.34563 0
M  V30 6928 C 653.605 2.07685 -2.70333 0
M  V30 6929 H 654.798 0.290696 -2.98488 0
M  V30 6930 H 652.351 0.114128 -1.55883 0
M  V30 6931 H 653.086 2.6248 -1.9046 0
M  V30 6932 H 652.871 1.80745 -3.47957 0
M  V30 6933 H 654.361 2.74127 -3.1503 0
M  V30 6934 N 654.798 1.5699 0.138552 0
M  V30 6935 C 656.214 1.51844 0.491472 0
M  V30 6936 C 656.414 0.845063 1.82923 0
M  V30 6937 O 655.47 0.419143 2.48997 0
M  V30 6938 C 656.783 2.96615 0.493987 0
M  V30 6939 C 658.331 3.076 0.578913 0
M  V30 6940 C 658.806 4.53893 0.612009 0
M  V30 6941 N 660.297 4.5827 0.673997 0
M  V30 6942 C 661.032 5.68852 0.720729 0
M  V30 6943 N 660.528 6.88982 0.726292 0
M  V30 6944 N 662.321 5.56908 0.762253 0
M  V30 6945 H 654.472 1.99158 -0.738228 0
M  V30 6946 H 656.735 0.908693 -0.270149 0
M  V30 6947 H 656.441 3.49172 -0.420933 0
M  V30 6948 H 656.315 3.53017 1.32887 0
M  V30 6949 H 658.702 2.55057 1.48425 0
M  V30 6950 H 658.783 2.54227 -0.283286 0
M  V30 6951 H 658.427 5.07076 -0.289208 0
M  V30 6952 H 658.357 5.05057 1.49082 0
M  V30 6953 H 660.848 3.71793 0.676654 0
M  V30 6954 H 661.161 7.69014 0.764032 0
M  V30 6955 H 659.506 6.91526 0.69403 0
M  V30 6956 H 662.697 4.61969 0.755135 0
M  V30 6957 H 662.87 6.43102 0.795207 0
M  V30 6958 N 656.276 -0.40816 1.52223 0
M  V30 6959 C 657.523 -1.15502 1.66329 0
M  V30 6960 C 657.851 -1.90474 0.393701 0
M  V30 6961 O 657.106 -1.85507 -0.623356 0
M  V30 6962 C 657.405 -2.17422 2.83659 0
M  V30 6963 C 657.071 -1.5925 4.21841 0
M  V30 6964 C 655.733 -1.4311 4.59427 0
M  V30 6965 C 658.085 -1.16776 5.0795 0
M  V30 6966 C 655.413 -0.830148 5.80797 0
M  V30 6967 C 657.765 -0.580988 6.29926 0
M  V30 6968 C 656.429 -0.406729 6.6626 0
M  V30 6969 H 655.699 -0.422653 0.608642 0
M  V30 6970 H 658.346 -0.442114 1.86327 0
M  V30 6971 H 656.651 -2.94861 2.58001 0
M  V30 6972 H 658.348 -2.75084 2.9177 0
M  V30 6973 H 654.938 -1.72796 3.92224 0
M  V30 6974 H 659.122 -1.28055 4.79495 0
M  V30 6975 H 654.378 -0.68316 6.07571 0
M  V30 6976 H 658.552 -0.243488 6.95974 0
M  V30 6977 H 656.179 0.0610366 7.60175 0
M  V30 6978 N 657.755 -1.42862 -0.66545 0
M  V30 6979 C 658.685 -1.49867 -1.79059 0
M  V30 6980 C 659.666 -0.354394 -1.66367 0
M  V30 6981 O 660.851 -0.569969 -1.85647 0
M  V30 6982 C 657.981 -1.40943 -3.17415 0
M  V30 6983 C 656.935 -2.53495 -3.44854 0
M  V30 6984 C 656.261 -2.29626 -4.82883 0
M  V30 6985 C 657.561 -3.95781 -3.40815 0
M  V30 6986 H 659.255 -2.44037 -1.73453 0
M  V30 6987 H 656.801 -1.17456 -0.833071 0
M  V30 6988 H 658.754 -1.4445 -3.95869 0
M  V30 6989 H 657.478 -0.432716 -3.23721 0
M  V30 6990 H 656.137 -2.4932 -2.68766 0
M  V30 6991 H 655.785 -1.30226 -4.8585 0
M  V30 6992 H 655.485 -3.05065 -5.02204 0
M  V30 6993 H 657.009 -2.34897 -5.63609 0
M  V30 6994 H 658.423 -4.01508 -4.09224 0
M  V30 6995 H 656.82 -4.71148 -3.71672 0
M  V30 6996 H 657.89 -4.21786 -2.39216 0
M  V30 6997 N 659.233 0.902656 -1.29189 0
M  V30 6998 C 660.51 1.63296 -1.07674 0
M  V30 6999 C 660.89 2.07649 0.380137 0
M  V30 7000 O 660.238 1.82997 1.36837 0
M  V30 7001 C 660.448 2.81603 -2.06158 0
M  V30 7002 C 661.796 3.52359 -2.36914 0
M  V30 7003 O 662.82 2.91767 -2.04329 0
M  V30 7004 O 661.679 4.61586 -2.92576 0
M  V30 7005 H 658.773 0.716889 -0.41231 0
M  V30 7006 H 661.319 0.950984 -1.4055 0
M  V30 7007 H 660.091 2.46004 -3.04299 0
M  V30 7008 H 659.714 3.57508 -1.73993 0
M  V30 7009 N 660.711 1.11618 1.11262 0
M  V30 7010 C 661.658 0.7762 2.17356 0
M  V30 7011 C 662.628 -0.253152 1.6416 0
M  V30 7012 O 663.813 -0.129655 1.90359 0
M  V30 7013 C 660.953 0.227581 3.44349 0
M  V30 7014 C 660.066 1.31372 4.1154 0
M  V30 7015 C 659.201 0.72544 5.26223 0
M  V30 7016 C 658.24 1.7913 5.85302 0
M  V30 7017 N 657.377 1.22237 6.91377 0
M  V30 7018 H 662.217 1.68508 2.45783 0
M  V30 7019 H 659.754 0.841475 1.20655 0
M  V30 7020 H 661.712 -0.108483 4.17059 0
M  V30 7021 H 660.342 -0.644486 3.16301 0
M  V30 7022 H 659.394 1.7667 3.36885 0
M  V30 7023 H 660.706 2.12005 4.51504 0
M  V30 7024 H 659.86 0.339541 6.05749 0
M  V30 7025 H 658.599 -0.112188 4.87571 0
M  V30 7026 H 657.604 2.18648 5.04453 0
M  V30 7027 H 658.829 2.63199 6.26022 0
M  V30 7028 H 656.775 0.406423 6.5474 0
M  V30 7029 H 656.692 1.9654 7.30006 0
M  V30 7030 H 657.96 0.863426 7.74703 0
M  V30 7031 N 662.189 -1.289 0.906776 0
M  V30 7032 C 663.466 -1.90221 0.455537 0
M  V30 7033 C 663.846 -1.82251 -1.06527 0
M  V30 7034 O 663.194 -1.25385 -1.91026 0
M  V30 7035 C 663.404 -3.35015 0.97806 0
M  V30 7036 C 664.752 -4.12018 1.02598 0
M  V30 7037 O 665.776 -3.43947 0.926218 0
M  V30 7038 O 664.635 -5.33677 1.17689 0
M  V30 7039 H 661.729 -0.814505 0.143214 0
M  V30 7040 H 664.275 -1.37317 0.997104 0
M  V30 7041 H 663.047 -3.35006 2.02204 0
M  V30 7042 H 662.67 -3.95408 0.416914 0
M  V30 7043 N 663.667 -0.670007 -1.42649 0
M  V30 7044 C 664.915 -0.18991 -2.01206 0
M  V30 7045 C 665.236 1.20617 -1.53221 0
M  V30 7046 O 664.506 1.80898 -0.751856 0
M  V30 7047 H 663.086 -0.0672189 -0.743969 0
M  V30 7048 H 665.748 -0.865442 -1.74631 0
M  V30 7049 H 664.844 -0.187481 -3.11536 0
M  V30 7050 N 665.145 1.52092 -0.413018 0
M  V30 7051 C 666.075 2.30021 0.401567 0
M  V30 7052 C 667.056 1.34395 1.04269 0
M  V30 7053 O 668.241 1.63304 1.05097 0
M  V30 7054 C 665.371 3.12447 1.51638 0
M  V30 7055 C 664.325 4.16153 1.00005 0
M  V30 7056 C 663.651 4.86948 2.20875 0
M  V30 7057 C 664.951 5.22275 0.0513757 0
M  V30 7058 H 666.645 2.98365 -0.248704 0
M  V30 7059 H 664.191 1.4349 -0.121052 0
M  V30 7060 H 666.144 3.65733 2.09326 0
M  V30 7061 H 664.868 2.41879 2.19458 0
M  V30 7062 H 663.527 3.63882 0.445549 0
M  V30 7063 H 663.175 4.12905 2.8726 0
M  V30 7064 H 662.875 5.57057 1.86978 0
M  V30 7065 H 664.399 5.43048 2.79162 0
M  V30 7066 H 665.813 5.70778 0.537176 0
M  V30 7067 H 664.21 5.9977 -0.198977 0
M  V30 7068 H 665.28 4.76611 -0.892736 0
M  V30 7069 N 666.623 0.143563 1.56945 0
M  V30 7070 C 667.872 -0.50835 1.95189 0
M  V30 7071 C 668.185 -1.66239 1.03073 0
M  V30 7072 O 669.391 -2.3787 1.30882 0
M  V30 7073 C 667.847 -0.955735 3.46978 0
M  V30 7074 C 667.455 0.171183 4.47673 0
M  V30 7075 C 669.199 -1.57763 3.94095 0
M  V30 7076 C 667.106 -0.294279 5.90667 0
M  V30 7077 H 666.036 -0.193679 0.728701 0
M  V30 7078 H 668.687 0.227357 1.82086 0
M  V30 7079 H 667.069 -1.7466 3.55401 0
M  V30 7080 H 668.243 0.948049 4.50942 0
M  V30 7081 H 666.558 0.701273 4.10452 0
M  V30 7082 H 669.155 -1.93745 4.98364 0
M  V30 7083 H 669.498 -2.46531 3.35452 0
M  V30 7084 H 670.031 -0.851728 3.88575 0
M  V30 7085 H 666.77 0.557939 6.53121 0
M  V30 7086 H 666.29 -1.0371 5.90766 0
M  V30 7087 H 667.969 -0.747426 6.42668 0
M  V30 7088 N 668.101 -1.57061 -0.130224 0
M  V30 7089 C 669.049 -2.00486 -1.17933 0
M  V30 7090 C 670.043 -0.899933 -1.43519 0
M  V30 7091 O 671.249 -1.08514 -1.43613 0
M  V30 7092 H 667.624 -0.638441 -0.397363 0
M  V30 7093 H 669.595 -2.87848 -0.786501 0
M  V30 7094 C 668.344 -2.41565 -2.50084 0
M  V30 7095 H 667.667 -3.26148 -2.31231 0
M  V30 7096 H 669.107 -2.75757 -3.22078 0
M  V30 7097 C 667.566 -1.27485 -3.11848 0
M  V30 7098 O 668.096 -0.584688 -3.97422 0
M  V30 7099 N 666.302 -1.03478 -2.71552 0
M  V30 7100 H 665.849 -1.59779 -2.02061 0
M  V30 7101 H 665.807 -0.27341 -3.13209 0
M  V30 7102 N 669.579 0.400081 -1.52437 0
M  V30 7103 C 670.526 1.48803 -1.76426 0
M  V30 7104 C 671.496 1.5461 -0.607032 0
M  V30 7105 O 672.681 1.71041 -0.845563 0
M  V30 7106 C 669.821 2.86156 -1.92896 0
M  V30 7107 C 668.934 2.89587 -3.20567 0
M  V30 7108 C 668.069 4.18296 -3.27417 0
M  V30 7109 C 667.108 4.15736 -4.49255 0
M  V30 7110 N 666.245 5.36032 -4.53447 0
M  V30 7111 H 671.085 1.27649 -2.69276 0
M  V30 7112 H 668.622 0.619451 -1.33421 0
M  V30 7113 H 670.58 3.65901 -2.00429 0
M  V30 7114 H 669.21 3.05785 -1.03418 0
M  V30 7115 H 668.262 2.02278 -3.22161 0
M  V30 7116 H 669.574 2.83562 -4.10358 0
M  V30 7117 H 668.728 5.06439 -3.34072 0
M  V30 7118 H 667.467 4.27028 -2.35581 0
M  V30 7119 H 666.472 3.25982 -4.42737 0
M  V30 7120 H 667.697 4.08636 -5.42396 0
M  V30 7121 H 665.643 5.45415 -3.64498 0
M  V30 7122 H 665.56 5.32038 -5.37096 0
M  V30 7123 H 666.828 6.26104 -4.64343 0
M  V30 7124 N 671.057 1.43213 0.657864 0
M  V30 7125 C 672.334 1.35063 1.41483 0
M  V30 7126 C 672.714 -0.0038314 2.111 0
M  V30 7127 O 672.062 -1.02018 2.04462 0
M  V30 7128 C 672.272 2.53061 2.40335 0
M  V30 7129 C 673.62 2.9594 3.04474 0
M  V30 7130 O 674.644 2.53074 2.50663 0
M  V30 7131 O 673.503 3.70184 4.02027 0
M  V30 7132 H 670.597 0.533517 0.631893 0
M  V30 7133 H 673.143 1.55253 0.685162 0
M  V30 7134 H 671.915 3.43283 1.87809 0
M  V30 7135 H 671.538 2.34945 3.20759 0
M  V30 7136 N 672.536 -0.895792 1.29666 0
M  V30 7137 C 673.466 -2.01673 1.17688 0
M  V30 7138 C 674.447 -1.69955 0.0701317 0
M  V30 7139 O 675.632 -1.9258 0.250289 0
M  V30 7140 C 672.762 -3.36568 0.856681 0
M  V30 7141 C 671.716 -3.82509 1.92017 0
M  V30 7142 C 671.042 -5.14574 1.4532 0
M  V30 7143 C 672.342 -4.02409 3.32963 0
M  V30 7144 H 674.036 -2.11953 2.11463 0
M  V30 7145 H 671.582 -1.01839 1.01807 0
M  V30 7146 H 673.535 -4.14498 0.759577 0
M  V30 7147 H 672.259 -3.26391 -0.116763 0
M  V30 7148 H 670.918 -3.068 2.00673 0
M  V30 7149 H 670.566 -5.00815 0.468325 0
M  V30 7150 H 670.266 -5.46283 2.16447 0
M  V30 7151 H 671.79 -5.9504 1.36968 0
M  V30 7152 H 673.204 -4.70808 3.27127 0
M  V30 7153 H 671.601 -4.45478 4.02082 0
M  V30 7154 H 672.671 -3.06616 3.75652 0
M  V30 7155 N 674.014 -1.12206 -1.10668 0
M  V30 7156 C 675.242 -0.898635 -1.86366 0
M  V30 7157 C 675.657 0.551991 -1.80551 0
M  V30 7158 O 675.014 1.38152 -1.19249 0
M  V30 7159 C 675.065 -1.36199 -3.34861 0
M  V30 7160 O 674.786 -2.75576 -3.40573 0
M  V30 7161 C 676.287 -1.17515 -4.2744 0
M  V30 7162 H 673.507 -0.321281 -0.589084 0
M  V30 7163 H 676.051 -1.49142 -1.39918 0
M  V30 7164 H 674.206 -0.81249 -3.78784 0
M  V30 7165 H 674.62 -2.95851 -4.33096 0
M  V30 7166 H 676.094 -1.54827 -5.29842 0
M  V30 7167 H 676.571 -0.115486 -4.39048 0
M  V30 7168 H 677.177 -1.71203 -3.89319 0
M  V30 7169 N 675.492 1.28418 -0.913599 0
M  V30 7170 C 676.717 1.99643 -0.561899 0
M  V30 7171 C 677.142 1.67819 0.849608 0
M  V30 7172 O 676.5 0.910503 1.56779 0
M  V30 7173 C 676.548 3.52116 -0.777622 0
M  V30 7174 O 675.652 4.12076 0.163457 0
M  V30 7175 H 674.993 0.627229 -0.217898 0
M  V30 7176 H 677.523 1.63575 -1.229 0
M  V30 7177 H 677.533 4.02163 -0.687666 0
M  V30 7178 H 676.208 3.74613 -1.8066 0
M  V30 7179 H 674.785 3.72892 0.0247827 0
M  V30 7180 N 676.97 0.677563 1.42291 0
M  V30 7181 C 678.386 0.347376 1.55774 0
M  V30 7182 C 678.586 -1.14703 1.65667 0
M  V30 7183 O 677.642 -1.93252 1.62512 0
M  V30 7184 C 678.955 1.08011 2.80631 0
M  V30 7185 C 680.503 1.06271 2.94407 0
M  V30 7186 C 680.978 1.77683 4.22129 0
M  V30 7187 N 682.469 1.74564 4.29047 0
M  V30 7188 C 683.204 2.26673 5.26694 0
M  V30 7189 N 682.7 2.87176 6.30477 0
M  V30 7190 N 684.493 2.17032 5.18511 0
M  V30 7191 H 676.644 1.64703 1.34114 0
M  V30 7192 H 678.907 0.694038 0.645768 0
M  V30 7193 H 678.613 2.13518 2.79469 0
M  V30 7194 H 678.487 0.647115 3.71608 0
M  V30 7195 H 680.874 0.0159658 2.95096 0
M  V30 7196 H 680.955 1.53461 2.04654 0
M  V30 7197 H 680.599 2.82327 4.22201 0
M  V30 7198 H 680.529 1.2794 5.10822 0
M  V30 7199 H 683.02 1.30436 3.54676 0
M  V30 7200 H 683.333 3.24551 7.01346 0
M  V30 7201 H 681.678 2.91247 6.31031 0
M  V30 7202 H 684.869 1.69451 4.36353 0
M  V30 7203 H 685.042 2.57948 5.94446 0
M  V30 7204 N 678.448 -1.51871 0.421078 0
M  V30 7205 C 679.694 -2.02237 -0.151014 0
M  V30 7206 C 680.027 -1.30554 -1.43768 0
M  V30 7207 O 679.302 -0.41546 -1.90011 0
M  V30 7208 C 679.585 -3.5802 -0.386482 0
M  V30 7209 C 679.438 -4.40339 0.9177 0
M  V30 7210 C 680.757 -4.24444 -1.16342 0
M  V30 7211 H 677.876 -0.735062 -0.0534102 0
M  V30 7212 H 680.518 -1.81656 0.556888 0
M  V30 7213 H 678.668 -3.75688 -0.989494 0
M  V30 7214 H 680.34 -4.34357 1.55344 0
M  V30 7215 H 678.583 -4.06073 1.526 0
M  V30 7216 H 679.254 -5.47451 0.707187 0
M  V30 7217 H 681.73 -4.10948 -0.652788 0
M  V30 7218 H 680.606 -5.33358 -1.29693 0
M  V30 7219 H 680.867 -3.84204 -2.18724 0
M  V30 7220 N 679.926 -0.151884 -1.56866 0
M  V30 7221 C 680.859 0.824094 -2.128 0
M  V30 7222 C 681.837 1.2391 -1.05286 0
M  V30 7223 O 683.021 1.33433 -1.33146 0
M  V30 7224 C 680.148 2.1072 -2.65169 0
M  V30 7225 C 679.194 1.83774 -3.84876 0
M  V30 7226 S 680.027 1.02436 -5.25611 0
M  V30 7227 C 681.183 2.31855 -5.81373 0
M  V30 7228 H 681.416 0.348456 -2.95251 0
M  V30 7229 H 678.949 0.0624794 -1.54274 0
M  V30 7230 H 680.907 2.84428 -2.95992 0
M  V30 7231 H 679.568 2.55398 -1.8284 0
M  V30 7232 H 678.761 2.78929 -4.19779 0
M  V30 7233 H 678.363 1.18172 -3.5484 0
M  V30 7234 H 680.655 3.27469 -5.93102 0
M  V30 7235 H 681.598 2.01449 -6.7884 0
M  V30 7236 H 682.006 2.42727 -5.09651 0
M  V30 7237 N 681.404 1.57128 0.121893 0
M  V30 7238 C 682.653 1.83888 0.828748 0
M  V30 7239 C 682.966 0.737087 1.81181 0
M  V30 7240 O 684.172 0.891007 2.56463 0
M  V30 7241 C 682.628 3.26014 1.52455 0
M  V30 7242 C 682.236 4.44195 0.58263 0
M  V30 7243 C 683.98 3.62025 2.21671 0
M  V30 7244 C 681.887 5.77349 1.28149 0
M  V30 7245 H 680.817 0.685856 0.313238 0
M  V30 7246 H 683.468 1.83319 0.0814851 0
M  V30 7247 H 681.85 3.21044 2.31834 0
M  V30 7248 H 683.024 4.60457 -0.177729 0
M  V30 7249 H 681.339 4.164 -0.00241228 0
M  V30 7250 H 683.936 4.58776 2.74643 0
M  V30 7251 H 684.279 2.89315 2.99337 0
M  V30 7252 H 684.812 3.68767 1.49184 0
M  V30 7253 H 681.551 6.53221 0.546189 0
M  V30 7254 H 681.071 5.64978 2.01394 0
M  V30 7255 H 682.75 6.21006 1.81549 0
M  V30 7256 N 682.882 -0.391992 1.52647 0
M  V30 7257 C 684.129 -1.13732 1.67545 0
M  V30 7258 C 684.457 -1.90045 0.413881 0
M  V30 7259 O 683.712 -1.86157 -0.603646 0
M  V30 7260 C 684.011 -2.14401 2.85949 0
M  V30 7261 C 683.677 -1.54767 4.23507 0
M  V30 7262 C 682.339 -1.38229 4.60919 0
M  V30 7263 C 684.691 -1.11382 5.0916 0
M  V30 7264 C 682.019 -0.7685 5.81645 0
M  V30 7265 C 684.371 -0.514143 6.30507 0
M  V30 7266 C 683.035 -0.33604 6.66654 0
M  V30 7267 H 682.305 -0.416174 0.613091 0
M  V30 7268 H 684.952 -0.422327 1.86785 0
M  V30 7269 H 683.257 -2.92108 2.61114 0
M  V30 7270 H 684.954 -2.71974 2.94671 0
M  V30 7271 H 681.544 -1.68626 3.94035 0
M  V30 7272 H 685.728 -1.22962 4.80826 0
M  V30 7273 H 680.984 -0.618681 6.08262 0
M  V30 7274 H 685.158 -0.169657 6.96193 0
M  V30 7275 H 682.785 0.14166 7.60068 0
M  V30 7276 N 684.36 -1.4356 -0.65026 0
M  V30 7277 C 685.585 -1.48995 -1.44275 0
M  V30 7278 C 686.01 -0.109954 -1.87778 0
M  V30 7279 O 685.368 0.896926 -1.57559 0
M  V30 7280 C 685.416 -2.44341 -2.65198 0
M  V30 7281 O 684.52 -1.93172 -3.6436 0
M  V30 7282 H 683.861 -0.503852 -0.432469 0
M  V30 7283 H 686.391 -1.88504 -0.795446 0
M  V30 7284 H 686.401 -2.61743 -3.12977 0
M  V30 7285 H 685.076 -3.44588 -2.32877 0
M  V30 7286 H 683.653 -1.85445 -3.23519 0
M  V30 7287 N 685.838 0.888903 -1.30139 0
M  V30 7288 C 687.084 1.6428 -1.18912 0
M  V30 7289 C 687.417 1.92499 0.256477 0
M  V30 7290 O 686.692 1.54312 1.18397 0
M  V30 7291 C 686.975 2.9851 -2.01405 0
M  V30 7292 C 686.828 2.77288 -3.54163 0
M  V30 7293 C 688.147 3.99383 -1.84882 0
M  V30 7294 H 685.266 0.596148 -0.433333 0
M  V30 7295 H 687.908 1.0289 -1.5973 0
M  V30 7296 H 686.058 3.50907 -1.66722 0
M  V30 7297 H 687.73 2.31709 -3.98884 0
M  V30 7298 H 685.973 2.11867 -3.78543 0
M  V30 7299 H 686.644 3.72717 -4.07168 0
M  V30 7300 H 689.12 3.56132 -2.15196 0
M  V30 7301 H 687.996 4.91222 -2.44934 0
M  V30 7302 H 688.257 4.34674 -0.806902 0
M  V30 7303 N 687.317 1.12792 1.10072 0
M  V30 7304 C 688.565 0.883796 1.81751 0
M  V30 7305 C 688.886 -0.591891 1.858 0
M  V30 7306 O 688.156 -1.43017 1.33876 0
M  V30 7307 H 686.736 0.323978 0.673088 0
M  V30 7308 H 689.398 1.42314 1.33164 0
M  V30 7309 H 688.494 1.26863 2.85153 0
M  V30 7310 N 688.795 -1.27931 0.920396 0
M  V30 7311 C 689.742 -2.27085 0.412422 0
M  V30 7312 C 690.712 -1.57858 -0.516725 0
M  V30 7313 O 691.897 -1.85717 -0.437475 0
M  V30 7314 C 689.037 -3.43466 -0.335399 0
M  V30 7315 C 688.15 -4.27425 0.627017 0
M  V30 7316 C 687.285 -5.31016 -0.139916 0
M  V30 7317 C 686.324 -6.06641 0.815683 0
M  V30 7318 N 685.461 -7.02052 0.0818439 0
M  V30 7319 H 690.301 -2.69913 1.26298 0
M  V30 7320 H 687.838 -1.32732 0.634076 0
M  V30 7321 H 689.796 -4.09744 -0.785226 0
M  V30 7322 H 688.426 -3.01611 -1.15025 0
M  V30 7323 H 687.478 -3.6113 1.19537 0
M  V30 7324 H 688.79 -4.79969 1.35763 0
M  V30 7325 H 687.944 -6.03208 -0.649998 0
M  V30 7326 H 686.683 -4.79257 -0.903543 0
M  V30 7327 H 685.688 -5.33294 1.33708 0
M  V30 7328 H 686.913 -6.60489 1.57897 0
M  V30 7329 H 684.859 -6.52634 -0.663671 0
M  V30 7330 H 684.776 -7.52249 0.752163 0
M  V30 7331 H 686.044 -7.78432 -0.407825 0
M  V30 7332 N 690.273 -0.685099 -1.4193 0
M  V30 7333 C 691.689 -0.355632 -1.55587 0
M  V30 7334 C 691.889 1.13823 -1.66273 0
M  V30 7335 O 690.945 1.92387 -1.63534 0
M  V30 7336 C 692.258 -1.09498 -2.80055 0
M  V30 7337 C 693.806 -1.07831 -2.93839 0
M  V30 7338 C 694.281 -1.79919 -4.21181 0
M  V30 7339 N 695.772 -1.76837 -4.28115 0
M  V30 7340 C 696.507 -2.29463 -5.25485 0
M  V30 7341 N 696.003 -2.90516 -6.28945 0
M  V30 7342 N 697.796 -2.19779 -5.17353 0
M  V30 7343 H 689.947 -1.65412 -1.33239 0
M  V30 7344 H 692.21 -0.697453 -0.642078 0
M  V30 7345 H 691.916 -2.14997 -2.78333 0
M  V30 7346 H 691.79 -0.666813 -3.71259 0
M  V30 7347 H 694.177 -0.0316152 -2.95083 0
M  V30 7348 H 694.258 -1.54545 -2.03837 0
M  V30 7349 H 693.902 -2.84562 -4.20698 0
M  V30 7350 H 693.832 -1.30647 -5.10136 0
M  V30 7351 H 696.323 -1.32315 -3.53979 0
M  V30 7352 H 696.636 -3.28266 -6.99615 0
M  V30 7353 H 694.981 -2.94589 -6.29478 0
M  V30 7354 H 698.172 -1.71763 -4.35448 0
M  V30 7355 H 698.345 -2.61097 -5.9307 0
M  V30 7356 N 691.751 1.51645 -0.429126 0
M  V30 7357 C 693.167 1.59394 -0.080994 0
M  V30 7358 C 693.367 1.44064 1.40882 0
M  V30 7359 O 692.423 1.27771 2.17786 0
M  V30 7360 C 693.736 2.94779 -0.593773 0
M  V30 7361 C 695.284 3.08067 -0.553494 0
M  V30 7362 C 695.759 4.45963 -1.04311 0
M  V30 7363 N 697.25 4.5226 -1.00076 0
M  V30 7364 C 697.985 5.57268 -1.35056 0
M  V30 7365 N 697.481 6.69734 -1.77282 0
M  V30 7366 N 699.274 5.47582 -1.26925 0
M  V30 7367 H 691.425 1.59856 -1.39857 0
M  V30 7368 H 693.688 0.753095 -0.575805 0
M  V30 7369 H 693.394 3.11342 -1.63583 0
M  V30 7370 H 693.268 3.77197 -0.0142202 0
M  V30 7371 H 695.655 2.91177 0.479556 0
M  V30 7372 H 695.736 2.27508 -1.16935 0
M  V30 7373 H 695.38 4.63598 -2.07459 0
M  V30 7374 H 695.31 5.25049 -0.403873 0
M  V30 7375 H 697.801 3.71537 -0.690564 0
M  V30 7376 H 698.114 7.4587 -2.02232 0
M  V30 7377 H 696.459 6.70963 -1.81202 0
M  V30 7378 H 699.65 4.58604 -0.93809 0
M  V30 7379 H 699.823 6.29308 -1.54516 0
M  V30 7380 N 693.229 0.160201 1.56784 0
M  V30 7381 C 694.469 -0.490179 1.98435 0
M  V30 7382 C 694.833 -1.61164 1.04355 0
M  V30 7383 O 696.034 -2.3238 1.35103 0
M  V30 7384 C 694.305 -0.971106 3.43954 0
M  V30 7385 S 695.864 -1.62423 4.07632 0
M  V30 7386 H 692.682 -0.158056 0.693209 0
M  V30 7387 H 695.284 0.255036 1.93829 0
M  V30 7388 H 693.988 -0.144323 4.10146 0
M  V30 7389 H 693.519 -1.75063 3.52302 0
M  V30 7390 H 695.534 -2.91199 4.01768 0
M  V30 7391 N 694.707 -1.5719 -0.113559 0
M  V30 7392 C 695.956 -1.84325 -0.818984 0
M  V30 7393 C 696.269 -0.746685 -1.80787 0
M  V30 7394 O 697.475 -0.904596 -2.55987 0
M  V30 7395 C 695.931 -3.26818 -1.50724 0
M  V30 7396 C 695.539 -4.44498 -0.559065 0
M  V30 7397 C 697.283 -3.63196 -2.19748 0
M  V30 7398 C 695.19 -5.7802 -1.25086 0
M  V30 7399 H 694.12 -0.687507 -0.309596 0
M  V30 7400 H 696.771 -1.8336 -0.0717621 0
M  V30 7401 H 695.153 -3.22269 -2.30128 0
M  V30 7402 H 696.327 -4.60356 0.202146 0
M  V30 7403 H 694.642 -4.16393 0.024495 0
M  V30 7404 H 697.239 -4.60226 -2.72206 0
M  V30 7405 H 697.582 -2.90899 -2.97798 0
M  V30 7406 H 698.115 -3.69553 -1.47226 0
M  V30 7407 H 694.854 -6.53501 -0.511539 0
M  V30 7408 H 694.374 -5.66038 -1.98395 0
M  V30 7409 H 696.053 -6.2196 -1.78253 0
M  V30 7410 N 696.185 0.383891 -1.52853 0
M  V30 7411 C 697.433 1.12619 -1.67814 0
M  V30 7412 C 697.754 1.90354 -0.423141 0
M  V30 7413 O 697.024 1.87649 0.562554 0
M  V30 7414 H 695.604 0.418738 -0.618601 0
M  V30 7415 H 698.266 0.43495 -1.89985 0
M  V30 7416 H 697.362 1.82624 -2.5309 0
M  V30 7417 N 697.663 1.43903 0.642637 0
M  V30 7418 C 698.573 1.52349 1.78401 0
M  V30 7419 C 699.589 0.409869 1.69104 0
M  V30 7420 O 700.765 0.665548 1.90085 0
M  V30 7421 C 697.83 1.45408 3.14734 0
M  V30 7422 C 696.891 2.67528 3.35749 0
M  V30 7423 C 696.124 2.60909 4.65577 0
M  V30 7424 O 696.347 1.6627 5.45628 0
M  V30 7425 O 695.281 3.5158 4.88544 0
M  V30 7426 H 699.107 2.48752 1.7423 0
M  V30 7427 H 696.692 1.26021 0.802439 0
M  V30 7428 H 698.574 1.44019 3.96026 0
M  V30 7429 H 697.249 0.521437 3.19473 0
M  V30 7430 H 696.156 2.74487 2.5418 0
M  V30 7431 H 697.489 3.598 3.35864 0
M  V30 7432 N 699.141 -0.881989 1.30609 0
M  V30 7433 C 700.051 -2.02076 1.19174 0
M  V30 7434 C 701.067 -1.73645 0.11102 0
M  V30 7435 O 702.243 -1.98735 0.326528 0
M  V30 7436 C 699.308 -3.3515 0.887438 0
M  V30 7437 C 698.369 -3.76983 2.05383 0
M  V30 7438 C 697.602 -5.03707 1.76395 0
M  V30 7439 O 697.825 -5.66171 0.693302 0
M  V30 7440 O 696.759 -5.42019 2.61723 0
M  V30 7441 H 700.585 -2.14652 2.14845 0
M  V30 7442 H 698.17 -1.00843 1.10232 0
M  V30 7443 H 700.052 -4.14975 0.73306 0
M  V30 7444 H 698.727 -3.23676 -0.0393354 0
M  V30 7445 H 697.634 -2.97849 2.26355 0
M  V30 7446 H 698.967 -3.93066 2.96243 0
M  V30 7447 N 700.619 -1.13374 -1.09472 0
M  V30 7448 C 701.549 -0.833268 -2.18126 0
M  V30 7449 C 702.53 0.207169 -1.68834 0
M  V30 7450 O 703.715 0.0662012 -1.94087 0
M  V30 7451 C 700.845 -0.297979 -3.46019 0
M  V30 7452 C 699.799 -1.27261 -4.08642 0
M  V30 7453 C 699.125 -0.597104 -5.31356 0
M  V30 7454 C 700.425 -2.63095 -4.51197 0
M  V30 7455 H 702.119 -1.74182 -2.43518 0
M  V30 7456 H 699.665 -0.838921 -1.17039 0
M  V30 7457 H 701.618 -0.0754444 -4.21332 0
M  V30 7458 H 700.342 0.645959 -3.20148 0
M  V30 7459 H 699.001 -1.48113 -3.35348 0
M  V30 7460 H 698.649 0.352293 -5.01765 0
M  V30 7461 H 698.349 -1.24734 -5.74208 0
M  V30 7462 H 699.873 -0.38384 -6.09392 0
M  V30 7463 H 701.287 -2.46214 -5.17737 0
M  V30 7464 H 699.684 -3.2429 -5.04932 0
M  V30 7465 H 700.754 -3.20793 -3.6362 0
M  V30 7466 N 702.098 1.27442 -0.927168 0
M  V30 7467 C 703.323 1.99036 -0.583042 0
M  V30 7468 C 703.748 1.68711 0.83176 0
M  V30 7469 O 703.106 0.927081 1.55804 0
M  V30 7470 C 703.154 3.51271 -0.814925 0
M  V30 7471 O 702.258 4.12226 0.119742 0
M  V30 7472 H 701.599 0.624883 -0.224538 0
M  V30 7473 H 704.129 1.62263 -1.24628 0
M  V30 7474 H 704.139 4.01411 -0.730282 0
M  V30 7475 H 702.814 3.72676 -1.84623 0
M  V30 7476 H 701.391 3.72897 -0.0147688 0
M  V30 7477 N 703.576 0.692616 1.41565 0
M  V30 7478 C 704.523 0.0254264 2.30786 0
M  V30 7479 C 705.493 -0.774347 1.46946 0
M  V30 7480 O 706.678 -0.742981 1.7574 0
M  V30 7481 C 703.818 -0.907123 3.32964 0
M  V30 7482 C 702.931 -0.0992784 4.31886 0
M  V30 7483 C 702.066 -1.0292 5.21134 0
M  V30 7484 C 701.105 -0.214088 6.11725 0
M  V30 7485 N 700.242 -1.09766 6.93467 0
M  V30 7486 H 705.082 0.792036 2.87282 0
M  V30 7487 H 702.619 0.4023 1.41492 0
M  V30 7488 H 704.577 -1.46181 3.90752 0
M  V30 7489 H 703.207 -1.64016 2.78026 0
M  V30 7490 H 702.259 0.572287 3.76071 0
M  V30 7491 H 703.571 0.532782 4.95946 0
M  V30 7492 H 702.725 -1.65321 5.83741 0
M  V30 7493 H 701.464 -1.69512 4.57293 0
M  V30 7494 H 700.469 0.42302 5.4817 0
M  V30 7495 H 701.694 0.447995 6.77621 0
M  V30 7496 H 699.64 -1.74965 6.32237 0
M  V30 7497 H 699.557 -0.521099 7.54202 0
M  V30 7498 H 700.825 -1.70858 7.60544 0
M  V30 7499 N 705.054 -1.51416 0.437162 0
M  V30 7500 C 705.987 -2.24309 -0.419602 0
M  V30 7501 C 706.965 -1.26236 -1.02485 0
M  V30 7502 O 708.149 -1.5537 -1.06735 0
M  V30 7503 C 705.276 -2.99335 -1.58482 0
M  V30 7504 C 704.322 -4.12064 -1.10027 0
M  V30 7505 S 705.155 -5.35483 -0.0424476 0
M  V30 7506 C 706.311 -6.14047 -1.21234 0
M  V30 7507 H 706.544 -2.96632 0.199259 0
M  V30 7508 H 704.077 -1.528 0.22168 0
M  V30 7509 H 706.035 -3.43159 -2.25282 0
M  V30 7510 H 704.696 -2.26602 -2.17509 0
M  V30 7511 H 703.889 -4.63836 -1.97161 0
M  V30 7512 H 703.491 -3.70499 -0.510507 0
M  V30 7513 H 705.783 -6.43123 -2.13072 0
M  V30 7514 H 706.726 -7.04279 -0.734582 0
M  V30 7515 H 707.134 -5.45538 -1.45082 0
M  V30 7516 N 706.532 -0.168513 -1.56696 0
M  V30 7517 C 707.464 0.794249 -2.14998 0
M  V30 7518 C 708.477 1.1957 -1.10485 0
M  V30 7519 O 709.666 1.13604 -1.37682 0
M  V30 7520 C 706.766 2.08018 -2.67547 0
M  V30 7521 C 705.939 1.84274 -3.96689 0
M  V30 7522 C 704.998 2.97059 -4.3433 0
M  V30 7523 O 704.024 2.67815 -5.02259 0
M  V30 7524 N 705.226 4.24775 -3.9566 0
M  V30 7525 H 707.991 0.295832 -2.98236 0
M  V30 7526 H 705.552 0.0143611 -1.61894 0
M  V30 7527 H 707.544 2.82559 -2.89729 0
M  V30 7528 H 706.114 2.49059 -1.88914 0
M  V30 7529 H 705.334 0.936528 -3.82914 0
M  V30 7530 H 706.622 1.65773 -4.81037 0
M  V30 7531 H 706.02 4.51395 -3.40968 0
M  V30 7532 H 704.577 4.96027 -4.22848 0
M  V30 7533 N 708.01 1.57248 0.105221 0
M  V30 7534 C 708.94 2.04374 1.12931 0
M  V30 7535 C 709.921 0.93074 1.42377 0
M  V30 7536 O 711.106 1.20136 1.52581 0
M  V30 7537 C 708.236 2.45967 2.45189 0
M  V30 7538 C 707.19 3.60838 2.30174 0
M  V30 7539 C 706.516 3.88374 3.67518 0
M  V30 7540 C 707.816 4.92084 1.75073 0
M  V30 7541 H 709.51 2.9018 0.737287 0
M  V30 7542 H 707.056 1.39601 0.353211 0
M  V30 7543 H 709.009 2.77542 3.17094 0
M  V30 7544 H 707.733 1.57148 2.86308 0
M  V30 7545 H 706.392 3.29493 1.60716 0
M  V30 7546 H 706.04 2.96739 4.06147 0
M  V30 7547 H 705.74 4.65703 3.58321 0
M  V30 7548 H 707.264 4.22415 4.40906 0
M  V30 7549 H 708.678 5.22106 2.36809 0
M  V30 7550 H 707.075 5.73507 1.76662 0
M  V30 7551 H 708.145 4.79684 0.709347 0
M  V30 7552 N 709.488 -0.375779 1.53054 0
M  V30 7553 C 710.735 -1.11948 1.68742 0
M  V30 7554 C 711.063 -1.89596 0.434015 0
M  V30 7555 O 710.318 -1.86787 -0.583867 0
M  V30 7556 C 710.617 -2.11356 2.88207 0
M  V30 7557 C 710.283 -1.50266 4.25124 0
M  V30 7558 C 708.945 -1.33333 4.62359 0
M  V30 7559 C 711.297 -1.05976 5.10312 0
M  V30 7560 C 708.625 -0.706765 5.82427 0
M  V30 7561 C 710.977 -0.447241 6.31017 0
M  V30 7562 C 709.641 -0.265314 6.66973 0
M  V30 7563 H 708.911 -0.409648 0.61747 0
M  V30 7564 H 711.558 -0.402492 1.87222 0
M  V30 7565 H 709.863 -2.89322 2.64197 0
M  V30 7566 H 711.56 -2.68833 2.97539 0
M  V30 7567 H 708.15 -1.64437 3.95801 0
M  V30 7568 H 712.334 -1.17855 4.82104 0
M  V30 7569 H 707.59 -0.554132 6.08884 0
M  V30 7570 H 711.764 -0.0958064 6.96334 0
M  V30 7571 H 709.391 0.222267 7.59875 0
M  V30 7572 N 710.966 -1.44241 -0.634997 0
M  V30 7573 C 711.896 -1.53632 -1.7584 0
M  V30 7574 C 712.877 -0.389603 -1.65578 0
M  V30 7575 O 714.062 -0.609219 -1.84397 0
M  V30 7576 C 711.192 -1.47644 -3.14354 0
M  V30 7577 C 710.146 -2.60752 -3.394 0
M  V30 7578 C 709.472 -2.39817 -4.77904 0
M  V30 7579 C 710.772 -4.02921 -3.32343 0
M  V30 7580 H 712.466 -2.47662 -1.68238 0
M  V30 7581 H 710.012 -1.19197 -0.807969 0
M  V30 7582 H 711.965 -1.52815 -3.92716 0
M  V30 7583 H 710.689 -0.501284 -3.2273 0
M  V30 7584 H 709.348 -2.54965 -2.63417 0
M  V30 7585 H 708.996 -1.40502 -4.82978 0
M  V30 7586 H 708.696 -3.15649 -4.9562 0
M  V30 7587 H 710.22 -2.46799 -5.585 0
M  V30 7588 H 711.634 -4.10098 -4.00615 0
M  V30 7589 H 710.031 -4.78925 -3.61595 0
M  V30 7590 H 711.101 -4.26766 -2.30215 0
M  V30 7591 N 712.444 0.87505 -1.31075 0
M  V30 7592 C 713.691 1.62768 -1.20469 0
M  V30 7593 C 714.019 1.93034 0.23834 0
M  V30 7594 O 713.274 1.55693 1.18567 0
M  V30 7595 C 713.573 2.96948 -1.98888 0
M  V30 7596 C 713.239 2.86195 -3.4843 0
M  V30 7597 C 711.901 2.82969 -3.89207 0
M  V30 7598 C 714.253 2.73599 -4.43614 0
M  V30 7599 C 711.581 2.64999 -5.23443 0
M  V30 7600 C 713.933 2.57166 -5.77969 0
M  V30 7601 C 712.597 2.52321 -6.17973 0
M  V30 7602 H 711.867 0.595611 -0.440827 0
M  V30 7603 H 714.514 1.01665 -1.62285 0
M  V30 7604 H 712.819 3.62058 -1.49737 0
M  V30 7605 H 714.516 3.54164 -1.88067 0
M  V30 7606 H 711.106 2.8952 -3.16032 0
M  V30 7607 H 715.29 2.7515 -4.13045 0
M  V30 7608 H 710.546 2.5967 -5.53517 0
M  V30 7609 H 714.72 2.46396 -6.51354 0
M  V30 7610 H 712.347 2.38156 -7.21932 0
M  V30 7611 N 713.922 1.13953 1.08869 0
M  V30 7612 C 715.171 0.899431 1.80536 0
M  V30 7613 C 715.484 -0.575781 1.86933 0
M  V30 7614 O 716.69 -0.932988 2.54966 0
M  V30 7615 C 715.146 1.55963 3.24351 0
M  V30 7616 C 714.754 3.07077 3.26202 0
M  V30 7617 C 716.498 1.40046 4.00733 0
M  V30 7618 C 714.405 3.65955 4.64576 0
M  V30 7619 H 713.335 0.332849 0.676556 0
M  V30 7620 H 715.986 1.3679 1.22314 0
M  V30 7621 H 714.368 1.01883 3.82669 0
M  V30 7622 H 715.542 3.67785 2.77617 0
M  V30 7623 H 713.857 3.22576 2.63312 0
M  V30 7624 H 716.454 1.81441 5.02974 0
M  V30 7625 H 716.797 0.345993 4.1486 0
M  V30 7626 H 717.33 1.91137 3.48872 0
M  V30 7627 H 714.069 4.71234 4.55652 0
M  V30 7628 H 713.589 3.10027 5.13462 0
M  V30 7629 H 715.268 3.65968 5.33551 0
M  V30 7630 N 715.4 -1.26948 0.933913 0
M  V30 7631 C 716.625 -1.98724 0.593589 0
M  V30 7632 C 717.05 -1.6915 -0.822801 0
M  V30 7633 O 716.408 -0.93533 -1.5531 0
M  V30 7634 C 716.456 -3.50834 0.833542 0
M  V30 7635 O 715.56 -4.12284 -0.0978788 0
M  V30 7636 H 714.901 -0.623683 0.227849 0
M  V30 7637 H 717.431 -1.61599 1.25486 0
M  V30 7638 H 717.441 -4.01018 0.75156 0
M  V30 7639 H 716.116 -3.71691 1.86597 0
M  V30 7640 H 714.693 -3.72884 0.0345443 0
M  V30 7641 N 716.879 -0.700114 -1.41195 0
M  V30 7642 C 718.128 -0.230082 -2.00383 0
M  V30 7643 C 718.441 1.17857 -1.56106 0
M  V30 7644 O 719.647 1.74631 -2.07885 0
M  V30 7645 C 718.103 -0.360447 -3.5809 0
M  V30 7646 C 717.711 -1.77475 -4.11347 0
M  V30 7647 C 719.455 0.0495799 -4.24471 0
M  V30 7648 C 717.362 -1.85653 -5.61504 0
M  V30 7649 H 716.292 -0.0822633 -0.749499 0
M  V30 7650 H 718.943 -0.868969 -1.6162 0
M  V30 7651 H 717.325 0.346768 -3.94479 0
M  V30 7652 H 718.499 -2.51109 -3.86369 0
M  V30 7653 H 716.814 -2.13486 -3.57509 0
M  V30 7654 H 719.411 0.00898219 -5.34699 0
M  V30 7655 H 719.754 1.08904 -4.01803 0
M  V30 7656 H 720.287 -0.607521 -3.93134 0
M  V30 7657 H 717.026 -2.87667 -5.89006 0
M  V30 7658 H 716.546 -1.1641 -5.88395 0
M  V30 7659 H 718.225 -1.62151 -6.26351 0
M  V30 7660 N 718.357 1.51182 -0.445186 0
M  V30 7661 C 719.287 2.30821 0.352686 0
M  V30 7662 C 720.268 1.36576 1.01395 0
M  V30 7663 O 721.453 1.65497 1.01609 0
M  V30 7664 C 718.583 3.15593 1.44976 0
M  V30 7665 C 717.537 4.1818 0.911553 0
M  V30 7666 C 716.863 4.91523 2.10497 0
M  V30 7667 C 718.163 5.22266 -0.059418 0
M  V30 7668 H 719.857 2.97771 -0.311936 0
M  V30 7669 H 717.403 1.43201 -0.151461 0
M  V30 7670 H 719.356 3.70091 2.01521 0
M  V30 7671 H 718.08 2.4648 2.14278 0
M  V30 7672 H 716.739 3.64746 0.368264 0
M  V30 7673 H 716.387 4.18906 2.78437 0
M  V30 7674 H 716.087 5.60898 1.7512 0
M  V30 7675 H 717.611 5.48847 2.6758 0
M  V30 7676 H 719.025 5.71789 0.415985 0
M  V30 7677 H 717.422 5.99213 -0.326152 0
M  V30 7678 H 718.492 4.7461 -0.993631 0
M  V30 7679 N 719.835 0.176821 1.56605 0
M  V30 7680 C 720.798 -0.737429 2.17013 0
M  V30 7681 C 721.798 -1.15414 1.11965 0
M  V30 7682 O 722.988 -1.0702 1.37449 0
M  V30 7683 C 720.12 -2.00445 2.75744 0
M  V30 7684 H 721.313 -0.211455 2.99154 0
M  V30 7685 H 718.866 -0.0727582 1.56131 0
M  V30 7686 H 719.601 -2.57338 1.97352 0
M  V30 7687 H 719.386 -1.71456 3.52626 0
M  V30 7688 H 720.876 -2.65679 3.22187 0
M  V30 7689 N 721.313 -1.57302 -0.09688 0
M  V30 7690 C 722.263 -1.98369 -1.12399 0
M  V30 7691 C 723.247 -0.861872 -1.3587 0
M  V30 7692 O 724.439 -1.1257 -1.36591 0
M  V30 7693 C 721.568 -2.41017 -2.4447 0
M  V30 7694 C 720.654 -3.59881 -2.24381 0
M  V30 7695 N 721.045 -4.74872 -1.74155 0
M  V30 7696 C 719.343 -3.65943 -2.54954 0
M  V30 7697 C 720.044 -5.56823 -1.68294 0
M  V30 7698 N 719.02 -4.99942 -2.13444 0
M  V30 7699 H 722.822 -2.84726 -0.728575 0
M  V30 7700 H 720.336 -1.59523 -0.304332 0
M  V30 7701 H 722.333 -2.68665 -3.18786 0
M  V30 7702 H 720.993 -1.56036 -2.84751 0
M  V30 7703 H 722.004 -4.97657 -1.43379 0
M  V30 7704 H 718.681 -2.9162 -2.98771 0
M  V30 7705 H 720.071 -6.59099 -1.30528 0
M  V30 7706 N 722.791 0.367657 -1.53252 0
M  V30 7707 C 723.723 1.47032 -1.75824 0
M  V30 7708 C 724.736 1.49736 -0.63898 0
M  V30 7709 O 725.925 1.53253 -0.915193 0
M  V30 7710 C 723.025 2.85805 -1.82122 0
M  V30 7711 C 722.198 3.06822 -3.11736 0
M  V30 7712 C 721.257 4.25698 -3.09302 0
M  V30 7713 O 720.283 4.20972 -3.83107 0
M  V30 7714 N 721.485 5.33002 -2.29977 0
M  V30 7715 H 724.25 1.28048 -2.70968 0
M  V30 7716 H 721.811 0.557363 -1.52004 0
M  V30 7717 H 723.803 3.63465 -1.77975 0
M  V30 7718 H 722.373 2.98046 -0.942716 0
M  V30 7719 H 721.593 2.1684 -3.29202 0
M  V30 7720 H 722.881 3.17731 -3.97397 0
M  V30 7721 H 722.279 5.39703 -1.69521 0
M  V30 7722 H 720.836 6.09247 -2.3165 0
M  V30 7723 N 724.269 1.44576 0.627338 0
M  V30 7724 C 725.509 1.49083 1.39834 0
M  V30 7725 C 725.873 0.121643 1.91614 0
M  V30 7726 O 727.074 0.0413885 2.68768 0
M  V30 7727 C 725.345 2.52467 2.52973 0
M  V30 7728 S 726.904 2.7605 3.41089 0
M  V30 7729 H 723.722 0.527252 0.476997 0
M  V30 7730 H 726.324 1.81525 0.725872 0
M  V30 7731 H 725.028 3.50646 2.13249 0
M  V30 7732 H 724.559 2.2161 3.25042 0
M  V30 7733 H 726.574 2.07932 4.50531 0
M  V30 7734 N 725.747 -0.868086 1.31537 0
M  V30 7735 C 727.024 -1.60384 1.11965 0
M  V30 7736 C 727.404 -2.08584 -0.324949 0
M  V30 7737 O 726.752 -1.86561 -1.31937 0
M  V30 7738 C 726.962 -2.76038 2.13551 0
M  V30 7739 C 728.31 -3.45954 2.46173 0
M  V30 7740 O 729.334 -2.86247 2.11993 0
M  V30 7741 O 728.193 -4.53666 3.04711 0
M  V30 7742 H 725.287 -0.705705 0.431172 0
M  V30 7743 H 727.833 -0.913385 1.43022 0
M  V30 7744 H 726.605 -2.37849 3.10714 0
M  V30 7745 H 726.228 -3.52769 1.83411 0
M  V30 7746 N 727.225 -1.14528 -1.08264 0
M  V30 7747 C 728.472 -0.914405 -1.80679 0
M  V30 7748 C 728.8 0.558952 -1.86295 0
M  V30 7749 O 728.055 1.43017 -1.33584 0
M  V30 7750 C 728.354 -1.46226 -3.26117 0
M  V30 7751 C 728.02 -2.95451 -3.40616 0
M  V30 7752 C 726.682 -3.36191 -3.4428 0
M  V30 7753 C 729.034 -3.91399 -3.44175 0
M  V30 7754 C 726.362 -4.71539 -3.49096 0
M  V30 7755 C 728.714 -5.26606 -3.50526 0
M  V30 7756 C 727.378 -5.66856 -3.52464 0
M  V30 7757 H 726.648 -0.334604 -0.661151 0
M  V30 7758 H 729.295 -1.4292 -1.27461 0
M  V30 7759 H 727.6 -0.868442 -3.82054 0
M  V30 7760 H 729.297 -1.25955 -3.80705 0
M  V30 7761 H 725.887 -2.62955 -3.38456 0
M  V30 7762 H 730.071 -3.61004 -3.40573 0
M  V30 7763 H 725.327 -5.02082 -3.4889 0
M  V30 7764 H 729.501 -6.00758 -3.52225 0
M  V30 7765 H 727.128 -6.71718 -3.55948 0
M  V30 7766 N 728.703 1.26451 -0.940633 0
M  V30 7767 C 730.119 1.4608 -0.642859 0
M  V30 7768 C 730.319 1.84765 0.803998 0
M  V30 7769 O 729.375 1.96902 1.58069 0
M  V30 7770 C 730.688 2.54359 -1.60381 0
M  V30 7771 C 732.236 2.6821 -1.61345 0
M  V30 7772 C 732.711 3.79659 -2.56169 0
M  V30 7773 N 734.202 3.87051 -2.54452 0
M  V30 7774 C 734.937 4.72739 -3.24507 0
M  V30 7775 N 734.433 5.6282 -4.03987 0
M  V30 7776 N 736.226 4.66581 -3.13462 0
M  V30 7777 H 728.377 0.996289 -1.87584 0
M  V30 7778 H 730.64 0.498921 -0.80609 0
M  V30 7779 H 730.346 2.32758 -2.6366 0
M  V30 7780 H 730.22 3.52005 -1.35545 0
M  V30 7781 H 732.607 2.89184 -0.587913 0
M  V30 7782 H 732.688 1.7101 -1.90235 0
M  V30 7783 H 732.332 3.59438 -3.58841 0
M  V30 7784 H 732.262 4.76315 -2.2457 0
M  V30 7785 H 734.753 3.22649 -1.96739 0
M  V30 7786 H 735.066 6.25095 -4.54396 0
M  V30 7787 H 733.411 5.62574 -4.08088 0
M  V30 7788 H 736.602 3.9521 -2.50852 0
M  V30 7789 H 736.775 5.33141 -3.68327 0
M  V30 7790 N 730.181 0.707592 1.40822 0
M  V30 7791 C 731.144 0.0587224 2.29125 0
M  V30 7792 C 732.144 -0.695624 1.44975 0
M  V30 7793 O 733.334 -0.528718 1.65983 0
M  V30 7794 C 730.466 -0.926939 3.28056 0
M  V30 7795 H 731.659 0.836349 2.88002 0
M  V30 7796 H 729.212 0.471778 1.4901 0
M  V30 7797 H 729.947 -1.7319 2.74182 0
M  V30 7798 H 729.732 -0.389015 3.90165 0
M  V30 7799 H 731.222 -1.37837 3.94196 0
M  V30 7800 N 731.66 -1.50943 0.453197 0
M  V30 7801 C 732.608 -2.29728 -0.364419 0
M  V30 7802 C 733.602 -1.36246 -1.00664 0
M  V30 7803 O 734.808 -1.53518 -0.939794 0
M  V30 7804 H 731.183 -0.739536 -0.136347 0
M  V30 7805 H 733.154 -2.96672 0.320696 0
M  V30 7806 C 731.903 -3.1629 -1.44415 0
M  V30 7807 H 731.226 -3.88119 -0.959343 0
M  V30 7808 H 732.666 -3.74444 -1.98917 0
M  V30 7809 C 731.125 -2.32702 -2.43622 0
M  V30 7810 O 731.655 -1.99763 -3.48508 0
M  V30 7811 N 729.861 -1.95621 -2.14897 0
M  V30 7812 H 729.408 -2.22607 -1.29629 0
M  V30 7813 H 729.366 -1.39993 -2.81513 0
M  V30 7814 N 733.138 -0.185124 -1.56509 0
M  V30 7815 C 734.549 0.329221 -1.83774 0
M  V30 7816 C 734.9 1.62093 -1.10545 0
M  V30 7817 O 734.025 2.13334 -0.36298 0
M  V30 7818 C 734.62 0.604099 -3.33371 0
M  V30 7819 C 733.179 1.06284 -3.61083 0
M  V30 7820 C 732.326 0.10608 -2.77097 0
M  V30 7821 H 735.277 -0.409116 -1.53336 0
M  V30 7822 H 735.298 1.45458 -3.51599 0
M  V30 7823 H 734.81 -0.336201 -3.86641 0
M  V30 7824 H 732.911 2.01777 -3.13236 0
M  V30 7825 H 733.024 0.962453 -4.69333 0
M  V30 7826 H 731.388 0.606082 -2.47384 0
M  V30 7827 H 732.171 -0.828486 -3.33153 0
M  V30 7828 N 734.616 1.57351 0.0885366 0
M  V30 7829 C 735.564 2.03542 1.12576 0
M  V30 7830 C 736.558 0.937668 1.41082 0
M  V30 7831 O 737.764 1.12283 1.40686 0
M  V30 7832 H 734.139 0.648752 0.380296 0
M  V30 7833 H 736.11 2.89833 0.709906 0
M  V30 7834 C 734.859 2.4811 2.43591 0
M  V30 7835 H 734.182 3.32164 2.22502 0
M  V30 7836 H 735.622 2.842 3.14653 0
M  V30 7837 C 734.081 1.35708 3.08359 0
M  V30 7838 O 734.611 0.689852 3.95732 0
M  V30 7839 N 732.817 1.10641 2.68713 0
M  V30 7840 H 732.364 1.6508 1.97753 0
M  V30 7841 H 732.322 0.356355 3.12374 0
M  V30 7842 N 736.094 -0.359525 1.53444 0
M  V30 7843 C 737.004 -1.46445 1.83278 0
M  V30 7844 C 738.02 -1.5833 0.721629 0
M  V30 7845 O 739.196 -1.7411 1.01231 0
M  V30 7846 C 736.261 -2.81638 2.02191 0
M  V30 7847 C 735.322 -2.7923 3.26082 0
M  V30 7848 C 734.555 -4.07974 3.44082 0
M  V30 7849 O 734.778 -5.04447 2.66251 0
M  V30 7850 O 733.712 -4.13417 4.37458 0
M  V30 7851 H 737.538 -1.24156 2.77162 0
M  V30 7852 H 735.123 -0.550201 1.389 0
M  V30 7853 H 737.005 -3.61732 2.16167 0
M  V30 7854 H 735.68 -3.03892 1.11496 0
M  V30 7855 H 734.587 -1.97813 3.17523 0
M  V30 7856 H 735.92 -2.6193 4.16718 0
M  V30 7857 N 737.572 -1.44907 -0.619662 0
M  V30 7858 C 738.983 -1.42905 -1.20146 0
M  V30 7859 C 739.334 -0.150341 -1.95623 0
M  V30 7860 O 738.459 0.748732 -2.03034 0
M  V30 7861 C 739.054 -2.58889 -2.18545 0
M  V30 7862 C 737.613 -2.60046 -2.72127 0
M  V30 7863 C 736.76 -2.3493 -1.4732 0
M  V30 7864 H 739.711 -1.53321 -0.409666 0
M  V30 7865 H 739.732 -2.32298 -3.0136 0
M  V30 7866 H 739.244 -3.51941 -1.63583 0
M  V30 7867 H 737.345 -1.70968 -3.3106 0
M  V30 7868 H 737.458 -3.58893 -3.17384 0
M  V30 7869 H 735.822 -1.84248 -1.75855 0
M  V30 7870 H 736.605 -3.3011 -0.942442 0
M  V30 7871 N 739.05 0.861098 -1.31996 0
M  V30 7872 C 740.013 1.95068 -1.20338 0
M  V30 7873 C 741.013 1.60289 -0.128114 0
M  V30 7874 O 742.203 1.70048 -0.378044 0
M  V30 7875 C 739.335 3.30153 -0.849205 0
M  V30 7876 H 740.528 2.06833 -2.17164 0
M  V30 7877 H 738.081 1.05049 -1.15734 0
M  V30 7878 H 738.816 3.24087 0.117508 0
M  V30 7879 H 738.601 3.56771 -1.62655 0
M  V30 7880 H 740.091 4.10025 -0.791782 0
M  V30 7881 N 740.528 1.15101 1.07655 0
M  V30 7882 C 741.475 0.844958 2.14777 0
M  V30 7883 C 742.445 -0.200798 1.64882 0
M  V30 7884 O 743.63 -0.0690278 1.90675 0
M  V30 7885 C 740.77 0.337018 3.4345 0
M  V30 7886 C 739.883 1.44398 4.07153 0
M  V30 7887 C 739.018 0.892487 5.23649 0
M  V30 7888 C 738.057 1.9766 5.79307 0
M  V30 7889 N 737.194 1.44171 6.87138 0
M  V30 7890 H 742.034 1.76242 2.40297 0
M  V30 7891 H 739.571 0.879435 1.17917 0
M  V30 7892 H 741.529 0.024256 4.17193 0
M  V30 7893 H 740.159 -0.543531 3.18191 0
M  V30 7894 H 739.211 1.87299 3.31094 0
M  V30 7895 H 740.523 2.26262 4.4453 0
M  V30 7896 H 739.677 0.532083 6.04362 0
M  V30 7897 H 738.416 0.0429854 4.87681 0
M  V30 7898 H 737.421 2.34586 4.97242 0
M  V30 7899 H 738.646 2.82982 6.17331 0
M  V30 7900 H 736.592 0.614518 6.53115 0
M  V30 7901 H 736.509 2.19665 7.23383 0
M  V30 7902 H 737.777 1.10945 7.71564 0
M  V30 7903 N 742.006 -1.2595 0.947325 0
M  V30 7904 C 742.939 -2.24559 0.406009 0
M  V30 7905 C 743.917 -1.54441 -0.508598 0
M  V30 7906 O 745.101 -1.83181 -0.444644 0
M  V30 7907 C 742.228 -3.36136 -0.415987 0
M  V30 7908 C 741.274 -4.24245 0.437969 0
M  V30 7909 S 742.107 -5.01948 1.86572 0
M  V30 7910 C 743.263 -6.16997 1.05194 0
M  V30 7911 H 743.496 -2.70128 1.24171 0
M  V30 7912 H 741.029 -1.34912 0.750874 0
M  V30 7913 H 742.987 -4.00861 -0.88433 0
M  V30 7914 H 741.648 -2.89167 -1.22643 0
M  V30 7915 H 740.841 -5.03634 -0.192127 0
M  V30 7916 H 740.443 -3.64416 0.841235 0
M  V30 7917 H 742.735 -6.76848 0.297126 0
M  V30 7918 H 743.678 -6.84324 1.8195 0
M  V30 7919 H 744.086 -5.61458 0.585294 0
M  V30 7920 N 743.484 -0.715051 -1.40445 0
M  V30 7921 C 744.432 -0.0509974 -2.32544 0
M  V30 7922 C 745.426 0.747602 -1.52011 0
M  V30 7923 O 746.632 0.651031 -1.67814 0
M  V30 7924 H 743.007 0.00231113 -0.751996 0
M  V30 7925 H 744.978 -0.84449 -2.86201 0
M  V30 7926 C 743.727 0.857101 -3.3697 0
M  V30 7927 H 743.05 0.252 -3.99005 0
M  V30 7928 H 744.49 1.28971 -4.03909 0
M  V30 7929 C 742.949 1.98231 -2.72408 0
M  V30 7930 O 743.479 3.07309 -2.58697 0
M  V30 7931 N 741.685 1.76577 -2.308 0
M  V30 7932 H 741.232 0.878641 -2.42152 0
M  V30 7933 H 741.19 2.52043 -1.87941 0
M  V30 7934 N 744.962 1.50701 -0.461195 0
M  V30 7935 C 746.209 2.02267 0.0971971 0
M  V30 7936 C 746.537 1.34387 1.40608 0
M  V30 7937 O 745.792 0.455254 1.90331 0
M  V30 7938 C 746.091 3.55788 0.33908 0
M  V30 7939 C 745.757 4.42092 -0.886885 0
M  V30 7940 C 744.419 4.65398 -1.22304 0
M  V30 7941 C 746.771 4.92571 -1.70361 0
M  V30 7942 C 744.099 5.36429 -2.37616 0
M  V30 7943 C 746.451 5.64868 -2.84793 0
M  V30 7944 C 745.115 5.86431 -3.18834 0
M  V30 7945 H 744.385 0.740146 0.0355669 0
M  V30 7946 H 747.032 1.81415 -0.61326 0
M  V30 7947 H 745.337 3.751 1.13168 0
M  V30 7948 H 747.034 3.93243 0.784937 0
M  V30 7949 H 743.624 4.24165 -0.614981 0
M  V30 7950 H 747.808 4.74428 -1.4571 0
M  V30 7951 H 743.064 5.51333 -2.64276 0
M  V30 7952 H 747.238 6.02966 -3.48432 0
M  V30 7953 H 744.865 6.41248 -4.08296 0
M  V30 7954 N 746.441 0.193421 1.56409 0
M  V30 7955 C 747.666 -0.454552 2.02358 0
M  V30 7956 C 748.091 -1.54516 1.07268 0
M  V30 7957 O 747.449 -1.81214 0.0558962 0
M  V30 7958 C 747.497 -0.989469 3.46759 0
M  V30 7959 O 746.601 -2.10244 3.54783 0
M  V30 7960 H 745.942 -0.106417 0.655417 0
M  V30 7961 H 748.472 0.303807 2.02332 0
M  V30 7962 H 748.482 -1.30649 3.86516 0
M  V30 7963 H 747.157 -0.191083 4.15461 0
M  V30 7964 H 745.734 -1.79419 3.26899 0
M  V30 7965 N 747.919 -1.57396 -0.0801906 0
M  V30 7966 C 749.149 -1.90778 -0.792924 0
M  V30 7967 C 749.557 -0.786814 -1.72064 0
M  V30 7968 O 748.9 0.249259 -1.82001 0
M  V30 7969 C 748.962 -3.19552 -1.64702 0
M  V30 7970 C 748.626 -4.48259 -0.889567 0
M  V30 7971 C 749.623 -5.19465 -0.212602 0
M  V30 7972 C 747.308 -4.94896 -0.859229 0
M  V30 7973 C 749.302 -6.35555 0.484566 0
M  V30 7974 C 746.989 -6.10895 -0.158284 0
M  V30 7975 C 747.987 -6.81075 0.512421 0
M  V30 7976 O 747.675 -7.94862 1.20209 0
M  V30 7977 H 747.407 -0.63527 -0.231103 0
M  V30 7978 H 749.961 -2.0532 -0.0573081 0
M  V30 7979 H 748.191 -3.01196 -2.42524 0
M  V30 7980 H 749.88 -3.38649 -2.23767 0
M  V30 7981 H 750.646 -4.84467 -0.227403 0
M  V30 7982 H 746.525 -4.4015 -1.37073 0
M  V30 7983 H 750.069 -6.9027 1.00864 0
M  V30 7984 H 745.966 -6.45345 -0.141381 0
M  V30 7985 H 746.734 -8.10932 1.11051 0
M  V30 7986 N 749.397 0.351382 -1.53633 0
M  V30 7987 C 750.645 1.09034 -1.70165 0
M  V30 7988 C 750.966 1.89413 -0.463422 0
M  V30 7989 O 750.236 1.888 0.522624 0
M  V30 7990 H 748.816 0.405522 -0.627344 0
M  V30 7991 H 751.478 0.394554 -1.90865 0
M  V30 7992 H 750.574 1.77215 -2.56907 0
M  V30 7993 N 750.875 1.45233 0.611969 0
M  V30 7994 C 751.805 1.5641 1.73373 0
M  V30 7995 C 752.786 0.415896 1.64937 0
M  V30 7996 O 753.971 0.638478 1.83404 0
M  V30 7997 C 751.101 1.52627 3.11965 0
M  V30 7998 C 750.055 2.66119 3.35208 0
M  V30 7999 C 749.381 2.4739 4.74028 0
M  V30 8000 C 750.681 4.08157 3.25891 0
M  V30 8001 H 752.375 2.50307 1.64277 0
M  V30 8002 H 749.921 1.20467 0.788904 0
M  V30 8003 H 751.874 1.59043 3.90235 0
M  V30 8004 H 750.598 0.552564 3.21892 0
M  V30 8005 H 749.257 2.59123 2.59327 0
M  V30 8006 H 748.905 1.48168 4.80682 0
M  V30 8007 H 748.605 3.23494 4.90536 0
M  V30 8008 H 750.129 2.55653 5.54503 0
M  V30 8009 H 751.543 4.1642 3.9404 0
M  V30 8010 H 749.94 4.84617 3.5393 0
M  V30 8011 H 751.01 4.30374 2.23397 0
M  V30 8012 N 752.353 -0.854086 1.3245 0
M  V30 8013 C 753.581 -1.64074 1.26045 0
M  V30 8014 C 753.996 -1.8802 -0.171456 0
M  V30 8015 O 753.353 -1.4496 -1.10873 0
M  V30 8016 C 753.404 -2.9997 2.01743 0
M  V30 8017 O 753.125 -2.77084 3.39346 0
M  V30 8018 C 754.626 -3.94414 2.02368 0
M  V30 8019 H 751.846 -0.511015 0.434862 0
M  V30 8020 H 754.39 -1.06494 1.74583 0
M  V30 8021 H 752.545 -3.54193 1.56926 0
M  V30 8022 H 752.959 -3.63514 3.78098 0
M  V30 8023 H 754.433 -4.87032 2.59815 0
M  V30 8024 H 754.91 -4.27427 1.01009 0
M  V30 8025 H 755.516 -3.46127 2.47135 0
M  V30 8026 N 753.831 -1.1567 -1.07043 0
M  V30 8027 C 755.08 -0.928039 -1.79082 0
M  V30 8028 C 755.393 0.545968 -1.87826 0
M  V30 8029 O 756.599 0.892308 -2.56418 0
M  V30 8030 C 755.055 -1.61103 -3.21829 0
M  V30 8031 C 754.663 -3.12228 -3.21275 0
M  V30 8032 C 756.407 -1.46404 -3.98455 0
M  V30 8033 C 754.314 -3.733 -4.58695 0
M  V30 8034 H 753.244 -0.34357 -0.671175 0
M  V30 8035 H 755.895 -1.38718 -1.20123 0
M  V30 8036 H 754.277 -1.07958 -3.81 0
M  V30 8037 H 755.451 -3.72155 -2.71731 0
M  V30 8038 H 753.766 -3.26725 -2.58147 0
M  V30 8039 H 756.363 -1.8942 -5.00024 0
M  V30 8040 H 756.706 -0.41195 -4.14257 0
M  V30 8041 H 757.239 -1.96663 -3.45787 0
M  V30 8042 H 753.978 -4.78423 -4.48098 0
M  V30 8043 H 753.498 -3.18157 -5.08465 0
M  V30 8044 H 755.177 -3.7441 -5.27661 0
M  V30 8045 N 755.309 1.25446 -0.953992 0
M  V30 8046 C 756.256 2.25912 -0.472485 0
M  V30 8047 C 757.226 1.59173 0.47469 0
M  V30 8048 O 758.411 1.86812 0.388082 0
M  V30 8049 C 755.551 3.44235 0.244218 0
M  V30 8050 C 754.664 4.25613 -0.740121 0
M  V30 8051 C 753.799 5.312 -0.000922267 0
M  V30 8052 C 752.838 6.04265 -0.976236 0
M  V30 8053 N 751.975 7.01589 -0.267952 0
M  V30 8054 H 756.815 2.66469 -1.3341 0
M  V30 8055 H 754.352 1.31005 -0.669045 0
M  V30 8056 H 756.31 4.11682 0.676314 0
M  V30 8057 H 754.94 3.04554 1.06988 0
M  V30 8058 H 753.992 3.57834 -1.2907 0
M  V30 8059 H 755.304 4.762 -1.48441 0
M  V30 8060 H 754.458 6.04719 0.48984 0
M  V30 8061 H 753.197 4.81484 0.776159 0
M  V30 8062 H 752.202 5.29561 -1.478 0
M  V30 8063 H 753.427 6.5607 -1.75354 0
M  V30 8064 H 751.373 6.54164 0.490403 0
M  V30 8065 H 751.29 7.4999 -0.951344 0
M  V30 8066 H 752.558 7.7924 0.201294 0
M  V30 8067 N 756.787 0.722489 1.40064 0
M  V30 8068 C 758.198 0.336507 1.83642 0
M  V30 8069 C 758.549 -1.13002 1.6039 0
M  V30 8070 O 757.674 -1.87036 1.08842 0
M  V30 8071 C 758.269 0.603985 3.33373 0
M  V30 8072 C 756.828 0.271637 3.75419 0
M  V30 8073 C 755.975 0.872898 2.63203 0
M  V30 8074 H 758.926 0.921108 1.29233 0
M  V30 8075 H 758.947 -0.128471 3.80283 0
M  V30 8076 H 758.459 1.67141 3.50265 0
M  V30 8077 H 756.56 -0.790455 3.64119 0
M  V30 8078 H 756.673 0.745457 4.73265 0
M  V30 8079 H 755.037 0.300431 2.52922 0
M  V30 8080 H 755.82 1.94473 2.82905 0
M  V30 8081 N 758.265 -1.50454 0.469181 0
M  V30 8082 C 759.212 -2.28486 -0.325982 0
M  V30 8083 C 760.182 -1.33455 -0.988893 0
M  V30 8084 O 761.367 -1.6239 -1.0017 0
M  V30 8085 C 758.507 -3.15288 -1.40313 0
M  V30 8086 C 757.62 -4.25348 -0.755183 0
M  V30 8087 C 756.755 -4.9941 -1.81006 0
M  V30 8088 C 755.794 -6.01348 -1.14226 0
M  V30 8089 N 754.931 -6.68695 -2.1399 0
M  V30 8090 H 759.771 -2.95987 0.345753 0
M  V30 8091 H 757.308 -1.45965 0.182355 0
M  V30 8092 H 759.266 -3.63964 -2.03927 0
M  V30 8093 H 757.896 -2.49837 -2.04405 0
M  V30 8094 H 756.948 -3.80399 -0.00651901 0
M  V30 8095 H 758.26 -4.98279 -0.227941 0
M  V30 8096 H 757.414 -5.51794 -2.52206 0
M  V30 8097 H 756.153 -4.26181 -2.3711 0
M  V30 8098 H 755.158 -5.48225 -0.415876 0
M  V30 8099 H 756.383 -6.76548 -0.588135 0
M  V30 8100 H 754.329 -5.98258 -2.69115 0
M  V30 8101 H 754.246 -7.37495 -1.66246 0
M  V30 8102 H 755.514 -7.25697 -2.84576 0
M  V30 8103 N 759.743 -0.201713 -1.56304 0
M  V30 8104 C 760.968 0.443815 -2.02596 0
M  V30 8105 C 761.393 1.53945 -1.08086 0
M  V30 8106 O 760.751 1.81182 -0.0655056 0
M  V30 8107 C 760.799 0.971066 -3.47279 0
M  V30 8108 O 759.903 2.0836 -3.55893 0
M  V30 8109 H 759.244 0.10294 -0.655972 0
M  V30 8110 H 761.774 -0.314533 -2.02168 0
M  V30 8111 H 761.784 1.28598 -3.87204 0
M  V30 8112 H 760.459 0.169048 -4.15556 0
M  V30 8113 H 759.036 1.77683 -3.27846 0
M  V30 8114 N 761.222 1.57436 0.0718424 0
M  V30 8115 C 762.469 1.87248 0.771007 0
M  V30 8116 C 762.797 0.793441 1.7758 0
M  V30 8117 O 762.052 -0.210565 1.94564 0
M  V30 8118 C 762.351 3.23723 1.51455 0
M  V30 8119 C 762.017 4.46194 0.649736 0
M  V30 8120 C 760.679 4.79438 0.411409 0
M  V30 8121 C 763.031 5.21176 0.05004 0
M  V30 8122 C 760.359 5.85077 -0.436096 0
M  V30 8123 C 762.711 6.27712 -0.784919 0
M  V30 8124 C 761.375 6.59457 -1.03312 0
M  V30 8125 H 760.645 0.685188 0.282132 0
M  V30 8126 H 763.292 1.91474 0.0317896 0
M  V30 8127 H 761.597 3.15287 2.32597 0
M  V30 8128 H 763.294 3.44023 2.06031 0
M  V30 8129 H 759.884 4.20175 0.84562 0
M  V30 8130 H 764.068 4.95806 0.221282 0
M  V30 8131 H 759.324 6.08071 -0.637136 0
M  V30 8132 H 763.498 6.84974 -1.25635 0
M  V30 8133 H 761.125 7.4114 -1.6916 0
M  V30 8134 N 762.7 -0.34323 1.53817 0
M  V30 8135 C 763.647 -1.42153 1.81827 0
M  V30 8136 C 764.617 -1.52251 0.663996 0
M  V30 8137 O 765.802 -1.67784 0.908461 0
M  V30 8138 C 762.942 -2.78799 2.03384 0
M  V30 8139 C 762.055 -2.7749 3.31094 0
M  V30 8140 C 761.19 -4.05856 3.42717 0
M  V30 8141 C 760.229 -3.98776 4.64375 0
M  V30 8142 N 759.366 -5.18833 4.73029 0
M  V30 8143 H 764.206 -1.17567 2.73829 0
M  V30 8144 H 761.743 -0.569506 1.35628 0
M  V30 8145 H 763.701 -3.58211 2.13872 0
M  V30 8146 H 762.331 -3.01736 1.14696 0
M  V30 8147 H 761.383 -1.90182 3.29446 0
M  V30 8148 H 762.695 -2.68137 4.206 0
M  V30 8149 H 761.849 -4.93691 3.52638 0
M  V30 8150 H 760.588 -4.1799 2.51267 0
M  V30 8151 H 759.593 -3.09325 4.5453 0
M  V30 8152 H 760.818 -3.88224 5.57189 0
M  V30 8153 H 758.764 -5.31511 3.84489 0
M  V30 8154 H 758.681 -5.11737 5.56472 0
M  V30 8155 H 759.949 -6.08439 4.87261 0
M  V30 8156 N 764.178 -1.45556 -0.604258 0
M  V30 8157 C 765.424 -1.49968 -1.36519 0
M  V30 8158 C 765.757 -0.142236 -1.93678 0
M  V30 8159 O 765.032 0.843717 -1.75247 0
M  V30 8160 C 765.315 -2.58146 -2.51063 0
M  V30 8161 C 765.168 -4.03346 -1.99078 0
M  V30 8162 C 766.487 -2.62581 -3.53184 0
M  V30 8163 H 763.606 -0.545993 -0.495036 0
M  V30 8164 H 766.248 -1.77382 -0.680845 0
M  V30 8165 H 764.398 -2.34901 -3.09441 0
M  V30 8166 H 766.07 -4.37811 -1.45323 0
M  V30 8167 H 764.313 -4.13845 -1.30055 0
M  V30 8168 H 764.984 -4.74731 -2.81664 0
M  V30 8169 H 767.46 -2.83419 -3.04652 0
M  V30 8170 H 766.336 -3.40131 -4.30816 0
M  V30 8171 H 766.597 -1.67798 -4.09019 0
M  V30 8172 N 765.656 0.84705 -1.32902 0
M  V30 8173 C 766.604 1.97765 -1.22441 0
M  V30 8174 C 767.598 1.68919 -0.127546 0
M  V30 8175 O 768.804 1.77633 -0.290973 0
M  V30 8176 H 765.179 0.649072 -0.379748 0
M  V30 8177 H 767.15 2.03713 -2.18044 0
M  V30 8178 C 765.899 3.33834 -0.972125 0
M  V30 8179 H 765.222 3.56564 -1.80837 0
M  V30 8180 H 766.662 4.13467 -0.939209 0
M  V30 8181 C 765.121 3.35328 0.325059 0
M  V30 8182 O 765.651 3.78887 1.33445 0
M  V30 8183 N 763.857 2.88488 0.349718 0
M  V30 8184 H 763.404 2.53234 -0.472236 0
M  V30 8185 H 763.362 2.8987 1.21748 0
M  V30 8186 N 767.134 1.16236 1.06428 0
M  V30 8187 C 768.38 0.944431 1.79467 0
M  V30 8188 C 768.713 -0.526558 1.86925 0
M  V30 8189 O 767.988 -1.39061 1.35986 0
M  V30 8190 C 768.271 1.57092 3.24028 0
M  V30 8191 C 768.124 3.11315 3.24658 0
M  V30 8192 C 769.443 1.26447 4.21544 0
M  V30 8193 H 766.562 0.344521 0.651517 0
M  V30 8194 H 769.204 1.43545 1.24478 0
M  V30 8195 H 767.354 1.15337 3.70985 0
M  V30 8196 H 769.026 3.62042 2.85873 0
M  V30 8197 H 767.269 3.44716 2.6335 0
M  V30 8198 H 767.94 3.50269 4.26633 0
M  V30 8199 H 770.416 1.62581 3.83023 0
M  V30 8200 H 769.292 1.72885 5.20963 0
M  V30 8201 H 769.553 0.183068 4.41721 0
M  V30 8202 N 768.612 -1.24939 0.960631 0
M  V30 8203 C 769.84 -1.96881 0.636045 0
M  V30 8204 C 770.255 -1.71334 -0.793093 0
M  V30 8205 O 769.612 -0.992917 -1.53125 0
M  V30 8206 C 769.663 -3.50309 0.892533 0
M  V30 8207 O 769.384 -3.74977 2.26548 0
M  V30 8208 C 770.885 -4.39474 0.581159 0
M  V30 8209 H 768.105 -0.627399 0.237931 0
M  V30 8210 H 770.649 -1.58952 1.28664 0
M  V30 8211 H 768.804 -3.86326 0.288257 0
M  V30 8212 H 769.218 -4.69401 2.34014 0
M  V30 8213 H 770.692 -5.46008 0.811125 0
M  V30 8214 H 771.169 -4.3652 -0.48443 0
M  V30 8215 H 771.775 -4.09032 1.16502 0
M  V30 8216 N 770.09 -0.729906 -1.39679 0
M  V30 8217 C 771.02 -0.101618 -2.33279 0
M  V30 8218 C 772.001 0.729854 -1.53646 0
M  V30 8219 O 773.186 0.67587 -1.82059 0
M  V30 8220 C 770.316 0.81024 -3.37716 0
M  V30 8221 C 769.27 0.0833126 -4.27919 0
M  V30 8222 C 768.596 1.11185 -5.23012 0
M  V30 8223 C 769.896 -1.07107 -5.112 0
M  V30 8224 H 771.59 -0.883452 -2.86069 0
M  V30 8225 H 769.136 -0.426283 -1.37546 0
M  V30 8226 H 771.089 1.25927 -4.02145 0
M  V30 8227 H 769.813 1.62413 -2.83354 0
M  V30 8228 H 768.472 -0.346043 -3.64963 0
M  V30 8229 H 768.12 1.91917 -4.64948 0
M  V30 8230 H 767.82 0.63026 -5.8421 0
M  V30 8231 H 769.344 1.56068 -5.90318 0
M  V30 8232 H 770.758 -0.700726 -5.69002 0
M  V30 8233 H 769.155 -1.48196 -5.81514 0
M  V30 8234 H 770.225 -1.89513 -4.46332 0
M  V30 8235 N 771.568 1.50203 -0.477153 0
M  V30 8236 C 772.984 1.59056 -0.131663 0
M  V30 8237 C 773.184 1.48473 1.36227 0
M  V30 8238 O 772.24 1.34635 2.13611 0
M  V30 8239 C 773.553 2.92741 -0.687254 0
M  V30 8240 C 775.101 3.0615 -0.651223 0
M  V30 8241 C 775.576 4.42419 -1.18446 0
M  V30 8242 N 777.067 4.48847 -1.14413 0
M  V30 8243 C 777.802 5.52689 -1.52717 0
M  V30 8244 N 777.298 6.63754 -1.98499 0
M  V30 8245 N 779.091 5.43267 -1.44282 0
M  V30 8246 H 771.242 1.55325 -1.44872 0
M  V30 8247 H 773.505 0.734395 -0.599473 0
M  V30 8248 H 773.211 3.0598 -1.73405 0
M  V30 8249 H 773.085 3.76961 -0.134215 0
M  V30 8250 H 775.472 2.92556 0.386677 0
M  V30 8251 H 775.553 2.23673 -1.24114 0
M  V30 8252 H 775.197 4.56763 -2.22103 0
M  V30 8253 H 775.127 5.23498 -0.570709 0
M  V30 8254 H 777.618 3.69152 -0.808416 0
M  V30 8255 H 777.931 7.39059 -2.25859 0
M  V30 8256 H 776.276 6.64858 -2.02456 0
M  V30 8257 H 779.467 4.55387 -1.08352 0
M  V30 8258 H 779.64 6.24074 -1.74459 0
M  V30 8259 N 773.046 0.209999 1.56195 0
M  V30 8260 C 773.956 -0.716459 2.23392 0
M  V30 8261 C 774.972 -1.22291 1.23778 0
M  V30 8262 O 776.148 -1.26694 1.56558 0
M  V30 8263 C 773.213 -1.91261 2.89172 0
M  V30 8264 C 772.274 -1.44927 4.04097 0
M  V30 8265 C 771.507 -2.5884 4.66731 0
M  V30 8266 O 771.73 -3.76693 4.2832 0
M  V30 8267 O 770.664 -2.30701 5.55932 0
M  V30 8268 H 774.49 -0.174089 3.03201 0
M  V30 8269 H 772.075 -0.0199505 1.49387 0
M  V30 8270 H 773.957 -2.6114 3.30733 0
M  V30 8271 H 772.632 -2.4433 2.12331 0
M  V30 8272 H 771.539 -0.718839 3.67129 0
M  V30 8273 H 772.872 -0.965084 4.82646 0
M  V30 8274 N 774.524 -1.57472 -0.0634922 0
M  V30 8275 C 775.749 -1.92273 -0.77756 0
M  V30 8276 C 776.174 -0.807141 -1.69902 0
M  V30 8277 O 775.532 0.239523 -1.79711 0
M  V30 8278 C 775.58 -3.26054 -1.54017 0
M  V30 8279 O 774.684 -3.15873 -2.65138 0
M  V30 8280 H 774.025 -0.629389 -0.211579 0
M  V30 8281 H 776.555 -2.04579 -0.0292523 0
M  V30 8282 H 776.565 -3.60127 -1.91763 0
M  V30 8283 H 775.24 -4.06824 -0.864128 0
M  V30 8284 H 773.817 -2.93373 -2.30189 0
M  V30 8285 N 776.003 0.335068 -1.53997 0
M  V30 8286 C 776.936 1.43533 -1.77407 0
M  V30 8287 C 777.914 1.5017 -0.623529 0
M  V30 8288 O 779.098 1.67756 -0.85966 0
M  V30 8289 C 776.225 2.81712 -1.88033 0
M  V30 8290 C 775.271 2.92661 -3.10245 0
M  V30 8291 S 776.104 2.58254 -4.69111 0
M  V30 8292 C 777.26 3.98525 -4.82627 0
M  V30 8293 H 777.493 1.2346 -2.70453 0
M  V30 8294 H 775.026 0.531234 -1.44973 0
M  V30 8295 H 776.984 3.61314 -1.9484 0
M  V30 8296 H 775.645 2.99075 -0.959849 0
M  V30 8297 H 774.838 3.93931 -3.14379 0
M  V30 8298 H 774.44 2.21017 -3.01708 0
M  V30 8299 H 776.732 4.93146 -4.64557 0
M  V30 8300 H 777.675 3.9938 -5.84723 0
M  V30 8301 H 778.083 3.86945 -4.11016 0
M  V30 8302 N 777.481 1.45874 0.596531 0
M  V30 8303 C 778.391 1.57947 1.73464 0
M  V30 8304 C 779.407 0.463461 1.67714 0
M  V30 8305 O 780.583 0.725685 1.87872 0
M  V30 8306 C 777.648 1.55348 3.09948 0
M  V30 8307 C 776.709 2.78074 3.27068 0
M  V30 8308 C 775.942 2.75589 4.57041 0
M  V30 8309 O 776.165 1.83545 5.40063 0
M  V30 8310 O 775.099 3.66945 4.77111 0
M  V30 8311 H 778.925 2.54169 1.66228 0
M  V30 8312 H 776.51 1.2851 0.76194 0
M  V30 8313 H 778.392 1.56545 3.91244 0
M  V30 8314 H 777.067 0.622811 3.17652 0
M  V30 8315 H 775.974 2.82435 2.45319 0
M  V30 8316 H 777.307 3.70303 3.24248 0
M  V30 8317 N 778.959 -0.83999 1.33349 0
M  V30 8318 C 779.889 -1.965 1.26135 0
M  V30 8319 C 780.87 -1.69505 0.142152 0
M  V30 8320 O 782.055 -1.91346 0.331743 0
M  V30 8321 C 779.185 -3.32632 0.99866 0
M  V30 8322 C 778.139 -3.74021 2.08068 0
M  V30 8323 C 777.465 -5.07947 1.67014 0
M  V30 8324 C 778.765 -3.87925 3.49731 0
M  V30 8325 H 780.459 -2.02793 2.20262 0
M  V30 8326 H 778.005 -0.974297 1.06035 0
M  V30 8327 H 779.958 -4.10903 0.934696 0
M  V30 8328 H 778.682 -3.26593 0.0217759 0
M  V30 8329 H 777.341 -2.98012 2.13505 0
M  V30 8330 H 776.989 -4.98378 0.680316 0
M  V30 8331 H 776.689 -5.36611 2.39422 0
M  V30 8332 H 778.213 -5.88695 1.62082 0
M  V30 8333 H 779.627 -4.5651 3.46802 0
M  V30 8334 H 778.024 -4.28023 4.20614 0
M  V30 8335 H 779.094 -2.90407 3.88319 0
M  V30 8336 N 780.437 -1.16799 -1.0581 0
M  V30 8337 C 781.367 -0.902241 -2.15364 0
M  V30 8338 C 782.348 0.153351 -1.69407 0
M  V30 8339 O 783.533 0.00442032 -1.94199 0
M  V30 8340 C 780.663 -0.407911 -3.44896 0
M  V30 8341 C 779.617 -1.40197 -4.04387 0
M  V30 8342 C 778.943 -0.765848 -5.29187 0
M  V30 8343 C 780.243 -2.77316 -4.42598 0
M  V30 8344 H 781.937 -1.81841 -2.37853 0
M  V30 8345 H 779.483 -0.875731 -1.14311 0
M  V30 8346 H 781.436 -0.20945 -4.20879 0
M  V30 8347 H 780.16 0.54378 -3.22041 0
M  V30 8348 H 778.819 -1.58707 -3.30466 0
M  V30 8349 H 778.467 0.192482 -5.02632 0
M  V30 8350 H 778.167 -1.42939 -5.69949 0
M  V30 8351 H 779.691 -0.577519 -6.07863 0
M  V30 8352 H 781.105 -2.62561 -5.09642 0
M  V30 8353 H 779.502 -3.4019 -4.94359 0
M  V30 8354 H 780.572 -3.32199 -3.53231 0
M  V30 8355 N 781.915 1.24427 -0.967243 0
M  V30 8356 C 783.192 1.87831 -0.545776 0
M  V30 8357 C 783.572 1.87126 0.977099 0
M  V30 8358 O 782.92 1.34357 1.84826 0
M  V30 8359 C 783.13 3.29967 -1.13679 0
M  V30 8360 C 784.478 4.06654 -1.22139 0
M  V30 8361 O 785.502 3.39136 -1.08926 0
M  V30 8362 O 784.361 5.27455 -1.43017 0
M  V30 8363 H 781.455 0.806745 -0.181912 0
M  V30 8364 H 784.001 1.32403 -1.06148 0
M  V30 8365 H 782.773 3.24977 -2.17958 0
M  V30 8366 H 782.396 3.92969 -0.605093 0
M  V30 8367 N 783.393 0.737304 1.3929 0
M  V30 8368 C 784.618 0.295237 2.05288 0
M  V30 8369 C 785.043 -1.06235 1.55228 0
M  V30 8370 O 784.401 -1.67365 0.697043 0
M  V30 8371 C 784.449 0.309146 3.59272 0
M  V30 8372 O 783.553 -0.702437 4.06374 0
M  V30 8373 H 782.894 0.133762 0.650387 0
M  V30 8374 H 785.424 1.00387 1.78279 0
M  V30 8375 H 785.434 0.154336 4.07708 0
M  V30 8376 H 784.109 1.29974 3.95069 0
M  V30 8377 H 782.686 -0.513574 3.69346 0
M  V30 8378 N 784.871 -1.49948 0.485112 0
M  V30 8379 C 785.834 -2.27351 -0.290546 0
M  V30 8380 C 786.834 -1.32704 -0.908087 0
M  V30 8381 O 788.024 -1.56007 -0.775085 0
M  V30 8382 C 785.156 -3.10135 -1.41524 0
M  V30 8383 H 786.349 -2.97374 0.388454 0
M  V30 8384 H 783.902 -1.54453 0.239586 0
M  V30 8385 H 784.637 -2.44641 -2.12888 0
M  V30 8386 H 784.422 -3.79705 -0.978074 0
M  V30 8387 H 785.912 -3.68638 -1.96204 0
M  V30 8388 N 786.349 -0.21828 -1.56081 0
M  V30 8389 C 787.595 0.414921 -1.9851 0
M  V30 8390 C 787.928 1.59648 -1.10573 0
M  V30 8391 O 787.203 1.93818 -0.162695 0
M  V30 8392 C 787.486 0.852647 -3.4986 0
M  V30 8393 C 787.339 -0.33232 -4.48571 0
M  V30 8394 C 788.658 1.70998 -4.05521 0
M  V30 8395 H 785.777 0.149344 -0.72171 0
M  V30 8396 H 788.419 -0.313858 -1.8739 0
M  V30 8397 H 786.569 1.47362 -3.59467 0
M  V30 8398 H 788.241 -0.970418 -4.50977 0
M  V30 8399 H 786.484 -0.980302 -4.22578 0
M  V30 8400 H 787.155 0.0168407 -5.51997 0
M  V30 8401 H 789.631 1.18606 -3.98838 0
M  V30 8402 H 788.507 1.98517 -5.11744 0
M  V30 8403 H 788.768 2.67219 -3.52202 0
M  V30 8404 N 787.827 1.57504 0.0551401 0
M  V30 8405 C 788.759 2.0158 1.09078 0
M  V30 8406 C 789.772 0.92434 1.34014 0
M  V30 8407 O 790.961 1.20202 1.31961 0
M  V30 8408 C 788.061 2.35385 2.43818 0
M  V30 8409 C 787.234 3.66588 2.38605 0
M  V30 8410 C 786.293 3.87874 3.55585 0
M  V30 8411 O 785.319 4.59259 3.36258 0
M  V30 8412 N 786.521 3.31503 4.76536 0
M  V30 8413 H 789.286 2.91039 0.71529 0
M  V30 8414 H 786.847 1.60058 0.243532 0
M  V30 8415 H 788.839 2.46784 3.20749 0
M  V30 8416 H 787.409 1.51731 2.73307 0
M  V30 8417 H 786.629 3.65787 1.46947 0
M  V30 8418 H 787.917 4.52706 2.32239 0
M  V30 8419 H 787.315 2.73592 4.9514 0
M  V30 8420 H 785.872 3.48324 5.50921 0
M  V30 8421 N 789.305 -0.326896 1.54172 0
M  V30 8422 C 790.253 -1.42232 1.84046 0
M  V30 8423 C 791.247 -1.53705 0.712115 0
M  V30 8424 O 792.453 -1.56131 0.895724 0
M  V30 8425 H 788.828 -0.474568 0.583343 0
M  V30 8426 H 790.799 -1.14259 2.75658 0
M  V30 8427 C 789.548 -2.78502 2.08163 0
M  V30 8428 H 788.871 -2.70447 2.94446 0
M  V30 8429 H 790.311 -3.54228 2.33021 0
M  V30 8430 C 788.77 -3.25415 0.872152 0
M  V30 8431 O 789.3 -4.01621 0.0797648 0
M  V30 8432 N 787.506 -2.82418 0.684716 0
M  V30 8433 H 787.053 -2.20566 1.33072 0
M  V30 8434 H 787.011 -3.14159 -0.123031 0
M  V30 8435 N 790.784 -1.46188 -0.588786 0
M  V30 8436 C 791.714 -1.59148 -1.70863 0
M  V30 8437 C 792.695 -0.442083 -1.64255 0
M  V30 8438 O 793.88 -0.667575 -1.82365 0
M  V30 8439 C 791.01 -1.5757 -3.09498 0
M  V30 8440 C 789.964 -2.71418 -3.30932 0
M  V30 8441 C 789.29 -2.549 -4.70032 0
M  V30 8442 C 790.59 -4.1329 -3.19356 0
M  V30 8443 H 792.284 -2.52889 -1.60274 0
M  V30 8444 H 789.83 -1.21707 -0.769638 0
M  V30 8445 H 791.783 -1.65231 -3.87655 0
M  V30 8446 H 790.507 -0.603705 -3.20972 0
M  V30 8447 H 789.166 -2.63216 -2.55172 0
M  V30 8448 H 788.814 -1.55797 -4.78264 0
M  V30 8449 H 788.514 -3.31257 -4.85327 0
M  V30 8450 H 790.038 -2.64443 -5.50366 0
M  V30 8451 H 791.452 -4.22636 -3.87365 0
M  V30 8452 H 789.849 -4.90187 -3.46175 0
M  V30 8453 H 790.919 -4.33874 -2.16522 0
M  V30 8454 N 792.262 0.832906 -1.33792 0
M  V30 8455 C 793.194 1.95042 -1.2038 0
M  V30 8456 C 794.207 1.62253 -0.133299 0
M  V30 8457 O 795.396 1.74315 -0.384261 0
M  V30 8458 C 792.496 3.287 -0.825215 0
M  V30 8459 C 791.669 3.89581 -1.98861 0
M  V30 8460 C 790.728 5.01602 -1.59003 0
M  V30 8461 O 789.754 5.20431 -2.30522 0
M  V30 8462 N 790.956 5.78356 -0.498446 0
M  V30 8463 H 793.721 2.07083 -2.16649 0
M  V30 8464 H 791.282 1.00896 -1.26616 0
M  V30 8465 H 793.274 4.01074 -0.540559 0
M  V30 8466 H 791.844 3.12565 0.0469796 0
M  V30 8467 H 791.064 3.09723 -2.43856 0
M  V30 8468 H 792.352 4.26989 -2.76691 0
M  V30 8469 H 791.75 5.65618 0.0963297 0
M  V30 8470 H 790.307 6.51226 -0.273485 0
M  V30 8471 N 793.74 1.17359 1.05189 0
M  V30 8472 C 794.703 0.892604 2.11105 0
M  V30 8473 C 795.703 -0.117236 1.60372 0
M  V30 8474 O 796.893 0.114936 1.7382 0
M  V30 8475 C 794.025 0.337032 3.3923 0
M  V30 8476 H 795.218 1.83169 2.37464 0
M  V30 8477 H 792.771 0.984051 1.21434 0
M  V30 8478 H 793.506 -0.609198 3.18527 0
M  V30 8479 H 793.291 1.06484 3.77364 0
M  V30 8480 H 794.781 0.158763 4.17298 0
M  V30 8481 N 795.218 -1.23913 0.973828 0
M  V30 8482 C 796.165 -2.25132 0.508366 0
M  V30 8483 C 797.135 -1.59908 -0.449307 0
M  V30 8484 O 798.32 -1.87405 -0.358313 0
M  V30 8485 C 795.46 -3.4458 -0.189422 0
M  V30 8486 C 794.573 -4.24381 0.807738 0
M  V30 8487 C 793.708 -5.31131 0.0854315 0
M  V30 8488 C 792.747 -6.02635 1.07225 0
M  V30 8489 N 791.884 -7.01073 0.379535 0
M  V30 8490 H 796.724 -2.64313 1.37632 0
M  V30 8491 H 794.261 -1.29924 0.689802 0
M  V30 8492 H 796.219 -4.12706 -0.610733 0
M  V30 8493 H 794.849 -3.06218 -1.02129 0
M  V30 8494 H 793.901 -3.55735 1.34747 0
M  V30 8495 H 795.213 -4.73778 1.55998 0
M  V30 8496 H 794.367 -6.05422 -0.393572 0
M  V30 8497 H 793.106 -4.82658 -0.699461 0
M  V30 8498 H 792.111 -5.27143 1.56207 0
M  V30 8499 H 793.336 -6.53197 1.85769 0
M  V30 8500 H 791.282 -6.54862 -0.386269 0
M  V30 8501 H 791.199 -7.48382 1.07054 0
M  V30 8502 H 792.467 -7.79462 -0.0772984 0
M  V30 8503 N 796.696 -0.74468 -1.38897 0
M  V30 8504 C 797.606 -0.112892 -2.34328 0
M  V30 8505 C 798.622 0.71087 -1.58816 0
M  V30 8506 O 799.798 0.637092 -1.91058 0
M  V30 8507 C 796.863 0.776417 -3.37894 0
M  V30 8508 C 795.924 -0.0606999 -4.29257 0
M  V30 8509 C 795.157 0.786258 -5.27877 0
M  V30 8510 O 795.38 2.02463 -5.33259 0
M  V30 8511 O 794.314 0.209781 -6.01534 0
M  V30 8512 H 798.14 -0.900801 -2.90033 0
M  V30 8513 H 795.725 -0.505462 -1.4059 0
M  V30 8514 H 797.607 1.28496 -4.01331 0
M  V30 8515 H 796.282 1.54297 -2.84559 0
M  V30 8516 H 795.189 -0.614984 -3.69011 0
M  V30 8517 H 796.522 -0.789702 -4.85824 0
M  V30 8518 N 798.174 1.49689 -0.493057 0
M  V30 8519 C 799.402 2.06836 0.0513141 0
M  V30 8520 C 799.817 1.35436 1.31539 0
M  V30 8521 O 799.174 0.430248 1.77356 0
M  V30 8522 C 799.225 3.60107 0.317003 0
M  V30 8523 O 798.946 4.2882 -0.896957 0
M  V30 8524 C 800.447 4.33945 0.905902 0
M  V30 8525 H 797.667 0.670787 -0.0169048 0
M  V30 8526 H 800.211 1.92574 -0.688139 0
M  V30 8527 H 798.366 3.74099 1.00642 0
M  V30 8528 H 798.78 5.20395 -0.654939 0
M  V30 8529 H 800.254 5.42087 1.04144 0
M  V30 8530 H 800.731 3.95895 1.90168 0
M  V30 8531 H 801.337 4.2454 0.254195 0
M  V30 8532 N 799.652 0.226554 1.55963 0
M  V30 8533 C 800.892 -0.405574 2.00336 0
M  V30 8534 C 801.256 -1.56593 1.11097 0
M  V30 8535 O 802.457 -2.26441 1.44838 0
M  V30 8536 C 800.728 -0.82435 3.47763 0
M  V30 8537 S 802.287 -1.44988 4.14154 0
M  V30 8538 H 799.105 -0.128512 0.699289 0
M  V30 8539 H 801.707 0.337017 1.92573 0
M  V30 8540 H 800.411 0.0297636 4.10389 0
M  V30 8541 H 799.942 -1.59963 3.5941 0
M  V30 8542 H 801.957 -2.73897 4.13757 0
M  V30 8543 N 801.13 -1.57531 -0.0467866 0
M  V30 8544 C 802.062 -2.02156 -1.08007 0
M  V30 8545 C 803.075 -0.931434 -1.33522 0
M  V30 8546 O 804.264 -1.209 -1.31321 0
M  V30 8547 C 801.364 -2.36675 -2.42566 0
M  V30 8548 C 800.537 -3.67848 -2.36658 0
M  V30 8549 C 799.596 -3.89754 -3.53523 0
M  V30 8550 O 798.622 -4.61036 -3.33818 0
M  V30 8551 N 799.824 -3.34025 -4.74771 0
M  V30 8552 H 802.589 -2.91414 -0.699845 0
M  V30 8553 H 800.15 -1.60185 -0.235041 0
M  V30 8554 H 802.142 -2.48482 -3.19435 0
M  V30 8555 H 800.712 -1.53178 -2.72498 0
M  V30 8556 H 799.932 -3.66561 -1.45005 0
M  V30 8557 H 801.22 -4.53931 -2.29835 0
M  V30 8558 H 800.618 -2.76214 -4.93683 0
M  V30 8559 H 799.175 -3.51241 -5.49066 0
M  V30 8560 O 802.647 0.18996 -1.60379 0
M  V30 8561 H 803.338 0.828364 -1.75094 0
M  V30 END ATOM
M  V30 BEGIN BOND
M  V30 END BOND
M  V30 END CTAB
M  END
$$$$
