drugbank_target|Q16512 Serine/threonine-protein kinase N1 (DB12010)
 OpenBabel12092121183D

  0  0  0     0  0            999 V3000
M  V30 BEGIN CTAB
M  V30 COUNTS 14631 14778 0 0 0
M  V30 BEGIN ATOM
M  V30 1 H -0.908 1.98254 -0.117106 0
M  V30 2 N 0 1.576 0 0
M  V30 3 C 0.933 2.03868 1.02534 0
M  V30 4 C 1.911 0.928543 1.3348 0
M  V30 5 O 3.095 1.19667 1.45644 0
M  V30 6 C 0.222 2.43627 2.35294 0
M  V30 7 C -0.732 3.65373 2.2001 0
M  V30 8 S 0.101 5.13292 1.52614 0
M  V30 9 C 1.257 5.56322 2.86805 0
M  V30 10 H 1.49 2.90518 0.631377 0
M  V30 11 H -0.977 1.52953 0.210867 0
M  V30 12 H 0.981 2.67203 3.11629 0
M  V30 13 H -0.358 1.57376 2.7183 0
M  V30 14 H -1.165 3.90944 3.18086 0
M  V30 15 H -1.563 3.418 1.51819 0
M  V30 16 H 0.729 5.58782 3.83104 0
M  V30 17 H 1.672 6.56266 2.65933 0
M  V30 18 H 2.08 4.83886 2.90714 0
M  V30 19 N 1.4781 -0.272755 1.55222 0
M  V30 20 C 2.4411 -1.32041 1.87344 0
M  V30 21 C 3.4411 -1.42342 0.74803 0
M  V30 22 O 4.6311 -1.41488 1.0162 0
M  V30 23 C 1.7631 -2.70173 2.07893 0
M  V30 24 H 2.9561 -1.04789 2.80997 0
M  V30 25 H 0.5091 -0.51083 1.47717 0
M  V30 26 H 1.2441 -3.02605 1.16622 0
M  V30 27 H 1.0291 -2.64082 2.89833 0
M  V30 28 H 2.5191 -3.45869 2.34017 0
M  V30 29 N 2.9562 -1.48159 -0.537278 0
M  V30 30 C 4.1812 -1.59707 -1.32319 0
M  V30 31 C 4.6062 -0.254859 -1.86365 0
M  V30 32 O 3.9642 0.772378 -1.64024 0
M  V30 33 C 4.0122 -2.6412 -2.45505 0
M  V30 34 O 3.1162 -2.20774 -3.48328 0
M  V30 35 H 2.4572 -0.535791 -0.392204 0
M  V30 36 H 4.9872 -1.94092 -0.647268 0
M  V30 37 H 4.9972 -2.85166 -2.91795 0
M  V30 38 H 3.6722 -3.61567 -2.05528 0
M  V30 39 H 2.2492 -2.09911 -3.08207 0
M  V30 40 N 4.4343 0.785586 -1.36625 0
M  V30 41 C 5.7113 1.53198 -1.21613 0
M  V30 42 C 6.0913 2.10187 0.196113 0
M  V30 43 O 5.4393 1.94318 1.20219 0
M  V30 44 C 5.6493 2.62388 -2.30116 0
M  V30 45 C 6.9973 3.30167 -2.66974 0
M  V30 46 O 8.0213 2.72674 -2.29188 0
M  V30 47 O 6.8803 4.34077 -3.32023 0
M  V30 48 H 3.9743 0.677865 -0.473738 0
M  V30 49 H 6.5203 0.823739 -1.48367 0
M  V30 50 H 5.2923 2.18299 -3.24748 0
M  V30 51 H 4.9153 3.40827 -2.0475 0
M  V30 52 N 5.9124 1.20967 1.01018 0
M  V30 53 C 6.8754 0.965918 2.07853 0
M  V30 54 C 7.8754 -0.0610545 1.60684 0
M  V30 55 O 9.0654 0.175681 1.73312 0
M  V30 56 C 6.1974 0.455513 3.37843 0
M  V30 57 H 7.3904 1.91365 2.3091 0
M  V30 58 H 4.9434 1.02594 1.17916 0
M  V30 59 H 5.6784 -0.497381 3.20463 0
M  V30 60 H 5.4634 1.19622 3.73407 0
M  V30 61 H 6.9534 0.304667 4.16487 0
M  V30 62 N 7.3905 -1.2043 1.01659 0
M  V30 63 C 8.6365 -1.90079 0.706963 0
M  V30 64 C 8.9695 -1.78648 -0.761474 0
M  V30 65 O 8.2445 -1.17069 -1.55323 0
M  V30 66 C 8.5275 -3.41469 1.14327 0
M  V30 67 C 8.3805 -3.61833 2.67201 0
M  V30 68 C 9.6995 -4.34261 0.714529 0
M  V30 69 H 6.8185 -0.690254 0.2583 0
M  V30 70 H 9.4605 -1.41826 1.26433 0
M  V30 71 H 7.6105 -3.82696 0.669056 0
M  V30 72 H 9.2825 -3.2986 3.22475 0
M  V30 73 H 7.5255 -3.05304 3.08175 0
M  V30 74 H 8.1965 -4.67955 2.92783 0
M  V30 75 H 10.6725 -4.00682 1.12221 0
M  V30 76 H 9.5485 -5.38806 1.04784 0
M  V30 77 H 9.8095 -4.40431 -0.383799 0
M  V30 78 N 8.8686 -0.792821 -1.36206 0
M  V30 79 C 9.8006 -0.151469 -2.28699 0
M  V30 80 C 10.8136 0.641262 -1.49638 0
M  V30 81 O 12.0026 0.475885 -1.72039 0
M  V30 82 C 9.1026 0.808424 -3.29117 0
M  V30 83 C 8.2756 0.0650202 -4.37352 0
M  V30 84 C 7.3346 0.941358 -5.17711 0
M  V30 85 O 6.3606 0.397352 -5.67811 0
M  V30 86 N 7.5626 2.2652 -5.3448 0
M  V30 87 H 10.3276 -0.945982 -2.84379 0
M  V30 88 H 7.8886 -0.647032 -1.48409 0
M  V30 89 H 9.8806 1.3986 -3.79765 0
M  V30 90 H 8.4506 1.5038 -2.74052 0
M  V30 91 H 7.6706 -0.706255 -3.87822 0
M  V30 92 H 8.9586 -0.447847 -5.06825 0
M  V30 93 H 8.3566 2.73128 -4.95396 0
M  V30 94 H 6.9136 2.80493 -5.88359 0
M  V30 95 N 10.3467 1.47872 -0.545128 0
M  V30 96 C 11.5717 2.07391 -0.0190611 0
M  V30 97 C 11.9967 1.39688 1.25971 0
M  V30 98 O 11.3547 0.467816 1.7516 0
M  V30 99 C 11.4027 3.60188 0.172335 0
M  V30 100 O 10.5067 3.9339 1.23766 0
M  V30 101 H 9.8477 0.662411 -0.0459059 0
M  V30 102 H 12.3777 1.90066 -0.757365 0
M  V30 103 H 12.3877 4.06129 0.390305 0
M  V30 104 H 11.0627 4.08865 -0.761725 0
M  V30 105 H 9.6397 3.5921 1.00114 0
M  V30 106 N 11.8248 0.280983 1.55075 0
M  V30 107 C 12.7348 -0.61388 2.26426 0
M  V30 108 C 13.7508 -1.16521 1.29224 0
M  V30 109 O 14.9268 -1.19426 1.62171 0
M  V30 110 C 11.9918 -1.7788 2.9759 0
M  V30 111 C 11.0528 -1.26355 4.10284 0
M  V30 112 C 10.2858 -2.37295 4.78045 0
M  V30 113 O 10.5088 -3.56777 4.45047 0
M  V30 114 O 9.4428 -2.05119 5.65871 0
M  V30 115 H 13.2688 -0.0356932 3.03679 0
M  V30 116 H 10.8538 0.0481686 1.49322 0
M  V30 117 H 12.7358 -2.45791 3.42293 0
M  V30 118 H 11.4108 -2.34397 2.23249 0
M  V30 119 H 10.3178 -0.550735 3.70024 0
M  V30 120 H 11.6508 -0.744065 4.86543 0
M  V30 121 N 13.3029 -1.57598 0.00835791 0
M  V30 122 C 14.7139 -1.7892 -0.53333 0
M  V30 123 C 15.0649 -0.916609 -1.73473 0
M  V30 124 O 14.1899 -0.121336 -2.1606 0
M  V30 125 C 14.7849 -3.24488 -0.974313 0
M  V30 126 C 13.3439 -3.46878 -1.46125 0
M  V30 127 C 12.4909 -2.74157 -0.416302 0
M  V30 128 H 15.4419 -1.56958 0.234495 0
M  V30 129 H 15.4629 -3.3306 -1.83988 0
M  V30 130 H 14.9749 -3.87972 -0.099718 0
M  V30 131 H 13.0759 -2.8862 -2.35646 0
M  V30 132 H 13.1889 -4.55572 -1.48295 0
M  V30 133 H 11.5529 -2.39022 -0.87981 0
M  V30 134 H 12.3359 -3.40345 0.44947 0
M  V30 135 N 14.781 0.264519 -1.55364 0
M  V30 136 C 16.197 0.61215 -1.47394 0
M  V30 137 C 16.397 1.89134 -0.695018 0
M  V30 138 O 15.453 2.51563 -0.217275 0
M  V30 139 C 16.766 0.731235 -2.91674 0
M  V30 140 C 18.314 0.82473 -3.01939 0
M  V30 141 C 18.789 0.975522 -4.4749 0
M  V30 142 N 20.28 1.04083 -4.51354 0
M  V30 143 C 21.015 1.17646 -5.61201 0
M  V30 144 N 20.511 1.27874 -6.80896 0
M  V30 145 N 22.304 1.20823 -5.48961 0
M  V30 146 H 14.455 -0.575456 -2.04456 0
M  V30 147 H 16.718 -0.196099 -0.927496 0
M  V30 148 H 16.424 -0.138392 -3.51428 0
M  V30 149 H 16.298 1.60883 -3.41169 0
M  V30 150 H 18.685 1.68482 -2.42276 0
M  V30 151 H 18.766 -0.0776479 -2.55682 0
M  V30 152 H 18.41 0.120058 -5.07758 0
M  V30 153 H 18.34 1.89268 -4.91412 0
M  V30 154 H 20.831 0.973846 -3.65136 0
M  V30 155 H 21.144 1.38081 -7.60364 0
M  V30 156 H 19.489 1.24863 -6.83692 0
M  V30 157 H 22.68 1.12469 -4.54388 0
M  V30 158 H 22.853 1.31049 -6.3461 0
M  V30 159 N 16.2591 1.48442 0.529413 0
M  V30 160 C 17.4841 1.60406 1.31471 0
M  V30 161 C 17.9091 0.264738 1.86228 0
M  V30 162 O 17.2671 -0.763668 1.64432 0
M  V30 163 C 17.3151 2.65419 2.44101 0
M  V30 164 O 16.4191 2.22618 3.47153 0
M  V30 165 H 15.7601 0.537863 0.389357 0
M  V30 166 H 18.2901 1.94432 0.636965 0
M  V30 167 H 18.3001 2.86709 2.90279 0
M  V30 168 H 16.9751 3.62652 2.03608 0
M  V30 169 H 15.5521 2.11543 3.0709 0
M  V30 170 N 17.7372 -0.778329 1.37039 0
M  V30 171 C 18.9832 -1.53817 1.33086 0
M  V30 172 C 19.3382 -1.92208 -0.0860346 0
M  V30 173 O 18.6312 -1.60713 -1.04316 0
M  V30 174 C 18.8252 -2.81845 2.19768 0
M  V30 175 C 18.6542 -2.55967 3.69744 0
M  V30 176 C 17.4242 -2.50428 4.38878 0
M  V30 177 C 19.6222 -2.2441 4.62758 0
M  V30 178 N 17.6042 -2.16564 5.74433 0
M  V30 179 C 18.9752 -2.0063 5.86641 0
M  V30 180 C 21.0302 -2.1051 4.5121 0
M  V30 181 C 19.7332 -1.64354 7.00272 0
M  V30 182 C 21.7592 -1.75634 5.64718 0
M  V30 183 C 21.1212 -1.52709 6.87648 0
M  V30 184 H 17.2202 -0.563434 0.542279 0
M  V30 185 H 19.8042 -0.908617 1.72198 0
M  V30 186 H 17.9752 -3.42649 1.82883 0
M  V30 187 H 19.7072 -3.47682 2.07122 0
M  V30 188 H 16.4622 -2.66056 3.91805 0
M  V30 189 H 16.8862 -2.02348 6.46053 0
M  V30 190 H 21.5282 -2.26919 3.56746 0
M  V30 191 H 19.2462 -1.46683 7.94676 0
M  V30 192 H 22.8322 -1.65546 5.57751 0
M  V30 193 H 21.7122 -1.2612 7.73992 0
M  V30 194 N 19.2153 -1.21501 -1.00376 0
M  V30 195 C 20.4403 -1.05977 -1.78279 0
M  V30 196 C 20.8653 0.385994 -1.84097 0
M  V30 197 O 20.2233 1.27849 -1.28547 0
M  V30 198 C 20.2713 -1.66302 -3.19963 0
M  V30 199 O 19.3753 -0.909333 -4.0225 0
M  V30 200 H 18.7163 -0.372906 -0.549397 0
M  V30 201 H 21.2463 -1.6107 -1.26165 0
M  V30 202 H 21.2563 -1.70574 -3.70632 0
M  V30 203 H 19.9313 -2.71515 -3.15043 0
M  V30 204 H 18.5083 -0.941795 -3.60811 0
M  V30 205 N 20.6934 1.19889 -1.02296 0
M  V30 206 C 21.6234 2.25141 -0.619174 0
M  V30 207 C 22.6044 1.66051 0.368915 0
M  V30 208 O 23.7894 1.92546 0.252941 0
M  V30 209 C 20.9194 3.4728 0.0368783 0
M  V30 210 C 19.8734 4.19005 -0.872865 0
M  V30 211 C 19.1994 5.34637 -0.0822402 0
M  V30 212 C 20.4994 4.74452 -2.18387 0
M  V30 213 H 22.1934 2.59171 -1.49903 0
M  V30 214 H 19.7394 1.24579 -0.722222 0
M  V30 215 H 21.6924 4.20098 0.330958 0
M  V30 216 H 20.4164 3.12433 0.95149 0
M  V30 217 H 19.0754 3.48061 -1.15105 0
M  V30 218 H 18.7234 4.96034 0.83422 0
M  V30 219 H 18.4234 5.83557 -0.688149 0
M  V30 220 H 19.9474 6.10255 0.205238 0
M  V30 221 H 21.3614 5.39055 -1.95172 0
M  V30 222 H 19.7584 5.33834 -2.74119 0
M  V30 223 H 20.8284 3.92844 -2.84257 0
M  V30 224 N 22.1715 0.800033 1.35784 0
M  V30 225 C 23.1015 0.220184 2.3246 0
M  V30 226 C 24.0825 -0.65073 1.57161 0
M  V30 227 O 25.2675 -0.582359 1.85263 0
M  V30 228 C 22.3975 -0.637353 3.41402 0
M  V30 229 C 21.3515 0.134531 4.27789 0
M  V30 230 C 20.6775 -0.844285 5.27992 0
M  V30 231 C 21.9775 1.32979 5.05088 0
M  V30 232 H 23.6715 1.02787 2.81203 0
M  V30 233 H 21.2175 0.495717 1.35199 0
M  V30 234 H 23.1705 -1.05302 4.08031 0
M  V30 235 H 21.8945 -1.47785 2.91251 0
M  V30 236 H 20.5535 0.531296 3.6273 0
M  V30 237 H 20.2015 -1.68011 4.74111 0
M  V30 238 H 19.9015 -0.332184 5.8666 0
M  V30 239 H 21.4255 -1.2583 5.97494 0
M  V30 240 H 22.8395 0.98934 5.64699 0
M  V30 241 H 21.2365 1.77593 5.7322 0
M  V30 242 H 22.3065 2.11978 4.36111 0
M  V30 243 N 23.6496 -1.47581 0.552962 0
M  V30 244 C 24.5596 -2.33743 -0.200353 0
M  V30 245 C 25.5756 -1.47928 -0.916151 0
M  V30 246 O 26.7516 -1.80865 -0.885993 0
M  V30 247 C 23.8166 -3.24536 -1.21973 0
M  V30 248 C 22.8776 -4.26238 -0.511819 0
M  V30 249 C 22.1106 -5.12693 -1.48263 0
M  V30 250 O 22.3336 -5.01525 -2.71714 0
M  V30 251 O 21.2676 -5.93375 -1.00945 0
M  V30 252 H 25.0936 -2.9945 0.506304 0
M  V30 253 H 22.6786 -1.46071 0.313622 0
M  V30 254 H 24.5606 -3.80631 -1.80827 0
M  V30 255 H 23.2356 -2.61462 -1.90839 0
M  V30 256 H 22.1426 -3.73914 0.117799 0
M  V30 257 H 23.4756 -4.92014 0.135308 0
M  V30 258 N 25.1277 -0.289203 -1.54924 0
M  V30 259 C 26.0597 0.625583 -2.20497 0
M  V30 260 C 27.0727 1.10667 -1.19402 0
M  V30 261 O 28.2617 1.02615 -1.46056 0
M  V30 262 C 25.3617 1.86702 -2.82835 0
M  V30 263 C 24.5347 1.5304 -4.09753 0
M  V30 264 C 23.5937 2.62576 -4.56005 0
M  V30 265 O 22.6197 2.28167 -5.21468 0
M  V30 266 N 23.8217 3.92901 -4.27328 0
M  V30 267 H 26.5867 0.0642801 -2.99631 0
M  V30 268 H 24.1477 -0.110896 -1.6152 0
M  V30 269 H 26.1397 2.59304 -3.10715 0
M  V30 270 H 24.7097 2.33702 -2.07611 0
M  V30 271 H 23.9297 0.637564 -3.8901 0
M  V30 272 H 25.2177 1.28072 -4.92418 0
M  V30 273 H 24.6157 4.23671 -3.74859 0
M  V30 274 H 23.1727 4.61837 -4.59946 0
M  V30 275 N 26.6058 1.57591 -0.0167156 0
M  V30 276 C 27.5358 2.12496 0.967858 0
M  V30 277 C 28.5168 1.03807 1.34752 0
M  V30 278 O 29.7018 1.31577 1.42833 0
M  V30 279 C 26.8318 2.64194 2.25431 0
M  V30 280 C 25.7858 3.77559 2.01576 0
M  V30 281 C 25.1118 4.15636 3.36379 0
M  V30 282 C 26.4118 5.04151 1.36489 0
M  V30 283 H 28.1058 2.95013 0.510643 0
M  V30 284 H 25.6518 1.41915 0.244181 0
M  V30 285 H 27.6048 3.01236 2.94678 0
M  V30 286 H 26.3288 1.78821 2.73296 0
M  V30 287 H 24.9878 3.40937 1.34751 0
M  V30 288 H 24.6358 3.27263 3.81979 0
M  V30 289 H 24.3358 4.92022 3.21229 0
M  V30 290 H 25.8598 4.5525 4.06915 0
M  V30 291 H 27.2738 5.38857 1.95718 0
M  V30 292 H 25.6708 5.85453 1.31776 0
M  V30 293 H 26.7408 4.83733 0.336219 0
M  V30 294 N 28.0839 -0.256276 1.55502 0
M  V30 295 C 29.3319 -0.983672 1.76545 0
M  V30 296 C 29.6529 -1.86206 0.578982 0
M  V30 297 O 28.9229 -1.91656 -0.405577 0
M  V30 298 H 27.5029 -0.366191 0.651086 0
M  V30 299 H 30.1649 -0.276479 1.92929 0
M  V30 300 H 29.2609 -1.61087 2.67315 0
M  V30 301 N 29.562 -1.4872 -0.521534 0
M  V30 302 C 30.492 -1.66771 -1.63431 0
M  V30 303 C 31.473 -0.516499 -1.62069 0
M  V30 304 O 32.658 -0.750013 -1.79132 0
M  V30 305 C 29.788 -1.71515 -3.01993 0
M  V30 306 C 28.742 -2.86222 -3.18216 0
M  V30 307 C 28.068 -2.76061 -4.57924 0
M  V30 308 C 29.368 -4.27419 -3.00184 0
M  V30 309 H 31.062 -2.59932 -1.48579 0
M  V30 310 H 28.608 -1.25089 -0.713358 0
M  V30 311 H 30.561 -1.82731 -3.7972 0
M  V30 312 H 29.285 -0.749393 -3.17886 0
M  V30 313 H 27.944 -2.74575 -2.42908 0
M  V30 314 H 27.592 -1.77437 -4.70665 0
M  V30 315 H 27.292 -3.53037 -4.69722 0
M  V30 316 H 28.816 -2.89256 -5.37739 0
M  V30 317 H 30.23 -4.39855 -3.67697 0
M  V30 318 H 28.627 -5.05458 -3.2347 0
M  V30 319 H 29.697 -4.43293 -1.96518 0
M  V30 320 N 31.0401 0.771051 -1.3745 0
M  V30 321 C 32.0031 1.86598 -1.33093 0
M  V30 322 C 33.0031 1.59076 -0.234845 0
M  V30 323 O 34.1931 1.67145 -0.490732 0
M  V30 324 C 31.3251 3.23747 -1.06773 0
M  V30 325 H 32.5181 1.91873 -2.30488 0
M  V30 326 H 30.0711 0.970876 -1.2249 0
M  V30 327 H 30.8061 3.24148 -0.099129 0
M  V30 328 H 30.5911 3.45115 -1.86112 0
M  V30 329 H 32.0811 4.03824 -1.06377 0
M  V30 330 N 32.5182 1.22032 0.997298 0
M  V30 331 C 33.7662 1.04016 1.73278 0
M  V30 332 C 34.0872 -0.426255 1.90284 0
M  V30 333 O 33.3572 -1.30694 1.45931 0
M  V30 334 H 31.9372 0.381897 0.642 0
M  V30 335 H 34.5992 1.5347 1.20137 0
M  V30 336 H 33.6952 1.51441 2.72896 0
M  V30 337 N 33.9963 -1.19345 1.0293 0
M  V30 338 C 34.9593 -2.20793 0.615069 0
M  V30 339 C 35.9593 -1.57553 -0.321533 0
M  V30 340 O 37.1493 -1.73862 -0.108483 0
M  V30 341 C 34.2813 -3.40754 -0.0999222 0
M  V30 342 H 35.4743 -2.58955 1.51269 0
M  V30 343 H 33.0273 -1.3303 0.820534 0
M  V30 344 H 33.7623 -3.0811 -1.01187 0
M  V30 345 H 33.5473 -3.87889 0.57309 0
M  V30 346 H 35.0373 -4.15898 -0.376645 0
M  V30 347 N 35.4744 -0.807222 -1.35358 0
M  V30 348 C 36.7514 -0.311126 -1.9311 0
M  V30 349 C 37.1314 1.19937 -1.73719 0
M  V30 350 O 36.4794 1.99918 -1.10657 0
M  V30 351 C 36.6894 -0.723226 -3.41424 0
M  V30 352 C 38.0374 -0.713078 -4.18569 0
M  V30 353 O 39.0614 -0.664811 -3.49941 0
M  V30 354 O 37.9204 -0.772022 -5.41019 0
M  V30 355 H 35.0144 -0.081526 -0.822972 0
M  V30 356 H 37.5604 -0.890962 -1.4443 0
M  V30 357 H 36.3324 -1.76426 -3.4927 0
M  V30 358 H 35.9554 -0.118232 -3.97424 0
M  V30 359 N 36.9525 1.47285 -0.560781 0
M  V30 360 C 37.8825 2.32857 0.173105 0
M  V30 361 C 38.8635 1.44009 0.905281 0
M  V30 362 O 40.0485 1.7286 0.885046 0
M  V30 363 C 37.1785 3.25861 1.20133 0
M  V30 364 C 36.1325 4.23978 0.585388 0
M  V30 365 C 35.4585 5.06332 1.7185 0
M  V30 366 C 36.7585 5.20242 -0.463178 0
M  V30 367 H 38.4525 2.94466 -0.541307 0
M  V30 368 H 35.9985 1.41601 -0.261764 0
M  V30 369 H 37.9515 3.84569 1.72293 0
M  V30 370 H 36.6755 2.62315 1.94573 0
M  V30 371 H 35.3345 3.66501 0.085054 0
M  V30 372 H 34.9825 4.39186 2.45203 0
M  V30 373 H 34.6825 5.72762 1.31213 0
M  V30 374 H 36.2065 5.67899 2.24329 0
M  V30 375 H 37.6205 5.73293 -0.027502 0
M  V30 376 H 36.0175 5.94896 -0.788627 0
M  V30 377 H 37.0875 4.65504 -1.35773 0
M  V30 378 N 38.4306 0.297415 1.54768 0
M  V30 379 C 39.3936 -0.567375 2.22066 0
M  V30 380 C 40.3936 -1.06409 1.20556 0
M  V30 381 O 41.5836 -0.960691 1.45315 0
M  V30 382 C 38.7156 -1.78517 2.90421 0
M  V30 383 H 39.9086 0.0205534 2.99893 0
M  V30 384 H 37.4616 0.0482163 1.56226 0
M  V30 385 H 38.1966 -2.41303 2.16664 0
M  V30 386 H 37.9816 -1.43669 3.64831 0
M  V30 387 H 39.4716 -2.39964 3.41771 0
M  V30 388 N 39.9087 -1.5758 0.0250728 0
M  V30 389 C 40.8717 -2.08896 -0.943139 0
M  V30 390 C 41.8717 -1.00321 -1.25668 0
M  V30 391 O 43.0617 -1.26495 -1.19769 0
M  V30 392 C 40.1937 -2.55143 -2.26086 0
M  V30 393 H 41.3867 -2.95723 -0.498775 0
M  V30 394 H 38.9397 -1.54703 -0.222888 0
M  V30 395 H 39.6747 -1.71633 -2.75159 0
M  V30 396 H 39.4597 -3.34461 -2.04641 0
M  V30 397 H 40.9497 -2.95083 -2.95492 0
M  V30 398 N 41.3868 0.248026 -1.55636 0
M  V30 399 C 42.7978 0.817177 -1.67866 0
M  V30 400 C 43.1488 1.86069 -0.622322 0
M  V30 401 O 42.2738 2.15157 0.231618 0
M  V30 402 C 42.8688 1.489 -3.04326 0
M  V30 403 C 41.4278 2.00587 -3.185 0
M  V30 404 C 40.5748 0.856573 -2.63739 0
M  V30 405 H 43.5258 0.0238579 -1.58682 0
M  V30 406 H 43.5468 2.35698 -2.98708 0
M  V30 407 H 43.0588 0.729279 -3.81186 0
M  V30 408 H 41.1598 2.79443 -2.4646 0
M  V30 409 H 41.2728 2.20402 -4.25393 0
M  V30 410 H 39.6368 1.25678 -2.21534 0
M  V30 411 H 40.4198 0.109953 -3.43124 0
M  V30 412 N 42.8649 1.48995 0.513639 0
M  V30 413 C 44.1129 1.57531 1.26604 0
M  V30 414 C 44.4339 0.258236 1.93283 0
M  V30 415 O 43.7039 -0.721502 1.8213 0
M  V30 416 H 42.2839 0.580387 0.470276 0
M  V30 417 H 44.9459 1.85552 0.596373 0
M  V30 418 H 44.0419 2.36486 2.03669 0
M  V30 419 N 44.343 -0.763751 1.37857 0
M  V30 420 C 45.589 -1.52483 1.33704 0
M  V30 421 C 45.922 -1.94051 -0.0759612 0
M  V30 422 O 45.197 -1.64675 -1.03501 0
M  V30 423 C 45.48 -2.78441 2.28348 0
M  V30 424 C 45.333 -2.43075 3.78463 0
M  V30 425 C 46.652 -3.80415 2.21298 0
M  V30 426 H 43.771 -0.553169 0.487005 0
M  V30 427 H 46.413 -0.875562 1.68624 0
M  V30 428 H 44.563 -3.33842 1.987 0
M  V30 429 H 46.235 -1.93527 4.18742 0
M  V30 430 H 44.478 -1.75666 3.96641 0
M  V30 431 H 45.149 -3.33149 4.40132 0
M  V30 432 H 47.625 -3.34527 2.47449 0
M  V30 433 H 46.501 -4.66257 2.89647 0
M  V30 434 H 46.762 -4.25262 1.20849 0
M  V30 435 N 45.8211 -1.22559 -0.990812 0
M  V30 436 C 46.7531 -0.955325 -2.08342 0
M  V30 437 C 47.7661 0.0668408 -1.62663 0
M  V30 438 O 48.9551 -0.167421 -1.77713 0
M  V30 439 C 46.0551 -0.415566 -3.36342 0
M  V30 440 C 45.2281 -1.49544 -4.11042 0
M  V30 441 C 44.2871 -0.962399 -5.17324 0
M  V30 442 O 43.3131 -1.64907 -5.44788 0
M  V30 443 N 44.5151 0.215134 -5.80101 0
M  V30 444 H 47.2801 -1.89596 -2.32106 0
M  V30 445 H 44.8411 -1.13276 -1.15673 0
M  V30 446 H 46.8331 -0.0442386 -4.04676 0
M  V30 447 H 45.4031 0.430232 -3.09625 0
M  V30 448 H 44.6231 -2.04 -3.37309 0
M  V30 449 H 45.9111 -2.22195 -4.57719 0
M  V30 450 H 45.3091 0.789779 -5.6016 0
M  V30 451 H 43.8661 0.527826 -6.49659 0
M  V30 452 N 47.2992 1.18797 -1.03562 0
M  V30 453 C 48.2312 2.21731 -0.580337 0
M  V30 454 C 49.2442 1.59051 0.347349 0
M  V30 455 O 50.4332 1.77929 0.142669 0
M  V30 456 C 47.5332 3.38459 0.172805 0
M  V30 457 C 46.7062 4.3072 -0.761496 0
M  V30 458 C 45.7652 5.26174 -0.0525547 0
M  V30 459 O 44.7912 5.65108 -0.681333 0
M  V30 460 N 45.9932 5.67624 1.21586 0
M  V30 461 H 48.7582 2.61417 -1.46565 0
M  V30 462 H 46.3192 1.33531 -0.915476 0
M  V30 463 H 48.3112 3.99335 0.656793 0
M  V30 464 H 46.8812 2.97507 0.959602 0
M  V30 465 H 46.1012 3.67525 -1.42544 0
M  V30 466 H 47.3892 4.89267 -1.39626 0
M  V30 467 H 46.7872 5.38038 1.74732 0
M  V30 468 H 45.3442 6.30721 1.64421 0
M  V30 469 N 48.7773 0.814389 1.34928 0
M  V30 470 C 49.7093 0.187834 2.28429 0
M  V30 471 C 50.7223 -0.617374 1.5064 0
M  V30 472 O 51.9113 -0.448454 1.72775 0
M  V30 473 C 49.0113 -0.755962 3.30361 0
M  V30 474 C 48.1843 0.00456686 4.374 0
M  V30 475 C 47.2433 -0.858876 5.19143 0
M  V30 476 O 46.2693 -0.306968 5.68372 0
M  V30 477 N 47.4713 -2.17988 5.38016 0
M  V30 478 H 50.2363 0.991105 2.82838 0
M  V30 479 H 47.7973 0.670561 1.4736 0
M  V30 480 H 49.7893 -1.338 3.81942 0
M  V30 481 H 48.3593 -1.46001 2.7641 0
M  V30 482 H 47.5793 0.767865 3.86649 0
M  V30 483 H 48.8673 0.528422 5.06049 0
M  V30 484 H 48.2653 -2.65212 4.99679 0
M  V30 485 H 46.8223 -2.71098 5.92747 0
M  V30 486 N 50.2554 -1.46986 0.568584 0
M  V30 487 C 51.1854 -2.32946 -0.160753 0
M  V30 488 C 52.1664 -1.44487 -0.897631 0
M  V30 489 O 53.3514 -1.73327 -0.875867 0
M  V30 490 C 50.4814 -3.26494 -1.18403 0
M  V30 491 C 49.4354 -4.24282 -0.562895 0
M  V30 492 C 48.7614 -5.07236 -1.69163 0
M  V30 493 C 50.0614 -5.19989 0.490761 0
M  V30 494 H 51.7554 -2.94175 0.556916 0
M  V30 495 H 49.3014 -1.4146 0.26927 0
M  V30 496 H 51.2544 -3.85477 -1.70251 0
M  V30 497 H 49.9784 -2.63343 -1.93179 0
M  V30 498 H 48.6374 -3.66541 -0.0656164 0
M  V30 499 H 48.2854 -4.4048 -2.42871 0
M  V30 500 H 47.9854 -5.7345 -1.28174 0
M  V30 501 H 49.5094 -5.6908 -2.21314 0
M  V30 502 H 50.9234 -5.73271 0.0579047 0
M  V30 503 H 49.3204 -5.94469 0.820165 0
M  V30 504 H 50.3904 -4.64777 1.3824 0
M  V30 505 N 51.7335 -0.305618 -1.54608 0
M  V30 506 C 52.6435 0.57778 -2.27374 0
M  V30 507 C 53.6595 1.14451 -1.31061 0
M  V30 508 O 54.8355 1.16831 -1.6405 0
M  V30 509 C 51.9005 1.73123 -3.00382 0
M  V30 510 C 50.9615 1.19812 -4.12242 0
M  V30 511 C 50.1945 2.2966 -4.81759 0
M  V30 512 O 50.4175 3.49651 -4.50666 0
M  V30 513 O 49.3515 1.96091 -5.69062 0
M  V30 514 H 53.1775 -0.012624 -3.03697 0
M  V30 515 H 50.7625 -0.0719184 -1.49227 0
M  V30 516 H 52.6445 2.40315 -3.4616 0
M  V30 517 H 51.3195 2.30815 -2.26949 0
M  V30 518 H 50.2265 0.491798 -3.70853 0
M  V30 519 H 51.5595 0.666566 -4.87666 0
M  V30 520 N 53.2116 1.57565 -0.0334293 0
M  V30 521 C 54.1416 2.13511 0.945265 0
M  V30 522 C 55.1226 1.05231 1.33643 0
M  V30 523 O 56.3076 1.33084 1.41429 0
M  V30 524 C 53.4376 2.6657 2.22616 0
M  V30 525 C 52.3916 3.79676 1.97561 0
M  V30 526 C 51.7176 4.1918 3.31952 0
M  V30 527 C 53.0176 5.0557 1.31135 0
M  V30 528 H 54.7116 2.95538 0.479325 0
M  V30 529 H 52.2576 1.42166 0.229115 0
M  V30 530 H 54.2106 3.04344 2.91466 0
M  V30 531 H 52.9346 1.8171 2.71384 0
M  V30 532 H 51.5936 3.42347 1.31127 0
M  V30 533 H 51.2416 3.31296 3.78487 0
M  V30 534 H 50.9416 4.95402 3.15992 0
M  V30 535 H 52.4656 4.59541 4.02063 0
M  V30 536 H 53.8796 5.40903 1.89992 0
M  V30 537 H 52.2766 5.86818 1.25559 0
M  V30 538 H 53.3466 4.84062 0.284894 0
M  V30 539 N 54.6897 -0.239769 1.55765 0
M  V30 540 C 55.5997 -1.31831 1.94056 0
M  V30 541 C 56.6157 -1.52275 0.841925 0
M  V30 542 O 57.7917 -1.65759 1.14394 0
M  V30 543 C 54.8567 -2.65156 2.23368 0
M  V30 544 C 53.9177 -2.53173 3.46701 0
M  V30 545 C 53.1507 -3.8014 3.74606 0
M  V30 546 O 53.3737 -4.82343 3.04469 0
M  V30 547 O 52.3077 -3.78344 4.68123 0
M  V30 548 H 56.1337 -1.02347 2.85935 0
M  V30 549 H 53.7187 -0.441123 1.42739 0
M  V30 550 H 55.6007 -3.43929 2.43497 0
M  V30 551 H 54.2757 -2.94358 1.34666 0
M  V30 552 H 53.1827 -1.72662 3.31871 0
M  V30 553 H 54.5157 -2.28915 4.35728 0
M  V30 554 N 56.1678 -1.49265 -0.50573 0
M  V30 555 C 57.5838 -1.35923 -0.836486 0
M  V30 556 C 57.7838 -0.388704 -1.97715 0
M  V30 557 O 56.8398 0.181336 -2.51848 0
M  V30 558 C 58.1528 -2.76531 -1.18115 0
M  V30 559 C 59.7008 -2.85197 -1.28964 0
M  V30 560 C 60.1758 -4.26561 -1.66761 0
M  V30 561 N 61.6668 -4.2935 -1.73819 0
M  V30 562 C 62.4018 -5.35693 -2.045 0
M  V30 563 N 61.8978 -6.52287 -2.33438 0
M  V30 564 N 63.6908 -5.23105 -2.05711 0
M  V30 565 H 55.8418 -2.10965 0.246519 0
M  V30 566 H 58.1048 -0.9468 0.0476887 0
M  V30 567 H 57.8108 -3.49226 -0.416398 0
M  V30 568 H 57.6848 -3.11599 -2.1257 0
M  V30 569 H 60.0718 -2.12742 -2.04511 0
M  V30 570 H 60.1528 -2.53718 -0.325704 0
M  V30 571 H 59.7968 -4.99541 -0.917656 0
M  V30 572 H 59.7268 -4.55502 -2.64246 0
M  V30 573 H 62.2178 -3.4526 -1.53635 0
M  V30 574 H 62.5308 -7.29158 -2.56024 0
M  V30 575 H 60.8758 -6.55521 -2.30905 0
M  V30 576 H 64.0668 -4.31026 -1.82577 0
M  V30 577 H 64.2398 -6.06078 -2.29289 0
M  V30 578 N 57.6459 0.756429 -1.3826 0
M  V30 579 C 58.5559 1.9009 -1.37488 0
M  V30 580 C 59.5719 1.71855 -0.272366 0
M  V30 581 O 60.7479 1.94827 -0.510318 0
M  V30 582 C 57.8129 3.25421 -1.19592 0
M  V30 583 C 56.8739 3.56202 -2.39622 0
M  V30 584 C 56.1069 4.85075 -2.2257 0
M  V30 585 O 56.3299 5.57246 -1.21793 0
M  V30 586 O 55.2639 5.15269 -3.11098 0
M  V30 587 H 59.0899 1.93695 -2.33914 0
M  V30 588 H 56.6749 0.901313 -1.1915 0
M  V30 589 H 58.5569 4.06337 -1.11661 0
M  V30 590 H 57.2319 3.22634 -0.262486 0
M  V30 591 H 56.1389 2.75458 -2.53128 0
M  V30 592 H 57.4719 3.63747 -3.31586 0
M  V30 593 N 59.124 1.23083 0.984299 0
M  V30 594 C 60.54 0.992637 1.24975 0
M  V30 595 C 60.74 -0.308618 1.99123 0
M  V30 596 O 59.796 -1.02905 2.30579 0
M  V30 597 C 61.109 2.19698 2.05312 0
M  V30 598 C 62.657 2.24147 2.18465 0
M  V30 599 C 63.132 3.44157 3.02192 0
M  V30 600 N 64.623 3.44372 3.09777 0
M  V30 601 C 65.358 4.33886 3.74874 0
M  V30 602 N 64.854 5.3363 4.41827 0
M  V30 603 N 66.647 4.21639 3.71721 0
M  V30 604 H 58.798 2.06731 0.487453 0
M  V30 605 H 61.061 0.906339 0.277944 0
M  V30 606 H 60.767 3.1411 1.58201 0
M  V30 607 H 60.641 2.20465 3.06064 0
M  V30 608 H 63.028 1.30277 2.64786 0
M  V30 609 H 63.109 2.27415 1.17115 0
M  V30 610 H 62.753 4.38332 2.56568 0
M  V30 611 H 62.683 3.3813 4.03702 0
M  V30 612 H 65.174 2.72201 2.62135 0
M  V30 613 H 65.487 5.98196 4.89266 0
M  V30 614 H 63.832 5.37534 4.40548 0
M  V30 615 H 67.023 3.42962 3.18582 0
M  V30 616 H 67.196 4.91604 4.22173 0
M  V30 617 N 60.6021 -1.18246 1.0419 0
M  V30 618 C 61.5321 -2.24127 0.654914 0
M  V30 619 C 62.5131 -1.66617 -0.342451 0
M  V30 620 O 63.6981 -1.92924 -0.222277 0
M  V30 621 C 60.8281 -3.47295 0.0183757 0
M  V30 622 C 59.7821 -4.17563 0.939414 0
M  V30 623 C 59.1081 -5.34438 0.167286 0
M  V30 624 C 60.4081 -4.70917 2.25908 0
M  V30 625 H 62.1021 -2.56753 1.54007 0
M  V30 626 H 59.6481 -1.23414 0.74195 0
M  V30 627 H 61.6011 -4.20572 -0.264082 0
M  V30 628 H 60.3251 -3.13907 -0.901664 0
M  V30 629 H 58.9841 -3.46186 1.20628 0
M  V30 630 H 58.6321 -4.97298 -0.7552 0
M  V30 631 H 58.3321 -5.82388 0.780901 0
M  V30 632 H 59.8561 -6.10504 -0.108125 0
M  V30 633 H 61.2701 -5.35882 2.03724 0
M  V30 634 H 59.6671 -5.29406 2.82577 0
M  V30 635 H 60.7371 -3.88272 2.9047 0
M  V30 636 N 62.0802 -0.821533 -1.34494 0
M  V30 637 C 63.4962 -0.507117 -1.51329 0
M  V30 638 C 63.6962 0.968964 -1.76673 0
M  V30 639 O 62.7522 1.75348 -1.81685 0
M  V30 640 C 64.0652 -1.36544 -2.67911 0
M  V30 641 C 65.6132 -1.36242 -2.81793 0
M  V30 642 C 66.0882 -2.2052 -4.01416 0
M  V30 643 N 67.5792 -2.18136 -4.08621 0
M  V30 644 C 68.3142 -2.80095 -5.00334 0
M  V30 645 N 67.8102 -3.51039 -5.9728 0
M  V30 646 N 69.6032 -2.69656 -4.93196 0
M  V30 647 H 61.7542 -1.77729 -1.16302 0
M  V30 648 H 64.0172 -0.757291 -0.570276 0
M  V30 649 H 63.7232 -2.41361 -2.55808 0
M  V30 650 H 63.5972 -1.02917 -3.62888 0
M  V30 651 H 65.9842 -0.322041 -2.93338 0
M  V30 652 H 66.0652 -1.73866 -1.87628 0
M  V30 653 H 65.7092 -3.24607 -3.90631 0
M  V30 654 H 65.6392 -1.80247 -4.94791 0
M  V30 655 H 68.1302 -1.6653 -3.39229 0
M  V30 656 H 68.4432 -3.95565 -6.63889 0
M  V30 657 H 66.7882 -3.55145 -5.97409 0
M  V30 658 H 69.9792 -2.13808 -4.16418 0
M  V30 659 H 70.1522 -3.1823 -5.64476 0
M  V30 660 N 63.5583 1.46682 -0.576371 0
M  V30 661 C 64.9743 1.57822 -0.237562 0
M  V30 662 C 65.1743 1.57237 1.26011 0
M  V30 663 O 64.2303 1.48596 2.04146 0
M  V30 664 C 65.5433 2.87499 -0.881168 0
M  V30 665 C 67.0913 3.01119 -0.85417 0
M  V30 666 C 67.5663 4.33524 -1.4772 0
M  V30 667 N 69.0573 4.40207 -1.44125 0
M  V30 668 C 69.7923 5.4126 -1.89276 0
M  V30 669 N 69.2883 6.49021 -2.42371 0
M  V30 670 N 71.0813 5.32422 -1.80231 0
M  V30 671 H 63.2323 1.45306 -1.54919 0
M  V30 672 H 65.4953 0.692733 -0.647167 0
M  V30 673 H 65.2013 2.9372 -1.93447 0
M  V30 674 H 65.0753 3.75224 -0.385592 0
M  V30 675 H 67.4623 2.94485 0.190491 0
M  V30 676 H 67.5433 2.14887 -1.3877 0
M  V30 677 H 67.1873 4.40916 -2.52103 0
M  V30 678 H 67.1173 5.1852 -0.918947 0
M  V30 679 H 69.6083 3.62931 -1.05307 0
M  V30 680 H 69.9213 7.2233 -2.74698 0
M  V30 681 H 68.2663 6.49858 -2.46393 0
M  V30 682 H 71.4573 4.47137 -1.38514 0
M  V30 683 H 71.6303 6.11034 -2.15735 0
M  V30 684 N 65.0364 0.313813 1.54444 0
M  V30 685 C 65.9464 -0.565714 2.27677 0
M  V30 686 C 66.9624 -1.13754 1.31666 0
M  V30 687 O 68.1384 -1.15959 1.64668 0
M  V30 688 C 65.2034 -1.71528 3.01296 0
M  V30 689 C 64.2644 -1.17624 4.12872 0
M  V30 690 C 63.4974 -2.27102 4.8297 0
M  V30 691 O 63.7204 -3.47256 4.52514 0
M  V30 692 O 62.6544 -1.9307 5.70094 0
M  V30 693 H 66.4804 0.0287296 3.03686 0
M  V30 694 H 64.0654 0.0798312 1.49187 0
M  V30 695 H 65.9474 -2.38476 3.4743 0
M  V30 696 H 64.6224 -2.29608 2.2817 0
M  V30 697 H 63.5294 -0.472124 3.71109 0
M  V30 698 H 64.8624 -0.640695 4.88012 0
M  V30 699 N 66.5145 -1.57545 0.0417849 0
M  V30 700 C 67.7635 -1.91494 -0.633492 0
M  V30 701 C 68.0765 -0.921084 -1.72556 0
M  V30 702 O 69.2825 -1.15228 -2.45835 0
M  V30 703 C 67.7385 -3.40072 -1.17808 0
M  V30 704 C 67.3465 -4.47843 -0.118633 0
M  V30 705 C 69.0905 -3.8307 -1.82915 0
M  V30 706 C 66.9975 -5.87529 -0.675578 0
M  V30 707 H 65.9275 -0.714653 -0.24039 0
M  V30 708 H 68.5785 -1.83175 0.109148 0
M  V30 709 H 66.9605 -3.43364 -1.97274 0
M  V30 710 H 68.1345 -4.56128 0.654494 0
M  V30 711 H 66.4495 -4.14128 0.434414 0
M  V30 712 H 69.0465 -4.84794 -2.25563 0
M  V30 713 H 69.3895 -3.1881 -2.67705 0
M  V30 714 H 69.9225 -3.82255 -1.10119 0
M  V30 715 H 66.6615 -6.55362 0.134475 0
M  V30 716 H 66.1815 -5.82824 -1.4169 0
M  V30 717 H 67.8605 -6.36491 -1.1614 0
M  V30 718 N 67.9926 0.231505 -1.5589 0
M  V30 719 C 69.4086 0.580748 -1.48659 0
M  V30 720 C 69.6086 1.87617 -0.73498 0
M  V30 721 O 68.6646 2.51046 -0.270586 0
M  V30 722 C 69.9776 0.669202 -2.93159 0
M  V30 723 C 71.5256 0.760499 -3.03621 0
M  V30 724 C 72.0006 0.880383 -4.49459 0
M  V30 725 N 73.4916 0.944861 -4.53461 0
M  V30 726 C 74.2266 1.05716 -5.63571 0
M  V30 727 N 73.7226 1.13403 -6.83456 0
M  V30 728 N 75.5156 1.09152 -5.514 0
M  V30 729 H 67.6666 -0.618695 -2.03189 0
M  V30 730 H 69.9296 -0.215728 -0.923128 0
M  V30 731 H 69.6356 -0.212904 -3.51055 0
M  V30 732 H 69.5096 1.5361 -3.44505 0
M  V30 733 H 71.8966 1.63305 -2.45796 0
M  V30 734 H 71.9776 -0.131864 -2.5546 0
M  V30 735 H 71.6216 0.0123284 -5.07899 0
M  V30 736 H 71.5516 1.78802 -4.95316 0
M  V30 737 H 74.0426 0.896176 -3.6712 0
M  V30 738 H 74.3556 1.21921 -7.63122 0
M  V30 739 H 72.7006 1.10333 -6.86186 0
M  V30 740 H 75.8916 1.02805 -4.56671 0
M  V30 741 H 76.0646 1.17558 -6.37247 0
M  V30 742 N 69.4707 1.49531 0.497807 0
M  V30 743 C 70.4177 1.66436 1.59899 0
M  V30 744 C 71.3877 0.505793 1.58212 0
M  V30 745 O 72.5727 0.733202 1.7615 0
M  V30 746 C 69.7127 1.7399 2.98029 0
M  V30 747 C 68.8257 3.01172 3.09708 0
M  V30 748 C 67.9607 2.99686 4.38591 0
M  V30 749 C 66.9997 4.21434 4.43914 0
M  V30 750 N 66.1367 4.1784 5.64229 0
M  V30 751 H 70.9767 2.60459 1.44793 0
M  V30 752 H 68.5137 1.29137 0.704423 0
M  V30 753 H 70.4717 1.76352 3.78095 0
M  V30 754 H 69.1017 0.834301 3.11832 0
M  V30 755 H 68.1537 3.08408 2.22685 0
M  V30 756 H 69.4657 3.91165 3.09502 0
M  V30 757 H 68.6197 3.00628 5.2698 0
M  V30 758 H 67.3587 2.07477 4.41367 0
M  V30 759 H 66.3637 4.20733 3.53926 0
M  V30 760 H 67.5887 5.14839 4.42851 0
M  V30 761 H 65.5347 3.28469 5.67841 0
M  V30 762 H 65.4517 5.01571 5.65652 0
M  V30 763 H 66.7197 4.22889 6.54817 0
M  V30 764 N 70.9488 -0.749086 1.3866 0
M  V30 765 C 71.8588 -1.89358 1.38494 0
M  V30 766 C 72.8748 -1.71708 0.281476 0
M  V30 767 O 74.0508 -1.94554 0.520643 0
M  V30 768 C 71.1158 -3.24782 1.21316 0
M  V30 769 C 70.1768 -3.54926 2.41508 0
M  V30 770 C 69.4098 -4.83888 2.2514 0
M  V30 771 O 69.6328 -5.56592 1.24746 0
M  V30 772 O 68.5668 -5.13612 3.13826 0
M  V30 773 H 72.3928 -1.92452 2.34938 0
M  V30 774 H 69.9778 -0.894981 1.19626 0
M  V30 775 H 71.8598 -4.05739 1.13814 0
M  V30 776 H 70.5348 -3.2249 0.279592 0
M  V30 777 H 69.4418 -2.74112 2.54585 0
M  V30 778 H 70.7748 -3.61983 3.3351 0
M  V30 779 N 72.4269 -1.23603 -0.977757 0
M  V30 780 C 73.3569 -1.04401 -2.0886 0
M  V30 781 C 74.3379 0.0399052 -1.70053 0
M  V30 782 O 75.5229 -0.125246 -1.93796 0
M  V30 783 C 72.6529 -0.637269 -3.41403 0
M  V30 784 C 71.6069 -1.66883 -3.94124 0
M  V30 785 C 70.9329 -1.11745 -5.22893 0
M  V30 786 C 72.2329 -3.06247 -4.23096 0
M  V30 787 H 73.9269 -1.97316 -2.25182 0
M  V30 788 H 71.4729 -0.950096 -1.08209 0
M  V30 789 H 73.4259 -0.48998 -4.18542 0
M  V30 790 H 72.1499 0.327557 -3.24953 0
M  V30 791 H 70.8089 -1.80416 -3.19133 0
M  V30 792 H 70.4569 -0.143527 -5.02795 0
M  V30 793 H 70.1569 -1.80672 -5.59134 0
M  V30 794 H 71.6809 -0.982067 -6.02651 0
M  V30 795 H 73.0949 -2.96001 -4.90975 0
M  V30 796 H 71.4919 -3.72436 -4.70544 0
M  V30 797 H 72.5619 -3.55041 -3.30263 0
M  V30 798 N 73.905 1.17692 -1.04816 0
M  V30 799 C 74.852 2.21581 -0.645797 0
M  V30 800 C 75.822 1.62367 0.350159 0
M  V30 801 O 77.007 1.89254 0.242433 0
M  V30 802 C 74.147 3.45092 -0.0227568 0
M  V30 803 C 73.26 4.18613 -1.06709 0
M  V30 804 C 72.395 5.29602 -0.411767 0
M  V30 805 C 71.434 5.94904 -1.44067 0
M  V30 806 N 70.571 6.97414 -0.809781 0
M  V30 807 H 75.411 2.55353 -1.5362 0
M  V30 808 H 72.948 1.25438 -0.768364 0
M  V30 809 H 74.906 4.15679 0.35588 0
M  V30 810 H 73.536 3.11917 0.831122 0
M  V30 811 H 72.588 3.46779 -1.5636 0
M  V30 812 H 73.9 4.63293 -1.84827 0
M  V30 813 H 73.054 6.06696 0.0206623 0
M  V30 814 H 71.793 4.86045 0.401438 0
M  V30 815 H 70.798 5.16544 -1.88316 0
M  V30 816 H 72.023 6.40542 -2.25571 0
M  V30 817 H 69.969 6.55998 -0.0170186 0
M  V30 818 H 69.886 7.40386 -1.52856 0
M  V30 819 H 71.154 7.78463 -0.401999 0
M  V30 820 N 75.3831 0.828654 1.34056 0
M  V30 821 C 76.3131 0.269443 2.3194 0
M  V30 822 C 77.2941 -0.617247 1.58506 0
M  V30 823 O 78.4791 -0.542931 1.86456 0
M  V30 824 C 75.6091 -0.564793 3.42677 0
M  V30 825 C 74.5631 0.225241 4.27407 0
M  V30 826 C 73.8891 -0.7321 5.29664 0
M  V30 827 C 75.1891 1.43663 5.02154 0
M  V30 828 H 76.8831 1.08728 2.7896 0
M  V30 829 H 74.4291 0.524283 1.34117 0
M  V30 830 H 76.3821 -0.966233 4.10173 0
M  V30 831 H 75.1061 -1.41574 2.9432 0
M  V30 832 H 73.7651 0.608117 3.61521 0
M  V30 833 H 73.4131 -1.57916 4.77568 0
M  V30 834 H 73.1131 -0.20767 5.87233 0
M  V30 835 H 74.6371 -1.13128 6.00029 0
M  V30 836 H 76.0511 1.1089 5.62473 0
M  V30 837 H 74.4481 1.89711 5.69324 0
M  V30 838 H 75.5181 2.21181 4.31517 0
M  V30 839 N 76.8612 -1.46375 0.584142 0
M  V30 840 C 77.8082 -2.30323 -0.148286 0
M  V30 841 C 78.7782 -1.40703 -0.882713 0
M  V30 842 O 79.9632 -1.69651 -0.873099 0
M  V30 843 C 77.1032 -3.25196 -1.15507 0
M  V30 844 C 76.2162 -4.29915 -0.423943 0
M  V30 845 C 75.3512 -5.11914 -1.41838 0
M  V30 846 C 74.3902 -6.08381 -0.673736 0
M  V30 847 N 73.5272 -6.83242 -1.6163 0
M  V30 848 H 78.3672 -2.92427 0.573644 0
M  V30 849 H 75.9042 -1.44118 0.294703 0
M  V30 850 H 77.8622 -3.78646 -1.75166 0
M  V30 851 H 76.4922 -2.64898 -1.8447 0
M  V30 852 H 75.5442 -3.7931 0.287714 0
M  V30 853 H 76.8562 -4.98549 0.158128 0
M  V30 854 H 76.0102 -5.69648 -2.08773 0
M  V30 855 H 74.7492 -4.43243 -2.03438 0
M  V30 856 H 73.7542 -5.49799 0.00938483 0
M  V30 857 H 74.9792 -6.79071 -0.0631082 0
M  V30 858 H 72.9252 -6.1728 -2.22038 0
M  V30 859 H 72.8422 -7.48144 -1.08707 0
M  V30 860 H 74.1102 -7.45534 -2.27596 0
M  V30 861 N 78.3393 -0.321999 -1.54275 0
M  V30 862 C 79.2493 0.553631 -2.27974 0
M  V30 863 C 80.2653 1.13054 -1.32268 0
M  V30 864 O 81.4413 1.15084 -1.6528 0
M  V30 865 C 78.5063 1.69927 -3.02201 0
M  V30 866 C 77.5673 1.15433 -4.1349 0
M  V30 867 C 76.8003 2.24537 -4.84168 0
M  V30 868 O 77.0233 3.44852 -4.5435 0
M  V30 869 O 75.9573 1.90044 -5.7111 0
M  V30 870 H 79.7833 -0.0448345 -3.03667 0
M  V30 871 H 77.3683 -0.0877418 -1.49142 0
M  V30 872 H 79.2503 2.3663 -3.48689 0
M  V30 873 H 77.9253 2.28395 -2.29385 0
M  V30 874 H 76.8323 0.452436 -3.71354 0
M  V30 875 H 78.1653 0.614805 -4.88345 0
M  V30 876 N 79.8174 1.5752 -0.0501392 0
M  V30 877 C 81.0654 1.9227 0.622642 0
M  V30 878 C 81.3864 0.929083 1.71444 0
M  V30 879 O 80.6564 -0.0262186 1.95882 0
M  V30 880 H 79.2364 0.709739 0.232981 0
M  V30 881 H 81.8984 1.94628 -0.102898 0
M  V30 882 H 80.9944 2.93479 1.06191 0
M  V30 883 N 81.2955 -0.223234 1.56011 0
M  V30 884 C 82.2585 -1.26014 1.9145 0
M  V30 885 C 83.2585 -1.3989 0.792937 0
M  V30 886 O 84.4485 -1.38184 1.0607 0
M  V30 887 C 81.5805 -2.63422 2.16383 0
M  V30 888 H 82.7735 -0.95796 2.84189 0
M  V30 889 H 80.3265 -0.463576 1.49267 0
M  V30 890 H 81.0615 -2.98741 1.2619 0
M  V30 891 H 80.8465 -2.54728 2.98088 0
M  V30 892 H 82.3365 -3.38249 2.44903 0
M  V30 893 N 82.7736 -1.49793 -0.48987 0
M  V30 894 C 83.6836 -1.70036 -1.61632 0
M  V30 895 C 84.6996 -0.583102 -1.63939 0
M  V30 896 O 85.8756 -0.859169 -1.82154 0
M  V30 897 C 82.9406 -1.77277 -2.97949 0
M  V30 898 C 82.0016 -3.00918 -3.06181 0
M  V30 899 C 81.2346 -3.07804 -4.35996 0
M  V30 900 O 81.4576 -2.21982 -5.25433 0
M  V30 901 O 80.3916 -4.00369 -4.49431 0
M  V30 902 H 84.2176 -2.65486 -1.47482 0
M  V30 903 H 81.8026 -1.33666 -0.667362 0
M  V30 904 H 83.6846 -1.84329 -3.78947 0
M  V30 905 H 82.3596 -0.850076 -3.12339 0
M  V30 906 H 81.2666 -2.99377 -2.2433 0
M  V30 907 H 82.5996 -3.92704 -2.96723 0
M  V30 908 N 84.2517 0.741722 -1.39055 0
M  V30 909 C 85.1997 1.87702 -1.3737 0
M  V30 910 C 86.1937 1.67427 -0.257812 0
M  V30 911 O 87.3997 1.7485 -0.427489 0
M  V30 912 H 83.7747 0.617757 -0.428812 0
M  V30 913 H 85.7457 1.86239 -2.33147 0
M  V30 914 C 84.4947 3.25315 -1.22741 0
M  V30 915 H 83.8177 3.41509 -2.07873 0
M  V30 916 H 85.2577 4.04964 -1.25618 0
M  V30 917 C 83.7167 3.36838 0.0647316 0
M  V30 918 O 84.2467 3.88073 1.03741 0
M  V30 919 N 82.4527 2.90329 0.125544 0
M  V30 920 H 81.9997 2.48823 -0.666682 0
M  V30 921 H 81.9577 2.98418 0.989639 0
M  V30 922 N 85.7298 1.2412 0.971189 0
M  V30 923 C 86.6598 1.05508 2.08304 0
M  V30 924 C 87.6408 -0.0308864 1.70072 0
M  V30 925 O 88.8258 0.135521 1.93727 0
M  V30 926 C 85.9558 0.655365 3.4106 0
M  V30 927 C 84.9098 1.68971 3.93234 0
M  V30 928 C 84.2358 1.14516 5.22293 0
M  V30 929 C 85.5358 3.08487 4.21465 0
M  V30 930 H 87.2298 1.98507 2.24132 0
M  V30 931 H 84.7758 0.955821 1.07704 0
M  V30 932 H 86.7288 0.51217 4.18276 0
M  V30 933 H 85.4528 -0.31032 3.25122 0
M  V30 934 H 84.1118 1.82106 3.18171 0
M  V30 935 H 83.7598 0.170189 5.02712 0
M  V30 936 H 83.4598 1.83635 5.58168 0
M  V30 937 H 84.9838 1.01401 6.02121 0
M  V30 938 H 86.3978 2.98601 4.89398 0
M  V30 939 H 84.7948 3.74926 4.68562 0
M  V30 940 H 85.8648 3.56787 3.28376 0
M  V30 941 N 87.2079 -1.17134 1.05439 0
M  V30 942 C 88.6239 -1.39454 0.776201 0
M  V30 943 C 88.8239 -1.91454 -0.628307 0
M  V30 944 O 87.8799 -2.10777 -1.39031 0
M  V30 945 C 89.1929 -2.38305 1.83388 0
M  V30 946 C 90.7409 -2.52006 1.85639 0
M  V30 947 C 91.2159 -3.54133 2.90437 0
M  V30 948 N 92.7069 -3.61653 2.89415 0
M  V30 949 C 93.4419 -4.4044 3.67152 0
M  V30 950 N 92.9379 -5.22721 4.54681 0
M  V30 951 N 94.7309 -4.35337 3.55581 0
M  V30 952 H 86.8819 -0.817134 1.96053 0
M  V30 953 H 89.1449 -0.421626 0.849079 0
M  V30 954 H 88.8509 -2.07173 2.84204 0
M  V30 955 H 88.7249 -3.37841 1.67761 0
M  V30 956 H 91.1119 -2.82447 0.85486 0
M  V30 957 H 91.1929 -1.52537 2.05344 0
M  V30 958 H 90.8369 -3.24431 3.90777 0
M  V30 959 H 90.7669 -4.53313 2.67983 0
M  V30 960 H 93.2579 -3.02909 2.25952 0
M  V30 961 H 93.5709 -5.80027 5.10674 0
M  V30 962 H 91.9159 -5.22093 4.58741 0
M  V30 963 H 95.1069 -3.70112 2.86592 0
M  V30 964 H 95.2799 -4.96494 4.1641 0
M  V30 965 N 88.686 -0.835752 -1.33615 0
M  V30 966 C 90.102 -0.523139 -1.50783 0
M  V30 967 C 90.302 0.950171 -1.77691 0
M  V30 968 O 89.358 1.73411 -1.83534 0
M  V30 969 C 90.671 -1.39378 -2.66448 0
M  V30 970 C 92.219 -1.39223 -2.80332 0
M  V30 971 C 92.694 -2.24765 -3.99055 0
M  V30 972 N 94.185 -2.22458 -4.06284 0
M  V30 973 C 94.92 -2.85386 -4.97336 0
M  V30 974 N 94.416 -3.57354 -5.93523 0
M  V30 975 N 96.209 -2.74872 -4.90308 0
M  V30 976 H 88.36 -1.78952 -1.14411 0
M  V30 977 H 90.623 -0.763297 -0.562212 0
M  V30 978 H 90.329 -2.44061 -2.53234 0
M  V30 979 H 90.203 -1.0676 -3.61776 0
M  V30 980 H 92.59 -0.353136 -2.92979 0
M  V30 981 H 92.671 -1.75846 -1.85773 0
M  V30 982 H 92.315 -3.28732 -3.87167 0
M  V30 983 H 92.245 -1.85485 -4.92852 0
M  V30 984 H 94.736 -1.70119 -3.37443 0
M  V30 985 H 95.049 -4.02584 -6.59656 0
M  V30 986 H 93.394 -3.61461 -5.93608 0
M  V30 987 H 96.585 -2.18213 -4.14126 0
M  V30 988 H 96.758 -3.24199 -5.61069 0
M  V30 989 N 90.1641 1.46063 -0.591896 0
M  V30 990 C 91.1271 2.28854 0.125973 0
M  V30 991 C 92.1271 1.38903 0.810107 0
M  V30 992 O 93.3171 1.61186 0.66066 0
M  V30 993 C 90.4491 3.19526 1.1881 0
M  V30 994 H 91.6421 2.93802 -0.601717 0
M  V30 995 H 89.1951 1.52325 -0.350254 0
M  V30 996 H 89.9301 2.59345 1.94707 0
M  V30 997 H 89.7151 3.85766 0.701936 0
M  V30 998 H 91.2051 3.81817 1.69132 0
M  V30 999 N 91.6422 0.330177 1.54103 0
M  V30 1000 C 92.8702 -0.272179 2.05102 0
M  V30 1001 C 93.2852 -1.45267 1.20595 0
M  V30 1002 O 92.6422 -1.8094 0.238144 0
M  V30 1003 C 92.6932 -0.70023 3.54653 0
M  V30 1004 O 92.4142 0.433301 4.35952 0
M  V30 1005 C 93.9152 -1.3647 4.21771 0
M  V30 1006 H 91.1352 -0.0549159 0.668749 0
M  V30 1007 H 93.6792 0.478285 1.98828 0
M  V30 1008 H 91.8342 -1.40066 3.61193 0
M  V30 1009 H 92.2482 0.0947539 5.24414 0
M  V30 1010 H 93.7222 -1.61509 5.27843 0
M  V30 1011 H 94.1992 -2.31409 3.73292 0
M  V30 1012 H 94.8052 -0.706675 4.19388 0
M  V30 1013 N 93.1203 -1.57491 0.0584922 0
M  V30 1014 C 94.3483 -1.97296 -0.623037 0
M  V30 1015 C 94.7633 -0.936338 -1.63946 0
M  V30 1016 O 94.1203 0.0785981 -1.82331 0
M  V30 1017 C 94.1713 -3.37183 -1.30345 0
M  V30 1018 O 93.8923 -4.36872 -0.32773 0
M  V30 1019 C 95.3933 -3.91788 -2.07406 0
M  V30 1020 H 92.6133 -0.649153 -0.169826 0
M  V30 1021 H 95.1573 -2.04106 0.12696 0
M  V30 1022 H 93.3123 -3.31502 -2.00463 0
M  V30 1023 H 93.7263 -5.18141 -0.814269 0
M  V30 1024 H 95.2003 -4.91926 -2.50425 0
M  V30 1025 H 95.6773 -3.27609 -2.92521 0
M  V30 1026 H 96.2833 -4.00829 -1.42184 0
M  V30 1027 N 94.5984 0.214957 -1.56127 0
M  V30 1028 C 95.8754 0.963093 -1.70247 0
M  V30 1029 C 96.2554 2.02166 -0.60764 0
M  V30 1030 O 95.6034 2.25244 0.384385 0
M  V30 1031 C 95.8134 1.56756 -3.11815 0
M  V30 1032 C 97.1614 2.0573 -3.7143 0
M  V30 1033 O 98.1854 1.66637 -3.14818 0
M  V30 1034 O 97.0444 2.77603 -4.70743 0
M  V30 1035 H 94.1384 0.450321 -0.693643 0
M  V30 1036 H 96.6844 0.206219 -1.68442 0
M  V30 1037 H 95.4564 0.803533 -3.82961 0
M  V30 1038 H 95.0794 2.3898 -3.17765 0
M  V30 1039 N 96.0765 1.50051 0.48192 0
M  V30 1040 C 97.0065 1.71046 1.58951 0
M  V30 1041 C 97.9875 0.559288 1.60642 0
M  V30 1042 O 99.1725 0.797243 1.77081 0
M  V30 1043 C 96.3025 1.79462 2.97339 0
M  V30 1044 C 95.2565 2.94558 3.10515 0
M  V30 1045 C 94.5825 2.88105 4.50444 0
M  V30 1046 C 95.8825 4.35227 2.88747 0
M  V30 1047 H 97.5765 2.6378 1.41635 0
M  V30 1048 H 95.1225 1.26936 0.679942 0
M  V30 1049 H 97.0755 1.92734 3.74742 0
M  V30 1050 H 95.7995 0.833412 3.15788 0
M  V30 1051 H 94.4585 2.80918 2.35543 0
M  V30 1052 H 94.1065 1.89853 4.65795 0
M  V30 1053 H 93.8065 3.65366 4.60197 0
M  V30 1054 H 95.3305 3.03412 5.29881 0
M  V30 1055 H 96.7445 4.49449 3.55905 0
M  V30 1056 H 95.1415 5.13856 3.09955 0
M  V30 1057 H 96.2115 4.48347 1.84696 0
M  V30 1058 N 97.5546 -0.734337 1.39446 0
M  V30 1059 C 98.8026 -1.49096 1.36436 0
M  V30 1060 C 99.1236 -1.94961 -0.0388255 0
M  V30 1061 O 98.3936 -1.69033 -0.990191 0
M  V30 1062 H 96.9736 -0.5531 0.502085 0
M  V30 1063 H 99.6356 -0.871725 1.74319 0
M  V30 1064 H 98.7316 -2.37276 2.02747 0
M  V30 1065 N 99.0327 -1.24633 -0.964593 0
M  V30 1066 C 100.449 -1.01239 -1.2338 0
M  V30 1067 C 100.649 0.2769 -1.99588 0
M  V30 1068 O 99.7047 0.992241 -2.32187 0
M  V30 1069 C 101.018 -2.22937 -2.01791 0
M  V30 1070 C 102.566 -2.27594 -2.14872 0
M  V30 1071 C 103.041 -3.48921 -2.96678 0
M  V30 1072 N 104.532 -3.49257 -3.04259 0
M  V30 1073 C 105.267 -4.39795 -3.67924 0
M  V30 1074 N 104.763 -5.40591 -4.33281 0
M  V30 1075 N 106.556 -4.275 -3.64966 0
M  V30 1076 H 98.7067 -2.0748 -0.454502 0
M  V30 1077 H 100.97 -0.910647 -0.26349 0
M  V30 1078 H 100.676 -3.16587 -1.53184 0
M  V30 1079 H 100.55 -2.25306 -3.02518 0
M  V30 1080 H 102.937 -1.34473 -2.6268 0
M  V30 1081 H 103.018 -2.2925 -1.13482 0
M  V30 1082 H 102.662 -4.42359 -2.49562 0
M  V30 1083 H 102.592 -3.4451 -3.98272 0
M  V30 1084 H 105.083 -2.76337 -2.57771 0
M  V30 1085 H 105.396 -6.05904 -4.79687 0
M  V30 1086 H 103.741 -5.44475 -4.3194 0
M  V30 1087 H 106.932 -3.47987 -3.13086 0
M  V30 1088 H 107.105 -4.98258 -4.14298 0
M  V30 1089 N 100.511 1.16574 -1.06058 0
M  V30 1090 C 101.736 1.91493 -0.796562 0
M  V30 1091 C 102.161 1.76773 0.642868 0
M  V30 1092 O 101.519 1.09142 1.44768 0
M  V30 1093 C 101.567 3.40293 -1.19303 0
M  V30 1094 O 100.671 4.11074 -0.330394 0
M  V30 1095 H 100.012 0.596678 -0.291326 0
M  V30 1096 H 102.542 1.47708 -1.41575 0
M  V30 1097 H 102.552 3.91057 -1.16356 0
M  V30 1098 H 101.227 3.50326 -2.24153 0
M  V30 1099 H 99.8038 3.70513 -0.421225 0
M  V30 1100 N 101.989 0.842826 1.3317 0
M  V30 1101 C 102.919 0.294028 2.31641 0
M  V30 1102 C 103.9 -0.600401 1.59151 0
M  V30 1103 O 105.085 -0.523124 1.87022 0
M  V30 1104 C 102.215 -0.528416 3.43257 0
M  V30 1105 C 101.169 0.27056 4.27144 0
M  V30 1106 C 100.495 -0.675881 5.30411 0
M  V30 1107 C 101.795 1.48981 5.00602 0
M  V30 1108 H 103.489 1.11681 2.77791 0
M  V30 1109 H 101.035 0.538478 1.33553 0
M  V30 1110 H 102.988 -0.922674 4.11175 0
M  V30 1111 H 101.712 -1.38445 2.95805 0
M  V30 1112 H 100.371 0.646427 3.60856 0
M  V30 1113 H 100.019 -1.52842 4.79216 0
M  V30 1114 H 99.7189 -0.145374 5.8742 0
M  V30 1115 H 101.243 -1.06757 6.01195 0
M  V30 1116 H 102.657 1.16849 5.61266 0
M  V30 1117 H 101.054 1.95739 5.6728 0
M  V30 1118 H 102.124 2.25746 4.29147 0
M  V30 1119 N 103.467 -1.45747 0.599634 0
M  V30 1120 C 104.715 -2.01893 0.0915472 0
M  V30 1121 C 105.036 -1.47155 -1.27946 0
M  V30 1122 O 104.306 -0.66273 -1.84349 0
M  V30 1123 H 102.886 -0.746363 0.0308524 0
M  V30 1124 H 105.548 -1.78645 0.779237 0
M  V30 1125 H 104.644 -3.1208 0.0353086 0
M  V30 1126 N 104.945 -0.338344 -1.53925 0
M  V30 1127 C 106.356 0.146651 -1.86123 0
M  V30 1128 C 106.707 1.5042 -1.2597 0
M  V30 1129 O 105.832 2.08723 -0.571294 0
M  V30 1130 C 106.427 0.272879 -3.37699 0
M  V30 1131 C 104.986 0.702103 -3.69794 0
M  V30 1132 C 104.133 -0.167304 -2.76795 0
M  V30 1133 H 107.084 -0.558123 -1.48562 0
M  V30 1134 H 107.105 1.10128 -3.64214 0
M  V30 1135 H 106.617 -0.715307 -3.81451 0
M  V30 1136 H 104.718 1.6995 -3.31584 0
M  V30 1137 H 104.831 0.495604 -4.7653 0
M  V30 1138 H 103.195 0.359527 -2.5215 0
M  V30 1139 H 103.978 -1.15253 -3.23375 0
M  V30 1140 N 106.423 1.57458 -0.0668435 0
M  V30 1141 C 107.669 1.93587 0.6043 0
M  V30 1142 C 108.002 0.946722 1.69561 0
M  V30 1143 O 107.277 -0.0248516 1.94484 0
M  V30 1144 C 107.56 3.40014 1.18585 0
M  V30 1145 C 107.413 4.49685 0.101529 0
M  V30 1146 C 108.732 3.87154 2.09284 0
M  V30 1147 H 105.851 0.703958 0.218202 0
M  V30 1148 H 108.493 1.89542 -0.131804 0
M  V30 1149 H 106.643 3.43592 1.81319 0
M  V30 1150 H 108.315 4.5823 -0.531279 0
M  V30 1151 H 106.558 4.30059 -0.568487 0
M  V30 1152 H 107.229 5.49266 0.54874 0
M  V30 1153 H 109.705 3.85551 1.56491 0
M  V30 1154 H 108.581 4.90231 2.46911 0
M  V30 1155 H 108.842 3.2481 2.99918 0
M  V30 1156 N 107.901 -0.206675 1.56239 0
M  V30 1157 C 108.811 -1.27686 1.96808 0
M  V30 1158 C 109.827 -1.50455 0.874035 0
M  V30 1159 O 111.003 -1.63295 1.17884 0
M  V30 1160 C 108.068 -2.60358 2.28942 0
M  V30 1161 C 107.129 -2.45762 3.51994 0
M  V30 1162 C 106.362 -3.72108 3.82585 0
M  V30 1163 O 106.585 -4.75776 3.14631 0
M  V30 1164 O 105.519 -3.6833 4.76043 0
M  V30 1165 H 109.345 -0.962593 2.88041 0
M  V30 1166 H 106.93 -0.410746 1.43643 0
M  V30 1167 H 108.812 -3.38687 2.50737 0
M  V30 1168 H 107.487 -2.91435 1.4088 0
M  V30 1169 H 106.394 -1.65584 3.35459 0
M  V30 1170 H 107.727 -2.19621 4.40486 0
M  V30 1171 N 109.379 -1.50304 -0.473955 0
M  V30 1172 C 110.309 -1.71886 -1.58042 0
M  V30 1173 C 111.29 -0.567799 -1.60344 0
M  V30 1174 O 112.475 -0.806623 -1.76656 0
M  V30 1175 C 109.605 -1.81036 -2.96384 0
M  V30 1176 C 108.559 -2.962 -3.08949 0
M  V30 1177 C 107.885 -2.9049 -4.48909 0
M  V30 1178 C 109.185 -4.36752 -2.86434 0
M  V30 1179 H 110.879 -2.64527 -1.40234 0
M  V30 1180 H 108.425 -1.27295 -0.673201 0
M  V30 1181 H 110.378 -1.94719 -3.73714 0
M  V30 1182 H 109.102 -0.850147 -3.15341 0
M  V30 1183 H 107.761 -2.82164 -2.3405 0
M  V30 1184 H 107.409 -1.92321 -4.64781 0
M  V30 1185 H 107.109 -3.67802 -4.58253 0
M  V30 1186 H 108.633 -3.06218 -5.28264 0
M  V30 1187 H 110.047 -4.5133 -3.53517 0
M  V30 1188 H 108.444 -5.15493 -3.07225 0
M  V30 1189 H 109.514 -4.49321 -1.82316 0
M  V30 1190 N 110.857 0.726932 -1.39834 0
M  V30 1191 C 111.787 1.85405 -1.41941 0
M  V30 1192 C 112.768 1.67751 -0.281728 0
M  V30 1193 O 113.953 1.8795 -0.488717 0
M  V30 1194 C 111.083 3.23243 -1.2701 0
M  V30 1195 C 110.037 3.55549 -2.38262 0
M  V30 1196 C 109.363 4.9241 -2.08415 0
M  V30 1197 C 110.663 3.577 -3.80589 0
M  V30 1198 H 112.357 1.83899 -2.36266 0
M  V30 1199 H 109.903 0.883349 -1.13723 0
M  V30 1200 H 111.856 4.01775 -1.27103 0
M  V30 1201 H 110.58 3.25296 -0.291564 0
M  V30 1202 H 109.239 2.79351 -2.37399 0
M  V30 1203 H 108.887 4.91052 -1.0898 0
M  V30 1204 H 108.587 5.14992 -2.82943 0
M  V30 1205 H 110.111 5.73289 -2.10171 0
M  V30 1206 H 111.525 4.26293 -3.83337 0
M  V30 1207 H 109.922 3.91804 -4.54543 0
M  V30 1208 H 110.992 2.57328 -4.10987 0
M  V30 1209 N 112.336 1.25143 0.95797 0
M  V30 1210 C 113.266 1.07711 2.07173 0
M  V30 1211 C 114.247 -0.0128462 1.70095 0
M  V30 1212 O 115.432 0.156061 1.93572 0
M  V30 1213 C 112.562 0.691503 3.40346 0
M  V30 1214 C 111.516 1.73132 3.9142 0
M  V30 1215 C 110.842 1.20049 5.21049 0
M  V30 1216 C 112.142 3.1294 4.1817 0
M  V30 1217 H 113.836 2.00873 2.22014 0
M  V30 1218 H 111.382 0.967191 1.06684 0
M  V30 1219 H 113.335 0.556505 4.17709 0
M  V30 1220 H 112.059 -0.275819 3.25433 0
M  V30 1221 H 110.718 1.8547 3.16222 0
M  V30 1222 H 110.366 0.223499 5.02503 0
M  V30 1223 H 110.066 1.89545 5.56189 0
M  V30 1224 H 111.59 1.07782 6.01012 0
M  V30 1225 H 113.004 3.03775 4.86203 0
M  V30 1226 H 111.401 3.79875 4.64559 0
M  V30 1227 H 112.471 3.6025 3.24573 0
M  V30 1228 N 113.814 -1.1601 1.06675 0
M  V30 1229 C 115.23 -1.38622 0.790948 0
M  V30 1230 C 115.43 -1.92109 -0.607965 0
M  V30 1231 O 114.486 -2.12239 -1.36787 0
M  V30 1232 C 115.799 -2.36347 1.85905 0
M  V30 1233 C 117.347 -2.50023 1.88301 0
M  V30 1234 C 117.822 -3.51033 2.94176 0
M  V30 1235 N 119.313 -3.58563 2.93235 0
M  V30 1236 C 120.048 -4.36521 3.71803 0
M  V30 1237 N 119.544 -5.17869 4.602 0
M  V30 1238 N 121.337 -4.31541 3.60178 0
M  V30 1239 H 113.488 -0.796294 1.96908 0
M  V30 1240 H 115.751 -0.412597 0.853503 0
M  V30 1241 H 115.457 -2.04147 2.86386 0
M  V30 1242 H 115.331 -3.36042 1.71334 0
M  V30 1243 H 117.718 -2.81524 0.884769 0
M  V30 1244 H 117.799 -1.5035 2.06951 0
M  V30 1245 H 117.443 -3.20268 3.94196 0
M  V30 1246 H 117.373 -4.50445 2.72776 0
M  V30 1247 H 119.864 -3.00496 2.29152 0
M  V30 1248 H 120.177 -5.74578 5.16797 0
M  V30 1249 H 118.522 -5.17199 4.64253 0
M  V30 1250 H 121.713 -3.67051 2.90502 0
M  V30 1251 H 121.886 -4.9205 4.21653 0
M  V30 1252 N 115.292 -0.849877 -1.32721 0
M  V30 1253 C 116.54 -0.450032 -1.97026 0
M  V30 1254 C 116.861 0.996604 -1.67609 0
M  V30 1255 O 116.131 1.6958 -0.980786 0
M  V30 1256 H 114.711 -0.163426 -0.728904 0
M  V30 1257 H 117.373 -1.08526 -1.6189 0
M  V30 1258 H 116.469 -0.591146 -3.0645 0
M  V30 1259 N 116.77 1.45427 -0.607355 0
M  V30 1260 C 117.995 2.07124 -0.107006 0
M  V30 1261 C 118.42 1.44906 1.19933 0
M  V30 1262 O 117.778 0.541687 1.73019 0
M  V30 1263 C 117.826 3.60595 0.0194119 0
M  V30 1264 O 116.93 3.98285 1.0697 0
M  V30 1265 H 116.271 0.659868 -0.0739597 0
M  V30 1266 H 118.801 1.86683 -0.837297 0
M  V30 1267 H 118.811 4.07419 0.2177 0
M  V30 1268 H 117.486 4.05266 -0.934453 0
M  V30 1269 H 116.063 3.63133 0.847889 0
M  V30 1270 N 118.248 0.346503 1.53744 0
M  V30 1271 C 119.473 -0.253074 2.0585 0
M  V30 1272 C 119.898 -1.43202 1.21962 0
M  V30 1273 O 119.256 -1.79783 0.234073 0
M  V30 1274 C 119.304 -0.643193 3.54817 0
M  V30 1275 O 118.408 -1.74286 3.73762 0
M  V30 1276 H 117.749 -0.0413583 0.662711 0
M  V30 1277 H 120.279 0.501574 1.98357 0
M  V30 1278 H 120.289 -0.919526 3.97503 0
M  V30 1279 H 118.964 0.218966 4.15323 0
M  V30 1280 H 117.541 -1.46356 3.42979 0
M  V30 1281 N 119.726 -1.57421 0.075193 0
M  V30 1282 C 121.142 -1.57099 -0.281444 0
M  V30 1283 C 121.342 -1.08486 -1.69803 0
M  V30 1284 O 120.398 -0.752279 -2.41033 0
M  V30 1285 C 121.711 -3.00571 -0.0880041 0
M  V30 1286 C 123.259 -3.12605 -0.157281 0
M  V30 1287 C 123.734 -4.57999 0.0079207 0
M  V30 1288 N 125.225 -4.63176 -0.0475725 0
M  V30 1289 C 125.96 -5.73373 0.0557876 0
M  V30 1290 N 125.456 -6.92473 0.21286 0
M  V30 1291 N 127.249 -5.621 -0.00152098 0
M  V30 1292 H 119.4 -1.87335 1.00098 0
M  V30 1293 H 121.663 -0.86377 0.390646 0
M  V30 1294 H 121.369 -3.40262 0.889629 0
M  V30 1295 H 121.243 -3.67754 -0.838875 0
M  V30 1296 H 123.63 -2.72798 -1.1254 0
M  V30 1297 H 123.711 -2.48053 0.62475 0
M  V30 1298 H 123.355 -4.98496 0.972824 0
M  V30 1299 H 123.285 -5.20586 -0.793556 0
M  V30 1300 H 125.776 -3.7753 -0.167244 0
M  V30 1301 H 126.089 -7.72279 0.283781 0
M  V30 1302 H 124.434 -6.94556 0.248267 0
M  V30 1303 H 127.625 -4.67938 -0.122958 0
M  V30 1304 H 127.798 -6.47948 0.0824844 0
M  V30 1305 N 121.204 0.198386 -1.56346 0
M  V30 1306 C 122.62 0.549085 -1.49857 0
M  V30 1307 C 122.82 1.86016 -0.774611 0
M  V30 1308 O 121.876 2.50416 -0.323776 0
M  V30 1309 C 123.189 0.606868 -2.94512 0
M  V30 1310 C 124.737 0.695925 -3.05165 0
M  V30 1311 C 125.212 0.784848 -4.51225 0
M  V30 1312 N 126.703 0.848463 -4.55363 0
M  V30 1313 C 127.438 0.937378 -5.65686 0
M  V30 1314 N 126.934 0.9888 -6.85707 0
M  V30 1315 N 128.727 0.974312 -5.53592 0
M  V30 1316 H 120.878 -0.661655 -2.01831 0
M  V30 1317 H 123.141 -0.235261 -0.918344 0
M  V30 1318 H 122.847 -0.28732 -3.50524 0
M  V30 1319 H 122.721 1.46268 -3.47686 0
M  V30 1320 H 125.108 1.58055 -2.49204 0
M  V30 1321 H 125.189 -0.186022 -2.55123 0
M  V30 1322 H 124.833 -0.0954072 -5.0781 0
M  V30 1323 H 124.763 1.68255 -4.98997 0
M  V30 1324 H 127.254 0.818103 -3.68938 0
M  V30 1325 H 127.567 1.05707 -7.65536 0
M  V30 1326 H 125.912 0.957534 -6.88372 0
M  V30 1327 H 129.103 0.930954 -4.58749 0
M  V30 1328 H 129.276 1.04015 -6.39597 0
M  V30 1329 N 122.682 1.50554 0.465978 0
M  V30 1330 C 123.612 1.72722 1.57128 0
M  V30 1331 C 124.593 0.576294 1.6004 0
M  V30 1332 O 125.778 0.81598 1.76225 0
M  V30 1333 C 122.908 1.82605 2.95419 0
M  V30 1334 C 121.862 2.97835 3.07373 0
M  V30 1335 C 121.188 2.92867 4.47363 0
M  V30 1336 C 122.488 4.38265 2.84114 0
M  V30 1337 H 124.182 2.65267 1.38829 0
M  V30 1338 H 121.728 1.2765 0.666441 0
M  V30 1339 H 123.681 1.96698 3.72677 0
M  V30 1340 H 122.405 0.866858 3.14886 0
M  V30 1341 H 121.064 2.83401 2.3255 0
M  V30 1342 H 120.712 1.94783 4.63755 0
M  V30 1343 H 120.412 3.70227 4.56296 0
M  V30 1344 H 121.936 3.09015 5.26633 0
M  V30 1345 H 123.35 4.53198 3.51118 0
M  V30 1346 H 121.747 5.17115 3.04487 0
M  V30 1347 H 122.817 4.50281 1.7993 0
M  V30 1348 N 124.16 -0.719506 1.40217 0
M  V30 1349 C 125.437 -1.47221 1.28784 0
M  V30 1350 C 125.817 -2.10883 -0.0956067 0
M  V30 1351 O 125.165 -1.99833 -1.10811 0
M  V30 1352 C 125.375 -2.5111 2.42373 0
M  V30 1353 C 126.723 -3.17053 2.82423 0
M  V30 1354 O 127.747 -2.61429 2.41937 0
M  V30 1355 O 126.606 -4.17742 3.52355 0
M  V30 1356 H 123.7 -0.654491 0.50554 0
M  V30 1357 H 126.246 -0.752014 1.52128 0
M  V30 1358 H 125.018 -2.02556 3.34793 0
M  V30 1359 H 124.641 -3.3067 2.20778 0
M  V30 1360 N 125.638 -1.25649 -0.95132 0
M  V30 1361 C 126.568 -1.08808 -2.06599 0
M  V30 1362 C 127.549 0.00382547 -1.701 0
M  V30 1363 O 128.734 -0.166325 -1.93486 0
M  V30 1364 C 125.864 -0.709542 -3.39975 0
M  V30 1365 C 124.818 -1.75206 -3.90496 0
M  V30 1366 C 124.144 -1.22811 -5.20405 0
M  V30 1367 C 125.444 -3.15153 -4.16504 0
M  V30 1368 H 127.138 -2.02048 -2.20946 0
M  V30 1369 H 124.684 -0.972835 -1.06169 0
M  V30 1370 H 126.637 -0.578649 -4.17408 0
M  V30 1371 H 125.361 0.258556 -3.25575 0
M  V30 1372 H 124.02 -1.87145 -3.15234 0
M  V30 1373 H 123.668 -0.250145 -5.02378 0
M  V30 1374 H 123.368 -1.92492 -5.55176 0
M  V30 1375 H 124.892 -1.10968 -6.00432 0
M  V30 1376 H 126.306 -3.06349 -4.84586 0
M  V30 1377 H 124.703 -3.82333 -4.62538 0
M  V30 1378 H 125.773 -3.61966 -3.22658 0
M  V30 1379 N 127.117 1.15442 -1.07289 0
M  V30 1380 C 128.047 2.22312 -0.714107 0
M  V30 1381 C 129.028 1.67467 0.298155 0
M  V30 1382 O 130.213 1.93445 0.171048 0
M  V30 1383 C 127.343 3.47124 -0.110448 0
M  V30 1384 C 126.297 4.14926 -1.04979 0
M  V30 1385 C 125.623 5.33807 -0.308924 0
M  V30 1386 C 126.923 4.64762 -2.38314 0
M  V30 1387 H 128.617 2.5258 -1.6076 0
M  V30 1388 H 126.163 1.21404 -0.77441 0
M  V30 1389 H 128.116 4.21124 0.152482 0
M  V30 1390 H 126.84 3.16187 0.81812 0
M  V30 1391 H 125.499 3.42866 -1.29764 0
M  V30 1392 H 125.147 4.99126 0.623084 0
M  V30 1393 H 124.847 5.80113 -0.935036 0
M  V30 1394 H 126.371 6.10576 -0.0537771 0
M  V30 1395 H 127.785 5.30292 -2.1786 0
M  V30 1396 H 126.182 5.21728 -2.96514 0
M  V30 1397 H 127.252 3.80434 -3.00663 0
M  V30 1398 N 128.595 0.856903 1.32268 0
M  V30 1399 C 129.545 0.274899 2.26337 0
M  V30 1400 C 130.529 -0.580543 1.50062 0
M  V30 1401 O 131.721 -0.429559 1.71708 0
M  V30 1402 C 128.85 -0.533841 3.39124 0
M  V30 1403 C 127.936 0.334114 4.22782 0
M  V30 1404 N 128.327 1.42143 4.85416 0
M  V30 1405 C 126.625 0.124256 4.45827 0
M  V30 1406 C 127.326 1.95559 5.47843 0
M  V30 1407 N 126.302 1.25444 5.28928 0
M  V30 1408 H 130.104 1.10612 2.72291 0
M  V30 1409 H 127.618 0.703258 1.46383 0
M  V30 1410 H 129.615 -0.96722 4.05525 0
M  V30 1411 H 128.275 -1.36283 2.94715 0
M  V30 1412 H 129.286 1.80436 4.85451 0
M  V30 1413 H 125.963 -0.669837 4.12092 0
M  V30 1414 H 127.353 2.86714 6.07655 0
M  V30 1415 N 130.073 -1.45103 0.615059 0
M  V30 1416 C 131.005 -2.28786 -0.13762 0
M  V30 1417 C 132.018 -1.40376 -0.824525 0
M  V30 1418 O 133.207 -1.64681 -0.688662 0
M  V30 1419 C 130.307 -3.16322 -1.21628 0
M  V30 1420 C 129.48 -4.33054 -0.615039 0
M  V30 1421 C 128.539 -5.01743 -1.58556 0
M  V30 1422 O 127.565 -5.58293 -1.10895 0
M  V30 1423 N 128.767 -5.01714 -2.91998 0
M  V30 1424 H 131.532 -2.94025 0.580483 0
M  V30 1425 H 129.093 -1.55373 0.45507 0
M  V30 1426 H 131.085 -3.59139 -1.86552 0
M  V30 1427 H 129.655 -2.52943 -1.83681 0
M  V30 1428 H 128.875 -3.93627 0.21245 0
M  V30 1429 H 130.163 -5.08431 -0.193704 0
M  V30 1430 H 129.561 -4.57075 -3.33316 0
M  V30 1431 H 128.118 -5.48371 -3.52325 0
M  V30 1432 N 131.551 -0.354651 -1.53558 0
M  V30 1433 C 132.483 0.5315 -2.22952 0
M  V30 1434 C 133.496 1.05503 -1.23988 0
M  V30 1435 O 134.685 0.963279 -1.50277 0
M  V30 1436 C 131.785 1.74538 -2.90499 0
M  V30 1437 C 130.958 1.35524 -4.15875 0
M  V30 1438 C 130.017 2.42999 -4.66731 0
M  V30 1439 O 129.043 2.05844 -5.30676 0
M  V30 1440 N 130.245 3.74423 -4.43608 0
M  V30 1441 H 133.01 -0.0628615 -2.99634 0
M  V30 1442 H 130.571 -0.179302 -1.60904 0
M  V30 1443 H 132.563 2.45892 -3.21433 0
M  V30 1444 H 131.133 2.24686 -2.17336 0
M  V30 1445 H 130.353 0.471998 -3.91364 0
M  V30 1446 H 131.641 1.07071 -4.97406 0
M  V30 1447 H 131.039 4.07391 -3.92491 0
M  V30 1448 H 129.596 4.41913 -4.7912 0
M  V30 1449 N 133.029 1.57378 -0.0835403 0
M  V30 1450 C 133.959 2.1641 0.87686 0
M  V30 1451 C 134.94 1.09429 1.30228 0
M  V30 1452 O 136.125 1.37516 1.37124 0
M  V30 1453 C 133.255 2.73517 2.14022 0
M  V30 1454 C 132.209 3.85769 1.85381 0
M  V30 1455 C 131.535 4.29529 3.18448 0
M  V30 1456 C 132.835 5.09486 1.14984 0
M  V30 1457 H 134.529 2.96914 0.385059 0
M  V30 1458 H 132.075 1.42823 0.18377 0
M  V30 1459 H 134.028 3.13463 2.81636 0
M  V30 1460 H 132.752 1.90252 2.65465 0
M  V30 1461 H 131.411 3.46345 1.20169 0
M  V30 1462 H 131.059 3.43169 3.67755 0
M  V30 1463 H 130.759 5.05204 3.00071 0
M  V30 1464 H 132.283 4.72099 3.8724 0
M  V30 1465 H 133.697 5.46674 1.72687 0
M  V30 1466 H 132.094 5.90515 1.06826 0
M  V30 1467 H 133.164 4.84724 0.130749 0
M  V30 1468 N 134.507 -0.190092 1.56449 0
M  V30 1469 C 135.439 -1.25973 1.91477 0
M  V30 1470 C 136.452 -1.41452 0.805931 0
M  V30 1471 O 137.641 -1.41789 1.08435 0
M  V30 1472 C 134.741 -2.63117 2.13594 0
M  V30 1473 C 133.914 -2.69182 3.4476 0
M  V30 1474 C 132.973 -3.87557 3.5593 0
M  V30 1475 O 131.999 -3.74427 4.28711 0
M  V30 1476 N 133.201 -5.03224 2.89388 0
M  V30 1477 H 135.966 -0.962394 2.83828 0
M  V30 1478 H 133.527 -0.379981 1.57378 0
M  V30 1479 H 135.519 -3.40742 2.1835 0
M  V30 1480 H 134.089 -2.85319 1.27719 0
M  V30 1481 H 133.309 -1.77793 3.51828 0
M  V30 1482 H 134.597 -2.70229 4.31107 0
M  V30 1483 H 133.995 -5.16791 2.30094 0
M  V30 1484 H 132.552 -5.78778 2.99764 0
M  V30 1485 N 135.985 -1.50799 -0.457987 0
M  V30 1486 C 136.895 -1.73426 -1.57989 0
M  V30 1487 C 137.911 -0.617745 -1.62665 0
M  V30 1488 O 139.087 -0.897614 -1.80291 0
M  V30 1489 C 136.152 -1.83557 -2.94122 0
M  V30 1490 C 135.213 -3.07345 -2.99729 0
M  V30 1491 C 134.446 -3.16983 -4.29368 0
M  V30 1492 O 134.669 -2.33077 -5.20607 0
M  V30 1493 O 133.603 -4.09812 -4.40837 0
M  V30 1494 H 137.429 -2.68555 -1.41817 0
M  V30 1495 H 135.014 -1.35052 -0.638859 0
M  V30 1496 H 136.896 -1.92326 -3.74952 0
M  V30 1497 H 135.571 -0.916137 -3.10465 0
M  V30 1498 H 134.478 -3.04068 -2.1793 0
M  V30 1499 H 135.811 -3.9891 -2.88326 0
M  V30 1500 N 137.463 0.71206 -1.40597 0
M  V30 1501 C 138.393 1.83889 -1.43899 0
M  V30 1502 C 139.374 1.67442 -0.299504 0
M  V30 1503 O 140.559 1.87421 -0.508624 0
M  V30 1504 C 137.689 3.21877 -1.30431 0
M  V30 1505 C 136.643 3.53002 -2.42019 0
M  V30 1506 C 135.969 4.90172 -2.13626 0
M  V30 1507 C 137.269 3.53643 -3.84362 0
M  V30 1508 H 138.963 1.81383 -2.38203 0
M  V30 1509 H 136.509 0.871237 -1.14654 0
M  V30 1510 H 138.462 4.00404 -1.31357 0
M  V30 1511 H 137.186 3.24968 -0.326049 0
M  V30 1512 H 135.845 2.76818 -2.40349 0
M  V30 1513 H 135.493 4.89869 -1.14182 0
M  V30 1514 H 135.193 5.11962 -2.88389 0
M  V30 1515 H 136.717 5.71028 -2.1624 0
M  V30 1516 H 138.131 4.22203 -3.87837 0
M  V30 1517 H 136.528 3.86961 -4.58673 0
M  V30 1518 H 137.598 2.52954 -4.13693 0
M  V30 1519 N 138.941 1.26152 0.944643 0
M  V30 1520 C 139.891 1.04081 2.02857 0
M  V30 1521 C 140.875 -0.0256555 1.6088 0
M  V30 1522 O 142.067 0.190884 1.75968 0
M  V30 1523 C 139.196 0.672118 3.36656 0
M  V30 1524 C 138.282 1.77586 3.85128 0
M  V30 1525 N 138.673 3.01272 4.06287 0
M  V30 1526 C 136.971 1.65867 4.1401 0
M  V30 1527 C 137.672 3.72983 4.46384 0
M  V30 1528 N 136.648 3.00653 4.52889 0
M  V30 1529 H 140.45 1.97968 2.17223 0
M  V30 1530 H 137.964 1.16618 1.13022 0
M  V30 1531 H 139.961 0.495166 4.13949 0
M  V30 1532 H 138.621 -0.259307 3.23663 0
M  V30 1533 H 139.632 3.37213 3.93075 0
M  V30 1534 H 136.309 0.796907 4.09824 0
M  V30 1535 H 137.699 4.792 4.70975 0
M  V30 1536 N 140.419 -1.14872 1.07899 0
M  V30 1537 C 141.382 -2.17986 0.708161 0
M  V30 1538 C 142.382 -1.58775 -0.25442 0
M  V30 1539 O 143.572 -1.74166 -0.034645 0
M  V30 1540 C 140.704 -3.40871 0.0446929 0
M  V30 1541 H 141.897 -2.52306 1.62116 0
M  V30 1542 H 139.45 -1.2943 0.876218 0
M  V30 1543 H 140.185 -3.12124 -0.880281 0
M  V30 1544 H 139.97 -3.8511 0.737091 0
M  V30 1545 H 141.46 -4.17121 -0.19991 0
M  V30 1546 N 141.898 -0.863906 -1.31812 0
M  V30 1547 C 142.848 -0.286898 -2.26188 0
M  V30 1548 C 143.832 0.572577 -1.50367 0
M  V30 1549 O 145.024 0.420447 -1.71934 0
M  V30 1550 C 142.153 0.515849 -3.39402 0
M  V30 1551 C 141.239 -0.356531 -4.22599 0
M  V30 1552 N 141.63 -1.44716 -4.84656 0
M  V30 1553 C 139.928 -0.147898 -4.45755 0
M  V30 1554 C 140.629 -1.98462 -5.46798 0
M  V30 1555 N 139.605 -1.28247 -5.28255 0
M  V30 1556 H 143.407 -1.12055 -2.717 0
M  V30 1557 H 140.921 -0.711012 -1.46008 0
M  V30 1558 H 142.918 0.945701 -4.06032 0
M  V30 1559 H 141.578 1.34718 -2.95434 0
M  V30 1560 H 142.589 -1.83008 -4.84488 0
M  V30 1561 H 139.266 0.647973 -4.12441 0
M  V30 1562 H 140.656 -2.89932 -6.06126 0
M  V30 1563 N 143.376 1.44774 -0.622745 0
M  V30 1564 C 144.622 2.0242 -0.124083 0
M  V30 1565 C 144.955 1.4881 1.24777 0
M  V30 1566 O 144.23 0.668799 1.8264 0
M  V30 1567 C 144.513 3.59957 -0.101619 0
M  V30 1568 C 144.366 4.23867 -1.50521 0
M  V30 1569 C 145.685 4.36284 0.578272 0
M  V30 1570 H 142.804 0.735528 -0.0465645 0
M  V30 1571 H 145.446 1.72447 -0.797617 0
M  V30 1572 H 143.596 3.85623 0.471934 0
M  V30 1573 H 145.268 4.09336 -2.12701 0
M  V30 1574 H 143.511 3.81684 -2.06154 0
M  V30 1575 H 144.182 5.32843 -1.4416 0
M  V30 1576 H 146.658 4.16001 0.0906057 0
M  V30 1577 H 145.534 5.46004 0.563149 0
M  V30 1578 H 145.795 4.10271 1.64713 0
M  V30 1579 N 144.854 0.36279 1.53368 0
M  V30 1580 C 146.1 -0.228113 2.01513 0
M  V30 1581 C 146.433 -1.48648 1.2497 0
M  V30 1582 O 145.708 -1.91459 0.342616 0
M  V30 1583 C 145.991 -0.522884 3.56284 0
M  V30 1584 C 145.844 0.74892 4.43521 0
M  V30 1585 C 147.163 -1.32461 4.19693 0
M  V30 1586 H 144.282 -0.0814343 0.732487 0
M  V30 1587 H 146.924 0.48713 1.83649 0
M  V30 1588 H 145.074 -1.1322 3.71636 0
M  V30 1589 H 146.746 1.38648 4.39971 0
M  V30 1590 H 144.989 1.36986 4.11603 0
M  V30 1591 H 145.66 0.497667 5.49752 0
M  V30 1592 H 148.136 -0.809203 4.08156 0
M  V30 1593 H 147.012 -1.49961 5.28018 0
M  V30 1594 H 147.273 -2.33232 3.75573 0
M  V30 1595 N 146.332 -1.57332 0.0918853 0
M  V30 1596 C 147.262 -2.16872 -0.865371 0
M  V30 1597 C 148.243 -1.10118 -1.29646 0
M  V30 1598 O 149.428 -1.38242 -1.36392 0
M  V30 1599 C 146.558 -2.74649 -2.12569 0
M  V30 1600 C 145.512 -3.86747 -1.83333 0
M  V30 1601 C 144.838 -4.31212 -3.16166 0
M  V30 1602 C 146.138 -5.10089 -1.1228 0
M  V30 1603 H 147.832 -2.97114 -0.369307 0
M  V30 1604 H 145.378 -1.42918 -0.176194 0
M  V30 1605 H 147.331 -3.14952 -2.7997 0
M  V30 1606 H 146.055 -1.91657 -2.64452 0
M  V30 1607 H 144.714 -3.46978 -1.18331 0
M  V30 1608 H 144.362 -3.45115 -3.6593 0
M  V30 1609 H 144.062 -5.06788 -2.97388 0
M  V30 1610 H 145.586 -4.74146 -3.84731 0
M  V30 1611 H 147 -5.47582 -1.69785 0
M  V30 1612 H 145.397 -5.91073 -1.03693 0
M  V30 1613 H 146.467 -4.84786 -0.105041 0
M  V30 1614 N 147.81 0.181792 -1.56548 0
M  V30 1615 C 149.221 0.745244 -1.71181 0
M  V30 1616 C 149.572 1.83262 -0.70068 0
M  V30 1617 O 148.697 2.15946 0.140154 0
M  V30 1618 C 149.292 1.35859 -3.10367 0
M  V30 1619 C 147.851 1.86898 -3.2672 0
M  V30 1620 C 146.998 0.743942 -2.67134 0
M  V30 1621 H 149.949 -0.0434661 -1.5864 0
M  V30 1622 H 149.97 2.22817 -3.08436 0
M  V30 1623 H 149.482 0.566948 -3.83937 0
M  V30 1624 H 147.583 2.68738 -2.5809 0
M  V30 1625 H 147.696 2.02162 -4.34359 0
M  V30 1626 H 146.06 1.16169 -2.26665 0
M  V30 1627 H 146.843 -0.035676 -3.43281 0
M  V30 1628 N 149.288 1.51039 0.449983 0
M  V30 1629 C 150.565 1.53612 1.21089 0
M  V30 1630 C 150.945 0.292997 2.09057 0
M  V30 1631 O 150.293 -0.72259 2.16774 0
M  V30 1632 C 150.503 2.84337 2.0237 0
M  V30 1633 C 151.851 3.35807 2.59843 0
M  V30 1634 O 152.875 2.85802 2.12593 0
M  V30 1635 O 151.734 4.23029 3.45989 0
M  V30 1636 H 148.828 0.617057 0.550608 0
M  V30 1637 H 151.374 1.63344 0.460082 0
M  V30 1638 H 150.146 3.66278 1.37681 0
M  V30 1639 H 149.769 2.77708 2.84542 0
M  V30 1640 N 150.766 -0.704594 1.40972 0
M  V30 1641 C 152.177 -1.28418 1.3552 0
M  V30 1642 C 152.528 -1.96171 0.0339434 0
M  V30 1643 O 151.653 -1.98231 -0.867944 0
M  V30 1644 C 152.248 -2.33528 2.45459 0
M  V30 1645 C 150.807 -2.87085 2.43433 0
M  V30 1646 C 149.954 -1.61007 2.2577 0
M  V30 1647 H 152.905 -0.499963 1.50619 0
M  V30 1648 H 152.926 -3.14619 2.13998 0
M  V30 1649 H 152.438 -1.84187 3.41609 0
M  V30 1650 H 150.539 -3.40626 1.51013 0
M  V30 1651 H 150.652 -3.3813 3.39419 0
M  V30 1652 H 149.016 -1.86482 1.73483 0
M  V30 1653 H 149.799 -1.13675 3.23933 0
M  V30 1654 N 152.244 -1.26651 -0.937939 0
M  V30 1655 C 153.207 -1.08546 -2.01867 0
M  V30 1656 C 154.207 -0.0327327 -1.60767 0
M  V30 1657 O 155.397 -0.276427 -1.71993 0
M  V30 1658 C 152.529 -0.651711 -3.34613 0
M  V30 1659 H 153.722 -2.04502 -2.1936 0
M  V30 1660 H 151.275 -1.09294 -1.11734 0
M  V30 1661 H 152.01 0.309696 -3.22818 0
M  V30 1662 H 151.795 -1.41189 -3.65798 0
M  V30 1663 H 153.285 -0.546973 -4.14002 0
M  V30 1664 N 153.722 1.14298 -1.08507 0
M  V30 1665 C 154.685 2.17607 -0.719711 0
M  V30 1666 C 155.685 1.58907 0.245997 0
M  V30 1667 O 156.875 1.74181 0.0254081 0
M  V30 1668 C 154.007 3.40842 -0.0627695 0
M  V30 1669 H 155.2 2.51443 -1.63452 0
M  V30 1670 H 152.753 1.28963 -0.88307 0
M  V30 1671 H 153.488 3.12587 0.863716 0
M  V30 1672 H 153.273 3.84713 -0.757504 0
M  V30 1673 H 154.763 4.17221 0.177786 0
M  V30 1674 N 155.201 0.870884 1.31352 0
M  V30 1675 C 156.429 0.49677 2.00848 0
M  V30 1676 C 156.844 -0.910998 1.65367 0
M  V30 1677 O 156.201 -1.59696 0.883374 0
M  V30 1678 C 156.252 0.645308 3.55694 0
M  V30 1679 O 155.973 1.99764 3.89905 0
M  V30 1680 C 157.474 0.272326 4.42463 0
M  V30 1681 H 154.694 0.193462 0.642506 0
M  V30 1682 H 157.238 1.1723 1.67563 0
M  V30 1683 H 155.393 0.0173176 3.87396 0
M  V30 1684 H 155.807 2.00607 4.84621 0
M  V30 1685 H 157.281 0.427208 5.50344 0
M  V30 1686 H 157.758 -0.788587 4.32062 0
M  V30 1687 H 158.364 0.876054 4.1618 0
M  V30 1688 N 156.679 -1.44442 0.630414 0
M  V30 1689 C 157.629 -2.27794 -0.0968103 0
M  V30 1690 C 158.613 -1.38624 -0.816834 0
M  V30 1691 O 159.805 -1.62438 -0.70306 0
M  V30 1692 C 156.934 -3.25929 -1.07819 0
M  V30 1693 C 156.02 -4.22588 -0.357826 0
M  V30 1694 N 156.411 -5.0207 0.613169 0
M  V30 1695 C 154.709 -4.41914 -0.602365 0
M  V30 1696 C 155.41 -5.72351 1.03871 0
M  V30 1697 N 154.386 -5.42287 0.377642 0
M  V30 1698 H 158.188 -2.86653 0.648621 0
M  V30 1699 H 155.702 -1.55871 0.455862 0
M  V30 1700 H 157.699 -3.84399 -1.61378 0
M  V30 1701 H 156.359 -2.68631 -1.82393 0
M  V30 1702 H 157.37 -5.08331 0.990947 0
M  V30 1703 H 154.047 -3.95714 -1.33103 0
M  V30 1704 H 155.437 -6.4619 1.84086 0
M  V30 1705 N 158.157 -0.370918 -1.53173 0
M  V30 1706 C 159.434 0.273754 -1.93675 0
M  V30 1707 C 159.814 1.65938 -1.3049 0
M  V30 1708 O 159.162 2.23698 -0.465999 0
M  V30 1709 C 159.372 0.318602 -3.47543 0
M  V30 1710 C 160.72 0.556392 -4.20939 0
M  V30 1711 O 161.744 0.399587 -3.53952 0
M  V30 1712 O 160.603 0.862133 -5.39657 0
M  V30 1713 H 157.697 0.165448 -0.810281 0
M  V30 1714 H 160.243 -0.42409 -1.64315 0
M  V30 1715 H 159.015 -0.652687 -3.85818 0
M  V30 1716 H 158.638 1.06212 -3.83151 0
M  V30 1717 N 159.635 1.57281 -0.100228 0
M  V30 1718 C 160.883 1.94153 0.561157 0
M  V30 1719 C 161.204 0.983157 1.68401 0
M  V30 1720 O 160.474 0.0361132 1.95867 0
M  V30 1721 H 159.054 0.716791 0.210283 0
M  V30 1722 H 161.716 1.94202 -0.164765 0
M  V30 1723 H 160.812 2.96709 0.968008 0
M  V30 1724 N 161.113 -0.173488 1.56642 0
M  V30 1725 C 162.524 -0.736155 1.71574 0
M  V30 1726 C 162.875 -1.82888 0.710389 0
M  V30 1727 O 162 -2.16017 -0.1287 0
M  V30 1728 C 162.595 -1.34211 3.11083 0
M  V30 1729 C 161.154 -1.85162 3.27707 0
M  V30 1730 C 160.301 -0.729765 2.67525 0
M  V30 1731 H 163.252 0.0518786 1.58615 0
M  V30 1732 H 163.273 -2.21178 3.09613 0
M  V30 1733 H 162.785 -0.546579 3.84232 0
M  V30 1734 H 160.886 -2.67366 2.59512 0
M  V30 1735 H 160.999 -1.99855 4.35425 0
M  V30 1736 H 159.363 -1.14965 2.27278 0
M  V30 1737 H 160.146 0.0538806 3.43258 0
M  V30 1738 N 162.591 -1.51276 -0.441967 0
M  V30 1739 C 163.523 -1.68444 -1.55433 0
M  V30 1740 C 164.536 -0.565187 -1.52674 0
M  V30 1741 O 165.725 -0.839356 -1.57534 0
M  V30 1742 C 162.825 -1.67966 -2.94348 0
M  V30 1743 C 161.998 -2.964 -3.21661 0
M  V30 1744 C 161.057 -2.88171 -4.40277 0
M  V30 1745 O 160.083 -3.62119 -4.39157 0
M  V30 1746 N 161.285 -2.03706 -5.43584 0
M  V30 1747 H 164.05 -2.644 -1.41112 0
M  V30 1748 H 161.611 -1.49104 -0.630838 0
M  V30 1749 H 163.603 -1.60035 -3.71713 0
M  V30 1750 H 162.173 -0.796225 -3.0229 0
M  V30 1751 H 161.393 -3.18234 -2.32638 0
M  V30 1752 H 162.681 -3.81427 -3.36736 0
M  V30 1753 H 162.079 -1.42995 -5.47329 0
M  V30 1754 H 160.636 -2.01658 -6.1982 0
M  V30 1755 N 164.069 0.697108 -1.41344 0
M  V30 1756 C 165.294 1.49096 -1.44171 0
M  V30 1757 C 165.719 1.88038 -0.0481568 0
M  V30 1758 O 165.077 1.54525 0.948243 0
M  V30 1759 C 165.125 2.73088 -2.3549 0
M  V30 1760 O 164.229 3.70514 -1.81088 0
M  V30 1761 H 163.57 0.448801 -0.489361 0
M  V30 1762 H 166.1 0.856992 -1.85787 0
M  V30 1763 H 166.11 3.21413 -2.51312 0
M  V30 1764 H 164.785 2.44081 -3.36745 0
M  V30 1765 H 163.362 3.29441 -1.74708 0
M  V30 1766 N 165.547 1.27147 0.931209 0
M  V30 1767 C 166.958 1.12044 1.49342 0
M  V30 1768 C 167.309 -0.295795 1.93957 0
M  V30 1769 O 166.434 -1.18835 1.80852 0
M  V30 1770 C 167.029 2.02781 2.71414 0
M  V30 1771 C 165.588 1.91794 3.2387 0
M  V30 1772 C 164.735 1.95543 1.96617 0
M  V30 1773 H 167.686 1.40091 0.745672 0
M  V30 1774 H 167.707 1.58156 3.46074 0
M  V30 1775 H 167.219 3.05848 2.38911 0
M  V30 1776 H 165.32 0.916992 3.6114 0
M  V30 1777 H 165.433 2.77852 3.90302 0
M  V30 1778 H 163.797 1.39722 2.12955 0
M  V30 1779 H 164.58 3.00259 1.66432 0
M  V30 1780 N 167.025 -1.13721 1.09112 0
M  V30 1781 C 168.273 -1.84559 0.823562 0
M  V30 1782 C 168.594 -1.83754 -0.652658 0
M  V30 1783 O 167.864 -1.29102 -1.47342 0
M  V30 1784 H 166.444 -0.683376 0.301673 0
M  V30 1785 H 169.106 -1.37771 1.37859 0
M  V30 1786 H 168.202 -2.8917 1.17419 0
M  V30 1787 N 168.503 -0.877838 -1.30888 0
M  V30 1788 C 169.466 -0.344265 -2.266 0
M  V30 1789 C 170.466 0.50922 -1.52524 0
M  V30 1790 O 171.656 0.317398 -1.71284 0
M  V30 1791 C 168.788 0.510198 -3.37061 0
M  V30 1792 H 169.981 -1.1893 -2.7531 0
M  V30 1793 H 167.534 -0.654088 -1.41956 0
M  V30 1794 H 168.269 1.37612 -2.93655 0
M  V30 1795 H 168.054 -0.101047 -3.9197 0
M  V30 1796 H 169.544 0.875537 -4.08319 0
M  V30 1797 N 169.982 1.44106 -0.638065 0
M  V30 1798 C 171.23 2.01579 -0.145043 0
M  V30 1799 C 171.551 1.50496 1.24 0
M  V30 1800 O 170.821 0.711374 1.82527 0
M  V30 1801 H 169.401 0.745282 -0.05063 0
M  V30 1802 H 172.063 1.76516 -0.826327 0
M  V30 1803 H 171.159 3.11877 -0.118039 0
M  V30 1804 N 171.46 0.379036 1.52974 0
M  V30 1805 C 172.708 -0.206014 2.01047 0
M  V30 1806 C 173.029 -1.48175 1.26765 0
M  V30 1807 O 172.299 -1.92085 0.384743 0
M  V30 1808 H 170.879 -0.0791184 0.742798 0
M  V30 1809 H 173.541 0.508366 1.88153 0
M  V30 1810 H 172.637 -0.423501 3.09213 0
M  V30 1811 N 172.938 -1.57226 0.108567 0
M  V30 1812 C 174.349 -1.8195 -0.418464 0
M  V30 1813 C 174.7 -1.02508 -1.67292 0
M  V30 1814 O 173.825 -0.258496 -2.14851 0
M  V30 1815 C 174.42 -3.30028 -0.765979 0
M  V30 1816 C 172.979 -3.55469 -1.23769 0
M  V30 1817 C 172.126 -2.7625 -0.241106 0
M  V30 1818 H 175.077 -1.55149 0.33384 0
M  V30 1819 H 175.098 -3.44086 -1.62434 0
M  V30 1820 H 174.61 -3.87821 0.147219 0
M  V30 1821 H 172.711 -3.03022 -2.16814 0
M  V30 1822 H 172.824 -4.6408 -1.19022 0
M  V30 1823 H 171.188 -2.44133 -0.72602 0
M  V30 1824 H 171.971 -3.36797 0.665007 0
M  V30 1825 N 174.416 0.165178 -1.56732 0
M  V30 1826 C 175.644 0.896218 -1.86482 0
M  V30 1827 C 176.059 1.75555 -0.694675 0
M  V30 1828 O 175.416 1.79379 0.33607 0
M  V30 1829 C 175.467 1.76792 -3.1532 0
M  V30 1830 O 175.188 0.943239 -4.27825 0
M  V30 1831 C 176.689 2.6081 -3.58459 0
M  V30 1832 H 173.909 0.260064 -0.618553 0
M  V30 1833 H 176.453 0.163428 -2.03846 0
M  V30 1834 H 174.608 2.45398 -2.99764 0
M  V30 1835 H 175.022 1.53998 -5.01383 0
M  V30 1836 H 176.496 3.17579 -4.51495 0
M  V30 1837 H 176.973 3.35977 -2.82872 0
M  V30 1838 H 177.579 1.97526 -3.76648 0
M  V30 1839 N 175.894 1.51508 0.433938 0
M  V30 1840 C 177.134 1.66006 1.19253 0
M  V30 1841 C 177.498 0.369868 1.88404 0
M  V30 1842 O 178.699 0.39066 2.65946 0
M  V30 1843 C 176.97 2.83229 2.17981 0
M  V30 1844 S 178.529 3.18075 3.02281 0
M  V30 1845 H 175.347 0.584821 0.404358 0
M  V30 1846 H 177.949 1.89425 0.48357 0
M  V30 1847 H 176.653 3.75407 1.65824 0
M  V30 1848 H 176.184 2.6201 2.93453 0
M  V30 1849 H 178.199 2.64772 4.19655 0
M  V30 1850 N 177.372 -0.689602 1.41712 0
M  V30 1851 C 178.597 -1.48329 1.44959 0
M  V30 1852 C 179.022 -1.8801 0.0581283 0
M  V30 1853 O 178.38 -1.55026 -0.940035 0
M  V30 1854 C 178.428 -2.71835 2.36935 0
M  V30 1855 O 177.532 -3.69549 1.8305 0
M  V30 1856 H 176.873 -0.446199 0.491734 0
M  V30 1857 H 179.403 -0.847127 1.86239 0
M  V30 1858 H 179.413 -3.20076 2.53013 0
M  V30 1859 H 178.088 -2.42291 3.38035 0
M  V30 1860 H 176.665 -3.2851 1.76452 0
M  V30 1861 N 178.85 -1.27639 -0.924453 0
M  V30 1862 C 179.813 -1.10681 -2.00705 0
M  V30 1863 C 180.813 -0.0497823 -1.60723 0
M  V30 1864 O 182.003 -0.294654 -1.7169 0
M  V30 1865 C 179.135 -0.687164 -3.33902 0
M  V30 1866 H 180.328 -2.06817 -2.17179 0
M  V30 1867 H 177.881 -1.10473 -1.10569 0
M  V30 1868 H 178.616 0.275439 -3.23128 0
M  V30 1869 H 178.401 -1.45061 -3.6428 0
M  V30 1870 H 179.891 -0.590853 -4.13399 0
M  V30 1871 N 180.328 1.1314 -1.09713 0
M  V30 1872 C 181.556 1.88321 -0.856898 0
M  V30 1873 C 181.971 1.79276 0.592073 0
M  V30 1874 O 181.328 1.16142 1.40774 0
M  V30 1875 C 181.379 3.37812 -1.28706 0
M  V30 1876 O 181.1 3.46627 -2.67921 0
M  V30 1877 C 182.601 4.29952 -1.07964 0
M  V30 1878 H 179.821 0.596094 -0.308079 0
M  V30 1879 H 182.365 1.43205 -1.45988 0
M  V30 1880 H 180.52 3.805 -0.727912 0
M  V30 1881 H 180.934 4.39579 -2.8613 0
M  V30 1882 H 182.408 5.33159 -1.42986 0
M  V30 1883 H 182.885 4.39196 -0.0176577 0
M  V30 1884 H 183.491 3.93036 -1.62489 0
M  V30 1885 N 181.806 0.884767 1.30421 0
M  V30 1886 C 182.754 0.340869 2.30089 0
M  V30 1887 C 183.748 -0.55201 1.60154 0
M  V30 1888 O 184.954 -0.436467 1.74628 0
M  V30 1889 H 181.329 0.0915739 0.746404 0
M  V30 1890 H 183.3 1.19513 2.73421 0
M  V30 1891 C 182.049 -0.429779 3.45034 0
M  V30 1892 H 181.372 0.248024 3.9903 0
M  V30 1893 H 182.812 -0.775445 4.16849 0
M  V30 1894 C 181.271 -1.62677 2.95022 0
M  V30 1895 O 181.801 -2.72614 2.95033 0
M  V30 1896 N 180.007 -1.46387 2.51036 0
M  V30 1897 H 179.554 -0.569506 2.51226 0
M  V30 1898 H 179.512 -2.26612 2.17932 0
M  V30 1899 N 183.284 -1.43765 0.645699 0
M  V30 1900 C 184.214 -2.33471 -0.0370477 0
M  V30 1901 C 185.195 -1.49042 -0.819779 0
M  V30 1902 O 186.38 -1.77726 -0.782758 0
M  V30 1903 C 183.51 -3.32311 -1.0093 0
M  V30 1904 C 182.464 -4.2667 -0.337201 0
M  V30 1905 C 181.79 -5.1549 -1.42037 0
M  V30 1906 C 183.09 -5.16657 0.765706 0
M  V30 1907 H 184.784 -2.90809 0.712069 0
M  V30 1908 H 182.33 -1.39834 0.343876 0
M  V30 1909 H 184.283 -3.9396 -1.49578 0
M  V30 1910 H 183.007 -2.73213 -1.78948 0
M  V30 1911 H 181.666 -3.66374 0.128771 0
M  V30 1912 H 181.314 -4.52735 -2.1918 0
M  V30 1913 H 181.014 -5.79438 -0.975966 0
M  V30 1914 H 182.538 -5.80012 -1.90838 0
M  V30 1915 H 183.952 -5.72158 0.361702 0
M  V30 1916 H 182.349 -5.89286 1.13413 0
M  V30 1917 H 183.419 -4.56796 1.62683 0
M  V30 1918 N 184.763 -0.387143 -1.52771 0
M  V30 1919 C 185.988 0.198407 -2.06449 0
M  V30 1920 C 186.413 1.39918 -1.25716 0
M  V30 1921 O 185.771 1.79099 -0.281657 0
M  V30 1922 C 185.819 0.548893 -3.56398 0
M  V30 1923 O 184.923 1.64315 -3.78252 0
M  V30 1924 H 184.264 0.0237731 -0.663574 0
M  V30 1925 H 186.794 -0.553989 -1.96957 0
M  V30 1926 H 186.804 0.813812 -3.99801 0
M  V30 1927 H 185.479 -0.329005 -4.14597 0
M  V30 1928 H 184.056 1.37211 -3.46738 0
M  V30 1929 N 186.241 1.57166 -0.116904 0
M  V30 1930 C 187.657 1.5779 0.239693 0
M  V30 1931 C 187.857 1.1295 1.66867 0
M  V30 1932 O 186.913 0.81592 2.38954 0
M  V30 1933 C 188.226 3.00699 0.00828202 0
M  V30 1934 C 189.774 3.12912 0.0743438 0
M  V30 1935 C 190.249 4.57817 -0.129348 0
M  V30 1936 N 191.74 4.63139 -0.075247 0
M  V30 1937 C 192.475 5.73023 -0.207788 0
M  V30 1938 N 191.971 6.91665 -0.396382 0
M  V30 1939 N 193.764 5.61906 -0.14751 0
M  V30 1940 H 185.915 1.84615 -1.05029 0
M  V30 1941 H 188.178 0.85311 -0.41341 0
M  V30 1942 H 187.884 3.37784 -0.979531 0
M  V30 1943 H 187.758 3.69848 0.741077 0
M  V30 1944 H 190.145 2.75686 1.05268 0
M  V30 1945 H 190.226 2.4631 -0.690297 0
M  V30 1946 H 189.87 4.95742 -1.10465 0
M  V30 1947 H 189.8 5.22507 0.655253 0
M  V30 1948 H 192.291 3.7784 0.0670898 0
M  V30 1949 H 192.604 7.71255 -0.488437 0
M  V30 1950 H 190.949 6.93654 -0.432329 0
M  V30 1951 H 194.14 4.681 -0.00115036 0
M  V30 1952 H 194.313 6.47501 -0.254247 0
M  V30 1953 N 187.719 -0.156864 1.56817 0
M  V30 1954 C 188.965 -0.872416 1.83076 0
M  V30 1955 C 189.298 -1.81261 0.697001 0
M  V30 1956 O 188.573 -1.92171 -0.30008 0
M  V30 1957 C 188.856 -1.65551 3.19789 0
M  V30 1958 C 188.709 -0.737467 4.43713 0
M  V30 1959 C 190.028 -2.62012 3.53606 0
M  V30 1960 H 187.147 -0.315715 0.665953 0
M  V30 1961 H 189.789 -0.138004 1.89498 0
M  V30 1962 H 187.939 -2.28159 3.14445 0
M  V30 1963 H 189.611 -0.123143 4.61136 0
M  V30 1964 H 187.854 -0.0464067 4.33775 0
M  V30 1965 H 188.525 -1.32122 5.35955 0
M  V30 1966 H 191.001 -2.09525 3.59497 0
M  V30 1967 H 189.877 -3.13861 4.50314 0
M  V30 1968 H 190.138 -3.42902 2.79053 0
M  V30 1969 N 189.197 -1.51736 -0.425897 0
M  V30 1970 C 190.16 -1.73271 -1.50032 0
M  V30 1971 C 191.16 -0.602639 -1.4908 0
M  V30 1972 O 192.35 -0.87033 -1.509 0
M  V30 1973 C 189.482 -1.79969 -2.89523 0
M  V30 1974 H 190.675 -2.69172 -1.32237 0
M  V30 1975 H 188.228 -1.41899 -0.65532 0
M  V30 1976 H 188.963 -0.859241 -3.1271 0
M  V30 1977 H 188.748 -2.62109 -2.91619 0
M  V30 1978 H 190.238 -1.9843 -3.67444 0
M  V30 1979 N 190.675 0.682077 -1.42076 0
M  V30 1980 C 191.923 1.4393 -1.41876 0
M  V30 1981 C 192.244 1.94971 -0.0335599 0
M  V30 1982 O 191.514 1.72591 0.926773 0
M  V30 1983 H 190.094 0.534085 -0.522267 0
M  V30 1984 H 192.756 0.806427 -1.77434 0
M  V30 1985 H 191.852 2.29588 -2.11414 0
M  V30 1986 N 192.153 1.28127 0.917671 0
M  V30 1987 C 193.083 1.14248 2.03641 0
M  V30 1988 C 194.064 0.0412748 1.7005 0
M  V30 1989 O 195.249 0.217566 1.92977 0
M  V30 1990 C 192.379 0.799431 3.37974 0
M  V30 1991 C 191.333 1.85497 3.85713 0
M  V30 1992 C 190.659 1.36565 5.16966 0
M  V30 1993 C 191.959 3.26085 4.08002 0
M  V30 1994 H 193.653 2.07835 2.15511 0
M  V30 1995 H 191.199 1.00064 1.03553 0
M  V30 1996 H 193.152 0.689114 4.15727 0
M  V30 1997 H 191.876 -0.172145 3.26146 0
M  V30 1998 H 190.535 1.95437 3.10161 0
M  V30 1999 H 190.183 0.383253 5.01538 0
M  V30 2000 H 189.883 2.07143 5.49878 0
M  V30 2001 H 191.407 1.26848 5.97279 0
M  V30 2002 H 192.821 3.19089 4.76293 0
M  V30 2003 H 191.218 3.94462 4.52238 0
M  V30 2004 H 192.288 3.70394 3.12948 0
M  V30 2005 N 193.631 -1.12557 1.10312 0
M  V30 2006 C 194.541 -2.21841 0.763142 0
M  V30 2007 C 195.557 -1.72354 -0.238801 0
M  V30 2008 O 196.733 -2.01249 -0.0778746 0
M  V30 2009 C 193.798 -3.46131 0.198632 0
M  V30 2010 C 192.859 -4.10464 1.25769 0
M  V30 2011 C 192.092 -5.28821 0.72002 0
M  V30 2012 O 192.315 -5.6859 -0.453993 0
M  V30 2013 O 191.249 -5.83437 1.47935 0
M  V30 2014 H 195.075 -2.53312 1.67532 0
M  V30 2015 H 192.66 -1.20867 0.878157 0
M  V30 2016 H 194.542 -4.2125 -0.112401 0
M  V30 2017 H 193.217 -3.16338 -0.686419 0
M  V30 2018 H 192.124 -3.3713 1.62156 0
M  V30 2019 H 193.457 -4.44408 2.11571 0
M  V30 2020 N 195.109 -0.891671 -1.2995 0
M  V30 2021 C 196.056 -0.361736 -2.27948 0
M  V30 2022 C 197.026 0.551761 -1.56668 0
M  V30 2023 O 198.211 0.478736 -1.84696 0
M  V30 2024 C 195.351 0.411825 -3.42634 0
M  V30 2025 C 194.464 -0.531651 -4.28716 0
M  V30 2026 C 193.599 0.258167 -5.30572 0
M  V30 2027 C 192.638 -0.680349 -6.08307 0
M  V30 2028 N 191.775 0.0745613 -7.0206 0
M  V30 2029 H 196.615 -1.20254 -2.72659 0
M  V30 2030 H 194.152 -0.604352 -1.34112 0
M  V30 2031 H 196.11 0.876304 -4.07893 0
M  V30 2032 H 194.74 1.21715 -2.98974 0
M  V30 2033 H 193.792 -1.11463 -3.63703 0
M  V30 2034 H 195.104 -1.25038 -4.82874 0
M  V30 2035 H 194.258 0.784204 -6.0161 0
M  V30 2036 H 192.997 1.01008 -4.77126 0
M  V30 2037 H 192.002 -1.21796 -5.3614 0
M  V30 2038 H 193.227 -1.43145 -6.63842 0
M  V30 2039 H 191.173 0.808883 -6.50994 0
M  V30 2040 H 191.09 -0.584409 -7.53738 0
M  V30 2041 H 192.358 0.581123 -7.77331 0
M  V30 2042 N 196.587 1.43421 -0.653314 0
M  V30 2043 C 197.519 2.29071 0.0769134 0
M  V30 2044 C 198.532 1.42513 0.787017 0
M  V30 2045 O 199.721 1.66449 0.644757 0
M  V30 2046 C 196.821 3.19436 1.13199 0
M  V30 2047 C 195.994 4.34533 0.500006 0
M  V30 2048 C 195.053 5.05771 1.45198 0
M  V30 2049 O 194.079 5.61037 0.960538 0
M  V30 2050 N 195.281 5.0928 2.78594 0
M  V30 2051 H 198.046 2.92382 -0.658235 0
M  V30 2052 H 195.607 1.54112 -0.496104 0
M  V30 2053 H 197.599 3.63958 1.76964 0
M  V30 2054 H 196.169 2.57724 1.7691 0
M  V30 2055 H 195.389 3.92925 -0.316738 0
M  V30 2056 H 196.677 5.08766 0.0588345 0
M  V30 2057 H 196.075 4.65751 3.2108 0
M  V30 2058 H 194.632 5.57519 3.37662 0
M  V30 2059 N 198.065 0.39524 1.52563 0
M  V30 2060 C 198.995 -0.428384 2.29537 0
M  V30 2061 C 199.976 -1.05831 1.33169 0
M  V30 2062 O 201.161 -1.06995 1.62067 0
M  V30 2063 C 198.291 -1.55274 3.10656 0
M  V30 2064 C 197.245 -1.04855 4.14957 0
M  V30 2065 C 196.571 -2.26543 4.84337 0
M  V30 2066 C 197.871 -0.112324 5.22179 0
M  V30 2067 H 199.565 0.213867 2.98635 0
M  V30 2068 H 197.111 0.104298 1.43622 0
M  V30 2069 H 199.064 -2.1358 3.63265 0
M  V30 2070 H 197.788 -2.22266 2.39302 0
M  V30 2071 H 196.447 -0.487985 3.63338 0
M  V30 2072 H 196.095 -2.92059 4.09525 0
M  V30 2073 H 195.795 -1.93466 5.54837 0
M  V30 2074 H 197.319 -2.85481 5.39753 0
M  V30 2075 H 198.733 -0.603752 5.70112 0
M  V30 2076 H 197.13 0.128968 5.99961 0
M  V30 2077 H 198.2 0.837052 4.77621 0
M  V30 2078 N 199.544 -1.57102 0.125237 0
M  V30 2079 C 200.507 -2.14471 -0.80838 0
M  V30 2080 C 201.507 -1.0811 -1.19033 0
M  V30 2081 O 202.697 -1.33856 -1.11482 0
M  V30 2082 C 199.829 -2.69005 -2.09402 0
M  V30 2083 H 201.022 -2.98297 -0.309696 0
M  V30 2084 H 198.575 -1.55807 -0.124051 0
M  V30 2085 H 199.31 -1.88785 -2.63687 0
M  V30 2086 H 199.095 -3.46799 -1.82957 0
M  V30 2087 H 200.585 -3.13278 -2.76128 0
M  V30 2088 N 201.022 0.148545 -1.56898 0
M  V30 2089 C 202.271 0.85984 -1.82454 0
M  V30 2090 C 202.584 1.82406 -0.706229 0
M  V30 2091 O 203.79 2.57938 -0.847349 0
M  V30 2092 C 202.246 1.57967 -3.2338 0
M  V30 2093 C 201.854 0.65794 -4.43142 0
M  V30 2094 C 203.598 2.27784 -3.58211 0
M  V30 2095 C 201.505 1.3793 -5.75091 0
M  V30 2096 H 200.435 0.324834 -0.68044 0
M  V30 2097 H 203.086 0.112588 -1.83154 0
M  V30 2098 H 201.468 2.37249 -3.17063 0
M  V30 2099 H 202.642 -0.0995497 -4.60692 0
M  V30 2100 H 200.957 0.0682643 -4.16344 0
M  V30 2101 H 203.554 2.8239 -4.54048 0
M  V30 2102 H 203.897 3.04204 -2.84193 0
M  V30 2103 H 204.43 1.55421 -3.66182 0
M  V30 2104 H 201.169 0.656982 -6.52199 0
M  V30 2105 H 200.689 2.10954 -5.61479 0
M  V30 2106 H 202.368 1.92063 -6.17835 0
M  V30 2107 N 202.5 1.5196 0.417844 0
M  V30 2108 C 203.41 1.77554 1.53336 0
M  V30 2109 C 204.426 0.660655 1.6097 0
M  V30 2110 O 205.602 0.945099 1.77848 0
M  V30 2111 C 202.667 1.91291 2.89152 0
M  V30 2112 C 201.728 3.15183 2.91475 0
M  V30 2113 C 200.961 3.28256 4.20813 0
M  V30 2114 O 201.184 2.46798 5.14244 0
M  V30 2115 O 200.118 4.21356 4.29817 0
M  V30 2116 H 203.944 2.7222 1.34647 0
M  V30 2117 H 201.529 1.36698 0.602828 0
M  V30 2118 H 203.411 2.02199 3.69721 0
M  V30 2119 H 202.086 0.998129 3.07927 0
M  V30 2120 H 200.993 3.09739 2.09791 0
M  V30 2121 H 202.326 4.06414 2.77648 0
M  V30 2122 N 203.978 -0.674533 1.42435 0
M  V30 2123 C 204.908 -1.80009 1.48724 0
M  V30 2124 C 205.889 -1.6659 0.343793 0
M  V30 2125 O 207.074 -1.86007 0.558137 0
M  V30 2126 C 204.204 -3.18306 1.38919 0
M  V30 2127 C 203.158 -3.46461 2.51294 0
M  V30 2128 C 202.484 -4.84335 2.26547 0
M  V30 2129 C 203.784 -3.43328 3.93603 0
M  V30 2130 H 205.478 -1.75004 2.42928 0
M  V30 2131 H 203.024 -0.840533 1.16923 0
M  V30 2132 H 204.977 -3.9678 1.41927 0
M  V30 2133 H 203.701 -3.2399 0.412094 0
M  V30 2134 H 202.36 -2.70348 2.47604 0
M  V30 2135 H 202.008 -4.86669 1.2713 0
M  V30 2136 H 201.708 -5.04136 3.01861 0
M  V30 2137 H 203.232 -5.65094 2.31304 0
M  V30 2138 H 204.646 -4.11772 3.98894 0
M  V30 2139 H 203.043 -3.74664 4.68771 0
M  V30 2140 H 204.113 -2.41897 4.20255 0
M  V30 2141 N 205.456 -1.28612 -0.910864 0
M  V30 2142 C 206.403 -1.12786 -2.01365 0
M  V30 2143 C 207.373 -0.024201 -1.66082 0
M  V30 2144 O 208.558 -0.189667 -1.89855 0
M  V30 2145 C 205.698 -0.798743 -3.35729 0
M  V30 2146 C 204.811 -1.98173 -3.83864 0
M  V30 2147 C 203.946 -1.59298 -5.06752 0
M  V30 2148 C 202.985 -2.74245 -5.47226 0
M  V30 2149 N 202.122 -2.35842 -6.61304 0
M  V30 2150 H 206.962 -2.07142 -2.14234 0
M  V30 2151 H 204.499 -1.03093 -1.0493 0
M  V30 2152 H 206.457 -0.588662 -4.13026 0
M  V30 2153 H 205.087 0.10789 -3.2262 0
M  V30 2154 H 204.139 -2.30386 -3.02699 0
M  V30 2155 H 205.451 -2.84343 -4.09818 0
M  V30 2156 H 204.605 -1.34513 -5.916 0
M  V30 2157 H 203.344 -0.702618 -4.82612 0
M  V30 2158 H 202.349 -2.99725 -4.60918 0
M  V30 2159 H 203.574 -3.63928 -5.73353 0
M  V30 2160 H 201.52 -1.49279 -6.38789 0
M  V30 2161 H 201.437 -3.15546 -6.86998 0
M  V30 2162 H 202.705 -2.14348 -7.4945 0
M  V30 2163 N 206.934 1.1197 -1.10907 0
M  V30 2164 C 208.18 1.8386 -0.855773 0
M  V30 2165 C 208.513 1.84134 0.617103 0
M  V30 2166 O 207.788 1.29041 1.45529 0
M  V30 2167 C 208.071 3.31305 -1.411 0
M  V30 2168 C 207.924 3.39456 -2.9511 0
M  V30 2169 C 209.243 4.2721 -1.05736 0
M  V30 2170 H 206.362 0.667545 -0.312334 0
M  V30 2171 H 209.004 1.31331 -1.37303 0
M  V30 2172 H 207.154 3.76169 -0.97105 0
M  V30 2173 H 208.826 3.03191 -3.47668 0
M  V30 2174 H 207.069 2.79849 -3.31462 0
M  V30 2175 H 207.74 4.43209 -3.29044 0
M  V30 2176 H 210.216 3.90497 -1.43706 0
M  V30 2177 H 209.092 5.28775 -1.47269 0
M  V30 2178 H 209.353 4.42088 0.0325958 0
M  V30 2179 N 208.412 0.89855 1.29475 0
M  V30 2180 C 209.359 0.373819 2.27753 0
M  V30 2181 C 210.329 -0.543444 1.56958 0
M  V30 2182 O 211.514 -0.468934 1.84948 0
M  V30 2183 C 208.654 -0.393648 3.42848 0
M  V30 2184 C 207.767 0.554379 4.28428 0
M  V30 2185 C 206.902 -0.230026 5.30702 0
M  V30 2186 C 205.941 0.712599 6.07938 0
M  V30 2187 N 205.078 -0.0373283 7.0209 0
M  V30 2188 H 209.918 1.21699 2.72017 0
M  V30 2189 H 207.455 0.611456 1.33789 0
M  V30 2190 H 209.413 -0.85466 4.08352 0
M  V30 2191 H 208.043 -1.20128 2.99615 0
M  V30 2192 H 207.095 1.13391 3.63107 0
M  V30 2193 H 208.407 1.27597 4.82204 0
M  V30 2194 H 207.561 -0.752288 6.02018 0
M  V30 2195 H 206.3 -0.984758 4.77654 0
M  V30 2196 H 205.305 1.24637 5.35486 0
M  V30 2197 H 206.53 1.46664 6.63074 0
M  V30 2198 H 204.476 -0.774348 6.51414 0
M  V30 2199 H 204.393 0.624374 7.53417 0
M  V30 2200 H 205.661 -0.539891 7.77628 0
M  V30 2201 N 209.89 -1.43072 0.660911 0
M  V30 2202 C 210.822 -2.29108 -0.0647641 0
M  V30 2203 C 211.835 -1.42928 -0.779448 0
M  V30 2204 O 213.024 -1.66788 -0.635921 0
M  V30 2205 C 210.124 -3.20032 -1.11503 0
M  V30 2206 C 209.297 -4.34792 -0.476955 0
M  V30 2207 C 208.356 -5.06534 -1.42513 0
M  V30 2208 O 207.382 -5.61538 -0.930771 0
M  V30 2209 N 208.584 -5.1075 -2.75889 0
M  V30 2210 H 211.349 -2.92029 0.673731 0
M  V30 2211 H 208.91 -1.53846 0.50427 0
M  V30 2212 H 210.902 -3.64892 -1.75032 0
M  V30 2213 H 209.472 -2.58658 -1.75541 0
M  V30 2214 H 208.692 -3.92752 0.337572 0
M  V30 2215 H 209.98 -5.0879 -0.0318525 0
M  V30 2216 H 209.378 -4.67447 -3.18606 0
M  V30 2217 H 207.935 -5.59302 -3.347 0
M  V30 2218 N 211.368 -0.403325 -1.52352 0
M  V30 2219 C 212.616 0.174003 -2.0135 0
M  V30 2220 C 212.937 1.46139 -1.29106 0
M  V30 2221 O 212.207 1.91448 -0.415253 0
M  V30 2222 H 210.787 0.0672911 -0.743963 0
M  V30 2223 H 213.449 -0.538235 -1.87321 0
M  V30 2224 H 212.545 0.374254 -3.09848 0
M  V30 2225 N 212.846 1.57033 -0.133567 0
M  V30 2226 C 213.809 2.14897 0.796995 0
M  V30 2227 C 214.809 1.0874 1.18458 0
M  V30 2228 O 215.999 1.34446 1.1077 0
M  V30 2229 C 213.131 2.70112 2.07973 0
M  V30 2230 H 214.324 2.98457 0.293873 0
M  V30 2231 H 211.877 1.55871 0.115787 0
M  V30 2232 H 212.612 1.9018 2.62682 0
M  V30 2233 H 212.397 3.47764 1.81115 0
M  V30 2234 H 213.887 3.14738 2.74462 0
M  V30 2235 N 214.325 -0.140222 1.56975 0
M  V30 2236 C 215.235 -1.19223 2.02047 0
M  V30 2237 C 216.251 -1.46612 0.937062 0
M  V30 2238 O 217.427 -1.58148 1.24704 0
M  V30 2239 C 214.492 -2.50414 2.39778 0
M  V30 2240 C 213.553 -2.30612 3.621 0
M  V30 2241 C 212.786 -3.55547 3.98023 0
M  V30 2242 O 213.009 -4.62004 3.34528 0
M  V30 2243 O 211.943 -3.47808 4.91237 0
M  V30 2244 H 215.769 -0.839559 2.91865 0
M  V30 2245 H 213.354 -0.349453 1.45256 0
M  V30 2246 H 215.236 -3.27747 2.64877 0
M  V30 2247 H 213.911 -2.85198 1.53114 0
M  V30 2248 H 212.818 -1.51207 3.4218 0
M  V30 2249 H 214.151 -2.00741 4.49404 0
M  V30 2250 N 215.803 -1.52179 -0.40978 0
M  V30 2251 C 216.751 -1.76086 -1.51975 0
M  V30 2252 C 217.745 -0.627964 -1.57331 0
M  V30 2253 O 218.951 -0.809993 -1.60745 0
M  V30 2254 H 215.326 -0.556829 -0.505416 0
M  V30 2255 H 217.297 -2.69077 -1.28996 0
M  V30 2256 C 216.046 -1.92799 -2.8935 0
M  V30 2257 H 215.369 -2.79392 -2.85972 0
M  V30 2258 H 216.809 -2.13527 -3.66309 0
M  V30 2259 C 215.268 -0.694923 -3.29655 0
M  V30 2260 O 215.798 0.13751 -4.01465 0
M  V30 2261 N 214.004 -0.53101 -2.85707 0
M  V30 2262 H 213.551 -1.20952 -2.27439 0
M  V30 2263 H 213.509 0.292718 -3.13034 0
M  V30 2264 N 217.281 0.66697 -1.42791 0
M  V30 2265 C 218.214 1.79177 -1.41318 0
M  V30 2266 C 219.192 1.60234 -0.276401 0
M  V30 2267 O 220.376 1.82602 -0.46785 0
M  V30 2268 C 217.503 3.16289 -1.21157 0
M  V30 2269 C 216.549 3.53964 -2.37932 0
M  V30 2270 S 217.382 3.55501 -4.00474 0
M  V30 2271 C 218.538 4.95292 -3.8267 0
M  V30 2272 H 218.771 1.80153 -2.365 0
M  V30 2273 H 216.304 0.838357 -1.29657 0
M  V30 2274 H 218.262 3.95428 -1.10212 0
M  V30 2275 H 216.923 3.1289 -0.275481 0
M  V30 2276 H 216.116 4.53646 -2.19594 0
M  V30 2277 H 215.718 2.82204 -2.45432 0
M  V30 2278 H 218.01 5.83584 -3.44145 0
M  V30 2279 H 218.953 5.18679 -4.82055 0
M  V30 2280 H 219.361 4.68179 -3.15386 0
M  V30 2281 N 218.759 1.29093 0.90403 0
M  V30 2282 C 220.008 1.16187 1.64874 0
M  V30 2283 C 220.321 -0.286742 1.93487 0
M  V30 2284 O 221.527 -0.537062 2.66135 0
M  V30 2285 C 219.983 2.03177 2.97064 0
M  V30 2286 C 219.591 3.52836 2.76062 0
M  V30 2287 C 221.335 1.98984 3.74974 0
M  V30 2288 C 219.242 4.31945 4.03952 0
M  V30 2289 H 218.172 0.431246 0.618501 0
M  V30 2290 H 220.823 1.53699 1.00243 0
M  V30 2291 H 219.205 1.5853 3.62883 0
M  V30 2292 H 220.379 4.05507 2.18863 0
M  V30 2293 H 218.694 3.58656 2.11553 0
M  V30 2294 H 221.291 2.55351 4.69787 0
M  V30 2295 H 221.634 0.968815 4.0487 0
M  V30 2296 H 222.167 2.41652 3.15989 0
M  V30 2297 H 218.906 5.34667 3.79225 0
M  V30 2298 H 218.426 3.84045 4.60727 0
M  V30 2299 H 220.105 4.42379 4.72133 0
M  V30 2300 N 220.237 -1.11381 1.11499 0
M  V30 2301 C 221.169 -2.17207 0.731704 0
M  V30 2302 C 222.182 -1.61066 -0.236957 0
M  V30 2303 O 223.371 -1.78489 -0.0197591 0
M  V30 2304 C 220.471 -3.38846 0.0607624 0
M  V30 2305 C 219.644 -4.24451 1.0564 0
M  V30 2306 C 218.703 -5.24562 0.4149 0
M  V30 2307 O 217.729 -5.59071 1.069 0
M  V30 2308 N 218.931 -5.74651 -0.821943 0
M  V30 2309 H 221.696 -2.50699 1.64225 0
M  V30 2310 H 219.257 -1.26908 1.00529 0
M  V30 2311 H 221.249 -4.02911 -0.380139 0
M  V30 2312 H 219.819 -3.03411 -0.752376 0
M  V30 2313 H 219.039 -3.56833 1.67524 0
M  V30 2314 H 220.327 -4.78486 1.72998 0
M  V30 2315 H 219.725 -5.48797 -1.37252 0
M  V30 2316 H 218.282 -6.40549 -1.20582 0
M  V30 2317 N 221.715 -0.905404 -1.28997 0
M  V30 2318 C 222.943 -0.549846 -1.9946 0
M  V30 2319 C 223.358 0.866834 -1.67724 0
M  V30 2320 O 222.715 1.57298 -0.925404 0
M  V30 2321 C 222.766 -0.739387 -3.53858 0
M  V30 2322 O 222.487 -2.10031 -3.84472 0
M  V30 2323 C 223.988 -0.389541 -4.41585 0
M  V30 2324 H 221.208 -0.210429 -0.637151 0
M  V30 2325 H 223.752 -1.21632 -1.64396 0
M  V30 2326 H 221.907 -0.120023 -3.87214 0
M  V30 2327 H 222.321 -2.13385 -4.79132 0
M  V30 2328 H 223.795 -0.572972 -5.49018 0
M  V30 2329 H 224.272 0.673756 -4.34001 0
M  V30 2330 H 224.878 -0.986089 -4.1371 0
M  V30 2331 N 223.193 1.4272 -0.668489 0
M  V30 2332 C 224.423 2.05668 -0.196063 0
M  V30 2333 C 224.831 1.5028 1.14946 0
M  V30 2334 O 224.174 0.6348 1.72383 0
M  V30 2335 C 224.236 3.59469 -0.0468879 0
M  V30 2336 C 223.9 4.37518 -1.32012 0
M  V30 2337 C 224.897 4.68584 -2.25222 0
M  V30 2338 C 222.582 4.77266 -1.56596 0
M  V30 2339 C 224.576 5.38326 -3.41297 0
M  V30 2340 C 222.263 5.4675 -2.72962 0
M  V30 2341 C 223.261 5.77204 -3.65137 0
M  V30 2342 O 222.949 6.45264 -4.79468 0
M  V30 2343 H 222.681 0.669382 -0.0943599 0
M  V30 2344 H 225.235 1.83954 -0.913788 0
M  V30 2345 H 223.465 3.79817 0.726357 0
M  V30 2346 H 225.154 4.04071 0.384852 0
M  V30 2347 H 225.92 4.38382 -2.07477 0
M  V30 2348 H 221.799 4.52959 -0.857249 0
M  V30 2349 H 225.343 5.62014 -4.13263 0
M  V30 2350 H 221.24 5.76369 -2.90635 0
M  V30 2351 H 222.008 6.63753 -4.78931 0
M  V30 2352 N 224.671 0.411399 1.52136 0
M  V30 2353 C 225.896 -0.165538 2.06738 0
M  V30 2354 C 226.321 -1.379 1.27926 0
M  V30 2355 O 225.679 -1.78628 0.310114 0
M  V30 2356 C 225.727 -0.492124 3.57226 0
M  V30 2357 O 224.831 -1.58276 3.80818 0
M  V30 2358 H 224.172 -0.0132132 0.663869 0
M  V30 2359 H 226.702 0.585253 1.96051 0
M  V30 2360 H 226.712 -0.750104 4.01045 0
M  V30 2361 H 225.387 0.394922 4.14021 0
M  V30 2362 H 223.964 -1.31677 3.48877 0
M  V30 2363 N 226.149 -1.5696 0.141893 0
M  V30 2364 C 227.097 -2.17784 -0.816874 0
M  V30 2365 C 228.091 -1.1334 -1.25899 0
M  V30 2366 O 229.297 -1.316 -1.22806 0
M  V30 2367 H 225.672 -0.697278 -0.281615 0
M  V30 2368 H 227.643 -2.97087 -0.279621 0
M  V30 2369 C 226.392 -2.80983 -2.04802 0
M  V30 2370 H 225.715 -3.61062 -1.7168 0
M  V30 2371 H 227.155 -3.2705 -2.69841 0
M  V30 2372 C 225.614 -1.79228 -2.8527 0
M  V30 2373 O 226.144 -1.25962 -3.8144 0
M  V30 2374 N 224.35 -1.48647 -2.49704 0
M  V30 2375 H 223.897 -1.92155 -1.71564 0
M  V30 2376 H 223.855 -0.808115 -3.03837 0
M  V30 2377 N 227.627 0.131896 -1.57047 0
M  V30 2378 C 228.875 0.840269 -1.83804 0
M  V30 2379 C 229.196 1.81017 -0.72512 0
M  V30 2380 O 228.466 1.94272 0.251995 0
M  V30 2381 H 227.046 0.313294 -0.678127 0
M  V30 2382 H 229.708 0.122294 -1.94516 0
M  V30 2383 H 228.804 1.39335 -2.79271 0
M  V30 2384 N 229.106 1.52395 0.401703 0
M  V30 2385 C 230.331 1.70972 1.17403 0
M  V30 2386 C 230.756 0.421615 1.83314 0
M  V30 2387 O 230.114 -0.621564 1.70312 0
M  V30 2388 C 230.162 2.85151 2.20728 0
M  V30 2389 O 229.266 2.51238 3.27037 0
M  V30 2390 H 228.607 0.568927 0.342372 0
M  V30 2391 H 231.137 1.99131 0.469891 0
M  V30 2392 H 231.147 3.10279 2.64936 0
M  V30 2393 H 229.822 3.78603 1.7214 0
M  V30 2394 H 228.399 2.36808 2.88057 0
M  V30 2395 N 230.584 -0.659388 1.43143 0
M  V30 2396 C 231.812 -1.44723 1.47861 0
M  V30 2397 C 232.227 -1.88563 0.0945886 0
M  V30 2398 O 231.584 -1.59108 -0.893915 0
M  V30 2399 C 231.635 -2.68627 2.41913 0
M  V30 2400 O 231.356 -2.26623 3.74932 0
M  V30 2401 C 232.857 -3.62045 2.55809 0
M  V30 2402 H 230.077 -0.444801 0.502387 0
M  V30 2403 H 232.621 -0.808916 1.87821 0
M  V30 2404 H 230.776 -3.28613 2.05164 0
M  V30 2405 H 231.19 -3.06745 4.2545 0
M  V30 2406 H 232.664 -4.45666 3.25708 0
M  V30 2407 H 233.141 -4.08981 1.60099 0
M  V30 2408 H 233.747 -3.07944 2.93344 0
M  V30 2409 N 232.062 -1.29571 -0.897171 0
M  V30 2410 C 233.009 -1.14916 -2.00158 0
M  V30 2411 C 233.979 -0.0418149 -1.66047 0
M  V30 2412 O 235.164 -0.209793 -1.89643 0
M  V30 2413 C 232.304 -0.834307 -3.34863 0
M  V30 2414 C 231.417 -2.02234 -3.8174 0
M  V30 2415 C 230.552 -1.64664 -5.05034 0
M  V30 2416 C 229.591 -2.80033 -5.44286 0
M  V30 2417 N 228.728 -2.42843 -6.58765 0
M  V30 2418 H 233.568 -2.09403 -2.12025 0
M  V30 2419 H 231.105 -1.042 -1.0383 0
M  V30 2420 H 233.063 -0.632436 -4.12379 0
M  V30 2421 H 231.693 0.0736656 -3.22716 0
M  V30 2422 H 230.745 -2.33583 -3.00238 0
M  V30 2423 H 232.057 -2.88673 -4.06779 0
M  V30 2424 H 231.211 -1.4078 -5.9014 0
M  V30 2425 H 229.95 -0.753766 -4.8184 0
M  V30 2426 H 228.955 -3.04596 -4.57713 0
M  V30 2427 H 230.18 -3.69989 -5.6946 0
M  V30 2428 H 228.126 -1.56046 -6.3717 0
M  V30 2429 H 228.043 -3.22815 -6.83613 0
M  V30 2430 H 229.311 -2.22285 -7.47134 0
M  V30 2431 N 233.54 1.10788 -1.12088 0
M  V30 2432 C 234.817 1.79136 -0.785476 0
M  V30 2433 C 235.197 1.98246 0.725377 0
M  V30 2434 O 234.545 1.57258 1.65778 0
M  V30 2435 C 234.755 3.12375 -1.55636 0
M  V30 2436 C 236.103 3.8731 -1.74001 0
M  V30 2437 O 237.127 3.22085 -1.52117 0
M  V30 2438 O 235.986 5.04369 -2.10415 0
M  V30 2439 H 233.08 0.776226 -0.285311 0
M  V30 2440 H 235.626 1.1747 -1.2247 0
M  V30 2441 H 234.398 2.93863 -2.5838 0
M  V30 2442 H 234.021 3.81758 -1.11114 0
M  V30 2443 N 235.018 0.912232 1.28515 0
M  V30 2444 C 236.434 0.610159 1.47476 0
M  V30 2445 C 236.634 -0.844955 1.82928 0
M  V30 2446 O 235.69 -1.62416 1.93332 0
M  V30 2447 C 237.003 1.54675 2.57868 0
M  V30 2448 C 238.551 1.55331 2.71738 0
M  V30 2449 C 239.026 2.47649 3.85272 0
M  V30 2450 N 240.517 2.45767 3.92623 0
M  V30 2451 C 241.252 3.13896 4.79851 0
M  V30 2452 N 240.748 3.9135 5.71679 0
M  V30 2453 N 242.541 3.02991 4.73448 0
M  V30 2454 H 234.692 1.85318 1.03783 0
M  V30 2455 H 236.955 0.794777 0.516753 0
M  V30 2456 H 236.661 2.5841 2.38574 0
M  V30 2457 H 236.535 1.27671 3.54937 0
M  V30 2458 H 238.922 0.52335 2.90422 0
M  V30 2459 H 239.003 1.86378 1.75205 0
M  V30 2460 H 238.647 3.50745 3.67342 0
M  V30 2461 H 238.577 2.13904 4.81199 0
M  V30 2462 H 241.068 1.89503 3.26951 0
M  V30 2463 H 241.381 4.40359 6.35062 0
M  V30 2464 H 239.726 3.95455 5.71524 0
M  V30 2465 H 242.917 2.41987 4.007 0
M  V30 2466 H 243.09 3.5636 5.41213 0
M  V30 2467 N 236.496 -1.42363 0.676048 0
M  V30 2468 C 237.443 -2.308 -0.00150904 0
M  V30 2469 C 238.413 -1.46032 -0.791444 0
M  V30 2470 O 239.598 -1.74861 -0.76344 0
M  V30 2471 C 236.738 -3.31883 -0.945919 0
M  V30 2472 C 235.851 -4.31741 -0.149675 0
M  V30 2473 C 234.986 -5.19898 -1.08995 0
M  V30 2474 C 234.025 -6.11434 -0.285465 0
M  V30 2475 N 233.162 -6.92138 -1.17851 0
M  V30 2476 H 238.002 -2.88187 0.758455 0
M  V30 2477 H 235.539 -1.41952 0.38576 0
M  V30 2478 H 237.497 -3.89019 -1.50731 0
M  V30 2479 H 236.127 -2.76093 -1.6725 0
M  V30 2480 H 235.179 -3.76713 0.528359 0
M  V30 2481 H 236.491 -4.96534 0.474866 0
M  V30 2482 H 235.645 -5.81772 -1.72123 0
M  V30 2483 H 234.384 -4.55284 -1.74837 0
M  V30 2484 H 233.389 -5.48627 0.359018 0
M  V30 2485 H 234.614 -6.78097 0.368883 0
M  V30 2486 H 232.56 -6.30152 -1.82332 0
M  V30 2487 H 232.477 -7.53542 -0.609082 0
M  V30 2488 H 233.745 -7.58499 -1.79722 0
M  V30 2489 N 237.974 -0.419461 -1.51915 0
M  V30 2490 C 238.904 0.391813 -2.30189 0
M  V30 2491 C 239.885 1.03699 -1.34836 0
M  V30 2492 O 241.07 1.04403 -1.63748 0
M  V30 2493 C 238.2 1.50312 -3.13087 0
M  V30 2494 C 237.154 0.9824 -4.16573 0
M  V30 2495 C 236.48 2.18809 -4.8788 0
M  V30 2496 C 237.78 0.0292356 -5.22292 0
M  V30 2497 H 239.474 -0.26135 -2.98257 0
M  V30 2498 H 237.02 -0.127134 -1.43438 0
M  V30 2499 H 238.973 2.07773 -3.66617 0
M  V30 2500 H 237.697 2.18431 -2.42807 0
M  V30 2501 H 236.356 0.430119 -3.64068 0
M  V30 2502 H 236.004 2.85507 -4.14119 0
M  V30 2503 H 235.704 1.84615 -5.57845 0
M  V30 2504 H 237.228 2.76858 -5.44226 0
M  V30 2505 H 238.642 0.512976 -5.71 0
M  V30 2506 H 237.039 -0.2244 -5.9968 0
M  V30 2507 H 238.109 -0.912931 -4.76228 0
M  V30 2508 N 239.452 1.56882 -0.150215 0
M  V30 2509 C 240.382 2.19935 0.784284 0
M  V30 2510 C 241.363 1.14854 1.25469 0
M  V30 2511 O 242.548 1.43209 1.31168 0
M  V30 2512 C 239.678 2.82349 2.02229 0
M  V30 2513 C 238.632 3.93285 1.68853 0
M  V30 2514 C 237.958 4.42649 2.99944 0
M  V30 2515 C 239.258 5.13904 0.932714 0
M  V30 2516 H 240.952 2.9828 0.258781 0
M  V30 2517 H 238.498 1.43473 0.123029 0
M  V30 2518 H 240.451 3.25126 2.68088 0
M  V30 2519 H 239.175 2.0134 2.57157 0
M  V30 2520 H 237.834 3.5113 1.05371 0
M  V30 2521 H 237.482 3.58458 3.52869 0
M  V30 2522 H 237.182 5.17476 2.78374 0
M  V30 2523 H 238.706 4.88099 3.66868 0
M  V30 2524 H 240.12 5.53506 1.49345 0
M  V30 2525 H 238.517 5.94515 0.81684 0
M  V30 2526 H 239.587 4.84842 -0.0749568 0
M  V30 2527 N 240.93 -0.123565 1.57115 0
M  V30 2528 C 241.86 -1.15309 2.03042 0
M  V30 2529 C 242.841 -1.43454 0.914061 0
M  V30 2530 O 244.026 -1.53973 1.18347 0
M  V30 2531 C 241.156 -2.48043 2.43089 0
M  V30 2532 C 240.11 -2.3437 3.58127 0
M  V30 2533 C 239.436 -3.72026 3.84059 0
M  V30 2534 C 240.736 -1.80804 4.90007 0
M  V30 2535 H 242.43 -0.771102 2.893 0
M  V30 2536 H 239.976 -0.369479 1.39179 0
M  V30 2537 H 241.929 -3.20311 2.73823 0
M  V30 2538 H 240.653 -2.88122 1.53796 0
M  V30 2539 H 239.312 -1.64551 3.27595 0
M  V30 2540 H 238.96 -4.09582 2.91979 0
M  V30 2541 H 238.66 -3.63732 4.6149 0
M  V30 2542 H 240.184 -4.45806 4.1724 0
M  V30 2543 H 241.598 -2.42886 5.19307 0
M  V30 2544 H 239.995 -1.83343 5.71407 0
M  V30 2545 H 241.065 -0.76528 4.78823 0
M  V30 2546 N 242.408 -1.52605 -0.393616 0
M  V30 2547 C 243.636 -1.71294 -1.16043 0
M  V30 2548 C 244.051 -0.429259 -1.83855 0
M  V30 2549 O 243.408 0.595921 -1.72496 0
M  V30 2550 C 243.459 -2.8593 -2.21193 0
M  V30 2551 O 243.18 -4.09329 -1.56146 0
M  V30 2552 C 244.681 -3.16259 -3.10636 0
M  V30 2553 H 241.901 -0.573641 -0.348104 0
M  V30 2554 H 244.445 -1.99234 -0.461092 0
M  V30 2555 H 242.6 -2.60465 -2.86769 0
M  V30 2556 H 243.014 -4.73323 -2.25978 0
M  V30 2557 H 244.488 -3.99946 -3.80456 0
M  V30 2558 H 244.965 -2.3045 -3.73884 0
M  V30 2559 H 245.571 -3.43547 -2.50711 0
M  V30 2560 N 243.887 0.651787 -1.4349 0
M  V30 2561 C 244.85 1.74647 -1.48429 0
M  V30 2562 C 245.85 1.56513 -0.368817 0
M  V30 2563 O 247.04 1.62385 -0.630623 0
M  V30 2564 C 244.172 3.13533 -1.33827 0
M  V30 2565 H 245.365 1.71649 -2.4592 0
M  V30 2566 H 242.918 0.863573 -1.30277 0
M  V30 2567 H 243.653 3.22142 -0.37349 0
M  V30 2568 H 243.438 3.28101 -2.14691 0
M  V30 2569 H 244.928 3.93356 -1.40218 0
M  V30 2570 N 245.365 1.30045 0.890287 0
M  V30 2571 C 246.297 1.11786 2.00091 0
M  V30 2572 C 247.31 0.0626307 1.62679 0
M  V30 2573 O 248.499 0.308112 1.75821 0
M  V30 2574 C 245.599 0.681527 3.31977 0
M  V30 2575 C 244.772 1.81735 3.97858 0
M  V30 2576 C 243.831 1.37045 5.08041 0
M  V30 2577 O 242.857 2.07677 5.29961 0
M  V30 2578 N 244.059 0.246525 5.79976 0
M  V30 2579 H 246.824 2.07441 2.16306 0
M  V30 2580 H 244.385 1.2211 1.06305 0
M  V30 2581 H 246.377 0.365675 4.03045 0
M  V30 2582 H 244.947 -0.182828 3.12065 0
M  V30 2583 H 244.167 2.30159 3.20032 0
M  V30 2584 H 245.455 2.57865 4.38615 0
M  V30 2585 H 244.853 -0.34215 5.64664 0
M  V30 2586 H 243.41 -0.00990438 6.51799 0
M  V30 2587 N 246.843 -1.10192 1.12674 0
M  V30 2588 C 247.775 -2.16418 0.754701 0
M  V30 2589 C 248.788 -1.61309 -0.21986 0
M  V30 2590 O 249.977 -1.785 -0.000826841 0
M  V30 2591 C 247.077 -3.38762 0.096698 0
M  V30 2592 C 246.25 -4.23307 1.10136 0
M  V30 2593 C 245.309 -5.24092 0.470513 0
M  V30 2594 O 244.335 -5.57906 1.12824 0
M  V30 2595 N 245.537 -5.75491 -0.760948 0
M  V30 2596 H 248.302 -2.48943 1.66875 0
M  V30 2597 H 245.863 -1.25834 1.01869 0
M  V30 2598 H 247.855 -4.03291 -0.337384 0
M  V30 2599 H 246.425 -3.04192 -0.720153 0
M  V30 2600 H 245.645 -3.55036 1.71299 0
M  V30 2601 H 246.933 -4.76624 1.78064 0
M  V30 2602 H 246.331 -5.50222 -1.31424 0
M  V30 2603 H 244.888 -6.41792 -1.13781 0
M  V30 2604 N 248.321 -0.919034 -1.28029 0
M  V30 2605 C 249.254 -0.355887 -2.25408 0
M  V30 2606 C 250.232 0.542874 -1.5327 0
M  V30 2607 O 251.416 0.485338 -1.82145 0
M  V30 2608 C 248.543 0.490759 -3.35126 0
M  V30 2609 C 247.589 -0.343358 -4.25116 0
M  V30 2610 S 248.422 -1.75344 -5.05979 0
M  V30 2611 C 249.578 -0.914244 -6.19187 0
M  V30 2612 H 249.811 -1.18123 -2.72826 0
M  V30 2613 H 247.344 -0.720636 -1.36551 0
M  V30 2614 H 249.302 0.973404 -3.98792 0
M  V30 2615 H 247.963 1.29054 -2.86363 0
M  V30 2616 H 247.156 0.304266 -5.03081 0
M  V30 2617 H 246.758 -0.759851 -3.662 0
M  V30 2618 H 249.05 -0.146282 -6.77342 0
M  V30 2619 H 249.993 -1.66661 -6.88208 0
M  V30 2620 H 250.401 -0.460082 -5.62622 0
M  V30 2621 N 249.799 1.42003 -0.683588 0
M  V30 2622 C 250.729 2.33487 -0.024866 0
M  V30 2623 C 251.71 1.51163 0.779975 0
M  V30 2624 O 252.895 1.79739 0.735362 0
M  V30 2625 C 250.025 3.3487 0.920836 0
M  V30 2626 C 248.979 4.27414 0.223958 0
M  V30 2627 C 248.305 5.19074 1.2832 0
M  V30 2628 C 249.605 5.14445 -0.90242 0
M  V30 2629 H 251.299 2.88819 -0.788921 0
M  V30 2630 H 248.845 1.38873 -0.38083 0
M  V30 2631 H 250.798 3.97787 1.39081 0
M  V30 2632 H 249.522 2.77861 1.71642 0
M  V30 2633 H 248.181 3.65904 -0.225864 0
M  V30 2634 H 247.829 4.58387 2.071 0
M  V30 2635 H 247.529 5.81822 0.821995 0
M  V30 2636 H 249.053 5.84867 1.75392 0
M  V30 2637 H 250.467 5.70998 -0.513272 0
M  V30 2638 H 248.864 5.86072 -1.28997 0
M  V30 2639 H 249.934 4.52322 -1.74737 0
M  V30 2640 N 251.277 0.427512 1.51691 0
M  V30 2641 C 252.209 -0.424521 2.25234 0
M  V30 2642 C 253.222 -0.994671 1.2888 0
M  V30 2643 O 254.411 -0.890483 1.54702 0
M  V30 2644 C 251.511 -1.60479 2.98496 0
M  V30 2645 C 250.684 -1.15527 4.21868 0
M  V30 2646 C 249.743 -2.20454 4.77793 0
M  V30 2647 O 248.769 -1.8029 5.39893 0
M  V30 2648 N 249.971 -3.52831 4.60967 0
M  V30 2649 H 252.736 0.205749 2.98993 0
M  V30 2650 H 250.297 0.255867 1.59865 0
M  V30 2651 H 252.289 -2.30276 3.32799 0
M  V30 2652 H 250.859 -2.14061 2.27809 0
M  V30 2653 H 250.079 -0.284736 3.9317 0
M  V30 2654 H 251.367 -0.832173 5.01949 0
M  V30 2655 H 250.765 -3.88201 4.11481 0
M  V30 2656 H 249.322 -4.18551 4.99658 0
M  V30 2657 N 252.755 -1.56801 0.158532 0
M  V30 2658 C 254.032 -1.88131 -0.535357 0
M  V30 2659 C 254.412 -1.06638 -1.82186 0
M  V30 2660 O 253.76 -0.156533 -2.27963 0
M  V30 2661 C 253.97 -3.39949 -0.789653 0
M  V30 2662 C 255.318 -4.09416 -1.12533 0
M  V30 2663 O 256.342 -3.45194 -0.878622 0
M  V30 2664 O 255.201 -5.22855 -1.59014 0
M  V30 2665 H 252.295 -0.780143 -0.27442 0
M  V30 2666 H 254.841 -1.68564 0.19601 0
M  V30 2667 H 253.613 -3.91115 0.120353 0
M  V30 2668 H 253.236 -3.65084 -1.57479 0
M  V30 2669 N 254.233 0.115231 -1.57178 0
M  V30 2670 C 255.458 0.840354 -1.89612 0
M  V30 2671 C 255.883 1.72464 -0.750845 0
M  V30 2672 O 255.241 1.78826 0.298478 0
M  V30 2673 C 255.289 1.64654 -3.20814 0
M  V30 2674 O 254.393 2.7538 -3.06985 0
M  V30 2675 H 253.734 0.232158 -0.622092 0
M  V30 2676 H 256.264 0.0964977 -2.04372 0
M  V30 2677 H 256.274 2.03499 -3.53627 0
M  V30 2678 H 254.949 0.997416 -4.03763 0
M  V30 2679 H 253.526 2.3971 -2.85646 0
M  V30 2680 N 255.711 1.52812 0.385517 0
M  V30 2681 C 256.658 1.77838 1.47113 0
M  V30 2682 C 257.628 0.621757 1.54024 0
M  V30 2683 O 258.813 0.861846 1.70226 0
M  V30 2684 C 255.953 1.95618 2.84302 0
M  V30 2685 C 255.066 3.23316 2.86515 0
M  V30 2686 C 254.201 3.31394 4.15152 0
M  V30 2687 C 253.24 4.53201 4.1143 0
M  V30 2688 N 252.377 4.58542 5.3168 0
M  V30 2689 H 257.217 2.70482 1.25073 0
M  V30 2690 H 254.754 1.34006 0.606692 0
M  V30 2691 H 256.712 2.03912 3.63972 0
M  V30 2692 H 255.342 1.06331 3.04784 0
M  V30 2693 H 254.394 3.24076 1.99195 0
M  V30 2694 H 255.706 4.13045 2.79634 0
M  V30 2695 H 254.86 3.3889 5.03228 0
M  V30 2696 H 253.599 2.39645 4.24761 0
M  V30 2697 H 252.604 4.45827 3.21742 0
M  V30 2698 H 253.829 5.46271 4.03442 0
M  V30 2699 H 251.775 3.69686 5.41912 0
M  V30 2700 H 251.692 5.42148 5.26889 0
M  V30 2701 H 252.96 4.70296 6.21644 0
M  V30 2702 N 257.189 -0.644168 1.43834 0
M  V30 2703 C 258.417 -1.43147 1.49387 0
M  V30 2704 C 258.832 -1.88452 0.114583 0
M  V30 2705 O 258.189 -1.60047 -0.876989 0
M  V30 2706 C 258.24 -2.66046 2.44748 0
M  V30 2707 O 257.961 -2.22633 3.77314 0
M  V30 2708 C 259.462 -3.59311 2.59635 0
M  V30 2709 H 256.682 -0.439447 0.507077 0
M  V30 2710 H 259.226 -0.78895 1.88669 0
M  V30 2711 H 257.381 -3.26418 2.08638 0
M  V30 2712 H 257.795 -3.02216 4.28679 0
M  V30 2713 H 259.269 -4.42187 3.30416 0
M  V30 2714 H 259.746 -4.07259 1.64427 0
M  V30 2715 H 260.352 -3.04816 2.96593 0
M  V30 2716 N 258.668 -1.30515 -0.883378 0
M  V30 2717 C 259.615 -1.17032 -1.98927 0
M  V30 2718 C 260.585 -0.0594241 -1.65994 0
M  V30 2719 O 261.77 -0.229895 -1.8941 0
M  V30 2720 C 258.91 -0.869777 -3.33959 0
M  V30 2721 C 258.023 -2.06271 -3.79574 0
M  V30 2722 C 257.158 -1.70011 -5.03259 0
M  V30 2723 C 256.197 -2.8579 -5.41286 0
M  V30 2724 N 255.334 -2.49816 -6.56153 0
M  V30 2725 H 260.174 -2.1164 -2.09792 0
M  V30 2726 H 257.711 -1.05296 -1.02719 0
M  V30 2727 H 259.669 -0.676138 -4.11685 0
M  V30 2728 H 258.299 0.0394332 -3.22776 0
M  V30 2729 H 257.351 -2.36755 -2.97744 0
M  V30 2730 H 258.663 -2.92971 -4.03694 0
M  V30 2731 H 257.817 -1.47032 -5.88614 0
M  V30 2732 H 256.556 -0.804829 -4.81013 0
M  V30 2733 H 255.561 -3.09434 -4.54456 0
M  V30 2734 H 256.786 -3.76008 -5.65504 0
M  V30 2735 H 254.732 -1.62795 -6.35479 0
M  V30 2736 H 254.649 -3.30048 -6.8015 0
M  V30 2737 H 255.917 -2.30197 -7.44735 0
M  V30 2738 N 260.146 1.09593 -1.13257 0
M  V30 2739 C 261.395 1.81105 -0.887917 0
M  V30 2740 C 261.708 1.86563 0.587672 0
M  V30 2741 O 262.914 2.54367 0.949204 0
M  V30 2742 C 261.37 3.25338 -1.53895 0
M  V30 2743 C 260.978 3.28151 -3.04994 0
M  V30 2744 C 262.722 4.01617 -1.37492 0
M  V30 2745 C 260.629 4.66897 -3.6299 0
M  V30 2746 H 259.559 0.678661 -0.328534 0
M  V30 2747 H 262.21 1.23183 -1.36008 0
M  V30 2748 H 260.592 3.8331 -0.994446 0
M  V30 2749 H 261.766 2.79953 -3.66009 0
M  V30 2750 H 260.081 2.65361 -3.20893 0
M  V30 2751 H 262.678 5.04119 -1.78235 0
M  V30 2752 H 263.021 4.15072 -0.31957 0
M  V30 2753 H 263.554 3.50082 -1.88912 0
M  V30 2754 H 260.293 4.58643 -4.68323 0
M  V30 2755 H 259.813 5.15426 -3.06752 0
M  V30 2756 H 261.492 5.3587 -3.62563 0
M  V30 2757 N 261.624 0.925811 1.2754 0
M  V30 2758 C 262.901 0.483726 1.89524 0
M  V30 2759 C 263.281 -1.03809 1.83812 0
M  V30 2760 O 262.629 -1.89143 1.28207 0
M  V30 2761 C 262.839 1.02769 3.33526 0
M  V30 2762 C 264.187 1.08703 4.10449 0
M  V30 2763 O 265.211 0.977175 3.42534 0
M  V30 2764 O 264.07 1.25599 5.31871 0
M  V30 2765 H 261.164 0.15529 0.812289 0
M  V30 2766 H 263.71 1.01738 1.35822 0
M  V30 2767 H 262.482 2.07155 3.31967 0
M  V30 2768 H 262.105 0.475567 3.94746 0
M  V30 2769 N 263.102 -1.41638 0.69111 0
M  V30 2770 C 264.351 -2.00526 0.217318 0
M  V30 2771 C 264.664 -1.55353 -1.18848 0
M  V30 2772 O 265.87 -2.06769 -1.75951 0
M  V30 2773 C 264.326 -3.58313 0.337639 0
M  V30 2774 C 263.934 -4.12469 1.74852 0
M  V30 2775 C 265.678 -4.24431 -0.0766066 0
M  V30 2776 C 263.585 -5.62675 1.82074 0
M  V30 2777 H 262.515 -0.750008 0.0774893 0
M  V30 2778 H 265.166 -1.6217 0.858661 0
M  V30 2779 H 263.548 -3.9425 -0.371879 0
M  V30 2780 H 264.722 -3.8796 2.48644 0
M  V30 2781 H 263.037 -3.58861 2.11205 0
M  V30 2782 H 265.634 -5.34683 -0.0430284 0
M  V30 2783 H 265.977 -4.01101 -1.1146 0
M  V30 2784 H 266.51 -3.93512 0.582476 0
M  V30 2785 H 263.249 -5.90826 2.83911 0
M  V30 2786 H 262.769 -5.89124 1.12661 0
M  V30 2787 H 264.448 -6.27371 1.58159 0
M  V30 2788 N 264.58 -0.43555 -1.51462 0
M  V30 2789 C 265.829 0.133007 -2.01261 0
M  V30 2790 C 266.142 1.43942 -1.32439 0
M  V30 2791 O 267.348 2.09081 -1.73198 0
M  V30 2792 C 265.804 0.287581 -3.58749 0
M  V30 2793 C 265.412 -1.00829 -4.36506 0
M  V30 2794 C 267.156 0.810004 -4.167 0
M  V30 2795 C 265.063 -0.819454 -5.85695 0
M  V30 2796 H 263.993 0.0534822 -0.752101 0
M  V30 2797 H 266.644 -0.565038 -1.74584 0
M  V30 2798 H 265.026 1.04859 -3.81865 0
M  V30 2799 H 266.2 -1.77749 -4.25138 0
M  V30 2800 H 264.515 -1.45911 -3.89999 0
M  V30 2801 H 267.112 0.967743 -5.2587 0
M  V30 2802 H 267.455 1.79196 -3.75758 0
M  V30 2803 H 267.988 0.107357 -3.97655 0
M  V30 2804 H 264.727 -1.77374 -6.31046 0
M  V30 2805 H 264.247 -0.0900208 -5.99732 0
M  V30 2806 H 265.926 -0.471949 -6.45276 0
M  V30 2807 N 266.058 1.56714 -0.166846 0
M  V30 2808 C 267.474 1.58473 0.189372 0
M  V30 2809 C 267.674 1.18201 1.63189 0
M  V30 2810 O 266.73 0.891528 2.36237 0
M  V30 2811 C 268.043 3.00573 -0.0873872 0
M  V30 2812 C 269.591 3.1299 -0.0252443 0
M  V30 2813 C 270.066 4.57174 -0.274934 0
M  V30 2814 N 271.557 4.62665 -0.222553 0
M  V30 2815 C 272.292 5.72072 -0.389985 0
M  V30 2816 N 271.788 6.90054 -0.616229 0
M  V30 2817 N 273.581 5.61153 -0.326202 0
M  V30 2818 H 265.732 1.8118 -1.10849 0
M  V30 2819 H 267.995 0.839525 -0.440342 0
M  V30 2820 H 267.701 3.34497 -1.0865 0
M  V30 2821 H 267.575 3.72019 0.623037 0
M  V30 2822 H 269.962 2.78895 0.96444 0
M  V30 2823 H 270.043 2.43989 -0.768309 0
M  V30 2824 H 269.687 4.91976 -1.26181 0
M  V30 2825 H 269.617 5.24328 0.48869 0
M  V30 2826 H 272.108 3.77863 -0.0531512 0
M  V30 2827 H 272.421 7.69311 -0.733559 0
M  V30 2828 H 270.766 6.91927 -0.652791 0
M  V30 2829 H 273.957 4.67859 -0.150072 0
M  V30 2830 H 274.13 6.46364 -0.460116 0
M  V30 2831 N 267.536 -0.106894 1.57237 0
M  V30 2832 C 268.469 -1.16125 1.96444 0
M  V30 2833 C 269.447 -1.3947 0.835871 0
M  V30 2834 O 270.631 -1.53425 1.09513 0
M  V30 2835 C 267.758 -2.51277 2.27107 0
M  V30 2836 C 266.804 -2.44285 3.4961 0
M  V30 2837 S 267.637 -1.87077 5.01759 0
M  V30 2838 C 268.793 -3.23877 5.35588 0
M  V30 2839 H 269.026 -0.826971 2.85567 0
M  V30 2840 H 266.559 -0.314124 1.51171 0
M  V30 2841 H 268.517 -3.29035 2.45451 0
M  V30 2842 H 267.178 -2.81879 1.38576 0
M  V30 2843 H 266.371 -3.4387 3.68469 0
M  V30 2844 H 265.973 -1.74652 3.30715 0
M  V30 2845 H 268.265 -4.20122 5.31511 0
M  V30 2846 H 269.208 -3.09833 6.36717 0
M  V30 2847 H 269.616 -3.22864 4.63054 0
M  V30 2848 N 269.014 -1.53014 -0.377408 0
M  V30 2849 C 269.946 -1.74884 -1.48149 0
M  V30 2850 C 270.959 -0.629433 -1.5014 0
M  V30 2851 O 272.148 -0.905416 -1.53833 0
M  V30 2852 C 269.248 -1.80299 -2.86959 0
M  V30 2853 C 268.421 -3.09776 -3.08801 0
M  V30 2854 C 267.48 -3.06586 -4.27658 0
M  V30 2855 O 266.506 -3.80419 -4.23403 0
M  V30 2856 N 267.708 -2.26578 -5.34455 0
M  V30 2857 H 270.473 -2.70147 -1.29771 0
M  V30 2858 H 268.034 -1.51646 -0.56703 0
M  V30 2859 H 270.026 -1.75657 -3.64591 0
M  V30 2860 H 268.596 -0.92372 -2.98641 0
M  V30 2861 H 267.816 -3.27815 -2.18931 0
M  V30 2862 H 269.104 -3.95366 -3.20255 0
M  V30 2863 H 268.502 -1.66081 -5.40771 0
M  V30 2864 H 267.059 -2.27766 -6.10709 0
M  V30 2865 N 270.492 0.636531 -1.44174 0
M  V30 2866 C 271.422 1.76003 -1.53444 0
M  V30 2867 C 272.403 1.65619 -0.387841 0
M  V30 2868 O 273.588 1.84461 -0.607257 0
M  V30 2869 C 270.718 3.14511 -1.4731 0
M  V30 2870 C 269.672 3.39677 -2.60391 0
M  V30 2871 C 268.998 4.78159 -2.39308 0
M  V30 2872 C 270.298 3.32772 -4.02567 0
M  V30 2873 H 271.992 1.68501 -2.47483 0
M  V30 2874 H 269.538 0.809237 -1.19111 0
M  V30 2875 H 271.491 3.92878 -1.52397 0
M  V30 2876 H 270.215 3.22783 -0.49785 0
M  V30 2877 H 268.874 2.63688 -2.54684 0
M  V30 2878 H 268.522 4.83128 -1.39988 0
M  V30 2879 H 268.222 4.95956 -3.15122 0
M  V30 2880 H 269.746 5.58762 -2.46205 0
M  V30 2881 H 271.16 4.01051 -4.09672 0
M  V30 2882 H 269.557 3.62104 -4.7854 0
M  V30 2883 H 270.627 2.30669 -4.2652 0
M  V30 2884 N 271.97 1.30982 0.876444 0
M  V30 2885 C 273.386 1.09498 1.16113 0
M  V30 2886 C 273.586 -0.13875 2.01022 0
M  V30 2887 O 272.642 -0.829935 2.38471 0
M  V30 2888 C 273.955 2.36308 1.85954 0
M  V30 2889 C 275.503 2.41856 1.98683 0
M  V30 2890 C 275.978 3.6853 2.71937 0
M  V30 2891 N 277.469 3.69387 2.79477 0
M  V30 2892 C 278.204 4.64096 3.36753 0
M  V30 2893 N 277.7 5.69155 3.95012 0
M  V30 2894 N 279.493 4.51626 3.3465 0
M  V30 2895 H 271.644 2.10118 0.310494 0
M  V30 2896 H 273.907 0.926634 0.200131 0
M  V30 2897 H 273.613 3.26388 1.31011 0
M  V30 2898 H 273.487 2.4561 2.86278 0
M  V30 2899 H 275.874 1.52249 2.52793 0
M  V30 2900 H 275.955 2.36523 0.9742 0
M  V30 2901 H 275.599 4.58499 2.18496 0
M  V30 2902 H 275.529 3.71127 3.73593 0
M  V30 2903 H 278.02 2.93438 2.38123 0
M  V30 2904 H 278.333 6.3751 4.36808 0
M  V30 2905 H 276.678 5.72937 3.93406 0
M  V30 2906 H 279.869 3.68728 2.8837 0
M  V30 2907 H 280.042 5.25614 3.7899 0
M  V30 2908 N 273.449 -1.08991 1.13837 0
M  V30 2909 C 274.865 -1.33312 0.877506 0
M  V30 2910 C 275.065 -1.95587 -0.48456 0
M  V30 2911 O 274.121 -2.20509 -1.23013 0
M  V30 2912 C 275.434 -2.24045 2.0056 0
M  V30 2913 C 276.982 -2.37542 2.03821 0
M  V30 2914 C 277.457 -3.31614 3.15905 0
M  V30 2915 N 278.948 -3.39189 3.15445 0
M  V30 2916 C 279.683 -4.11992 3.98811 0
M  V30 2917 N 279.179 -4.87553 4.92203 0
M  V30 2918 N 280.972 -4.07762 3.86894 0
M  V30 2919 H 273.123 -0.669456 2.01574 0
M  V30 2920 H 275.386 -0.357482 0.878015 0
M  V30 2921 H 275.092 -1.85521 2.98789 0
M  V30 2922 H 274.966 -3.24466 1.92359 0
M  V30 2923 H 277.353 -2.75327 1.06202 0
M  V30 2924 H 277.434 -1.36884 2.16093 0
M  V30 2925 H 277.078 -2.94551 4.13766 0
M  V30 2926 H 277.008 -4.32186 3.0087 0
M  V30 2927 H 279.499 -2.85314 2.47799 0
M  V30 2928 H 279.812 -5.40549 5.52292 0
M  V30 2929 H 278.157 -4.86627 4.96205 0
M  V30 2930 H 281.348 -3.47833 3.13257 0
M  V30 2931 H 281.521 -4.64238 4.52092 0
M  V30 2932 N 274.927 -0.932562 -1.27047 0
M  V30 2933 C 275.89 -0.440064 -2.24936 0
M  V30 2934 C 276.89 0.444071 -1.54547 0
M  V30 2935 O 278.08 0.244465 -1.72476 0
M  V30 2936 C 275.212 0.36678 -3.38921 0
M  V30 2937 H 276.405 -1.305 -2.70018 0
M  V30 2938 H 273.958 -0.713707 -1.39054 0
M  V30 2939 H 274.693 1.25033 -2.99228 0
M  V30 2940 H 274.478 -0.267204 -3.91188 0
M  V30 2941 H 275.968 0.701567 -4.11665 0
M  V30 2942 N 276.405 1.4127 -0.698611 0
M  V30 2943 C 277.335 2.33447 -0.049629 0
M  V30 2944 C 278.316 1.51982 0.763898 0
M  V30 2945 O 279.501 1.80509 0.716257 0
M  V30 2946 C 276.631 3.35828 0.885267 0
M  V30 2947 C 275.585 4.27627 0.178613 0
M  V30 2948 C 274.911 5.20406 1.22807 0
M  V30 2949 C 276.211 5.13459 -0.956933 0
M  V30 2950 H 277.905 2.87966 -0.81951 0
M  V30 2951 H 275.451 1.38461 -0.395538 0
M  V30 2952 H 277.404 3.9924 1.34854 0
M  V30 2953 H 276.128 2.79666 1.68685 0
M  V30 2954 H 274.787 3.65643 -0.26466 0
M  V30 2955 H 274.435 4.60558 2.02226 0
M  V30 2956 H 274.135 5.82661 0.760239 0
M  V30 2957 H 275.659 5.86695 1.69179 0
M  V30 2958 H 277.073 5.70421 -0.573805 0
M  V30 2959 H 275.47 5.8467 -1.35205 0
M  V30 2960 H 276.54 4.50443 -1.79524 0
M  V30 2961 N 277.883 0.443576 1.51229 0
M  V30 2962 C 278.815 -0.400608 2.25672 0
M  V30 2963 C 279.828 -0.980945 1.29928 0
M  V30 2964 O 281.017 -0.874024 1.55638 0
M  V30 2965 C 278.117 -1.57304 3.00181 0
M  V30 2966 C 277.29 -1.11046 4.23069 0
M  V30 2967 C 276.349 -2.15374 4.80105 0
M  V30 2968 O 275.375 -1.74554 5.41774 0
M  V30 2969 N 276.577 -3.47922 4.64683 0
M  V30 2970 H 279.342 0.23745 2.98758 0
M  V30 2971 H 276.903 0.272809 1.59585 0
M  V30 2972 H 278.895 -2.26733 3.35223 0
M  V30 2973 H 277.465 -2.11632 2.30066 0
M  V30 2974 H 276.685 -0.243019 3.9345 0
M  V30 2975 H 277.973 -0.778888 5.02803 0
M  V30 2976 H 277.371 -3.83815 4.15575 0
M  V30 2977 H 275.928 -4.13228 5.0407 0
M  V30 2978 N 279.361 -1.56624 0.175154 0
M  V30 2979 C 280.324 -2.16934 -0.739738 0
M  V30 2980 C 281.324 -1.11842 -1.15533 0
M  V30 2981 O 282.514 -1.37335 -1.07167 0
M  V30 2982 C 279.646 -2.75531 -2.00738 0
M  V30 2983 H 280.839 -2.99131 -0.214639 0
M  V30 2984 H 278.392 -1.56123 -0.0744197 0
M  V30 2985 H 279.127 -1.97078 -2.57548 0
M  V30 2986 H 278.912 -3.52444 -1.71831 0
M  V30 2987 H 280.402 -3.21904 -2.66021 0
M  V30 2988 N 280.839 0.0985539 -1.57292 0
M  V30 2989 C 282.087 0.801092 -1.85545 0
M  V30 2990 C 282.408 1.79438 -0.763353 0
M  V30 2991 O 281.678 1.94763 0.21073 0
M  V30 2992 H 280.258 0.29884 -0.684619 0
M  V30 2993 H 282.92 0.0810064 -1.94732 0
M  V30 2994 H 282.016 1.3338 -2.82163 0
M  V30 2995 N 282.317 1.53212 0.369288 0
M  V30 2996 C 283.249 1.75668 1.47219 0
M  V30 2997 C 284.262 0.637387 1.49804 0
M  V30 2998 O 285.451 0.913561 1.5335 0
M  V30 2999 C 282.551 1.81818 2.85999 0
M  V30 3000 C 281.724 3.11409 3.07153 0
M  V30 3001 C 280.783 3.08849 4.26026 0
M  V30 3002 O 279.809 3.82659 4.2138 0
M  V30 3003 N 281.011 2.29409 5.33246 0
M  V30 3004 H 283.776 2.70832 1.28337 0
M  V30 3005 H 281.337 1.51944 0.55898 0
M  V30 3006 H 283.329 1.77588 3.63655 0
M  V30 3007 H 281.899 0.939544 2.98146 0
M  V30 3008 H 281.119 3.28971 2.1719 0
M  V30 3009 H 282.407 3.97059 3.18154 0
M  V30 3010 H 281.805 1.68946 5.39883 0
M  V30 3011 H 280.362 2.31001 6.09493 0
M  V30 3012 N 283.795 -0.628877 1.44509 0
M  V30 3013 C 284.725 -1.75187 1.54376 0
M  V30 3014 C 285.706 -1.65411 0.396618 0
M  V30 3015 O 286.891 -1.84137 0.617031 0
M  V30 3016 C 284.021 -3.13725 1.48976 0
M  V30 3017 C 282.975 -3.38291 2.62189 0
M  V30 3018 C 282.301 -4.76883 2.41841 0
M  V30 3019 C 283.601 -3.30632 4.04326 0
M  V30 3020 H 285.295 -1.67187 2.48373 0
M  V30 3021 H 282.841 -0.802909 1.19538 0
M  V30 3022 H 284.794 -3.92064 1.54478 0
M  V30 3023 H 283.518 -3.22515 0.514961 0
M  V30 3024 H 282.177 -2.62334 2.56079 0
M  V30 3025 H 281.825 -4.82378 1.42548 0
M  V30 3026 H 281.525 -4.94278 3.17747 0
M  V30 3027 H 283.049 -5.57449 2.49165 0
M  V30 3028 H 284.463 -3.98873 4.11793 0
M  V30 3029 H 282.86 -3.59561 4.80454 0
M  V30 3030 H 283.93 -2.28404 4.27738 0
M  V30 3031 N 285.273 -1.31445 -0.869486 0
M  V30 3032 C 286.183 -1.21097 -2.0093 0
M  V30 3033 C 287.199 -0.127584 -1.73532 0
M  V30 3034 O 288.375 -0.345477 -1.98415 0
M  V30 3035 C 285.44 -0.919378 -3.34288 0
M  V30 3036 C 284.501 -2.08971 -3.75006 0
M  V30 3037 C 283.734 -1.81194 -5.02001 0
M  V30 3038 O 283.957 -0.747296 -5.65484 0
M  V30 3039 O 282.891 -2.66883 -5.39497 0
M  V30 3040 H 286.717 -2.16883 -2.12592 0
M  V30 3041 H 284.302 -1.11189 -0.997868 0
M  V30 3042 H 286.184 -0.772625 -4.14257 0
M  V30 3043 H 284.859 0.00844772 -3.23699 0
M  V30 3044 H 283.766 -2.29187 -2.95676 0
M  V30 3045 H 285.099 -2.9998 -3.90221 0
M  V30 3046 N 286.751 1.08385 -1.14413 0
M  V30 3047 C 287.699 2.17406 -0.826888 0
M  V30 3048 C 288.693 1.6827 0.195312 0
M  V30 3049 O 289.899 1.79927 0.0513892 0
M  V30 3050 H 286.274 0.70934 -0.249681 0
M  V30 3051 H 288.245 2.41388 -1.75426 0
M  V30 3052 C 286.994 3.46215 -0.320979 0
M  V30 3053 H 286.317 3.84401 -1.0989 0
M  V30 3054 H 287.757 4.23777 -0.137549 0
M  V30 3055 C 286.216 3.23067 0.955472 0
M  V30 3056 O 286.746 3.4668 2.02918 0
M  V30 3057 N 284.952 2.7661 0.890798 0
M  V30 3058 H 284.499 2.57594 0.0168815 0
M  V30 3059 H 284.457 2.61501 1.74542 0
M  V30 3060 N 288.23 0.939286 1.26551 0
M  V30 3061 C 289.162 0.404704 2.25599 0
M  V30 3062 C 290.175 -0.470983 1.55838 0
M  V30 3063 O 291.364 -0.281734 1.76263 0
M  V30 3064 C 288.464 -0.43764 3.36062 0
M  V30 3065 C 287.637 0.421449 4.35365 0
M  V30 3066 C 286.696 -0.36015 5.24966 0
M  V30 3067 O 285.722 0.236167 5.6871 0
M  V30 3068 N 286.924 -1.65715 5.56344 0
M  V30 3069 H 289.689 1.25618 2.72103 0
M  V30 3070 H 287.25 0.807963 1.40298 0
M  V30 3071 H 289.242 -0.967866 3.92956 0
M  V30 3072 H 287.812 -1.18991 2.89067 0
M  V30 3073 H 287.032 1.1329 3.7757 0
M  V30 3074 H 288.32 1.00835 4.98708 0
M  V30 3075 H 287.718 -2.16378 5.22682 0
M  V30 3076 H 286.275 -2.13366 6.15888 0
M  V30 3077 N 289.708 -1.40897 0.706093 0
M  V30 3078 C 290.671 -2.29131 0.0562841 0
M  V30 3079 C 291.671 -1.44901 -0.697166 0
M  V30 3080 O 292.861 -1.65926 -0.530484 0
M  V30 3081 C 289.993 -3.27957 -0.93043 0
M  V30 3082 H 291.186 -2.88091 0.833284 0
M  V30 3083 H 288.739 -1.4906 0.470192 0
M  V30 3084 H 289.474 -2.73997 -1.73482 0
M  V30 3085 H 289.259 -3.90124 -0.393166 0
M  V30 3086 H 290.749 -3.94049 -1.38256 0
M  V30 3087 N 291.186 -0.45159 -1.50991 0
M  V30 3088 C 292.149 0.341117 -2.26647 0
M  V30 3089 C 293.149 0.937422 -1.30649 0
M  V30 3090 O 294.339 0.809644 -1.54241 0
M  V30 3091 C 291.471 1.48398 -3.06905 0
M  V30 3092 H 292.664 -0.322117 -2.98165 0
M  V30 3093 H 290.217 -0.205122 -1.54948 0
M  V30 3094 H 290.952 2.18284 -2.39838 0
M  V30 3095 H 290.737 1.06241 -3.77432 0
M  V30 3096 H 292.227 2.04367 -3.64176 0
M  V30 3097 N 292.664 1.56529 -0.183458 0
M  V30 3098 C 294.075 1.83739 0.331177 0
M  V30 3099 C 294.426 1.10373 1.62211 0
M  V30 3100 O 293.551 0.36071 2.13373 0
M  V30 3101 C 294.146 3.33306 0.607646 0
M  V30 3102 C 292.705 3.60969 1.06668 0
M  V30 3103 C 291.852 2.77086 0.109029 0
M  V30 3104 H 294.803 1.53379 -0.407484 0
M  V30 3105 H 294.824 3.51444 1.45832 0
M  V30 3106 H 294.336 3.86677 -0.332086 0
M  V30 3107 H 292.437 3.13021 2.0211 0
M  V30 3108 H 292.55 4.69231 0.967447 0
M  V30 3109 H 290.914 2.47319 0.608714 0
M  V30 3110 H 291.697 3.33241 -0.82494 0
M  V30 3111 N 294.142 -0.090211 1.57342 0
M  V30 3112 C 295.419 -0.824761 1.77361 0
M  V30 3113 C 295.799 -1.96698 0.76637 0
M  V30 3114 O 295.147 -2.27586 -0.204179 0
M  V30 3115 C 295.357 -1.31481 3.23286 0
M  V30 3116 C 296.705 -1.75563 3.86604 0
M  V30 3117 O 297.729 -1.41093 3.27065 0
M  V30 3118 O 296.588 -2.39317 4.91314 0
M  V30 3119 H 293.682 -0.393776 0.727234 0
M  V30 3120 H 296.228 -0.0717138 1.69548 0
M  V30 3121 H 295 -0.496671 3.88135 0
M  V30 3122 H 294.623 -2.12973 3.35751 0
M  V30 3123 N 295.62 -1.53406 -0.361157 0
M  V30 3124 C 296.897 -1.60411 -1.11927 0
M  V30 3125 C 297.277 -0.414385 -2.06993 0
M  V30 3126 O 296.625 0.594976 -2.20618 0
M  V30 3127 C 296.835 -2.95652 -1.85448 0
M  V30 3128 C 298.183 -3.50386 -2.39823 0
M  V30 3129 O 299.207 -2.97711 -1.95568 0
M  V30 3130 O 298.066 -4.42482 -3.20737 0
M  V30 3131 H 295.16 -0.64811 -0.513695 0
M  V30 3132 H 297.706 -1.65749 -0.364065 0
M  V30 3133 H 296.478 -3.73682 -1.16091 0
M  V30 3134 H 296.101 -2.93825 -2.67866 0
M  V30 3135 N 297.098 0.621204 -1.44841 0
M  V30 3136 C 298.326 1.40752 -1.51646 0
M  V30 3137 C 298.741 1.88246 -0.144549 0
M  V30 3138 O 298.098 1.61422 0.851416 0
M  V30 3139 C 298.149 2.62119 -2.4895 0
M  V30 3140 O 297.87 2.16602 -3.80808 0
M  V30 3141 C 299.371 3.55135 -2.65319 0
M  V30 3142 H 296.591 0.431325 -0.514004 0
M  V30 3143 H 299.135 0.758835 -1.899 0
M  V30 3144 H 297.29 3.23058 -2.13805 0
M  V30 3145 H 297.704 2.95358 -4.33433 0
M  V30 3146 H 299.178 4.36874 -3.37409 0
M  V30 3147 H 299.655 4.04592 -1.70886 0
M  V30 3148 H 300.261 3.00058 -3.01405 0
M  V30 3149 N 298.576 1.31904 0.862503 0
M  V30 3150 C 299.508 1.16005 1.97675 0
M  V30 3151 C 300.521 0.0971234 1.6251 0
M  V30 3152 O 301.71 0.345337 1.75128 0
M  V30 3153 C 298.81 0.751791 3.30456 0
M  V30 3154 C 297.983 1.90133 3.93914 0
M  V30 3155 C 297.042 1.4779 5.05019 0
M  V30 3156 O 296.068 2.18872 5.25437 0
M  V30 3157 N 297.27 0.369491 5.79323 0
M  V30 3158 H 300.035 2.11982 2.11857 0
M  V30 3159 H 297.596 1.24337 1.03691 0
M  V30 3160 H 299.588 0.451084 4.02178 0
M  V30 3161 H 298.158 -0.116593 3.12382 0
M  V30 3162 H 297.378 2.36896 3.15078 0
M  V30 3163 H 298.666 2.67111 4.33047 0
M  V30 3164 H 298.064 -0.222299 5.65263 0
M  V30 3165 H 296.621 0.128354 6.51674 0
M  V30 3166 N 300.054 -1.07777 1.14986 0
M  V30 3167 C 301.302 -1.79934 0.920235 0
M  V30 3168 C 301.623 -1.86955 -0.554336 0
M  V30 3169 O 300.893 -1.36731 -1.40291 0
M  V30 3170 H 299.473 -0.666424 0.337473 0
M  V30 3171 H 302.135 -1.3027 1.44968 0
M  V30 3172 H 301.231 -2.82539 1.32583 0
M  V30 3173 N 301.532 -0.945985 -1.26051 0
M  V30 3174 C 302.757 -0.612525 -1.98149 0
M  V30 3175 C 303.182 0.806623 -1.69927 0
M  V30 3176 O 302.54 1.54411 -0.950108 0
M  V30 3177 C 302.588 -0.866981 -3.50023 0
M  V30 3178 O 301.692 0.0585333 -4.12358 0
M  V30 3179 H 301.033 -0.23379 -0.621481 0
M  V30 3180 H 303.563 -1.27023 -1.60395 0
M  V30 3181 H 303.573 -0.789792 -4.00283 0
M  V30 3182 H 302.248 -1.90135 -3.69894 0
M  V30 3183 H 300.825 -0.0701241 -3.72834 0
M  V30 3184 N 303.011 1.40521 -0.713556 0
M  V30 3185 C 304.422 1.83853 -0.324807 0
M  V30 3186 C 304.773 1.59667 1.14021 0
M  V30 3187 O 303.898 1.07649 1.87725 0
M  V30 3188 C 304.493 3.33751 -0.582746 0
M  V30 3189 C 303.052 3.75584 -0.247727 0
M  V30 3190 C 302.199 2.63753 -0.856121 0
M  V30 3191 H 305.15 1.29817 -0.91286 0
M  V30 3192 H 305.171 3.80194 0.152682 0
M  V30 3193 H 304.683 3.51322 -1.64908 0
M  V30 3194 H 302.784 3.63608 0.813624 0
M  V30 3195 H 302.897 4.7373 -0.715307 0
M  V30 3196 H 301.261 2.53108 -0.28432 0
M  V30 3197 H 302.044 2.84137 -1.92668 0
M  V30 3198 N 304.489 0.459591 1.5075 0
M  V30 3199 C 305.766 -0.160371 1.94941 0
M  V30 3200 C 306.146 -1.58048 1.39943 0
M  V30 3201 O 305.494 -2.206 0.595629 0
M  V30 3202 C 305.704 -0.115432 3.48809 0
M  V30 3203 C 307.052 -0.310026 4.23467 0
M  V30 3204 O 308.076 -0.192543 3.55679 0
M  V30 3205 O 306.935 -0.546031 5.43765 0
M  V30 3206 H 304.029 -0.117925 0.818549 0
M  V30 3207 H 306.575 0.519169 1.61563 0
M  V30 3208 H 305.347 0.87652 3.81357 0
M  V30 3209 H 304.97 -0.836928 3.88692 0
M  V30 3210 N 305.967 -1.56429 0.191757 0
M  V30 3211 C 306.897 -2.21937 -0.725696 0
M  V30 3212 C 307.878 -1.1814 -1.2238 0
M  V30 3213 O 309.063 -1.46636 -1.27325 0
M  V30 3214 C 306.193 -2.87611 -1.94672 0
M  V30 3215 C 305.147 -3.97623 -1.58366 0
M  V30 3216 C 304.473 -4.50446 -2.88102 0
M  V30 3217 C 305.773 -5.16197 -0.796133 0
M  V30 3218 H 307.467 -2.98861 -0.179606 0
M  V30 3219 H 305.013 -1.43749 -0.0849464 0
M  V30 3220 H 306.966 -3.3212 -2.59373 0
M  V30 3221 H 305.69 -2.08087 -2.51728 0
M  V30 3222 H 304.349 -3.53801 -0.960247 0
M  V30 3223 H 303.997 -3.67688 -3.43241 0
M  V30 3224 H 303.697 -5.24675 -2.64556 0
M  V30 3225 H 305.221 -4.97654 -3.53798 0
M  V30 3226 H 306.635 -5.57271 -1.34618 0
M  V30 3227 H 305.032 -5.96471 -0.658928 0
M  V30 3228 H 306.102 -4.84473 0.203478 0
M  V30 3229 N 307.445 0.0818655 -1.57387 0
M  V30 3230 C 308.693 0.781368 -1.86384 0
M  V30 3231 C 309.014 1.78618 -0.782342 0
M  V30 3232 O 308.284 1.94976 0.190061 0
M  V30 3233 H 306.864 0.291562 -0.687751 0
M  V30 3234 H 309.526 0.060348 -1.94807 0
M  V30 3235 H 308.622 1.3038 -2.83562 0
M  V30 3236 N 308.923 1.53595 0.353017 0
M  V30 3237 C 309.886 1.80232 1.41594 0
M  V30 3238 C 310.886 0.673081 1.46035 0
M  V30 3239 O 312.076 0.941335 1.46576 0
M  V30 3240 C 309.208 1.93578 2.80607 0
M  V30 3241 H 310.401 2.75174 1.19244 0
M  V30 3242 H 307.954 1.44864 0.586872 0
M  V30 3243 H 308.689 1.00746 3.08254 0
M  V30 3244 H 308.474 2.75724 2.78781 0
M  V30 3245 H 309.964 2.15735 3.57558 0
M  V30 3246 N 310.401 -0.613514 1.45168 0
M  V30 3247 C 311.647 -1.37471 1.49096 0
M  V30 3248 C 311.98 -1.93765 0.129901 0
M  V30 3249 O 311.255 -1.74707 -0.854858 0
M  V30 3250 C 311.538 -2.52701 2.56542 0
M  V30 3251 C 311.391 -2.01643 4.0207 0
M  V30 3252 C 312.71 -3.54849 2.60327 0
M  V30 3253 H 309.829 -0.498502 0.54283 0
M  V30 3254 H 312.471 -0.692125 1.76945 0
M  V30 3255 H 310.621 -3.10931 2.32926 0
M  V30 3256 H 312.293 -1.48108 4.36877 0
M  V30 3257 H 310.536 -1.32688 4.13009 0
M  V30 3258 H 311.207 -2.84681 4.72928 0
M  V30 3259 H 313.683 -3.0645 2.81474 0
M  V30 3260 H 312.559 -4.32973 3.37381 0
M  V30 3261 H 312.82 -4.10079 1.6519 0
M  V30 3262 N 311.879 -1.3236 -0.855495 0
M  V30 3263 C 312.789 -1.23221 -1.99634 0
M  V30 3264 C 313.805 -0.145983 -1.73387 0
M  V30 3265 O 314.981 -0.366502 -1.98037 0
M  V30 3266 C 312.046 -0.954782 -3.33294 0
M  V30 3267 C 311.107 -2.12937 -3.72769 0
M  V30 3268 C 310.34 -1.86508 -5.00051 0
M  V30 3269 O 310.563 -0.807231 -5.64659 0
M  V30 3270 O 309.497 -2.72591 -5.36636 0
M  V30 3271 H 313.323 -2.19126 -2.1028 0
M  V30 3272 H 310.908 -1.12241 -0.986018 0
M  V30 3273 H 312.79 -0.816519 -4.13414 0
M  V30 3274 H 311.465 -0.0258854 -3.2369 0
M  V30 3275 H 310.372 -2.3231 -2.93228 0
M  V30 3276 H 311.705 -3.04102 -3.87018 0
M  V30 3277 N 313.357 1.07166 -1.15556 0
M  V30 3278 C 314.287 2.16403 -0.877046 0
M  V30 3279 C 315.268 1.69217 0.173111 0
M  V30 3280 O 316.453 1.94181 0.027084 0
M  V30 3281 C 313.583 3.45349 -0.367632 0
M  V30 3282 C 312.537 4.05995 -1.35468 0
M  V30 3283 C 311.863 5.30045 -0.704038 0
M  V30 3284 C 313.163 4.45804 -2.72132 0
M  V30 3285 H 314.857 2.39959 -1.79053 0
M  V30 3286 H 312.403 1.15325 -0.862331 0
M  V30 3287 H 314.356 4.21095 -0.160317 0
M  V30 3288 H 313.08 3.21385 0.581326 0
M  V30 3289 H 311.739 3.32296 -1.54839 0
M  V30 3290 H 311.387 5.02373 0.251128 0
M  V30 3291 H 311.087 5.71579 -1.36277 0
M  V30 3292 H 312.611 6.08495 -0.50654 0
M  V30 3293 H 314.025 5.12671 -2.56595 0
M  V30 3294 H 312.422 4.98296 -3.34397 0
M  V30 3295 H 313.492 3.57083 -3.28054 0
M  V30 3296 N 314.835 0.952656 1.25548 0
M  V30 3297 C 316.251 0.656769 1.4546 0
M  V30 3298 C 316.451 -0.78633 1.85524 0
M  V30 3299 O 315.507 -1.56183 1.98402 0
M  V30 3300 C 316.82 1.62801 2.52817 0
M  V30 3301 C 318.368 1.63897 2.66659 0
M  V30 3302 C 318.843 2.5978 3.77198 0
M  V30 3303 N 320.334 2.58133 3.84606 0
M  V30 3304 C 321.069 3.29003 4.69621 0
M  V30 3305 N 320.565 4.09339 5.58939 0
M  V30 3306 N 322.358 3.179 4.63569 0
M  V30 3307 H 314.509 1.88526 0.978344 0
M  V30 3308 H 316.772 0.810815 0.491206 0
M  V30 3309 H 316.478 2.65869 2.30232 0
M  V30 3310 H 316.352 1.38898 3.50695 0
M  V30 3311 H 318.739 0.615481 2.8861 0
M  V30 3312 H 318.82 1.91858 1.69187 0
M  V30 3313 H 318.464 3.62254 3.55997 0
M  V30 3314 H 318.394 2.29105 4.7415 0
M  V30 3315 H 320.885 1.99809 3.20757 0
M  V30 3316 H 321.198 4.6034 6.20731 0
M  V30 3317 H 319.543 4.13438 5.58654 0
M  V30 3318 H 322.734 2.54612 3.92798 0
M  V30 3319 H 322.907 3.73398 5.29602 0
M  V30 3320 N 316.313 -1.40141 0.720998 0
M  V30 3321 C 317.562 -2.0002 0.259804 0
M  V30 3322 C 317.875 -1.57839 -1.15526 0
M  V30 3323 O 319.081 -2.10455 -1.71525 0
M  V30 3324 C 317.537 -3.57516 0.413566 0
M  V30 3325 C 317.145 -4.08667 1.83562 0
M  V30 3326 C 318.889 -4.24498 0.0134387 0
M  V30 3327 C 316.796 -5.58686 1.93968 0
M  V30 3328 H 315.726 -0.748195 0.0933806 0
M  V30 3329 H 318.377 -1.60313 0.892866 0
M  V30 3330 H 316.759 -3.9495 -0.288169 0
M  V30 3331 H 317.933 -3.82598 2.56817 0
M  V30 3332 H 316.248 -3.543 2.1877 0
M  V30 3333 H 318.845 -5.34654 0.0703954 0
M  V30 3334 H 319.188 -4.03375 -1.02927 0
M  V30 3335 H 319.721 -3.92188 0.665815 0
M  V30 3336 H 316.46 -5.8467 2.96379 0
M  V30 3337 H 315.98 -5.86602 1.25131 0
M  V30 3338 H 317.659 -6.23875 1.71431 0
M  V30 3339 N 317.792 -0.46758 -1.50504 0
M  V30 3340 C 318.702 0.33382 -2.32213 0
M  V30 3341 C 319.718 0.999323 -1.42441 0
M  V30 3342 O 320.894 0.988068 -1.75497 0
M  V30 3343 C 317.959 1.4035 -3.17022 0
M  V30 3344 C 317.02 0.754961 -4.2261 0
M  V30 3345 C 316.253 1.77367 -5.03365 0
M  V30 3346 O 316.476 2.99976 -4.8515 0
M  V30 3347 O 315.41 1.34744 -5.86624 0
M  V30 3348 H 319.236 -0.334067 -3.01857 0
M  V30 3349 H 316.821 -0.229496 -1.47627 0
M  V30 3350 H 318.703 2.02318 -3.69656 0
M  V30 3351 H 317.378 2.05492 -2.5011 0
M  V30 3352 H 316.285 0.0964244 -3.73976 0
M  V30 3353 H 317.618 0.146545 -4.91982 0
M  V30 3354 N 319.27 1.56325 -0.20005 0
M  V30 3355 C 320.18 2.22931 0.730668 0
M  V30 3356 C 321.196 1.22997 1.23076 0
M  V30 3357 O 322.372 1.55748 1.27689 0
M  V30 3358 C 319.437 2.87948 1.93098 0
M  V30 3359 C 318.498 4.03166 1.47497 0
M  V30 3360 C 317.731 4.65073 2.61807 0
M  V30 3361 O 317.954 4.25913 3.79413 0
M  V30 3362 O 316.888 5.54452 2.34237 0
M  V30 3363 H 320.714 3.03084 0.193391 0
M  V30 3364 H 318.299 1.49371 0.0294621 0
M  V30 3365 H 320.181 3.29063 2.6324 0
M  V30 3366 H 318.856 2.10771 2.45677 0
M  V30 3367 H 317.763 3.66664 0.742201 0
M  V30 3368 H 319.096 4.82022 0.995796 0
M  V30 3369 N 320.748 -0.0735177 1.57428 0
M  V30 3370 C 321.678 -1.0879 2.06608 0
M  V30 3371 C 322.659 -1.40473 0.959237 0
M  V30 3372 O 323.844 -1.5013 1.23185 0
M  V30 3373 C 320.974 -2.40183 2.50857 0
M  V30 3374 C 319.928 -2.22858 3.65402 0
M  V30 3375 C 319.254 -3.59619 3.957 0
M  V30 3376 C 320.554 -1.65123 4.95511 0
M  V30 3377 H 322.248 -0.678673 2.91607 0
M  V30 3378 H 319.794 -0.325013 1.40284 0
M  V30 3379 H 321.747 -3.11437 2.83874 0
M  V30 3380 H 320.471 -2.83083 1.62885 0
M  V30 3381 H 319.13 -1.54045 3.32664 0
M  V30 3382 H 318.778 -4.00086 3.04861 0
M  V30 3383 H 318.478 -3.48866 4.72828 0
M  V30 3384 H 320.002 -4.32306 4.31212 0
M  V30 3385 H 321.416 -2.26241 5.26771 0
M  V30 3386 H 319.813 -1.65071 5.7695 0
M  V30 3387 H 320.883 -0.612559 4.81015 0
M  V30 3388 N 322.226 -1.5378 -0.344866 0
M  V30 3389 C 323.642 -1.44015 -0.687888 0
M  V30 3390 C 323.842 -0.595834 -1.92489 0
M  V30 3391 O 322.898 -0.0863064 -2.52352 0
M  V30 3392 C 324.211 -2.87481 -0.881758 0
M  V30 3393 C 325.759 -2.97247 -0.980459 0
M  V30 3394 C 326.234 -4.41819 -1.20665 0
M  V30 3395 N 327.725 -4.45339 -1.27389 0
M  V30 3396 C 328.46 -5.54333 -1.46639 0
M  V30 3397 N 327.956 -6.73335 -1.63071 0
M  V30 3398 N 329.749 -5.41944 -1.49176 0
M  V30 3399 H 321.9 -2.07169 0.468475 0
M  V30 3400 H 324.163 -0.93643 0.147655 0
M  V30 3401 H 323.869 -3.51672 -0.0443444 0
M  V30 3402 H 323.743 -3.32352 -1.78388 0
M  V30 3403 H 326.13 -2.33197 -1.8084 0
M  V30 3404 H 326.211 -2.5574 -0.0552713 0
M  V30 3405 H 325.855 -5.06449 -0.383652 0
M  V30 3406 H 325.785 -4.80917 -2.14539 0
M  V30 3407 H 328.276 -3.59585 -1.1622 0
M  V30 3408 H 328.589 -7.52165 -1.77391 0
M  V30 3409 H 326.934 -6.76282 -1.60209 0
M  V30 3410 H 330.125 -4.47932 -1.3592 0
M  V30 3411 H 330.298 -6.26946 -1.63837 0
M  V30 3412 N 323.704 0.605807 -1.45491 0
M  V30 3413 C 324.654 1.71074 -1.50724 0
M  V30 3414 C 325.638 1.5658 -0.37033 0
M  V30 3415 O 326.83 1.65887 -0.617299 0
M  V30 3416 C 323.959 3.0983 -1.47852 0
M  V30 3417 C 323.045 3.29704 -2.66751 0
M  V30 3418 N 323.436 3.19831 -3.91844 0
M  V30 3419 C 321.734 3.60579 -2.62486 0
M  V30 3420 C 322.435 3.41083 -4.71208 0
M  V30 3421 N 321.411 3.65157 -4.02693 0
M  V30 3422 H 325.213 1.61937 -2.45263 0
M  V30 3423 H 322.727 0.80912 -1.40808 0
M  V30 3424 H 324.724 3.89101 -1.49686 0
M  V30 3425 H 323.384 3.20115 -0.543714 0
M  V30 3426 H 324.395 2.98194 -4.23439 0
M  V30 3427 H 321.072 3.7769 -1.77922 0
M  V30 3428 H 322.462 3.38828 -5.80211 0
M  V30 3429 N 325.182 1.32811 0.848464 0
M  V30 3430 C 326.132 1.18842 1.94578 0
M  V30 3431 C 327.116 0.0937517 1.60627 0
M  V30 3432 O 328.308 0.320887 1.74067 0
M  V30 3433 C 325.437 0.91999 3.30743 0
M  V30 3434 C 324.523 2.05665 3.70894 0
M  V30 3435 N 324.914 3.30579 3.8282 0
M  V30 3436 C 323.212 1.9612 4.00566 0
M  V30 3437 C 323.913 4.05067 4.17487 0
M  V30 3438 N 322.889 3.33419 4.2934 0
M  V30 3439 H 326.691 2.13536 2.0194 0
M  V30 3440 H 324.205 1.2468 1.0406 0
M  V30 3441 H 326.202 0.800859 4.09136 0
M  V30 3442 H 324.862 -0.0185076 3.24695 0
M  V30 3443 H 325.873 3.65441 3.66978 0
M  V30 3444 H 322.55 1.09871 4.02784 0
M  V30 3445 H 323.94 5.12815 4.34131 0
M  V30 3446 N 326.66 -1.06551 1.16123 0
M  V30 3447 C 327.907 -1.79302 0.941126 0
M  V30 3448 C 328.235 -1.87105 -0.531235 0
M  V30 3449 O 327.49 -1.35692 -1.41018 0
M  V30 3450 C 327.789 -3.23911 1.51052 0
M  V30 3451 C 327.455 -3.36193 3.00475 0
M  V30 3452 C 326.117 -3.39252 3.41265 0
M  V30 3453 C 328.469 -3.38326 3.96465 0
M  V30 3454 C 325.797 -3.42057 4.76669 0
M  V30 3455 C 328.149 -3.4267 5.31752 0
M  V30 3456 C 326.813 -3.4401 5.72026 0
M  V30 3457 H 326.083 -0.656111 0.344382 0
M  V30 3458 H 328.73 -1.25325 1.44796 0
M  V30 3459 H 327.035 -3.80723 0.925063 0
M  V30 3460 H 328.732 -3.78793 1.31593 0
M  V30 3461 H 325.322 -3.34516 2.6795 0
M  V30 3462 H 329.506 -3.35176 3.6602 0
M  V30 3463 H 324.762 -3.41398 5.07206 0
M  V30 3464 H 328.936 -3.43268 6.05921 0
M  V30 3465 H 326.563 -3.45937 6.76928 0
M  V30 3466 N 328.138 -0.959301 -1.25041 0
M  V30 3467 C 329.554 -0.664474 -1.4511 0
M  V30 3468 C 329.754 0.776481 -1.85938 0
M  V30 3469 O 328.81 1.55128 -1.99227 0
M  V30 3470 C 330.123 -1.64139 -2.5195 0
M  V30 3471 C 331.671 -1.65309 -2.65786 0
M  V30 3472 C 332.146 -2.61777 -3.75815 0
M  V30 3473 N 333.637 -2.60169 -3.83231 0
M  V30 3474 C 334.372 -3.31489 -4.6787 0
M  V30 3475 N 333.868 -4.12298 -5.56761 0
M  V30 3476 N 335.661 -3.20354 -4.61876 0
M  V30 3477 H 327.812 -1.89043 -0.968332 0
M  V30 3478 H 330.075 -0.813408 -0.4869 0
M  V30 3479 H 329.781 -2.67086 -2.28819 0
M  V30 3480 H 329.655 -1.40756 -3.49954 0
M  V30 3481 H 332.042 -0.630778 -2.8828 0
M  V30 3482 H 332.123 -1.92753 -1.68167 0
M  V30 3483 H 331.767 -3.64137 -3.54071 0
M  V30 3484 H 331.697 -2.31616 -4.72929 0
M  V30 3485 H 334.188 -2.01507 -3.19692 0
M  V30 3486 H 334.501 -4.63625 -6.18281 0
M  V30 3487 H 332.846 -4.16395 -5.56454 0
M  V30 3488 H 336.037 -2.56692 -3.91442 0
M  V30 3489 H 336.21 -3.76201 -5.27614 0
M  V30 3490 N 329.616 1.39756 -0.72842 0
M  V30 3491 C 330.862 2.00942 -0.273892 0
M  V30 3492 C 331.195 1.57656 1.13394 0
M  V30 3493 O 330.47 0.802434 1.77176 0
M  V30 3494 C 330.753 3.58211 -0.368346 0
M  V30 3495 C 330.606 4.11534 -1.81548 0
M  V30 3496 C 331.925 4.39372 0.253054 0
M  V30 3497 H 329.044 0.730047 -0.100996 0
M  V30 3498 H 331.686 1.66056 -0.923337 0
M  V30 3499 H 329.836 3.88061 0.184588 0
M  V30 3500 H 331.508 3.92431 -2.42478 0
M  V30 3501 H 329.751 3.65341 -2.33898 0
M  V30 3502 H 330.422 5.20682 -1.83288 0
M  V30 3503 H 332.898 4.15527 -0.218224 0
M  V30 3504 H 331.774 5.48677 0.156585 0
M  V30 3505 H 332.035 4.21358 1.33826 0
M  V30 3506 N 331.094 0.475555 1.50254 0
M  V30 3507 C 332.004 -0.321501 2.32387 0
M  V30 3508 C 333.02 -0.991755 1.42969 0
M  V30 3509 O 334.196 -0.978747 1.76018 0
M  V30 3510 C 331.261 -1.38667 3.17762 0
M  V30 3511 C 330.322 -0.732538 4.23004 0
M  V30 3512 C 329.555 -1.74695 5.04299 0
M  V30 3513 O 329.778 -2.97399 4.86734 0
M  V30 3514 O 328.712 -1.31631 5.8733 0
M  V30 3515 H 332.538 0.350071 3.01676 0
M  V30 3516 H 330.123 0.237321 1.47503 0
M  V30 3517 H 332.005 -2.00354 3.70724 0
M  V30 3518 H 330.68 -2.04163 2.51196 0
M  V30 3519 H 329.587 -0.0765902 3.74022 0
M  V30 3520 H 330.92 -0.120452 4.92053 0
M  V30 3521 N 332.573 -1.56217 0.208337 0
M  V30 3522 C 333.523 -2.16324 -0.720281 0
M  V30 3523 C 334.507 -1.10775 -1.16695 0
M  V30 3524 O 335.699 -1.36801 -1.12314 0
M  V30 3525 C 332.828 -2.83644 -1.93393 0
M  V30 3526 C 331.914 -3.96401 -1.50755 0
M  V30 3527 N 332.305 -4.99546 -0.792937 0
M  V30 3528 C 330.603 -4.08246 -1.79585 0
M  V30 3529 C 331.304 -5.78828 -0.577364 0
M  V30 3530 N 330.28 -5.31723 -1.1301 0
M  V30 3531 H 334.082 -2.93432 -0.165725 0
M  V30 3532 H 331.596 -1.62397 0.00906463 0
M  V30 3533 H 333.593 -3.25107 -2.60981 0
M  V30 3534 H 332.253 -2.08027 -2.49308 0
M  V30 3535 H 333.264 -5.15967 -0.447004 0
M  V30 3536 H 329.941 -3.4377 -2.36915 0
M  V30 3537 H 331.331 -6.71899 -0.00952956 0
M  V30 3538 N 334.051 0.0651679 -1.57465 0
M  V30 3539 C 335.014 1.06117 -2.03155 0
M  V30 3540 C 336.014 1.31204 -0.929632 0
M  V30 3541 O 337.204 1.26813 -1.19432 0
M  V30 3542 C 334.336 2.4032 -2.41783 0
M  V30 3543 H 335.529 0.667231 -2.92383 0
M  V30 3544 H 333.082 0.311075 -1.53173 0
M  V30 3545 H 333.817 2.84532 -1.55601 0
M  V30 3546 H 333.602 2.23451 -3.22199 0
M  V30 3547 H 335.092 3.11898 -2.77685 0
M  V30 3548 N 335.529 1.53961 0.336706 0
M  V30 3549 C 336.775 1.7179 1.07777 0
M  V30 3550 C 337.108 0.483263 1.88091 0
M  V30 3551 O 336.383 -0.519747 1.87427 0
M  V30 3552 C 336.666 2.98558 2.01334 0
M  V30 3553 C 336.519 4.32245 1.24437 0
M  V30 3554 C 337.838 3.21023 3.01052 0
M  V30 3555 H 334.957 0.625089 0.390426 0
M  V30 3556 H 337.599 1.86641 0.35567 0
M  V30 3557 H 335.749 2.86028 2.62908 0
M  V30 3558 H 337.421 4.56637 0.654243 0
M  V30 3559 H 335.664 4.30344 0.546458 0
M  V30 3560 H 336.335 5.17137 1.93063 0
M  V30 3561 H 338.811 3.32929 2.49595 0
M  V30 3562 H 337.687 4.11104 3.6371 0
M  V30 3563 H 337.948 2.37637 3.72802 0
M  V30 3564 N 337.007 -0.598083 1.45811 0
M  V30 3565 C 337.97 -1.69018 1.54808 0
M  V30 3566 C 338.97 -1.55037 0.426652 0
M  V30 3567 O 340.16 -1.59932 0.690456 0
M  V30 3568 C 337.292 -3.0835 1.45371 0
M  V30 3569 H 338.485 -1.62403 2.52121 0
M  V30 3570 H 336.038 -0.814626 1.33392 0
M  V30 3571 H 336.773 -3.20534 0.492793 0
M  V30 3572 H 336.558 -3.19907 2.26721 0
M  V30 3573 H 338.048 -3.8788 1.54721 0
M  V30 3574 N 338.485 -1.33259 -0.841409 0
M  V30 3575 C 339.395 -1.25332 -1.98316 0
M  V30 3576 C 340.411 -0.164364 -1.73222 0
M  V30 3577 O 341.587 -0.387486 -1.97637 0
M  V30 3578 C 338.652 -0.990078 -3.32262 0
M  V30 3579 C 337.713 -2.16879 -3.70489 0
M  V30 3580 C 336.946 -1.91801 -4.98044 0
M  V30 3581 O 337.169 -0.867075 -5.63771 0
M  V30 3582 O 336.103 -2.78267 -5.33714 0
M  V30 3583 H 339.929 -2.21344 -2.07944 0
M  V30 3584 H 337.514 -1.1328 -0.974058 0
M  V30 3585 H 339.396 -0.860321 -4.12524 0
M  V30 3586 H 338.071 -0.0602155 -3.23644 0
M  V30 3587 H 336.978 -2.35407 -2.90748 0
M  V30 3588 H 338.311 -3.0819 -3.8377 0
M  V30 3589 N 339.963 1.05934 -1.16686 0
M  V30 3590 C 341.211 1.78447 -0.948744 0
M  V30 3591 C 341.532 1.87813 0.524523 0
M  V30 3592 O 340.802 1.38945 1.38098 0
M  V30 3593 H 339.382 0.660971 -0.348033 0
M  V30 3594 H 342.044 1.27947 -1.47022 0
M  V30 3595 H 341.14 2.80394 -1.37061 0
M  V30 3596 N 341.441 0.965919 1.2453 0
M  V30 3597 C 342.404 0.499547 2.2369 0
M  V30 3598 C 343.404 -0.40294 1.5567 0
M  V30 3599 O 344.594 -0.19865 1.73064 0
M  V30 3600 C 341.726 -0.276792 3.39774 0
M  V30 3601 H 342.919 1.37613 2.66463 0
M  V30 3602 H 340.472 0.750324 1.37112 0
M  V30 3603 H 341.207 -1.17055 3.02438 0
M  V30 3604 H 340.992 0.370826 3.90343 0
M  V30 3605 H 342.482 -0.592175 4.1338 0
M  V30 3606 N 342.919 -1.39368 0.735821 0
M  V30 3607 C 343.866 -2.30599 0.0963825 0
M  V30 3608 C 344.836 -1.49257 -0.728794 0
M  V30 3609 O 346.021 -1.77941 -0.688588 0
M  V30 3610 C 343.161 -3.35596 -0.804305 0
M  V30 3611 C 342.274 -4.31987 0.0335761 0
M  V30 3612 C 341.409 -5.24053 -0.868461 0
M  V30 3613 C 340.448 -6.12095 -0.0258776 0
M  V30 3614 N 339.585 -6.96514 -0.883893 0
M  V30 3615 H 344.425 -2.8471 0.880002 0
M  V30 3616 H 341.962 -1.40188 0.445619 0
M  V30 3617 H 343.92 -3.95062 -1.34096 0
M  V30 3618 H 342.55 -2.82938 -1.55389 0
M  V30 3619 H 341.602 -3.74133 0.68766 0
M  V30 3620 H 342.914 -4.94074 0.685036 0
M  V30 3621 H 342.068 -5.88549 -1.47293 0
M  V30 3622 H 340.807 -4.62289 -1.5537 0
M  V30 3623 H 339.812 -5.4661 0.591386 0
M  V30 3624 H 341.037 -6.75923 0.656156 0
M  V30 3625 H 338.983 -6.37318 -1.55441 0
M  V30 3626 H 338.9 -7.55448 -0.288931 0
M  V30 3627 H 340.168 -7.65439 -1.4739 0
M  V30 3628 N 344.397 -0.483516 -1.5 0
M  V30 3629 C 345.345 0.318061 -2.30415 0
M  V30 3630 C 346.339 0.978988 -1.38247 0
M  V30 3631 O 347.545 0.908673 -1.55381 0
M  V30 3632 H 343.92 0.121419 -0.742133 0
M  V30 3633 H 345.891 -0.380403 -2.95965 0
M  V30 3634 C 344.64 1.38013 -3.19136 0
M  V30 3635 H 343.963 0.880952 -3.89973 0
M  V30 3636 H 345.403 1.91332 -3.78375 0
M  V30 3637 C 343.862 2.38884 -2.37563 0
M  V30 3638 O 344.392 3.44412 -2.06744 0
M  V30 3639 N 342.598 2.10912 -1.99911 0
M  V30 3640 H 342.145 1.25118 -2.25174 0
M  V30 3641 H 342.103 2.78635 -1.45636 0
M  V30 3642 N 345.875 1.56104 -0.216619 0
M  V30 3643 C 347.121 1.98466 0.417033 0
M  V30 3644 C 347.454 1.10403 1.59765 0
M  V30 3645 O 346.729 0.160632 1.93836 0
M  V30 3646 C 347.012 3.49769 0.85637 0
M  V30 3647 C 346.865 4.48606 -0.327546 0
M  V30 3648 C 348.184 4.05339 1.7143 0
M  V30 3649 H 345.303 0.721551 0.150112 0
M  V30 3650 H 347.945 1.87423 -0.311864 0
M  V30 3651 H 346.095 3.5931 1.47745 0
M  V30 3652 H 347.767 4.5108 -0.965618 0
M  V30 3653 H 346.01 4.22682 -0.975805 0
M  V30 3654 H 346.681 5.51995 0.0227149 0
M  V30 3655 H 349.157 3.98712 1.19031 0
M  V30 3656 H 348.033 5.11533 1.99061 0
M  V30 3657 H 348.294 3.51918 2.67593 0
M  V30 3658 N 347.353 -0.0568162 1.57498 0
M  V30 3659 C 348.283 -1.06593 2.0775 0
M  V30 3660 C 349.264 -1.39448 0.974082 0
M  V30 3661 O 350.449 -1.48815 1.24771 0
M  V30 3662 C 347.579 -2.37509 2.5339 0
M  V30 3663 C 346.533 -2.1897 3.67745 0
M  V30 3664 C 345.859 -3.55402 3.99492 0
M  V30 3665 C 347.159 -1.59859 4.97235 0
M  V30 3666 H 348.853 -0.647706 2.9231 0
M  V30 3667 H 346.399 -0.310116 1.40621 0
M  V30 3668 H 348.352 -3.08409 2.87162 0
M  V30 3669 H 347.076 -2.8134 1.65878 0
M  V30 3670 H 345.735 -1.50508 3.3428 0
M  V30 3671 H 345.383 -3.9683 3.09088 0
M  V30 3672 H 345.083 -3.43831 4.76502 0
M  V30 3673 H 346.607 -4.27708 4.35773 0
M  V30 3674 H 348.021 -2.20642 5.29141 0
M  V30 3675 H 346.418 -1.58942 5.78669 0
M  V30 3676 H 347.488 -0.561506 4.81638 0
M  V30 3677 N 348.832 -1.54138 -0.328536 0
M  V30 3678 C 350.248 -1.44736 -0.672574 0
M  V30 3679 C 350.448 -0.616217 -1.91846 0
M  V30 3680 O 349.504 -0.113067 -2.52247 0
M  V30 3681 C 350.817 -2.884 -0.851217 0
M  V30 3682 C 352.365 -2.98271 -0.948877 0
M  V30 3683 C 352.84 -4.43074 -1.15973 0
M  V30 3684 N 354.331 -4.46665 -1.22658 0
M  V30 3685 C 355.066 -5.55857 -1.40751 0
M  V30 3686 N 354.562 -6.75026 -1.5592 0
M  V30 3687 N 356.355 -5.43495 -1.4342 0
M  V30 3688 H 348.506 -2.06661 0.490421 0
M  V30 3689 H 350.769 -0.934812 0.157579 0
M  V30 3690 H 350.475 -3.51699 -0.00704236 0
M  V30 3691 H 350.349 -3.34225 -1.74853 0
M  V30 3692 H 352.736 -2.35102 -1.78356 0
M  V30 3693 H 352.817 -2.55785 -0.0281435 0
M  V30 3694 H 352.461 -5.06827 -0.329915 0
M  V30 3695 H 352.391 -4.83165 -2.09426 0
M  V30 3696 H 354.882 -3.60797 -1.124 0
M  V30 3697 H 355.195 -7.54004 -1.69404 0
M  V30 3698 H 353.54 -6.77944 -1.53027 0
M  V30 3699 H 356.731 -4.49349 -1.31162 0
M  V30 3700 H 356.904 -6.28649 -1.57178 0
M  V30 3701 N 350.31 0.590341 -1.46126 0
M  V30 3702 C 351.24 1.71032 -1.58966 0
M  V30 3703 C 352.221 1.64302 -0.440335 0
M  V30 3704 O 353.406 1.82436 -0.665634 0
M  V30 3705 C 350.536 3.09665 -1.57241 0
M  V30 3706 C 349.49 3.31221 -2.71066 0
M  V30 3707 C 348.816 4.70303 -2.54399 0
M  V30 3708 C 350.116 3.19796 -4.1295 0
M  V30 3709 H 351.81 1.60543 -2.52718 0
M  V30 3710 H 349.356 0.770933 -1.21625 0
M  V30 3711 H 351.309 3.87831 -1.64819 0
M  V30 3712 H 350.033 3.21036 -0.600289 0
M  V30 3713 H 348.692 2.55452 -2.62944 0
M  V30 3714 H 348.34 4.78429 -1.55288 0
M  V30 3715 H 348.04 4.85679 -3.30741 0
M  V30 3716 H 349.564 5.50647 -2.63857 0
M  V30 3717 H 350.978 3.87815 -4.22223 0
M  V30 3718 H 349.375 3.46696 -4.89818 0
M  V30 3719 H 350.445 2.16983 -4.33643 0
M  V30 3720 N 351.788 1.33704 0.83433 0
M  V30 3721 C 352.718 1.26967 1.95963 0
M  V30 3722 C 353.699 0.149337 1.69443 0
M  V30 3723 O 354.884 0.339852 1.91203 0
M  V30 3724 C 352.014 1.01275 3.32206 0
M  V30 3725 C 350.968 2.09652 3.73136 0
M  V30 3726 C 350.294 1.69166 5.07235 0
M  V30 3727 C 351.594 3.51372 3.86439 0
M  V30 3728 H 353.288 2.2112 2.01857 0
M  V30 3729 H 350.834 1.06447 0.969793 0
M  V30 3730 H 352.787 0.952106 4.10503 0
M  V30 3731 H 351.511 0.0356203 3.26581 0
M  V30 3732 H 350.17 2.14766 2.97104 0
M  V30 3733 H 349.818 0.701437 4.98085 0
M  V30 3734 H 349.518 2.41694 5.35591 0
M  V30 3735 H 351.042 1.64576 5.88003 0
M  V30 3736 H 352.456 3.48734 4.55036 0
M  V30 3737 H 350.853 4.22425 4.26236 0
M  V30 3738 H 351.923 3.89546 2.88759 0
M  V30 3739 N 353.266 -1.05314 1.17247 0
M  V30 3740 C 354.491 -1.82509 0.985148 0
M  V30 3741 C 354.916 -1.82343 -0.461788 0
M  V30 3742 O 354.274 -1.23151 -1.33055 0
M  V30 3743 C 354.322 -3.26566 1.52929 0
M  V30 3744 O 353.426 -4.05666 0.742225 0
M  V30 3745 H 352.767 -0.564347 0.349869 0
M  V30 3746 H 355.297 -1.32718 1.55715 0
M  V30 3747 H 355.307 -3.77369 1.55103 0
M  V30 3748 H 353.982 -3.26001 2.58256 0
M  V30 3749 H 352.559 -3.64397 0.791794 0
M  V30 3750 N 354.744 -0.972509 -1.24016 0
M  V30 3751 C 355.707 -0.511403 -2.23422 0
M  V30 3752 C 356.707 0.394679 -1.55881 0
M  V30 3753 O 357.897 0.189469 -1.73167 0
M  V30 3754 C 355.029 0.258769 -3.39916 0
M  V30 3755 H 356.222 -1.39024 -2.6573 0
M  V30 3756 H 353.775 -0.757585 -1.36713 0
M  V30 3757 H 354.51 1.1545 -3.03054 0
M  V30 3758 H 354.295 -0.391522 -3.9014 0
M  V30 3759 H 355.785 0.570244 -4.13688 0
M  V30 3760 N 356.222 1.38976 -0.743202 0
M  V30 3761 C 357.185 2.28901 -0.117014 0
M  V30 3762 C 358.185 1.46698 0.658503 0
M  V30 3763 O 359.375 1.67274 0.486305 0
M  V30 3764 C 356.507 3.30309 0.84315 0
M  V30 3765 H 357.7 2.8578 -0.909373 0
M  V30 3766 H 355.253 1.47761 -0.509547 0
M  V30 3767 H 355.988 2.785 1.66157 0
M  V30 3768 H 355.773 3.91029 0.289594 0
M  V30 3769 H 357.263 3.97577 1.2776 0
M  V30 3770 N 357.7 0.491464 1.49741 0
M  V30 3771 C 358.647 -0.292027 2.28945 0
M  V30 3772 C 359.617 -0.968973 1.34908 0
M  V30 3773 O 360.802 -0.97748 1.6386 0
M  V30 3774 C 357.942 -1.35617 3.17336 0
M  V30 3775 C 357.055 -0.691957 4.26422 0
M  V30 3776 C 356.19 -1.73572 5.02042 0
M  V30 3777 C 355.229 -1.05286 6.02977 0
M  V30 3778 N 354.366 -2.0404 6.71798 0
M  V30 3779 H 359.206 0.389654 2.95442 0
M  V30 3780 H 356.743 0.204003 1.45679 0
M  V30 3781 H 358.701 -1.98502 3.66951 0
M  V30 3782 H 357.331 -2.00674 2.52844 0
M  V30 3783 H 356.383 0.0499523 3.80367 0
M  V30 3784 H 357.695 -0.153946 4.98562 0
M  V30 3785 H 356.849 -2.43987 5.55478 0
M  V30 3786 H 355.588 -2.30757 4.29654 0
M  V30 3787 H 354.593 -0.334446 5.48782 0
M  V30 3788 H 355.818 -0.487636 6.77347 0
M  V30 3789 H 353.764 -2.60205 6.02187 0
M  V30 3790 H 353.681 -1.55279 7.39881 0
M  V30 3791 H 354.949 -2.73772 7.29842 0
M  V30 3792 N 359.178 -1.55987 0.224894 0
M  V30 3793 C 360.141 -2.19178 -0.670348 0
M  V30 3794 C 361.141 -1.15461 -1.11917 0
M  V30 3795 O 362.331 -1.40675 -1.02743 0
M  V30 3796 C 359.463 -2.81777 -1.9187 0
M  V30 3797 H 360.656 -2.99662 -0.119364 0
M  V30 3798 H 358.209 -1.5628 -0.0247128 0
M  V30 3799 H 358.944 -2.05172 -2.51147 0
M  V30 3800 H 358.729 -3.57732 -1.60531 0
M  V30 3801 H 360.219 -3.30205 -2.55645 0
M  V30 3802 N 360.656 0.0484629 -1.57525 0
M  V30 3803 C 362.067 0.597486 -1.76881 0
M  V30 3804 C 362.418 1.76664 -0.853475 0
M  V30 3805 O 361.543 2.16357 -0.0433656 0
M  V30 3806 C 362.138 1.09066 -3.20765 0
M  V30 3807 C 360.697 1.58535 -3.41385 0
M  V30 3808 C 359.844 0.514868 -2.72478 0
M  V30 3809 H 362.795 -0.177758 -1.57701 0
M  V30 3810 H 362.816 1.95875 -3.2621 0
M  V30 3811 H 362.328 0.239521 -3.8736 0
M  V30 3812 H 360.429 2.45898 -2.79937 0
M  V30 3813 H 360.542 1.64622 -4.49929 0
M  V30 3814 H 358.906 0.965407 -2.35695 0
M  V30 3815 H 359.689 -0.32648 -3.41744 0
M  V30 3816 N 362.134 1.5431 0.320358 0
M  V30 3817 C 363.411 1.63322 1.07635 0
M  V30 3818 C 363.791 0.46912 2.05821 0
M  V30 3819 O 363.139 -0.536274 2.22118 0
M  V30 3820 C 363.349 3.00465 1.77544 0
M  V30 3821 C 364.697 3.56621 2.30449 0
M  V30 3822 O 365.721 3.02791 1.87606 0
M  V30 3823 O 364.58 4.5083 3.08892 0
M  V30 3824 H 361.674 0.661502 0.496331 0
M  V30 3825 H 364.22 1.66656 0.319992 0
M  V30 3826 H 362.992 3.76629 1.06143 0
M  V30 3827 H 362.615 3.00824 2.59982 0
M  V30 3828 N 363.613 -0.582584 1.46437 0
M  V30 3829 C 365.029 -0.905962 1.31394 0
M  V30 3830 C 365.229 -1.99468 0.285476 0
M  V30 3831 O 364.285 -2.50566 -0.311914 0
M  V30 3832 C 365.598 -1.3232 2.70022 0
M  V30 3833 C 367.146 -1.43604 2.78113 0
M  V30 3834 C 367.621 -1.88694 4.17323 0
M  V30 3835 N 369.112 -1.95887 4.19741 0
M  V30 3836 C 369.847 -2.32051 5.24347 0
M  V30 3837 N 369.343 -2.67006 6.39281 0
M  V30 3838 N 371.136 -2.32606 5.11713 0
M  V30 3839 H 363.287 0.1366 2.1196 0
M  V30 3840 H 365.55 -0.00155736 0.947999 0
M  V30 3841 H 365.256 -0.597242 3.46592 0
M  V30 3842 H 365.13 -2.28469 3.00136 0
M  V30 3843 H 367.517 -2.15286 2.01832 0
M  V30 3844 H 367.598 -0.457059 2.51684 0
M  V30 3845 H 367.242 -1.1759 4.941 0
M  V30 3846 H 367.172 -2.8755 4.4116 0
M  V30 3847 H 369.663 -1.71362 3.36814 0
M  V30 3848 H 369.976 -2.93554 7.14875 0
M  V30 3849 H 368.321 -2.64644 6.42642 0
M  V30 3850 H 371.512 -2.04721 4.2096 0
M  V30 3851 H 371.685 -2.60462 5.93349 0
M  V30 3852 N 365.091 -1.34144 -0.827227 0
M  V30 3853 C 366.038 -1.25364 -1.93785 0
M  V30 3854 C 367.008 -0.129774 -1.65592 0
M  V30 3855 O 368.193 -0.310024 -1.88264 0
M  V30 3856 C 365.333 -1.01064 -3.2997 0
M  V30 3857 C 364.446 -2.22185 -3.70484 0
M  V30 3858 C 363.581 -1.91203 -4.95595 0
M  V30 3859 C 362.62 -3.08491 -5.28677 0
M  V30 3860 N 361.757 -2.77421 -6.44967 0
M  V30 3861 H 366.597 -2.20347 -2.00627 0
M  V30 3862 H 364.134 -1.09558 -0.981608 0
M  V30 3863 H 366.092 -0.850139 -4.08446 0
M  V30 3864 H 364.722 -0.0975026 -3.22653 0
M  V30 3865 H 363.774 -2.4917 -2.87434 0
M  V30 3866 H 365.086 -3.0983 -3.90905 0
M  V30 3867 H 364.24 -1.71864 -5.81848 0
M  V30 3868 H 362.979 -1.00812 -4.77167 0
M  V30 3869 H 361.984 -3.28431 -4.40923 0
M  V30 3870 H 363.209 -3.99655 -5.49047 0
M  V30 3871 H 361.155 -1.89601 -6.28003 0
M  V30 3872 H 361.072 -3.58598 -6.6554 0
M  V30 3873 H 362.34 -2.61577 -7.34301 0
M  V30 3874 N 366.569 1.04691 -1.17803 0
M  V30 3875 C 367.532 2.10724 -0.901545 0
M  V30 3876 C 368.532 1.6042 0.110437 0
M  V30 3877 O 369.722 1.7377 -0.122303 0
M  V30 3878 C 366.854 3.39084 -0.351409 0
M  V30 3879 H 368.047 2.36686 -1.84174 0
M  V30 3880 H 365.6 1.21015 -0.98919 0
M  V30 3881 H 366.335 3.18782 0.59569 0
M  V30 3882 H 366.12 3.76909 -1.08083 0
M  V30 3883 H 367.61 4.17227 -0.176451 0
M  V30 3884 N 368.047 0.979072 1.23499 0
M  V30 3885 C 369.293 0.648178 1.92163 0
M  V30 3886 C 369.626 -0.816049 1.76222 0
M  V30 3887 O 368.901 -1.58849 1.12237 0
M  V30 3888 C 369.184 1.03773 3.44824 0
M  V30 3889 C 369.037 2.55948 3.69879 0
M  V30 3890 C 370.356 0.580653 4.36253 0
M  V30 3891 H 367.475 0.236952 0.69787 0
M  V30 3892 H 370.117 1.22012 1.45647 0
M  V30 3893 H 368.267 0.551058 3.84572 0
M  V30 3894 H 369.939 3.12179 3.3962 0
M  V30 3895 H 368.182 2.98641 3.14636 0
M  V30 3896 H 368.853 2.78255 4.76737 0
M  V30 3897 H 371.329 0.998465 4.03943 0
M  V30 3898 H 370.205 0.881663 5.41773 0
M  V30 3899 H 370.466 -0.519052 4.39042 0
M  V30 3900 N 369.525 -1.3858 0.750561 0
M  V30 3901 C 370.75 -2.04997 0.314812 0
M  V30 3902 C 371.175 -1.56235 -1.04749 0
M  V30 3903 O 370.533 -0.712981 -1.66692 0
M  V30 3904 C 370.581 -3.58961 0.343415 0
M  V30 3905 O 369.685 -4.07025 -0.663628 0
M  V30 3906 H 369.026 -0.649081 0.139962 0
M  V30 3907 H 371.556 -1.77313 1.02084 0
M  V30 3908 H 371.566 -4.07542 0.193233 0
M  V30 3909 H 370.241 -3.93811 1.33738 0
M  V30 3910 H 368.818 -3.6982 -0.478307 0
M  V30 3911 N 371.003 -0.499398 -1.49478 0
M  V30 3912 C 371.913 0.284489 -2.32869 0
M  V30 3913 C 372.929 0.968885 -1.44529 0
M  V30 3914 O 374.105 0.95062 -1.77553 0
M  V30 3915 C 371.17 1.33594 -3.19928 0
M  V30 3916 C 370.231 0.665149 -4.24116 0
M  V30 3917 C 369.464 1.6665 -5.07014 0
M  V30 3918 O 369.687 2.89618 -4.91404 0
M  V30 3919 O 368.621 1.22271 -5.8935 0
M  V30 3920 H 372.447 -0.39802 -3.01081 0
M  V30 3921 H 370.032 -0.260758 -1.47107 0
M  V30 3922 H 371.914 1.94431 -3.73864 0
M  V30 3923 H 370.589 2.0014 -2.54412 0
M  V30 3924 H 369.496 0.0170769 -3.74096 0
M  V30 3925 H 370.829 0.0421555 -4.92182 0
M  V30 3926 N 372.481 1.55866 -0.233164 0
M  V30 3927 C 373.444 2.1953 0.658715 0
M  V30 3928 C 374.444 1.16053 1.11303 0
M  V30 3929 O 375.634 1.41218 1.01996 0
M  V30 3930 C 372.766 2.82791 1.90373 0
M  V30 3931 H 373.959 2.99721 0.10347 0
M  V30 3932 H 371.512 1.56291 0.0164245 0
M  V30 3933 H 372.247 2.06501 2.50056 0
M  V30 3934 H 372.032 3.58578 1.58632 0
M  V30 3935 H 373.522 3.31556 2.53891 0
M  V30 3936 N 373.959 -0.0401083 1.57549 0
M  V30 3937 C 374.891 -1.07149 2.02612 0
M  V30 3938 C 375.904 -1.33126 0.937085 0
M  V30 3939 O 377.093 -1.30808 1.21456 0
M  V30 3940 C 374.193 -2.41561 2.37701 0
M  V30 3941 C 373.366 -2.35096 3.68848 0
M  V30 3942 C 372.425 -3.51867 3.91249 0
M  V30 3943 O 371.451 -3.3186 4.62447 0
M  V30 3944 N 372.653 -4.73351 3.36035 0
M  V30 3945 H 375.418 -0.687485 2.91708 0
M  V30 3946 H 372.979 -0.228248 1.60283 0
M  V30 3947 H 374.971 -3.18379 2.49833 0
M  V30 3948 H 373.541 -2.71846 1.54332 0
M  V30 3949 H 372.761 -1.4345 3.67173 0
M  V30 3950 H 374.049 -2.27908 4.54901 0
M  V30 3951 H 373.447 -4.92507 2.78304 0
M  V30 3952 H 372.004 -5.47572 3.53565 0
M  V30 3953 N 375.437 -1.54477 -0.31217 0
M  V30 3954 C 376.347 -1.87695 -1.4074 0
M  V30 3955 C 377.363 -0.769975 -1.56036 0
M  V30 3956 O 378.539 -1.06537 -1.70915 0
M  V30 3957 C 375.604 -2.10755 -2.75287 0
M  V30 3958 C 374.665 -3.34514 -2.69071 0
M  V30 3959 C 373.898 -3.56465 -3.97201 0
M  V30 3960 O 374.121 -2.81637 -4.96021 0
M  V30 3961 O 373.055 -4.49964 -3.9977 0
M  V30 3962 H 376.881 -2.80849 -1.15574 0
M  V30 3963 H 374.466 -1.40526 -0.507228 0
M  V30 3964 H 376.348 -2.27188 -3.54913 0
M  V30 3965 H 375.023 -1.20788 -3.0032 0
M  V30 3966 H 373.93 -3.23456 -1.87955 0
M  V30 3967 H 375.263 -4.24575 -2.48992 0
M  V30 3968 N 376.915 0.57481 -1.46744 0
M  V30 3969 C 377.862 1.68329 -1.57905 0
M  V30 3970 C 378.832 1.60625 -0.422927 0
M  V30 3971 O 380.017 1.79721 -0.640711 0
M  V30 3972 C 377.157 3.06665 -1.58274 0
M  V30 3973 C 376.27 3.24935 -2.84678 0
M  V30 3974 C 375.405 4.53566 -2.76499 0
M  V30 3975 C 374.444 4.65207 -3.97806 0
M  V30 3976 N 373.581 5.85172 -3.87967 0
M  V30 3977 H 378.421 1.58127 -2.52587 0
M  V30 3978 H 375.958 0.770552 -1.25303 0
M  V30 3979 H 377.916 3.86745 -1.56473 0
M  V30 3980 H 376.546 3.15745 -0.671194 0
M  V30 3981 H 375.598 2.38405 -2.96424 0
M  V30 3982 H 376.91 3.29403 -3.7456 0
M  V30 3983 H 376.064 5.41885 -2.72848 0
M  V30 3984 H 374.803 4.51548 -1.8427 0
M  V30 3985 H 373.808 3.75304 -4.0178 0
M  V30 3986 H 375.033 4.68997 -4.9114 0
M  V30 3987 H 372.979 5.84137 -2.98529 0
M  V30 3988 H 372.896 5.90943 -4.71511 0
M  V30 3989 H 374.164 6.759 -3.88303 0
M  V30 3990 N 378.394 1.34581 0.820102 0
M  V30 3991 C 379.324 1.29038 1.94606 0
M  V30 3992 C 380.305 0.1673 1.69275 0
M  V30 3993 O 381.49 0.360112 1.90832 0
M  V30 3994 C 378.62 1.04793 3.31113 0
M  V30 3995 C 377.574 2.13597 3.70891 0
M  V30 3996 C 376.9 1.74537 5.05412 0
M  V30 3997 C 378.2 3.55451 3.8269 0
M  V30 3998 H 379.894 2.23248 1.99501 0
M  V30 3999 H 377.44 1.0747 0.958449 0
M  V30 4000 H 379.393 0.995592 4.0947 0
M  V30 4001 H 378.117 0.0702565 3.26524 0
M  V30 4002 H 376.776 2.17905 2.9481 0
M  V30 4003 H 376.424 0.754226 4.97313 0
M  V30 4004 H 376.124 2.47361 5.32997 0
M  V30 4005 H 377.648 1.70803 5.86224 0
M  V30 4006 H 379.062 3.5354 4.51312 0
M  V30 4007 H 377.459 4.26922 4.21732 0
M  V30 4008 H 378.529 3.92587 2.84611 0
M  V30 4009 N 379.872 -1.04064 1.18357 0
M  V30 4010 C 381.1 -1.80916 1.00384 0
M  V30 4011 C 381.515 -1.83414 -0.447738 0
M  V30 4012 O 380.872 -1.26962 -1.31099 0
M  V30 4013 C 380.923 -3.26516 1.55144 0
M  V30 4014 O 380.644 -3.2424 2.94618 0
M  V30 4015 C 382.145 -4.20013 1.41789 0
M  V30 4016 H 379.365 -0.569728 0.354474 0
M  V30 4017 H 381.909 -1.31151 1.56906 0
M  V30 4018 H 380.064 -3.73512 1.02798 0
M  V30 4019 H 380.478 -4.15452 3.20156 0
M  V30 4020 H 381.952 -5.20111 1.84901 0
M  V30 4021 H 382.429 -4.37667 0.36661 0
M  V30 4022 H 383.035 -3.78881 1.93207 0
M  V30 4023 N 381.35 -0.985608 -1.22978 0
M  V30 4024 C 382.26 -0.538548 -2.28335 0
M  V30 4025 C 383.276 0.409163 -1.69121 0
M  V30 4026 O 384.452 0.277797 -1.99475 0
M  V30 4027 C 381.517 0.146867 -3.46389 0
M  V30 4028 C 380.578 -0.842896 -4.20944 0
M  V30 4029 C 379.811 -0.190095 -5.33361 0
M  V30 4030 O 380.034 1.01767 -5.61248 0
M  V30 4031 O 378.968 -0.891289 -5.95264 0
M  V30 4032 H 382.794 -1.41487 -2.68729 0
M  V30 4033 H 380.379 -0.753495 -1.29007 0
M  V30 4034 H 382.261 0.531125 -4.1804 0
M  V30 4035 H 380.936 0.997871 -3.07935 0
M  V30 4036 H 379.843 -1.27795 -3.51595 0
M  V30 4037 H 381.176 -1.66287 -4.6326 0
M  V30 4038 N 382.828 1.3818 -0.7579 0
M  V30 4039 C 384.053 2.04827 -0.325679 0
M  V30 4040 C 384.478 1.56788 1.03919 0
M  V30 4041 O 383.836 0.721811 1.66312 0
M  V30 4042 C 383.884 3.58774 -0.362447 0
M  V30 4043 O 382.988 4.07372 0.642033 0
M  V30 4044 H 382.329 0.64833 -0.143402 0
M  V30 4045 H 384.859 1.7677 -1.03023 0
M  V30 4046 H 384.869 4.07434 -0.214844 0
M  V30 4047 H 383.544 3.93096 -1.35824 0
M  V30 4048 H 382.121 3.70068 0.458688 0
M  V30 4049 N 384.306 0.507319 1.49211 0
M  V30 4050 C 385.254 -0.281364 2.30892 0
M  V30 4051 C 386.248 -0.95687 1.39787 0
M  V30 4052 O 387.454 -0.883838 1.56807 0
M  V30 4053 H 383.829 -0.109597 0.743971 0
M  V30 4054 H 385.8 0.42744 2.95323 0
M  V30 4055 C 384.549 -1.32918 3.21291 0
M  V30 4056 H 383.872 -0.818799 3.91326 0
M  V30 4057 H 385.312 -1.85288 3.81372 0
M  V30 4058 C 383.771 -2.35074 2.41333 0
M  V30 4059 O 384.301 -3.4108 2.12197 0
M  V30 4060 N 382.507 -2.07705 2.03241 0
M  V30 4061 H 382.054 -1.2152 2.27136 0
M  V30 4062 H 382.012 -2.76283 1.50051 0
M  V30 4063 N 385.784 -1.5574 0.241426 0
M  V30 4064 C 386.716 -2.18469 -0.693091 0
M  V30 4065 C 387.729 -1.15942 -1.14286 0
M  V30 4066 O 388.918 -1.42832 -1.07058 0
M  V30 4067 C 386.018 -2.7696 -1.95311 0
M  V30 4068 C 385.191 -4.04853 -1.65568 0
M  V30 4069 C 384.25 -4.47715 -2.76474 0
M  V30 4070 O 383.276 -5.14205 -2.44094 0
M  V30 4071 N 384.478 -4.15044 -4.05855 0
M  V30 4072 H 387.243 -2.99292 -0.156388 0
M  V30 4073 H 384.804 -1.61784 0.0611752 0
M  V30 4074 H 386.796 -3.02594 -2.68736 0
M  V30 4075 H 385.366 -2.00326 -2.39975 0
M  V30 4076 H 384.586 -3.86865 -0.756886 0
M  V30 4077 H 385.874 -4.88246 -1.43153 0
M  V30 4078 H 385.272 -3.61654 -4.34998 0
M  V30 4079 H 383.829 -4.45526 -4.75762 0
M  V30 4080 N 387.262 0.0317525 -1.57568 0
M  V30 4081 C 388.209 1.0332 -2.06382 0
M  V30 4082 C 389.179 1.36082 -0.952414 0
M  V30 4083 O 390.364 1.46466 -1.2228 0
M  V30 4084 C 387.504 2.32989 -2.54578 0
M  V30 4085 C 386.617 2.0641 -3.79498 0
M  V30 4086 C 385.752 3.2993 -4.16317 0
M  V30 4087 C 384.791 2.98893 -5.34162 0
M  V30 4088 N 383.928 4.14857 -5.66426 0
M  V30 4089 H 388.768 0.609982 -2.9169 0
M  V30 4090 H 386.305 0.289573 -1.44222 0
M  V30 4091 H 388.263 3.0875 -2.80587 0
M  V30 4092 H 386.893 2.73039 -1.7219 0
M  V30 4093 H 385.945 1.21158 -3.6059 0
M  V30 4094 H 387.257 1.79513 -4.65378 0
M  V30 4095 H 386.411 4.1406 -4.4344 0
M  V30 4096 H 385.15 3.59938 -3.29083 0
M  V30 4097 H 384.155 2.13164 -5.06795 0
M  V30 4098 H 385.38 2.70165 -6.23047 0
M  V30 4099 H 383.326 4.44821 -4.82151 0
M  V30 4100 H 383.243 3.91374 -6.4681 0
M  V30 4101 H 384.511 4.99868 -5.98124 0
M  V30 4102 N 388.74 1.54641 0.303973 0
M  V30 4103 C 389.67 1.88386 1.3796 0
M  V30 4104 C 390.651 0.742485 1.5304 0
M  V30 4105 O 391.836 0.997959 1.66597 0
M  V30 4106 C 388.966 2.12854 2.74427 0
M  V30 4107 C 387.92 3.28702 2.74115 0
M  V30 4108 C 387.246 3.38582 4.13844 0
M  V30 4109 C 388.546 4.65881 2.3612 0
M  V30 4110 H 390.24 2.78474 1.09966 0
M  V30 4111 H 387.786 1.33988 0.527556 0
M  V30 4112 H 389.739 2.35047 3.49758 0
M  V30 4113 H 388.463 1.19535 3.03939 0
M  V30 4114 H 387.122 3.06428 2.0124 0
M  V30 4115 H 386.77 2.42784 4.40528 0
M  V30 4116 H 386.47 4.16453 4.14537 0
M  V30 4117 H 387.994 3.63031 4.90959 0
M  V30 4118 H 389.408 4.87823 3.01167 0
M  V30 4119 H 387.805 5.46444 2.48031 0
M  V30 4120 H 388.875 4.66799 1.3125 0
M  V30 4121 N 390.218 -0.567019 1.47046 0
M  V30 4122 C 391.466 -1.322 1.52864 0
M  V30 4123 C 391.787 -1.94088 0.188388 0
M  V30 4124 O 391.057 -1.7941 -0.786693 0
M  V30 4125 H 389.637 -0.490894 0.563056 0
M  V30 4126 H 392.299 -0.662879 1.83281 0
M  V30 4127 H 391.395 -2.12062 2.2899 0
M  V30 4128 N 391.696 -1.35014 -0.812953 0
M  V30 4129 C 392.626 -1.30069 -1.93919 0
M  V30 4130 C 393.607 -0.176275 -1.69184 0
M  V30 4131 O 394.792 -0.370227 -1.90638 0
M  V30 4132 C 391.922 -1.06547 -3.30552 0
M  V30 4133 C 390.876 -2.15561 -3.69753 0
M  V30 4134 C 390.202 -1.77214 -5.04479 0
M  V30 4135 C 391.502 -3.57476 -3.808 0
M  V30 4136 H 393.196 -2.24303 -1.98314 0
M  V30 4137 H 390.742 -1.07977 -0.952736 0
M  V30 4138 H 392.695 -1.01729 -4.08937 0
M  V30 4139 H 391.419 -0.0875719 -3.26483 0
M  V30 4140 H 390.078 -2.19466 -2.9365 0
M  V30 4141 H 389.726 -0.780589 -4.96906 0
M  V30 4142 H 389.426 -2.50184 -5.31678 0
M  V30 4143 H 390.95 -1.7391 -5.8531 0
M  V30 4144 H 392.364 -3.55929 -4.4943 0
M  V30 4145 H 390.761 -4.29152 -4.19462 0
M  V30 4146 H 391.831 -3.94091 -2.82525 0
M  V30 4147 N 393.175 1.03435 -1.18907 0
M  V30 4148 C 394.105 2.13503 -0.945448 0
M  V30 4149 C 395.086 1.69682 0.119189 0
M  V30 4150 O 396.271 1.94169 -0.034707 0
M  V30 4151 C 393.401 3.44004 -0.477316 0
M  V30 4152 C 392.355 4.0148 -1.48316 0
M  V30 4153 C 391.681 5.27537 -0.872311 0
M  V30 4154 C 392.981 4.36921 -2.86177 0
M  V30 4155 H 394.675 2.34141 -1.86597 0
M  V30 4156 H 392.221 1.12523 -0.898584 0
M  V30 4157 H 394.174 4.20372 -0.294204 0
M  V30 4158 H 392.898 3.23072 0.478786 0
M  V30 4159 H 391.557 3.27201 -1.65332 0
M  V30 4160 H 391.205 5.02917 0.0911752 0
M  V30 4161 H 390.905 5.66954 -1.54393 0
M  V30 4162 H 392.429 6.06576 -0.699871 0
M  V30 4163 H 393.843 5.04248 -2.72776 0
M  V30 4164 H 392.24 4.87405 -3.50081 0
M  V30 4165 H 393.31 3.46466 -3.39248 0
M  V30 4166 N 394.653 0.992116 1.22453 0
M  V30 4167 C 396.069 0.702713 1.43297 0
M  V30 4168 C 396.269 -0.726909 1.87932 0
M  V30 4169 O 395.325 -1.49792 2.0327 0
M  V30 4170 C 396.638 1.70762 2.47509 0
M  V30 4171 C 398.186 1.72298 2.61309 0
M  V30 4172 C 398.661 2.71649 3.68742 0
M  V30 4173 N 400.152 2.70239 3.76199 0
M  V30 4174 C 400.887 3.43778 4.58917 0
M  V30 4175 N 400.383 4.26914 5.45633 0
M  V30 4176 N 402.176 3.32487 4.5322 0
M  V30 4177 H 394.327 1.91543 0.917871 0
M  V30 4178 H 396.59 0.826031 0.465162 0
M  V30 4179 H 396.296 2.73059 2.21657 0
M  V30 4180 H 396.17 1.49985 3.46099 0
M  V30 4181 H 398.557 0.706989 2.86506 0
M  V30 4182 H 398.638 1.97143 1.62997 0
M  V30 4183 H 398.282 3.73397 3.44292 0
M  V30 4184 H 398.212 2.44074 4.66622 0
M  V30 4185 H 400.703 2.09912 3.14237 0
M  V30 4186 H 401.016 4.79855 6.05771 0
M  V30 4187 H 399.361 4.31002 5.45218 0
M  V30 4188 H 402.552 2.6698 3.84499 0
M  V30 4189 H 402.725 3.90058 5.17454 0
M  V30 4190 N 396.131 -1.37776 0.765217 0
M  V30 4191 C 397.041 -2.34135 0.147666 0
M  V30 4192 C 398.057 -1.59854 -0.687215 0
M  V30 4193 O 399.233 -1.91983 -0.608659 0
M  V30 4194 C 396.298 -3.3901 -0.72617 0
M  V30 4195 C 395.359 -4.2912 0.124417 0
M  V30 4196 C 394.592 -5.28986 -0.707807 0
M  V30 4197 O 394.815 -5.36205 -1.94525 0
M  V30 4198 O 393.749 -6.01779 -0.12046 0
M  V30 4199 H 397.575 -2.88664 0.943758 0
M  V30 4200 H 395.16 -1.39824 0.526277 0
M  V30 4201 H 397.042 -4.03195 -1.22524 0
M  V30 4202 H 395.717 -2.86819 -1.50056 0
M  V30 4203 H 394.624 -3.68057 0.669696 0
M  V30 4204 H 395.957 -4.84598 0.861736 0
M  V30 4205 N 397.609 -0.515225 -1.4894 0
M  V30 4206 C 398.572 0.244681 -2.2789 0
M  V30 4207 C 399.572 0.881166 -1.34507 0
M  V30 4208 O 400.762 0.743497 -1.57537 0
M  V30 4209 C 397.894 1.35247 -3.12923 0
M  V30 4210 H 399.087 -0.448289 -2.96531 0
M  V30 4211 H 396.64 -0.270656 -1.53939 0
M  V30 4212 H 397.375 2.07916 -2.48881 0
M  V30 4213 H 397.16 0.901374 -3.81599 0
M  V30 4214 H 398.65 1.88737 -3.72516 0
M  V30 4215 N 399.087 1.5561 -0.249682 0
M  V30 4216 C 400.017 2.24477 0.642826 0
M  V30 4217 C 400.998 1.22601 1.17911 0
M  V30 4218 O 402.183 1.5126 1.21795 0
M  V30 4219 C 399.313 2.94638 1.83863 0
M  V30 4220 C 398.267 4.03227 1.435 0
M  V30 4221 C 397.593 4.60828 2.71186 0
M  V30 4222 C 398.893 5.18796 0.604002 0
M  V30 4223 H 400.587 2.99321 0.0685625 0
M  V30 4224 H 398.133 1.43965 0.0315363 0
M  V30 4225 H 400.086 3.41517 2.46868 0
M  V30 4226 H 398.81 2.17287 2.43832 0
M  V30 4227 H 397.469 3.57121 0.828275 0
M  V30 4228 H 397.117 3.80174 3.29358 0
M  V30 4229 H 396.817 5.34132 2.44901 0
M  V30 4230 H 398.341 5.10442 3.35084 0
M  V30 4231 H 399.755 5.61883 1.13842 0
M  V30 4232 H 398.152 5.98506 0.437097 0
M  V30 4233 H 399.222 4.83384 -0.383147 0
M  V30 4234 N 400.565 -0.0233959 1.57583 0
M  V30 4235 C 401.475 -1.03907 2.10334 0
M  V30 4236 C 402.491 -1.39257 1.04323 0
M  V30 4237 O 403.667 -1.48462 1.36091 0
M  V30 4238 C 400.732 -2.31938 2.57693 0
M  V30 4239 C 399.793 -2.03117 3.78209 0
M  V30 4240 C 399.026 -3.25043 4.233 0
M  V30 4241 O 399.249 -4.35916 3.67876 0
M  V30 4242 O 398.183 -3.10411 5.15683 0
M  V30 4243 H 402.009 -0.620748 2.97288 0
M  V30 4244 H 399.594 -0.240743 1.47448 0
M  V30 4245 H 401.476 -3.07196 2.88458 0
M  V30 4246 H 400.151 -2.73055 1.73847 0
M  V30 4247 H 399.058 -1.25408 3.52454 0
M  V30 4248 H 400.391 -1.66852 4.63056 0
M  V30 4249 N 402.043 -1.548 -0.295768 0
M  V30 4250 C 403.459 -1.4613 -0.641722 0
M  V30 4251 C 403.659 -0.656771 -1.90496 0
M  V30 4252 O 402.715 -0.166547 -2.5195 0
M  V30 4253 C 404.028 -2.90141 -0.789852 0
M  V30 4254 C 405.576 -3.00216 -0.885396 0
M  V30 4255 C 406.051 -4.45434 -1.06548 0
M  V30 4256 N 407.542 -4.49166 -1.13156 0
M  V30 4257 C 408.277 -5.58717 -1.28929 0
M  V30 4258 N 407.773 -6.78182 -1.41567 0
M  V30 4259 N 409.566 -5.46415 -1.31859 0
M  V30 4260 H 401.717 -2.05574 0.534147 0
M  V30 4261 H 403.98 -0.931259 0.177372 0
M  V30 4262 H 403.686 -3.51635 0.0675598 0
M  V30 4263 H 403.56 -3.37859 -1.67724 0
M  V30 4264 H 405.947 -2.38833 -1.73329 0
M  V30 4265 H 406.028 -2.55787 0.0261185 0
M  V30 4266 H 405.672 -5.07413 -0.222335 0
M  V30 4267 H 405.602 -4.87499 -1.9913 0
M  V30 4268 H 408.093 -3.631 -1.04721 0
M  V30 4269 H 408.406 -7.57428 -1.53372 0
M  V30 4270 H 406.751 -6.81037 -1.38613 0
M  V30 4271 H 409.942 -4.5203 -1.21601 0
M  V30 4272 H 410.115 -6.31841 -1.43808 0
M  V30 4273 N 403.521 0.559213 -1.47345 0
M  V30 4274 C 404.937 0.884943 -1.32819 0
M  V30 4275 C 405.137 1.98988 -0.317173 0
M  V30 4276 O 404.193 2.51031 0.272011 0
M  V30 4277 C 405.506 1.28007 -2.72093 0
M  V30 4278 C 407.054 1.39161 -2.80363 0
M  V30 4279 C 407.529 1.82031 -4.20272 0
M  V30 4280 N 409.02 1.89185 -4.22804 0
M  V30 4281 C 409.755 2.2368 -5.27973 0
M  V30 4282 N 409.251 2.56802 -6.43447 0
M  V30 4283 N 411.044 2.24436 -5.15349 0
M  V30 4284 H 403.195 -0.170304 -2.11716 0
M  V30 4285 H 405.458 -0.0135247 -0.947904 0
M  V30 4286 H 405.164 0.542027 -3.47498 0
M  V30 4287 H 405.038 2.23665 -3.03733 0
M  V30 4288 H 407.425 2.12048 -2.05231 0
M  V30 4289 H 407.506 0.41696 -2.52379 0
M  V30 4290 H 407.15 1.09715 -4.95908 0
M  V30 4291 H 407.08 2.80495 -4.45679 0
M  V30 4292 H 409.571 1.65982 -3.39497 0
M  V30 4293 H 409.884 2.82144 -7.19454 0
M  V30 4294 H 408.229 2.54387 -6.46771 0
M  V30 4295 H 411.42 1.97998 -4.24163 0
M  V30 4296 H 411.593 2.50989 -5.97418 0
M  V30 4297 N 404.999 1.35443 0.805782 0
M  V30 4298 C 405.929 1.31095 1.93226 0
M  V30 4299 C 406.91 0.185244 1.69088 0
M  V30 4300 O 408.095 0.380332 1.90439 0
M  V30 4301 C 405.225 1.08299 3.29983 0
M  V30 4302 C 404.179 2.17519 3.68605 0
M  V30 4303 C 403.505 1.79887 5.03532 0
M  V30 4304 C 404.805 3.5949 3.78898 0
M  V30 4305 H 406.499 2.25352 1.97122 0
M  V30 4306 H 404.045 1.0848 0.946996 0
M  V30 4307 H 405.998 1.03897 4.08391 0
M  V30 4308 H 404.722 0.104885 3.26432 0
M  V30 4309 H 403.381 2.2102 2.92482 0
M  V30 4310 H 403.029 0.80693 4.96485 0
M  V30 4311 H 402.729 2.53001 5.30344 0
M  V30 4312 H 404.253 1.77011 5.84379 0
M  V30 4313 H 405.667 3.58307 4.47536 0
M  V30 4314 H 404.064 4.31371 4.1718 0
M  V30 4315 H 405.134 3.95584 2.80431 0
M  V30 4316 N 406.477 -1.02803 1.19454 0
M  V30 4317 C 407.725 -1.75869 0.995722 0
M  V30 4318 C 408.046 -1.89138 -0.474543 0
M  V30 4319 O 407.316 -1.42558 -1.34366 0
M  V30 4320 H 405.896 -0.651511 0.365435 0
M  V30 4321 H 408.558 -1.24004 1.50363 0
M  V30 4322 H 407.654 -2.76661 1.44447 0
M  V30 4323 N 407.956 -0.998596 -1.21925 0
M  V30 4324 C 408.866 -0.562736 -2.27751 0
M  V30 4325 C 409.882 0.391203 -1.69545 0
M  V30 4326 O 411.058 0.256625 -1.99758 0
M  V30 4327 C 408.123 0.11012 -3.46525 0
M  V30 4328 C 407.184 -0.887495 -4.20026 0
M  V30 4329 C 406.417 -0.246654 -5.3313 0
M  V30 4330 O 406.64 0.958088 -5.62296 0
M  V30 4331 O 405.574 -0.954374 -5.94286 0
M  V30 4332 H 409.4 -1.44329 -2.67213 0
M  V30 4333 H 406.985 -0.767135 -1.28201 0
M  V30 4334 H 408.867 0.486756 -4.18579 0
M  V30 4335 H 407.542 0.965154 -3.08976 0
M  V30 4336 H 406.449 -1.31517 -3.5022 0
M  V30 4337 H 407.782 -1.71191 -4.6147 0
M  V30 4338 N 409.434 1.37368 -0.772513 0
M  V30 4339 C 410.364 2.32856 -0.173304 0
M  V30 4340 C 411.345 1.55818 0.682262 0
M  V30 4341 O 412.53 1.84052 0.619566 0
M  V30 4342 C 409.66 3.40048 0.706007 0
M  V30 4343 C 408.614 4.27973 -0.0483144 0
M  V30 4344 C 407.94 5.26184 0.950491 0
M  V30 4345 C 409.24 5.07665 -1.22776 0
M  V30 4346 H 410.934 2.83217 -0.971002 0
M  V30 4347 H 408.48 1.3617 -0.468377 0
M  V30 4348 H 410.433 4.05827 1.13501 0
M  V30 4349 H 409.157 2.88214 1.53623 0
M  V30 4350 H 407.816 3.63726 -0.458107 0
M  V30 4351 H 407.464 4.7063 1.77529 0
M  V30 4352 H 407.164 5.85872 0.450314 0
M  V30 4353 H 408.688 5.94838 1.37842 0
M  V30 4354 H 410.102 5.66578 -0.875366 0
M  V30 4355 H 408.499 5.76681 -1.66007 0
M  V30 4356 H 409.569 4.40294 -2.03149 0
M  V30 4357 N 410.912 0.523116 1.48665 0
M  V30 4358 C 412.323 0.0808997 1.86525 0
M  V30 4359 C 412.674 -1.33975 1.43336 0
M  V30 4360 O 411.799 -2.00221 0.821009 0
M  V30 4361 C 412.394 0.140037 3.3851 0
M  V30 4362 C 410.953 -0.246948 3.75589 0
M  V30 4363 C 410.1 0.502845 2.72703 0
M  V30 4364 H 413.051 0.734736 1.40667 0
M  V30 4365 H 413.072 -0.649945 3.74908 0
M  V30 4366 H 412.584 1.17412 3.69914 0
M  V30 4367 H 410.685 -1.28343 3.49798 0
M  V30 4368 H 410.798 0.0878859 4.79019 0
M  V30 4369 H 409.162 -0.0500581 2.54651 0
M  V30 4370 H 409.945 1.53743 3.0695 0
M  V30 4371 N 412.39 -1.55475 0.257931 0
M  V30 4372 C 413.353 -2.20551 -0.623706 0
M  V30 4373 C 414.353 -1.17809 -1.09443 0
M  V30 4374 O 415.543 -1.42823 -0.997362 0
M  V30 4375 C 412.675 -2.85784 -1.8585 0
M  V30 4376 H 413.868 -2.99848 -0.0557743 0
M  V30 4377 H 411.421 -1.56298 0.0084422 0
M  V30 4378 H 412.156 -2.10453 -2.46739 0
M  V30 4379 H 411.941 -3.61057 -1.52907 0
M  V30 4380 H 413.431 -3.35553 -2.48584 0
M  V30 4381 N 413.868 0.0150385 -1.57593 0
M  V30 4382 C 415.145 0.7392 -1.81094 0
M  V30 4383 C 415.525 1.92817 -0.859344 0
M  V30 4384 O 414.873 2.28301 0.095362 0
M  V30 4385 C 415.083 1.15907 -3.29191 0
M  V30 4386 C 416.431 1.56918 -3.9454 0
M  V30 4387 O 417.455 1.25328 -3.33424 0
M  V30 4388 O 416.314 2.15604 -5.02173 0
M  V30 4389 H 413.408 0.358631 -0.745193 0
M  V30 4390 H 415.954 -0.00926156 -1.69697 0
M  V30 4391 H 414.726 0.310921 -3.90063 0
M  V30 4392 H 414.349 1.96711 -3.45529 0
M  V30 4393 N 415.346 1.54954 0.287554 0
M  V30 4394 C 416.296 1.8322 1.357 0
M  V30 4395 C 417.28 0.690152 1.45347 0
M  V30 4396 O 418.472 0.951137 1.49273 0
M  V30 4397 C 415.601 2.09481 2.71979 0
M  V30 4398 C 414.687 3.29906 2.66502 0
M  V30 4399 N 415.078 4.50154 2.30641 0
M  V30 4400 C 413.376 3.32203 2.97585 0
M  V30 4401 C 414.077 5.32209 2.34794 0
M  V30 4402 N 413.053 4.70258 2.72688 0
M  V30 4403 H 416.855 2.73746 1.0696 0
M  V30 4404 H 414.369 1.54635 0.496167 0
M  V30 4405 H 416.366 2.27882 3.49107 0
M  V30 4406 H 415.026 1.2023 3.0162 0
M  V30 4407 H 416.037 4.76515 2.02865 0
M  V30 4408 H 412.714 2.53101 3.32034 0
M  V30 4409 H 414.104 6.38321 2.09753 0
M  V30 4410 N 416.824 -0.551391 1.4764 0
M  V30 4411 C 418.235 -1.13349 1.48354 0
M  V30 4412 C 418.586 -1.94709 0.241432 0
M  V30 4413 O 417.711 -2.06306 -0.653205 0
M  V30 4414 C 418.306 -2.0623 2.68802 0
M  V30 4415 C 416.865 -2.597 2.72457 0
M  V30 4416 C 416.012 -1.36201 2.41546 0
M  V30 4417 H 418.963 -0.337698 1.55065 0
M  V30 4418 H 418.984 -2.90196 2.46103 0
M  V30 4419 H 418.496 -1.46987 3.59188 0
M  V30 4420 H 416.597 -3.22724 1.86225 0
M  V30 4421 H 416.71 -3.00296 3.73308 0
M  V30 4422 H 415.074 -1.67068 1.9225 0
M  V30 4423 H 415.857 -0.787425 3.34147 0
M  V30 4424 N 418.302 -1.35869 -0.798587 0
M  V30 4425 C 419.249 -1.29446 -1.91082 0
M  V30 4426 C 420.219 -0.16487 -1.6528 0
M  V30 4427 O 421.404 -0.349888 -1.87564 0
M  V30 4428 C 418.544 -1.0804 -3.27752 0
M  V30 4429 C 417.657 -2.29993 -3.65687 0
M  V30 4430 C 416.792 -2.01673 -4.91428 0
M  V30 4431 C 415.831 -3.19636 -5.22015 0
M  V30 4432 N 414.968 -2.91039 -6.38937 0
M  V30 4433 H 419.808 -2.24553 -1.95907 0
M  V30 4434 H 417.345 -1.11615 -0.958148 0
M  V30 4435 H 419.303 -0.936586 -4.06551 0
M  V30 4436 H 417.933 -0.16592 -3.22373 0
M  V30 4437 H 416.985 -2.55211 -2.82085 0
M  V30 4438 H 418.297 -3.18052 -3.84245 0
M  V30 4439 H 417.451 -1.84168 -5.78072 0
M  V30 4440 H 416.19 -1.10911 -4.74921 0
M  V30 4441 H 415.195 -3.37709 -4.33858 0
M  V30 4442 H 416.42 -4.11211 -5.40447 0
M  V30 4443 H 414.366 -2.0288 -6.2384 0
M  V30 4444 H 414.283 -3.72635 -6.57784 0
M  V30 4445 H 415.551 -2.77093 -7.28587 0
M  V30 4446 N 419.78 1.02168 -1.19998 0
M  V30 4447 C 421.028 1.75338 -1.00504 0
M  V30 4448 C 421.349 1.89387 0.464506 0
M  V30 4449 O 420.619 1.43268 1.33608 0
M  V30 4450 H 419.199 0.649564 -0.368885 0
M  V30 4451 H 421.861 1.23205 -1.51018 0
M  V30 4452 H 420.957 2.75892 -1.45912 0
M  V30 4453 N 421.258 1.00505 1.21394 0
M  V30 4454 C 422.674 0.717873 1.42544 0
M  V30 4455 C 422.874 -0.706936 1.88692 0
M  V30 4456 O 421.93 -1.47627 2.04847 0
M  V30 4457 C 423.243 1.73377 2.45684 0
M  V30 4458 C 424.791 1.75059 2.59467 0
M  V30 4459 C 425.266 2.75545 3.6584 0
M  V30 4460 N 426.757 2.74213 3.73311 0
M  V30 4461 C 427.492 3.48626 4.55245 0
M  V30 4462 N 426.988 4.32678 5.41075 0
M  V30 4463 N 428.781 3.37276 4.49668 0
M  V30 4464 H 420.932 1.92506 0.897503 0
M  V30 4465 H 423.195 0.830919 0.456375 0
M  V30 4466 H 422.901 2.75395 2.18748 0
M  V30 4467 H 422.775 1.53647 3.44489 0
M  V30 4468 H 425.162 0.737337 2.8574 0
M  V30 4469 H 425.243 1.98861 1.60897 0
M  V30 4470 H 424.887 3.77028 3.40313 0
M  V30 4471 H 424.817 2.49009 4.64007 0
M  V30 4472 H 427.308 2.13234 3.11993 0
M  V30 4473 H 427.621 4.86253 6.00648 0
M  V30 4474 H 425.966 4.3676 5.40616 0
M  V30 4475 H 429.157 2.71043 3.81646 0
M  V30 4476 H 429.33 3.95524 5.13288 0
M  V30 4477 N 422.737 -1.36956 0.779787 0
M  V30 4478 C 423.667 -2.32761 0.185651 0
M  V30 4479 C 424.648 -1.56177 -0.673989 0
M  V30 4480 O 425.833 -1.84378 -0.609797 0
M  V30 4481 C 422.963 -3.40418 -0.687964 0
M  V30 4482 C 421.917 -4.27941 0.0710102 0
M  V30 4483 C 421.243 -5.26681 -0.922573 0
M  V30 4484 C 422.543 -5.07006 1.25467 0
M  V30 4485 H 424.237 -2.82698 0.986008 0
M  V30 4486 H 421.783 -1.3592 0.475592 0
M  V30 4487 H 423.736 -4.06423 -1.11348 0
M  V30 4488 H 422.46 -2.89025 -1.52093 0
M  V30 4489 H 421.119 -3.63478 0.47739 0
M  V30 4490 H 420.767 -4.71565 -1.7503 0
M  V30 4491 H 420.467 -5.86103 -0.419237 0
M  V30 4492 H 421.991 -5.9556 -1.34686 0
M  V30 4493 H 423.405 -5.66105 0.905401 0
M  V30 4494 H 421.802 -5.75793 1.69063 0
M  V30 4495 H 422.872 -4.3921 2.05481 0
M  V30 4496 N 424.215 -0.530993 -1.48385 0
M  V30 4497 C 425.145 0.219985 -2.32461 0
M  V30 4498 C 426.126 0.934111 -1.42156 0
M  V30 4499 O 427.311 0.919694 -1.71042 0
M  V30 4500 C 424.441 1.26674 -3.23375 0
M  V30 4501 C 423.395 0.67069 -4.22712 0
M  V30 4502 C 422.721 1.82017 -5.02766 0
M  V30 4503 C 424.021 -0.358268 -5.2107 0
M  V30 4504 H 425.715 -0.48187 -2.95497 0
M  V30 4505 H 423.261 -0.233182 -1.42099 0
M  V30 4506 H 425.214 1.80006 -3.81019 0
M  V30 4507 H 423.938 1.99818 -2.58341 0
M  V30 4508 H 422.597 0.158878 -3.66256 0
M  V30 4509 H 422.245 2.54002 -4.34157 0
M  V30 4510 H 421.945 1.42727 -5.70003 0
M  V30 4511 H 423.469 2.35725 -5.63264 0
M  V30 4512 H 424.883 0.0880081 -5.73232 0
M  V30 4513 H 423.28 -0.66861 -5.96364 0
M  V30 4514 H 424.35 -1.26367 -4.68145 0
M  V30 4515 N 425.693 1.55336 -0.266172 0
M  V30 4516 C 427.109 1.59356 0.0882065 0
M  V30 4517 C 427.309 1.2834 1.55342 0
M  V30 4518 O 426.365 1.03996 2.30089 0
M  V30 4519 C 427.678 2.99409 -0.278364 0
M  V30 4520 C 429.226 3.12196 -0.224243 0
M  V30 4521 C 429.701 4.545 -0.565123 0
M  V30 4522 N 431.192 4.60313 -0.51634 0
M  V30 4523 C 431.927 5.68434 -0.753013 0
M  V30 4524 N 431.423 6.84738 -1.05383 0
M  V30 4525 N 433.216 5.57942 -0.682414 0
M  V30 4526 H 425.367 1.73764 -1.22147 0
M  V30 4527 H 427.63 0.809822 -0.492841 0
M  V30 4528 H 427.336 3.2691 -1.29703 0
M  V30 4529 H 427.21 3.75228 0.385186 0
M  V30 4530 H 429.597 2.84464 0.78512 0
M  V30 4531 H 429.678 2.38609 -0.921922 0
M  V30 4532 H 429.322 4.82956 -1.57213 0
M  V30 4533 H 429.252 5.26374 0.154248 0
M  V30 4534 H 431.743 3.7676 -0.29335 0
M  V30 4535 H 432.056 7.63088 -1.22133 0
M  V30 4536 H 430.401 6.86375 -1.09151 0
M  V30 4537 H 433.592 4.65958 -0.44731 0
M  V30 4538 H 433.765 6.4213 -0.870248 0
M  V30 4539 N 427.171 -0.0066808 1.57599 0
M  V30 4540 C 428.081 -1.01671 2.11424 0
M  V30 4541 C 429.097 -1.38143 1.05795 0
M  V30 4542 O 430.273 -1.47011 1.37658 0
M  V30 4543 C 427.338 -2.29192 2.60139 0
M  V30 4544 C 426.399 -1.99094 3.80342 0
M  V30 4545 C 425.632 -3.20535 4.26724 0
M  V30 4546 O 425.855 -4.3199 3.72479 0
M  V30 4547 O 424.789 -3.04924 5.18946 0
M  V30 4548 H 428.615 -0.589181 2.9793 0
M  V30 4549 H 426.2 -0.225091 1.47695 0
M  V30 4550 H 428.082 -3.0412 2.917 0
M  V30 4551 H 426.757 -2.71195 1.76733 0
M  V30 4552 H 425.664 -1.21663 3.53764 0
M  V30 4553 H 426.997 -1.61931 4.648 0
M  V30 4554 N 428.649 -1.55105 -0.279332 0
M  V30 4555 C 429.559 -1.90638 -1.36727 0
M  V30 4556 C 430.575 -0.802899 -1.54368 0
M  V30 4557 O 431.751 -1.10138 -1.68616 0
M  V30 4558 C 428.816 -2.16547 -2.70755 0
M  V30 4559 C 427.877 -3.40146 -2.61915 0
M  V30 4560 C 427.11 -3.6481 -3.8955 0
M  V30 4561 O 427.333 -2.92095 -4.89935 0
M  V30 4562 O 426.267 -4.58343 -3.90135 0
M  V30 4563 H 430.093 -2.83237 -1.09591 0
M  V30 4564 H 427.678 -1.4157 -0.477306 0
M  V30 4565 H 429.56 -2.34665 -3.50014 0
M  V30 4566 H 428.235 -1.27131 -2.9769 0
M  V30 4567 H 427.142 -3.2737 -1.81052 0
M  V30 4568 H 428.475 -4.29761 -2.3993 0
M  V30 4569 N 430.127 0.543554 -1.4793 0
M  V30 4570 C 431.057 1.65888 -1.64327 0
M  V30 4571 C 432.038 1.62818 -0.492383 0
M  V30 4572 O 433.223 1.80226 -0.723338 0
M  V30 4573 C 430.353 3.04506 -1.67013 0
M  V30 4574 C 429.307 3.2243 -2.81466 0
M  V30 4575 C 428.633 4.61972 -2.69233 0
M  V30 4576 C 429.933 3.06496 -4.22915 0
M  V30 4577 H 431.627 1.52421 -2.57698 0
M  V30 4578 H 429.173 0.731849 -1.24016 0
M  V30 4579 H 431.126 3.82391 -1.77074 0
M  V30 4580 H 429.85 3.18964 -0.70212 0
M  V30 4581 H 428.509 2.46957 -2.70938 0
M  V30 4582 H 428.157 4.73247 -1.7043 0
M  V30 4583 H 427.857 4.74911 -3.46025 0
M  V30 4584 H 429.381 5.41974 -2.81242 0
M  V30 4585 H 430.795 3.74186 -4.34348 0
M  V30 4586 H 429.192 3.30938 -5.006 0
M  V30 4587 H 430.262 2.03077 -4.40327 0
M  V30 4588 N 431.605 1.3629 0.791371 0
M  V30 4589 C 432.568 1.30309 1.88553 0
M  V30 4590 C 433.568 0.211204 1.59407 0
M  V30 4591 O 434.758 0.465865 1.67855 0
M  V30 4592 C 431.89 1.01956 3.25297 0
M  V30 4593 H 433.083 2.27614 1.95273 0
M  V30 4594 H 430.636 1.21035 0.988953 0
M  V30 4595 H 431.371 0.050998 3.2426 0
M  V30 4596 H 431.156 1.80968 3.4784 0
M  V30 4597 H 432.646 1.0037 4.05359 0
M  V30 4598 N 433.083 -1.0153 1.20538 0
M  V30 4599 C 434.046 -2.0826 0.957098 0
M  V30 4600 C 435.046 -1.60657 -0.0678655 0
M  V30 4601 O 436.236 -1.73385 0.168332 0
M  V30 4602 C 433.368 -3.38033 0.441188 0
M  V30 4603 H 434.561 -2.31719 1.90384 0
M  V30 4604 H 432.114 -1.1835 1.02093 0
M  V30 4605 H 432.849 -3.20249 -0.510961 0
M  V30 4606 H 432.634 -3.73911 1.18038 0
M  V30 4607 H 434.124 -4.16613 0.287009 0
M  V30 4608 N 434.561 -1.01147 -1.20859 0
M  V30 4609 C 435.524 -0.582224 -2.21682 0
M  V30 4610 C 436.524 0.344887 -1.57058 0
M  V30 4611 O 437.714 0.134281 -1.73682 0
M  V30 4612 C 434.846 0.150496 -3.40568 0
M  V30 4613 H 436.039 -1.47408 -2.61172 0
M  V30 4614 H 433.592 -0.800695 -1.34233 0
M  V30 4615 H 434.327 1.0575 -3.06574 0
M  V30 4616 H 434.112 -0.515444 -3.88697 0
M  V30 4617 H 435.602 0.438344 -4.15293 0
M  V30 4618 N 436.039 1.36541 -0.78704 0
M  V30 4619 C 437.264 2.0409 -0.369053 0
M  V30 4620 C 437.689 1.58957 1.00569 0
M  V30 4621 O 437.047 0.756926 1.64743 0
M  V30 4622 C 437.095 3.57924 -0.438466 0
M  V30 4623 O 436.199 4.08642 0.555479 0
M  V30 4624 H 435.54 0.645142 -0.157122 0
M  V30 4625 H 438.07 1.74545 -1.06749 0
M  V30 4626 H 438.08 4.06887 -0.301218 0
M  V30 4627 H 436.755 3.90127 -1.44132 0
M  V30 4628 H 435.332 3.70958 0.380088 0
M  V30 4629 N 437.518 0.538854 1.48102 0
M  V30 4630 C 438.743 0.0102694 2.07397 0
M  V30 4631 C 439.168 -1.26562 1.39153 0
M  V30 4632 O 438.526 -1.75357 0.460387 0
M  V30 4633 C 438.574 -0.187602 3.60112 0
M  V30 4634 O 437.678 -1.25432 3.92862 0
M  V30 4635 H 437.019 0.0430975 0.6626 0
M  V30 4636 H 439.549 0.749301 1.90385 0
M  V30 4637 H 439.559 -0.407517 4.0596 0
M  V30 4638 H 438.234 0.744386 4.09184 0
M  V30 4639 H 436.811 -1.01636 3.58782 0
M  V30 4640 N 438.996 -1.55193 0.274407 0
M  V30 4641 C 439.959 -2.212 -0.600279 0
M  V30 4642 C 440.959 -1.18963 -1.08187 0
M  V30 4643 O 442.149 -1.43873 -0.982158 0
M  V30 4644 C 439.281 -2.87739 -1.82809 0
M  V30 4645 H 440.474 -2.9989 -0.0239682 0
M  V30 4646 H 438.027 -1.5628 0.0250192 0
M  V30 4647 H 438.762 -2.13058 -2.44493 0
M  V30 4648 H 438.547 -3.62658 -1.49069 0
M  V30 4649 H 440.037 -3.38171 -2.45011 0
M  V30 4650 N 440.474 -0.00167713 -1.576 0
M  V30 4651 C 441.437 0.974046 -2.07473 0
M  V30 4652 C 442.437 1.27143 -0.984444 0
M  V30 4653 O 443.627 1.21633 -1.24703 0
M  V30 4654 C 440.759 2.29849 -2.51759 0
M  V30 4655 H 441.952 0.54262 -2.9495 0
M  V30 4656 H 439.505 0.245829 -1.54355 0
M  V30 4657 H 440.24 2.77677 -1.67529 0
M  V30 4658 H 440.025 2.09584 -3.31386 0
M  V30 4659 H 441.515 2.9984 -2.90664 0
M  V30 4660 N 441.952 1.55251 0.271103 0
M  V30 4661 C 443.199 1.75946 1.00245 0
M  V30 4662 C 443.527 0.561611 1.86215 0
M  V30 4663 O 442.782 -0.455832 1.90317 0
M  V30 4664 C 443.081 3.01879 1.91321 0
M  V30 4665 C 442.747 4.34337 1.21086 0
M  V30 4666 C 441.409 4.70338 1.01666 0
M  V30 4667 C 443.761 5.16325 0.71119 0
M  V30 4668 C 441.089 5.8588 0.310099 0
M  V30 4669 C 443.441 6.32597 0.0182157 0
M  V30 4670 C 442.105 6.67236 -0.18768 0
M  V30 4671 H 441.375 0.643833 0.366824 0
M  V30 4672 H 444.022 1.89521 0.27458 0
M  V30 4673 H 442.327 2.83212 2.70736 0
M  V30 4674 H 444.024 3.15088 2.48033 0
M  V30 4675 H 440.614 4.06043 1.37213 0
M  V30 4676 H 444.798 4.88987 0.848844 0
M  V30 4677 H 440.054 6.1124 0.139873 0
M  V30 4678 H 444.228 6.9538 -0.376711 0
M  V30 4679 H 441.855 7.56618 -0.73715 0
M  V30 4680 N 443.43 -0.535701 1.48216 0
M  V30 4681 C 444.655 -1.32149 1.59848 0
M  V30 4682 C 445.08 -1.86338 0.256842 0
M  V30 4683 O 444.438 -1.64107 -0.770632 0
M  V30 4684 C 444.486 -2.45224 2.64381 0
M  V30 4685 O 443.59 -3.48093 2.21144 0
M  V30 4686 H 442.931 -0.391634 0.536208 0
M  V30 4687 H 445.461 -0.645202 1.94161 0
M  V30 4688 H 445.471 -2.91491 2.85476 0
M  V30 4689 H 444.146 -2.05143 3.61786 0
M  V30 4690 H 442.723 -3.07984 2.10239 0
M  V30 4691 N 444.908 -1.36708 -0.784132 0
M  V30 4692 C 446.136 -1.34398 -1.57305 0
M  V30 4693 C 446.551 0.0735577 -1.88657 0
M  V30 4694 O 445.908 1.03193 -1.50524 0
M  V30 4695 C 445.959 -2.17053 -2.89085 0
M  V30 4696 O 445.68 -3.53281 -2.59083 0
M  V30 4697 C 447.181 -2.22583 -3.83369 0
M  V30 4698 H 444.401 -0.460819 -0.487736 0
M  V30 4699 H 446.945 -1.79879 -0.972819 0
M  V30 4700 H 445.1 -1.75113 -3.45564 0
M  V30 4701 H 445.514 -3.9647 -3.43383 0
M  V30 4702 H 446.988 -2.84763 -4.72878 0
M  V30 4703 H 447.465 -1.23075 -4.21603 0
M  V30 4704 H 448.071 -2.64781 -3.32823 0
M  V30 4705 N 446.386 1.0089 -1.21074 0
M  V30 4706 C 447.802 1.2695 -0.967257 0
M  V30 4707 C 448.002 1.9846 0.348673 0
M  V30 4708 O 447.058 2.28459 1.0753 0
M  V30 4709 C 448.371 2.09697 -2.15517 0
M  V30 4710 C 449.919 2.22937 -2.197 0
M  V30 4711 C 450.394 3.09064 -3.37999 0
M  V30 4712 N 451.885 3.16653 -3.38061 0
M  V30 4713 C 452.62 3.8354 -4.26245 0
M  V30 4714 N 452.116 4.52488 -5.2462 0
M  V30 4715 N 453.909 3.80141 -4.14064 0
M  V30 4716 H 446.06 0.529005 -2.05707 0
M  V30 4717 H 448.323 0.296148 -0.900556 0
M  V30 4718 H 448.029 1.64497 -3.10859 0
M  V30 4719 H 447.903 3.10444 -2.14253 0
M  V30 4720 H 450.29 2.67357 -1.24916 0
M  V30 4721 H 450.371 1.21673 -2.2501 0
M  V30 4722 H 450.015 2.65347 -4.33074 0
M  V30 4723 H 449.945 4.10433 -3.29928 0
M  V30 4724 H 452.436 2.67566 -2.66865 0
M  V30 4725 H 452.749 5.01219 -5.88217 0
M  V30 4726 H 451.094 4.51288 -5.28549 0
M  V30 4727 H 454.285 3.25427 -3.36474 0
M  V30 4728 H 454.458 4.31992 -4.82998 0
M  V30 4729 N 447.864 1.01787 1.20321 0
M  V30 4730 C 448.794 0.609625 2.25401 0
M  V30 4731 C 449.775 -0.375951 1.65893 0
M  V30 4732 O 450.96 -0.261101 1.92437 0
M  V30 4733 C 448.09 -0.0515995 3.47262 0
M  V30 4734 C 447.044 0.855095 4.19371 0
M  V30 4735 C 446.37 0.0595757 5.34667 0
M  V30 4736 C 447.67 2.16374 4.75373 0
M  V30 4737 H 449.364 1.48803 2.59804 0
M  V30 4738 H 446.91 0.716934 1.24884 0
M  V30 4739 H 448.863 -0.348764 4.19954 0
M  V30 4740 H 447.587 -0.964726 3.12027 0
M  V30 4741 H 446.246 1.13628 3.48546 0
M  V30 4742 H 445.894 -0.85524 4.95676 0
M  V30 4743 H 445.594 0.663406 5.83843 0
M  V30 4744 H 447.118 -0.231105 6.10162 0
M  V30 4745 H 448.532 1.92885 5.39878 0
M  V30 4746 H 446.929 2.71853 5.34991 0
M  V30 4747 H 447.999 2.82589 3.94045 0
M  V30 4748 N 449.342 -1.36122 0.79427 0
M  V30 4749 C 450.305 -2.28309 0.201889 0
M  V30 4750 C 451.305 -1.49041 -0.603603 0
M  V30 4751 O 452.495 -1.68964 -0.423888 0
M  V30 4752 C 449.627 -3.3321 -0.719978 0
M  V30 4753 H 450.82 -2.82208 1.01481 0
M  V30 4754 H 448.373 -1.45768 0.564037 0
M  V30 4755 H 449.108 -2.84475 -1.55706 0
M  V30 4756 H 448.893 -3.91835 -0.144266 0
M  V30 4757 H 450.383 -4.02044 -1.12916 0
M  V30 4758 N 450.82 -0.546701 -1.47814 0
M  V30 4759 C 452.068 -0.0187037 -2.02091 0
M  V30 4760 C 452.389 1.33168 -1.42447 0
M  V30 4761 O 451.659 1.86619 -0.595839 0
M  V30 4762 H 450.239 -0.00392531 -0.74699 0
M  V30 4763 H 452.901 -0.714327 -1.81338 0
M  V30 4764 H 451.997 0.0772219 -3.12004 0
M  V30 4765 N 452.299 1.55045 -0.282633 0
M  V30 4766 C 453.71 1.85473 0.213655 0
M  V30 4767 C 454.061 1.20465 1.54863 0
M  V30 4768 O 453.186 0.495676 2.10647 0
M  V30 4769 C 453.781 3.36496 0.394445 0
M  V30 4770 C 452.34 3.67022 0.834961 0
M  V30 4771 C 451.487 2.77218 -0.0674081 0
M  V30 4772 H 454.438 1.50478 -0.504202 0
M  V30 4773 H 454.459 3.60007 1.23186 0
M  V30 4774 H 453.971 3.83782 -0.577326 0
M  V30 4775 H 452.072 3.25241 1.81794 0
M  V30 4776 H 452.185 4.74433 0.667075 0
M  V30 4777 H 450.549 2.5069 0.450196 0
M  V30 4778 H 451.332 3.2732 -1.0352 0
M  V30 4779 N 453.777 0.010035 1.57597 0
M  V30 4780 C 455.024 -0.6727 1.91 0
M  V30 4781 C 455.352 -1.73219 0.884614 0
M  V30 4782 O 454.607 -1.95395 -0.109215 0
M  V30 4783 C 454.906 -1.34434 3.31153 0
M  V30 4784 C 454.572 -0.417083 4.48967 0
M  V30 4785 C 453.234 -0.161809 4.80928 0
M  V30 4786 C 455.586 0.220753 5.20732 0
M  V30 4787 C 452.914 0.739426 5.82022 0
M  V30 4788 C 455.266 1.10993 6.22787 0
M  V30 4789 C 453.93 1.37428 6.532 0
M  V30 4790 H 453.2 -0.246158 0.698918 0
M  V30 4791 H 455.847 0.0677145 1.9138 0
M  V30 4792 H 454.152 -2.15905 3.26944 0
M  V30 4793 H 455.849 -1.87883 3.54261 0
M  V30 4794 H 452.439 -0.626217 4.24001 0
M  V30 4795 H 456.623 0.0365643 4.96287 0
M  V30 4796 H 451.879 0.952139 6.03941 0
M  V30 4797 H 456.053 1.61046 6.77523 0
M  V30 4798 H 453.68 2.0743 7.31353 0
M  V30 4799 N 455.255 -1.55392 -0.262866 0
M  V30 4800 C 456.666 -1.67079 -0.833158 0
M  V30 4801 C 457.017 -0.604539 -1.86654 0
M  V30 4802 O 456.142 0.252138 -2.14926 0
M  V30 4803 C 456.737 -3.02891 -1.51797 0
M  V30 4804 C 455.296 -3.16571 -2.03617 0
M  V30 4805 C 454.443 -2.62909 -0.881701 0
M  V30 4806 H 457.394 -1.58652 -0.0389986 0
M  V30 4807 H 457.415 -2.96445 -2.38538 0
M  V30 4808 H 456.927 -3.80473 -0.765619 0
M  V30 4809 H 455.028 -2.43782 -2.81782 0
M  V30 4810 H 455.141 -4.23271 -2.24452 0
M  V30 4811 H 453.505 -2.20324 -1.27786 0
M  V30 4812 H 454.288 -3.43003 -0.14269 0
M  V30 4813 N 456.733 0.527833 -1.48498 0
M  V30 4814 C 457.696 1.61439 -1.62696 0
M  V30 4815 C 458.696 1.52824 -0.500136 0
M  V30 4816 O 459.886 1.56456 -0.765976 0
M  V30 4817 C 457.018 3.01063 -1.59918 0
M  V30 4818 H 458.211 1.50189 -2.59583 0
M  V30 4819 H 455.764 0.750055 -1.37127 0
M  V30 4820 H 456.499 3.17818 -0.645163 0
M  V30 4821 H 456.284 3.08725 -2.41726 0
M  V30 4822 H 457.774 3.80057 -1.73051 0
M  V30 4823 N 458.211 1.37122 0.776871 0
M  V30 4824 C 459.439 1.3523 1.5659 0
M  V30 4825 C 459.854 -0.0635518 1.88693 0
M  V30 4826 O 459.211 -1.02394 1.51069 0
M  V30 4827 C 459.262 2.18583 2.8793 0
M  V30 4828 O 458.983 3.5465 2.57206 0
M  V30 4829 C 460.484 2.24612 3.82183 0
M  V30 4830 H 457.704 0.4634 0.485285 0
M  V30 4831 H 460.248 1.80392 0.963266 0
M  V30 4832 H 458.403 1.76943 3.4463 0
M  V30 4833 H 458.817 3.98286 3.41275 0
M  V30 4834 H 460.291 2.87267 4.71361 0
M  V30 4835 H 460.768 1.25309 4.20944 0
M  V30 4836 H 461.374 2.66543 3.31414 0
M  V30 4837 N 459.689 -1.00246 1.21608 0
M  V30 4838 C 460.639 -2.07492 0.945051 0
M  V30 4839 C 461.623 -1.60585 -0.100675 0
M  V30 4840 O 462.815 -1.76667 0.10859 0
M  V30 4841 C 459.944 -3.39425 0.514342 0
M  V30 4842 C 459.03 -3.92993 1.59428 0
M  V30 4843 N 459.421 -4.19898 2.81991 0
M  V30 4844 C 457.719 -4.21297 1.46374 0
M  V30 4845 C 458.42 -4.63297 3.51754 0
M  V30 4846 N 457.396 -4.66421 2.79199 0
M  V30 4847 H 461.198 -2.26222 1.87619 0
M  V30 4848 H 458.712 -1.18339 1.11219 0
M  V30 4849 H 460.709 -4.15808 0.301527 0
M  V30 4850 H 459.369 -3.22101 -0.410008 0
M  V30 4851 H 460.38 -4.08377 3.1851 0
M  V30 4852 H 457.057 -4.13095 0.604863 0
M  V30 4853 H 458.447 -4.92816 4.56708 0
M  V30 4854 N 461.167 -1.02423 -1.1978 0
M  V30 4855 C 462.397 -0.736387 -1.93031 0
M  V30 4856 C 462.805 0.708023 -1.75453 0
M  V30 4857 O 462.148 1.4927 -1.07071 0
M  V30 4858 C 462.21 -1.00194 -3.45255 0
M  V30 4859 C 461.874 -2.43698 -3.86601 0
M  V30 4860 C 462.871 -3.41814 -3.91738 0
M  V30 4861 C 460.556 -2.77975 -4.18372 0
M  V30 4862 C 462.55 -4.72265 -4.28071 0
M  V30 4863 C 460.237 -4.08636 -4.54378 0
M  V30 4864 C 461.235 -5.05592 -4.59201 0
M  V30 4865 O 460.923 -6.33914 -4.94376 0
M  V30 4866 H 460.655 -0.269116 -0.620123 0
M  V30 4867 H 463.209 -1.37043 -1.52998 0
M  V30 4868 H 461.439 -0.310747 -3.85449 0
M  V30 4869 H 463.128 -0.704488 -3.9974 0
M  V30 4870 H 463.894 -3.16671 -3.67348 0
M  V30 4871 H 459.773 -2.0319 -4.13805 0
M  V30 4872 H 463.317 -5.4794 -4.3175 0
M  V30 4873 H 459.214 -4.33556 -4.78226 0
M  V30 4874 H 459.982 -6.38317 -5.12341 0
M  V30 4875 N 462.645 1.35699 -0.801477 0
M  V30 4876 C 463.87 2.03687 -0.390678 0
M  V30 4877 C 464.295 1.60015 0.988778 0
M  V30 4878 O 463.653 0.774357 1.63931 0
M  V30 4879 C 463.701 3.57439 -0.476404 0
M  V30 4880 O 462.805 4.09208 0.512106 0
M  V30 4881 H 462.146 0.64344 -0.163956 0
M  V30 4882 H 464.676 1.73403 -1.08594 0
M  V30 4883 H 464.686 4.06544 -0.344357 0
M  V30 4884 H 463.361 3.88576 -1.48262 0
M  V30 4885 H 461.938 3.7134 0.340721 0
M  V30 4886 N 464.123 0.554532 1.47522 0
M  V30 4887 C 465.351 0.034257 2.06872 0
M  V30 4888 C 465.766 -1.25826 1.40759 0
M  V30 4889 O 465.123 -1.75425 0.503217 0
M  V30 4890 C 465.174 -0.167827 3.6111 0
M  V30 4891 O 464.895 1.07351 4.24744 0
M  V30 4892 C 466.396 -0.72569 4.3732 0
M  V30 4893 H 463.616 0.0446275 0.669514 0
M  V30 4894 H 466.16 0.767181 1.89564 0
M  V30 4895 H 464.315 -0.850872 3.7794 0
M  V30 4896 H 464.729 0.869563 5.17242 0
M  V30 4897 H 466.203 -0.816394 5.45929 0
M  V30 4898 H 466.68 -1.73635 4.0342 0
M  V30 4899 H 467.286 -0.0784292 4.25228 0
M  V30 4900 N 465.601 -1.54893 0.290851 0
M  V30 4901 C 466.531 -2.26103 -0.583084 0
M  V30 4902 C 467.512 -1.25684 -1.14619 0
M  V30 4903 O 468.697 -1.54436 -1.17741 0
M  V30 4904 C 465.827 -2.99409 -1.75987 0
M  V30 4905 C 464.781 -4.0689 -1.32758 0
M  V30 4906 C 464.107 -4.67856 -2.58872 0
M  V30 4907 C 465.407 -5.20215 -0.46624 0
M  V30 4908 H 467.101 -2.99398 0.0108214 0
M  V30 4909 H 464.647 -1.43998 0.00664468 0
M  V30 4910 H 466.6 -3.47943 -2.37727 0
M  V30 4911 H 465.324 -2.23675 -2.37985 0
M  V30 4912 H 463.983 -3.59191 -0.733299 0
M  V30 4913 H 463.631 -3.88772 -3.19163 0
M  V30 4914 H 463.331 -5.40438 -2.30653 0
M  V30 4915 H 464.855 -5.19147 -3.21433 0
M  V30 4916 H 466.269 -5.64704 -0.989047 0
M  V30 4917 H 464.666 -5.99455 -0.27826 0
M  V30 4918 H 465.736 -4.82198 0.511173 0
M  V30 4919 N 467.08 -0.0183926 -1.57589 0
M  V30 4920 C 468.32 0.666846 -1.93216 0
M  V30 4921 C 468.684 1.69905 -0.894215 0
M  V30 4922 O 469.885 2.436 -1.13633 0
M  V30 4923 C 468.156 1.27684 -3.33814 0
M  V30 4924 S 469.715 1.98464 -3.91353 0
M  V30 4925 H 466.533 0.219826 -0.676164 0
M  V30 4926 H 469.135 -0.0794893 -1.95338 0
M  V30 4927 H 467.839 0.513006 -4.07181 0
M  V30 4928 H 467.37 2.06071 -3.3511 0
M  V30 4929 H 469.385 3.26189 -3.73918 0
M  V30 4930 N 468.558 1.5553 0.254621 0
M  V30 4931 C 469.505 1.89666 1.31512 0
M  V30 4932 C 470.475 0.750057 1.482 0
M  V30 4933 O 471.66 1.00301 1.62309 0
M  V30 4934 C 468.8 2.19009 2.667 0
M  V30 4935 C 467.913 3.46435 2.58083 0
M  V30 4936 C 467.048 3.65386 3.85573 0
M  V30 4937 C 466.087 4.8644 3.71541 0
M  V30 4938 N 465.224 5.01952 4.90906 0
M  V30 4939 H 470.064 2.80109 1.017 0
M  V30 4940 H 467.601 1.38666 0.490938 0
M  V30 4941 H 469.559 2.34025 3.45381 0
M  V30 4942 H 468.189 1.31779 2.94676 0
M  V30 4943 H 467.241 3.39792 1.71013 0
M  V30 4944 H 468.553 4.35258 2.43622 0
M  V30 4945 H 467.707 3.80319 4.72697 0
M  V30 4946 H 466.446 2.74781 4.02922 0
M  V30 4947 H 465.451 4.71491 2.82801 0
M  V30 4948 H 466.676 5.78497 3.55694 0
M  V30 4949 H 464.622 4.14283 5.08631 0
M  V30 4950 H 464.539 5.84851 4.79046 0
M  V30 4951 H 465.807 5.21289 5.7955 0
M  V30 4952 N 470.036 -0.519951 1.48776 0
M  V30 4953 C 471.447 -1.10177 1.50725 0
M  V30 4954 C 471.798 -1.94153 0.282678 0
M  V30 4955 O 470.923 -2.07645 -0.609298 0
M  V30 4956 C 471.518 -2.00482 2.73116 0
M  V30 4957 C 470.077 -2.53862 2.77905 0
M  V30 4958 C 469.224 -1.31047 2.44381 0
M  V30 4959 H 472.175 -0.30473 1.55747 0
M  V30 4960 H 472.196 -2.8491 2.52203 0
M  V30 4961 H 471.708 -1.39335 3.62225 0
M  V30 4962 H 469.809 -3.18702 1.93029 0
M  V30 4963 H 469.922 -2.9231 3.79594 0
M  V30 4964 H 468.286 -1.62953 1.95751 0
M  V30 4965 H 469.069 -0.71637 3.35743 0
M  V30 4966 N 471.514 -1.37532 -0.769588 0
M  V30 4967 C 472.477 -1.33292 -1.86456 0
M  V30 4968 C 473.477 -0.236537 -1.59051 0
M  V30 4969 O 474.667 -0.492511 -1.67093 0
M  V30 4970 C 471.799 -1.07118 -3.23633 0
M  V30 4971 H 472.992 -2.30692 -1.91628 0
M  V30 4972 H 470.545 -1.22593 -0.969572 0
M  V30 4973 H 471.28 -0.102578 -3.24138 0
M  V30 4974 H 471.065 -1.86479 -3.44917 0
M  V30 4975 H 472.555 -1.06806 -4.03711 0
M  V30 4976 N 472.992 0.995999 -1.22138 0
M  V30 4977 C 474.403 1.54961 -1.04135 0
M  V30 4978 C 474.754 1.92159 0.396147 0
M  V30 4979 O 473.879 1.74435 1.28069 0
M  V30 4980 C 474.474 2.81581 -1.88408 0
M  V30 4981 C 473.033 3.33396 -1.74712 0
M  V30 4982 C 472.18 2.06509 -1.85066 0
M  V30 4983 H 475.131 0.817436 -1.36028 0
M  V30 4984 H 475.152 3.53822 -1.39966 0
M  V30 4985 H 474.664 2.54476 -2.93025 0
M  V30 4986 H 472.765 3.65416 -0.728159 0
M  V30 4987 H 472.878 4.04208 -2.57202 0
M  V30 4988 H 471.242 2.19925 -1.28472 0
M  V30 4989 H 472.025 1.81804 -2.91208 0
M  V30 4990 N 474.47 1.03057 1.19235 0
M  V30 4991 C 475.4 0.633497 2.24742 0
M  V30 4992 C 476.381 -0.358335 1.66283 0
M  V30 4993 O 477.566 -0.240676 1.92703 0
M  V30 4994 C 474.696 -0.0147648 3.47297 0
M  V30 4995 C 473.65 0.899527 4.18441 0
M  V30 4996 C 472.976 0.116281 5.34574 0
M  V30 4997 C 474.276 2.21404 4.73051 0
M  V30 4998 H 475.97 1.5155 2.58211 0
M  V30 4999 H 473.516 0.73014 1.24117 0
M  V30 5000 H 475.469 -0.304202 4.20301 0
M  V30 5001 H 474.193 -0.931577 3.13032 0
M  V30 5002 H 472.852 1.17319 3.47321 0
M  V30 5003 H 472.5 -0.802619 4.96555 0
M  V30 5004 H 472.2 0.725293 5.83107 0
M  V30 5005 H 473.724 -0.166376 6.10373 0
M  V30 5006 H 475.138 1.98601 5.37802 0
M  V30 5007 H 473.535 2.77512 5.32078 0
M  V30 5008 H 474.605 2.86752 3.91026 0
M  V30 5009 N 475.948 -1.35272 0.808662 0
M  V30 5010 C 477.176 -2.02946 0.402537 0
M  V30 5011 C 477.591 -1.60937 -0.987147 0
M  V30 5012 O 476.948 -0.807917 -1.63643 0
M  V30 5013 C 476.999 -3.58317 0.47868 0
M  V30 5014 O 476.72 -3.98799 1.81358 0
M  V30 5015 C 478.221 -4.43251 0.0656281 0
M  V30 5016 H 475.441 -0.650831 0.163279 0
M  V30 5017 H 477.985 -1.72849 1.09286 0
M  V30 5018 H 476.14 -3.87055 -0.163415 0
M  V30 5019 H 476.554 -4.93451 1.77781 0
M  V30 5020 H 478.028 -5.51738 0.170017 0
M  V30 5021 H 478.505 -4.27913 -0.989278 0
M  V30 5022 H 479.111 -4.19813 0.68096 0
M  V30 5023 N 477.426 -0.562348 -1.47226 0
M  V30 5024 C 478.674 -0.0401371 -2.0206 0
M  V30 5025 C 478.995 1.3165 -1.43852 0
M  V30 5026 O 478.265 1.85976 -0.615599 0
M  V30 5027 H 476.845 -0.0118479 -0.746906 0
M  V30 5028 H 479.507 -0.73352 -1.8057 0
M  V30 5029 H 478.603 0.0441254 -3.12069 0
M  V30 5030 N 478.904 1.54736 -0.299062 0
M  V30 5031 C 480.132 2.04512 0.313447 0
M  V30 5032 C 480.547 1.17643 1.47667 0
M  V30 5033 O 479.904 0.20164 1.81383 0
M  V30 5034 C 479.955 3.53171 0.771542 0
M  V30 5035 O 479.676 4.36736 -0.345379 0
M  V30 5036 C 481.177 4.18936 1.4494 0
M  V30 5037 H 478.397 0.667507 0.0683784 0
M  V30 5038 H 480.941 1.99752 -0.438129 0
M  V30 5039 H 479.096 3.58298 1.47314 0
M  V30 5040 H 479.51 5.24499 0.0109219 0
M  V30 5041 H 480.984 5.24482 1.72111 0
M  V30 5042 H 481.461 3.68554 2.38883 0
M  V30 5043 H 482.067 4.17879 0.791028 0
M  V30 5044 N 480.382 0.0267497 1.57577 0
M  V30 5045 C 481.312 -0.954308 2.13108 0
M  V30 5046 C 482.293 -1.34088 1.04663 0
M  V30 5047 O 483.478 -1.41992 1.32484 0
M  V30 5048 C 480.608 -2.23744 2.65624 0
M  V30 5049 C 479.562 -1.99168 3.78835 0
M  V30 5050 C 478.888 -3.33726 4.17769 0
M  V30 5051 C 480.188 -1.33277 5.0501 0
M  V30 5052 H 481.882 -0.491848 2.95332 0
M  V30 5053 H 479.428 -0.23514 1.42067 0
M  V30 5054 H 481.381 -2.92754 3.03106 0
M  V30 5055 H 480.105 -2.72151 1.80558 0
M  V30 5056 H 478.764 -1.32577 3.41788 0
M  V30 5057 H 478.412 -3.79888 3.29688 0
M  V30 5058 H 478.112 -3.18089 4.94058 0
M  V30 5059 H 479.636 -4.04008 4.57832 0
M  V30 5060 H 481.05 -1.92283 5.40093 0
M  V30 5061 H 479.447 -1.28045 5.8628 0
M  V30 5062 H 480.517 -0.305411 4.83937 0
M  V30 5063 N 481.861 -1.55662 -0.24637 0
M  V30 5064 C 482.771 -1.93495 -1.32653 0
M  V30 5065 C 483.787 -0.835462 -1.5263 0
M  V30 5066 O 484.963 -1.1369 -1.66242 0
M  V30 5067 C 482.028 -2.22242 -2.66101 0
M  V30 5068 C 481.089 -3.45625 -2.54641 0
M  V30 5069 C 480.322 -3.72991 -3.81724 0
M  V30 5070 O 480.545 -3.02421 -4.8363 0
M  V30 5071 O 479.479 -4.66515 -3.80325 0
M  V30 5072 H 483.305 -2.85498 -1.03559 0
M  V30 5073 H 480.89 -1.42551 -0.44717 0
M  V30 5074 H 482.772 -2.42037 -3.44958 0
M  V30 5075 H 481.447 -1.33417 -2.94926 0
M  V30 5076 H 480.354 -3.31136 -1.74067 0
M  V30 5077 H 481.687 -4.34754 -2.3076 0
M  V30 5078 N 483.339 0.512053 -1.4905 0
M  V30 5079 C 484.585 1.26874 -1.58212 0
M  V30 5080 C 484.918 1.9241 -0.263073 0
M  V30 5081 O 484.193 1.80181 0.732476 0
M  V30 5082 C 484.476 2.34428 -2.73341 0
M  V30 5083 C 484.329 1.73466 -4.15006 0
M  V30 5084 C 485.648 3.36073 -2.84154 0
M  V30 5085 H 482.767 0.459924 -0.575881 0
M  V30 5086 H 485.409 0.568587 -1.81293 0
M  V30 5087 H 483.559 2.94146 -2.53792 0
M  V30 5088 H 485.231 1.17661 -4.46042 0
M  V30 5089 H 483.474 1.03921 -4.21168 0
M  V30 5090 H 484.145 2.51426 -4.91415 0
M  V30 5091 H 486.621 2.86332 -3.01916 0
M  V30 5092 H 485.497 4.08703 -3.66406 0
M  V30 5093 H 485.758 3.97725 -1.93048 0
M  V30 5094 N 484.817 1.37938 0.762283 0
M  V30 5095 C 486.233 1.18945 1.06415 0
M  V30 5096 C 486.433 0.0321163 2.01474 0
M  V30 5097 O 485.489 -0.624844 2.44647 0
M  V30 5098 C 486.802 2.51218 1.65258 0
M  V30 5099 C 488.35 2.57824 1.7747 0
M  V30 5100 C 488.825 3.90251 2.39725 0
M  V30 5101 N 490.316 3.91744 2.47166 0
M  V30 5102 C 491.051 4.90966 2.96209 0
M  V30 5103 N 490.547 6.00585 3.45354 0
M  V30 5104 N 492.34 4.78363 2.9517 0
M  V30 5105 H 484.491 2.11994 0.131301 0
M  V30 5106 H 486.754 0.940262 0.120879 0
M  V30 5107 H 486.46 3.36317 1.02878 0
M  V30 5108 H 486.334 2.68989 2.64433 0
M  V30 5109 H 488.721 1.73126 2.3898 0
M  V30 5110 H 488.802 2.43928 0.770241 0
M  V30 5111 H 488.446 4.75368 1.78852 0
M  V30 5112 H 488.376 4.01454 3.40796 0
M  V30 5113 H 490.867 3.12563 2.12397 0
M  V30 5114 H 491.18 6.72236 3.81207 0
M  V30 5115 H 489.525 6.04217 3.43434 0
M  V30 5116 H 492.716 3.91841 2.56082 0
M  V30 5117 H 492.889 5.55843 3.33081 0
M  V30 5118 N 486.295 -0.989507 1.22664 0
M  V30 5119 C 487.541 -1.7321 1.05481 0
M  V30 5120 C 487.874 -1.89852 -0.408635 0
M  V30 5121 O 487.149 -1.44416 -1.30285 0
M  V30 5122 C 487.432 -3.1357 1.77047 0
M  V30 5123 C 487.285 -3.04555 3.31008 0
M  V30 5124 C 488.604 -4.12812 1.5256 0
M  V30 5125 H 485.723 -0.628697 0.384589 0
M  V30 5126 H 488.365 -1.15258 1.51049 0
M  V30 5127 H 486.515 -3.63046 1.3831 0
M  V30 5128 H 488.187 -2.62674 3.7921 0
M  V30 5129 H 486.43 -2.41278 3.6051 0
M  V30 5130 H 487.101 -4.03894 3.76263 0
M  V30 5131 H 489.577 -3.72106 1.86215 0
M  V30 5132 H 488.453 -5.09132 2.05124 0
M  V30 5133 H 488.714 -4.39711 0.458936 0
M  V30 5134 N 487.773 -1.03688 -1.18687 0
M  V30 5135 C 489.019 -0.739123 -1.88851 0
M  V30 5136 C 489.352 0.731042 -1.79915 0
M  V30 5137 O 488.627 1.53313 -1.19688 0
M  V30 5138 C 488.91 -1.20106 -3.3948 0
M  V30 5139 C 488.763 -2.73304 -3.57246 0
M  V30 5140 C 490.082 -0.788134 -4.32986 0
M  V30 5141 H 487.201 -0.269978 -0.68577 0
M  V30 5142 H 489.843 -1.28822 -1.3966 0
M  V30 5143 H 487.993 -0.733915 -3.81505 0
M  V30 5144 H 489.665 -3.28027 -3.24339 0
M  V30 5145 H 487.908 -3.13313 -3.00029 0
M  V30 5146 H 488.579 -3.00684 -4.62918 0
M  V30 5147 H 491.055 -1.19005 -3.98719 0
M  V30 5148 H 489.931 -1.13915 -5.36949 0
M  V30 5149 H 490.192 0.308988 -4.41019 0
M  V30 5150 N 489.251 1.34841 -0.815825 0
M  V30 5151 C 490.499 1.98107 -0.399744 0
M  V30 5152 C 490.82 1.65019 1.03894 0
M  V30 5153 O 490.09 0.937311 1.72021 0
M  V30 5154 H 488.67 0.732827 -0.144823 0
M  V30 5155 H 491.332 1.64599 -1.0437 0
M  V30 5156 H 490.428 3.07856 -0.512965 0
M  V30 5157 N 490.729 0.570148 1.46925 0
M  V30 5158 C 491.969 0.0534743 2.0433 0
M  V30 5159 C 492.333 -1.27729 1.4335 0
M  V30 5160 O 493.534 -1.88244 1.91879 0
M  V30 5161 C 491.805 -0.0244296 3.57392 0
M  V30 5162 S 493.364 -0.485351 4.36108 0
M  V30 5163 H 490.182 0.0313908 0.710307 0
M  V30 5164 H 492.784 0.759808 1.80131 0
M  V30 5165 H 491.488 0.948261 3.99295 0
M  V30 5166 H 491.019 -0.753922 3.86108 0
M  V30 5167 H 493.034 -1.74258 4.64595 0
M  V30 5168 N 492.207 -1.54576 0.307264 0
M  V30 5169 C 493.623 -1.59534 -0.0459251 0
M  V30 5170 C 493.823 -1.32414 -1.51884 0
M  V30 5171 O 492.879 -1.1006 -2.27251 0
M  V30 5172 C 494.192 -2.98566 0.357649 0
M  V30 5173 C 495.74 -3.11491 0.306937 0
M  V30 5174 C 496.215 -4.52842 0.685427 0
M  V30 5175 N 497.706 -4.58782 0.638203 0
M  V30 5176 C 498.441 -5.66238 0.903458 0
M  V30 5177 N 497.937 -6.81703 1.23501 0
M  V30 5178 N 499.73 -5.55937 0.830102 0
M  V30 5179 H 491.881 -1.70464 1.26712 0
M  V30 5180 H 494.144 -0.79647 0.514139 0
M  V30 5181 H 493.85 -3.23356 1.38325 0
M  V30 5182 H 493.724 -3.76117 -0.285565 0
M  V30 5183 H 496.111 -2.86446 -0.709424 0
M  V30 5184 H 496.192 -2.36081 0.984861 0
M  V30 5185 H 495.836 -4.78618 1.69963 0
M  V30 5186 H 495.766 -5.26598 -0.0146346 0
M  V30 5187 H 498.257 -3.75849 0.393138 0
M  V30 5188 H 498.57 -7.59582 1.42322 0
M  V30 5189 H 496.915 -6.8324 1.27311 0
M  V30 5190 H 500.106 -4.64608 0.570693 0
M  V30 5191 H 500.279 -6.39597 1.04019 0
M  V30 5192 N 493.685 -0.035106 -1.57561 0
M  V30 5193 C 494.962 0.681212 -1.83354 0
M  V30 5194 C 495.342 1.89986 -0.920252 0
M  V30 5195 O 494.69 2.28489 0.0226815 0
M  V30 5196 C 494.9 1.05376 -3.32712 0
M  V30 5197 C 496.248 1.44286 -3.99333 0
M  V30 5198 O 497.272 1.14656 -3.37242 0
M  V30 5199 O 496.131 1.99518 -5.08778 0
M  V30 5200 H 493.225 0.334741 -0.756226 0
M  V30 5201 H 495.771 -0.0632448 -1.69582 0
M  V30 5202 H 494.543 0.186668 -3.90854 0
M  V30 5203 H 494.166 1.85619 -3.51613 0
M  V30 5204 N 495.163 1.55791 0.238111 0
M  V30 5205 C 496.093 1.94068 1.29846 0
M  V30 5206 C 497.074 0.806726 1.49753 0
M  V30 5207 O 498.259 1.06772 1.62214 0
M  V30 5208 C 495.389 2.24302 2.65153 0
M  V30 5209 C 494.343 3.40032 2.59927 0
M  V30 5210 C 493.669 3.55829 3.99111 0
M  V30 5211 C 494.969 4.75476 2.16148 0
M  V30 5212 H 496.663 2.82887 0.980563 0
M  V30 5213 H 494.209 1.36105 0.470253 0
M  V30 5214 H 496.162 2.4967 3.39475 0
M  V30 5215 H 494.886 1.32318 2.98596 0
M  V30 5216 H 493.545 3.14687 1.88063 0
M  V30 5217 H 493.193 2.6125 4.29834 0
M  V30 5218 H 492.893 4.3366 3.96501 0
M  V30 5219 H 494.417 3.83528 4.7512 0
M  V30 5220 H 495.831 5.00158 2.80205 0
M  V30 5221 H 494.228 5.56472 2.24631 0
M  V30 5222 H 495.298 4.71946 1.11333 0
M  V30 5223 N 496.642 -0.504142 1.49319 0
M  V30 5224 C 498.053 -1.08572 1.51885 0
M  V30 5225 C 498.404 -1.93842 0.303255 0
M  V30 5226 O 497.529 -2.0828 -0.58724 0
M  V30 5227 C 498.124 -1.97574 2.75227 0
M  V30 5228 C 496.683 -2.509 2.80581 0
M  V30 5229 C 495.83 -1.28447 2.45757 0
M  V30 5230 H 498.781 -0.288194 1.56061 0
M  V30 5231 H 498.802 -2.82219 2.55211 0
M  V30 5232 H 498.314 -1.35486 3.63683 0
M  V30 5233 H 496.415 -3.16636 1.96398 0
M  V30 5234 H 496.528 -2.88268 3.82673 0
M  V30 5235 H 494.892 -1.60868 1.97468 0
M  V30 5236 H 495.675 -0.68072 3.36483 0
M  V30 5237 N 498.12 -1.38341 -0.754957 0
M  V30 5238 C 499.03 -1.3769 -1.89944 0
M  V30 5239 C 500.046 -0.274194 -1.71826 0
M  V30 5240 O 501.222 -0.512391 -1.94773 0
M  V30 5241 C 498.287 -1.19938 -3.25293 0
M  V30 5242 C 497.348 -2.40001 -3.55946 0
M  V30 5243 C 496.581 -2.23087 -4.84838 0
M  V30 5244 O 496.804 -1.22386 -5.57116 0
M  V30 5245 O 495.738 -3.11646 -5.14937 0
M  V30 5246 H 499.564 -2.3412 -1.93446 0
M  V30 5247 H 497.149 -1.19246 -0.900044 0
M  V30 5248 H 499.031 -1.12093 -4.06218 0
M  V30 5249 H 497.706 -0.265919 -3.22606 0
M  V30 5250 H 496.613 -2.53421 -2.75188 0
M  V30 5251 H 497.946 -3.31973 -3.63394 0
M  V30 5252 N 499.598 0.982988 -1.23187 0
M  V30 5253 C 500.826 1.75921 -1.08901 0
M  V30 5254 C 501.241 1.85341 0.359719 0
M  V30 5255 O 500.598 1.33072 1.24892 0
M  V30 5256 C 500.649 3.18742 -1.70545 0
M  V30 5257 O 500.37 3.09814 -3.09753 0
M  V30 5258 C 501.871 4.1277 -1.61667 0
M  V30 5259 H 499.091 0.552166 -0.381252 0
M  V30 5260 H 501.635 1.23516 -1.62985 0
M  V30 5261 H 499.79 3.68182 -1.20501 0
M  V30 5262 H 500.204 3.99703 -3.39614 0
M  V30 5263 H 501.678 5.10697 -2.09506 0
M  V30 5264 H 502.155 4.3542 -0.575009 0
M  V30 5265 H 502.761 3.69232 -2.11064 0
M  V30 5266 N 501.076 1.04316 1.18135 0
M  V30 5267 C 502.325 0.74319 1.87509 0
M  V30 5268 C 502.638 -0.732136 1.81381 0
M  V30 5269 O 503.844 -1.14572 2.46141 0
M  V30 5270 C 502.3 1.27913 3.36402 0
M  V30 5271 C 501.908 2.78326 3.51053 0
M  V30 5272 C 503.652 1.0558 4.11161 0
M  V30 5273 C 501.559 3.25266 4.93919 0
M  V30 5274 H 500.489 0.274313 0.702331 0
M  V30 5275 H 503.14 1.25931 1.33467 0
M  V30 5276 H 501.522 0.690853 3.89927 0
M  V30 5277 H 502.696 3.42933 3.07788 0
M  V30 5278 H 501.011 2.991 2.89704 0
M  V30 5279 H 503.608 1.38161 5.16542 0
M  V30 5280 H 503.951 -0.00684729 4.16299 0
M  V30 5281 H 504.484 1.60882 3.63816 0
M  V30 5282 H 501.223 4.30922 4.9395 0
M  V30 5283 H 500.743 2.65396 5.3789 0
M  V30 5284 H 502.422 3.19433 5.62647 0
M  V30 5285 N 502.554 -1.34406 0.822964 0
M  V30 5286 C 503.965 -1.8069 0.469879 0
M  V30 5287 C 504.316 -1.68223 -1.00972 0
M  V30 5288 O 503.441 -1.22226 -1.78577 0
M  V30 5289 C 504.036 -3.28064 0.846118 0
M  V30 5290 C 502.595 -3.72428 0.545402 0
M  V30 5291 C 501.742 -2.56116 1.06301 0
M  V30 5292 H 504.693 -1.22153 1.01313 0
M  V30 5293 H 504.714 -3.80205 0.149922 0
M  V30 5294 H 504.226 -3.37107 1.92304 0
M  V30 5295 H 502.327 -3.68924 -0.522109 0
M  V30 5296 H 502.44 -4.66548 1.0895 0
M  V30 5297 H 500.804 -2.50048 0.484554 0
M  V30 5298 H 501.587 -2.67928 2.14638 0
M  V30 5299 N 504.032 -0.577932 -1.46621 0
M  V30 5300 C 505.278 -0.0700937 -2.03279 0
M  V30 5301 C 505.633 1.27376 -1.44198 0
M  V30 5302 O 504.926 1.82097 -0.595911 0
M  V30 5303 C 505.12 0.0590832 -3.57351 0
M  V30 5304 C 504.949 -1.2707 -4.31374 0
M  V30 5305 C 503.719 -1.84357 -4.70469 0
M  V30 5306 C 505.917 -2.19278 -4.65211 0
M  V30 5307 N 503.899 -3.11124 -5.29221 0
M  V30 5308 C 505.27 -3.30631 -5.24484 0
M  V30 5309 C 507.325 -2.19018 -4.47142 0
M  V30 5310 C 506.028 -4.41849 -5.67593 0
M  V30 5311 C 508.054 -3.29262 -4.91264 0
M  V30 5312 C 507.416 -4.39335 -5.50604 0
M  V30 5313 H 503.515 -0.0683127 -0.779011 0
M  V30 5314 H 506.099 -0.76978 -1.78836 0
M  V30 5315 H 504.27 0.727929 -3.81518 0
M  V30 5316 H 506.002 0.57087 -4.00653 0
M  V30 5317 H 502.757 -1.37906 -4.53077 0
M  V30 5318 H 503.181 -3.75794 -5.63123 0
M  V30 5319 H 507.823 -1.35191 -4.00604 0
M  V30 5320 H 505.541 -5.26421 -6.13112 0
M  V30 5321 H 509.127 -3.30172 -4.79038 0
M  V30 5322 H 508.007 -5.23233 -5.84121 0
M  V30 5323 N 505.51 1.54411 -0.315457 0
M  V30 5324 C 506.458 2.25514 0.569771 0
M  V30 5325 C 507.452 1.2663 1.12522 0
M  V30 5326 O 508.658 1.44434 1.07419 0
M  V30 5327 H 505.033 0.724257 0.202376 0
M  V30 5328 H 507.004 2.98354 -0.0522895 0
M  V30 5329 C 505.753 3.02004 1.72305 0
M  V30 5330 H 505.076 3.77906 1.30488 0
M  V30 5331 H 506.516 3.55014 2.31821 0
M  V30 5332 C 504.975 2.09822 2.63583 0
M  V30 5333 O 505.505 1.67574 3.65078 0
M  V30 5334 N 503.711 1.75478 2.31637 0
M  V30 5335 H 503.258 2.10032 1.49145 0
M  V30 5336 H 503.216 1.14079 2.92973 0
M  V30 5337 N 506.988 0.0434614 1.5754 0
M  V30 5338 C 508.399 -0.493343 1.80064 0
M  V30 5339 C 508.75 -1.71388 0.955023 0
M  V30 5340 O 507.875 -2.15736 0.169434 0
M  V30 5341 C 508.47 -0.90179 3.26578 0
M  V30 5342 C 507.029 -1.38362 3.50047 0
M  V30 5343 C 506.176 -0.355129 2.75017 0
M  V30 5344 H 509.127 0.2694 1.56397 0
M  V30 5345 H 509.148 -1.76523 3.37075 0
M  V30 5346 H 508.66 -0.013271 3.88098 0
M  V30 5347 H 506.761 -2.29159 2.93798 0
M  V30 5348 H 506.874 -1.3811 4.58762 0
M  V30 5349 H 505.238 -0.826348 2.40922 0
M  V30 5350 H 506.021 0.525172 3.39259 0
M  V30 5351 N 508.466 -1.55915 -0.229846 0
M  V30 5352 C 509.694 -1.82617 -0.972562 0
M  V30 5353 C 510.109 -0.621488 -1.78278 0
M  V30 5354 O 509.466 0.409956 -1.77836 0
M  V30 5355 C 509.517 -3.0774 -1.89679 0
M  V30 5356 O 509.238 -4.23559 -1.11934 0
M  V30 5357 C 510.739 -3.47368 -2.75409 0
M  V30 5358 H 507.959 -0.60727 -0.285419 0
M  V30 5359 H 510.503 -2.02996 -0.247579 0
M  V30 5360 H 508.658 -2.89361 -2.57583 0
M  V30 5361 H 509.072 -4.94586 -1.74599 0
M  V30 5362 H 510.546 -4.37977 -3.35977 0
M  V30 5363 H 511.023 -2.68737 -3.47386 0
M  V30 5364 H 511.629 -3.68158 -2.12931 0
M  V30 5365 N 509.944 0.496216 -1.49584 0
M  V30 5366 C 511.355 1.07765 -1.52459 0
M  V30 5367 C 511.706 1.93679 -0.31353 0
M  V30 5368 O 510.831 2.08588 0.576186 0
M  V30 5369 C 511.426 1.96111 -2.76271 0
M  V30 5370 C 509.985 2.49409 -2.81908 0
M  V30 5371 C 509.132 1.27142 -2.46435 0
M  V30 5372 H 512.083 0.279914 -1.56212 0
M  V30 5373 H 512.104 2.80862 -2.56704 0
M  V30 5374 H 511.616 1.33555 -3.64396 0
M  V30 5375 H 509.717 3.1559 -1.98074 0
M  V30 5376 H 509.83 2.86234 -3.84196 0
M  V30 5377 H 508.194 1.59818 -1.98319 0
M  V30 5378 H 508.977 0.662866 -3.3684 0
M  V30 5379 N 511.423 1.38739 0.74761 0
M  V30 5380 C 512.648 1.38702 1.54197 0
M  V30 5381 C 513.073 -0.019664 1.8809 0
M  V30 5382 O 512.431 -1.00333 1.51006 0
M  V30 5383 C 512.479 2.25492 2.814 0
M  V30 5384 O 511.583 1.67613 3.76802 0
M  V30 5385 H 510.924 0.472863 0.466151 0
M  V30 5386 H 513.454 1.82577 0.923413 0
M  V30 5387 H 513.464 2.39561 3.30264 0
M  V30 5388 H 512.139 3.27727 2.56062 0
M  V30 5389 H 510.716 1.62718 3.35526 0
M  V30 5390 N 512.901 -0.976442 1.23707 0
M  V30 5391 C 513.834 -2.06793 0.964973 0
M  V30 5392 C 514.812 -1.62304 -0.0981472 0
M  V30 5393 O 515.996 -1.88464 0.0369477 0
M  V30 5394 C 513.123 -3.35636 0.454522 0
M  V30 5395 C 512.169 -3.99069 1.50485 0
M  V30 5396 S 513.002 -4.37814 3.0835 0
M  V30 5397 C 514.158 -5.69805 2.58985 0
M  V30 5398 H 514.391 -2.29556 1.88922 0
M  V30 5399 H 511.924 -1.11317 1.06995 0
M  V30 5400 H 513.882 -4.10162 0.166626 0
M  V30 5401 H 512.543 -3.10876 -0.448871 0
M  V30 5402 H 511.736 -4.91896 1.09792 0
M  V30 5403 H 511.338 -3.30938 1.7423 0
M  V30 5404 H 513.63 -6.46919 2.01252 0
M  V30 5405 H 514.573 -6.15345 3.50366 0
M  V30 5406 H 514.981 -5.27994 1.99705 0
M  V30 5407 N 514.379 -1.04941 -1.1758 0
M  V30 5408 C 515.627 -0.756492 -1.87408 0
M  V30 5409 C 515.948 0.718478 -1.81281 0
M  V30 5410 O 515.218 1.519 -1.23706 0
M  V30 5411 H 513.798 -0.276841 -0.693807 0
M  V30 5412 H 516.46 -1.32803 -1.42652 0
M  V30 5413 H 515.556 -1.06918 -2.93215 0
M  V30 5414 N 515.857 1.33968 -0.830081 0
M  V30 5415 C 517.105 1.97672 -0.420734 0
M  V30 5416 C 517.426 1.66111 1.02138 0
M  V30 5417 O 516.696 0.955503 1.71017 0
M  V30 5418 H 515.276 0.73125 -0.152587 0
M  V30 5419 H 517.938 1.63483 -1.0611 0
M  V30 5420 H 517.034 3.07294 -0.545588 0
M  V30 5421 N 517.335 0.585699 1.46312 0
M  V30 5422 C 518.746 0.159938 1.86014 0
M  V30 5423 C 519.097 -1.27775 1.48889 0
M  V30 5424 O 518.222 -1.96559 0.90519 0
M  V30 5425 C 518.817 0.283485 3.37612 0
M  V30 5426 C 517.376 -0.0874256 3.76298 0
M  V30 5427 C 516.523 0.618055 2.70325 0
M  V30 5428 H 519.474 0.793737 1.37425 0
M  V30 5429 H 519.495 -0.490348 3.77327 0
M  V30 5430 H 519.007 1.32995 3.64601 0
M  V30 5431 H 517.108 -1.13391 3.54927 0
M  V30 5432 H 517.221 0.290975 4.78216 0
M  V30 5433 H 515.585 0.057993 2.54634 0
M  V30 5434 H 516.368 1.66623 3.00153 0
M  V30 5435 N 518.813 -1.54241 0.323641 0
M  V30 5436 C 520.061 -2.00174 -0.278359 0
M  V30 5437 C 520.382 -1.2134 -1.52648 0
M  V30 5438 O 519.652 -0.315244 -1.93347 0
M  V30 5439 H 518.232 -0.739463 -0.105845 0
M  V30 5440 H 520.894 -1.89864 0.440204 0
M  V30 5441 H 519.99 -3.07486 -0.5347 0
M  V30 5442 N 520.291 -0.0518155 -1.57515 0
M  V30 5443 C 521.519 0.631395 -1.9703 0
M  V30 5444 C 521.934 1.64341 -0.92938 0
M  V30 5445 O 521.291 1.82296 0.0863266 0
M  V30 5446 C 521.342 1.31774 -3.36627 0
M  V30 5447 O 521.063 0.346247 -4.3673 0
M  V30 5448 C 522.564 2.09065 -3.90905 0
M  V30 5449 H 519.784 0.172576 -0.648428 0
M  V30 5450 H 522.328 -0.118306 -2.04158 0
M  V30 5451 H 520.483 2.01867 -3.30649 0
M  V30 5452 H 520.897 0.836226 -5.17791 0
M  V30 5453 H 522.371 2.52508 -4.9086 0
M  V30 5454 H 522.848 2.93908 -3.26366 0
M  V30 5455 H 523.454 1.43882 -4.00223 0
M  V30 5456 N 521.769 1.56035 0.221574 0
M  V30 5457 C 523.18 1.69229 0.788567 0
M  V30 5458 C 523.531 0.653814 1.84986 0
M  V30 5459 O 522.656 -0.195065 2.15519 0
M  V30 5460 C 523.251 3.06809 1.43713 0
M  V30 5461 C 521.81 3.21858 1.95152 0
M  V30 5462 C 520.957 2.65155 0.811685 0
M  V30 5463 H 523.908 1.587 -0.00307894 0
M  V30 5464 H 523.929 3.02666 2.30594 0
M  V30 5465 H 523.441 3.82369 0.664475 0
M  V30 5466 H 521.542 2.51167 2.7522 0
M  V30 5467 H 521.655 4.29073 2.1315 0
M  V30 5468 H 520.019 2.23635 1.21899 0
M  V30 5469 H 520.802 3.43261 0.0516987 0
M  V30 5470 N 523.247 -0.488276 1.49845 0
M  V30 5471 C 524.524 -1.24959 1.50481 0
M  V30 5472 C 524.904 -2.09735 0.239698 0
M  V30 5473 O 524.252 -2.14865 -0.777524 0
M  V30 5474 C 524.462 -2.0954 2.79095 0
M  V30 5475 C 525.81 -2.68305 3.29086 0
M  V30 5476 O 526.834 -2.19797 2.80299 0
M  V30 5477 O 525.693 -3.56643 4.14087 0
M  V30 5478 H 522.787 -0.566133 0.602845 0
M  V30 5479 H 525.333 -0.501504 1.6212 0
M  V30 5480 H 524.105 -1.46958 3.62656 0
M  V30 5481 H 523.728 -2.91517 2.70377 0
M  V30 5482 N 524.725 -1.39134 -0.740242 0
M  V30 5483 C 525.95 -1.39518 -1.53459 0
M  V30 5484 C 526.375 0.00968883 -1.88098 0
M  V30 5485 O 525.733 0.995312 -1.51536 0
M  V30 5486 C 525.781 -2.26981 -2.802 0
M  V30 5487 O 524.885 -1.69609 -3.75908 0
M  V30 5488 H 524.226 -0.475328 -0.463637 0
M  V30 5489 H 526.756 -1.83064 -0.913717 0
M  V30 5490 H 526.766 -2.41309 -3.28989 0
M  V30 5491 H 525.441 -3.29081 -2.5432 0
M  V30 5492 H 524.018 -1.64495 -3.34658 0
M  V30 5493 N 526.204 0.969867 -1.24223 0
M  V30 5494 C 527.62 1.23809 -1.00716 0
M  V30 5495 C 527.82 1.99469 0.285358 0
M  V30 5496 O 526.876 2.31764 1.00207 0
M  V30 5497 C 528.189 2.02734 -2.2208 0
M  V30 5498 C 529.737 2.15834 -2.26681 0
M  V30 5499 C 530.212 2.98154 -3.47661 0
M  V30 5500 N 531.703 3.05737 -3.47964 0
M  V30 5501 C 532.438 3.69785 -4.38231 0
M  V30 5502 N 531.934 4.35569 -5.3875 0
M  V30 5503 N 533.727 3.66775 -4.25949 0
M  V30 5504 H 525.878 0.463294 -2.07286 0
M  V30 5505 H 528.141 0.267348 -0.909521 0
M  V30 5506 H 527.847 1.54524 -3.15935 0
M  V30 5507 H 527.721 3.0347 -2.24021 0
M  V30 5508 H 530.108 2.63248 -1.33359 0
M  V30 5509 H 530.189 1.14453 -2.28767 0
M  V30 5510 H 529.833 2.51435 -4.41297 0
M  V30 5511 H 529.763 3.99729 -3.42818 0
M  V30 5512 H 532.254 2.58941 -2.75242 0
M  V30 5513 H 532.567 4.82251 -6.03866 0
M  V30 5514 H 530.912 4.34244 -5.42639 0
M  V30 5515 H 534.103 3.14558 -3.46657 0
M  V30 5516 H 534.276 4.16407 -4.96497 0
M  V30 5517 N 527.682 1.05563 1.17022 0
M  V30 5518 C 529.093 0.793475 1.69 0
M  V30 5519 C 529.444 -0.683882 1.83895 0
M  V30 5520 O 528.569 -1.53116 1.5292 0
M  V30 5521 C 529.164 1.43376 3.06967 0
M  V30 5522 C 527.723 1.21956 3.56095 0
M  V30 5523 C 526.87 1.51494 2.3226 0
M  V30 5524 H 529.821 1.22008 1.01487 0
M  V30 5525 H 529.842 0.845068 3.70997 0
M  V30 5526 H 529.354 2.50899 2.96093 0
M  V30 5527 H 527.455 0.163749 3.7224 0
M  V30 5528 H 527.568 1.92713 4.38633 0
M  V30 5529 H 525.932 0.935175 2.3691 0
M  V30 5530 H 526.715 2.60159 2.23992 0
M  V30 5531 N 529.16 -1.33526 0.837174 0
M  V30 5532 C 530.571 -1.80182 0.489017 0
M  V30 5533 C 530.922 -1.69285 -0.991826 0
M  V30 5534 O 530.047 -1.24113 -1.77271 0
M  V30 5535 C 530.642 -3.27149 0.880866 0
M  V30 5536 C 529.201 -3.71828 0.584872 0
M  V30 5537 C 528.348 -2.54974 1.09011 0
M  V30 5538 H 531.299 -1.21071 1.02603 0
M  V30 5539 H 531.32 -3.80024 0.190239 0
M  V30 5540 H 530.832 -3.35048 1.95869 0
M  V30 5541 H 528.933 -3.69457 -0.48295 0
M  V30 5542 H 529.046 -4.65366 1.13892 0
M  V30 5543 H 527.41 -2.4952 0.511047 0
M  V30 5544 H 528.193 -2.65637 2.17467 0
M  V30 5545 N 530.638 -0.59345 -1.46 0
M  V30 5546 C 531.885 -0.0831523 -2.02329 0
M  V30 5547 C 532.213 1.28093 -1.46364 0
M  V30 5548 O 531.468 1.85526 -0.622793 0
M  V30 5549 C 531.767 0.021178 -3.57394 0
M  V30 5550 C 531.433 -1.27671 -4.32448 0
M  V30 5551 C 530.095 -1.63227 -4.5267 0
M  V30 5552 C 532.447 -2.13511 -4.7546 0
M  V30 5553 C 529.775 -2.84401 -5.1316 0
M  V30 5554 C 532.127 -3.33922 -5.37289 0
M  V30 5555 C 530.791 -3.69747 -5.55737 0
M  V30 5556 H 530.061 -0.0304276 -0.740375 0
M  V30 5557 H 532.708 -0.772239 -1.75239 0
M  V30 5558 H 531.013 0.793454 -3.83682 0
M  V30 5559 H 532.71 0.431942 -3.98667 0
M  V30 5560 H 529.3 -0.989937 -4.17011 0
M  V30 5561 H 533.484 -1.87344 -4.59582 0
M  V30 5562 H 528.74 -3.12282 -5.25633 0
M  V30 5563 H 532.914 -4.00698 -5.69574 0
M  V30 5564 H 530.541 -4.6373 -6.02377 0
M  V30 5565 N 532.116 1.54067 -0.331816 0
M  V30 5566 C 533.046 2.27569 0.522932 0
M  V30 5567 C 534.027 1.28679 1.11247 0
M  V30 5568 O 535.212 1.57504 1.13605 0
M  V30 5569 C 532.342 3.0397 1.67987 0
M  V30 5570 C 531.296 4.10267 1.21924 0
M  V30 5571 C 530.622 4.74555 2.46377 0
M  V30 5572 C 531.922 5.21268 0.32815 0
M  V30 5573 H 533.616 2.99264 -0.0901977 0
M  V30 5574 H 531.162 1.4393 -0.044821 0
M  V30 5575 H 533.115 3.54123 2.28418 0
M  V30 5576 H 531.839 2.29906 2.31971 0
M  V30 5577 H 530.498 3.61009 0.637809 0
M  V30 5578 H 530.146 3.97098 3.08743 0
M  V30 5579 H 529.846 5.46363 2.16243 0
M  V30 5580 H 531.37 5.27487 3.07555 0
M  V30 5581 H 532.784 5.67128 0.838978 0
M  V30 5582 H 531.181 5.99982 0.119228 0
M  V30 5583 H 532.251 4.80673 -0.638839 0
M  V30 5584 N 533.594 0.0601682 1.57485 0
M  V30 5585 C 534.819 -0.624416 1.97777 0
M  V30 5586 C 535.244 -1.63051 0.937867 0
M  V30 5587 O 534.602 -1.81036 -0.0978845 0
M  V30 5588 C 534.65 -1.27979 3.37126 0
M  V30 5589 O 533.754 -2.39556 3.35688 0
M  V30 5590 H 533.095 -0.161581 0.64404 0
M  V30 5591 H 535.625 0.131237 2.04179 0
M  V30 5592 H 535.635 -1.62937 3.74053 0
M  V30 5593 H 534.31 -0.542501 4.12347 0
M  V30 5594 H 532.887 -2.06478 3.10517 0
M  V30 5595 N 535.072 -1.5615 -0.213296 0
M  V30 5596 C 536.488 -1.49327 -0.56336 0
M  V30 5597 C 536.688 -0.756826 -1.86747 0
M  V30 5598 O 535.744 -0.299866 -2.50713 0
M  V30 5599 C 537.057 -2.9392 -0.634944 0
M  V30 5600 C 538.605 -3.04487 -0.725013 0
M  V30 5601 C 539.08 -4.50456 -0.82787 0
M  V30 5602 N 540.571 -4.54533 -0.891876 0
M  V30 5603 C 541.306 -5.64766 -0.991315 0
M  V30 5604 N 540.802 -6.84733 -1.05419 0
M  V30 5605 N 542.595 -5.52637 -1.02709 0
M  V30 5606 H 534.746 -2.02453 0.642366 0
M  V30 5607 H 537.009 -0.920548 0.226487 0
M  V30 5608 H 536.715 -3.50783 0.253859 0
M  V30 5609 H 536.589 -3.46274 -1.49579 0
M  V30 5610 H 538.976 -2.47685 -1.60425 0
M  V30 5611 H 539.057 -2.55289 0.161669 0
M  V30 5612 H 538.701 -5.07878 0.0469464 0
M  V30 5613 H 538.631 -4.97369 -1.73009 0
M  V30 5614 H 541.122 -3.68141 -0.85327 0
M  V30 5615 H 541.435 -7.64493 -1.13007 0
M  V30 5616 H 539.78 -6.87427 -1.02318 0
M  V30 5617 H 542.971 -4.5784 -0.974687 0
M  V30 5618 H 543.144 -6.38576 -1.10113 0
M  V30 5619 N 536.55 0.480323 -1.50102 0
M  V30 5620 C 537.961 1.06142 -1.53593 0
M  V30 5621 C 538.312 1.93335 -0.334055 0
M  V30 5622 O 537.437 2.09188 0.55403 0
M  V30 5623 C 538.032 1.9317 -2.78336 0
M  V30 5624 C 536.591 2.46405 -2.84538 0
M  V30 5625 C 535.738 1.24521 -2.4777 0
M  V30 5626 H 538.689 0.26333 -1.565 0
M  V30 5627 H 538.71 2.78123 -2.59669 0
M  V30 5628 H 538.222 1.29683 -3.65792 0
M  V30 5629 H 536.323 3.13472 -2.01411 0
M  V30 5630 H 536.436 2.82143 -3.87211 0
M  V30 5631 H 534.8 1.57706 -2.00003 0
M  V30 5632 H 535.583 0.627102 -3.37524 0
M  V30 5633 N 538.028 1.39524 0.732853 0
M  V30 5634 C 538.991 1.38189 1.82857 0
M  V30 5635 C 539.991 0.278624 1.58368 0
M  V30 5636 O 541.181 0.536639 1.65728 0
M  V30 5637 C 538.313 1.15661 3.2068 0
M  V30 5638 H 539.506 2.35692 1.85444 0
M  V30 5639 H 537.059 1.2512 0.936728 0
M  V30 5640 H 537.794 0.188482 3.23752 0
M  V30 5641 H 537.579 1.95559 3.39852 0
M  V30 5642 H 539.069 1.17472 4.00737 0
M  V30 5643 N 539.506 -0.963266 1.24736 0
M  V30 5644 C 540.922 -1.23273 1.01371 0
M  V30 5645 C 541.122 -1.99618 -0.274776 0
M  V30 5646 O 540.178 -2.32293 -0.989769 0
M  V30 5647 C 541.491 -2.01554 2.23152 0
M  V30 5648 C 543.039 -2.14629 2.27823 0
M  V30 5649 C 543.514 -2.96307 3.49237 0
M  V30 5650 N 545.005 -3.03887 3.49581 0
M  V30 5651 C 545.74 -3.67456 4.40186 0
M  V30 5652 N 545.236 -4.32706 5.41052 0
M  V30 5653 N 547.029 -3.64511 4.27888 0
M  V30 5654 H 539.18 -0.452294 2.07528 0
M  V30 5655 H 541.443 -0.262521 0.910926 0
M  V30 5656 H 541.149 -1.52847 3.1675 0
M  V30 5657 H 541.023 -3.02278 2.25628 0
M  V30 5658 H 543.41 -2.62537 1.34753 0
M  V30 5659 H 543.491 -1.13238 2.2937 0
M  V30 5660 H 543.135 -2.49091 4.42624 0
M  V30 5661 H 543.065 -3.97905 3.44933 0
M  V30 5662 H 545.556 -2.57477 2.76611 0
M  V30 5663 H 545.869 -4.79042 6.06415 0
M  V30 5664 H 544.214 -4.31361 5.44934 0
M  V30 5665 H 547.405 -3.12715 3.4832 0
M  V30 5666 H 547.578 -4.13768 4.98698 0
M  V30 5667 N 540.985 -1.06182 -1.16461 0
M  V30 5668 C 542.233 -0.776326 -1.86595 0
M  V30 5669 C 542.554 0.69921 -1.82033 0
M  V30 5670 O 541.824 1.50579 -1.2531 0
M  V30 5671 H 540.404 -0.284184 -0.690832 0
M  V30 5672 H 543.066 -1.34308 -1.41235 0
M  V30 5673 H 542.162 -1.10022 -2.92064 0
M  V30 5674 N 542.463 1.3308 -0.844243 0
M  V30 5675 C 543.393 2.3161 -0.296493 0
M  V30 5676 C 544.374 1.59215 0.598707 0
M  V30 5677 O 545.559 1.87077 0.521134 0
M  V30 5678 C 542.689 3.43313 0.524762 0
M  V30 5679 C 541.643 4.27115 -0.275106 0
M  V30 5680 C 540.969 5.30483 0.670236 0
M  V30 5681 C 542.269 5.00443 -1.49514 0
M  V30 5682 H 543.963 2.77672 -1.11976 0
M  V30 5683 H 541.509 1.33496 -0.539899 0
M  V30 5684 H 543.462 4.11273 0.918298 0
M  V30 5685 H 542.186 2.95952 1.3813 0
M  V30 5686 H 540.845 3.60787 -0.650267 0
M  V30 5687 H 540.493 4.79379 1.52332 0
M  V30 5688 H 540.193 5.87435 0.139123 0
M  V30 5689 H 541.717 6.01308 1.06117 0
M  V30 5690 H 543.131 5.61141 -1.17447 0
M  V30 5691 H 541.528 5.67071 -1.96343 0
M  V30 5692 H 542.598 4.28906 -2.26202 0
M  V30 5693 N 543.941 0.601185 1.45683 0
M  V30 5694 C 545.171 0.0999093 2.06358 0
M  V30 5695 C 545.579 -1.21831 1.44754 0
M  V30 5696 O 544.922 -1.75157 0.553695 0
M  V30 5697 C 544.984 -0.12085 3.59297 0
M  V30 5698 C 544.648 1.11459 4.432 0
M  V30 5699 C 545.645 2.03118 4.7858 0
M  V30 5700 C 543.33 1.34162 4.84051 0
M  V30 5701 C 545.324 3.15814 5.53661 0
M  V30 5702 C 543.011 2.4716 5.58888 0
M  V30 5703 C 544.009 3.37814 5.93608 0
M  V30 5704 O 543.697 4.48846 6.66928 0
M  V30 5705 H 543.429 0.0630316 0.673055 0
M  V30 5706 H 545.983 0.826982 1.88016 0
M  V30 5707 H 544.213 -0.902744 3.76015 0
M  V30 5708 H 545.902 -0.572925 4.01836 0
M  V30 5709 H 546.668 1.86801 4.47583 0
M  V30 5710 H 542.547 0.645018 4.56465 0
M  V30 5711 H 546.091 3.86596 5.8068 0
M  V30 5712 H 541.988 2.63432 5.89299 0
M  V30 5713 H 542.756 4.47446 6.85371 0
M  V30 5714 N 545.419 -1.53889 0.339982 0
M  V30 5715 C 546.644 -2.05741 -0.261798 0
M  V30 5716 C 547.069 -1.21354 -1.43718 0
M  V30 5717 O 546.427 -0.22645 -1.7988 0
M  V30 5718 C 546.475 -3.54542 -0.658228 0
M  V30 5719 O 545.579 -3.7302 -1.75869 0
M  V30 5720 H 544.92 -0.662529 -0.0441672 0
M  V30 5721 H 547.45 -1.98568 0.493161 0
M  V30 5722 H 547.46 -3.9711 -0.936368 0
M  V30 5723 H 546.135 -4.15412 0.201358 0
M  V30 5724 H 544.712 -3.42355 -1.47809 0
M  V30 5725 N 546.897 -0.0685191 -1.57451 0
M  V30 5726 C 548.313 0.288101 -1.56978 0
M  V30 5727 C 548.513 1.70262 -1.07765 0
M  V30 5728 O 547.569 2.4135 -0.742054 0
M  V30 5729 C 548.882 0.100745 -3.00531 0
M  V30 5730 C 550.43 0.170531 -3.12535 0
M  V30 5731 C 550.905 0.0114944 -4.57999 0
M  V30 5732 N 552.396 0.0672065 -4.63151 0
M  V30 5733 C 553.131 -0.0314813 -5.73391 0
M  V30 5734 N 552.627 -0.183503 -6.92557 0
M  V30 5735 N 554.42 0.0253489 -5.62094 0
M  V30 5736 H 546.571 -0.993026 -1.87757 0
M  V30 5737 H 548.834 -0.386981 -0.865419 0
M  V30 5738 H 548.54 -0.875197 -3.40636 0
M  V30 5739 H 548.414 0.854457 -3.67395 0
M  V30 5740 H 550.801 1.13696 -2.72318 0
M  V30 5741 H 550.882 -0.614229 -2.48316 0
M  V30 5742 H 550.526 -0.951684 -4.98904 0
M  V30 5743 H 550.456 0.815617 -5.20245 0
M  V30 5744 H 552.947 0.183246 -3.77455 0
M  V30 5745 H 553.26 -0.251041 -7.72392 0
M  V30 5746 H 551.605 -0.218822 -6.94655 0
M  V30 5747 H 554.796 0.142794 -4.67882 0
M  V30 5748 H 554.969 -0.0550166 -6.47977 0
M  V30 5749 N 548.375 1.56261 0.205012 0
M  V30 5750 C 549.6 1.84491 0.947512 0
M  V30 5751 C 550.025 0.650894 1.76479 0
M  V30 5752 O 549.383 -0.40035 1.76824 0
M  V30 5753 C 549.431 3.10863 1.82747 0
M  V30 5754 O 548.535 2.90719 2.925 0
M  V30 5755 H 547.876 0.607783 0.267386 0
M  V30 5756 H 550.406 2.03485 0.213323 0
M  V30 5757 H 550.416 3.41399 2.23407 0
M  V30 5758 H 549.091 3.97392 1.2269 0
M  V30 5759 H 547.668 2.71457 2.55667 0
M  V30 5760 N 549.853 -0.472356 1.50355 0
M  V30 5761 C 551.101 -1.22211 1.60962 0
M  V30 5762 C 551.422 -1.92497 0.311439 0
M  V30 5763 O 550.692 -1.8405 -0.671002 0
M  V30 5764 H 549.272 -0.454092 0.593135 0
M  V30 5765 H 551.934 -0.544977 1.87126 0
M  V30 5766 H 551.03 -1.9707 2.42012 0
M  V30 5767 N 551.331 -1.39911 -0.725443 0
M  V30 5768 C 552.556 -1.41137 -1.5197 0
M  V30 5769 C 552.981 -0.010262 -1.88097 0
M  V30 5770 O 552.339 0.979184 -1.52583 0
M  V30 5771 C 552.387 -2.2994 -2.77777 0
M  V30 5772 O 551.491 -1.73586 -3.74088 0
M  V30 5773 H 550.832 -0.480219 -0.458569 0
M  V30 5774 H 553.362 -1.84023 -0.894249 0
M  V30 5775 H 553.372 -2.44785 -3.26411 0
M  V30 5776 H 552.047 -3.31759 -2.50816 0
M  V30 5777 H 550.624 -1.68035 -3.32894 0
M  V30 5778 N 552.809 0.956637 -1.25245 0
M  V30 5779 C 553.739 2.07058 -1.07931 0
M  V30 5780 C 554.72 1.70096 0.0110361 0
M  V30 5781 O 555.905 1.93555 -0.158121 0
M  V30 5782 C 553.035 3.40272 -0.695124 0
M  V30 5783 C 551.989 3.91235 -1.73549 0
M  V30 5784 C 551.315 5.20921 -1.20604 0
M  V30 5785 C 552.615 4.17837 -3.13385 0
M  V30 5786 H 554.309 2.218 -2.01109 0
M  V30 5787 H 551.855 1.06581 -0.968326 0
M  V30 5788 H 553.808 4.1765 -0.560949 0
M  V30 5789 H 552.532 3.25462 0.272355 0
M  V30 5790 H 551.191 3.16025 -1.85807 0
M  V30 5791 H 550.839 5.02479 -0.228846 0
M  V30 5792 H 550.539 5.55987 -1.90136 0
M  V30 5793 H 552.063 6.00897 -1.08421 0
M  V30 5794 H 553.477 4.8588 -3.04292 0
M  V30 5795 H 551.874 4.64154 -3.80369 0
M  V30 5796 H 552.944 3.2419 -3.60595 0
M  V30 5797 N 554.287 1.06798 1.15896 0
M  V30 5798 C 555.512 0.808739 1.90982 0
M  V30 5799 C 555.937 -0.6316 1.77179 0
M  V30 5800 O 555.295 -1.4407 1.10061 0
M  V30 5801 C 555.343 1.21468 3.39526 0
M  V30 5802 O 554.447 0.356562 4.10856 0
M  V30 5803 H 553.788 0.29512 0.594811 0
M  V30 5804 H 556.318 1.42513 1.46804 0
M  V30 5805 H 556.328 1.18844 3.90308 0
M  V30 5806 H 555.003 2.26379 3.48891 0
M  V30 5807 H 553.58 0.444808 3.70238 0
M  V30 5808 N 555.766 -1.3263 0.851289 0
M  V30 5809 C 557.014 -1.96978 0.452128 0
M  V30 5810 C 557.335 -1.67715 -0.99482 0
M  V30 5811 O 556.605 -0.98259 -1.69476 0
M  V30 5812 H 555.185 -0.72873 0.164202 0
M  V30 5813 H 557.847 -1.61774 1.08698 0
M  V30 5814 H 556.943 -3.06387 0.594407 0
M  V30 5815 N 557.244 -0.608902 -1.45362 0
M  V30 5816 C 558.66 -0.272659 -1.57254 0
M  V30 5817 C 558.86 1.22477 -1.60005 0
M  V30 5818 O 557.916 2.00785 -1.53106 0
M  V30 5819 C 559.229 -0.944991 -2.85465 0
M  V30 5820 C 560.777 -0.921033 -2.99142 0
M  V30 5821 C 561.252 -1.5734 -4.30126 0
M  V30 5822 N 562.743 -1.53895 -4.36887 0
M  V30 5823 C 563.478 -2.01286 -5.36909 0
M  V30 5824 N 562.974 -2.56768 -6.43461 0
M  V30 5825 N 564.767 -1.92046 -5.28275 0
M  V30 5826 H 556.918 -1.58117 -1.4182 0
M  V30 5827 H 559.181 -0.662437 -0.678146 0
M  V30 5828 H 558.887 -1.99941 -2.89338 0
M  V30 5829 H 558.761 -0.469079 -3.74272 0
M  V30 5830 H 561.148 0.124846 -2.94836 0
M  V30 5831 H 561.229 -1.43522 -2.11743 0
M  V30 5832 H 560.873 -2.61862 -4.35191 0
M  V30 5833 H 560.803 -1.03422 -5.16344 0
M  V30 5834 H 563.294 -1.13366 -3.60495 0
M  V30 5835 H 563.607 -2.9072 -7.16032 0
M  V30 5836 H 561.952 -2.60808 -6.44208 0
M  V30 5837 H 565.143 -1.48439 -4.43941 0
M  V30 5838 H 565.316 -2.29293 -6.06077 0
M  V30 5839 N 558.722 1.53707 -0.348139 0
M  V30 5840 C 559.947 2.05877 0.250883 0
M  V30 5841 C 560.372 1.22115 1.43072 0
M  V30 5842 O 559.73 0.235986 1.79758 0
M  V30 5843 C 559.778 3.54886 0.639416 0
M  V30 5844 O 558.882 3.73948 1.73888 0
M  V30 5845 H 558.223 0.662754 0.040653 0
M  V30 5846 H 560.753 1.98303 -0.503685 0
M  V30 5847 H 560.763 3.97601 0.915295 0
M  V30 5848 H 559.438 4.153 -0.223386 0
M  V30 5849 H 558.015 3.43134 1.45991 0
M  V30 5850 N 560.2 0.0768682 1.57412 0
M  V30 5851 C 561.425 -0.603404 1.98428 0
M  V30 5852 C 561.85 -1.62047 0.955108 0
M  V30 5853 O 561.208 -1.81129 -0.0786778 0
M  V30 5854 C 561.256 -1.24396 3.38464 0
M  V30 5855 O 560.36 -2.35982 3.3821 0
M  V30 5856 H 559.701 -0.154741 0.645718 0
M  V30 5857 H 562.231 0.152885 2.04028 0
M  V30 5858 H 562.241 -1.5896 3.7576 0
M  V30 5859 H 560.916 -0.498735 4.12899 0
M  V30 5860 H 559.493 -2.03173 3.1269 0
M  V30 5861 N 561.678 -1.56367 -0.196722 0
M  V30 5862 C 562.608 -1.97442 -1.24655 0
M  V30 5863 C 563.589 -0.846147 -1.47561 0
M  V30 5864 O 564.774 -1.11035 -1.59326 0
M  V30 5865 C 561.904 -2.31253 -2.59112 0
M  V30 5866 C 560.858 -3.46804 -2.50821 0
M  V30 5867 C 560.184 -3.66286 -3.89536 0
M  V30 5868 C 561.484 -4.8104 -2.03465 0
M  V30 5869 H 563.178 -2.85388 -0.905216 0
M  V30 5870 H 560.724 -1.37304 -0.434002 0
M  V30 5871 H 562.677 -2.58583 -3.32736 0
M  V30 5872 H 561.401 -1.40188 -2.94983 0
M  V30 5873 H 560.06 -3.19563 -1.79653 0
M  V30 5874 H 559.708 -2.72555 -4.22756 0
M  V30 5875 H 559.408 -4.4402 -3.84864 0
M  V30 5876 H 560.932 -3.9599 -4.64784 0
M  V30 5877 H 562.346 -5.07411 -2.66846 0
M  V30 5878 H 560.743 -5.62232 -2.09798 0
M  V30 5879 H 561.813 -4.74732 -0.98781 0
M  V30 5880 N 563.156 0.464375 -1.50603 0
M  V30 5881 C 564.103 1.56152 -1.69956 0
M  V30 5882 C 565.073 1.57046 -0.54091 0
M  V30 5883 O 566.258 1.74473 -0.772258 0
M  V30 5884 C 563.398 2.94079 -1.80586 0
M  V30 5885 C 562.511 3.02923 -3.07996 0
M  V30 5886 C 561.646 4.31806 -3.09382 0
M  V30 5887 C 560.685 4.34417 -4.31218 0
M  V30 5888 N 559.822 5.54782 -4.30304 0
M  V30 5889 H 564.662 1.38955 -2.6362 0
M  V30 5890 H 562.199 0.675482 -1.30674 0
M  V30 5891 H 564.157 3.74073 -1.8473 0
M  V30 5892 H 562.787 3.09896 -0.903556 0
M  V30 5893 H 561.839 2.1576 -3.13292 0
M  V30 5894 H 563.151 3.00712 -3.97962 0
M  V30 5895 H 562.305 5.20153 -3.12292 0
M  V30 5896 H 561.044 4.36636 -2.17257 0
M  V30 5897 H 560.049 3.44467 -4.28512 0
M  V30 5898 H 561.274 4.31273 -5.24576 0
M  V30 5899 H 559.22 5.60384 -3.41037 0
M  V30 5900 H 559.137 5.54339 -5.14047 0
M  V30 5901 H 560.405 6.45235 -4.3737 0
M  V30 5902 N 564.634 1.40294 0.718013 0
M  V30 5903 C 565.597 1.4012 1.81381 0
M  V30 5904 C 566.597 0.295405 1.58063 0
M  V30 5905 O 567.787 0.554187 1.6515 0
M  V30 5906 C 564.919 1.19056 3.19435 0
M  V30 5907 H 566.112 2.37645 1.82933 0
M  V30 5908 H 563.665 1.26107 0.923405 0
M  V30 5909 H 564.4 0.222809 3.23534 0
M  V30 5910 H 564.185 1.99152 3.37758 0
M  V30 5911 H 565.675 1.21716 3.99468 0
M  V30 5912 N 566.112 -0.949982 1.2575 0
M  V30 5913 C 567.022 -2.08109 1.08295 0
M  V30 5914 C 568.038 -1.7399 0.0188181 0
M  V30 5915 O 569.214 -2.00187 0.220724 0
M  V30 5916 C 566.279 -3.39383 0.708534 0
M  V30 5917 C 565.34 -3.8734 1.85111 0
M  V30 5918 C 564.573 -5.12349 1.49447 0
M  V30 5919 O 564.796 -5.6905 0.392212 0
M  V30 5920 O 563.73 -5.5513 2.32624 0
M  V30 5921 H 567.556 -2.25738 2.03165 0
M  V30 5922 H 565.141 -1.06545 1.04731 0
M  V30 5923 H 567.023 -4.18277 0.512061 0
M  V30 5924 H 565.698 -3.23013 -0.210854 0
M  V30 5925 H 564.605 -3.09429 2.10248 0
M  V30 5926 H 565.938 -4.08216 2.74991 0
M  V30 5927 N 567.59 -1.07411 -1.15328 0
M  V30 5928 C 568.553 -0.698914 -2.18284 0
M  V30 5929 C 569.553 0.261149 -1.58665 0
M  V30 5930 O 570.743 0.0420277 -1.74149 0
M  V30 5931 C 567.875 -0.0302427 -3.40887 0
M  V30 5932 H 569.068 -1.61045 -2.52991 0
M  V30 5933 H 566.621 -0.870724 -1.298 0
M  V30 5934 H 567.356 0.893505 -3.11748 0
M  V30 5935 H 567.141 -0.720759 -3.85419 0
M  V30 5936 H 568.631 0.21759 -4.17033 0
M  V30 5937 N 569.068 1.32177 -0.85831 0
M  V30 5938 C 569.978 2.32561 -0.308606 0
M  V30 5939 C 570.994 1.64209 0.575462 0
M  V30 5940 O 572.17 1.95719 0.474961 0
M  V30 5941 C 569.235 3.43207 0.490909 0
M  V30 5942 C 568.296 4.27243 -0.419733 0
M  V30 5943 C 567.529 5.32605 0.341719 0
M  V30 5944 O 567.752 5.48332 1.57125 0
M  V30 5945 O 566.686 6.0118 -0.294379 0
M  V30 5946 H 570.512 2.81477 -1.14037 0
M  V30 5947 H 568.097 1.35866 -0.621349 0
M  V30 5948 H 569.979 4.10677 0.944574 0
M  V30 5949 H 568.654 2.96474 1.29941 0
M  V30 5950 H 567.561 3.62569 -0.921652 0
M  V30 5951 H 568.894 4.7751 -1.19352 0
M  V30 5952 N 570.547 0.616602 1.45037 0
M  V30 5953 C 571.495 -0.109318 2.32343 0
M  V30 5954 C 572.489 -0.850543 1.465 0
M  V30 5955 O 573.695 -0.765088 1.62931 0
M  V30 5956 H 570.07 -0.0541091 0.750051 0
M  V30 5957 H 572.041 0.645326 2.91338 0
M  V30 5958 C 570.79 -1.0872 3.30266 0
M  V30 5959 H 570.113 -0.526267 3.96321 0
M  V30 5960 H 571.553 -1.56489 3.94065 0
M  V30 5961 C 570.012 -2.16525 2.58105 0
M  V30 5962 O 570.542 -3.244 2.36913 0
M  V30 5963 N 568.748 -1.92057 2.18088 0
M  V30 5964 H 568.295 -1.04337 2.35524 0
M  V30 5965 H 568.253 -2.64391 1.70131 0
M  V30 5966 N 572.025 -1.5352 0.356285 0
M  V30 5967 C 573.253 -2.05534 -0.237328 0
M  V30 5968 C 573.668 -1.23043 -1.43199 0
M  V30 5969 O 573.025 -0.268821 -1.80509 0
M  V30 5970 C 573.076 -3.55791 -0.639933 0
M  V30 5971 O 572.797 -4.35154 0.507233 0
M  V30 5972 C 574.298 -4.24027 -1.29292 0
M  V30 5973 H 571.518 -0.669585 -0.0435572 0
M  V30 5974 H 574.062 -1.97988 0.511963 0
M  V30 5975 H 572.217 -3.63518 -1.33915 0
M  V30 5976 H 572.631 -5.24178 0.18375 0
M  V30 5977 H 574.105 -5.30509 -1.52527 0
M  V30 5978 H 574.582 -3.77166 -2.25039 0
M  V30 5979 H 575.188 -4.20527 -0.63539 0
M  V30 5980 N 573.503 -0.0852151 -1.57369 0
M  V30 5981 C 574.728 0.592872 -1.98746 0
M  V30 5982 C 575.153 1.61538 -0.963689 0
M  V30 5983 O 574.511 1.81168 0.069071 0
M  V30 5984 C 574.559 1.22599 -3.39119 0
M  V30 5985 O 573.663 2.34185 -3.39457 0
M  V30 5986 H 573.004 0.151314 -0.646529 0
M  V30 5987 H 575.534 -0.163703 -2.03944 0
M  V30 5988 H 575.544 1.56965 -3.76598 0
M  V30 5989 H 574.219 0.476831 -4.13158 0
M  V30 5990 H 572.796 2.01512 -3.13763 0
M  V30 5991 N 574.981 1.5647 0.188427 0
M  V30 5992 C 575.891 1.98285 1.2538 0
M  V30 5993 C 576.907 0.891535 1.49424 0
M  V30 5994 O 578.083 1.19782 1.61908 0
M  V30 5995 C 575.148 2.31965 2.57669 0
M  V30 5996 C 574.209 3.54838 2.41638 0
M  V30 5997 C 573.442 3.86901 3.67618 0
M  V30 5998 O 573.665 3.20163 4.72072 0
M  V30 5999 O 572.599 4.80309 3.62749 0
M  V30 6000 H 576.425 2.89145 0.928912 0
M  V30 6001 H 574.01 1.44112 0.393955 0
M  V30 6002 H 575.892 2.54673 3.35737 0
M  V30 6003 H 574.567 1.44271 2.89771 0
M  V30 6004 H 573.474 3.37369 1.61658 0
M  V30 6005 H 574.807 4.43019 2.14465 0
M  V30 6006 N 576.459 -0.456382 1.50847 0
M  V30 6007 C 577.705 -1.20914 1.62811 0
M  V30 6008 C 578.038 -1.91301 0.334304 0
M  V30 6009 O 577.313 -1.82775 -0.665098 0
M  V30 6010 C 577.596 -2.24122 2.81853 0
M  V30 6011 C 577.449 -1.57944 4.21158 0
M  V30 6012 C 578.768 -3.25295 2.96431 0
M  V30 6013 H 575.887 -0.438233 0.592554 0
M  V30 6014 H 578.529 -0.50091 1.83278 0
M  V30 6015 H 576.679 -2.84524 2.64534 0
M  V30 6016 H 578.351 -1.01025 4.50102 0
M  V30 6017 H 576.594 -0.882185 4.24735 0
M  V30 6018 H 577.265 -2.33014 5.00408 0
M  V30 6019 H 579.741 -2.7493 3.12335 0
M  V30 6020 H 578.617 -3.94822 3.81322 0
M  V30 6021 H 578.878 -3.90286 2.07676 0
M  V30 6022 N 577.937 -1.40673 -0.710563 0
M  V30 6023 C 579.162 -1.42741 -1.50465 0
M  V30 6024 C 579.587 -0.0302116 -1.88076 0
M  V30 6025 O 578.945 0.962945 -1.53613 0
M  V30 6026 C 578.993 -2.32873 -2.75322 0
M  V30 6027 O 578.097 -1.77544 -3.72226 0
M  V30 6028 H 577.438 -0.485056 -0.45345 0
M  V30 6029 H 579.968 -1.84961 -0.874681 0
M  V30 6030 H 579.978 -2.48233 -3.23797 0
M  V30 6031 H 578.653 -3.34401 -2.47283 0
M  V30 6032 H 577.23 -1.71556 -3.31093 0
M  V30 6033 N 579.415 0.9433 -1.26252 0
M  V30 6034 C 580.643 1.72367 -1.14443 0
M  V30 6035 C 581.058 1.86392 0.300572 0
M  V30 6036 O 580.415 1.36978 1.20596 0
M  V30 6037 C 580.466 3.13155 -1.806 0
M  V30 6038 O 580.187 2.99803 -3.19452 0
M  V30 6039 C 581.688 4.07417 -1.74717 0
M  V30 6040 H 578.908 0.539758 -0.398626 0
M  V30 6041 H 581.452 1.18268 -1.66832 0
M  V30 6042 H 579.607 3.64162 -1.32154 0
M  V30 6043 H 580.021 3.88697 -3.52158 0
M  V30 6044 H 581.495 5.03773 -2.25647 0
M  V30 6045 H 581.972 4.3337 -0.713244 0
M  V30 6046 H 582.578 3.6233 -2.22704 0
M  V30 6047 N 580.893 1.08022 1.14757 0
M  V30 6048 C 582.139 0.808705 1.85978 0
M  V30 6049 C 582.472 -0.663764 1.82504 0
M  V30 6050 O 581.747 -1.48765 1.25296 0
M  V30 6051 C 582.03 1.32623 3.34788 0
M  V30 6052 C 581.883 2.86375 3.46856 0
M  V30 6053 C 583.202 0.948291 4.29762 0
M  V30 6054 H 580.321 0.295244 0.675278 0
M  V30 6055 H 582.963 1.33917 1.34783 0
M  V30 6056 H 581.113 0.875002 3.78518 0
M  V30 6057 H 582.785 3.39839 3.11941 0
M  V30 6058 H 581.028 3.24232 2.88194 0
M  V30 6059 H 581.699 3.17658 4.51439 0
M  V30 6060 H 584.175 1.33722 3.94028 0
M  V30 6061 H 583.051 1.33765 5.32352 0
M  V30 6062 H 583.312 -0.145094 4.41862 0
M  V30 6063 N 582.371 -1.3172 0.865308 0
M  V30 6064 C 583.301 -2.31109 0.333302 0
M  V30 6065 C 584.282 -1.60148 -0.573301 0
M  V30 6066 O 585.467 -1.87882 -0.491305 0
M  V30 6067 C 582.597 -3.44104 -0.470078 0
M  V30 6068 C 581.551 -4.26623 0.343021 0
M  V30 6069 C 580.877 -5.31482 -0.585756 0
M  V30 6070 C 582.177 -4.98001 1.57456 0
M  V30 6071 H 583.871 -2.75855 1.1638 0
M  V30 6072 H 581.417 -1.3262 0.561069 0
M  V30 6073 H 583.37 -4.12682 -0.852752 0
M  V30 6074 H 582.094 -2.98112 -1.33404 0
M  V30 6075 H 580.753 -3.59707 0.707583 0
M  V30 6076 H 580.401 -4.81741 -1.44686 0
M  V30 6077 H 580.101 -5.87582 -0.0456494 0
M  V30 6078 H 581.625 -6.0292 -0.965375 0
M  V30 6079 H 583.039 -5.59201 1.26359 0
M  V30 6080 H 581.436 -5.63876 2.05339 0
M  V30 6081 H 582.506 -4.25253 2.32997 0
M  V30 6082 N 583.85 -0.624285 -1.44708 0
M  V30 6083 C 584.797 0.0847135 -2.30644 0
M  V30 6084 C 585.767 0.843575 -1.43084 0
M  V30 6085 O 586.952 0.825982 -1.71995 0
M  V30 6086 C 584.091 1.06495 -3.28257 0
M  V30 6087 C 583.205 0.305224 -4.3092 0
M  V30 6088 C 582.34 1.27667 -5.1563 0
M  V30 6089 C 581.379 0.505706 -6.10007 0
M  V30 6090 N 580.516 1.42727 -6.8744 0
M  V30 6091 H 585.356 -0.654068 -2.90733 0
M  V30 6092 H 582.893 -0.334334 -1.4325 0
M  V30 6093 H 584.851 1.64658 -3.83332 0
M  V30 6094 H 583.481 1.77094 -2.69884 0
M  V30 6095 H 582.533 -0.392207 -3.78373 0
M  V30 6096 H 583.845 -0.295553 -4.97924 0
M  V30 6097 H 582.999 1.92984 -5.75189 0
M  V30 6098 H 581.738 1.91137 -4.48685 0
M  V30 6099 H 580.743 -0.160999 -5.49564 0
M  V30 6100 H 581.968 -0.124183 -6.78986 0
M  V30 6101 H 579.913 2.04931 -6.23169 0
M  V30 6102 H 579.831 0.880345 -7.50857 0
M  V30 6103 H 581.099 2.0695 -7.51526 0
M  V30 6104 N 585.328 1.53329 -0.364422 0
M  V30 6105 C 586.258 2.28627 0.474543 0
M  V30 6106 C 587.239 1.31009 1.08492 0
M  V30 6107 O 588.424 1.59878 1.10239 0
M  V30 6108 C 585.554 3.07465 1.61501 0
M  V30 6109 C 584.508 4.1276 1.13194 0
M  V30 6110 C 583.834 4.79674 2.36255 0
M  V30 6111 C 585.134 5.21847 0.217507 0
M  V30 6112 H 586.828 2.99005 -0.153656 0
M  V30 6113 H 584.374 1.43803 -0.0753406 0
M  V30 6114 H 586.327 3.58889 2.20855 0
M  V30 6115 H 585.051 2.34775 2.27042 0
M  V30 6116 H 583.71 3.62281 0.56109 0
M  V30 6117 H 583.358 4.03557 3.00251 0
M  V30 6118 H 583.058 5.50827 2.04606 0
M  V30 6119 H 584.582 5.33892 2.96297 0
M  V30 6120 H 585.996 5.6878 0.718493 0
M  V30 6121 H 584.393 6.00099 -0.00806408 0
M  V30 6122 H 585.463 4.7921 -0.740653 0
M  V30 6123 N 586.806 0.0935595 1.57322 0
M  V30 6124 C 588.083 -0.612692 1.85756 0
M  V30 6125 C 588.463 -1.86439 0.99013 0
M  V30 6126 O 587.811 -2.28416 0.0621362 0
M  V30 6127 C 588.021 -0.929547 3.36393 0
M  V30 6128 C 589.369 -1.29366 4.04413 0
M  V30 6129 O 590.393 -1.02061 3.41265 0
M  V30 6130 O 589.252 -1.80498 5.15832 0
M  V30 6131 H 586.346 -0.306444 0.768128 0
M  V30 6132 H 588.892 0.126141 1.69231 0
M  V30 6133 H 587.664 -0.0414766 3.91278 0
M  V30 6134 H 587.287 -1.72441 3.5826 0
M  V30 6135 N 588.284 -1.56567 -0.180126 0
M  V30 6136 C 589.232 -1.96632 -1.24251 0
M  V30 6137 C 590.226 -0.853818 -1.46309 0
M  V30 6138 O 591.432 -1.0389 -1.46993 0
M  V30 6139 H 587.807 -0.625476 -0.417473 0
M  V30 6140 H 589.778 -2.85201 -0.877679 0
M  V30 6141 C 588.527 -2.33486 -2.57642 0
M  V30 6142 H 587.85 -3.18626 -2.4149 0
M  V30 6143 H 589.29 -2.65371 -3.30688 0
M  V30 6144 C 587.749 -1.17499 -3.15746 0
M  V30 6145 O 588.279 -0.457956 -3.99081 0
M  V30 6146 N 586.485 -0.94786 -2.74707 0
M  V30 6147 H 586.032 -1.53269 -2.07042 0
M  V30 6148 H 585.99 -0.173626 -3.1392 0
M  V30 6149 N 589.762 0.448376 -1.51087 0
M  V30 6150 C 590.99 1.22143 -1.66999 0
M  V30 6151 C 591.405 1.85283 -0.362699 0
M  V30 6152 O 590.762 1.70236 0.65772 0
M  V30 6153 C 590.813 2.31357 -2.7777 0
M  V30 6154 O 590.534 1.70801 -4.03434 0
M  V30 6155 C 592.035 3.21836 -3.04855 0
M  V30 6156 H 589.255 0.368558 -0.560719 0
M  V30 6157 H 591.799 0.532618 -1.97442 0
M  V30 6158 H 589.954 2.95973 -2.49958 0
M  V30 6159 H 590.368 2.42895 -4.64868 0
M  V30 6160 H 591.842 3.94627 -3.85971 0
M  V30 6161 H 592.319 3.81949 -2.16821 0
M  V30 6162 H 592.925 2.62933 -3.34285 0
M  V30 6163 N 591.24 1.41047 0.703093 0
M  V30 6164 C 592.486 1.40207 1.46526 0
M  V30 6165 C 592.819 0.00847763 1.94198 0
M  V30 6166 O 592.094 -0.962437 1.69019 0
M  V30 6167 C 592.377 2.40238 2.6825 0
M  V30 6168 C 592.23 3.88674 2.26391 0
M  V30 6169 C 593.549 2.37627 3.70434 0
M  V30 6170 H 590.668 0.510594 0.531472 0
M  V30 6171 H 593.31 1.72271 0.801422 0
M  V30 6172 H 591.46 2.13026 3.24888 0
M  V30 6173 H 593.132 4.2676 1.75138 0
M  V30 6174 H 591.375 4.03903 1.58255 0
M  V30 6175 H 592.046 4.542 3.13698 0
M  V30 6176 H 594.522 2.61759 3.23452 0
M  V30 6177 H 593.398 3.09645 4.53223 0
M  V30 6178 H 593.659 1.39223 4.19606 0
M  V30 6179 N 592.718 -0.936591 1.26751 0
M  V30 6180 C 593.964 -1.6858 1.12733 0
M  V30 6181 C 594.297 -1.91414 -0.327745 0
M  V30 6182 O 593.572 -1.49812 -1.24043 0
M  V30 6183 C 593.855 -3.05779 1.90187 0
M  V30 6184 C 593.708 -2.90242 3.43627 0
M  V30 6185 C 595.027 -4.0597 1.69931 0
M  V30 6186 H 592.146 -0.61182 0.410908 0
M  V30 6187 H 594.788 -1.08747 1.55801 0
M  V30 6188 H 592.938 -3.56853 1.53584 0
M  V30 6189 H 594.61 -2.46354 3.9001 0
M  V30 6190 H 592.853 -2.2577 3.70419 0
M  V30 6191 H 593.524 -3.87572 3.93055 0
M  V30 6192 H 596 -3.63874 2.0183 0
M  V30 6193 H 594.876 -4.99974 2.26534 0
M  V30 6194 H 595.137 -4.37369 0.64502 0
M  V30 6195 N 594.196 -1.08629 -1.14182 0
M  V30 6196 C 595.444 -0.815731 -1.84906 0
M  V30 6197 C 595.765 0.660441 -1.83475 0
M  V30 6198 O 595.035 1.47888 -1.28476 0
M  V30 6199 H 593.615 -0.298773 -0.684648 0
M  V30 6200 H 596.277 -1.37274 -1.38354 0
M  V30 6201 H 595.373 -1.16193 -2.89665 0
M  V30 6202 N 595.674 1.31259 -0.872281 0
M  V30 6203 C 596.606 2.27396 -0.28697 0
M  V30 6204 C 597.619 1.53181 0.551297 0
M  V30 6205 O 598.808 1.74561 0.372914 0
M  V30 6206 C 595.908 3.33335 0.611617 0
M  V30 6207 C 595.081 4.36966 -0.194729 0
M  V30 6208 C 594.14 5.22387 0.632358 0
M  V30 6209 O 593.166 5.69169 0.0595691 0
M  V30 6210 N 594.368 5.46985 1.94391 0
M  V30 6211 H 597.133 2.78261 -1.11314 0
M  V30 6212 H 594.694 1.44306 -0.733994 0
M  V30 6213 H 596.686 3.87398 1.17068 0
M  V30 6214 H 595.256 2.82496 1.33846 0
M  V30 6215 H 594.476 3.82945 -0.935241 0
M  V30 6216 H 595.764 5.03273 -0.747935 0
M  V30 6217 H 595.162 5.10737 2.43237 0
M  V30 6218 H 593.719 6.03973 2.45071 0
M  V30 6219 N 597.152 0.631951 1.44375 0
M  V30 6220 C 598.38 0.143867 2.06399 0
M  V30 6221 C 598.795 -1.18188 1.47231 0
M  V30 6222 O 598.152 -1.72511 0.595498 0
M  V30 6223 C 598.203 0.0238253 3.61492 0
M  V30 6224 O 597.924 1.29715 4.18456 0
M  V30 6225 C 599.425 -0.492856 4.40552 0
M  V30 6226 H 596.645 0.0800542 0.666207 0
M  V30 6227 H 599.189 0.866586 1.85231 0
M  V30 6228 H 597.344 -0.649338 3.81919 0
M  V30 6229 H 597.758 1.14252 5.11905 0
M  V30 6230 H 599.232 -0.525861 5.49489 0
M  V30 6231 H 599.709 -1.52006 4.12057 0
M  V30 6232 H 600.315 0.147085 4.25046 0
M  V30 6233 N 598.631 -1.53133 0.372548 0
M  V30 6234 C 599.856 -2.0625 -0.218098 0
M  V30 6235 C 600.281 -1.24375 -1.41111 0
M  V30 6236 O 599.639 -0.264554 -1.79359 0
M  V30 6237 C 599.687 -3.55858 -0.582876 0
M  V30 6238 O 598.791 -3.76667 -1.67917 0
M  V30 6239 H 598.132 -0.663317 -0.030104 0
M  V30 6240 H 600.662 -1.97477 0.535169 0
M  V30 6241 H 600.672 -3.99007 -0.851925 0
M  V30 6242 H 599.347 -4.14892 0.289428 0
M  V30 6243 H 597.924 -3.45413 -1.40513 0
M  V30 6244 N 600.109 -0.101901 -1.5727 0
M  V30 6245 C 601.355 0.554864 -1.95686 0
M  V30 6246 C 601.71 1.65368 -0.983415 0
M  V30 6247 O 601.003 1.91597 -0.0105374 0
M  V30 6248 C 601.197 1.14898 -3.38427 0
M  V30 6249 C 601.026 0.109251 -4.49567 0
M  V30 6250 C 599.796 -0.316633 -5.04307 0
M  V30 6251 C 601.994 -0.665196 -5.0998 0
M  V30 6252 N 599.976 -1.34393 -5.99009 0
M  V30 6253 C 601.347 -1.54413 -6.00464 0
M  V30 6254 C 603.402 -0.717966 -4.92696 0
M  V30 6255 C 602.105 -2.47122 -6.75517 0
M  V30 6256 C 604.131 -1.63268 -5.68417 0
M  V30 6257 C 603.493 -2.49923 -6.58572 0
M  V30 6258 H 599.592 0.17317 -0.762585 0
M  V30 6259 H 602.176 -0.18605 -1.93809 0
M  V30 6260 H 600.347 1.85969 -3.40984 0
M  V30 6261 H 602.079 1.76867 -3.64006 0
M  V30 6262 H 598.834 0.0724419 -4.73545 0
M  V30 6263 H 599.258 -1.85598 -6.51062 0
M  V30 6264 H 603.9 -0.0621637 -4.22754 0
M  V30 6265 H 601.618 -3.13724 -7.44717 0
M  V30 6266 H 605.204 -1.67874 -5.57054 0
M  V30 6267 H 604.084 -3.19553 -7.16139 0
M  V30 6268 N 601.587 1.56661 0.17182 0
M  V30 6269 C 602.534 1.96371 1.21273 0
M  V30 6270 C 603.504 0.82756 1.44016 0
M  V30 6271 O 604.689 1.08764 1.56764 0
M  V30 6272 C 601.829 2.32838 2.54716 0
M  V30 6273 C 600.942 3.59628 2.39356 0
M  V30 6274 C 600.077 3.85311 3.65662 0
M  V30 6275 C 599.116 5.0545 3.45234 0
M  V30 6276 N 598.253 5.27268 4.63608 0
M  V30 6277 H 603.093 2.85106 0.86709 0
M  V30 6278 H 600.63 1.41073 0.416744 0
M  V30 6279 H 602.588 2.52004 3.3249 0
M  V30 6280 H 601.218 1.47214 2.87277 0
M  V30 6281 H 600.27 3.4838 1.52761 0
M  V30 6282 H 601.582 4.4756 2.20207 0
M  V30 6283 H 600.736 4.04841 4.51872 0
M  V30 6284 H 599.475 2.95753 3.8779 0
M  V30 6285 H 598.48 4.85819 2.5741 0
M  V30 6286 H 599.705 5.96538 3.24529 0
M  V30 6287 H 597.651 4.40662 4.85956 0
M  V30 6288 H 597.568 6.09422 4.4737 0
M  V30 6289 H 598.836 5.51277 5.51103 0
M  V30 6290 N 603.065 -0.440357 1.51323 0
M  V30 6291 C 604.476 -1.02032 1.56353 0
M  V30 6292 C 604.827 -1.92382 0.385197 0
M  V30 6293 O 603.952 -2.10583 -0.498373 0
M  V30 6294 C 604.547 -1.85723 2.83359 0
M  V30 6295 C 603.106 -2.38774 2.90971 0
M  V30 6296 C 602.253 -1.17908 2.50984 0
M  V30 6297 H 605.204 -0.221744 1.57143 0
M  V30 6298 H 605.225 -2.71141 2.66951 0
M  V30 6299 H 604.737 -1.19939 3.69102 0
M  V30 6300 H 602.838 -3.08021 2.09651 0
M  V30 6301 H 602.951 -2.71778 3.94555 0
M  V30 6302 H 601.315 -1.52347 2.04114 0
M  V30 6303 H 602.098 -0.537393 3.39068 0
M  V30 6304 N 604.543 -1.41418 -0.695603 0
M  V30 6305 C 605.783 -1.42241 -1.46788 0
M  V30 6306 C 606.147 -0.0300827 -1.91976 0
M  V30 6307 O 607.348 0.0868914 -2.6866 0
M  V30 6308 C 605.619 -2.4011 -2.6473 0
M  V30 6309 S 607.178 -2.59462 -3.53871 0
M  V30 6310 H 603.996 -0.503893 -0.50161 0
M  V30 6311 H 606.598 -1.77855 -0.811654 0
M  V30 6312 H 605.302 -3.40073 -2.29736 0
M  V30 6313 H 604.833 -2.05849 -3.35246 0
M  V30 6314 H 606.848 -1.862 -4.59939 0
M  V30 6315 N 606.021 0.929856 -1.27246 0
M  V30 6316 C 607.269 1.674 -1.13233 0
M  V30 6317 C 607.59 1.92311 0.322744 0
M  V30 6318 O 606.86 1.52784 1.22612 0
M  V30 6319 H 605.44 0.620411 -0.416052 0
M  V30 6320 H 608.102 1.11663 -1.59741 0
M  V30 6321 H 607.198 2.64308 -1.65975 0
M  V30 6322 N 607.499 1.09233 1.13605 0
M  V30 6323 C 608.91 0.846839 1.6639 0
M  V30 6324 C 609.261 -0.625031 1.85978 0
M  V30 6325 O 608.386 -1.48173 1.57714 0
M  V30 6326 C 608.981 1.5307 3.0225 0
M  V30 6327 C 607.54 1.33223 3.52035 0
M  V30 6328 C 606.687 1.58806 2.27323 0
M  V30 6329 H 609.638 1.25175 0.975541 0
M  V30 6330 H 609.659 0.96267 3.68121 0
M  V30 6331 H 609.171 2.60192 2.87961 0
M  V30 6332 H 607.272 0.282091 3.71531 0
M  V30 6333 H 607.385 2.0657 4.32279 0
M  V30 6334 H 605.749 1.01007 2.33815 0
M  V30 6335 H 606.532 2.67153 2.15602 0
M  V30 6336 N 608.977 -1.30795 0.87923 0
M  V30 6337 C 609.925 -2.30231 0.331112 0
M  V30 6338 C 610.919 -1.59918 -0.558794 0
M  V30 6339 O 612.125 -1.74441 -0.443866 0
M  V30 6340 H 608.5 -0.746785 0.088409 0
M  V30 6341 H 610.471 -2.73925 1.18353 0
M  V30 6342 C 609.22 -3.44848 -0.444401 0
M  V30 6343 H 608.543 -3.99131 0.231106 0
M  V30 6344 H 609.983 -4.16516 -0.793109 0
M  V30 6345 C 608.442 -2.94329 -1.63926 0
M  V30 6346 O 608.972 -2.93875 -2.73862 0
M  V30 6347 N 607.178 -2.50413 -1.4745 0
M  V30 6348 H 606.725 -2.50982 -0.58015 0
M  V30 6349 H 606.683 -2.16969 -2.27534 0
M  V30 6350 N 610.455 -0.639598 -1.44038 0
M  V30 6351 C 611.418 0.0506628 -2.29144 0
M  V30 6352 C 612.418 0.764001 -1.41491 0
M  V30 6353 O 613.608 0.607309 -1.63271 0
M  V30 6354 C 610.74 1.0824 -3.2326 0
M  V30 6355 H 611.933 -0.697987 -2.91664 0
M  V30 6356 H 609.486 -0.400146 -1.51091 0
M  V30 6357 H 610.221 1.86075 -2.65606 0
M  V30 6358 H 610.006 0.574725 -3.87865 0
M  V30 6359 H 611.496 1.56487 -3.87171 0
M  V30 6360 N 611.933 1.52934 -0.380664 0
M  V30 6361 C 613.179 2.02443 0.197089 0
M  V30 6362 C 613.534 1.26249 1.45186 0
M  V30 6363 O 612.827 0.351964 1.8834 0
M  V30 6364 C 613.021 3.5349 0.527199 0
M  V30 6365 C 612.85 4.44312 -0.694027 0
M  V30 6366 C 611.62 4.90582 -1.21068 0
M  V30 6367 C 613.818 4.8995 -1.56377 0
M  V30 6368 N 611.8 5.65451 -2.39036 0
M  V30 6369 C 613.171 5.63313 -2.58995 0
M  V30 6370 C 615.226 4.72002 -1.58488 0
M  V30 6371 C 613.929 6.20635 -3.63599 0
M  V30 6372 C 615.955 5.30201 -2.61995 0
M  V30 6373 C 615.317 6.03463 -3.63335 0
M  V30 6374 H 611.416 0.781241 0.0344357 0
M  V30 6375 H 614 1.87387 -0.528609 0
M  V30 6376 H 612.171 3.68677 1.22196 0
M  V30 6377 H 613.903 3.89707 1.09135 0
M  V30 6378 H 610.658 4.67249 -0.772995 0
M  V30 6379 H 611.082 6.07541 -2.98701 0
M  V30 6380 H 615.724 4.14873 -0.814891 0
M  V30 6381 H 613.442 6.76852 -4.41472 0
M  V30 6382 H 617.028 5.182 -2.645 0
M  V30 6383 H 615.908 6.47693 -4.42113 0
M  V30 6384 N 613.412 0.11024 1.57214 0
M  V30 6385 C 614.689 -0.592956 1.86396 0
M  V30 6386 C 615.069 -1.85379 1.00985 0
M  V30 6387 O 614.417 -2.28337 0.0863592 0
M  V30 6388 C 614.627 -0.893816 3.3736 0
M  V30 6389 C 615.975 -1.25069 4.05762 0
M  V30 6390 O 616.999 -0.984356 3.42329 0
M  V30 6391 O 615.858 -1.75017 5.17718 0
M  V30 6392 H 612.952 -0.29828 0.771335 0
M  V30 6393 H 615.498 0.144083 1.69087 0
M  V30 6394 H 614.27 2.6031e-05 3.913 0
M  V30 6395 H 613.893 -1.68631 3.60068 0
M  V30 6396 N 614.89 -1.56749 -0.16351 0
M  V30 6397 C 615.822 -1.93587 -1.22705 0
M  V30 6398 C 616.835 -0.829824 -1.40063 0
M  V30 6399 O 618.024 -1.10826 -1.39928 0
M  V30 6400 C 615.124 -2.1803 -2.59454 0
M  V30 6401 C 614.297 -3.4928 -2.63292 0
M  V30 6402 C 613.356 -3.62457 -3.8146 0
M  V30 6403 O 612.382 -4.35004 -3.67096 0
M  V30 6404 N 613.584 -2.97888 -4.9824 0
M  V30 6405 H 616.349 -2.8542 -0.914081 0
M  V30 6406 H 613.91 -1.58 -0.353214 0
M  V30 6407 H 615.902 -2.24102 -3.36987 0
M  V30 6408 H 614.472 -1.32543 -2.8311 0
M  V30 6409 H 613.692 -3.54795 -1.71796 0
M  V30 6410 H 614.98 -4.35632 -2.62873 0
M  V30 6411 H 614.378 -2.38833 -5.12811 0
M  V30 6412 H 612.935 -3.09545 -5.73607 0
M  V30 6413 N 616.368 0.432326 -1.51554 0
M  V30 6414 C 617.593 1.20824 -1.68571 0
M  V30 6415 C 618.018 1.84126 -0.384596 0
M  V30 6416 O 617.376 1.69025 0.655751 0
M  V30 6417 C 617.424 2.26429 -2.80646 0
M  V30 6418 O 616.528 3.32032 -2.44598 0
M  V30 6419 H 615.869 0.353765 -0.561913 0
M  V30 6420 H 618.399 0.509916 -1.98144 0
M  V30 6421 H 618.409 2.71133 -3.04878 0
M  V30 6422 H 617.084 1.79733 -3.75058 0
M  V30 6423 H 615.661 2.92769 -2.30956 0
M  V30 6424 N 617.846 1.41785 0.688094 0
M  V30 6425 C 619.093 1.41544 1.44816 0
M  V30 6426 C 619.421 0.0271746 1.94481 0
M  V30 6427 O 618.676 -0.962235 1.7041 0
M  V30 6428 C 618.975 2.37532 2.67046 0
M  V30 6429 C 618.641 3.84209 2.35996 0
M  V30 6430 C 617.303 4.24165 2.27239 0
M  V30 6431 C 619.655 4.76785 2.10536 0
M  V30 6432 C 616.983 5.54695 1.91128 0
M  V30 6433 C 619.335 6.07644 1.75931 0
M  V30 6434 C 617.999 6.46613 1.65675 0
M  V30 6435 H 617.269 0.517945 0.529919 0
M  V30 6436 H 619.916 1.74635 0.785797 0
M  V30 6437 H 618.221 1.9772 3.38251 0
M  V30 6438 H 619.918 2.34615 3.25203 0
M  V30 6439 H 616.508 3.52567 2.4371 0
M  V30 6440 H 620.692 4.46714 2.16242 0
M  V30 6441 H 615.948 5.83762 1.81746 0
M  V30 6442 H 620.122 6.78874 1.55252 0
M  V30 6443 H 617.749 7.47668 1.37463 0
M  V30 6444 N 619.324 -0.923095 1.27737 0
M  V30 6445 C 620.552 -1.70525 1.17171 0
M  V30 6446 C 620.967 -1.86847 -0.270881 0
M  V30 6447 O 620.324 -1.38879 -1.18401 0
M  V30 6448 C 620.375 -3.10242 1.85559 0
M  V30 6449 O 620.096 -2.94683 3.24182 0
M  V30 6450 C 621.597 -4.04586 1.81176 0
M  V30 6451 H 618.817 -0.533347 0.407163 0
M  V30 6452 H 621.361 -1.15599 1.68692 0
M  V30 6453 H 619.516 -3.62014 1.3793 0
M  V30 6454 H 619.93 -3.83045 3.58297 0
M  V30 6455 H 621.404 -5.00119 2.33633 0
M  V30 6456 H 621.881 -4.3218 0.782099 0
M  V30 6457 H 622.487 -3.58741 2.2844 0
M  V30 6458 N 620.802 -1.09834 -1.13024 0
M  V30 6459 C 621.732 -0.763451 -2.20666 0
M  V30 6460 C 622.713 0.260778 -1.68089 0
M  V30 6461 O 623.898 0.127915 -1.93778 0
M  V30 6462 C 621.028 -0.187744 -3.46792 0
M  V30 6463 C 619.982 -1.14196 -4.12484 0
M  V30 6464 C 619.308 -0.427755 -5.32986 0
M  V30 6465 C 620.608 -2.48607 -4.59338 0
M  V30 6466 H 622.302 -1.66347 -2.48936 0
M  V30 6467 H 619.848 -0.801261 -1.19649 0
M  V30 6468 H 621.801 0.0586375 -4.21359 0
M  V30 6469 H 620.525 0.747485 -3.17931 0
M  V30 6470 H 619.184 -1.37369 -3.3989 0
M  V30 6471 H 618.832 0.511747 -5.0039 0
M  V30 6472 H 618.532 -1.06403 -5.77886 0
M  V30 6473 H 620.056 -0.189772 -6.10305 0
M  V30 6474 H 621.47 -2.29618 -5.25308 0
M  V30 6475 H 619.867 -3.08062 -5.14993 0
M  V30 6476 H 620.937 -3.09062 -3.73642 0
M  V30 6477 N 622.28 1.30327 -0.886154 0
M  V30 6478 C 623.19 2.31854 -0.357866 0
M  V30 6479 C 624.206 1.65392 0.540502 0
M  V30 6480 O 625.382 1.96683 0.433339 0
M  V30 6481 C 622.447 3.44171 0.417999 0
M  V30 6482 C 621.508 4.26257 -0.510263 0
M  V30 6483 C 620.741 5.3321 0.228669 0
M  V30 6484 O 620.964 5.51542 1.45458 0
M  V30 6485 O 619.898 6.0042 -0.421832 0
M  V30 6486 H 623.724 2.78995 -1.19982 0
M  V30 6487 H 621.309 1.34518 -0.650028 0
M  V30 6488 H 623.191 4.12588 0.857251 0
M  V30 6489 H 621.866 2.99164 1.23623 0
M  V30 6490 H 620.773 3.60533 -0.99835 0
M  V30 6491 H 622.106 4.74871 -1.29454 0
M  V30 6492 N 623.758 0.647228 1.43697 0
M  V30 6493 C 624.688 -0.0345631 2.33474 0
M  V30 6494 C 625.669 -0.818193 1.4913 0
M  V30 6495 O 626.854 -0.780867 1.77809 0
M  V30 6496 C 623.984 -1.00576 3.32418 0
M  V30 6497 C 622.938 -0.33266 4.26705 0
M  V30 6498 C 622.264 -1.41489 5.1564 0
M  V30 6499 C 623.564 0.771204 5.16575 0
M  V30 6500 H 625.258 0.715163 2.90733 0
M  V30 6501 H 622.804 0.345364 1.39797 0
M  V30 6502 H 624.757 -1.49159 3.94119 0
M  V30 6503 H 623.481 -1.78657 2.73403 0
M  V30 6504 H 622.14 0.13267 3.6636 0
M  V30 6505 H 621.788 -2.18698 4.52968 0
M  V30 6506 H 621.488 -0.969799 5.79542 0
M  V30 6507 H 623.012 -1.9022 5.80214 0
M  V30 6508 H 624.426 0.36779 5.72119 0
M  V30 6509 H 622.823 1.1404 5.89165 0
M  V30 6510 H 623.893 1.63169 4.56622 0
M  V30 6511 N 625.236 -1.5273 0.388769 0
M  V30 6512 C 626.146 -2.30165 -0.453993 0
M  V30 6513 C 627.162 -1.37058 -1.07197 0
M  V30 6514 O 628.338 -1.70127 -1.0779 0
M  V30 6515 C 625.403 -3.09303 -1.56628 0
M  V30 6516 C 624.464 -4.18117 -0.973467 0
M  V30 6517 C 623.697 -4.93472 -2.03275 0
M  V30 6518 O 623.92 -4.68913 -3.24772 0
M  V30 6519 O 622.854 -5.78833 -1.65034 0
M  V30 6520 H 626.68 -3.03185 0.176816 0
M  V30 6521 H 624.265 -1.4862 0.152501 0
M  V30 6522 H 626.147 -3.58648 -2.21246 0
M  V30 6523 H 624.822 -2.39098 -2.18206 0
M  V30 6524 H 623.729 -3.7297 -0.290556 0
M  V30 6525 H 625.062 -4.90556 -0.401908 0
M  V30 6526 N 626.714 -0.118576 -1.57153 0
M  V30 6527 C 628.13 0.238014 -1.57815 0
M  V30 6528 C 628.33 1.66747 -1.13127 0
M  V30 6529 O 627.386 2.38867 -0.818462 0
M  V30 6530 C 628.699 0.00508207 -3.007 0
M  V30 6531 C 630.247 0.0710139 -3.12919 0
M  V30 6532 C 630.722 -0.13422 -4.57803 0
M  V30 6533 N 632.213 -0.0801755 -4.63131 0
M  V30 6534 C 632.948 -0.213885 -5.73001 0
M  V30 6535 N 632.444 -0.403742 -6.91623 0
M  V30 6536 N 634.237 -0.15349 -5.6189 0
M  V30 6537 H 626.388 -1.05226 -1.84503 0
M  V30 6538 H 628.651 -0.414318 -0.852669 0
M  V30 6539 H 628.357 -0.983125 -3.3768 0
M  V30 6540 H 628.231 0.73714 -3.69927 0
M  V30 6541 H 630.618 1.04975 -2.75798 0
M  V30 6542 H 630.699 -0.692918 -2.46236 0
M  V30 6543 H 630.343 -1.10992 -4.95624 0
M  V30 6544 H 630.273 0.649692 -5.22577 0
M  V30 6545 H 632.764 0.0630689 -3.77847 0
M  V30 6546 H 633.077 -0.496645 -7.71202 0
M  V30 6547 H 631.422 -0.43971 -6.93608 0
M  V30 6548 H 634.613 -0.00613174 -4.681 0
M  V30 6549 H 634.786 -0.261138 -6.47474 0
M  V30 6550 N 628.193 1.56834 0.155195 0
M  V30 6551 C 629.156 1.96748 1.17571 0
M  V30 6552 C 630.156 0.853006 1.3631 0
M  V30 6553 O 631.346 1.11978 1.33441 0
M  V30 6554 C 628.478 2.27631 2.53765 0
M  V30 6555 H 629.671 2.88085 0.833498 0
M  V30 6556 H 627.224 1.51141 0.398242 0
M  V30 6557 H 627.959 1.39059 2.92973 0
M  V30 6558 H 627.744 3.0888 2.41527 0
M  V30 6559 H 629.234 2.59377 3.27282 0
M  V30 6560 N 629.671 -0.424282 1.51781 0
M  V30 6561 C 631.087 -0.761768 1.40247 0
M  V30 6562 C 631.287 -1.95324 0.495041 0
M  V30 6563 O 630.343 -2.5246 -0.0448949 0
M  V30 6564 C 631.656 -1.0299 2.82513 0
M  V30 6565 C 633.204 -1.13354 2.91753 0
M  V30 6566 C 633.679 -1.43453 4.34954 0
M  V30 6567 N 635.17 -1.5035 4.3812 0
M  V30 6568 C 635.905 -1.75236 5.45967 0
M  V30 6569 N 635.401 -1.97827 6.63955 0
M  V30 6570 N 637.194 -1.77126 5.33463 0
M  V30 6571 H 629.345 0.360228 2.09323 0
M  V30 6572 H 631.608 0.0988128 0.942836 0
M  V30 6573 H 631.314 -0.226961 3.50967 0
M  V30 6574 H 631.188 -1.95411 3.22637 0
M  V30 6575 H 633.575 -1.92709 2.23489 0
M  V30 6576 H 633.656 -0.188041 2.55108 0
M  V30 6577 H 633.3 -0.646209 5.03772 0
M  V30 6578 H 633.23 -2.3923 4.69123 0
M  V30 6579 H 635.721 -1.34742 3.53062 0
M  V30 6580 H 636.034 -2.16223 7.41935 0
M  V30 6581 H 634.379 -1.95123 6.67047 0
M  V30 6582 H 637.57 -1.59005 4.40267 0
M  V30 6583 H 637.743 -1.96182 6.17589 0
M  V30 6584 N 631.149 -1.42148 -0.680565 0
M  V30 6585 C 632.059 -1.47565 -1.82378 0
M  V30 6586 C 633.075 -0.36489 -1.70131 0
M  V30 6587 O 634.251 -0.614916 -1.91783 0
M  V30 6588 C 631.316 -1.37013 -3.18478 0
M  V30 6589 C 630.377 -2.58532 -3.42724 0
M  V30 6590 C 629.61 -2.48473 -4.72331 0
M  V30 6591 O 629.833 -1.51745 -5.49845 0
M  V30 6592 O 628.767 -3.38503 -4.97694 0
M  V30 6593 H 632.593 -2.44045 -1.80764 0
M  V30 6594 H 630.178 -1.23849 -0.835569 0
M  V30 6595 H 632.06 -1.33468 -3.99705 0
M  V30 6596 H 630.735 -0.436552 -3.20743 0
M  V30 6597 H 629.642 -2.67652 -2.61368 0
M  V30 6598 H 630.975 -3.50769 -3.45286 0
M  V30 6599 N 632.627 0.916307 -1.28225 0
M  V30 6600 C 633.557 2.0352 -1.14464 0
M  V30 6601 C 634.538 1.70045 -0.0430844 0
M  V30 6602 O 635.723 1.92954 -0.219619 0
M  V30 6603 C 632.853 3.37889 -0.803027 0
M  V30 6604 C 631.807 3.85516 -1.85908 0
M  V30 6605 C 631.133 5.1682 -1.37116 0
M  V30 6606 C 632.433 4.07655 -3.26519 0
M  V30 6607 H 634.127 2.1529 -2.08064 0
M  V30 6608 H 631.673 1.03446 -1.00174 0
M  V30 6609 H 633.626 4.15654 -0.693537 0
M  V30 6610 H 632.35 3.26164 0.168674 0
M  V30 6611 H 631.009 3.09953 -1.95767 0
M  V30 6612 H 630.657 5.01497 -0.38859 0
M  V30 6613 H 630.357 5.49657 -2.07728 0
M  V30 6614 H 631.881 5.97143 -1.27484 0
M  V30 6615 H 633.295 4.75953 -3.19596 0
M  V30 6616 H 631.692 4.51818 -3.94943 0
M  V30 6617 H 632.762 3.12553 -3.70727 0
M  V30 6618 N 634.105 1.10431 1.1244 0
M  V30 6619 C 635.015 0.765502 2.21759 0
M  V30 6620 C 636.031 -0.236966 1.72379 0
M  V30 6621 O 637.207 -0.0757329 2.01258 0
M  V30 6622 C 634.272 0.202316 3.46109 0
M  V30 6623 C 633.333 1.26205 4.1033 0
M  V30 6624 C 632.566 0.725648 5.28744 0
M  V30 6625 O 632.789 -0.447942 5.68638 0
M  V30 6626 O 631.723 1.48555 5.83279 0
M  V30 6627 H 635.549 1.67801 2.53133 0
M  V30 6628 H 633.134 0.879443 1.20773 0
M  V30 6629 H 635.016 -0.107918 4.21262 0
M  V30 6630 H 633.691 -0.683052 3.16411 0
M  V30 6631 H 632.598 1.62514 3.36957 0
M  V30 6632 H 633.931 2.12044 4.44183 0
M  V30 6633 N 635.583 -1.29855 0.893053 0
M  V30 6634 C 636.513 -2.3035 0.382249 0
M  V30 6635 C 637.494 -1.61328 -0.539203 0
M  V30 6636 O 638.679 -1.88882 -0.451342 0
M  V30 6637 C 635.809 -3.45024 -0.396983 0
M  V30 6638 C 634.763 -4.258 0.433437 0
M  V30 6639 C 634.089 -5.32605 -0.472889 0
M  V30 6640 C 635.389 -4.94549 1.67984 0
M  V30 6641 H 637.083 -2.73325 1.22205 0
M  V30 6642 H 634.629 -1.314 0.589073 0
M  V30 6643 H 636.582 -4.14398 -0.765024 0
M  V30 6644 H 635.306 -3.00875 -1.2705 0
M  V30 6645 H 633.965 -3.58125 0.783723 0
M  V30 6646 H 633.613 -4.84702 -1.34435 0
M  V30 6647 H 633.313 -5.87547 0.0789958 0
M  V30 6648 H 634.837 -6.04832 -0.837269 0
M  V30 6649 H 636.251 -5.56395 1.38192 0
M  V30 6650 H 634.648 -5.59393 2.17254 0
M  V30 6651 H 635.718 -4.20215 2.41965 0
M  V30 6652 N 637.061 -0.65484 -1.43351 0
M  V30 6653 C 638.024 0.0263562 -2.29185 0
M  V30 6654 C 639.024 0.748951 -1.42293 0
M  V30 6655 O 640.214 0.589957 -1.63906 0
M  V30 6656 C 637.346 1.04806 -3.2439 0
M  V30 6657 H 638.539 -0.728883 -2.90908 0
M  V30 6658 H 636.092 -0.416149 -1.50658 0
M  V30 6659 H 636.827 1.83247 -2.67565 0
M  V30 6660 H 636.612 0.533554 -3.88453 0
M  V30 6661 H 638.102 1.52372 -3.88809 0
M  V30 6662 N 638.539 1.52521 -0.396863 0
M  V30 6663 C 639.785 2.01971 0.183169 0
M  V30 6664 C 640.118 1.2825 1.45827 0
M  V30 6665 O 639.393 0.385179 1.90648 0
M  V30 6666 C 639.676 3.5736 0.443391 0
M  V30 6667 C 639.529 4.41743 -0.84753 0
M  V30 6668 C 640.848 4.22539 1.2308 0
M  V30 6669 H 637.967 0.734119 0.0650976 0
M  V30 6670 H 640.609 1.82519 -0.527918 0
M  V30 6671 H 638.759 3.74066 1.04914 0
M  V30 6672 H 640.431 4.36773 -1.48414 0
M  V30 6673 H 638.674 4.0845 -1.4612 0
M  V30 6674 H 639.345 5.48507 -0.620003 0
M  V30 6675 H 641.821 4.09857 0.718084 0
M  V30 6676 H 640.697 5.31227 1.38162 0
M  V30 6677 H 640.958 3.80675 2.24808 0
M  V30 6678 N 640.017 0.126909 1.57088 0
M  V30 6679 C 641.264 -0.529168 1.95464 0
M  V30 6680 C 641.592 -1.6618 1.01067 0
M  V30 6681 O 640.847 -1.95667 0.0360254 0
M  V30 6682 C 641.146 -1.095 3.40212 0
M  V30 6683 C 640.812 -0.0829015 4.50824 0
M  V30 6684 C 639.474 0.195377 4.80803 0
M  V30 6685 C 641.826 0.606411 5.1766 0
M  V30 6686 C 639.154 1.16912 5.74933 0
M  V30 6687 C 641.506 1.56884 6.12838 0
M  V30 6688 C 640.17 1.85502 6.41206 0
M  V30 6689 H 639.44 -0.193636 0.715252 0
M  V30 6690 H 642.087 0.209489 1.90351 0
M  V30 6691 H 640.392 -1.91058 3.42059 0
M  V30 6692 H 642.089 -1.61087 3.67222 0
M  V30 6693 H 638.679 -0.309979 4.27478 0
M  V30 6694 H 642.863 0.404597 4.94648 0
M  V30 6695 H 638.119 1.3975 5.95214 0
M  V30 6696 H 642.293 2.10859 6.6371 0
M  V30 6697 H 639.92 2.61109 7.13951 0
M  V30 6698 N 641.495 -1.56914 -0.146875 0
M  V30 6699 C 642.741 -1.84515 -0.855914 0
M  V30 6700 C 643.096 -0.710909 -1.78784 0
M  V30 6701 O 642.389 0.291123 -1.89375 0
M  V30 6702 C 642.583 -3.16128 -1.66727 0
M  V30 6703 C 642.412 -4.42246 -0.815405 0
M  V30 6704 C 641.182 -5.03006 -0.480976 0
M  V30 6705 C 643.38 -5.14094 -0.145684 0
M  V30 6706 N 641.362 -6.12695 0.384476 0
M  V30 6707 C 642.733 -6.17282 0.579902 0
M  V30 6708 C 644.788 -4.97856 -0.0663705 0
M  V30 6709 C 643.491 -7.0599 1.37731 0
M  V30 6710 C 645.517 -5.87028 0.71778 0
M  V30 6711 C 644.879 -6.89698 1.43165 0
M  V30 6712 H 640.978 -0.725829 -0.291026 0
M  V30 6713 H 643.562 -1.94322 -0.121279 0
M  V30 6714 H 641.733 -3.07468 -2.37315 0
M  V30 6715 H 643.465 -3.31635 -2.31949 0
M  V30 6716 H 640.22 -4.66504 -0.816789 0
M  V30 6717 H 640.644 -6.72158 0.80823 0
M  V30 6718 H 645.286 -4.18465 -0.603929 0
M  V30 6719 H 643.004 -7.84809 1.92613 0
M  V30 6720 H 646.59 -5.76532 0.781141 0
M  V30 6721 H 645.47 -7.57505 2.02868 0
M  V30 6722 N 642.974 0.416227 -1.52004 0
M  V30 6723 C 644.39 0.754319 -1.40649 0
M  V30 6724 C 644.59 1.95059 -0.505392 0
M  V30 6725 O 643.646 2.5248 0.0315057 0
M  V30 6726 C 644.959 1.0149 -2.83055 0
M  V30 6727 C 646.507 1.11805 -2.9235 0
M  V30 6728 C 646.982 1.41144 -4.35709 0
M  V30 6729 N 648.473 1.48024 -4.38911 0
M  V30 6730 C 649.208 1.72338 -5.46889 0
M  V30 6731 N 648.704 1.94303 -6.64995 0
M  V30 6732 N 650.497 1.74294 -5.34395 0
M  V30 6733 H 642.648 -0.371324 -2.09129 0
M  V30 6734 H 644.911 -0.103811 -0.942299 0
M  V30 6735 H 644.617 0.208345 -3.51082 0
M  V30 6736 H 644.491 1.93697 -3.23668 0
M  V30 6737 H 646.878 1.91521 -2.24508 0
M  V30 6738 H 646.959 0.17451 -2.55204 0
M  V30 6739 H 646.603 0.619484 -5.04108 0
M  V30 6740 H 646.533 2.36739 -4.70385 0
M  V30 6741 H 649.024 1.32868 -3.53772 0
M  V30 6742 H 649.337 2.12286 -7.43071 0
M  V30 6743 H 647.682 1.91582 -6.68073 0
M  V30 6744 H 650.873 1.56667 -4.41104 0
M  V30 6745 H 651.046 1.92904 -6.18621 0
M  V30 6746 N 644.452 1.42507 0.673017 0
M  V30 6747 C 645.729 1.33554 1.42908 0
M  V30 6748 C 646.109 -0.0262211 2.11084 0
M  V30 6749 O 645.457 -1.04181 2.03368 0
M  V30 6750 C 645.667 2.50498 2.43006 0
M  V30 6751 C 647.015 2.92694 3.07596 0
M  V30 6752 O 648.039 2.50401 2.53333 0
M  V30 6753 O 646.898 3.65899 4.05931 0
M  V30 6754 H 643.992 0.526785 0.637516 0
M  V30 6755 H 646.538 1.54518 0.701591 0
M  V30 6756 H 645.31 3.41272 1.9144 0
M  V30 6757 H 644.933 2.3153 3.23233 0
M  V30 6758 N 645.93 -0.909495 1.28709 0
M  V30 6759 C 646.862 -2.01729 1.08804 0
M  V30 6760 C 647.875 -1.62755 0.0384739 0
M  V30 6761 O 649.064 -1.76259 0.281977 0
M  V30 6762 C 646.164 -3.32952 0.63217 0
M  V30 6763 C 645.337 -4.00512 1.75809 0
M  V30 6764 C 644.396 -5.10019 1.29488 0
M  V30 6765 O 643.422 -5.32986 1.99787 0
M  V30 6766 N 644.624 -5.80278 0.1604 0
M  V30 6767 H 647.389 -2.19362 2.04207 0
M  V30 6768 H 644.95 -1.08106 1.20518 0
M  V30 6769 H 646.942 -4.03543 0.305802 0
M  V30 6770 H 645.512 -3.11759 -0.229134 0
M  V30 6771 H 644.732 -3.23413 2.25383 0
M  V30 6772 H 646.02 -4.42395 2.51325 0
M  V30 6773 H 645.418 -5.64094 -0.425937 0
M  V30 6774 H 643.975 -6.51713 -0.106663 0
M  V30 6775 N 647.408 -1.11026 -1.11852 0
M  V30 6776 C 648.824 -0.843294 -1.35502 0
M  V30 6777 C 649.024 0.534179 -1.9429 0
M  V30 6778 O 648.08 1.28585 -2.17307 0
M  V30 6779 C 649.393 -1.94793 -2.29077 0
M  V30 6780 C 650.941 -1.97709 -2.42652 0
M  V30 6781 C 651.416 -3.07364 -3.39546 0
M  V30 6782 N 652.907 -3.0671 -3.47107 0
M  V30 6783 C 653.642 -3.88197 -4.22008 0
M  V30 6784 N 653.138 -4.79635 -4.99922 0
M  V30 6785 N 654.931 -3.76391 -4.17476 0
M  V30 6786 H 647.082 -1.99805 -0.720538 0
M  V30 6787 H 649.345 -0.868633 -0.379711 0
M  V30 6788 H 649.051 -2.93971 -1.93065 0
M  V30 6789 H 648.925 -1.84039 -3.29256 0
M  V30 6790 H 651.312 -0.991604 -2.77941 0
M  V30 6791 H 651.393 -2.1254 -1.4234 0
M  V30 6792 H 651.037 -4.06136 -3.04985 0
M  V30 6793 H 650.967 -2.89774 -4.39703 0
M  V30 6794 H 653.458 -2.40457 -2.91528 0
M  V30 6795 H 653.771 -5.38357 -5.54429 0
M  V30 6796 H 652.116 -4.8366 -4.99097 0
M  V30 6797 H 655.307 -3.04303 -3.55693 0
M  V30 6798 H 655.48 -4.40131 -4.75593 0
M  V30 6799 N 648.886 1.2938 -0.899927 0
M  V30 6800 C 650.134 1.95164 -0.524924 0
M  V30 6801 C 650.455 1.71292 0.931888 0
M  V30 6802 O 649.725 1.04481 1.65712 0
M  V30 6803 H 648.305 0.722133 -0.191135 0
M  V30 6804 H 650.967 1.57628 -1.14627 0
M  V30 6805 H 650.063 3.0397 -0.707711 0
M  V30 6806 N 650.364 0.662433 1.43002 0
M  V30 6807 C 651.294 -0.00979809 2.33498 0
M  V30 6808 C 652.275 -0.802329 1.49989 0
M  V30 6809 O 653.46 -0.761964 1.78627 0
M  V30 6810 C 650.59 -0.970446 3.33466 0
M  V30 6811 C 649.544 -0.287383 4.27034 0
M  V30 6812 C 648.87 -1.36012 5.17112 0
M  V30 6813 C 650.17 0.82595 5.15728 0
M  V30 6814 H 651.864 0.745959 2.89958 0
M  V30 6815 H 649.41 0.360172 1.39423 0
M  V30 6816 H 651.363 -1.44971 3.95679 0
M  V30 6817 H 650.087 -1.75748 2.75282 0
M  V30 6818 H 648.746 0.17152 3.66199 0
M  V30 6819 H 648.394 -2.13882 4.55262 0
M  V30 6820 H 648.094 -0.908276 5.80538 0
M  V30 6821 H 649.618 -1.84056 5.82199 0
M  V30 6822 H 651.032 0.42845 5.71697 0
M  V30 6823 H 649.429 1.20282 5.87922 0
M  V30 6824 H 650.499 1.68003 4.54866 0
M  V30 6825 N 651.842 -1.52309 0.404946 0
M  V30 6826 C 653.082 -2.03677 -0.171779 0
M  V30 6827 C 653.446 -1.28419 -1.42733 0
M  V30 6828 O 654.647 -1.69991 -2.08222 0
M  V30 6829 C 652.918 -3.54951 -0.417701 0
M  V30 6830 S 654.477 -4.28114 -0.962472 0
M  V30 6831 H 651.295 -0.709445 -0.0469912 0
M  V30 6832 H 653.897 -1.874 0.556901 0
M  V30 6833 H 652.601 -4.07306 0.50295 0
M  V30 6834 H 652.132 -3.75462 -1.17437 0
M  V30 6835 H 654.147 -4.42589 -2.24342 0
M  V30 6836 N 653.32 -0.135238 -1.57019 0
M  V30 6837 C 654.283 0.794707 -2.14981 0
M  V30 6838 C 655.283 1.18342 -1.08866 0
M  V30 6839 O 656.473 1.10627 -1.34563 0
M  V30 6840 C 653.605 2.07685 -2.70333 0
M  V30 6841 H 654.798 0.290696 -2.98488 0
M  V30 6842 H 652.351 0.114128 -1.55883 0
M  V30 6843 H 653.086 2.6248 -1.9046 0
M  V30 6844 H 652.871 1.80745 -3.47957 0
M  V30 6845 H 654.361 2.74127 -3.1503 0
M  V30 6846 N 654.798 1.5699 0.138552 0
M  V30 6847 C 655.728 2.01933 1.17241 0
M  V30 6848 C 656.709 0.90033 1.44319 0
M  V30 6849 O 657.894 1.16872 1.55095 0
M  V30 6850 C 655.024 2.40711 2.50351 0
M  V30 6851 C 653.978 3.55874 2.37776 0
M  V30 6852 C 653.304 3.80491 3.75674 0
M  V30 6853 C 654.604 4.8826 1.85472 0
M  V30 6854 H 656.298 2.88551 0.798672 0
M  V30 6855 H 653.844 1.3882 0.382743 0
M  V30 6856 H 655.797 2.70754 3.22909 0
M  V30 6857 H 654.521 1.5104 2.89576 0
M  V30 6858 H 653.18 3.2601 1.67669 0
M  V30 6859 H 652.828 2.88057 4.12349 0
M  V30 6860 H 652.528 4.57998 3.68119 0
M  V30 6861 H 654.052 4.12967 4.49767 0
M  V30 6862 H 655.466 5.16965 2.4783 0
M  V30 6863 H 653.863 5.69631 1.88787 0
M  V30 6864 H 654.933 4.78071 0.810935 0
M  V30 6865 N 656.276 -0.40816 1.52223 0
M  V30 6866 C 657.223 -1.49737 1.75635 0
M  V30 6867 C 658.193 -1.5493 0.598824 0
M  V30 6868 O 659.378 -1.71487 0.83648 0
M  V30 6869 C 656.518 -2.87174 1.91376 0
M  V30 6870 C 655.631 -2.91283 3.19027 0
M  V30 6871 C 654.766 -4.20026 3.25195 0
M  V30 6872 C 653.805 -4.18113 4.47044 0
M  V30 6873 N 652.942 -5.38429 4.50598 0
M  V30 6874 H 657.782 -1.29075 2.68596 0
M  V30 6875 H 655.319 -0.626518 1.33091 0
M  V30 6876 H 657.277 -3.66959 1.98486 0
M  V30 6877 H 655.907 -3.06329 1.01795 0
M  V30 6878 H 654.959 -2.03984 3.21084 0
M  V30 6879 H 656.271 -2.85734 4.08849 0
M  V30 6880 H 655.425 -5.08204 3.31382 0
M  V30 6881 H 654.164 -4.28271 2.33313 0
M  V30 6882 H 653.169 -3.28325 4.41002 0
M  V30 6883 H 654.394 -4.11507 5.40221 0
M  V30 6884 H 652.34 -5.4734 3.616 0
M  V30 6885 H 652.257 -5.34879 5.34266 0
M  V30 6886 H 653.525 -6.28557 4.61016 0
M  V30 6887 N 657.755 -1.42862 -0.66545 0
M  V30 6888 C 659.002 -1.4383 -1.42546 0
M  V30 6889 C 659.33 -0.0581114 -1.94413 0
M  V30 6890 O 658.585 0.935002 -1.71919 0
M  V30 6891 C 658.884 -2.4175 -2.63233 0
M  V30 6892 C 658.55 -3.87915 -2.29854 0
M  V30 6893 C 657.212 -4.27726 -2.20463 0
M  V30 6894 C 659.564 -4.80074 -2.02924 0
M  V30 6895 C 656.892 -5.57666 -1.82279 0
M  V30 6896 C 659.244 -6.10366 -1.66242 0
M  V30 6897 C 657.908 -6.49167 -1.55367 0
M  V30 6898 H 657.178 -0.52631 -0.521612 0
M  V30 6899 H 659.825 -1.75863 -0.757914 0
M  V30 6900 H 658.13 -2.03077 -3.35063 0
M  V30 6901 H 659.827 -2.39759 -3.21429 0
M  V30 6902 H 656.417 -3.564 -2.3807 0
M  V30 6903 H 660.601 -4.50097 -2.09108 0
M  V30 6904 H 655.857 -5.8658 -1.72436 0
M  V30 6905 H 660.031 -6.81258 -1.44432 0
M  V30 6906 H 657.658 -7.49761 -1.2555 0
M  V30 6907 N 659.233 0.902656 -1.29189 0
M  V30 6908 C 660.163 2.02294 -1.16616 0
M  V30 6909 C 661.144 1.6999 -0.0611175 0
M  V30 6910 O 662.329 1.9271 -0.240072 0
M  V30 6911 C 659.459 3.37018 -0.83882 0
M  V30 6912 C 658.413 3.83522 -1.89986 0
M  V30 6913 C 657.739 5.15337 -1.42589 0
M  V30 6914 C 659.039 4.04169 -3.30824 0
M  V30 6915 H 660.733 2.13071 -2.10336 0
M  V30 6916 H 658.279 1.02378 -1.01266 0
M  V30 6917 H 660.232 4.14895 -0.737584 0
M  V30 6918 H 658.956 3.26325 0.134071 0
M  V30 6919 H 657.615 3.07859 -1.99043 0
M  V30 6920 H 657.263 5.01056 -0.441759 0
M  V30 6921 H 656.963 5.47423 -2.13547 0
M  V30 6922 H 658.487 5.95758 -1.3381 0
M  V30 6923 H 659.901 4.72537 -3.24626 0
M  V30 6924 H 658.298 4.47604 -3.99713 0
M  V30 6925 H 659.368 3.08604 -3.74021 0
M  V30 6926 N 660.711 1.11618 1.11262 0
M  V30 6927 C 661.658 0.7762 2.17356 0
M  V30 6928 C 662.628 -0.253152 1.6416 0
M  V30 6929 O 663.813 -0.129655 1.90359 0
M  V30 6930 C 660.953 0.227581 3.44349 0
M  V30 6931 C 660.066 1.31372 4.1154 0
M  V30 6932 C 659.201 0.72544 5.26223 0
M  V30 6933 C 658.24 1.7913 5.85302 0
M  V30 6934 N 657.377 1.22237 6.91377 0
M  V30 6935 H 662.217 1.68508 2.45783 0
M  V30 6936 H 659.754 0.841475 1.20655 0
M  V30 6937 H 661.712 -0.108483 4.17059 0
M  V30 6938 H 660.342 -0.644486 3.16301 0
M  V30 6939 H 659.394 1.7667 3.36885 0
M  V30 6940 H 660.706 2.12005 4.51504 0
M  V30 6941 H 659.86 0.339541 6.05749 0
M  V30 6942 H 658.599 -0.112188 4.87571 0
M  V30 6943 H 657.604 2.18648 5.04453 0
M  V30 6944 H 658.829 2.63199 6.26022 0
M  V30 6945 H 656.775 0.406423 6.5474 0
M  V30 6946 H 656.692 1.9654 7.30006 0
M  V30 6947 H 657.96 0.863426 7.74703 0
M  V30 6948 N 662.189 -1.289 0.906776 0
M  V30 6949 C 663.119 -2.29932 0.406659 0
M  V30 6950 C 664.1 -1.6189 -0.522061 0
M  V30 6951 O 665.285 -1.8935 -0.431283 0
M  V30 6952 C 662.415 -3.45425 -0.360366 0
M  V30 6953 C 661.369 -4.25316 0.478574 0
M  V30 6954 C 660.695 -5.33076 -0.416373 0
M  V30 6955 C 661.995 -4.92739 1.7322 0
M  V30 6956 H 663.689 -2.72013 1.25097 0
M  V30 6957 H 661.235 -1.30768 0.602977 0
M  V30 6958 H 663.188 -4.15186 -0.721029 0
M  V30 6959 H 661.912 -3.02206 -1.23852 0
M  V30 6960 H 660.571 -3.57273 0.821662 0
M  V30 6961 H 660.219 -4.86101 -1.29287 0
M  V30 6962 H 659.919 -5.8743 0.141309 0
M  V30 6963 H 661.443 -6.05686 -0.773072 0
M  V30 6964 H 662.857 -5.54898 1.44086 0
M  V30 6965 H 661.254 -5.57057 2.23175 0
M  V30 6966 H 662.324 -4.17625 2.46408 0
M  V30 6967 N 663.667 -0.670007 -1.42649 0
M  V30 6968 C 664.577 0.0114788 -2.34597 0
M  V30 6969 C 665.593 0.794055 -1.54825 0
M  V30 6970 O 666.769 0.737472 -1.87412 0
M  V30 6971 C 663.834 0.954436 -3.33304 0
M  V30 6972 C 662.895 0.166925 -4.28975 0
M  V30 6973 C 662.128 1.06497 -5.22967 0
M  V30 6974 O 662.351 2.30446 -5.21777 0
M  V30 6975 O 661.285 0.528347 -5.99577 0
M  V30 6976 H 665.111 -0.745794 -2.944 0
M  V30 6977 H 662.696 -0.430228 -1.43071 0
M  V30 6978 H 664.578 1.49589 -3.93956 0
M  V30 6979 H 663.253 1.69164 -2.7598 0
M  V30 6980 H 662.16 -0.418515 -3.71752 0
M  V30 6981 H 663.493 -0.531067 -4.89327 0
M  V30 6982 N 665.145 1.52092 -0.413018 0
M  V30 6983 C 666.422 1.94356 0.22024 0
M  V30 6984 C 666.802 1.35017 1.62277 0
M  V30 6985 O 666.15 0.527511 2.22328 0
M  V30 6986 C 666.36 3.48289 0.222638 0
M  V30 6987 C 667.708 4.22313 0.440098 0
M  V30 6988 O 668.732 3.54919 0.301826 0
M  V30 6989 O 667.591 5.41829 0.712984 0
M  V30 6990 H 664.685 0.814536 0.14304 0
M  V30 6991 H 667.231 1.63083 -0.469242 0
M  V30 6992 H 666.003 3.83872 -0.758836 0
M  V30 6993 H 665.626 3.85934 0.956057 0
M  V30 6994 N 666.623 0.143563 1.56945 0
M  V30 6995 C 667.87 -0.508407 1.96014 0
M  V30 6996 C 668.198 -1.65099 1.02824 0
M  V30 6997 O 667.453 -1.95618 0.0567764 0
M  V30 6998 C 667.752 -1.05885 3.41355 0
M  V30 6999 C 667.418 -0.0350809 4.50886 0
M  V30 7000 C 666.08 0.246362 4.80569 0
M  V30 7001 C 668.432 0.661282 5.16988 0
M  V30 7002 C 665.76 1.23003 5.73661 0
M  V30 7003 C 668.112 1.63375 6.11139 0
M  V30 7004 C 666.776 1.92292 6.39203 0
M  V30 7005 H 666.046 -0.186039 0.717266 0
M  V30 7006 H 668.693 0.229667 1.90118 0
M  V30 7007 H 666.998 -1.87419 3.44066 0
M  V30 7008 H 668.695 -1.57183 3.6891 0
M  V30 7009 H 665.285 -0.264622 4.27782 0
M  V30 7010 H 669.469 0.457038 4.94191 0
M  V30 7011 H 664.725 1.46056 5.93698 0
M  V30 7012 H 668.899 2.17887 6.61436 0
M  V30 7013 H 666.526 2.68666 7.11142 0
M  V30 7014 N 668.101 -1.57061 -0.130224 0
M  V30 7015 C 669.031 -2.02552 -1.16168 0
M  V30 7016 C 670.012 -0.907971 -1.4384 0
M  V30 7017 O 671.197 -1.17693 -1.54473 0
M  V30 7018 C 668.327 -2.42035 -2.49071 0
M  V30 7019 C 667.281 -3.5713 -2.35886 0
M  V30 7020 C 666.607 -3.82478 -3.7365 0
M  V30 7021 C 667.907 -4.89236 -1.8288 0
M  V30 7022 H 669.601 -2.8897 -0.783359 0
M  V30 7023 H 667.147 -1.39021 -0.375376 0
M  V30 7024 H 669.1 -2.72462 -3.21469 0
M  V30 7025 H 667.824 -1.52573 -2.88771 0
M  V30 7026 H 666.483 -3.26895 -1.65938 0
M  V30 7027 H 666.131 -2.9024 -4.10816 0
M  V30 7028 H 665.831 -4.59944 -3.65685 0
M  V30 7029 H 667.355 -4.15347 -4.47571 0
M  V30 7030 H 668.769 -5.18272 -2.45085 0
M  V30 7031 H 667.166 -5.70624 -1.85763 0
M  V30 7032 H 668.236 -4.78494 -0.785571 0
M  V30 7033 N 669.579 0.400081 -1.52437 0
M  V30 7034 C 670.856 1.15973 -1.57511 0
M  V30 7035 C 671.236 2.0798 -0.361572 0
M  V30 7036 O 670.584 2.19032 0.650929 0
M  V30 7037 C 670.794 1.92912 -2.90837 0
M  V30 7038 C 672.142 2.48662 -3.44169 0
M  V30 7039 O 673.166 2.03081 -2.92637 0
M  V30 7040 O 672.025 3.31894 -4.34176 0
M  V30 7041 H 669.119 0.530023 -0.634827 0
M  V30 7042 H 671.665 0.40613 -1.64769 0
M  V30 7043 H 670.437 1.25564 -3.70607 0
M  V30 7044 H 670.06 2.75257 -2.86913 0
M  V30 7045 N 671.057 1.43213 0.657864 0
M  V30 7046 C 672.005 1.48271 1.79216 0
M  V30 7047 C 672.999 0.35675 1.65601 0
M  V30 7048 O 674.205 0.530535 1.72004 0
M  V30 7049 H 670.58 0.464729 0.591211 0
M  V30 7050 H 672.551 2.43792 1.7207 0
M  V30 7051 C 671.3 1.41837 3.17455 0
M  V30 7052 H 670.623 2.27781 3.28567 0
M  V30 7053 H 672.063 1.49438 3.96793 0
M  V30 7054 C 670.522 0.135347 3.36628 0
M  V30 7055 O 671.052 -0.805199 3.93547 0
M  V30 7056 N 669.258 0.0470316 2.90562 0
M  V30 7057 H 668.805 0.813221 2.44427 0
M  V30 7058 H 668.763 -0.810737 3.03767 0
M  V30 7059 N 672.536 -0.895792 1.29666 0
M  V30 7060 C 673.446 -2.03329 1.17024 0
M  V30 7061 C 674.462 -1.73753 0.0925962 0
M  V30 7062 O 675.638 -1.99071 0.305431 0
M  V30 7063 C 672.703 -3.36072 0.851841 0
M  V30 7064 C 671.764 -3.7914 2.01373 0
M  V30 7065 C 670.997 -5.05549 1.71043 0
M  V30 7066 O 671.22 -5.66874 0.633213 0
M  V30 7067 O 670.154 -5.44764 2.5596 0
M  V30 7068 H 673.98 -2.16918 2.12556 0
M  V30 7069 H 671.565 -1.02007 1.09156 0
M  V30 7070 H 673.447 -4.15729 0.689006 0
M  V30 7071 H 672.122 -3.23616 -0.0736634 0
M  V30 7072 H 671.029 -3.00233 2.23183 0
M  V30 7073 H 672.362 -3.96186 2.92058 0
M  V30 7074 N 674.014 -1.12206 -1.10668 0
M  V30 7075 C 675.43 -0.857619 -1.346 0
M  V30 7076 C 675.63 0.513542 -1.94846 0
M  V30 7077 O 674.686 1.26273 -2.18658 0
M  V30 7078 C 675.999 -1.97212 -2.26998 0
M  V30 7079 C 677.547 -2.00272 -2.40542 0
M  V30 7080 C 678.022 -3.10948 -3.36267 0
M  V30 7081 N 679.513 -3.10375 -3.43834 0
M  V30 7082 C 680.248 -3.92651 -4.17867 0
M  V30 7083 N 679.744 -4.84911 -4.94807 0
M  V30 7084 N 681.537 -3.80798 -4.1346 0
M  V30 7085 H 673.688 -2.00558 -0.699306 0
M  V30 7086 H 675.951 -0.872612 -0.370477 0
M  V30 7087 H 675.657 -2.96002 -1.89936 0
M  V30 7088 H 675.531 -1.87521 -3.27286 0
M  V30 7089 H 677.918 -1.02103 -2.76874 0
M  V30 7090 H 677.999 -2.14037 -1.40077 0
M  V30 7091 H 677.643 -4.09348 -3.00661 0
M  V30 7092 H 677.573 -2.94421 -4.36605 0
M  V30 7093 H 680.064 -2.43536 -2.88961 0
M  V30 7094 H 680.377 -5.44207 -5.48688 0
M  V30 7095 H 678.722 -4.88926 -4.93939 0
M  V30 7096 H 681.913 -3.08058 -3.52445 0
M  V30 7097 H 682.086 -4.4515 -4.70898 0
M  V30 7098 N 675.492 1.28418 -0.913599 0
M  V30 7099 C 676.442 2.24928 -0.373042 0
M  V30 7100 C 677.426 1.52444 0.514753 0
M  V30 7101 O 678.618 1.73414 0.3545 0
M  V30 7102 C 675.747 3.41124 0.385896 0
M  V30 7103 C 674.833 4.20929 -0.51761 0
M  V30 7104 N 675.224 4.78777 -1.63113 0
M  V30 7105 C 673.522 4.44865 -0.317969 0
M  V30 7106 C 674.223 5.38822 -2.19193 0
M  V30 7107 N 673.199 5.22974 -1.48321 0
M  V30 7108 H 677.001 2.67224 -1.22346 0
M  V30 7109 H 674.515 1.43187 -0.766236 0
M  V30 7110 H 676.512 4.09347 0.789997 0
M  V30 7111 H 675.172 3.00362 1.23341 0
M  V30 7112 H 676.183 4.77148 -2.01372 0
M  V30 7113 H 672.86 4.14614 0.49004 0
M  V30 7114 H 674.25 5.94615 -3.12861 0
M  V30 7115 N 676.97 0.677563 1.42291 0
M  V30 7116 C 677.88 0.000962654 2.346 0
M  V30 7117 C 678.896 -0.785833 1.55244 0
M  V30 7118 O 680.072 -0.727523 1.87801 0
M  V30 7119 C 677.137 -0.936746 3.33805 0
M  V30 7120 C 676.198 -0.144173 4.29058 0
M  V30 7121 C 675.431 -1.03722 5.23524 0
M  V30 7122 O 675.654 -2.27675 5.22992 0
M  V30 7123 O 674.588 -0.496542 5.99848 0
M  V30 7124 H 678.414 0.761397 2.94001 0
M  V30 7125 H 675.999 0.43781 1.42841 0
M  V30 7126 H 677.881 -1.47497 3.94744 0
M  V30 7127 H 676.556 -1.67698 2.76874 0
M  V30 7128 H 675.463 0.438224 3.71524 0
M  V30 7129 H 676.796 0.55701 4.89038 0
M  V30 7130 N 678.448 -1.51871 0.421078 0
M  V30 7131 C 679.694 -2.02237 -0.151014 0
M  V30 7132 C 680.027 -1.30554 -1.43768 0
M  V30 7133 O 679.302 -0.41546 -1.90011 0
M  V30 7134 C 679.585 -3.5802 -0.386482 0
M  V30 7135 C 679.438 -4.40339 0.9177 0
M  V30 7136 C 680.757 -4.24444 -1.16342 0
M  V30 7137 H 677.876 -0.735062 -0.0534102 0
M  V30 7138 H 680.518 -1.81656 0.556888 0
M  V30 7139 H 678.668 -3.75688 -0.989494 0
M  V30 7140 H 680.34 -4.34357 1.55344 0
M  V30 7141 H 678.583 -4.06073 1.526 0
M  V30 7142 H 679.254 -5.47451 0.707187 0
M  V30 7143 H 681.73 -4.10948 -0.652788 0
M  V30 7144 H 680.606 -5.33358 -1.29693 0
M  V30 7145 H 680.867 -3.84204 -2.18724 0
M  V30 7146 N 679.926 -0.151884 -1.56866 0
M  V30 7147 C 680.858 0.817008 -2.14144 0
M  V30 7148 C 681.871 1.20735 -1.0921 0
M  V30 7149 O 683.06 1.15058 -1.36469 0
M  V30 7150 C 680.16 2.10844 -2.65326 0
M  V30 7151 C 679.333 1.88471 -3.94712 0
M  V30 7152 C 678.392 3.01649 -4.31155 0
M  V30 7153 O 677.418 2.73127 -4.9939 0
M  V30 7154 N 678.62 4.28947 -3.91132 0
M  V30 7155 H 681.385 0.327448 -2.97906 0
M  V30 7156 H 678.946 0.0315313 -1.61869 0
M  V30 7157 H 680.938 2.85616 -2.86715 0
M  V30 7158 H 679.508 2.51049 -1.86262 0
M  V30 7159 H 678.728 0.977088 -3.81899 0
M  V30 7160 H 680.016 1.70866 -4.79252 0
M  V30 7161 H 679.414 4.54986 -3.36161 0
M  V30 7162 H 677.971 5.00484 -4.17563 0
M  V30 7163 N 681.404 1.57128 0.121893 0
M  V30 7164 C 682.334 2.03165 1.15092 0
M  V30 7165 C 683.315 0.915587 1.43356 0
M  V30 7166 O 684.5 1.1851 1.53847 0
M  V30 7167 C 681.63 2.43352 2.47784 0
M  V30 7168 C 680.584 3.58376 2.33989 0
M  V30 7169 C 679.91 3.84454 3.71617 0
M  V30 7170 C 681.21 4.90199 1.80283 0
M  V30 7171 H 682.904 2.89382 0.768023 0
M  V30 7172 H 680.45 1.39218 0.367998 0
M  V30 7173 H 682.403 2.74163 3.20019 0
M  V30 7174 H 681.127 1.54103 2.87958 0
M  V30 7175 H 679.786 3.2777 1.64202 0
M  V30 7176 H 679.434 2.92414 4.09271 0
M  V30 7177 H 679.134 4.61877 3.6324 0
M  V30 7178 H 680.658 4.17714 4.45362 0
M  V30 7179 H 682.072 5.19565 2.42333 0
M  V30 7180 H 680.469 5.71601 1.82735 0
M  V30 7181 H 681.539 4.78904 0.760184 0
M  V30 7182 N 682.882 -0.391992 1.52647 0
M  V30 7183 C 684.159 -1.15136 1.58123 0
M  V30 7184 C 684.539 -2.07786 0.372597 0
M  V30 7185 O 683.887 -2.19374 -0.639304 0
M  V30 7186 C 684.097 -1.91367 2.91856 0
M  V30 7187 C 685.445 -2.46833 3.45483 0
M  V30 7188 O 686.469 -2.01527 2.9371 0
M  V30 7189 O 685.328 -3.29587 4.3593 0
M  V30 7190 H 682.422 -0.526649 0.637629 0
M  V30 7191 H 684.968 -0.397386 1.64982 0
M  V30 7192 H 683.74 -1.23597 3.71268 0
M  V30 7193 H 683.363 -2.73732 2.88369 0
M  V30 7194 N 684.36 -1.4356 -0.65026 0
M  V30 7195 C 685.293 -1.434 -1.77515 0
M  V30 7196 C 686.271 -0.295082 -1.599 0
M  V30 7197 O 687.455 -0.489128 -1.82043 0
M  V30 7198 C 684.582 -1.2484 -3.14853 0
M  V30 7199 C 683.628 -2.42046 -3.51163 0
M  V30 7200 S 684.461 -4.04595 -3.50803 0
M  V30 7201 C 685.617 -3.88424 -4.90793 0
M  V30 7202 H 685.85 -2.38586 -1.77381 0
M  V30 7203 H 683.383 -1.30627 -0.823169 0
M  V30 7204 H 685.341 -1.14819 -3.94115 0
M  V30 7205 H 684.002 -0.311977 -3.12547 0
M  V30 7206 H 683.195 -2.24873 -4.51052 0
M  V30 7207 H 682.797 -2.48708 -2.79321 0
M  V30 7208 H 685.089 -3.50932 -5.79528 0
M  V30 7209 H 686.032 -4.88076 -5.13018 0
M  V30 7210 H 686.44 -3.20829 -4.64467 0
M  V30 7211 N 685.838 0.888903 -1.30139 0
M  V30 7212 C 686.748 2.02705 -1.18101 0
M  V30 7213 C 687.764 1.73702 -0.101809 0
M  V30 7214 O 688.94 1.98906 -0.315984 0
M  V30 7215 C 686.005 3.35616 -0.869651 0
M  V30 7216 C 685.066 3.78067 -2.03381 0
M  V30 7217 C 684.299 5.04635 -1.73721 0
M  V30 7218 O 684.522 5.66531 -0.663267 0
M  V30 7219 O 683.456 5.43399 -2.58845 0
M  V30 7220 H 687.282 2.15788 -2.13704 0
M  V30 7221 H 684.867 1.01426 -1.09695 0
M  V30 7222 H 686.749 4.15358 -0.711043 0
M  V30 7223 H 685.424 3.23651 0.0565002 0
M  V30 7224 H 684.331 2.99046 -2.24772 0
M  V30 7225 H 685.664 3.94631 -2.94155 0
M  V30 7226 N 687.317 1.12792 1.10072 0
M  V30 7227 C 688.728 0.899346 1.63611 0
M  V30 7228 C 689.079 -0.565547 1.87872 0
M  V30 7229 O 688.204 -1.43081 1.62348 0
M  V30 7230 C 688.799 1.62608 2.97227 0
M  V30 7231 C 687.358 1.44356 3.47618 0
M  V30 7232 C 686.505 1.65958 2.22156 0
M  V30 7233 H 689.456 1.28216 0.935223 0
M  V30 7234 H 689.477 1.0793 3.64872 0
M  V30 7235 H 688.989 2.69221 2.79538 0
M  V30 7236 H 687.09 0.400148 3.70445 0
M  V30 7237 H 687.203 2.20218 4.25489 0
M  V30 7238 H 685.567 1.08395 2.30484 0
M  V30 7239 H 686.35 2.73877 2.06993 0
M  V30 7240 N 688.795 -1.27931 0.920396 0
M  V30 7241 C 689.727 -2.26175 0.371169 0
M  V30 7242 C 690.74 -1.55122 -0.494065 0
M  V30 7243 O 691.929 -1.75825 -0.30787 0
M  V30 7244 C 689.029 -3.35376 -0.487481 0
M  V30 7245 C 688.202 -4.35943 0.356772 0
M  V30 7246 C 687.261 -5.24374 -0.438042 0
M  V30 7247 O 686.287 -5.68998 0.151715 0
M  V30 7248 N 687.489 -5.53823 -1.73956 0
M  V30 7249 H 690.254 -2.73938 1.21564 0
M  V30 7250 H 687.815 -1.41482 0.787047 0
M  V30 7251 H 689.807 -3.91476 -1.02609 0
M  V30 7252 H 688.377 -2.87269 -1.23269 0
M  V30 7253 H 687.597 -3.7921 1.07672 0
M  V30 7254 H 688.885 -5.0015 0.934206 0
M  V30 7255 H 688.283 -5.19413 -2.24114 0
M  V30 7256 H 686.84 -6.12653 -2.22486 0
M  V30 7257 N 690.273 -0.685099 -1.4193 0
M  V30 7258 C 691.521 -0.21124 -2.00993 0
M  V30 7259 C 691.842 1.18985 -1.54491 0
M  V30 7260 O 691.112 1.8009 -0.771 0
M  V30 7261 H 689.692 -0.0751059 -0.743215 0
M  V30 7262 H 692.354 -0.883915 -1.73704 0
M  V30 7263 H 691.45 -0.220513 -3.1132 0
M  V30 7264 N 691.751 1.51645 -0.429126 0
M  V30 7265 C 692.991 2.03924 0.139354 0
M  V30 7266 C 693.355 1.30673 1.40672 0
M  V30 7267 O 694.556 1.73282 2.05491 0
M  V30 7268 C 692.827 3.5557 0.361179 0
M  V30 7269 S 694.386 4.29591 0.894241 0
M  V30 7270 H 691.204 0.710103 0.0356986 0
M  V30 7271 H 693.806 1.86491 -0.586644 0
M  V30 7272 H 692.51 4.06455 -0.567686 0
M  V30 7273 H 692.041 3.77283 1.11449 0
M  V30 7274 H 694.056 4.46102 2.17272 0
M  V30 7275 N 693.229 0.160201 1.56784 0
M  V30 7276 C 694.159 -0.770264 2.2043 0
M  V30 7277 C 695.14 -1.24736 1.15651 0
M  V30 7278 O 696.325 -1.30253 1.44041 0
M  V30 7279 C 693.455 -2.00427 2.83631 0
M  V30 7280 C 692.409 -1.66345 3.94352 0
M  V30 7281 C 691.735 -2.97119 4.4455 0
M  V30 7282 C 693.035 -0.899972 5.14488 0
M  V30 7283 H 694.729 -0.239783 2.98438 0
M  V30 7284 H 692.275 -0.113891 1.43549 0
M  V30 7285 H 694.228 -2.66012 3.26827 0
M  V30 7286 H 692.952 -2.5587 2.02973 0
M  V30 7287 H 691.611 -1.03133 3.51794 0
M  V30 7288 H 691.259 -3.5058 3.60698 0
M  V30 7289 H 690.959 -2.75073 5.19238 0
M  V30 7290 H 692.483 -3.63753 4.90425 0
M  V30 7291 H 693.897 -1.45818 5.54446 0
M  V30 7292 H 692.294 -0.778968 5.95023 0
M  V30 7293 H 693.364 0.105827 4.84785 0
M  V30 7294 N 694.707 -1.5719 -0.113559 0
M  V30 7295 C 695.953 -1.85412 -0.821597 0
M  V30 7296 C 696.286 -0.746722 -1.7927 0
M  V30 7297 O 695.561 0.246971 -1.92926 0
M  V30 7298 C 695.844 -3.24233 -1.56669 0
M  V30 7299 C 695.697 -4.45578 -0.614823 0
M  V30 7300 C 697.016 -3.60697 -2.52161 0
M  V30 7301 H 694.135 -0.674406 -0.29723 0
M  V30 7302 H 696.777 -1.89807 -0.085694 0
M  V30 7303 H 694.927 -3.20617 -2.19401 0
M  V30 7304 H 696.599 -4.613 0.00407137 0
M  V30 7305 H 694.842 -4.33738 0.0732332 0
M  V30 7306 H 695.513 -5.39395 -1.17292 0
M  V30 7307 H 697.989 -3.65139 -1.99532 0
M  V30 7308 H 696.865 -4.58798 -3.01323 0
M  V30 7309 H 697.126 -2.88403 -3.35076 0
M  V30 7310 N 696.185 0.383891 -1.52853 0
M  V30 7311 C 697.148 1.45197 -1.77343 0
M  V30 7312 C 698.148 1.47362 -0.643522 0
M  V30 7313 O 699.338 1.48443 -0.911613 0
M  V30 7314 C 696.47 2.8445 -1.87885 0
M  V30 7315 H 697.663 1.24764 -2.72716 0
M  V30 7316 H 695.216 0.615939 -1.43652 0
M  V30 7317 H 695.951 3.10222 -0.94515 0
M  V30 7318 H 695.736 2.8428 -2.70051 0
M  V30 7319 H 697.226 3.61832 -2.08488 0
M  V30 7320 N 697.663 1.43903 0.642637 0
M  V30 7321 C 698.573 1.52349 1.78401 0
M  V30 7322 C 699.589 0.409869 1.69104 0
M  V30 7323 O 700.765 0.665548 1.90085 0
M  V30 7324 C 697.83 1.45408 3.14734 0
M  V30 7325 C 696.891 2.67528 3.35749 0
M  V30 7326 C 696.124 2.60909 4.65577 0
M  V30 7327 O 696.347 1.6627 5.45628 0
M  V30 7328 O 695.281 3.5158 4.88544 0
M  V30 7329 H 699.107 2.48752 1.7423 0
M  V30 7330 H 696.692 1.26021 0.802439 0
M  V30 7331 H 698.574 1.44019 3.96026 0
M  V30 7332 H 697.249 0.521437 3.19473 0
M  V30 7333 H 696.156 2.74487 2.5418 0
M  V30 7334 H 697.489 3.598 3.35864 0
M  V30 7335 N 699.141 -0.881989 1.30609 0
M  V30 7336 C 700.387 -1.63647 1.19781 0
M  V30 7337 C 700.72 -1.92632 -0.246265 0
M  V30 7338 O 699.995 -1.54938 -1.17577 0
M  V30 7339 C 700.278 -2.97437 2.02985 0
M  V30 7340 C 700.131 -2.75406 3.55628 0
M  V30 7341 C 701.45 -3.98397 1.86997 0
M  V30 7342 H 698.569 -0.593841 0.436488 0
M  V30 7343 H 701.211 -1.02041 1.60273 0
M  V30 7344 H 699.361 -3.50018 1.68581 0
M  V30 7345 H 701.033 -2.2959 4.00107 0
M  V30 7346 H 699.276 -2.09856 3.79662 0
M  V30 7347 H 699.947 -3.70552 4.09139 0
M  V30 7348 H 702.423 -3.54986 2.17081 0
M  V30 7349 H 701.299 -4.89916 2.47536 0
M  V30 7350 H 701.56 -4.3424 0.829943 0
M  V30 7351 N 700.619 -1.13374 -1.09472 0
M  V30 7352 C 701.847 -0.918351 -1.85402 0
M  V30 7353 C 702.262 0.53281 -1.81126 0
M  V30 7354 O 701.619 1.36879 -1.20708 0
M  V30 7355 C 701.67 -1.39743 -3.33398 0
M  V30 7356 O 701.391 -2.79172 -3.37631 0
M  V30 7357 C 702.892 -1.22042 -4.2617 0
M  V30 7358 H 700.112 -0.327511 -0.585643 0
M  V30 7359 H 702.656 -1.50617 -1.38328 0
M  V30 7360 H 700.811 -0.852619 -3.77901 0
M  V30 7361 H 701.225 -3.00428 -4.29934 0
M  V30 7362 H 702.699 -1.60438 -5.2817 0
M  V30 7363 H 703.176 -0.162047 -4.38901 0
M  V30 7364 H 703.782 -1.75323 -3.87482 0
M  V30 7365 N 702.098 1.27442 -0.927168 0
M  V30 7366 C 703.345 1.94391 -0.567324 0
M  V30 7367 C 703.673 1.72875 0.891321 0
M  V30 7368 O 702.928 1.05071 1.65102 0
M  V30 7369 C 703.227 3.47413 -0.838994 0
M  V30 7370 C 702.893 3.89049 -2.2793 0
M  V30 7371 C 701.555 4.00127 -2.67305 0
M  V30 7372 C 703.907 4.10154 -3.21595 0
M  V30 7373 C 701.235 4.29697 -3.99471 0
M  V30 7374 C 703.587 4.41208 -4.53341 0
M  V30 7375 C 702.251 4.50499 -4.92551 0
M  V30 7376 H 701.521 0.711325 -0.207598 0
M  V30 7377 H 704.168 1.51523 -1.17103 0
M  V30 7378 H 702.473 3.91503 -0.152609 0
M  V30 7379 H 704.17 3.97354 -0.53955 0
M  V30 7380 H 700.76 3.80962 -1.96381 0
M  V30 7381 H 704.944 4.01036 -2.92377 0
M  V30 7382 H 700.2 4.35099 -4.29533 0
M  V30 7383 H 704.374 4.56486 -5.25922 0
M  V30 7384 H 702.001 4.73167 -5.94994 0
M  V30 7385 N 703.576 0.692616 1.41565 0
M  V30 7386 C 704.992 0.363878 1.55397 0
M  V30 7387 C 705.192 -1.1294 1.66874 0
M  V30 7388 O 704.248 -1.91517 1.64552 0
M  V30 7389 C 705.561 1.10982 2.7947 0
M  V30 7390 C 707.109 1.09387 2.93263 0
M  V30 7391 C 707.584 1.8215 4.20221 0
M  V30 7392 N 709.075 1.79105 4.27172 0
M  V30 7393 C 709.81 2.32247 5.2426 0
M  V30 7394 N 709.306 2.93847 6.27396 0
M  V30 7395 N 711.099 2.22519 5.1618 0
M  V30 7396 H 703.25 1.66116 1.3236 0
M  V30 7397 H 705.513 0.700848 0.63837 0
M  V30 7398 H 705.219 2.1647 2.77188 0
M  V30 7399 H 705.093 0.686492 3.709 0
M  V30 7400 H 707.48 0.0472638 2.95062 0
M  V30 7401 H 707.561 1.55623 2.03015 0
M  V30 7402 H 707.205 2.86789 4.19183 0
M  V30 7403 H 707.135 1.33351 5.09436 0
M  V30 7404 H 709.626 1.34191 3.53272 0
M  V30 7405 H 709.939 3.31972 6.97864 0
M  V30 7406 H 708.284 2.97924 6.27906 0
M  V30 7407 H 711.475 1.7407 4.34531 0
M  V30 7408 H 711.648 2.64239 5.91677 0
M  V30 7409 N 705.054 -1.51416 0.437162 0
M  V30 7410 C 706.002 -2.29328 -0.388765 0
M  V30 7411 C 706.996 -1.35171 -1.02104 0
M  V30 7412 O 708.202 -1.52513 -0.956024 0
M  V30 7413 H 704.577 -0.738048 -0.144183 0
M  V30 7414 H 706.548 -2.96995 0.289212 0
M  V30 7415 C 705.297 -3.14741 -1.47761 0
M  V30 7416 H 704.62 -3.8708 -1.00045 0
M  V30 7417 H 706.06 -3.72313 -2.02877 0
M  V30 7418 C 704.519 -2.30105 -2.46076 0
M  V30 7419 O 705.049 -1.96055 -3.50607 0
M  V30 7420 N 703.255 -1.93331 -2.1696 0
M  V30 7421 H 702.802 -2.2122 -1.31983 0
M  V30 7422 H 702.76 -1.36999 -2.82982 0
M  V30 7423 N 706.532 -0.168513 -1.56696 0
M  V30 7424 C 707.943 0.348694 -1.83415 0
M  V30 7425 C 708.294 1.63257 -1.0882 0
M  V30 7426 O 707.419 2.13707 -0.340333 0
M  V30 7427 C 708.014 0.639423 -3.32711 0
M  V30 7428 C 706.573 1.10108 -3.59935 0
M  V30 7429 C 705.72 0.135464 -2.76969 0
M  V30 7430 H 708.671 -0.392829 -1.53761 0
M  V30 7431 H 708.692 1.49179 -3.50037 0
M  V30 7432 H 708.204 -0.295173 -3.86976 0
M  V30 7433 H 706.305 2.05088 -3.11079 0
M  V30 7434 H 706.418 1.01218 -4.68286 0
M  V30 7435 H 704.782 0.632286 -2.46727 0
M  V30 7436 H 705.565 -0.793104 -3.34013 0
M  V30 7437 N 708.01 1.57248 0.105221 0
M  V30 7438 C 709.256 1.85845 0.811753 0
M  V30 7439 C 709.589 0.756219 1.78871 0
M  V30 7440 O 708.864 -0.236736 1.93054 0
M  V30 7441 C 709.147 3.25059 1.54947 0
M  V30 7442 C 709 4.45898 0.591185 0
M  V30 7443 C 710.319 3.6203 2.50245 0
M  V30 7444 H 707.438 0.675973 0.293649 0
M  V30 7445 H 710.08 1.89849 0.0756269 0
M  V30 7446 H 708.23 3.21776 2.17698 0
M  V30 7447 H 709.902 4.61291 -0.0285352 0
M  V30 7448 H 708.145 4.33693 -0.0962343 0
M  V30 7449 H 708.816 5.40009 1.1443 0
M  V30 7450 H 711.292 3.66192 1.97593 0
M  V30 7451 H 710.168 4.60389 2.98886 0
M  V30 7452 H 710.429 2.90176 3.33542 0
M  V30 7453 N 709.488 -0.375779 1.53054 0
M  V30 7454 C 710.737 -1.11674 1.67964 0
M  V30 7455 C 711.05 -1.90755 0.432655 0
M  V30 7456 O 712.256 -2.67538 0.462109 0
M  V30 7457 C 710.712 -2.0344 2.96884 0
M  V30 7458 C 710.32 -1.29719 4.28809 0
M  V30 7459 C 712.064 -2.7759 3.2116 0
M  V30 7460 C 709.971 -2.20327 5.48826 0
M  V30 7461 H 708.901 -0.420597 0.625791 0
M  V30 7462 H 711.552 -0.378499 1.79554 0
M  V30 7463 H 709.934 -2.80953 2.79072 0
M  V30 7464 H 711.108 -0.573394 4.57219 0
M  V30 7465 H 709.423 -0.674735 4.10897 0
M  V30 7466 H 712.02 -3.4559 4.0801 0
M  V30 7467 H 712.363 -3.42399 2.36789 0
M  V30 7468 H 712.896 -2.07164 3.396 0
M  V30 7469 H 709.635 -1.60113 6.35645 0
M  V30 7470 H 709.155 -2.90585 5.2471 0
M  V30 7471 H 710.834 -2.80116 5.83219 0
M  V30 7472 N 710.966 -1.44241 -0.634997 0
M  V30 7473 C 711.876 -1.53293 -1.77591 0
M  V30 7474 C 712.892 -0.418831 -1.68884 0
M  V30 7475 O 714.068 -0.675619 -1.8973 0
M  V30 7476 C 711.133 -1.47075 -3.13958 0
M  V30 7477 C 710.194 -2.69304 -3.34326 0
M  V30 7478 C 709.427 -2.63374 -4.64187 0
M  V30 7479 O 709.65 -1.69161 -5.44739 0
M  V30 7480 O 708.584 -3.54166 -4.86673 0
M  V30 7481 H 712.41 -2.49673 -1.72908 0
M  V30 7482 H 709.995 -1.26445 -0.795745 0
M  V30 7483 H 711.877 -1.46117 -3.95257 0
M  V30 7484 H 710.552 -0.538373 -3.19192 0
M  V30 7485 H 709.459 -2.75831 -2.52721 0
M  V30 7486 H 710.792 -3.61576 -3.33951 0
M  V30 7487 N 712.444 0.87505 -1.31075 0
M  V30 7488 C 713.86 1.15997 -1.09622 0
M  V30 7489 C 714.06 2.01036 0.136611 0
M  V30 7490 O 713.116 2.38559 0.827397 0
M  V30 7491 C 714.429 1.85702 -2.36506 0
M  V30 7492 C 715.977 1.98425 -2.42067 0
M  V30 7493 C 716.452 2.71544 -3.68819 0
M  V30 7494 N 717.943 2.79084 -3.69684 0
M  V30 7495 C 718.678 3.36259 -4.64454 0
M  V30 7496 N 718.174 3.94406 -5.69575 0
M  V30 7497 N 719.967 3.34169 -4.51982 0
M  V30 7498 H 712.118 0.308258 -2.10151 0
M  V30 7499 H 714.381 0.199145 -0.926847 0
M  V30 7500 H 714.087 1.30663 -3.26527 0
M  V30 7501 H 713.961 2.86017 -2.45915 0
M  V30 7502 H 716.348 2.5263 -1.52518 0
M  V30 7503 H 716.429 0.971682 -2.36626 0
M  V30 7504 H 716.073 2.18008 -4.58732 0
M  V30 7505 H 716.003 3.73198 -3.71525 0
M  V30 7506 H 718.494 2.3781 -2.93691 0
M  V30 7507 H 718.807 4.36129 -6.37974 0
M  V30 7508 H 717.152 3.92797 -5.73355 0
M  V30 7509 H 720.343 2.87977 -3.69035 0
M  V30 7510 H 720.516 3.78431 -5.26017 0
M  V30 7511 N 713.922 1.13953 1.08869 0
M  V30 7512 C 715.171 0.899431 1.80536 0
M  V30 7513 C 715.484 -0.575781 1.86933 0
M  V30 7514 O 716.69 -0.932988 2.54966 0
M  V30 7515 C 715.146 1.55963 3.24351 0
M  V30 7516 C 714.754 3.07077 3.26202 0
M  V30 7517 C 716.498 1.40046 4.00733 0
M  V30 7518 C 714.405 3.65955 4.64576 0
M  V30 7519 H 713.335 0.332849 0.676556 0
M  V30 7520 H 715.986 1.3679 1.22314 0
M  V30 7521 H 714.368 1.01883 3.82669 0
M  V30 7522 H 715.542 3.67785 2.77617 0
M  V30 7523 H 713.857 3.22576 2.63312 0
M  V30 7524 H 716.454 1.81441 5.02974 0
M  V30 7525 H 716.797 0.345993 4.1486 0
M  V30 7526 H 717.33 1.91137 3.48872 0
M  V30 7527 H 714.069 4.71234 4.55652 0
M  V30 7528 H 713.589 3.10027 5.13462 0
M  V30 7529 H 715.268 3.65968 5.33551 0
M  V30 7530 N 715.4 -1.26948 0.933913 0
M  V30 7531 C 716.811 -1.76058 0.621324 0
M  V30 7532 C 717.162 -1.76175 -0.863522 0
M  V30 7533 O 716.287 -1.36921 -1.67576 0
M  V30 7534 C 716.882 -3.19713 1.12111 0
M  V30 7535 C 715.441 -3.66465 0.859074 0
M  V30 7536 C 714.588 -2.46186 1.27624 0
M  V30 7537 H 717.539 -1.13127 1.11301 0
M  V30 7538 H 717.56 -3.77566 0.471608 0
M  V30 7539 H 717.072 -3.19596 2.20182 0
M  V30 7540 H 715.173 -3.72021 -0.207566 0
M  V30 7541 H 715.286 -4.55636 1.48098 0
M  V30 7542 H 713.65 -2.45042 0.694727 0
M  V30 7543 H 714.433 -2.48774 2.36572 0
M  V30 7544 N 716.879 -0.700114 -1.41195 0
M  V30 7545 C 718.295 -0.372114 -1.55201 0
M  V30 7546 C 718.495 1.12053 -1.6747 0
M  V30 7547 O 717.551 1.90642 -1.65566 0
M  V30 7548 C 718.864 -1.12462 -2.78878 0
M  V30 7549 C 720.412 -1.10941 -2.92679 0
M  V30 7550 C 720.887 -1.84376 -4.19249 0
M  V30 7551 N 722.378 -1.81368 -4.26216 0
M  V30 7552 C 723.113 -2.35024 -5.23021 0
M  V30 7553 N 722.609 -2.9717 -6.25829 0
M  V30 7554 N 724.402 -2.25254 -5.14992 0
M  V30 7555 H 716.553 -1.66816 -1.31477 0
M  V30 7556 H 718.816 -0.704223 -0.634644 0
M  V30 7557 H 718.522 -2.17937 -2.76037 0
M  V30 7558 H 718.396 -0.706152 -3.70531 0
M  V30 7559 H 720.783 -0.062911 -2.95033 0
M  V30 7560 H 720.864 -1.56698 -2.02187 0
M  V30 7561 H 720.508 -2.89008 -4.17656 0
M  V30 7562 H 720.438 -1.3605 -5.08722 0
M  V30 7563 H 722.929 -1.36062 -3.52556 0
M  V30 7564 H 723.242 -3.35668 -6.96094 0
M  V30 7565 H 721.587 -3.01249 -6.26318 0
M  V30 7566 H 724.778 -1.76372 -4.33602 0
M  V30 7567 H 724.951 -2.67373 -5.90268 0
M  V30 7568 N 718.357 1.51182 -0.445186 0
M  V30 7569 C 719.287 2.30821 0.352686 0
M  V30 7570 C 720.268 1.36576 1.01395 0
M  V30 7571 O 721.453 1.65497 1.01609 0
M  V30 7572 C 718.583 3.15593 1.44976 0
M  V30 7573 C 717.537 4.1818 0.911553 0
M  V30 7574 C 716.863 4.91523 2.10497 0
M  V30 7575 C 718.163 5.22266 -0.059418 0
M  V30 7576 H 719.857 2.97771 -0.311936 0
M  V30 7577 H 717.403 1.43201 -0.151461 0
M  V30 7578 H 719.356 3.70091 2.01521 0
M  V30 7579 H 718.08 2.4648 2.14278 0
M  V30 7580 H 716.739 3.64746 0.368264 0
M  V30 7581 H 716.387 4.18906 2.78437 0
M  V30 7582 H 716.087 5.60898 1.7512 0
M  V30 7583 H 717.611 5.48847 2.6758 0
M  V30 7584 H 719.025 5.71789 0.415985 0
M  V30 7585 H 717.422 5.99213 -0.326152 0
M  V30 7586 H 718.492 4.7461 -0.993631 0
M  V30 7587 N 719.835 0.176821 1.56605 0
M  V30 7588 C 721.251 -0.179278 1.5859 0
M  V30 7589 C 721.451 -1.62433 1.19238 0
M  V30 7590 O 720.507 -2.35665 0.906552 0
M  V30 7591 C 721.82 0.106524 3.00511 0
M  V30 7592 C 723.368 0.0451731 3.12967 0
M  V30 7593 C 723.843 0.304038 4.5699 0
M  V30 7594 N 725.334 0.252008 4.62514 0
M  V30 7595 C 726.069 0.426404 5.71812 0
M  V30 7596 N 725.565 0.660155 6.89648 0
M  V30 7597 N 727.358 0.361926 5.60934 0
M  V30 7598 H 719.509 1.12001 1.8047 0
M  V30 7599 H 721.772 0.445679 0.836704 0
M  V30 7600 H 721.478 1.10778 3.33798 0
M  V30 7601 H 721.352 -0.599337 3.72408 0
M  V30 7602 H 723.739 -0.946662 2.79504 0
M  V30 7603 H 723.82 0.78383 2.43495 0
M  V30 7604 H 723.464 1.29311 4.91163 0
M  V30 7605 H 723.394 -0.455294 5.24628 0
M  V30 7606 H 725.885 0.0772102 3.77821 0
M  V30 7607 H 726.198 0.782529 7.68828 0
M  V30 7608 H 724.543 0.696835 6.91498 0
M  V30 7609 H 727.734 0.17986 4.67754 0
M  V30 7610 H 727.907 0.501263 6.46058 0
M  V30 7611 N 721.313 -1.57302 -0.09688 0
M  V30 7612 C 722.729 -1.53094 -0.451041 0
M  V30 7613 C 722.929 -0.893265 -1.80618 0
M  V30 7614 O 721.985 -0.485013 -2.47798 0
M  V30 7615 C 723.298 -2.9782 -0.415172 0
M  V30 7616 C 724.846 -3.09026 -0.497155 0
M  V30 7617 C 725.321 -4.55356 -0.491452 0
M  V30 7618 N 726.812 -4.59896 -0.552258 0
M  V30 7619 C 727.547 -5.70563 -0.569654 0
M  V30 7620 N 727.043 -6.90666 -0.543365 0
M  V30 7621 N 728.836 -5.58733 -0.614331 0
M  V30 7622 H 720.987 -1.97131 0.790771 0
M  V30 7623 H 723.25 -0.901211 0.294147 0
M  V30 7624 H 722.956 -3.47933 0.513362 0
M  V30 7625 H 722.83 -3.56416 -1.23481 0
M  V30 7626 H 725.217 -2.58902 -1.41611 0
M  V30 7627 H 725.298 -2.53386 0.35059 0
M  V30 7628 H 724.942 -5.06131 0.423549 0
M  V30 7629 H 724.872 -5.08832 -1.35639 0
M  V30 7630 H 727.363 -3.73456 -0.577842 0
M  V30 7631 H 727.676 -7.70769 -0.559873 0
M  V30 7632 H 726.021 -6.93123 -0.510441 0
M  V30 7633 H 729.212 -4.63809 -0.632387 0
M  V30 7634 H 729.385 -6.44984 -0.62442 0
M  V30 7635 N 722.791 0.367657 -1.53252 0
M  V30 7636 C 723.723 1.47032 -1.75824 0
M  V30 7637 C 724.736 1.49736 -0.63898 0
M  V30 7638 O 725.925 1.53253 -0.915193 0
M  V30 7639 C 723.025 2.85805 -1.82122 0
M  V30 7640 C 722.198 3.06822 -3.11736 0
M  V30 7641 C 721.257 4.25698 -3.09302 0
M  V30 7642 O 720.283 4.20972 -3.83107 0
M  V30 7643 N 721.485 5.33002 -2.29977 0
M  V30 7644 H 724.25 1.28048 -2.70968 0
M  V30 7645 H 721.811 0.557363 -1.52004 0
M  V30 7646 H 723.803 3.63465 -1.77975 0
M  V30 7647 H 722.373 2.98046 -0.942716 0
M  V30 7648 H 721.593 2.1684 -3.29202 0
M  V30 7649 H 722.881 3.17731 -3.97397 0
M  V30 7650 H 722.279 5.39703 -1.69521 0
M  V30 7651 H 720.836 6.09247 -2.3165 0
M  V30 7652 N 724.269 1.44576 0.627338 0
M  V30 7653 C 725.216 1.51734 1.73912 0
M  V30 7654 C 726.186 0.364745 1.62046 0
M  V30 7655 O 727.371 0.575503 1.81914 0
M  V30 7656 C 724.511 1.47116 3.12171 0
M  V30 7657 C 723.624 2.72778 3.34986 0
M  V30 7658 C 722.759 2.59968 4.63239 0
M  V30 7659 C 721.798 3.80776 4.79245 0
M  V30 7660 N 720.935 3.66618 5.98778 0
M  V30 7661 H 725.775 2.46722 1.6713 0
M  V30 7662 H 723.312 1.22444 0.815224 0
M  V30 7663 H 725.27 1.42429 3.92135 0
M  V30 7664 H 723.9 0.556928 3.17959 0
M  V30 7665 H 722.952 2.87637 2.48936 0
M  V30 7666 H 724.264 3.62441 3.42692 0
M  V30 7667 H 723.418 2.53135 5.51369 0
M  V30 7668 H 722.157 1.67872 4.57898 0
M  V30 7669 H 721.162 3.87989 3.89544 0
M  V30 7670 H 722.387 4.73913 4.86398 0
M  V30 7671 H 720.333 2.77277 5.9452 0
M  V30 7672 H 720.25 4.499 6.07557 0
M  V30 7673 H 721.518 3.63684 6.89459 0
M  V30 7674 N 725.747 -0.868086 1.31537 0
M  V30 7675 C 726.694 -1.97548 1.19346 0
M  V30 7676 C 727.664 -1.65913 0.0787922 0
M  V30 7677 O 728.849 -1.89129 0.251985 0
M  V30 7678 C 725.989 -3.32922 0.908692 0
M  V30 7679 C 725.102 -3.77141 2.10687 0
M  V30 7680 C 724.237 -5.01241 1.75873 0
M  V30 7681 C 723.276 -5.37914 2.92088 0
M  V30 7682 N 722.413 -6.53192 2.57457 0
M  V30 7683 H 727.253 -2.07307 2.14074 0
M  V30 7684 H 724.79 -1.01483 1.06487 0
M  V30 7685 H 726.748 -4.10867 0.724138 0
M  V30 7686 H 725.378 -3.228 -0.0017611 0
M  V30 7687 H 724.43 -2.94961 2.40213 0
M  V30 7688 H 725.742 -4.00248 2.97663 0
M  V30 7689 H 724.896 -5.86858 1.53891 0
M  V30 7690 H 723.635 -4.80041 0.86091 0
M  V30 7691 H 722.64 -4.50814 3.14717 0
M  V30 7692 H 723.865 -5.61077 3.82582 0
M  V30 7693 H 721.811 -6.33536 1.702 0
M  V30 7694 H 721.728 -6.76252 3.37963 0
M  V30 7695 H 722.996 -7.41997 2.38873 0
M  V30 7696 N 727.225 -1.14528 -1.08264 0
M  V30 7697 C 728.474 -0.908992 -1.80056 0
M  V30 7698 C 728.787 0.565859 -1.87236 0
M  V30 7699 O 729.993 0.919454 -2.55457 0
M  V30 7700 C 728.449 -1.57681 -3.23519 0
M  V30 7701 C 728.057 -3.08803 -3.24569 0
M  V30 7702 C 729.801 -1.4217 -3.99985 0
M  V30 7703 C 727.708 -3.68414 -4.62629 0
M  V30 7704 H 726.638 -0.336432 -0.674781 0
M  V30 7705 H 729.289 -1.37437 -1.21587 0
M  V30 7706 H 727.671 -1.03911 -3.82124 0
M  V30 7707 H 728.845 -3.69252 -2.75663 0
M  V30 7708 H 727.16 -3.23968 -2.61598 0
M  V30 7709 H 729.757 -1.84106 -5.02005 0
M  V30 7710 H 730.1 -0.367989 -4.1467 0
M  V30 7711 H 730.633 -1.92984 -3.47853 0
M  V30 7712 H 727.372 -4.73644 -4.53147 0
M  V30 7713 H 726.892 -3.12746 -5.11811 0
M  V30 7714 H 728.571 -3.68793 -5.31602 0
M  V30 7715 N 728.703 1.26451 -0.940633 0
M  V30 7716 C 729.95 1.93778 -0.587909 0
M  V30 7717 C 730.278 1.73811 0.872935 0
M  V30 7718 O 729.533 1.06816 1.63978 0
M  V30 7719 C 729.832 3.46503 -0.875794 0
M  V30 7720 C 729.498 3.86609 -2.32043 0
M  V30 7721 C 728.16 3.97269 -2.71534 0
M  V30 7722 C 730.512 4.0672 -3.25927 0
M  V30 7723 C 727.84 4.25436 -4.04006 0
M  V30 7724 C 730.192 4.36375 -4.57995 0
M  V30 7725 C 728.856 4.45249 -4.97302 0
M  V30 7726 H 728.126 0.709084 -0.215131 0
M  V30 7727 H 730.773 1.50272 -1.18704 0
M  V30 7728 H 729.078 3.91319 -0.194124 0
M  V30 7729 H 730.775 3.96759 -0.581665 0
M  V30 7730 H 727.365 3.78858 -2.00411 0
M  V30 7731 H 731.549 3.97912 -2.96614 0
M  V30 7732 H 726.805 4.30519 -4.34124 0
M  V30 7733 H 730.979 4.50882 -5.30734 0
M  V30 7734 H 728.606 4.66829 -5.99979 0
M  V30 7735 N 730.181 0.707592 1.40822 0
M  V30 7736 C 731.406 0.251626 2.05868 0
M  V30 7737 C 731.831 -1.09503 1.5294 0
M  V30 7738 O 731.189 -1.68806 0.661385 0
M  V30 7739 C 731.237 0.23287 3.59847 0
M  V30 7740 O 730.341 -0.788477 4.04792 0
M  V30 7741 H 729.682 0.119936 0.653078 0
M  V30 7742 H 732.212 0.96583 1.80369 0
M  V30 7743 H 732.222 0.0678204 4.07944 0
M  V30 7744 H 730.897 1.21565 3.97737 0
M  V30 7745 H 729.474 -0.591802 3.68174 0
M  V30 7746 N 731.66 -1.50943 0.453197 0
M  V30 7747 C 732.607 -2.28128 -0.350197 0
M  V30 7748 C 733.577 -1.32398 -1.00299 0
M  V30 7749 O 734.762 -1.61319 -1.01887 0
M  V30 7750 C 731.902 -3.13782 -1.43649 0
M  V30 7751 C 731.015 -4.24523 -0.800255 0
M  V30 7752 C 730.15 -4.97462 -1.86293 0
M  V30 7753 C 729.189 -6.00102 -1.20598 0
M  V30 7754 N 728.326 -6.66387 -2.21071 0
M  V30 7755 H 733.166 -2.96337 0.31434 0
M  V30 7756 H 730.703 -1.46151 0.166863 0
M  V30 7757 H 732.661 -3.6178 -2.07776 0
M  V30 7758 H 731.291 -2.47655 -2.07044 0
M  V30 7759 H 730.343 -3.80371 -0.0468651 0
M  V30 7760 H 731.655 -4.98009 -0.280777 0
M  V30 7761 H 730.809 -5.49088 -2.58044 0
M  V30 7762 H 729.548 -4.23642 -2.41617 0
M  V30 7763 H 728.553 -5.47753 -0.474 0
M  V30 7764 H 729.778 -6.75887 -0.659859 0
M  V30 7765 H 727.724 -5.9537 -2.75446 0
M  V30 7766 H 727.641 -7.3569 -1.74058 0
M  V30 7767 H 728.909 -7.22638 -2.92257 0
M  V30 7768 N 733.138 -0.185124 -1.56509 0
M  V30 7769 C 734.07 0.771401 -2.15829 0
M  V30 7770 C 735.083 1.18392 -1.11747 0
M  V30 7771 O 736.272 1.12137 -1.38879 0
M  V30 7772 C 733.372 2.05169 -2.69739 0
M  V30 7773 C 732.545 1.80056 -3.98621 0
M  V30 7774 C 731.604 2.92435 -4.37456 0
M  V30 7775 O 730.63 2.62473 -5.05071 0
M  V30 7776 N 731.832 4.20554 -4.00143 0
M  V30 7777 H 734.597 0.264184 -2.98533 0
M  V30 7778 H 732.158 -0.00281069 -1.619 0
M  V30 7779 H 734.15 2.7947 -2.92709 0
M  V30 7780 H 732.72 2.47041 -1.91545 0
M  V30 7781 H 731.94 0.895862 -3.83885 0
M  V30 7782 H 733.228 1.60662 -4.82768 0
M  V30 7783 H 732.626 4.47753 -3.45736 0
M  V30 7784 H 731.183 4.91514 -4.28085 0
M  V30 7785 N 734.616 1.57351 0.0885366 0
M  V30 7786 C 735.548 1.99221 1.13329 0
M  V30 7787 C 736.561 0.895705 1.35945 0
M  V30 7788 O 737.75 1.17376 1.34481 0
M  V30 7789 C 734.85 2.3016 2.48756 0
M  V30 7790 C 734.023 3.61444 2.46327 0
M  V30 7791 C 733.082 3.80244 3.63732 0
M  V30 7792 O 732.108 4.52024 3.45924 0
M  V30 7793 N 733.31 3.2132 4.8346 0
M  V30 7794 H 736.075 2.89456 0.776862 0
M  V30 7795 H 733.636 1.59505 0.277428 0
M  V30 7796 H 735.628 2.39925 3.25911 0
M  V30 7797 H 734.198 1.459 2.76464 0
M  V30 7798 H 733.418 3.62588 1.54673 0
M  V30 7799 H 734.706 4.47678 2.41789 0
M  V30 7800 H 734.104 2.63028 5.00832 0
M  V30 7801 H 732.661 3.3656 5.58185 0
M  V30 7802 N 736.094 -0.359525 1.53444 0
M  V30 7803 C 737.342 -1.09935 1.69584 0
M  V30 7804 C 737.663 -1.89656 0.453371 0
M  V30 7805 O 736.933 -1.8852 -0.53263 0
M  V30 7806 H 735.513 -0.408843 0.625185 0
M  V30 7807 H 738.175 -0.40467 1.90653 0
M  V30 7808 H 737.271 -1.78575 2.55964 0
M  V30 7809 N 737.572 -1.44907 -0.619662 0
M  V30 7810 C 738.519 -1.52654 -1.73105 0
M  V30 7811 C 739.489 -0.373334 -1.6185 0
M  V30 7812 O 740.674 -0.585143 -1.81606 0
M  V30 7813 C 737.814 -1.48769 -3.11387 0
M  V30 7814 C 736.927 -2.74551 -3.33535 0
M  V30 7815 C 736.062 -2.62421 -4.61854 0
M  V30 7816 C 735.101 -3.83312 -4.77219 0
M  V30 7817 N 734.238 -3.69789 -5.96826 0
M  V30 7818 H 739.078 -2.47605 -1.65819 0
M  V30 7819 H 736.615 -1.22875 -0.808719 0
M  V30 7820 H 738.573 -1.44507 -3.91374 0
M  V30 7821 H 737.203 -0.573783 -3.1766 0
M  V30 7822 H 736.255 -2.88953 -2.47408 0
M  V30 7823 H 737.567 -3.64253 -3.40765 0
M  V30 7824 H 736.721 -2.56056 -5.50019 0
M  V30 7825 H 735.46 -1.70298 -4.57001 0
M  V30 7826 H 734.465 -3.90049 -3.87481 0
M  V30 7827 H 735.69 -4.76486 -4.83878 0
M  V30 7828 H 733.636 -2.80426 -5.93041 0
M  V30 7829 H 733.553 -4.53116 -6.05163 0
M  V30 7830 H 734.821 -3.67335 -6.87521 0
M  V30 7831 N 739.05 0.861098 -1.31996 0
M  V30 7832 C 740.013 1.95068 -1.20338 0
M  V30 7833 C 741.013 1.60289 -0.128114 0
M  V30 7834 O 742.203 1.70048 -0.378044 0
M  V30 7835 C 739.335 3.30153 -0.849205 0
M  V30 7836 H 740.528 2.06833 -2.17164 0
M  V30 7837 H 738.081 1.05049 -1.15734 0
M  V30 7838 H 738.816 3.24087 0.117508 0
M  V30 7839 H 738.601 3.56771 -1.62655 0
M  V30 7840 H 740.091 4.10025 -0.791782 0
M  V30 7841 N 740.528 1.15101 1.07655 0
M  V30 7842 C 741.775 0.923974 1.80191 0
M  V30 7843 C 742.103 -0.549065 1.86589 0
M  V30 7844 O 741.358 -1.42307 1.3434 0
M  V30 7845 C 741.657 1.47954 3.25337 0
M  V30 7846 C 741.323 2.97253 3.39044 0
M  V30 7847 C 739.985 3.38012 3.42493 0
M  V30 7848 C 742.337 3.93219 3.42094 0
M  V30 7849 C 739.665 4.73384 3.4659 0
M  V30 7850 C 742.017 5.28458 3.47728 0
M  V30 7851 C 740.681 5.68717 3.49453 0
M  V30 7852 H 739.951 0.338106 0.659367 0
M  V30 7853 H 742.598 1.43594 1.26701 0
M  V30 7854 H 740.903 0.888691 3.81588 0
M  V30 7855 H 742.6 1.27972 3.80032 0
M  V30 7856 H 739.19 2.64746 3.37057 0
M  V30 7857 H 743.374 3.62805 3.38654 0
M  V30 7858 H 738.63 5.03925 3.46222 0
M  V30 7859 H 742.804 6.02618 3.49034 0
M  V30 7860 H 740.431 6.73596 3.5238 0
M  V30 7861 N 742.006 -1.2595 0.947325 0
M  V30 7862 C 742.938 -2.25336 0.41906 0
M  V30 7863 C 743.951 -1.56135 -0.461051 0
M  V30 7864 O 745.14 -1.76438 -0.270505 0
M  V30 7865 C 742.24 -3.36334 -0.416233 0
M  V30 7866 C 741.413 -4.35088 0.449162 0
M  V30 7867 C 740.472 -5.25185 -0.326716 0
M  V30 7868 O 739.498 -5.68548 0.272374 0
M  V30 7869 N 740.7 -5.57388 -1.6217 0
M  V30 7870 H 743.465 -2.71298 1.27348 0
M  V30 7871 H 741.026 -1.39781 0.81688 0
M  V30 7872 H 743.018 -3.93564 -0.942826 0
M  V30 7873 H 741.588 -2.89819 -1.17148 0
M  V30 7874 H 740.808 -3.76841 1.15692 0
M  V30 7875 H 742.096 -4.98056 1.04008 0
M  V30 7876 H 741.494 -5.2405 -2.13046 0
M  V30 7877 H 740.051 -6.17234 -2.0944 0
M  V30 7878 N 743.484 -0.715051 -1.40445 0
M  V30 7879 C 744.9 -0.388555 -1.54798 0
M  V30 7880 C 745.1 1.10271 -1.68649 0
M  V30 7881 O 744.156 1.88875 -1.67578 0
M  V30 7882 C 745.469 -1.15414 -2.77669 0
M  V30 7883 C 747.017 -1.14039 -2.91486 0
M  V30 7884 C 747.492 -1.88812 -4.1727 0
M  V30 7885 N 748.983 -1.85878 -4.24268 0
M  V30 7886 C 749.718 -2.40558 -5.20499 0
M  V30 7887 N 749.214 -3.03791 -6.22642 0
M  V30 7888 N 751.007 -2.30703 -5.12574 0
M  V30 7889 H 743.158 -1.68201 -1.297 0
M  V30 7890 H 745.421 -0.710915 -0.627139 0
M  V30 7891 H 745.127 -2.20853 -2.7371 0
M  V30 7892 H 745.001 -0.745412 -3.69761 0
M  V30 7893 H 747.388 -0.0941996 -2.9495 0
M  V30 7894 H 747.469 -1.58834 -2.00513 0
M  V30 7895 H 747.113 -2.93422 -4.14568 0
M  V30 7896 H 747.043 -1.41438 -5.0725 0
M  V30 7897 H 749.534 -1.39794 -3.51093 0
M  V30 7898 H 749.847 -3.43032 -6.92495 0
M  V30 7899 H 748.192 -3.07875 -6.23087 0
M  V30 7900 H 751.383 -1.80961 -4.31707 0
M  V30 7901 H 751.556 -2.73618 -5.87398 0
M  V30 7902 N 744.962 1.50701 -0.461195 0
M  V30 7903 C 745.925 2.2686 0.326679 0
M  V30 7904 C 746.925 1.31243 0.929085 0
M  V30 7905 O 748.115 1.54754 0.799807 0
M  V30 7906 C 745.247 3.07844 1.46441 0
M  V30 7907 H 746.44 2.97954 -0.341095 0
M  V30 7908 H 743.993 1.54814 -0.214984 0
M  V30 7909 H 744.728 2.41223 2.16753 0
M  V30 7910 H 744.513 3.78101 1.03836 0
M  V30 7911 H 746.003 3.65469 2.02044 0
M  V30 7912 N 746.441 0.193421 1.56409 0
M  V30 7913 C 747.857 -0.162447 1.58771 0
M  V30 7914 C 748.057 -1.6116 1.20954 0
M  V30 7915 O 747.113 -2.3469 0.931497 0
M  V30 7916 C 748.426 0.138391 3.00381 0
M  V30 7917 C 749.974 0.0783649 3.12902 0
M  V30 7918 C 750.449 0.352491 4.56642 0
M  V30 7919 N 751.94 0.30105 4.62221 0
M  V30 7920 C 752.675 0.487028 5.71328 0
M  V30 7921 N 752.171 0.733265 6.88909 0
M  V30 7922 N 753.964 0.4214 5.60518 0
M  V30 7923 H 746.115 1.13909 1.79272 0
M  V30 7924 H 748.378 0.454528 0.83193 0
M  V30 7925 H 748.084 1.14312 3.32604 0
M  V30 7926 H 747.958 -0.559804 3.73023 0
M  V30 7927 H 750.345 -0.916963 2.80492 0
M  V30 7928 H 750.426 0.809611 2.4265 0
M  V30 7929 H 750.07 1.34513 4.89764 0
M  V30 7930 H 750 -0.399624 5.25081 0
M  V30 7931 H 752.491 0.117279 3.77718 0
M  V30 7932 H 752.804 0.86403 7.67955 0
M  V30 7933 H 751.149 0.770138 6.9072 0
M  V30 7934 H 754.34 0.229461 4.67537 0
M  V30 7935 H 754.513 0.569758 6.4549 0
M  V30 7936 N 747.919 -1.57396 -0.0801906 0
M  V30 7937 C 748.851 -1.9982 -1.12271 0
M  V30 7938 C 749.864 -0.902902 -1.35468 0
M  V30 7939 O 751.053 -1.18088 -1.33856 0
M  V30 7940 C 748.153 -2.31476 -2.47532 0
M  V30 7941 C 747.326 -3.62745 -2.44407 0
M  V30 7942 C 746.385 -3.82168 -3.6171 0
M  V30 7943 O 745.411 -4.53852 -3.43522 0
M  V30 7944 N 746.613 -3.2388 -4.81749 0
M  V30 7945 H 749.378 -2.89864 -0.761501 0
M  V30 7946 H 746.939 -1.5965 -0.268965 0
M  V30 7947 H 748.931 -2.4165 -3.24634 0
M  V30 7948 H 747.501 -1.47364 -2.75686 0
M  V30 7949 H 746.721 -3.63403 -1.52747 0
M  V30 7950 H 748.009 -4.48954 -2.39412 0
M  V30 7951 H 747.407 -2.6568 -4.9943 0
M  V30 7952 H 745.964 -3.39515 -5.56392 0
M  V30 7953 N 749.397 0.351382 -1.53633 0
M  V30 7954 C 750.33 1.45407 -1.75875 0
M  V30 7955 C 751.308 1.50822 -0.607566 0
M  V30 7956 O 752.492 1.68658 -0.841818 0
M  V30 7957 C 749.619 2.8369 -1.85034 0
M  V30 7958 C 748.665 2.95935 -3.07123 0
M  V30 7959 S 749.498 2.63215 -4.66345 0
M  V30 7960 C 750.654 4.03622 -4.78373 0
M  V30 7961 H 750.887 1.26322 -2.69128 0
M  V30 7962 H 748.42 0.546581 -1.44402 0
M  V30 7963 H 750.378 3.6336 -1.90996 0
M  V30 7964 H 749.039 3.00076 -0.928074 0
M  V30 7965 H 748.232 3.97243 -3.10183 0
M  V30 7966 H 747.834 2.24205 -2.99346 0
M  V30 7967 H 750.126 4.98046 -4.593 0
M  V30 7968 H 751.069 4.05559 -5.80454 0
M  V30 7969 H 751.477 3.91282 -4.06889 0
M  V30 7970 N 750.875 1.45233 0.611969 0
M  V30 7971 C 751.823 1.53898 1.74408 0
M  V30 7972 C 752.817 0.409254 1.64382 0
M  V30 7973 O 754.023 0.584988 1.70229 0
M  V30 7974 H 750.398 0.483303 0.576127 0
M  V30 7975 H 752.369 2.49143 1.64227 0
M  V30 7976 C 751.118 1.51865 3.12782 0
M  V30 7977 H 750.441 2.38118 3.21154 0
M  V30 7978 H 751.881 1.61986 3.91838 0
M  V30 7979 C 750.34 0.242374 3.36027 0
M  V30 7980 O 750.87 -0.679587 3.9591 0
M  V30 7981 N 749.076 0.139448 2.90265 0
M  V30 7982 H 748.623 0.890571 2.41716 0
M  V30 7983 H 748.581 -0.713686 3.06193 0
M  V30 7984 N 752.353 -0.854086 1.3245 0
M  V30 7985 C 753.602 -1.60318 1.22397 0
M  V30 7986 C 753.915 -1.9444 -0.212664 0
M  V30 7987 O 755.121 -2.67991 -0.435066 0
M  V30 7988 C 753.577 -2.8909 2.1437 0
M  V30 7989 C 753.185 -2.62391 3.63119 0
M  V30 7990 C 754.929 -3.67104 2.13155 0
M  V30 7991 C 752.836 -3.87167 4.47052 0
M  V30 7992 H 751.766 -0.601586 0.454544 0
M  V30 7993 H 754.417 -0.943023 1.57415 0
M  V30 7994 H 752.799 -3.56567 1.72268 0
M  V30 7995 H 753.973 -2.03222 4.13567 0
M  V30 7996 H 752.288 -1.97706 3.66471 0
M  V30 7997 H 754.885 -4.59696 2.731 0
M  V30 7998 H 755.228 -4.00876 1.12268 0
M  V30 7999 H 755.761 -3.06533 2.5354 0
M  V30 8000 H 752.5 -3.58536 5.48755 0
M  V30 8001 H 752.02 -4.45729 4.01355 0
M  V30 8002 H 753.699 -4.549 4.60081 0
M  V30 8003 N 753.831 -1.1567 -1.07043 0
M  V30 8004 C 755.108 -0.843948 -1.76456 0
M  V30 8005 C 755.488 0.659806 -2.00524 0
M  V30 8006 O 754.836 1.60518 -1.62623 0
M  V30 8007 C 755.046 -1.65822 -3.0709 0
M  V30 8008 C 756.394 -1.8664 -3.8138 0
M  V30 8009 O 757.418 -1.62624 -3.1691 0
M  V30 8010 O 756.277 -2.26884 -4.97178 0
M  V30 8011 H 753.371 -0.310677 -0.766426 0
M  V30 8012 H 755.917 -1.26266 -1.1338 0
M  V30 8013 H 754.689 -2.67902 -2.85209 0
M  V30 8014 H 754.312 -1.23605 -3.77899 0
M  V30 8015 N 755.309 1.25446 -0.953992 0
M  V30 8016 C 756.555 1.9343 -0.60933 0
M  V30 8017 C 756.888 1.74542 0.851388 0
M  V30 8018 O 756.163 1.09014 1.61078 0
M  V30 8019 C 756.446 3.46844 -0.968041 0
M  V30 8020 C 756.299 3.74961 -2.48444 0
M  V30 8021 C 757.618 4.37334 -0.492641 0
M  V30 8022 H 754.737 0.702502 -0.222844 0
M  V30 8023 H 757.379 1.48076 -1.19053 0
M  V30 8024 H 755.529 3.85604 -0.473465 0
M  V30 8025 H 757.201 3.45841 -3.05273 0
M  V30 8026 H 755.444 3.20589 -2.92241 0
M  V30 8027 H 756.115 4.82246 -2.68594 0
M  V30 8028 H 758.591 4.05873 -0.916878 0
M  V30 8029 H 757.467 5.43439 -0.772331 0
M  V30 8030 H 757.728 4.37908 0.607403 0
M  V30 8031 N 756.787 0.722489 1.40064 0
M  V30 8032 C 757.75 0.0830209 2.2905 0
M  V30 8033 C 758.75 -0.680208 1.45705 0
M  V30 8034 O 759.94 -0.511084 1.66534 0
M  V30 8035 C 757.072 -0.892092 3.29021 0
M  V30 8036 H 758.265 0.866848 2.87099 0
M  V30 8037 H 755.818 0.487556 1.48501 0
M  V30 8038 H 756.553 -1.70273 2.76003 0
M  V30 8039 H 756.338 -0.34761 3.90556 0
M  V30 8040 H 757.828 -1.33648 3.95636 0
M  V30 8041 N 758.265 -1.50454 0.469181 0
M  V30 8042 C 759.493 -2.06729 -0.0842134 0
M  V30 8043 C 759.908 -1.33326 -1.33677 0
M  V30 8044 O 759.265 -0.401977 -1.78018 0
M  V30 8045 C 759.316 -3.59557 -0.374253 0
M  V30 8046 O 759.037 -4.30192 0.828622 0
M  V30 8047 C 760.538 -4.32449 -0.974824 0
M  V30 8048 H 757.758 -0.670971 0.006231 0
M  V30 8049 H 760.302 -1.93645 0.657415 0
M  V30 8050 H 758.457 -3.7245 -1.06581 0
M  V30 8051 H 758.871 -5.21371 0.572066 0
M  V30 8052 H 760.345 -5.40361 -1.12755 0
M  V30 8053 H 760.822 -3.92819 -1.96442 0
M  V30 8054 H 761.428 -4.24082 -0.321703 0
M  V30 8055 N 759.743 -0.201713 -1.56304 0
M  V30 8056 C 760.989 0.429292 -1.98818 0
M  V30 8057 C 761.344 1.58779 -1.08659 0
M  V30 8058 O 760.637 1.91142 -0.132365 0
M  V30 8059 C 760.831 0.931432 -3.45049 0
M  V30 8060 C 760.66 -0.176878 -4.49352 0
M  V30 8061 C 759.43 -0.636712 -5.01272 0
M  V30 8062 C 761.628 -0.988177 -5.04717 0
M  V30 8063 N 759.61 -1.72215 -5.8925 0
M  V30 8064 C 760.981 -1.92288 -5.89428 0
M  V30 8065 C 763.036 -1.02985 -4.87133 0
M  V30 8066 C 761.739 -2.89582 -6.58434 0
M  V30 8067 C 763.765 -1.99087 -5.56883 0
M  V30 8068 C 763.127 -2.913 -6.41345 0
M  V30 8069 H 759.226 0.124322 -0.772054 0
M  V30 8070 H 761.81 -0.308929 -1.92234 0
M  V30 8071 H 759.981 1.63907 -3.52121 0
M  V30 8072 H 761.713 1.5336 -3.74517 0
M  V30 8073 H 758.468 -0.228861 -4.73047 0
M  V30 8074 H 758.892 -2.26627 -6.37941 0
M  V30 8075 H 763.534 -0.330894 -4.21503 0
M  V30 8076 H 761.252 -3.6045 -7.23258 0
M  V30 8077 H 764.838 -2.0296 -5.45251 0
M  V30 8078 H 763.718 -3.6445 -6.94367 0
M  V30 8079 N 761.222 1.57436 0.0718424 0
M  V30 8080 C 762.468 1.87525 0.772149 0
M  V30 8081 C 762.801 0.79399 1.77227 0
M  V30 8082 O 762.076 -0.195733 1.93513 0
M  V30 8083 C 762.359 3.28272 1.48018 0
M  V30 8084 C 762.212 4.47052 0.49647 0
M  V30 8085 C 763.531 3.67256 2.42509 0
M  V30 8086 H 760.65 0.682049 0.279245 0
M  V30 8087 H 763.292 1.89967 0.03534 0
M  V30 8088 H 761.442 3.26321 2.10824 0
M  V30 8089 H 763.114 4.61127 -0.126375 0
M  V30 8090 H 761.357 4.33392 -0.188205 0
M  V30 8091 H 762.028 5.42315 1.02949 0
M  V30 8092 H 764.504 3.70301 1.89781 0
M  V30 8093 H 763.38 4.66626 2.89053 0
M  V30 8094 H 763.641 2.97186 3.27312 0
M  V30 8095 N 762.7 -0.34323 1.53817 0
M  V30 8096 C 764.116 -0.686355 1.44088 0
M  V30 8097 C 764.316 -1.92426 0.597882 0
M  V30 8098 O 763.372 -2.52343 0.0889918 0
M  V30 8099 C 764.685 -0.878698 2.87575 0
M  V30 8100 C 766.233 -0.977296 2.97352 0
M  V30 8101 C 766.708 -1.20195 4.41947 0
M  V30 8102 N 768.199 -1.26915 4.45474 0
M  V30 8103 C 768.934 -1.46049 5.54488 0
M  V30 8104 N 768.43 -1.62354 6.73508 0
M  V30 8105 N 770.223 -1.48599 5.42102 0
M  V30 8106 H 762.374 0.470679 2.07119 0
M  V30 8107 H 764.637 0.148652 0.936273 0
M  V30 8108 H 764.343 -0.040602 3.51677 0
M  V30 8109 H 764.217 -1.78034 3.32541 0
M  V30 8110 H 766.604 -1.80591 2.3339 0
M  V30 8111 H 766.685 -0.0525498 2.55746 0
M  V30 8112 H 766.329 -0.378262 5.06489 0
M  V30 8113 H 766.259 -2.14027 4.81145 0
M  V30 8114 H 768.75 -1.15837 3.59708 0
M  V30 8115 H 769.063 -1.76591 7.52353 0
M  V30 8116 H 767.408 -1.5949 6.76453 0
M  V30 8117 H 770.599 -1.35443 4.48077 0
M  V30 8118 H 770.772 -1.6317 6.2712 0
M  V30 8119 N 764.178 -1.45556 -0.604258 0
M  V30 8120 C 765.108 -1.57327 -1.72541 0
M  V30 8121 C 766.089 -0.424637 -1.64714 0
M  V30 8122 O 767.274 -0.648196 -1.83063 0
M  V30 8123 C 764.404 -1.54279 -3.11152 0
M  V30 8124 C 763.358 -2.67893 -3.33792 0
M  V30 8125 C 762.684 -2.499 -4.72709 0
M  V30 8126 C 763.984 -4.0988 -3.23722 0
M  V30 8127 H 765.678 -2.51175 -1.62947 0
M  V30 8128 H 763.224 -1.20884 -0.782504 0
M  V30 8129 H 765.177 -1.6111 -3.89386 0
M  V30 8130 H 763.901 -0.569627 -3.21594 0
M  V30 8131 H 762.56 -2.60495 -2.57949 0
M  V30 8132 H 762.208 -1.50715 -4.79889 0
M  V30 8133 H 761.908 -3.26091 -4.88813 0
M  V30 8134 H 763.432 -2.5859 -5.5314 0
M  V30 8135 H 764.846 -4.18503 -3.91826 0
M  V30 8136 H 763.243 -4.86487 -3.51355 0
M  V30 8137 H 764.313 -4.31553 -2.21111 0
M  V30 8138 N 765.656 0.84705 -1.32902 0
M  V30 8139 C 766.586 1.97166 -1.25091 0
M  V30 8140 C 767.567 1.69578 -0.133161 0
M  V30 8141 O 768.752 1.91519 -0.321591 0
M  V30 8142 C 765.882 3.33157 -0.981006 0
M  V30 8143 C 764.836 3.75119 -2.06082 0
M  V30 8144 C 764.162 5.08826 -1.64318 0
M  V30 8145 C 765.462 3.89774 -3.47669 0
M  V30 8146 H 767.156 2.03958 -2.19184 0
M  V30 8147 H 764.702 0.979907 -1.05517 0
M  V30 8148 H 766.655 4.11393 -0.912891 0
M  V30 8149 H 765.379 3.266 -0.00445559 0
M  V30 8150 H 764.038 2.9914 -2.11921 0
M  V30 8151 H 763.686 4.98732 -0.653876 0
M  V30 8152 H 763.386 5.37873 -2.36572 0
M  V30 8153 H 764.91 5.89546 -1.58958 0
M  V30 8154 H 766.324 4.58343 -3.44376 0
M  V30 8155 H 764.721 4.30248 -4.18338 0
M  V30 8156 H 765.791 2.92463 -3.86773 0
M  V30 8157 N 767.134 1.16236 1.06428 0
M  V30 8158 C 768.55 0.906983 1.31324 0
M  V30 8159 C 768.75 -0.440872 1.96618 0
M  V30 8160 O 767.806 -1.1807 2.23194 0
M  V30 8161 C 769.119 2.05501 2.19522 0
M  V30 8162 C 770.667 2.09061 2.32943 0
M  V30 8163 C 771.142 3.23214 3.24495 0
M  V30 8164 N 772.633 3.22922 3.32078 0
M  V30 8165 C 773.368 4.07889 4.03006 0
M  V30 8166 N 772.864 5.02941 4.76469 0
M  V30 8167 N 774.657 3.95881 3.99043 0
M  V30 8168 H 766.808 2.03015 0.624388 0
M  V30 8169 H 769.071 0.88576 0.337835 0
M  V30 8170 H 768.777 3.02847 1.78819 0
M  V30 8171 H 768.651 1.99538 3.201 0
M  V30 8172 H 771.038 1.12308 2.72893 0
M  V30 8173 H 771.119 2.19089 1.32037 0
M  V30 8174 H 770.763 4.20225 2.85261 0
M  V30 8175 H 770.693 3.10423 4.25377 0
M  V30 8176 H 773.184 2.54093 2.79724 0
M  V30 8177 H 773.497 5.64196 5.28112 0
M  V30 8178 H 771.842 5.06922 4.75453 0
M  V30 8179 H 775.033 3.20927 3.40769 0
M  V30 8180 H 775.206 4.62321 4.54052 0
M  V30 8181 N 768.612 -1.24939 0.960631 0
M  V30 8182 C 770.028 -1.45039 0.666018 0
M  V30 8183 C 770.228 -1.86021 -0.774501 0
M  V30 8184 O 769.284 -1.99392 -1.54916 0
M  V30 8185 C 770.597 -2.51775 1.64408 0
M  V30 8186 C 772.145 -2.6561 1.65592 0
M  V30 8187 C 772.62 -3.75536 2.62177 0
M  V30 8188 N 774.111 -3.82954 2.60577 0
M  V30 8189 C 774.846 -4.67517 3.31987 0
M  V30 8190 N 774.342 -5.56321 4.1289 0
M  V30 8191 N 776.135 -4.61535 3.20845 0
M  V30 8192 H 768.286 -0.96632 1.89145 0
M  V30 8193 H 770.549 -0.486034 0.813926 0
M  V30 8194 H 770.255 -2.28534 2.67329 0
M  V30 8195 H 770.129 -3.49804 1.41128 0
M  V30 8196 H 772.516 -2.88212 0.633846 0
M  V30 8197 H 772.597 -1.67962 1.92931 0
M  V30 8198 H 772.241 -3.53684 3.64514 0
M  V30 8199 H 772.171 -4.72682 2.32119 0
M  V30 8200 H 774.662 -3.19478 2.01847 0
M  V30 8201 H 774.975 -6.17787 4.64283 0
M  V30 8202 H 773.32 -5.5601 4.16987 0
M  V30 8203 H 776.511 -3.91169 2.57108 0
M  V30 8204 H 776.684 -5.27214 3.76762 0
M  V30 8205 N 770.09 -0.729906 -1.39679 0
M  V30 8206 C 771.02 -0.101618 -2.33279 0
M  V30 8207 C 772.001 0.729854 -1.53646 0
M  V30 8208 O 773.186 0.67587 -1.82059 0
M  V30 8209 C 770.316 0.81024 -3.37716 0
M  V30 8210 C 769.27 0.0833126 -4.27919 0
M  V30 8211 C 768.596 1.11185 -5.23012 0
M  V30 8212 C 769.896 -1.07107 -5.112 0
M  V30 8213 H 771.59 -0.883452 -2.86069 0
M  V30 8214 H 769.136 -0.426283 -1.37546 0
M  V30 8215 H 771.089 1.25927 -4.02145 0
M  V30 8216 H 769.813 1.62413 -2.83354 0
M  V30 8217 H 768.472 -0.346043 -3.64963 0
M  V30 8218 H 768.12 1.91917 -4.64948 0
M  V30 8219 H 767.82 0.63026 -5.8421 0
M  V30 8220 H 769.344 1.56068 -5.90318 0
M  V30 8221 H 770.758 -0.700726 -5.69002 0
M  V30 8222 H 769.155 -1.48196 -5.81514 0
M  V30 8223 H 770.225 -1.89513 -4.46332 0
M  V30 8224 N 771.568 1.50203 -0.477153 0
M  V30 8225 C 772.817 2.01551 0.0774548 0
M  V30 8226 C 773.13 1.36359 1.40234 0
M  V30 8227 O 774.336 1.78898 2.04225 0
M  V30 8228 C 772.792 3.59406 0.188539 0
M  V30 8229 C 772.4 4.3356 -1.12828 0
M  V30 8230 C 774.144 4.18776 0.694782 0
M  V30 8231 C 772.051 5.83213 -0.98066 0
M  V30 8232 H 770.981 0.75329 0.0327212 0
M  V30 8233 H 773.632 1.72959 -0.612969 0
M  V30 8234 H 772.014 3.84611 0.942881 0
M  V30 8235 H 773.188 4.20074 -1.89405 0
M  V30 8236 H 771.503 3.85827 -1.5661 0
M  V30 8237 H 774.1 5.28338 0.822356 0
M  V30 8238 H 774.443 3.80557 1.68766 0
M  V30 8239 H 774.976 3.978 -0.00234519 0
M  V30 8240 H 771.715 6.25914 -1.94709 0
M  V30 8241 H 771.235 5.99256 -0.255375 0
M  V30 8242 H 772.914 6.4373 -0.649717 0
M  V30 8243 N 773.046 0.209999 1.56195 0
M  V30 8244 C 774.457 -0.299943 1.84275 0
M  V30 8245 C 774.808 -1.60314 1.1311 0
M  V30 8246 O 773.933 -2.1273 0.396874 0
M  V30 8247 C 774.528 -0.550986 3.3429 0
M  V30 8248 C 773.087 -1.00526 3.62728 0
M  V30 8249 C 772.234 -0.0619828 2.77231 0
M  V30 8250 H 775.185 0.433458 1.52666 0
M  V30 8251 H 775.206 -1.39846 3.53869 0
M  V30 8252 H 774.718 0.397669 3.86057 0
M  V30 8253 H 772.819 -1.96768 3.16407 0
M  V30 8254 H 772.932 -0.887664 4.70805 0
M  V30 8255 H 771.296 -0.566648 2.48317 0
M  V30 8256 H 772.079 0.881383 3.31793 0
M  V30 8257 N 774.524 -1.57472 -0.0634922 0
M  V30 8258 C 775.472 -2.05307 -1.09323 0
M  V30 8259 C 776.466 -0.959995 -1.39572 0
M  V30 8260 O 777.672 -1.14507 -1.38882 0
M  V30 8261 H 774.047 -0.65472 -0.369927 0
M  V30 8262 H 776.018 -2.90925 -0.663707 0
M  V30 8263 C 774.767 -2.51954 -2.39613 0
M  V30 8264 H 774.09 -3.35662 -2.1719 0
M  V30 8265 H 775.53 -2.89169 -3.10092 0
M  V30 8266 C 773.989 -1.40596 -3.06161 0
M  V30 8267 O 774.519 -0.752722 -3.94585 0
M  V30 8268 N 772.725 -1.14902 -2.66919 0
M  V30 8269 H 772.272 -1.68205 -1.95102 0
M  V30 8270 H 772.23 -0.406006 -3.11767 0
M  V30 8271 N 776.003 0.335068 -1.53997 0
M  V30 8272 C 776.966 1.39481 -1.81872 0
M  V30 8273 C 777.966 1.4524 -0.690078 0
M  V30 8274 O 779.156 1.45467 -0.958377 0
M  V30 8275 C 776.288 2.78329 -1.9684 0
M  V30 8276 H 777.481 1.16024 -2.76547 0
M  V30 8277 H 775.034 0.569926 -1.45539 0
M  V30 8278 H 775.769 3.07058 -1.04337 0
M  V30 8279 H 775.554 2.75544 -2.78958 0
M  V30 8280 H 777.044 3.55016 -2.19894 0
M  V30 8281 N 777.481 1.45874 0.596531 0
M  V30 8282 C 778.709 1.54013 1.38158 0
M  V30 8283 C 779.124 0.17648 1.87973 0
M  V30 8284 O 778.481 -0.823895 1.62844 0
M  V30 8285 C 778.532 2.53363 2.57855 0
M  V30 8286 O 778.253 3.8443 2.10108 0
M  V30 8287 C 779.754 2.71308 3.50581 0
M  V30 8288 H 776.974 0.521251 0.422538 0
M  V30 8289 H 779.518 1.9116 0.726493 0
M  V30 8290 H 777.673 2.19257 3.19382 0
M  V30 8291 H 778.087 4.38384 2.87958 0
M  V30 8292 H 779.561 3.44776 4.31084 0
M  V30 8293 H 780.038 1.77728 4.01633 0
M  V30 8294 H 780.644 3.06455 2.94899 0
M  V30 8295 N 778.959 -0.83999 1.33349 0
M  V30 8296 C 780.207 -1.59202 1.24496 0
M  V30 8297 C 780.528 -1.94077 -0.189499 0
M  V30 8298 O 779.798 -1.60868 -1.11796 0
M  V30 8299 H 778.378 -0.590276 0.457802 0
M  V30 8300 H 781.04 -1.00394 1.67054 0
M  V30 8301 H 780.136 -2.52247 1.83788 0
M  V30 8302 N 780.437 -1.16799 -1.0581 0
M  V30 8303 C 781.665 -0.97687 -1.82387 0
M  V30 8304 C 782.08 0.474917 -1.82729 0
M  V30 8305 O 781.437 1.3297 -1.25001 0
M  V30 8306 C 781.488 -1.50279 -3.28783 0
M  V30 8307 O 781.209 -2.89772 -3.28578 0
M  V30 8308 C 782.71 -1.35538 -4.22071 0
M  V30 8309 H 779.93 -0.345977 -0.574927 0
M  V30 8310 H 782.474 -1.54942 -1.33466 0
M  V30 8311 H 780.629 -0.972414 -3.74997 0
M  V30 8312 H 781.043 -3.13954 -4.20159 0
M  V30 8313 H 782.517 -1.7716 -5.22799 0
M  V30 8314 H 782.994 -0.301598 -4.38163 0
M  V30 8315 H 783.6 -1.87562 -3.81708 0
M  V30 8316 N 781.915 1.24427 -0.967243 0
M  V30 8317 C 783.163 1.92107 -0.627638 0
M  V30 8318 C 783.484 1.75991 0.83978 0
M  V30 8319 O 782.754 1.13118 1.59941 0
M  V30 8320 H 781.334 0.710986 -0.229145 0
M  V30 8321 H 783.996 1.51331 -1.22821 0
M  V30 8322 H 783.092 2.99791 -0.867844 0
M  V30 8323 N 783.393 0.737304 1.3929 0
M  V30 8324 C 784.621 0.296573 2.04763 0
M  V30 8325 C 785.036 -1.06941 1.55592 0
M  V30 8326 O 784.393 -1.67619 0.721822 0
M  V30 8327 C 784.444 0.291906 3.6032 0
M  V30 8328 O 784.165 1.60397 4.07682 0
M  V30 8329 C 785.666 -0.164708 4.42994 0
M  V30 8330 H 782.886 0.129251 0.658434 0
M  V30 8331 H 785.43 1.0016 1.78293 0
M  V30 8332 H 783.585 -0.364251 3.85684 0
M  V30 8333 H 783.999 1.51909 5.0202 0
M  V30 8334 H 785.473 -0.116814 5.51876 0
M  V30 8335 H 785.95 -1.21022 4.22197 0
M  V30 8336 H 786.556 0.461968 4.22784 0
M  V30 8337 N 784.871 -1.49948 0.485112 0
M  V30 8338 C 786.118 -2.02396 -0.0650059 0
M  V30 8339 C 786.446 -1.36606 -1.38452 0
M  V30 8340 O 785.701 -0.485476 -1.89583 0
M  V30 8341 C 786 -3.56282 -0.282434 0
M  V30 8342 C 785.666 -4.40625 0.957106 0
M  V30 8343 C 784.328 -4.63393 1.29692 0
M  V30 8344 C 786.68 -4.89799 1.78176 0
M  V30 8345 C 784.008 -5.3258 2.4612 0
M  V30 8346 C 786.36 -5.60266 2.93743 0
M  V30 8347 C 785.024 -5.81284 3.28124 0
M  V30 8348 H 784.294 -0.740618 -0.0237873 0
M  V30 8349 H 786.941 -1.80416 0.642044 0
M  V30 8350 H 785.246 -3.76853 -1.07186 0
M  V30 8351 H 786.943 -3.94442 -0.722276 0
M  V30 8352 H 783.533 -4.23133 0.682384 0
M  V30 8353 H 787.717 -4.7205 1.53239 0
M  V30 8354 H 782.973 -5.47059 2.73014 0
M  V30 8355 H 787.147 -5.97347 3.5798 0
M  V30 8356 H 784.774 -6.34671 4.18446 0
M  V30 8357 N 786.349 -0.21828 -1.56081 0
M  V30 8358 C 787.574 0.422302 -2.03055 0
M  V30 8359 C 787.999 1.5279 -1.09713 0
M  V30 8360 O 787.357 1.81102 -0.0847187 0
M  V30 8361 C 787.405 0.934177 -3.48289 0
M  V30 8362 O 786.509 2.04574 -3.58083 0
M  V30 8363 H 785.85 0.0959764 -0.657027 0
M  V30 8364 H 788.38 -0.335958 -2.01823 0
M  V30 8365 H 788.39 1.24484 -3.88546 0
M  V30 8366 H 787.065 0.124963 -4.15712 0
M  V30 8367 H 785.642 1.74196 -3.29712 0
M  V30 8368 N 787.827 1.57504 0.0551401 0
M  V30 8369 C 789.238 1.76626 0.604979 0
M  V30 8370 C 789.589 0.845978 1.77024 0
M  V30 8371 O 788.714 0.0341936 2.16373 0
M  V30 8372 C 789.309 3.203 1.10425 0
M  V30 8373 C 787.868 3.4071 1.59981 0
M  V30 8374 C 787.015 2.72258 0.526414 0
M  V30 8375 H 789.966 1.57775 -0.171072 0
M  V30 8376 H 789.987 3.25377 1.97256 0
M  V30 8377 H 789.499 3.87255 0.255939 0
M  V30 8378 H 787.6 2.78892 2.47083 0
M  V30 8379 H 787.713 4.49227 1.66528 0
M  V30 8380 H 786.077 2.35283 0.97539 0
M  V30 8381 H 786.86 3.41879 -0.311991 0
M  V30 8382 N 789.305 -0.326896 1.54172 0
M  V30 8383 C 790.553 -1.06313 1.71878 0
M  V30 8384 C 790.874 -1.88652 0.493498 0
M  V30 8385 O 790.144 -1.89608 -0.492522 0
M  V30 8386 H 788.724 -0.39549 0.633716 0
M  V30 8387 H 791.386 -0.364139 1.91468 0
M  V30 8388 H 790.482 -1.73105 2.59694 0
M  V30 8389 N 790.784 -1.46188 -0.588786 0
M  V30 8390 C 791.747 -1.55882 -1.68029 0
M  V30 8391 C 792.747 -0.436515 -1.54762 0
M  V30 8392 O 793.937 -0.700626 -1.59489 0
M  V30 8393 C 791.069 -1.47332 -3.07418 0
M  V30 8394 H 792.262 -2.5315 -1.60795 0
M  V30 8395 H 789.815 -1.33908 -0.806116 0
M  V30 8396 H 790.55 -0.513193 -3.20214 0
M  V30 8397 H 790.335 -2.28753 -3.18456 0
M  V30 8398 H 791.825 -1.57187 -3.86887 0
M  V30 8399 N 792.262 0.832906 -1.33792 0
M  V30 8400 C 793.487 1.62568 -1.28788 0
M  V30 8401 C 793.912 1.87599 0.137246 0
M  V30 8402 O 793.27 1.44436 1.0958 0
M  V30 8403 C 793.318 2.9495 -2.07453 0
M  V30 8404 O 792.422 3.86546 -1.43722 0
M  V30 8405 H 791.763 0.494809 -0.442787 0
M  V30 8406 H 794.293 1.03578 -1.76445 0
M  V30 8407 H 794.303 3.44599 -2.1844 0
M  V30 8408 H 792.978 2.76055 -3.11073 0
M  V30 8409 H 791.555 3.45044 -1.41417 0
M  V30 8410 N 793.74 1.17359 1.05189 0
M  V30 8411 C 795.151 0.96793 1.5965 0
M  V30 8412 C 795.502 -0.485355 1.90102 0
M  V30 8413 O 794.627 -1.36066 1.6827 0
M  V30 8414 C 795.222 1.75068 2.90063 0
M  V30 8415 C 793.781 1.58969 3.41183 0
M  V30 8416 C 792.928 1.75231 2.14917 0
M  V30 8417 H 795.879 1.32067 0.880001 0
M  V30 8418 H 795.9 1.23308 3.59966 0
M  V30 8419 H 795.412 2.80835 2.67868 0
M  V30 8420 H 793.513 0.556906 3.68415 0
M  V30 8421 H 793.626 2.38067 4.15766 0
M  V30 8422 H 791.99 1.18073 2.25679 0
M  V30 8423 H 792.773 2.8241 1.95191 0
M  V30 8424 N 795.218 -1.23913 0.973828 0
M  V30 8425 C 796.466 -1.91771 0.637817 0
M  V30 8426 C 796.787 -1.76434 -0.830435 0
M  V30 8427 O 796.057 -1.13965 -1.59339 0
M  V30 8428 H 794.637 -0.709761 0.232912 0
M  V30 8429 H 797.299 -1.50677 1.23622 0
M  V30 8430 H 796.395 -2.99327 0.883731 0
M  V30 8431 N 796.696 -0.74468 -1.38897 0
M  V30 8432 C 797.921 -0.306119 -2.05128 0
M  V30 8433 C 798.346 1.0541 -1.55789 0
M  V30 8434 O 797.704 1.66993 -0.705909 0
M  V30 8435 C 797.752 -0.328195 -3.59103 0
M  V30 8436 O 796.856 0.680876 -4.06741 0
M  V30 8437 H 796.197 -0.137209 -0.649669 0
M  V30 8438 H 798.727 -1.01331 -1.77745 0
M  V30 8439 H 798.737 -0.175956 -4.0762 0
M  V30 8440 H 797.412 -1.32067 -3.94374 0
M  V30 8441 H 795.989 0.49398 -3.69614 0
M  V30 8442 N 798.174 1.49689 -0.493057 0
M  V30 8443 C 799.084 2.32746 0.294358 0
M  V30 8444 C 800.1 1.44117 0.975003 0
M  V30 8445 O 801.276 1.77149 0.958138 0
M  V30 8446 C 798.341 3.19358 1.34949 0
M  V30 8447 C 797.402 4.2383 0.683122 0
M  V30 8448 C 796.635 5.06303 1.68798 0
M  V30 8449 O 796.858 4.90172 2.91698 0
M  V30 8450 O 795.792 5.88826 1.24768 0
M  V30 8451 H 799.618 3.01247 -0.385254 0
M  V30 8452 H 797.203 1.47216 -0.254519 0
M  V30 8453 H 799.085 3.73037 1.96014 0
M  V30 8454 H 797.76 2.53561 2.01217 0
M  V30 8455 H 796.667 3.74086 0.0329351 0
M  V30 8456 H 798 4.9216 0.0630192 0
M  V30 8457 N 799.652 0.226554 1.55963 0
M  V30 8458 C 800.615 -0.668015 2.19249 0
M  V30 8459 C 801.615 -1.11794 1.1558 0
M  V30 8460 O 802.805 -1.02593 1.40784 0
M  V30 8461 C 799.937 -1.91571 2.81981 0
M  V30 8462 H 801.13 -0.116175 2.99675 0
M  V30 8463 H 798.683 -0.0230497 1.56283 0
M  V30 8464 H 799.418 -2.50929 2.05439 0
M  V30 8465 H 799.203 -1.6015 3.57903 0
M  V30 8466 H 800.693 -2.55294 3.30477 0
M  V30 8467 N 801.13 -1.57531 -0.0467866 0
M  V30 8468 C 802.546 -1.54451 -0.402107 0
M  V30 8469 C 802.746 -0.950275 -1.77685 0
M  V30 8470 O 801.802 -0.563602 -2.4613 0
M  V30 8471 C 803.115 -2.9899 -0.320212 0
M  V30 8472 C 804.663 -3.10452 -0.398588 0
M  V30 8473 C 805.138 -4.56689 -0.346335 0
M  V30 8474 N 806.629 -4.6142 -0.405666 0
M  V30 8475 C 807.364 -5.72087 -0.387845 0
M  V30 8476 N 806.86 -6.92045 -0.32336 0
M  V30 8477 N 808.653 -5.60404 -0.436263 0
M  V30 8478 H 800.804 -1.94515 0.853087 0
M  V30 8479 H 803.067 -0.891397 0.322669 0
M  V30 8480 H 802.773 -3.46124 0.623794 0
M  V30 8481 H 802.647 -3.60164 -1.1208 0
M  V30 8482 H 805.034 -2.63276 -1.33302 0
M  V30 8483 H 805.115 -2.52142 0.431026 0
M  V30 8484 H 804.759 -5.04527 0.584356 0
M  V30 8485 H 804.689 -5.12889 -1.19382 0
M  V30 8486 H 807.18 -3.75105 -0.458737 0
M  V30 8487 H 807.493 -7.7216 -0.314375 0
M  V30 8488 H 805.838 -6.94396 -0.28967 0
M  V30 8489 H 809.029 -4.65586 -0.48451 0
M  V30 8490 H 809.202 -6.46645 -0.418907 0
M  V30 8491 N 802.608 0.318715 -1.54344 0
M  V30 8492 C 803.836 1.0755 -1.7675 0
M  V30 8493 C 804.251 1.81543 -0.518422 0
M  V30 8494 O 803.608 1.75198 0.511078 0
M  V30 8495 C 803.659 2.06983 -2.96378 0
M  V30 8496 O 803.38 1.35995 -4.16458 0
M  V30 8497 C 804.881 2.94841 -3.31034 0
M  V30 8498 H 802.101 0.319711 -0.589937 0
M  V30 8499 H 804.645 0.363369 -2.01246 0
M  V30 8500 H 802.8 2.73724 -2.74142 0
M  V30 8501 H 803.214 2.02623 -4.83781 0
M  V30 8502 H 804.688 3.60496 -4.18027 0
M  V30 8503 H 805.165 3.62199 -2.48412 0
M  V30 8504 H 805.771 2.33656 -3.55366 0
M  V30 8505 N 804.086 1.46499 0.581025 0
M  V30 8506 C 805.314 1.5547 1.36517 0
M  V30 8507 C 805.729 0.196407 1.87776 0
M  V30 8508 O 805.086 -0.806577 1.63709 0
M  V30 8509 C 805.137 2.56084 2.55154 0
M  V30 8510 O 804.858 3.86637 2.06018 0
M  V30 8511 C 806.359 2.75011 3.47683 0
M  V30 8512 H 803.579 0.525703 0.416986 0
M  V30 8513 H 806.123 1.9192 0.706177 0
M  V30 8514 H 804.278 2.22633 3.17039 0
M  V30 8515 H 804.692 4.41413 2.83292 0
M  V30 8516 H 806.166 3.49329 4.27403 0
M  V30 8517 H 806.643 1.81978 3.99726 0
M  V30 8518 H 807.249 3.09565 2.91632 0
M  V30 8519 N 805.565 -0.825799 1.34232 0
M  V30 8520 C 806.813 -1.57873 1.26177 0
M  V30 8521 C 807.134 -1.94267 -0.168904 0
M  V30 8522 O 806.404 -1.62045 -1.10084 0
M  V30 8523 H 804.984 -0.585388 0.464037 0
M  V30 8524 H 807.646 -0.986163 1.6811 0
M  V30 8525 H 806.742 -2.50283 1.86453 0
M  V30 8526 N 807.043 -1.17915 -1.04565 0
M  V30 8527 C 808.32 -0.881187 -1.74627 0
M  V30 8528 C 808.7 0.617123 -2.01878 0
M  V30 8529 O 808.048 1.57032 -1.65991 0
M  V30 8530 C 808.258 -1.72299 -3.03503 0
M  V30 8531 C 809.606 -1.94688 -3.77335 0
M  V30 8532 O 810.63 -1.6931 -3.13389 0
M  V30 8533 O 809.489 -2.37379 -4.92253 0
M  V30 8534 H 806.583 -0.326864 -0.759664 0
M  V30 8535 H 809.129 -1.28642 -1.10676 0
M  V30 8536 H 807.901 -2.73891 -2.79462 0
M  V30 8537 H 807.524 -1.31593 -3.75192 0
M  V30 8538 N 808.521 1.23394 -0.980386 0
M  V30 8539 C 809.77 1.91116 -0.644785 0
M  V30 8540 C 810.083 1.77333 0.825367 0
M  V30 8541 O 811.289 2.39858 1.27203 0
M  V30 8542 C 809.745 3.42592 -1.10266 0
M  V30 8543 C 809.353 3.65037 -2.59715 0
M  V30 8544 C 811.097 4.1609 -0.8408 0
M  V30 8545 C 809.004 5.10148 -2.9917 0
M  V30 8546 H 807.934 0.715632 -0.23746 0
M  V30 8547 H 810.585 1.39829 -1.18828 0
M  V30 8548 H 808.967 3.92989 -0.487372 0
M  V30 8549 H 810.141 3.25186 -3.26482 0
M  V30 8550 H 808.456 3.04849 -2.83647 0
M  V30 8551 H 811.053 5.23021 -1.11143 0
M  V30 8552 H 811.396 4.15702 0.223085 0
M  V30 8553 H 811.929 3.71681 -1.41767 0
M  V30 8554 H 808.668 5.15668 -4.04682 0
M  V30 8555 H 808.188 5.50949 -2.37097 0
M  V30 8556 H 809.867 5.7848 -2.89775 0
M  V30 8557 N 809.999 0.752036 1.385 0
M  V30 8558 C 811.224 0.316993 2.04963 0
M  V30 8559 C 811.649 -1.04582 1.56346 0
M  V30 8560 O 811.007 -1.66616 0.714755 0
M  V30 8561 C 811.055 0.347235 3.58924 0
M  V30 8562 O 810.159 -0.659296 4.07096 0
M  V30 8563 H 809.5 0.140652 0.648932 0
M  V30 8564 H 812.03 1.02272 1.77205 0
M  V30 8565 H 812.04 0.19757 4.07521 0
M  V30 8566 H 810.715 1.34157 3.93668 0
M  V30 8567 H 809.292 -0.474371 3.6987 0
M  V30 8568 N 811.477 -1.49425 0.500989 0
M  V30 8569 C 812.723 -2.02753 -0.0436 0
M  V30 8570 C 813.056 -1.37991 -1.36646 0
M  V30 8571 O 812.331 -0.515597 -1.87542 0
M  V30 8572 C 812.614 -3.59565 -0.19616 0
M  V30 8573 C 812.467 -4.34855 1.14982 0
M  V30 8574 C 813.786 -4.30014 -0.936795 0
M  V30 8575 H 810.905 -0.73686 -0.0143711 0
M  V30 8576 H 813.547 -1.78448 0.652397 0
M  V30 8577 H 811.697 -3.80405 -0.788959 0
M  V30 8578 H 813.369 -4.25512 1.7815 0
M  V30 8579 H 811.612 -3.97414 1.73911 0
M  V30 8580 H 812.283 -5.42933 0.996385 0
M  V30 8581 H 814.759 -4.1383 -0.434036 0
M  V30 8582 H 813.635 -5.39483 -1.01238 0
M  V30 8583 H 813.896 -3.95257 -1.9805 0
M  V30 8584 N 812.955 -0.234822 -1.55841 0
M  V30 8585 C 813.865 0.680828 -2.24504 0
M  V30 8586 C 814.881 1.20306 -1.25708 0
M  V30 8587 O 816.057 1.24188 -1.58554 0
M  V30 8588 C 813.122 1.86636 -2.92178 0
M  V30 8589 C 812.183 1.3848 -4.06352 0
M  V30 8590 C 811.416 2.51382 -4.70789 0
M  V30 8591 O 811.639 3.69831 -4.34259 0
M  V30 8592 O 810.573 2.21828 -5.59532 0
M  V30 8593 H 814.399 0.12583 -3.03439 0
M  V30 8594 H 811.984 -0.00381817 -1.494 0
M  V30 8595 H 813.866 2.55845 -3.34845 0
M  V30 8596 H 812.541 2.40921 -2.16192 0
M  V30 8597 H 811.448 0.660341 -3.68226 0
M  V30 8598 H 812.781 0.888177 -4.8412 0
M  V30 8599 N 814.433 1.57553 0.0384317 0
M  V30 8600 C 815.38 2.05942 1.04194 0
M  V30 8601 C 816.35 0.946637 1.36484 0
M  V30 8602 O 817.535 1.21658 1.46983 0
M  V30 8603 C 814.675 2.53588 2.34066 0
M  V30 8604 C 813.788 3.7862 2.08017 0
M  V30 8605 C 812.923 4.14915 3.31692 0
M  V30 8606 C 811.962 5.32891 3.01155 0
M  V30 8607 N 811.099 5.64662 4.17254 0
M  V30 8608 H 815.939 2.91429 0.622341 0
M  V30 8609 H 813.476 1.44098 0.295684 0
M  V30 8610 H 815.434 2.79276 3.09937 0
M  V30 8611 H 814.064 1.71031 2.73767 0
M  V30 8612 H 813.116 3.60073 1.22686 0
M  V30 8613 H 814.428 4.64613 1.81484 0
M  V30 8614 H 813.582 4.41681 4.15936 0
M  V30 8615 H 812.321 3.27555 3.6133 0
M  V30 8616 H 811.326 5.05887 2.15311 0
M  V30 8617 H 812.551 6.21896 2.72804 0
M  V30 8618 H 810.497 4.80261 4.46861 0
M  V30 8619 H 810.414 6.45145 3.94112 0
M  V30 8620 H 811.682 5.96 5.02399 0
M  V30 8621 N 815.911 -0.310526 1.54511 0
M  V30 8622 C 816.841 -1.38757 1.878 0
M  V30 8623 C 817.822 -1.53353 0.735991 0
M  V30 8624 O 819.007 -1.67018 0.990887 0
M  V30 8625 C 816.137 -2.75327 2.11689 0
M  V30 8626 C 815.091 -2.75506 3.27537 0
M  V30 8627 C 814.417 -4.15275 3.36824 0
M  V30 8628 C 815.717 -2.38093 4.64875 0
M  V30 8629 H 817.411 -1.11146 2.78005 0
M  V30 8630 H 814.957 -0.533232 1.33763 0
M  V30 8631 H 816.91 -3.50752 2.33562 0
M  V30 8632 H 815.634 -3.04443 1.18245 0
M  V30 8633 H 814.293 -2.02538 3.05572 0
M  V30 8634 H 813.941 -4.41553 2.40915 0
M  V30 8635 H 813.641 -4.16299 4.14692 0
M  V30 8636 H 815.165 -4.92493 3.60947 0
M  V30 8637 H 816.579 -3.03232 4.86542 0
M  V30 8638 H 814.976 -2.50345 5.45387 0
M  V30 8639 H 816.046 -1.33227 4.66239 0
M  V30 8640 N 817.389 -1.46805 -0.573248 0
M  V30 8641 C 818.337 -1.58468 -1.70267 0
M  V30 8642 C 819.331 -0.452694 -1.63239 0
M  V30 8643 O 820.537 -0.629915 -1.68618 0
M  V30 8644 H 816.912 -0.498408 -0.56311 0
M  V30 8645 H 818.883 -2.5341 -1.57563 0
M  V30 8646 C 817.632 -1.60104 -3.08645 0
M  V30 8647 H 816.955 -2.4655 -3.14727 0
M  V30 8648 H 818.395 -1.72318 -3.87405 0
M  V30 8649 C 816.854 -0.33138 -3.35266 0
M  V30 8650 O 817.384 0.57438 -3.97572 0
M  V30 8651 N 815.59 -0.216358 -2.89793 0
M  V30 8652 H 815.137 -0.954345 -2.3927 0
M  V30 8653 H 815.095 0.632253 -3.07977 0
M  V30 8654 N 818.867 0.818669 -1.34668 0
M  V30 8655 C 819.797 1.94468 -1.29245 0
M  V30 8656 C 820.778 1.69257 -0.169101 0
M  V30 8657 O 821.963 1.90794 -0.362143 0
M  V30 8658 C 819.093 3.31001 -1.05145 0
M  V30 8659 C 818.047 3.70663 -2.13992 0
M  V30 8660 C 817.373 5.05226 -1.75074 0
M  V30 8661 C 818.673 3.82312 -3.55858 0
M  V30 8662 H 820.367 1.99263 -2.2346 0
M  V30 8663 H 817.913 0.957304 -1.07572 0
M  V30 8664 H 819.866 4.09364 -0.999949 0
M  V30 8665 H 818.59 3.26517 -0.0737312 0
M  V30 8666 H 817.249 2.94578 -2.18219 0
M  V30 8667 H 816.897 4.97233 -0.759518 0
M  V30 8668 H 816.597 5.32734 -2.47928 0
M  V30 8669 H 818.121 5.86042 -1.71427 0
M  V30 8670 H 819.535 4.50935 -3.5402 0
M  V30 8671 H 817.932 4.21278 -4.2737 0
M  V30 8672 H 819.002 2.84193 -3.9289 0
M  V30 8673 N 820.346 1.18468 1.03938 0
M  V30 8674 C 821.594 0.978895 1.76811 0
M  V30 8675 C 821.915 -0.49257 1.88676 0
M  V30 8676 O 821.185 -1.3572 1.41269 0
M  V30 8677 H 819.765 0.359201 0.654968 0
M  V30 8678 H 822.427 1.49173 1.25433 0
M  V30 8679 H 821.523 1.418 2.78027 0
M  V30 8680 N 821.824 -1.22873 0.986916 0
M  V30 8681 C 823.052 -1.95487 0.677663 0
M  V30 8682 C 823.467 -1.72978 -0.756572 0
M  V30 8683 O 822.824 -1.02517 -1.50985 0
M  V30 8684 C 822.875 -3.48337 0.966638 0
M  V30 8685 O 822.596 -3.70087 2.34451 0
M  V30 8686 C 824.097 -4.38142 0.674248 0
M  V30 8687 H 821.317 -0.622211 0.251185 0
M  V30 8688 H 823.861 -1.56187 1.32007 0
M  V30 8689 H 822.016 -3.85628 0.370137 0
M  V30 8690 H 822.43 -4.64332 2.43918 0
M  V30 8691 H 823.904 -5.44165 0.926759 0
M  V30 8692 H 824.381 -4.3745 -0.391728 0
M  V30 8693 H 824.987 -4.06469 1.25152 0
M  V30 8694 N 823.302 -0.75937 -1.38099 0
M  V30 8695 C 824.579 -0.243371 -1.9408 0
M  V30 8696 C 824.959 1.25942 -1.69416 0
M  V30 8697 O 824.307 2.03667 -1.03595 0
M  V30 8698 C 824.517 -0.603328 -3.43745 0
M  V30 8699 C 825.865 -0.566195 -4.20808 0
M  V30 8700 O 826.889 -0.541969 -3.52053 0
M  V30 8701 O 825.748 -0.582261 -5.43389 0
M  V30 8702 H 822.842 -0.0526825 -0.82532 0
M  V30 8703 H 825.388 -0.839884 -1.47459 0
M  V30 8704 H 824.16 -1.64098 -3.55229 0
M  V30 8705 H 823.783 0.0208887 -3.97595 0
M  V30 8706 N 824.78 1.49157 -0.508906 0
M  V30 8707 C 826.005 2.07376 0.0315182 0
M  V30 8708 C 826.43 1.36575 1.2934 0
M  V30 8709 O 825.788 0.424963 1.76249 0
M  V30 8710 C 825.836 3.59661 0.260118 0
M  V30 8711 O 824.94 3.90255 1.33322 0
M  V30 8712 H 824.281 0.663334 -0.029739 0
M  V30 8713 H 826.811 1.91857 -0.710791 0
M  V30 8714 H 826.821 4.05056 0.489225 0
M  V30 8715 H 825.496 4.10601 -0.661794 0
M  V30 8716 H 824.073 3.56661 1.08844 0
M  V30 8717 N 826.258 0.243083 1.55714 0
M  V30 8718 C 827.535 -0.432851 1.90751 0
M  V30 8719 C 827.915 -1.76153 1.16333 0
M  V30 8720 O 827.263 -2.26783 0.279565 0
M  V30 8721 C 827.473 -0.604685 3.43722 0
M  V30 8722 C 828.821 -0.90231 4.14902 0
M  V30 8723 O 829.845 -0.690689 3.49439 0
M  V30 8724 O 828.704 -1.3051 5.30688 0
M  V30 8725 H 825.798 -0.231835 0.79384 0
M  V30 8726 H 828.344 0.286867 1.67258 0
M  V30 8727 H 827.116 0.331655 3.89892 0
M  V30 8728 H 826.739 -1.37509 3.73065 0
M  V30 8729 N 827.736 -1.57571 -0.0300757 0
M  V30 8730 C 828.961 -1.93879 -0.736601 0
M  V30 8731 C 829.386 -0.842998 -1.68152 0
M  V30 8732 O 828.744 0.20135 -1.80178 0
M  V30 8733 C 828.792 -3.29247 -1.47066 0
M  V30 8734 O 827.896 -3.21426 -2.58378 0
M  V30 8735 H 827.237 -0.633735 -0.198181 0
M  V30 8736 H 829.767 -2.04595 0.0141485 0
M  V30 8737 H 829.777 -3.64113 -1.84081 0
M  V30 8738 H 828.452 -4.08565 -0.77764 0
M  V30 8739 H 827.029 -2.98189 -2.23914 0
M  V30 8740 N 829.214 0.302327 -1.54673 0
M  V30 8741 C 830.439 1.06103 -1.78205 0
M  V30 8742 C 830.864 1.80204 -0.53926 0
M  V30 8743 O 830.222 1.73975 0.510142 0
M  V30 8744 C 830.27 2.01829 -2.98827 0
M  V30 8745 O 829.374 3.10108 -2.71858 0
M  V30 8746 H 828.715 0.30487 -0.589873 0
M  V30 8747 H 831.245 0.340153 -2.01753 0
M  V30 8748 H 831.255 2.44319 -3.2676 0
M  V30 8749 H 829.93 1.473 -3.88942 0
M  V30 8750 H 828.507 2.72142 -2.54937 0
M  V30 8751 N 830.692 1.47107 0.565454 0
M  V30 8752 C 832.103 1.47266 1.1476 0
M  V30 8753 C 832.454 0.222841 1.9493 0
M  V30 8754 O 831.579 -0.672862 2.05673 0
M  V30 8755 C 832.174 2.66822 2.08785 0
M  V30 8756 C 830.733 2.69967 2.62288 0
M  V30 8757 C 829.88 2.40236 1.38499 0
M  V30 8758 H 832.831 1.54736 0.352479 0
M  V30 8759 H 832.852 2.43323 2.92531 0
M  V30 8760 H 832.364 3.5777 1.50408 0
M  V30 8761 H 830.465 1.83137 3.24487 0
M  V30 8762 H 830.578 3.70426 3.03845 0
M  V30 8763 H 828.942 1.90648 1.68895 0
M  V30 8764 H 829.725 3.33381 0.819274 0
M  V30 8765 N 832.17 -0.811516 1.35101 0
M  V30 8766 C 833.102 -1.93102 1.23468 0
M  V30 8767 C 834.115 -1.62021 0.159095 0
M  V30 8768 O 835.304 -1.73682 0.411945 0
M  V30 8769 C 832.404 -3.27345 0.877404 0
M  V30 8770 C 831.577 -3.86368 2.05033 0
M  V30 8771 C 830.636 -4.99009 1.66963 0
M  V30 8772 O 829.662 -5.16698 2.38772 0
M  V30 8773 N 830.864 -5.7749 0.590394 0
M  V30 8774 H 833.629 -2.0361 2.19916 0
M  V30 8775 H 831.19 -0.988687 1.28205 0
M  V30 8776 H 833.182 -4.00163 0.604298 0
M  V30 8777 H 831.752 -3.126 0.00275267 0
M  V30 8778 H 830.972 -3.05804 2.48752 0
M  V30 8779 H 832.26 -4.22533 2.83449 0
M  V30 8780 H 831.658 -5.657 -0.00633259 0
M  V30 8781 H 830.215 -6.50708 0.377055 0
M  V30 8782 N 833.648 -1.19017 -1.03309 0
M  V30 8783 C 834.595 -0.924088 -2.11493 0
M  V30 8784 C 835.565 0.139464 -1.65513 0
M  V30 8785 O 836.75 -0.00178761 -1.908 0
M  V30 8786 C 833.89 -0.464255 -3.41963 0
M  V30 8787 C 833.003 -1.5941 -4.01513 0
M  V30 8788 C 832.138 -1.08622 -5.19976 0
M  V30 8789 C 831.177 -2.19024 -5.71572 0
M  V30 8790 N 830.314 -1.69575 -6.81314 0
M  V30 8791 H 835.154 -1.85039 -2.33591 0
M  V30 8792 H 832.691 -0.922593 -1.14572 0
M  V30 8793 H 834.649 -0.179078 -4.16815 0
M  V30 8794 H 833.279 0.425062 -3.19989 0
M  V30 8795 H 832.331 -1.99458 -3.23915 0
M  V30 8796 H 833.643 -2.42604 -4.35826 0
M  V30 8797 H 832.797 -0.756022 -6.01971 0
M  V30 8798 H 831.536 -0.223955 -4.87186 0
M  V30 8799 H 830.541 -2.5288 -4.88193 0
M  V30 8800 H 831.766 -3.05699 -6.06403 0
M  V30 8801 H 829.712 -0.856494 -6.50385 0
M  V30 8802 H 829.629 -2.46361 -7.14732 0
M  V30 8803 H 830.897 -1.39505 -7.66915 0
M  V30 8804 N 835.127 1.22348 -0.993418 0
M  V30 8805 C 836.352 1.95666 -0.687727 0
M  V30 8806 C 836.777 1.72883 0.741161 0
M  V30 8807 O 836.135 1.00837 1.50671 0
M  V30 8808 C 836.183 3.46457 -0.99998 0
M  V30 8809 O 835.287 4.12281 -0.0989386 0
M  V30 8810 H 834.628 0.612102 -0.257346 0
M  V30 8811 H 837.158 1.55428 -1.33054 0
M  V30 8812 H 837.168 3.96976 -0.942035 0
M  V30 8813 H 835.843 3.62365 -2.04118 0
M  V30 8814 H 834.42 3.72295 -0.212413 0
M  V30 8815 N 836.605 0.766683 1.37694 0
M  V30 8816 C 837.83 0.338715 2.04615 0
M  V30 8817 C 838.255 -1.02918 1.57447 0
M  V30 8818 O 837.613 -1.65849 0.732386 0
M  V30 8819 C 837.661 0.385284 3.58536 0
M  V30 8820 O 836.765 -0.616081 4.07772 0
M  V30 8821 H 836.106 0.147527 0.647404 0
M  V30 8822 H 838.636 1.04146 1.7611 0
M  V30 8823 H 838.646 0.240782 4.07289 0
M  V30 8824 H 837.321 1.38325 3.92223 0
M  V30 8825 H 835.898 -0.435115 3.70353 0
M  V30 8826 N 838.083 -1.48885 0.516809 0
M  V30 8827 C 839.499 -1.58651 0.173788 0
M  V30 8828 C 839.699 -1.52033 -1.32243 0
M  V30 8829 O 838.755 -1.40251 -2.09967 0
M  V30 8830 C 840.068 -2.90816 0.764628 0
M  V30 8831 C 841.616 -3.04316 0.732164 0
M  V30 8832 C 842.091 -4.39123 1.30135 0
M  V30 8833 N 843.582 -4.45656 1.26273 0
M  V30 8834 C 844.317 -5.48446 1.67317 0
M  V30 8835 N 843.813 -6.58258 2.16028 0
M  V30 8836 N 845.606 -5.39251 1.58635 0
M  V30 8837 H 837.757 -1.5143 1.48939 0
M  V30 8838 H 840.02 -0.718243 0.618733 0
M  V30 8839 H 839.726 -3.01275 1.81456 0
M  V30 8840 H 839.6 -3.76473 0.234113 0
M  V30 8841 H 841.987 -2.93478 -0.308975 0
M  V30 8842 H 842.068 -2.20303 1.3 0
M  V30 8843 H 841.712 -4.50714 2.34135 0
M  V30 8844 H 841.642 -5.21801 0.709305 0
M  V30 8845 H 844.133 -3.66879 0.906006 0
M  V30 8846 H 844.446 -7.32811 2.45374 0
M  V30 8847 H 842.791 -6.59257 2.20013 0
M  V30 8848 H 845.982 -4.52354 1.20387 0
M  V30 8849 H 846.155 -6.19229 1.90944 0
M  V30 8850 N 839.561 -0.251338 -1.55583 0
M  V30 8851 C 840.838 0.422729 -1.90977 0
M  V30 8852 C 841.218 1.75534 -1.17265 0
M  V30 8853 O 840.566 2.26632 -0.291588 0
M  V30 8854 C 840.776 0.586448 -3.44037 0
M  V30 8855 C 842.124 0.880294 -4.15375 0
M  V30 8856 O 843.148 0.672148 -3.49801 0
M  V30 8857 O 842.007 1.27694 -5.31372 0
M  V30 8858 H 839.101 0.227622 -0.795058 0
M  V30 8859 H 841.647 -0.295733 -1.67103 0
M  V30 8860 H 840.419 -0.352327 -3.89711 0
M  V30 8861 H 840.042 1.35528 -3.73789 0
M  V30 8862 N 841.039 1.57585 0.0217189 0
M  V30 8863 C 842.45 1.7787 0.567377 0
M  V30 8864 C 842.801 0.883337 1.7519 0
M  V30 8865 O 841.926 0.0800819 2.16252 0
M  V30 8866 C 842.521 3.2257 1.03606 0
M  V30 8867 C 841.08 3.44026 1.52718 0
M  V30 8868 C 840.227 2.73313 0.468545 0
M  V30 8869 H 843.178 1.57377 -0.2045 0
M  V30 8870 H 843.199 3.29488 1.9031 0
M  V30 8871 H 842.711 3.87711 0.173739 0
M  V30 8872 H 840.812 2.8407 2.41111 0
M  V30 8873 H 840.925 4.52659 1.56962 0
M  V30 8874 H 839.289 2.37299 0.925263 0
M  V30 8875 H 840.072 3.41141 -0.384438 0
M  V30 8876 N 842.517 -0.29412 1.54831 0
M  V30 8877 C 843.928 -0.866651 1.65366 0
M  V30 8878 C 844.279 -1.87834 0.56681 0
M  V30 8879 O 843.404 -2.14374 -0.295389 0
M  V30 8880 C 843.999 -1.57869 2.99771 0
M  V30 8881 C 842.558 -2.09954 3.12404 0
M  V30 8882 C 841.705 -0.934492 2.6108 0
M  V30 8883 H 844.656 -0.0709551 1.58541 0
M  V30 8884 H 844.677 -2.44462 2.91579 0
M  V30 8885 H 844.189 -0.84212 3.78853 0
M  V30 8886 H 842.29 -2.86637 2.38055 0
M  V30 8887 H 842.403 -2.32934 4.18663 0
M  V30 8888 H 840.767 -1.32199 2.17705 0
M  V30 8889 H 841.55 -0.211768 3.42646 0
M  V30 8890 N 843.995 -1.47404 -0.557645 0
M  V30 8891 C 845.22 -1.57868 -1.34508 0
M  V30 8892 C 845.645 -0.229151 -1.86699 0
M  V30 8893 O 845.003 0.794908 -1.62944 0
M  V30 8894 C 845.051 -2.60712 -2.49122 0
M  V30 8895 O 844.155 -2.15952 -3.51338 0
M  V30 8896 H 843.496 -0.530335 -0.399551 0
M  V30 8897 H 846.026 -1.93181 -0.673954 0
M  V30 8898 H 846.036 -2.81118 -2.95697 0
M  V30 8899 H 844.711 -3.58701 -2.10491 0
M  V30 8900 H 843.288 -2.05644 -3.11071 0
M  V30 8901 N 845.473 0.80434 -1.35529 0
M  V30 8902 C 846.698 1.598 -1.32207 0
M  V30 8903 C 847.123 1.87848 0.0974226 0
M  V30 8904 O 846.481 1.46728 1.06492 0
M  V30 8905 C 846.529 2.90483 -2.13663 0
M  V30 8906 O 845.633 3.83411 -1.51888 0
M  V30 8907 H 844.974 0.485305 -0.453183 0
M  V30 8908 H 847.504 0.998119 -1.78602 0
M  V30 8909 H 847.514 3.39888 -2.257 0
M  V30 8910 H 846.189 2.69395 -3.16859 0
M  V30 8911 H 844.766 3.41967 -1.48704 0
M  V30 8912 N 846.951 1.19563 1.02676 0
M  V30 8913 C 848.362 1.00158 1.57561 0
M  V30 8914 C 848.713 -0.444922 1.91089 0
M  V30 8915 O 847.838 -1.32466 1.71119 0
M  V30 8916 C 848.433 1.81181 2.86284 0
M  V30 8917 C 846.992 1.66171 3.37734 0
M  V30 8918 C 846.139 1.7975 2.11152 0
M  V30 8919 H 849.09 1.33904 0.85179 0
M  V30 8920 H 849.111 1.30916 3.57269 0
M  V30 8921 H 848.623 2.86454 2.6185 0
M  V30 8922 H 846.724 0.634927 3.6715 0
M  V30 8923 H 846.837 2.46832 4.10622 0
M  V30 8924 H 845.201 1.22833 2.23123 0
M  V30 8925 H 845.984 2.86487 1.89157 0
M  V30 8926 N 848.429 -1.21819 0.999893 0
M  V30 8927 C 849.654 -1.95298 0.698094 0
M  V30 8928 C 850.079 -1.73273 -0.731982 0
M  V30 8929 O 849.437 -1.01634 -1.50134 0
M  V30 8930 C 849.485 -3.45922 1.01834 0
M  V30 8931 O 848.589 -4.12223 0.120801 0
M  V30 8932 H 847.93 -0.610729 0.260588 0
M  V30 8933 H 850.46 -1.5472 1.33876 0
M  V30 8934 H 850.47 -3.96471 0.963074 0
M  V30 8935 H 849.145 -3.61278 2.06037 0
M  V30 8936 H 847.722 -3.72177 0.232153 0
M  V30 8937 N 849.908 -0.773975 -1.37286 0
M  V30 8938 C 851.133 -0.349561 -2.04433 0
M  V30 8939 C 851.558 1.02082 -1.5799 0
M  V30 8940 O 850.916 1.65458 -0.741172 0
M  V30 8941 C 850.964 -0.404292 -3.58326 0
M  V30 8942 O 850.068 0.594447 -4.08093 0
M  V30 8943 H 849.409 -0.150959 -0.646612 0
M  V30 8944 H 851.939 -1.05079 -1.75555 0
M  V30 8945 H 851.949 -0.262378 -4.07155 0
M  V30 8946 H 850.624 -1.40403 -3.91484 0
M  V30 8947 H 849.201 0.415468 -3.70578 0
M  V30 8948 N 851.386 1.48609 -0.524698 0
M  V30 8949 C 852.316 2.32366 0.229837 0
M  V30 8950 C 853.297 1.41759 0.940129 0
M  V30 8951 O 854.482 1.7065 0.926936 0
M  V30 8952 C 851.612 3.22835 1.28043 0
M  V30 8953 C 850.566 4.22424 0.688603 0
M  V30 8954 C 849.892 5.0199 1.84146 0
M  V30 8955 C 851.192 5.21217 -0.336176 0
M  V30 8956 H 852.886 2.95698 -0.469339 0
M  V30 8957 H 850.432 1.42197 -0.227156 0
M  V30 8958 H 852.385 3.80253 1.8162 0
M  V30 8959 H 851.109 2.57492 2.00912 0
M  V30 8960 H 849.768 3.66185 0.174402 0
M  V30 8961 H 849.416 4.33076 2.5584 0
M  V30 8962 H 849.116 5.69392 1.45142 0
M  V30 8963 H 850.64 5.62259 2.38111 0
M  V30 8964 H 852.054 5.7319 0.112307 0
M  V30 8965 H 850.451 5.96642 -0.643324 0
M  V30 8966 H 851.521 4.68676 -1.24381 0
M  V30 8967 N 852.864 0.259585 1.55447 0
M  V30 8968 C 854.089 -0.368317 2.04103 0
M  V30 8969 C 854.514 -1.49827 1.13725 0
M  V30 8970 O 853.872 -1.80814 0.132705 0
M  V30 8971 C 853.92 -0.841506 3.50644 0
M  V30 8972 O 853.024 -1.95008 3.63381 0
M  V30 8973 H 852.365 -0.0785227 0.659341 0
M  V30 8974 H 854.895 0.389349 2.00861 0
M  V30 8975 H 854.905 -1.14138 3.9171 0
M  V30 8976 H 853.58 -0.0147001 4.15897 0
M  V30 8977 H 852.157 -1.65393 3.34215 0
M  V30 8978 N 854.342 -1.57594 -0.0133615 0
M  V30 8979 C 855.567 -1.94649 -0.715996 0
M  V30 8980 C 855.992 -0.860786 -1.67249 0
M  V30 8981 O 855.35 0.182228 -1.80382 0
M  V30 8982 C 855.398 -3.30789 -1.43566 0
M  V30 8983 O 854.502 -3.24148 -2.54955 0
M  V30 8984 H 853.843 -0.635801 -0.191449 0
M  V30 8985 H 856.373 -2.04569 0.0358478 0
M  V30 8986 H 856.383 -3.66045 -1.80208 0
M  V30 8987 H 855.058 -4.09367 -0.734263 0
M  V30 8988 H 853.635 -3.00548 -2.20739 0
M  V30 8989 N 855.82 0.285905 -1.54985 0
M  V30 8990 C 857.231 0.857869 -1.65824 0
M  V30 8991 C 857.582 1.87531 -0.576763 0
M  V30 8992 O 856.707 2.14528 0.284016 0
M  V30 8993 C 857.302 1.56277 -3.00604 0
M  V30 8994 C 855.861 2.08294 -3.13513 0
M  V30 8995 C 855.008 0.920633 -2.61571 0
M  V30 8996 H 857.959 0.0625463 -1.58577 0
M  V30 8997 H 857.98 2.42912 -2.92872 0
M  V30 8998 H 857.492 0.822017 -3.79295 0
M  V30 8999 H 855.593 2.8537 -2.39572 0
M  V30 9000 H 855.706 2.3071 -4.19892 0
M  V30 9001 H 854.07 1.31043 -2.18403 0
M  V30 9002 H 854.853 0.193594 -3.42754 0
M  V30 9003 N 857.298 1.47698 0.54982 0
M  V30 9004 C 858.547 1.53961 1.30303 0
M  V30 9005 C 858.86 0.209731 1.94472 0
M  V30 9006 O 860.066 0.150418 2.71083 0
M  V30 9007 C 858.522 2.71436 2.36328 0
M  V30 9008 C 858.13 4.10983 1.78316 0
M  V30 9009 C 859.874 2.86996 3.12783 0
M  V30 9010 C 857.781 5.19747 2.82164 0
M  V30 9011 H 856.711 0.573098 0.489975 0
M  V30 9012 H 859.362 1.73989 0.583089 0
M  V30 9013 H 857.744 2.44801 3.11269 0
M  V30 9014 H 858.918 4.47552 1.09697 0
M  V30 9015 H 857.233 4.00371 1.1442 0
M  V30 9016 H 859.83 3.65422 3.90347 0
M  V30 9017 H 860.173 1.95712 3.67427 0
M  V30 9018 H 860.706 3.13436 2.44954 0
M  V30 9019 H 857.445 6.12932 2.32366 0
M  V30 9020 H 856.965 4.87688 3.49171 0
M  V30 9021 H 858.644 5.47014 3.4552 0
M  V30 9022 N 858.776 -0.797141 1.35954 0
M  V30 9023 C 859.708 -1.91782 1.25509 0
M  V30 9024 C 860.721 -1.61843 0.176271 0
M  V30 9025 O 861.91 -1.73235 0.430343 0
M  V30 9026 C 859.01 -3.26396 0.912073 0
M  V30 9027 C 858.183 -3.84171 2.0912 0
M  V30 9028 C 857.242 -4.9721 1.72246 0
M  V30 9029 O 856.268 -5.14136 2.44239 0
M  V30 9030 N 857.47 -5.76831 0.651611 0
M  V30 9031 H 860.235 -2.01266 2.22063 0
M  V30 9032 H 857.796 -0.975033 1.29247 0
M  V30 9033 H 859.788 -3.99499 0.646707 0
M  V30 9034 H 858.358 -3.12579 0.0359079 0
M  V30 9035 H 857.578 -3.03148 2.51982 0
M  V30 9036 H 858.866 -4.19503 2.87914 0
M  V30 9037 H 858.264 -5.65675 0.0536678 0
M  V30 9038 H 856.821 -6.50272 0.44605 0
M  V30 9039 N 860.254 -1.20106 -1.0204 0
M  V30 9040 C 861.164 -0.962051 -2.13967 0
M  V30 9041 C 862.18 0.0808053 -1.73812 0
M  V30 9042 O 863.356 -0.105774 -2.01122 0
M  V30 9043 C 860.421 -0.513108 -3.42882 0
M  V30 9044 C 859.482 -1.62636 -3.97301 0
M  V30 9045 C 858.715 -1.19875 -5.20063 0
M  V30 9046 O 858.938 -0.0658423 -5.70362 0
M  V30 9047 O 857.872 -2.00467 -5.67536 0
M  V30 9048 H 861.698 -1.8991 -2.36998 0
M  V30 9049 H 859.283 -0.984608 -1.12365 0
M  V30 9050 H 861.165 -0.271797 -4.20523 0
M  V30 9051 H 859.84 0.395402 -3.21276 0
M  V30 9052 H 858.747 -1.92192 -3.20957 0
M  V30 9053 H 860.08 -2.51174 -4.23288 0
M  V30 9054 N 861.732 1.21287 -1.00634 0
M  V30 9055 C 862.957 1.94925 -0.708441 0
M  V30 9056 C 863.382 1.73659 0.722783 0
M  V30 9057 O 862.74 1.02429 1.49593 0
M  V30 9058 C 862.788 3.45377 -1.03667 0
M  V30 9059 O 861.892 4.12153 -0.142661 0
M  V30 9060 H 861.233 0.609338 -0.263824 0
M  V30 9061 H 863.763 1.54008 -1.34695 0
M  V30 9062 H 863.773 3.95954 -0.984086 0
M  V30 9063 H 862.448 3.6018 -2.0795 0
M  V30 9064 H 861.025 3.72048 -0.251888 0
M  V30 9065 N 863.21 0.781244 1.36873 0
M  V30 9066 C 864.438 0.361566 2.03716 0
M  V30 9067 C 864.853 -1.01937 1.58916 0
M  V30 9068 O 864.21 -1.65237 0.774783 0
M  V30 9069 C 864.261 0.406391 3.59208 0
M  V30 9070 O 863.982 1.73286 4.02372 0
M  V30 9071 C 865.483 -0.0236894 4.43294 0
M  V30 9072 H 862.703 0.150133 0.653988 0
M  V30 9073 H 865.247 1.05781 1.75016 0
M  V30 9074 H 863.402 -0.241364 3.86647 0
M  V30 9075 H 863.816 1.67804 4.96933 0
M  V30 9076 H 865.29 0.0588205 5.51969 0
M  V30 9077 H 865.767 -1.07529 4.25833 0
M  V30 9078 H 866.373 0.59624 4.211 0
M  V30 9079 N 864.689 -1.48329 0.532571 0
M  V30 9080 C 865.652 -2.2816 -0.218069 0
M  V30 9081 C 866.652 -1.35526 -0.865409 0
M  V30 9082 O 867.842 -1.58394 -0.725061 0
M  V30 9083 C 864.974 -3.1448 -1.31586 0
M  V30 9084 H 866.167 -2.95987 0.482865 0
M  V30 9085 H 863.72 -1.53612 0.288603 0
M  V30 9086 H 864.455 -2.5129 -2.04997 0
M  V30 9087 H 864.24 -3.82625 -0.856779 0
M  V30 9088 H 865.73 -3.74693 -1.84377 0
M  V30 9089 N 866.167 -0.267825 -1.55308 0
M  V30 9090 C 867.578 0.231344 -1.85261 0
M  V30 9091 C 867.929 1.56006 -1.18982 0
M  V30 9092 O 867.054 2.1111 -0.475554 0
M  V30 9093 C 867.649 0.426537 -3.36104 0
M  V30 9094 C 866.208 0.869945 -3.66209 0
M  V30 9095 C 865.355 -0.0409522 -2.7727 0
M  V30 9096 H 868.306 -0.489821 -1.50952 0
M  V30 9097 H 868.327 1.26616 -3.58816 0
M  V30 9098 H 867.839 -0.540678 -3.84315 0
M  V30 9099 H 865.94 1.84889 -3.23492 0
M  V30 9100 H 866.053 0.712316 -4.73775 0
M  V30 9101 H 864.417 0.474097 -2.50249 0
M  V30 9102 H 865.2 -1.00392 -3.28293 0
M  V30 9103 N 867.645 1.57599 0.00500368 0
M  V30 9104 C 868.555 2.11532 1.01446 0
M  V30 9105 C 869.571 1.05941 1.3803 0
M  V30 9106 O 870.747 1.37815 1.46864 0
M  V30 9107 C 867.812 2.60382 2.28915 0
M  V30 9108 C 866.873 3.80554 1.98689 0
M  V30 9109 C 866.106 4.27064 3.20081 0
M  V30 9110 O 866.329 3.72939 4.31593 0
M  V30 9111 O 865.263 5.1927 3.04371 0
M  V30 9112 H 869.089 2.97993 0.586011 0
M  V30 9113 H 866.674 1.47718 0.223519 0
M  V30 9114 H 868.556 2.92024 3.03809 0
M  V30 9115 H 867.231 1.77022 2.71007 0
M  V30 9116 H 866.138 3.53893 1.21286 0
M  V30 9117 H 867.471 4.64972 1.61437 0
M  V30 9118 N 869.123 -0.277682 1.55134 0
M  V30 9119 C 870.053 -1.34742 1.90701 0
M  V30 9120 C 871.034 -1.51757 0.768354 0
M  V30 9121 O 872.219 -1.64879 1.02609 0
M  V30 9122 C 869.349 -2.70775 2.17481 0
M  V30 9123 C 868.303 -2.68497 3.33307 0
M  V30 9124 C 867.629 -4.08037 3.45557 0
M  V30 9125 C 868.929 -2.28178 4.69821 0
M  V30 9126 H 870.623 -1.05224 2.803 0
M  V30 9127 H 868.169 -0.504738 1.34864 0
M  V30 9128 H 870.122 -3.45719 2.40949 0
M  V30 9129 H 868.846 -3.01867 1.24676 0
M  V30 9130 H 867.505 -1.9601 3.09799 0
M  V30 9131 H 867.153 -4.36344 2.50226 0
M  V30 9132 H 866.853 -4.07409 4.23429 0
M  V30 9133 H 868.377 -4.84726 3.71312 0
M  V30 9134 H 869.791 -2.92843 4.92865 0
M  V30 9135 H 868.188 -2.3872 5.50575 0
M  V30 9136 H 869.258 -1.23308 4.6896 0
M  V30 9137 N 870.601 -1.47988 -0.541979 0
M  V30 9138 C 872.012 -1.49073 -1.12402 0
M  V30 9139 C 872.363 -0.253825 -1.94551 0
M  V30 9140 O 871.488 0.640056 -2.06718 0
M  V30 9141 C 872.083 -2.7011 -2.04514 0
M  V30 9142 C 870.642 -2.74105 -2.5796 0
M  V30 9143 C 869.789 -2.42409 -1.3466 0
M  V30 9144 H 872.74 -1.55277 -0.327818 0
M  V30 9145 H 872.761 -2.47946 -2.88623 0
M  V30 9146 H 872.273 -3.60117 -1.44697 0
M  V30 9147 H 870.374 -1.88276 -3.21532 0
M  V30 9148 H 870.487 -3.75213 -2.97913 0
M  V30 9149 H 868.851 -1.9331 -1.65841 0
M  V30 9150 H 869.634 -3.34642 -0.766133 0
M  V30 9151 N 872.079 0.78992 -1.36375 0
M  V30 9152 C 873.304 1.58389 -1.33895 0
M  V30 9153 C 873.729 1.8794 0.0774934 0
M  V30 9154 O 873.087 1.4785 1.0493 0
M  V30 9155 C 873.135 2.88201 -2.16732 0
M  V30 9156 O 872.239 3.81778 -1.55946 0
M  V30 9157 H 871.58 0.480471 -0.458305 0
M  V30 9158 H 874.11 0.979119 -1.79651 0
M  V30 9159 H 874.12 3.37475 -2.29292 0
M  V30 9160 H 872.795 2.66019 -3.19698 0
M  V30 9161 H 871.372 3.40371 -1.52323 0
M  V30 9162 N 873.557 1.20646 1.01402 0
M  V30 9163 C 874.467 0.973385 2.13453 0
M  V30 9164 C 875.483 -0.0715865 1.73853 0
M  V30 9165 O 876.659 0.116438 2.01063 0
M  V30 9166 C 873.724 0.531285 3.42605 0
M  V30 9167 C 872.785 1.64741 3.96433 0
M  V30 9168 C 872.018 1.22631 5.1942 0
M  V30 9169 O 872.241 0.0960891 5.70319 0
M  V30 9170 O 871.175 2.03474 5.66465 0
M  V30 9171 H 875.001 1.91164 2.35987 0
M  V30 9172 H 872.586 0.990553 1.11841 0
M  V30 9173 H 874.468 0.294095 4.20373 0
M  V30 9174 H 873.143 -0.378358 3.21481 0
M  V30 9175 H 872.05 1.93891 3.19933 0
M  V30 9176 H 873.383 2.53415 4.2195 0
M  V30 9177 N 875.035 -1.20752 1.01276 0
M  V30 9178 C 876.263 -1.94006 0.718976 0
M  V30 9179 C 876.678 -1.74544 -0.719711 0
M  V30 9180 O 876.035 -1.05697 -1.48776 0
M  V30 9181 C 876.086 -3.46208 1.04031 0
M  V30 9182 O 875.807 -3.65031 2.42248 0
M  V30 9183 C 877.308 -4.36614 0.767032 0
M  V30 9184 H 874.528 -0.616743 0.264327 0
M  V30 9185 H 877.072 -1.53352 1.3529 0
M  V30 9186 H 875.227 -3.84756 0.451852 0
M  V30 9187 H 875.641 -4.59054 2.53712 0
M  V30 9188 H 877.115 -5.42076 1.04198 0
M  V30 9189 H 877.592 -4.38182 -0.298851 0
M  V30 9190 H 878.198 -4.03723 1.33746 0
M  V30 9191 N 876.513 -0.788492 -1.36457 0
M  V30 9192 C 877.445 -0.144208 -2.28746 0
M  V30 9193 C 878.458 0.646009 -1.49434 0
M  V30 9194 O 879.647 0.481344 -1.71888 0
M  V30 9195 C 876.747 0.818869 -3.28858 0
M  V30 9196 C 875.92 0.0789055 -4.37329 0
M  V30 9197 C 874.979 0.957791 -5.1741 0
M  V30 9198 O 874.005 0.415378 -5.67682 0
M  V30 9199 N 875.207 2.28216 -5.33758 0
M  V30 9200 H 877.972 -0.936949 -2.84678 0
M  V30 9201 H 875.533 -0.642317 -1.48613 0
M  V30 9202 H 877.525 1.41065 -3.79319 0
M  V30 9203 H 876.095 1.51249 -2.73573 0
M  V30 9204 H 875.315 -0.693939 -3.88044 0
M  V30 9205 H 876.603 -0.431753 -5.06965 0
M  V30 9206 H 876.001 2.747 -4.94527 0
M  V30 9207 H 874.558 2.8236 -5.87466 0
M  V30 9208 N 877.991 1.48044 -0.54043 0
M  V30 9209 C 878.901 2.33565 0.220163 0
M  V30 9210 C 879.917 1.47146 0.928659 0
M  V30 9211 O 881.093 1.80107 0.901295 0
M  V30 9212 C 878.158 3.2349 1.2472 0
M  V30 9213 C 877.219 4.25789 0.547938 0
M  V30 9214 C 876.452 5.11417 1.52605 0
M  V30 9215 O 876.675 4.99204 2.75956 0
M  V30 9216 O 875.609 5.92498 1.05972 0
M  V30 9217 H 879.435 2.99868 -0.480898 0
M  V30 9218 H 877.02 1.46332 -0.301226 0
M  V30 9219 H 878.902 3.79084 1.84047 0
M  V30 9220 H 877.577 2.59835 1.93048 0
M  V30 9221 H 876.484 3.74001 -0.0860941 0
M  V30 9222 H 877.817 4.92111 -0.0935896 0
M  V30 9223 N 879.47 0.276058 1.55163 0
M  V30 9224 C 880.698 -0.343772 2.04024 0
M  V30 9225 C 881.113 -1.49397 1.15438 0
M  V30 9226 O 880.47 -1.81662 0.174692 0
M  V30 9227 C 880.521 -0.823885 3.51986 0
M  V30 9228 O 880.242 0.280507 4.37201 0
M  V30 9229 C 881.743 -1.51143 4.16738 0
M  V30 9230 H 878.963 -0.07828 0.666418 0
M  V30 9231 H 881.507 0.408427 2.0038 0
M  V30 9232 H 879.662 -1.52617 3.56071 0
M  V30 9233 H 880.076 -0.0887831 5.24425 0
M  V30 9234 H 881.55 -1.79878 5.2187 0
M  V30 9235 H 882.027 -2.44327 3.64967 0
M  V30 9236 H 882.633 -0.852975 4.16659 0
M  V30 9237 N 880.948 -1.576 0.00335426 0
M  V30 9238 C 882.359 -1.7875 -0.539008 0
M  V30 9239 C 882.71 -0.911097 -1.73763 0
M  V30 9240 O 881.835 -0.114476 -2.16097 0
M  V30 9241 C 882.43 -3.24177 -0.984611 0
M  V30 9242 C 880.989 -3.46412 -1.47226 0
M  V30 9243 C 880.136 -2.74024 -0.425004 0
M  V30 9244 H 883.087 -1.57032 0.229511 0
M  V30 9245 H 883.108 -3.32474 -1.85044 0
M  V30 9246 H 882.62 -3.87938 -0.112035 0
M  V30 9247 H 880.721 -2.8787 -2.36562 0
M  V30 9248 H 880.834 -4.55098 -1.49741 0
M  V30 9249 H 879.198 -2.38741 -0.887394 0
M  V30 9250 H 879.981 -3.40486 0.438662 0
M  V30 9251 N 882.426 0.269451 -1.5528 0
M  V30 9252 C 883.674 0.998604 -1.75705 0
M  V30 9253 C 883.995 1.86691 -0.563175 0
M  V30 9254 O 883.265 1.91305 0.421811 0
M  V30 9255 H 881.845 0.371698 -0.647958 0
M  V30 9256 H 884.507 0.292826 -1.92688 0
M  V30 9257 H 883.603 1.63348 -2.6594 0
M  V30 9258 N 883.904 1.48273 0.534124 0
M  V30 9259 C 885.315 1.49667 1.1161 0
M  V30 9260 C 885.666 0.264139 1.94414 0
M  V30 9261 O 884.791 -0.629084 2.07054 0
M  V30 9262 C 885.386 2.71191 2.03079 0
M  V30 9263 C 883.945 2.7547 2.56502 0
M  V30 9264 C 883.092 2.43119 1.33373 0
M  V30 9265 H 886.043 1.55449 0.319578 0
M  V30 9266 H 886.064 2.49473 2.87304 0
M  V30 9267 H 885.576 3.60879 1.42785 0
M  V30 9268 H 883.677 1.89979 3.20529 0
M  V30 9269 H 883.79 3.76787 2.95919 0
M  V30 9270 H 882.154 1.94187 1.64813 0
M  V30 9271 H 882.937 3.35044 0.748375 0
M  V30 9272 N 885.382 -0.782676 1.36792 0
M  V30 9273 C 886.345 -1.8772 1.31507 0
M  V30 9274 C 887.345 -1.59269 0.221349 0
M  V30 9275 O 888.535 -1.67555 0.476544 0
M  V30 9276 C 885.667 -3.24641 1.04025 0
M  V30 9277 H 886.86 -1.9382 2.28853 0
M  V30 9278 H 884.413 -0.981226 1.21662 0
M  V30 9279 H 885.148 -3.24221 0.0716439 0
M  V30 9280 H 884.933 -3.46681 1.8318 0
M  V30 9281 H 886.423 -4.04711 1.02949 0
M  V30 9282 N 886.86 -1.21182 -1.00761 0
M  V30 9283 C 887.79 -0.992773 -2.11344 0
M  V30 9284 C 888.771 0.0813618 -1.69905 0
M  V30 9285 O 889.956 -0.0779503 -1.94043 0
M  V30 9286 C 887.086 -0.553826 -3.42856 0
M  V30 9287 C 886.04 -1.57223 -3.98077 0
M  V30 9288 C 885.366 -0.989605 -5.25463 0
M  V30 9289 C 886.666 -2.95839 -4.30438 0
M  V30 9290 H 888.36 -1.91766 -2.29927 0
M  V30 9291 H 885.906 -0.923426 -1.10494 0
M  V30 9292 H 887.859 -0.387771 -4.19612 0
M  V30 9293 H 886.583 0.406702 -3.24058 0
M  V30 9294 H 885.242 -1.7258 -3.23437 0
M  V30 9295 H 884.89 -0.0208743 -5.02996 0
M  V30 9296 H 884.59 -1.66984 -5.63374 0
M  V30 9297 H 886.114 -0.834815 -6.04866 0
M  V30 9298 H 887.528 -2.8394 -4.98047 0
M  V30 9299 H 885.925 -3.60851 -4.79486 0
M  V30 9300 H 886.995 -3.46882 -3.38823 0
M  V30 9301 N 888.338 1.20213 -1.01915 0
M  V30 9302 C 889.578 1.91354 -0.71853 0
M  V30 9303 C 889.942 1.77231 0.738466 0
M  V30 9304 O 891.143 2.42876 1.15172 0
M  V30 9305 C 889.414 3.38552 -1.14529 0
M  V30 9306 S 890.973 4.28011 -0.967037 0
M  V30 9307 H 887.791 0.661015 -0.261879 0
M  V30 9308 H 890.393 1.45394 -1.30694 0
M  V30 9309 H 889.097 3.46354 -2.20153 0
M  V30 9310 H 888.628 3.8954 -0.549766 0
M  V30 9311 H 890.643 4.96035 0.127974 0
M  V30 9312 N 889.816 0.795718 1.36037 0
M  V30 9313 C 891.041 0.38204 2.03851 0
M  V30 9314 C 891.466 -0.995553 1.59594 0
M  V30 9315 O 890.824 -1.64258 0.767401 0
M  V30 9316 C 890.872 0.461248 3.57638 0
M  V30 9317 O 889.976 -0.529448 4.08987 0
M  V30 9318 H 889.317 0.161227 0.644129 0
M  V30 9319 H 891.847 1.07858 1.73861 0
M  V30 9320 H 891.857 0.32712 4.06687 0
M  V30 9321 H 890.532 1.46613 3.89201 0
M  V30 9322 H 889.109 -0.35646 3.71192 0
M  V30 9323 N 891.294 -1.47756 0.548274 0
M  V30 9324 C 892.705 -1.8636 0.112547 0
M  V30 9325 C 893.056 -1.45589 -1.31523 0
M  V30 9326 O 892.181 -0.854874 -1.98799 0
M  V30 9327 C 892.776 -3.38224 0.197473 0
M  V30 9328 C 891.335 -3.75954 -0.183163 0
M  V30 9329 C 890.482 -2.7181 0.549059 0
M  V30 9330 H 893.433 -1.394 0.758506 0
M  V30 9331 H 893.454 -3.75957 -0.586217 0
M  V30 9332 H 892.966 -3.67868 1.23673 0
M  V30 9333 H 891.067 -3.51926 -1.22387 0
M  V30 9334 H 891.18 -4.78801 0.169178 0
M  V30 9335 H 889.544 -2.54699 -0.00682862 0
M  V30 9336 H 890.327 -3.04296 1.5893 0
M  V30 9337 N 892.772 -0.284283 -1.55015 0
M  V30 9338 C 893.702 0.592663 -2.25853 0
M  V30 9339 C 894.683 1.15151 -1.25197 0
M  V30 9340 O 895.868 1.18395 -1.53936 0
M  V30 9341 C 892.998 1.77254 -2.98661 0
M  V30 9342 C 891.952 1.34482 -4.06323 0
M  V30 9343 C 891.278 2.60853 -4.66754 0
M  V30 9344 C 892.578 0.488288 -5.20013 0
M  V30 9345 H 894.272 0.00187041 -2.994 0
M  V30 9346 H 891.818 -0.000540402 -1.44 0
M  V30 9347 H 893.771 2.39199 -3.46932 0
M  V30 9348 H 892.495 2.38931 -2.22664 0
M  V30 9349 H 891.154 0.748519 -3.58877 0
M  V30 9350 H 890.802 3.20808 -3.87416 0
M  V30 9351 H 890.502 2.32942 -5.39455 0
M  V30 9352 H 892.026 3.23631 -5.1778 0
M  V30 9353 H 893.44 1.01298 -5.6428 0
M  V30 9354 H 891.837 0.303669 -5.99331 0
M  V30 9355 H 892.907 -0.490727 -4.8241 0
M  V30 9356 N 894.251 1.57596 -0.0117121 0
M  V30 9357 C 895.667 1.55837 0.344506 0
M  V30 9358 C 895.867 1.01557 1.74036 0
M  V30 9359 O 894.923 0.654563 2.43868 0
M  V30 9360 C 896.236 2.99973 0.209023 0
M  V30 9361 C 897.784 3.11717 0.283092 0
M  V30 9362 C 898.259 4.57659 0.176599 0
M  V30 9363 N 899.75 4.62608 0.234133 0
M  V30 9364 C 900.485 5.73132 0.175252 0
M  V30 9365 N 899.981 6.92768 0.0662888 0
M  V30 9366 N 901.774 5.61638 0.227972 0
M  V30 9367 H 893.925 1.91215 -0.924692 0
M  V30 9368 H 896.188 0.878807 -0.355531 0
M  V30 9369 H 895.894 3.4357 -0.751826 0
M  V30 9370 H 895.768 3.64075 0.98635 0
M  V30 9371 H 898.155 2.68043 1.23439 0
M  V30 9372 H 898.236 2.50369 -0.52431 0
M  V30 9373 H 897.88 5.02011 -0.771205 0
M  V30 9374 H 897.81 5.16967 1.00264 0
M  V30 9375 H 900.301 3.76549 0.319203 0
M  V30 9376 H 900.614 7.72795 0.0275765 0
M  V30 9377 H 898.959 6.94993 0.0317502 0
M  V30 9378 H 902.15 4.67063 0.311377 0
M  V30 9379 H 902.323 6.47754 0.178621 0
M  V30 9380 N 895.729 -0.261212 1.5542 0
M  V30 9381 C 896.676 -1.32315 1.89107 0
M  V30 9382 C 897.646 -1.48517 0.743767 0
M  V30 9383 O 898.831 -1.62733 0.996123 0
M  V30 9384 C 895.971 -2.67626 2.17877 0
M  V30 9385 C 895.084 -2.59549 3.45338 0
M  V30 9386 C 894.219 -3.87118 3.63748 0
M  V30 9387 C 893.258 -3.736 4.8486 0
M  V30 9388 N 892.395 -4.93029 4.99867 0
M  V30 9389 H 897.235 -1.02886 2.79675 0
M  V30 9390 H 894.772 -0.496812 1.38456 0
M  V30 9391 H 896.73 -3.4637 2.32559 0
M  V30 9392 H 895.36 -2.95232 1.30529 0
M  V30 9393 H 894.412 -1.72452 3.39064 0
M  V30 9394 H 895.724 -2.45465 4.34222 0
M  V30 9395 H 894.878 -4.74305 3.78312 0
M  V30 9396 H 893.617 -4.04084 2.73071 0
M  V30 9397 H 892.622 -2.84797 4.70288 0
M  V30 9398 H 893.847 -3.58143 5.76984 0
M  V30 9399 H 891.793 -5.10383 4.12123 0
M  V30 9400 H 891.71 -4.81521 5.82815 0
M  V30 9401 H 892.978 -5.81754 5.18828 0
M  V30 9402 N 897.207 -1.48554 -0.526253 0
M  V30 9403 C 898.432 -1.60686 -1.31129 0
M  V30 9404 C 898.857 -0.268701 -1.86171 0
M  V30 9405 O 898.215 0.760167 -1.64594 0
M  V30 9406 C 898.263 -2.65938 -2.43536 0
M  V30 9407 O 897.367 -2.23356 -3.46678 0
M  V30 9408 H 896.708 -0.538691 -0.388211 0
M  V30 9409 H 899.238 -1.94567 -0.632826 0
M  V30 9410 H 899.248 -2.87327 -2.89668 0
M  V30 9411 H 897.923 -3.63085 -2.02835 0
M  V30 9412 H 896.5 -2.12196 -3.06639 0
M  V30 9413 N 898.685 0.775411 -1.37205 0
M  V30 9414 C 900.096 1.35147 -1.28811 0
M  V30 9415 C 900.447 1.96089 0.0659168 0
M  V30 9416 O 899.572 1.93558 0.967684 0
M  V30 9417 C 900.167 2.45715 -2.33258 0
M  V30 9418 C 898.726 2.99099 -2.2851 0
M  V30 9419 C 897.873 1.72286 -2.17285 0
M  V30 9420 H 900.824 0.575954 -1.4788 0
M  V30 9421 H 900.845 3.251 -1.97712 0
M  V30 9422 H 900.357 2.01331 -3.31795 0
M  V30 9423 H 898.458 3.47868 -1.33485 0
M  V30 9424 H 898.571 3.54962 -3.21774 0
M  V30 9425 H 896.935 1.95068 -1.6377 0
M  V30 9426 H 897.718 1.3001 -3.1773 0
M  V30 9427 N 900.163 1.21714 1.00117 0
M  V30 9428 C 901.093 1.00397 2.10815 0
M  V30 9429 C 902.074 -0.0723502 1.69946 0
M  V30 9430 O 903.259 0.0882398 1.93999 0
M  V30 9431 C 900.389 0.572001 3.42557 0
M  V30 9432 C 899.343 1.59331 3.97237 0
M  V30 9433 C 898.669 1.01746 5.2493 0
M  V30 9434 C 899.969 2.98117 4.28863 0
M  V30 9435 H 901.663 1.92983 2.28906 0
M  V30 9436 H 899.209 0.929273 1.10002 0
M  V30 9437 H 901.162 0.410018 4.19401 0
M  V30 9438 H 899.886 -0.38951 3.24269 0
M  V30 9439 H 898.545 1.74293 3.22518 0
M  V30 9440 H 898.193 0.0475491 5.02978 0
M  V30 9441 H 897.893 1.69969 5.62481 0
M  V30 9442 H 899.417 0.866881 6.04415 0
M  V30 9443 H 900.831 2.86578 4.96534 0
M  V30 9444 H 899.228 3.63389 4.77565 0
M  V30 9445 H 900.298 3.48674 3.36979 0
M  V30 9446 N 901.641 -1.19671 1.02551 0
M  V30 9447 C 902.869 -1.93233 0.739513 0
M  V30 9448 C 903.284 -1.75298 -0.701158 0
M  V30 9449 O 902.641 -1.07269 -1.47647 0
M  V30 9450 C 902.692 -3.45085 1.07697 0
M  V30 9451 O 902.413 -3.62441 2.46106 0
M  V30 9452 C 903.914 -4.35776 0.813298 0
M  V30 9453 H 901.134 -0.613905 0.270853 0
M  V30 9454 H 903.678 -1.51909 1.36909 0
M  V30 9455 H 901.833 -3.84255 0.492635 0
M  V30 9456 H 902.247 -4.56337 2.58567 0
M  V30 9457 H 903.721 -5.40941 1.09941 0
M  V30 9458 H 904.198 -4.38474 -0.252359 0
M  V30 9459 H 904.804 -4.02282 1.38021 0
M  V30 9460 N 903.119 -0.802921 -1.35613 0
M  V30 9461 C 904.049 -0.225131 -2.32412 0
M  V30 9462 C 905.03 0.647383 -1.57299 0
M  V30 9463 O 906.215 0.578414 -1.85386 0
M  V30 9464 C 903.345 0.630085 -3.41537 0
M  V30 9465 C 902.299 -0.143635 -4.27759 0
M  V30 9466 C 901.625 0.833046 -5.28171 0
M  V30 9467 C 902.925 -1.34054 -5.04804 0
M  V30 9468 H 904.619 -1.03385 -2.80984 0
M  V30 9469 H 902.165 -0.498593 -1.35093 0
M  V30 9470 H 904.118 1.04433 -4.08254 0
M  V30 9471 H 902.842 1.47165 -2.91565 0
M  V30 9472 H 901.501 -0.539015 -3.62616 0
M  V30 9473 H 901.149 1.67001 -4.74468 0
M  V30 9474 H 900.849 0.319697 -5.8673 0
M  V30 9475 H 902.373 1.24558 -5.97761 0
M  V30 9476 H 903.787 -1.00136 -5.64487 0
M  V30 9477 H 902.184 -1.78812 -5.72841 0
M  V30 9478 H 903.254 -2.12906 -4.35659 0
M  V30 9479 N 904.597 1.47463 -0.556102 0
M  V30 9480 C 905.507 2.33785 0.195378 0
M  V30 9481 C 906.523 1.48123 0.913 0
M  V30 9482 O 907.699 1.81053 0.882141 0
M  V30 9483 C 904.764 3.24795 1.21282 0
M  V30 9484 C 903.825 4.26346 0.502747 0
M  V30 9485 C 903.058 5.13007 1.47172 0
M  V30 9486 O 903.281 5.02103 2.70646 0
M  V30 9487 O 902.215 5.93588 0.996814 0
M  V30 9488 H 906.041 2.99341 -0.512676 0
M  V30 9489 H 903.626 1.46004 -0.31673 0
M  V30 9490 H 905.508 3.81015 1.80016 0
M  V30 9491 H 904.183 2.61868 1.90282 0
M  V30 9492 H 903.09 3.73889 -0.125757 0
M  V30 9493 H 904.423 4.91984 -0.145779 0
M  V30 9494 N 906.075 0.2925 1.54862 0
M  V30 9495 C 907.352 -0.371946 1.92031 0
M  V30 9496 C 907.732 -1.72363 1.21878 0
M  V30 9497 O 907.08 -2.25779 0.351573 0
M  V30 9498 C 907.29 -0.495027 3.45471 0
M  V30 9499 C 908.638 -0.769855 4.17562 0
M  V30 9500 O 909.662 -0.579168 3.5146 0
M  V30 9501 O 908.521 -1.13561 5.34571 0
M  V30 9502 H 905.615 -0.206463 0.800813 0
M  V30 9503 H 908.161 0.339933 1.6626 0
M  V30 9504 H 906.933 0.455528 3.88639 0
M  V30 9505 H 906.556 -1.2557 3.7725 0
M  V30 9506 N 907.553 -1.57587 0.0200696 0
M  V30 9507 C 908.8 -1.91424 -0.660525 0
M  V30 9508 C 909.128 -0.895626 -1.72652 0
M  V30 9509 O 908.383 0.096771 -1.95461 0
M  V30 9510 C 908.682 -3.32002 -1.32323 0
M  V30 9511 C 908.348 -4.49223 -0.388487 0
M  V30 9512 C 907.01 -4.81021 -0.131184 0
M  V30 9513 C 909.362 -5.20581 0.253906 0
M  V30 9514 C 906.69 -5.81539 0.776471 0
M  V30 9515 C 909.042 -6.22067 1.14956 0
M  V30 9516 C 907.706 -6.52311 1.41584 0
M  V30 9517 H 906.976 -0.700472 -0.241703 0
M  V30 9518 H 909.623 -1.91333 0.0798991 0
M  V30 9519 H 907.928 -3.28312 -2.13819 0
M  V30 9520 H 909.625 -3.5545 -1.85623 0
M  V30 9521 H 906.215 -4.24391 -0.599207 0
M  V30 9522 H 910.399 -4.96253 0.068164 0
M  V30 9523 H 905.655 -6.03322 0.990575 0
M  V30 9524 H 909.829 -6.76484 1.65357 0
M  V30 9525 H 907.456 -7.30017 2.12083 0
M  V30 9526 N 909.032 0.252966 -1.55557 0
M  V30 9527 C 909.979 1.3131 -1.89806 0
M  V30 9528 C 910.949 1.48121 -0.751633 0
M  V30 9529 O 912.134 1.62202 -1.00474 0
M  V30 9530 C 909.274 2.66467 -2.19293 0
M  V30 9531 C 908.387 2.57714 -3.46709 0
M  V30 9532 C 907.522 3.85184 -3.65796 0
M  V30 9533 C 906.561 3.71023 -4.86835 0
M  V30 9534 N 905.698 4.90371 -5.02474 0
M  V30 9535 H 910.538 1.01402 -2.80217 0
M  V30 9536 H 908.075 0.489462 -1.38718 0
M  V30 9537 H 910.033 3.45132 -2.34392 0
M  V30 9538 H 908.663 2.94536 -1.32093 0
M  V30 9539 H 907.715 1.70651 -3.39974 0
M  V30 9540 H 909.027 2.43158 -4.35517 0
M  V30 9541 H 908.181 4.72292 -3.80822 0
M  V30 9542 H 906.92 4.0263 -2.7521 0
M  V30 9543 H 905.925 2.82299 -4.71792 0
M  V30 9544 H 907.15 3.55078 -5.78875 0
M  V30 9545 H 905.096 5.0819 -4.14824 0
M  V30 9546 H 905.013 4.78423 -5.85361 0
M  V30 9547 H 906.281 5.78995 -5.21905 0
M  V30 9548 N 910.51 1.48831 0.518367 0
M  V30 9549 C 911.757 1.57439 1.27355 0
M  V30 9550 C 912.085 0.25338 1.92843 0
M  V30 9551 O 911.34 -0.757323 1.80452 0
M  V30 9552 C 911.639 2.67003 2.3758 0
M  V30 9553 C 911.305 4.09069 1.89667 0
M  V30 9554 C 909.967 4.47733 1.76319 0
M  V30 9555 C 912.319 4.98052 1.53603 0
M  V30 9556 C 909.647 5.73173 1.25258 0
M  V30 9557 C 911.999 6.23992 1.04001 0
M  V30 9558 C 910.663 6.61503 0.892784 0
M  V30 9559 H 909.933 0.57611 0.466023 0
M  V30 9560 H 912.58 1.82595 0.577166 0
M  V30 9561 H 910.885 2.35751 3.12936 0
M  V30 9562 H 912.582 2.70876 2.95681 0
M  V30 9563 H 909.172 3.7854 2.01011 0
M  V30 9564 H 913.356 4.68849 1.62771 0
M  V30 9565 H 908.612 6.0095 1.12557 0
M  V30 9566 H 912.786 6.92331 0.751706 0
M  V30 9567 H 910.413 7.58587 0.494939 0
M  V30 9568 N 911.988 -0.768124 1.37614 0
M  V30 9569 C 912.918 -1.89537 1.36374 0
M  V30 9570 C 913.899 -1.68513 0.231803 0
M  V30 9571 O 915.084 -1.89318 0.432705 0
M  V30 9572 C 912.214 -3.26871 1.17358 0
M  V30 9573 C 911.168 -3.62466 2.27602 0
M  V30 9574 C 910.494 -4.9838 1.93705 0
M  V30 9575 C 911.794 -3.68841 3.69802 0
M  V30 9576 H 913.488 -1.90832 2.30702 0
M  V30 9577 H 911.034 -0.91672 1.11051 0
M  V30 9578 H 912.987 -4.05371 1.15119 0
M  V30 9579 H 911.711 -3.26018 0.194865 0
M  V30 9580 H 910.37 -2.86276 2.29002 0
M  V30 9581 H 910.018 -4.94071 0.943539 0
M  V30 9582 H 909.718 -5.23165 2.6753 0
M  V30 9583 H 911.242 -5.79276 1.93059 0
M  V30 9584 H 912.656 -4.37485 3.70513 0
M  V30 9585 H 911.053 -4.05126 4.42711 0
M  V30 9586 H 912.123 -2.69415 4.03167 0
M  V30 9587 N 913.466 -1.22244 -0.994698 0
M  V30 9588 C 914.429 -0.992308 -2.06606 0
M  V30 9589 C 915.429 0.0405872 -1.60749 0
M  V30 9590 O 916.619 -0.197737 -1.73074 0
M  V30 9591 C 913.751 -0.498499 -3.37236 0
M  V30 9592 H 914.944 -1.9429 -2.28455 0
M  V30 9593 H 912.497 -1.04087 -1.166 0
M  V30 9594 H 913.232 0.456531 -3.21071 0
M  V30 9595 H 913.017 -1.24367 -3.71854 0
M  V30 9596 H 914.507 -0.35768 -4.16065 0
M  V30 9597 N 914.944 1.19125 -1.03184 0
M  V30 9598 C 916.19 1.89163 -0.731111 0
M  V30 9599 C 916.523 1.79604 0.738662 0
M  V30 9600 O 915.798 1.19037 1.53819 0
M  V30 9601 C 916.081 3.39986 -1.18666 0
M  V30 9602 C 915.934 3.58401 -2.71788 0
M  V30 9603 C 917.253 4.33316 -0.769772 0
M  V30 9604 H 914.372 0.686908 -0.267069 0
M  V30 9605 H 917.014 1.40205 -1.28229 0
M  V30 9606 H 915.164 3.81813 -0.717736 0
M  V30 9607 H 916.836 3.25727 -3.26649 0
M  V30 9608 H 915.079 3.01355 -3.12038 0
M  V30 9609 H 915.75 4.64189 -2.98719 0
M  V30 9610 H 918.226 3.9922 -1.17314 0
M  V30 9611 H 917.102 5.37427 -1.11637 0
M  V30 9612 H 917.363 4.40884 0.327681 0
M  V30 9613 N 916.422 0.810101 1.35185 0
M  V30 9614 C 917.352 0.237453 2.32289 0
M  V30 9615 C 918.333 -0.639032 1.5764 0
M  V30 9616 O 919.518 -0.568575 1.8569 0
M  V30 9617 C 916.648 -0.611964 3.41866 0
M  V30 9618 C 915.602 0.166318 4.27677 0
M  V30 9619 C 914.928 -0.805024 5.28605 0
M  V30 9620 C 916.228 1.36729 5.04086 0
M  V30 9621 H 917.922 1.04874 2.80432 0
M  V30 9622 H 915.468 0.505751 1.34826 0
M  V30 9623 H 917.421 -1.02267 4.08802 0
M  V30 9624 H 916.145 -1.45617 2.92341 0
M  V30 9625 H 914.804 0.558238 3.62325 0
M  V30 9626 H 914.452 -1.64483 4.75347 0
M  V30 9627 H 914.152 -0.288577 5.86891 0
M  V30 9628 H 915.676 -1.21386 5.98413 0
M  V30 9629 H 917.09 1.03128 5.63948 0
M  V30 9630 H 915.487 1.81848 5.71884 0
M  V30 9631 H 916.557 2.15214 4.34524 0
M  V30 9632 N 917.9 -1.47166 0.563914 0
M  V30 9633 C 919.148 -2.02056 0.0422873 0
M  V30 9634 C 919.469 -1.43992 -1.31497 0
M  V30 9635 O 918.739 -0.617578 -1.85911 0
M  V30 9636 H 917.319 -0.746893 0.0126427 0
M  V30 9637 H 919.981 -1.80492 0.735441 0
M  V30 9638 H 919.077 -3.12073 -0.0408044 0
M  V30 9639 N 919.378 -0.300708 -1.54705 0
M  V30 9640 C 920.794 0.0526874 -1.59513 0
M  V30 9641 C 920.994 1.52444 -1.31769 0
M  V30 9642 O 920.05 2.27716 -1.09096 0
M  V30 9643 C 921.363 -0.344989 -2.98714 0
M  V30 9644 C 922.911 -0.29373 -3.11619 0
M  V30 9645 C 923.386 -0.666225 -4.53129 0
M  V30 9646 N 924.877 -0.618749 -4.59049 0
M  V30 9647 C 925.612 -0.879447 -5.66616 0
M  V30 9648 N 925.108 -1.2061 -6.82221 0
M  V30 9649 N 926.901 -0.806528 -5.56284 0
M  V30 9650 H 919.052 -1.25988 -1.71 0
M  V30 9651 H 921.315 -0.510758 -0.798643 0
M  V30 9652 H 921.021 -1.36953 -3.2394 0
M  V30 9653 H 920.895 0.301507 -3.75993 0
M  V30 9654 H 923.282 0.72156 -2.86142 0
M  V30 9655 H 923.363 -0.974844 -2.36496 0
M  V30 9656 H 923.007 -1.67932 -4.79334 0
M  V30 9657 H 922.937 0.0369575 -5.26587 0
M  V30 9658 H 925.428 -0.377202 -3.76013 0
M  V30 9659 H 925.741 -1.391 -7.60178 0
M  V30 9660 H 924.086 -1.24413 -6.83774 0
M  V30 9661 H 927.277 -0.550993 -4.64846 0
M  V30 9662 H 927.45 -1.01307 -6.40032 0
M  V30 9663 N 920.856 1.57574 -0.0284266 0
M  V30 9664 C 922.104 1.91393 0.649079 0
M  V30 9665 C 922.425 0.905368 1.72708 0
M  V30 9666 O 921.695 -0.0532107 1.95828 0
M  V30 9667 H 920.275 0.70646 0.24274 0
M  V30 9668 H 922.937 1.94752 -0.076066 0
M  V30 9669 H 922.033 2.91988 1.10226 0
M  V30 9670 N 922.334 -0.244713 1.55689 0
M  V30 9671 C 923.284 -1.30596 1.86892 0
M  V30 9672 C 924.268 -1.43388 0.729972 0
M  V30 9673 O 925.46 -1.46593 0.99194 0
M  V30 9674 C 922.589 -2.66099 2.16902 0
M  V30 9675 C 921.675 -2.57302 3.37129 0
M  V30 9676 N 922.066 -2.18139 4.56343 0
M  V30 9677 C 920.364 -2.88311 3.40283 0
M  V30 9678 C 921.065 -2.20028 5.38482 0
M  V30 9679 N 920.041 -2.59616 4.77599 0
M  V30 9680 H 923.843 -0.993699 2.76591 0
M  V30 9681 H 921.357 -0.453334 1.55944 0
M  V30 9682 H 923.354 -3.4269 2.37422 0
M  V30 9683 H 922.014 -2.9819 1.28502 0
M  V30 9684 H 923.025 -1.89647 4.81928 0
M  V30 9685 H 919.702 -3.24928 2.62161 0
M  V30 9686 H 921.092 -1.9207 6.43862 0
M  V30 9687 N 923.813 -1.49104 -0.510467 0
M  V30 9688 C 925.06 -1.58112 -1.26518 0
M  V30 9689 C 925.388 -0.263603 -1.92705 0
M  V30 9690 O 924.643 0.747743 -1.80852 0
M  V30 9691 C 924.942 -2.68259 -2.36161 0
M  V30 9692 C 924.608 -4.10069 -1.87495 0
M  V30 9693 C 923.27 -4.48662 -1.73942 0
M  V30 9694 C 925.622 -4.98859 -1.5096 0
M  V30 9695 C 922.95 -5.73829 -1.22217 0
M  V30 9696 C 925.302 -6.24535 -1.00691 0
M  V30 9697 C 923.966 -6.61967 -0.857691 0
M  V30 9698 H 923.236 -0.578574 -0.462962 0
M  V30 9699 H 925.883 -1.82899 -0.567475 0
M  V30 9700 H 924.188 -2.37407 -3.11681 0
M  V30 9701 H 925.885 -2.7244 -2.9424 0
M  V30 9702 H 922.475 -3.79601 -1.99001 0
M  V30 9703 H 926.659 -4.69706 -1.60282 0
M  V30 9704 H 921.915 -6.01539 -1.09368 0
M  V30 9705 H 926.089 -6.9272 -0.71498 0
M  V30 9706 H 923.716 -7.58839 -0.454702 0
M  V30 9707 N 925.291 0.760815 -1.38019 0
M  V30 9708 C 926.539 1.51673 -1.33566 0
M  V30 9709 C 926.86 1.94852 0.076024 0
M  V30 9710 O 926.13 1.67112 1.02227 0
M  V30 9711 H 924.71 0.562581 -0.491438 0
M  V30 9712 H 927.372 0.904832 -1.72623 0
M  V30 9713 H 926.468 2.41102 -1.98182 0
M  V30 9714 N 926.769 1.22769 0.988202 0
M  V30 9715 C 927.716 1.00195 2.07917 0
M  V30 9716 C 928.686 -0.0779391 1.65917 0
M  V30 9717 O 929.871 0.0726005 1.90662 0
M  V30 9718 C 927.011 0.590853 3.40004 0
M  V30 9719 C 926.124 1.74202 3.9532 0
M  V30 9720 C 925.259 1.27846 5.15586 0
M  V30 9721 C 924.298 2.40087 5.63049 0
M  V30 9722 N 923.435 1.94744 6.74551 0
M  V30 9723 H 928.275 1.93581 2.26562 0
M  V30 9724 H 925.812 0.96448 1.11068 0
M  V30 9725 H 927.77 0.333653 4.15864 0
M  V30 9726 H 926.4 -0.306007 3.21346 0
M  V30 9727 H 925.452 2.11342 3.16289 0
M  V30 9728 H 926.764 2.58612 4.26522 0
M  V30 9729 H 925.918 0.978919 5.9875 0
M  V30 9730 H 924.657 0.404617 4.86019 0
M  V30 9731 H 923.662 2.70824 4.78471 0
M  V30 9732 H 924.887 3.27995 5.9464 0
M  V30 9733 H 922.833 1.09729 6.46758 0
M  V30 9734 H 922.75 2.72718 7.05096 0
M  V30 9735 H 924.018 1.67873 7.61209 0
M  V30 9736 N 928.247 -1.18576 1.03814 0
M  V30 9737 C 929.493 -1.88773 0.741132 0
M  V30 9738 C 929.826 -1.79993 -0.729127 0
M  V30 9739 O 929.101 -1.19851 -1.53186 0
M  V30 9740 C 929.384 -3.39352 1.20468 0
M  V30 9741 C 929.237 -3.56955 2.73684 0
M  V30 9742 C 930.556 -4.32901 0.792741 0
M  V30 9743 H 927.675 -0.685482 0.270708 0
M  V30 9744 H 930.317 -1.39523 1.2897 0
M  V30 9745 H 928.467 -3.81427 0.737974 0
M  V30 9746 H 930.139 -3.2399 3.28372 0
M  V30 9747 H 928.382 -2.99696 3.13632 0
M  V30 9748 H 929.053 -4.62598 3.01176 0
M  V30 9749 H 931.529 -3.98592 1.1943 0
M  V30 9750 H 930.405 -5.36828 1.14486 0
M  V30 9751 H 930.666 -4.41052 -0.304295 0
M  V30 9752 N 929.725 -0.817259 -1.34754 0
M  V30 9753 C 930.655 -0.249769 -2.3216 0
M  V30 9754 C 931.636 0.630663 -1.57977 0
M  V30 9755 O 932.821 0.558719 -1.85989 0
M  V30 9756 C 929.951 0.593825 -3.42186 0
M  V30 9757 C 928.905 -0.188997 -4.27583 0
M  V30 9758 C 928.231 0.776979 -5.29025 0
M  V30 9759 C 929.531 -1.39401 -5.03354 0
M  V30 9760 H 931.225 -1.06359 -2.79872 0
M  V30 9761 H 928.771 -0.512894 -1.34556 0
M  V30 9762 H 930.724 1.00097 -4.09339 0
M  V30 9763 H 929.448 1.44064 -2.93109 0
M  V30 9764 H 928.107 -0.577445 -3.62024 0
M  V30 9765 H 927.755 1.61959 -4.76212 0
M  V30 9766 H 927.455 0.257448 -5.87036 0
M  V30 9767 H 928.979 1.18211 -5.99048 0
M  V30 9768 H 930.393 -1.06117 -5.63393 0
M  V30 9769 H 928.79 -1.84878 -5.70912 0
M  V30 9770 H 929.86 -2.17515 -4.33377 0
M  V30 9771 N 931.203 1.46865 -0.571711 0
M  V30 9772 C 932.133 2.3298 0.155795 0
M  V30 9773 C 933.114 1.44678 0.894553 0
M  V30 9774 O 934.299 1.73513 0.872176 0
M  V30 9775 C 931.429 3.26745 1.17708 0
M  V30 9776 C 930.383 4.24401 0.553863 0
M  V30 9777 C 929.709 5.07595 1.68083 0
M  V30 9778 C 931.009 5.19884 -0.501827 0
M  V30 9779 H 932.703 2.94056 -0.563176 0
M  V30 9780 H 930.249 1.41402 -0.27228 0
M  V30 9781 H 932.202 3.85838 1.6943 0
M  V30 9782 H 930.926 2.63753 1.92618 0
M  V30 9783 H 929.585 3.66554 0.057815 0
M  V30 9784 H 929.233 4.40996 2.41933 0
M  V30 9785 H 928.933 5.73722 1.26953 0
M  V30 9786 H 930.457 5.6955 2.20103 0
M  V30 9787 H 931.871 5.73257 -0.0701057 0
M  V30 9788 H 930.268 5.94293 -0.832815 0
M  V30 9789 H 931.338 4.64482 -1.39229 0
M  V30 9790 N 932.681 0.308908 1.54543 0
M  V30 9791 C 933.906 -0.303196 2.05172 0
M  V30 9792 C 934.331 -1.46133 1.18434 0
M  V30 9793 O 933.689 -1.803 0.190162 0
M  V30 9794 C 933.737 -0.729526 3.53143 0
M  V30 9795 O 932.841 -1.83348 3.69401 0
M  V30 9796 H 932.182 -0.0575066 0.661505 0
M  V30 9797 H 934.712 0.453055 1.99521 0
M  V30 9798 H 934.722 -1.01619 3.95143 0
M  V30 9799 H 933.397 0.117622 4.15734 0
M  V30 9800 H 931.974 -1.54676 3.39308 0
M  V30 9801 N 934.159 -1.57557 0.0367827 0
M  V30 9802 C 935.069 -2.14148 -0.958017 0
M  V30 9803 C 936.085 -1.09564 -1.35173 0
M  V30 9804 O 937.261 -1.4166 -1.43158 0
M  V30 9805 C 934.326 -2.6636 -2.21931 0
M  V30 9806 C 933.387 -3.85688 -1.8853 0
M  V30 9807 C 932.62 -4.35401 -3.08645 0
M  V30 9808 O 932.843 -3.8425 -4.21554 0
M  V30 9809 O 931.777 -5.27158 -2.90497 0
M  V30 9810 H 935.603 -2.99442 -0.506797 0
M  V30 9811 H 933.188 -1.48259 -0.184275 0
M  V30 9812 H 935.07 -2.99976 -2.9596 0
M  V30 9813 H 933.745 -1.84145 -2.66219 0
M  V30 9814 H 932.652 -3.56985 -1.11861 0
M  V30 9815 H 933.985 -4.69089 -1.49052 0
M  V30 9816 N 935.637 0.236453 -1.55816 0
M  V30 9817 C 936.884 0.963012 -1.78136 0
M  V30 9818 C 937.212 1.84918 -0.602952 0
M  V30 9819 O 936.467 1.91285 0.413325 0
M  V30 9820 C 936.766 1.84549 -3.06066 0
M  V30 9821 C 936.432 1.11381 -4.36927 0
M  V30 9822 C 935.094 0.911635 -4.72486 0
M  V30 9823 C 937.446 0.596 -5.17781 0
M  V30 9824 C 934.774 0.179515 -5.86425 0
M  V30 9825 C 937.126 -0.122702 -6.32481 0
M  V30 9826 C 935.79 -0.336263 -6.66652 0
M  V30 9827 H 935.06 0.352391 -0.651845 0
M  V30 9828 H 937.707 0.232295 -1.90086 0
M  V30 9829 H 936.012 2.6436 -2.89173 0
M  V30 9830 H 937.709 2.40953 -3.20535 0
M  V30 9831 H 934.299 1.28134 -4.08998 0
M  V30 9832 H 938.483 0.73971 -4.90757 0
M  V30 9833 H 933.739 0.00368224 -6.114 0
M  V30 9834 H 937.913 -0.531516 -6.94369 0
M  V30 9835 H 935.54 -0.905507 -7.54788 0
M  V30 9836 N 937.115 1.49373 0.502552 0
M  V30 9837 C 938.531 1.36101 0.833591 0
M  V30 9838 C 938.731 0.392911 1.97632 0
M  V30 9839 O 937.787 -0.175975 2.51886 0
M  V30 9840 C 939.1 2.76782 1.17526 0
M  V30 9841 C 940.648 2.85471 1.28356 0
M  V30 9842 C 941.123 4.26915 1.65853 0
M  V30 9843 N 942.614 4.29719 1.72905 0
M  V30 9844 C 943.349 5.36127 2.0336 0
M  V30 9845 N 942.845 6.52782 2.32049 0
M  V30 9846 N 944.638 5.23542 2.04598 0
M  V30 9847 H 936.789 2.10912 -0.251008 0
M  V30 9848 H 939.052 0.946696 -0.0497037 0
M  V30 9849 H 938.758 3.49314 0.408965 0
M  V30 9850 H 938.632 3.1205 2.11907 0
M  V30 9851 H 941.019 2.13177 2.04058 0
M  V30 9852 H 941.1 2.53787 0.320304 0
M  V30 9853 H 940.744 4.99735 0.907022 0
M  V30 9854 H 940.674 4.56063 2.63276 0
M  V30 9855 H 943.165 3.45586 1.529 0
M  V30 9856 H 943.478 7.29701 2.54471 0
M  V30 9857 H 941.823 6.56011 2.29509 0
M  V30 9858 H 945.014 4.31413 1.8166 0
M  V30 9859 H 945.187 6.06565 2.27998 0
M  V30 9860 N 938.594 -0.753485 1.38421 0
M  V30 9861 C 940.005 -1.33081 1.30944 0
M  V30 9862 C 940.356 -1.96169 -0.0347124 0
M  V30 9863 O 939.481 -1.95073 -0.936768 0
M  V30 9864 C 940.076 -2.41973 2.37138 0
M  V30 9865 C 938.635 -2.95426 2.33239 0
M  V30 9866 C 937.782 -1.68808 2.19998 0
M  V30 9867 H 940.733 -0.552354 1.48777 0
M  V30 9868 H 940.754 -3.21913 2.02859 0
M  V30 9869 H 940.266 -1.96027 3.34956 0
M  V30 9870 H 938.367 -3.45701 1.39003 0
M  V30 9871 H 938.48 -3.49798 3.27381 0
M  V30 9872 H 936.844 -1.92438 1.66852 0
M  V30 9873 H 937.627 -1.24939 3.19758 0
M  V30 9874 N 940.072 -1.23292 -0.981677 0
M  V30 9875 C 941.297 -1.09176 -1.76339 0
M  V30 9876 C 941.722 0.352726 -1.84763 0
M  V30 9877 O 941.08 1.25509 -1.30832 0
M  V30 9878 C 941.128 -1.72046 -3.16911 0
M  V30 9879 O 940.232 -0.98174 -4.00544 0
M  V30 9880 H 939.573 -0.382755 -0.542581 0
M  V30 9881 H 942.103 -1.63319 -1.23239 0
M  V30 9882 H 942.113 -1.77232 -3.67495 0
M  V30 9883 H 940.788 -2.77154 -3.10095 0
M  V30 9884 H 939.365 -1.00672 -3.59054 0
M  V30 9885 N 941.55 1.18024 -1.04442 0
M  V30 9886 C 942.798 1.87727 -0.74854 0
M  V30 9887 C 943.119 1.80975 0.726156 0
M  V30 9888 O 942.389 1.23061 1.52423 0
M  V30 9889 H 940.969 0.694974 -0.273897 0
M  V30 9890 H 943.631 1.43213 -1.32197 0
M  V30 9891 H 942.727 2.93665 -1.05674 0
M  V30 9892 N 943.028 0.824394 1.34319 0
M  V30 9893 C 943.938 0.24932 2.33271 0
M  V30 9894 C 944.954 -0.617066 1.62691 0
M  V30 9895 O 946.13 -0.524616 1.94447 0
M  V30 9896 C 943.195 -0.578094 3.41846 0
M  V30 9897 C 942.256 0.310866 4.28173 0
M  V30 9898 C 941.489 -0.477153 5.31563 0
M  V30 9899 O 941.712 -1.71028 5.44156 0
M  V30 9900 O 940.646 0.141287 6.01734 0
M  V30 9901 H 944.472 1.06837 2.84288 0
M  V30 9902 H 942.057 0.58657 1.37403 0
M  V30 9903 H 943.939 -1.04878 4.0814 0
M  V30 9904 H 942.614 -1.37444 2.93071 0
M  V30 9905 H 941.521 0.829081 3.64797 0
M  V30 9906 H 942.854 1.07161 4.80393 0
M  V30 9907 N 944.506 -1.46559 0.579492 0
M  V30 9908 C 945.436 -2.33059 -0.143437 0
M  V30 9909 C 946.417 -1.4515 -0.886868 0
M  V30 9910 O 947.602 -1.73973 -0.862961 0
M  V30 9911 C 944.732 -3.27364 -1.15973 0
M  V30 9912 C 943.686 -4.24689 -0.531348 0
M  V30 9913 C 943.012 -5.08479 -1.65388 0
M  V30 9914 C 944.312 -5.1961 0.529391 0
M  V30 9915 H 946.006 -2.93753 0.578762 0
M  V30 9916 H 943.552 -1.41256 0.279775 0
M  V30 9917 H 945.505 -3.86732 -1.67382 0
M  V30 9918 H 944.229 -2.64771 -1.91217 0
M  V30 9919 H 942.888 -3.6658 -0.0383749 0
M  V30 9920 H 942.536 -4.42273 -2.3959 0
M  V30 9921 H 942.236 -5.74387 -1.23909 0
M  V30 9922 H 943.76 -5.70709 -2.17079 0
M  V30 9923 H 945.174 -5.73212 0.100506 0
M  V30 9924 H 943.571 -5.93843 0.86432 0
M  V30 9925 H 944.641 -4.63737 1.4169 0
M  V30 9926 N 945.984 -0.3171 -1.54377 0
M  V30 9927 C 947.231 0.28741 -2.0045 0
M  V30 9928 C 947.559 1.52648 -1.20535 0
M  V30 9929 O 946.814 1.93775 -0.273831 0
M  V30 9930 C 947.113 0.672917 -3.51008 0
M  V30 9931 C 946.779 -0.466245 -4.48483 0
M  V30 9932 C 945.441 -0.778933 -4.74854 0
M  V30 9933 C 947.793 -1.23176 -5.06436 0
M  V30 9934 C 945.121 -1.85997 -5.56437 0
M  V30 9935 C 947.473 -2.30284 -5.89196 0
M  V30 9936 C 946.137 -2.62141 -6.13872 0
M  V30 9937 H 945.407 0.105171 -0.733499 0
M  V30 9938 H 948.054 -0.439538 -1.86388 0
M  V30 9939 H 946.359 1.48019 -3.62764 0
M  V30 9940 H 948.056 1.15209 -3.84094 0
M  V30 9941 H 944.646 -0.212449 -4.28073 0
M  V30 9942 H 948.83 -1.00344 -4.8605 0
M  V30 9943 H 944.086 -2.11134 -5.73788 0
M  V30 9944 H 948.26 -2.90048 -6.33123 0
M  V30 9945 H 945.887 -3.46037 -6.76877 0
M  V30 9946 N 947.462 1.57535 -0.0451378 0
M  V30 9947 C 948.425 2.1008 0.916461 0
M  V30 9948 C 949.425 1.01913 1.2438 0
M  V30 9949 O 950.615 1.2801 1.18148 0
M  V30 9950 C 947.747 2.58001 2.22818 0
M  V30 9951 H 948.94 2.96334 0.461076 0
M  V30 9952 H 946.493 1.54974 0.203169 0
M  V30 9953 H 947.228 1.75123 2.72951 0
M  V30 9954 H 947.013 3.3704 2.00366 0
M  V30 9955 H 948.503 2.98822 2.9171 0
M  V30 9956 N 948.94 -0.228186 1.55939 0
M  V30 9957 C 950.189 -0.951563 1.77843 0
M  V30 9958 C 950.502 -1.85763 0.612501 0
M  V30 9959 O 951.708 -2.61916 0.715006 0
M  V30 9960 C 950.164 -1.74216 3.14923 0
M  V30 9961 C 949.772 -0.882569 4.39221 0
M  V30 9962 C 951.516 -2.45715 3.46156 0
M  V30 9963 C 949.423 -1.67014 5.67327 0
M  V30 9964 H 948.353 -0.359035 0.663031 0
M  V30 9965 H 951.004 -0.205636 1.82344 0
M  V30 9966 H 949.386 -2.53075 3.0458 0
M  V30 9967 H 950.56 -0.13499 4.60602 0
M  V30 9968 H 948.875 -0.280022 4.15457 0
M  V30 9969 H 951.472 -3.05127 4.39092 0
M  V30 9970 H 951.815 -3.1827 2.68346 0
M  V30 9971 H 952.348 -1.73852 3.57799 0
M  V30 9972 H 949.087 -0.987985 6.48012 0
M  V30 9973 H 948.607 -2.3925 5.50018 0
M  V30 9974 H 950.286 -2.23252 6.07262 0
M  V30 9975 N 950.418 -1.49637 -0.494624 0
M  V30 9976 C 951.365 -1.66776 -1.59545 0
M  V30 9977 C 952.335 -0.509159 -1.58104 0
M  V30 9978 O 953.52 -0.736949 -1.75993 0
M  V30 9979 C 950.66 -1.74624 -2.97658 0
M  V30 9980 C 949.773 -3.01831 -3.09067 0
M  V30 9981 C 948.908 -3.00619 -4.37952 0
M  V30 9982 C 947.947 -4.22378 -4.43016 0
M  V30 9983 N 947.084 -4.1904 -5.63339 0
M  V30 9984 H 951.924 -2.60767 -1.44238 0
M  V30 9985 H 949.461 -1.29286 -0.701673 0
M  V30 9986 H 951.419 -1.77156 -3.77719 0
M  V30 9987 H 950.049 -0.840936 -3.11654 0
M  V30 9988 H 949.101 -3.08881 -2.22029 0
M  V30 9989 H 950.413 -3.91823 -3.08669 0
M  V30 9990 H 949.567 -3.01749 -5.26339 0
M  V30 9991 H 948.306 -2.08416 -4.40924 0
M  V30 9992 H 947.311 -4.21485 -3.5303 0
M  V30 9993 H 948.536 -5.15781 -4.41755 0
M  V30 9994 H 946.482 -3.29677 -5.67141 0
M  V30 9995 H 946.399 -5.02774 -5.64583 0
M  V30 9996 H 947.667 -4.24281 -6.53916 0
M  V30 9997 N 951.896 0.746133 -1.38819 0
M  V30 9998 C 952.859 1.84167 -1.36437 0
M  V30 9999 C 953.859 1.58626 -0.263499 0
M  V30 10000 O 955.049 1.66233 -0.520801 0
M  V30 10001 C 952.181 3.21769 -1.12596 0
M  V30 10002 H 953.374 1.87684 -2.33912 0
M  V30 10003 H 950.927 0.948625 -1.24221 0
M  V30 10004 H 951.662 3.23917 -0.15758 0
M  V30 10005 H 951.447 3.41702 -1.92307 0
M  V30 10006 H 952.937 4.0184 -1.13643 0
M  V30 10007 N 953.375 1.23811 0.975125 0
M  V30 10008 C 954.305 1.04846 2.08638 0
M  V30 10009 C 955.286 -0.0362859 1.70061 0
M  V30 10010 O 956.471 0.12937 1.93769 0
M  V30 10011 C 953.601 0.644534 3.41267 0
M  V30 10012 C 952.555 1.67722 3.93768 0
M  V30 10013 C 951.881 1.12857 5.22654 0
M  V30 10014 C 953.181 3.07147 4.22443 0
M  V30 10015 H 954.875 1.97795 2.24761 0
M  V30 10016 H 952.421 0.952397 1.08006 0
M  V30 10017 H 954.374 0.498887 4.18436 0
M  V30 10018 H 953.098 -0.320641 3.25022 0
M  V30 10019 H 951.757 1.81095 3.18748 0
M  V30 10020 H 951.405 0.154227 5.02764 0
M  V30 10021 H 951.105 1.81862 5.58749 0
M  V30 10022 H 952.629 0.994891 6.0244 0
M  V30 10023 H 954.043 2.97045 4.90344 0
M  V30 10024 H 952.44 3.73437 4.6975 0
M  V30 10025 H 953.51 3.55743 3.29507 0
M  V30 10026 N 954.853 -1.17469 1.05066 0
M  V30 10027 C 955.8 -2.21443 0.650512 0
M  V30 10028 C 956.77 -1.62441 -0.346702 0
M  V30 10029 O 957.955 -1.89305 -0.238404 0
M  V30 10030 C 955.095 -3.45087 0.0301014 0
M  V30 10031 C 954.208 -4.18385 1.07599 0
M  V30 10032 C 953.343 -5.29513 0.423038 0
M  V30 10033 C 952.382 -5.94596 1.45333 0
M  V30 10034 N 951.519 -6.97241 0.824623 0
M  V30 10035 H 956.359 -2.55025 1.54163 0
M  V30 10036 H 953.896 -1.25274 0.771032 0
M  V30 10037 H 955.854 -4.15754 -0.347032 0
M  V30 10038 H 954.484 -3.12093 -0.824481 0
M  V30 10039 H 953.536 -3.46446 1.57097 0
M  V30 10040 H 954.848 -4.62899 1.85813 0
M  V30 10041 H 954.002 -6.067 -0.00774975 0
M  V30 10042 H 952.741 -4.86129 -0.391092 0
M  V30 10043 H 951.746 -5.16142 1.89415 0
M  V30 10044 H 952.971 -6.40061 2.26934 0
M  V30 10045 H 950.917 -6.55993 0.0309804 0
M  V30 10046 H 950.834 -7.40059 1.54432 0
M  V30 10047 H 952.102 -7.78375 0.418567 0
M  V30 10048 N 956.331 -0.831506 -1.3388 0
M  V30 10049 C 957.278 -0.257449 -2.2936 0
M  V30 10050 C 958.248 0.622604 -1.5399 0
M  V30 10051 O 959.433 0.562432 -1.82322 0
M  V30 10052 C 956.573 0.567587 -3.404 0
M  V30 10053 C 955.686 -0.335666 -4.30694 0
M  V30 10054 C 954.821 0.499762 -5.28844 0
M  V30 10055 C 953.86 -0.402343 -6.10776 0
M  V30 10056 N 952.997 0.39452 -7.00991 0
M  V30 10057 H 957.837 -1.077 -2.77857 0
M  V30 10058 H 955.374 -0.542589 -1.36727 0
M  V30 10059 H 957.332 1.06133 -4.03474 0
M  V30 10060 H 955.962 1.35217 -2.93115 0
M  V30 10061 H 955.014 -0.94768 -3.68406 0
M  V30 10062 H 956.326 -1.02896 -4.88072 0
M  V30 10063 H 955.48 1.05763 -5.9741 0
M  V30 10064 H 954.219 1.22652 -4.72025 0
M  V30 10065 H 953.224 -0.972288 -5.41135 0
M  V30 10066 H 954.449 -1.12735 -6.69677 0
M  V30 10067 H 952.395 1.1048 -6.4663 0
M  V30 10068 H 952.312 -0.240209 -7.55618 0
M  V30 10069 H 953.58 0.934867 -7.73874 0
M  V30 10070 N 957.809 1.4625 -0.587256 0
M  V30 10071 C 959.057 2.01963 -0.0744273 0
M  V30 10072 C 959.378 1.46065 1.29189 0
M  V30 10073 O 958.648 0.647077 1.84905 0
M  V30 10074 H 957.228 0.746597 -0.0245236 0
M  V30 10075 H 959.89 1.79299 -0.764063 0
M  V30 10076 H 958.986 3.12099 -0.00884894 0
M  V30 10077 N 959.287 0.325282 1.54207 0
M  V30 10078 C 960.564 -0.33113 1.92777 0
M  V30 10079 C 960.944 -1.69739 1.25506 0
M  V30 10080 O 960.292 -2.24983 0.399385 0
M  V30 10081 C 960.502 -0.421636 3.46444 0
M  V30 10082 C 961.85 -0.681111 4.19101 0
M  V30 10083 O 962.874 -0.504488 3.52609 0
M  V30 10084 O 961.733 -1.02196 5.3686 0
M  V30 10085 H 958.827 -0.18943 0.805013 0
M  V30 10086 H 961.373 0.375123 1.65502 0
M  V30 10087 H 960.145 0.537862 3.87586 0
M  V30 10088 H 959.768 -1.1754 3.79829 0
M  V30 10089 N 960.765 -1.57509 0.0534917 0
M  V30 10090 C 962.014 -1.91959 -0.619244 0
M  V30 10091 C 962.327 -0.933882 -1.71866 0
M  V30 10092 O 963.533 -1.17052 -2.44972 0
M  V30 10093 C 961.989 -3.40938 -1.15278 0
M  V30 10094 C 961.597 -4.47919 -0.085348 0
M  V30 10095 C 963.341 -3.84419 -1.80063 0
M  V30 10096 C 961.248 -5.88014 -0.631897 0
M  V30 10097 H 960.178 -0.71642 -0.235072 0
M  V30 10098 H 962.829 -1.83089 0.122758 0
M  V30 10099 H 961.211 -3.44821 -1.94717 0
M  V30 10100 H 962.385 -4.55629 0.688374 0
M  V30 10101 H 960.7 -4.13793 0.465178 0
M  V30 10102 H 963.297 -4.86457 -2.21954 0
M  V30 10103 H 963.64 -3.20791 -2.65328 0
M  V30 10104 H 964.173 -3.83062 -1.07275 0
M  V30 10105 H 960.912 -6.55244 0.183175 0
M  V30 10106 H 960.432 -5.83861 -1.37355 0
M  V30 10107 H 962.111 -6.37336 -1.11407 0
M  V30 10108 N 962.243 0.219913 -1.56058 0
M  V30 10109 C 963.489 0.945463 -1.79412 0
M  V30 10110 C 963.822 1.83922 -0.62341 0
M  V30 10111 O 963.097 1.90806 0.377256 0
M  V30 10112 C 963.38 1.783 -3.1286 0
M  V30 10113 C 963.233 0.915626 -4.40382 0
M  V30 10114 C 964.552 2.76045 -3.42764 0
M  V30 10115 H 961.671 0.342288 -0.652693 0
M  V30 10116 H 964.313 0.214235 -1.88788 0
M  V30 10117 H 962.463 2.40642 -3.04998 0
M  V30 10118 H 964.135 0.30882 -4.60265 0
M  V30 10119 H 962.378 0.221124 -4.33236 0
M  V30 10120 H 963.049 1.53607 -5.30197 0
M  V30 10121 H 965.525 2.23838 -3.50764 0
M  V30 10122 H 964.401 3.31748 -4.37304 0
M  V30 10123 H 964.662 3.53866 -2.65012 0
M  V30 10124 N 963.721 1.49897 0.486681 0
M  V30 10125 C 964.684 1.67086 1.56891 0
M  V30 10126 C 965.684 0.54209 1.51387 0
M  V30 10127 O 966.874 0.80883 1.54284 0
M  V30 10128 C 964.006 1.68159 2.96539 0
M  V30 10129 H 965.199 2.63626 1.42974 0
M  V30 10130 H 962.752 1.39143 0.711954 0
M  V30 10131 H 963.487 0.732562 3.15918 0
M  V30 10132 H 963.272 2.50147 3.01942 0
M  V30 10133 H 964.762 1.83466 3.7514 0
M  V30 10134 N 965.199 -0.738761 1.39212 0
M  V30 10135 C 966.615 -1.04381 1.20734 0
M  V30 10136 C 966.815 -2.01391 0.0663082 0
M  V30 10137 O 965.871 -2.45672 -0.583229 0
M  V30 10138 C 967.184 -1.6097 2.53987 0
M  V30 10139 C 968.732 -1.73069 2.60799 0
M  V30 10140 C 969.207 -2.33067 3.94264 0
M  V30 10141 N 970.698 -2.40481 3.95883 0
M  V30 10142 C 971.433 -2.87834 4.95923 0
M  V30 10143 N 970.929 -3.35111 6.0636 0
M  V30 10144 N 972.722 -2.87009 4.83304 0
M  V30 10145 H 964.873 -0.0952996 2.12186 0
M  V30 10146 H 967.136 -0.104902 0.942178 0
M  V30 10147 H 966.842 -0.971548 3.38015 0
M  V30 10148 H 966.716 -2.59829 2.73439 0
M  V30 10149 H 969.103 -2.36007 1.77157 0
M  V30 10150 H 969.184 -0.728728 2.452 0
M  V30 10151 H 968.828 -1.70758 4.78335 0
M  V30 10152 H 968.758 -3.33933 4.07181 0
M  V30 10153 H 971.249 -2.07061 3.16123 0
M  V30 10154 H 971.562 -3.69742 6.78609 0
M  V30 10155 H 969.907 -3.33129 6.09959 0
M  V30 10156 H 973.098 -2.49395 3.96131 0
M  V30 10157 H 973.271 -3.23598 5.61416 0
M  V30 10158 N 966.677 -1.24326 -0.968545 0
M  V30 10159 C 967.954 -0.990459 -1.68669 0
M  V30 10160 C 968.334 0.487487 -2.05394 0
M  V30 10161 O 967.682 1.46158 -1.75642 0
M  V30 10162 C 967.892 -1.91251 -2.91931 0
M  V30 10163 C 969.24 -2.18291 -3.6419 0
M  V30 10164 O 970.264 -1.88897 -3.01987 0
M  V30 10165 O 969.123 -2.68204 -4.76161 0
M  V30 10166 H 966.217 -0.374515 -0.737338 0
M  V30 10167 H 968.763 -1.35421 -1.02271 0
M  V30 10168 H 967.535 -2.9111 -2.61478 0
M  V30 10169 H 967.158 -1.55188 -3.66064 0
M  V30 10170 N 968.156 1.1691 -1.05688 0
M  V30 10171 C 969.066 2.24735 -0.67315 0
M  V30 10172 C 970.082 1.71252 0.308043 0
M  V30 10173 O 971.258 2.00772 0.158889 0
M  V30 10174 C 968.323 3.4665 -0.059026 0
M  V30 10175 C 967.384 4.15198 -1.0913 0
M  V30 10176 C 966.617 5.31292 -0.50639 0
M  V30 10177 O 966.84 5.663 0.682692 0
M  V30 10178 O 965.774 5.88923 -1.2431 0
M  V30 10179 H 969.6 2.59855 -1.57191 0
M  V30 10180 H 967.185 1.24306 -0.828751 0
M  V30 10181 H 969.067 4.20455 0.282018 0
M  V30 10182 H 967.742 3.13316 0.813304 0
M  V30 10183 H 966.649 3.43389 -1.48442 0
M  V30 10184 H 967.982 4.52571 -1.93495 0
M  V30 10185 N 969.634 0.838594 1.33437 0
M  V30 10186 C 970.88 0.434813 1.98084 0
M  V30 10187 C 971.213 -1.00331 1.66275 0
M  V30 10188 O 970.488 -1.70139 0.942501 0
M  V30 10189 C 970.771 0.655602 3.54082 0
M  V30 10190 C 970.624 2.14097 3.95578 0
M  V30 10191 C 971.943 0.101576 4.39983 0
M  V30 10192 H 969.062 0.159456 0.719544 0
M  V30 10193 H 971.704 1.05406 1.58081 0
M  V30 10194 H 969.854 0.128501 3.88287 0
M  V30 10195 H 971.526 2.73292 3.71631 0
M  V30 10196 H 969.769 2.62558 3.4532 0
M  V30 10197 H 970.44 2.24621 5.04231 0
M  V30 10198 H 972.916 0.552122 4.12421 0
M  V30 10199 H 971.792 0.28575 5.48156 0
M  V30 10200 H 972.053 -0.994616 4.30767 0
M  V30 10201 N 971.112 -1.45937 0.595003 0
M  V30 10202 C 972.022 -2.34221 -0.133325 0
M  V30 10203 C 973.038 -1.50491 -0.873407 0
M  V30 10204 O 974.214 -1.83328 -0.833828 0
M  V30 10205 C 971.279 -3.27896 -1.12628 0
M  V30 10206 C 970.34 -4.27529 -0.389532 0
M  V30 10207 C 969.573 -5.16729 -1.33519 0
M  V30 10208 O 969.796 -5.09102 -2.57238 0
M  V30 10209 O 968.73 -5.96023 -0.839084 0
M  V30 10210 H 972.556 -2.97877 0.591861 0
M  V30 10211 H 970.141 -1.45113 0.355329 0
M  V30 10212 H 972.023 -3.85654 -1.69851 0
M  V30 10213 H 970.698 -2.6682 -1.83272 0
M  V30 10214 H 969.605 -3.73424 0.224843 0
M  V30 10215 H 970.938 -4.91425 0.276169 0
M  V30 10216 N 972.59 -0.333456 -1.54032 0
M  V30 10217 C 973.815 0.270517 -2.05628 0
M  V30 10218 C 974.24 1.44231 -1.20744 0
M  V30 10219 O 973.598 1.79975 -0.218822 0
M  V30 10220 C 973.646 0.673251 -3.54259 0
M  V30 10221 O 972.75 1.77448 -3.72271 0
M  V30 10222 H 972.091 0.0469753 -0.662336 0
M  V30 10223 H 974.621 -0.484739 -1.98775 0
M  V30 10224 H 974.631 0.953194 -3.96709 0
M  V30 10225 H 973.306 -0.183747 -4.15494 0
M  V30 10226 H 971.883 1.49259 -3.41725 0
M  V30 10227 N 974.068 1.57479 -0.061844 0
M  V30 10228 C 974.998 2.15181 0.9066 0
M  V30 10229 C 975.979 1.07624 1.31724 0
M  V30 10230 O 977.164 1.35614 1.39006 0
M  V30 10231 C 974.294 2.70542 2.17771 0
M  V30 10232 C 973.248 3.83178 1.9068 0
M  V30 10233 C 972.574 4.25099 3.24337 0
M  V30 10234 C 973.874 5.07853 1.21994 0
M  V30 10235 H 975.568 2.96355 0.42594 0
M  V30 10236 H 973.114 1.42556 0.203435 0
M  V30 10237 H 975.067 3.09552 2.85929 0
M  V30 10238 H 973.791 1.86575 2.68062 0
M  V30 10239 H 972.45 3.44656 1.24931 0
M  V30 10240 H 972.098 3.38069 3.72449 0
M  V30 10241 H 971.798 5.01021 3.07005 0
M  V30 10242 H 973.322 4.66718 3.93709 0
M  V30 10243 H 974.736 5.44242 1.80204 0
M  V30 10244 H 973.133 5.88987 1.14954 0
M  V30 10245 H 974.203 4.84497 0.197536 0
M  V30 10246 N 975.546 -0.211634 1.56173 0
M  V30 10247 C 976.479 -1.28982 1.88252 0
M  V30 10248 C 977.457 -1.4474 0.740889 0
M  V30 10249 O 978.641 -1.60394 0.990249 0
M  V30 10250 C 975.768 -2.65879 2.09824 0
M  V30 10251 C 974.814 -2.67082 3.3252 0
M  V30 10252 S 975.647 -2.2016 4.8815 0
M  V30 10253 C 976.803 -3.58913 5.12769 0
M  V30 10254 H 977.036 -1.01578 2.79409 0
M  V30 10255 H 974.569 -0.414351 1.48736 0
M  V30 10256 H 976.527 -3.44688 2.22935 0
M  V30 10257 H 975.188 -2.90502 1.19447 0
M  V30 10258 H 974.381 -3.67703 3.44689 0
M  V30 10259 H 973.983 -1.96343 3.18317 0
M  V30 10260 H 976.275 -4.54671 5.02276 0
M  V30 10261 H 977.218 -3.51652 6.14611 0
M  V30 10262 H 977.626 -3.5306 4.40465 0
M  V30 10263 N 977.024 -1.50153 -0.478725 0
M  V30 10264 C 978.264 -1.62393 -1.24129 0
M  V30 10265 C 978.628 -0.313774 -1.89419 0
M  V30 10266 O 979.829 -0.311537 -2.66989 0
M  V30 10267 C 978.1 -2.76633 -2.26293 0
M  V30 10268 S 979.659 -3.08961 -3.11591 0
M  V30 10269 H 976.477 -0.572559 -0.421541 0
M  V30 10270 H 979.079 -1.87906 -0.539592 0
M  V30 10271 H 977.783 -3.70319 -1.76896 0
M  V30 10272 H 977.314 -2.53182 -3.01102 0
M  V30 10273 H 979.329 -2.52197 -4.2733 0
M  V30 10274 N 978.502 0.731368 -1.39602 0
M  V30 10275 C 979.412 1.87579 -1.40894 0
M  V30 10276 C 980.428 1.71336 -0.303319 0
M  V30 10277 O 981.604 1.93875 -0.545377 0
M  V30 10278 C 978.669 3.23211 -1.25442 0
M  V30 10279 C 977.73 3.51822 -2.46008 0
M  V30 10280 C 976.963 4.80982 -2.31284 0
M  V30 10281 O 977.186 5.54958 -1.31824 0
M  V30 10282 O 976.12 5.09574 -3.20341 0
M  V30 10283 H 979.946 1.89444 -2.3737 0
M  V30 10284 H 977.531 0.879675 -1.20756 0
M  V30 10285 H 979.413 4.04257 -1.18972 0
M  V30 10286 H 978.088 3.22108 -0.320637 0
M  V30 10287 H 976.995 2.70847 -2.58055 0
M  V30 10288 H 978.328 3.57707 -3.38093 0
M  V30 10289 N 979.98 1.24838 0.961938 0
M  V30 10290 C 980.927 1.04582 2.05745 0
M  V30 10291 C 981.897 -0.0427281 1.66045 0
M  V30 10292 O 983.082 0.113026 1.90465 0
M  V30 10293 C 980.222 0.66284 3.38675 0
M  V30 10294 C 979.335 1.82548 3.91536 0
M  V30 10295 C 978.47 1.38753 5.12758 0
M  V30 10296 C 977.509 2.51976 5.5783 0
M  V30 10297 N 976.646 2.09009 6.70268 0
M  V30 10298 H 981.486 1.98343 2.22405 0
M  V30 10299 H 979.023 0.987822 1.08998 0
M  V30 10300 H 980.981 0.421788 4.15062 0
M  V30 10301 H 979.611 -0.237776 3.21923 0
M  V30 10302 H 978.663 2.18004 3.11735 0
M  V30 10303 H 979.975 2.67601 4.20941 0
M  V30 10304 H 979.129 1.1057 5.96539 0
M  V30 10305 H 977.868 0.507618 4.85051 0
M  V30 10306 H 976.873 2.80912 4.72619 0
M  V30 10307 H 978.098 3.40534 5.87549 0
M  V30 10308 H 976.044 1.23423 6.44285 0
M  V30 10309 H 975.961 2.87613 6.99153 0
M  V30 10310 H 977.229 1.83981 7.57477 0
M  V30 10311 N 981.458 -1.16348 1.06306 0
M  V30 10312 C 982.874 -1.38873 0.786543 0
M  V30 10313 C 983.074 -1.91915 -0.614061 0
M  V30 10314 O 982.13 -2.11804 -1.3746 0
M  V30 10315 C 983.443 -2.36936 1.85154 0
M  V30 10316 C 984.991 -2.5062 1.87506 0
M  V30 10317 C 985.466 -3.51965 2.9306 0
M  V30 10318 N 986.957 -3.59492 2.92095 0
M  V30 10319 C 987.692 -4.37699 3.70415 0
M  V30 10320 N 987.188 -5.19327 4.58553 0
M  V30 10321 N 988.981 -4.32683 3.58806 0
M  V30 10322 H 981.132 -0.802542 1.96655 0
M  V30 10323 H 983.395 -0.415304 0.852189 0
M  V30 10324 H 983.101 -2.05056 2.85736 0
M  V30 10325 H 982.975 -3.36585 1.70267 0
M  V30 10326 H 985.362 -2.81804 0.875827 0
M  V30 10327 H 985.443 -1.51006 2.06472 0
M  V30 10328 H 985.087 -3.21518 3.93177 0
M  V30 10329 H 985.017 -4.51309 2.71344 0
M  V30 10330 H 987.508 -3.01222 2.28197 0
M  V30 10331 H 987.821 -5.76216 5.1497 0
M  V30 10332 H 986.166 -5.1867 4.62608 0
M  V30 10333 H 989.357 -3.67971 2.89335 0
M  V30 10334 H 989.53 -4.93386 4.20088 0
M  V30 10335 N 982.937 -0.845659 -1.3299 0
M  V30 10336 C 984.186 -0.440928 -1.96822 0
M  V30 10337 C 984.499 1.00668 -1.67706 0
M  V30 10338 O 985.705 1.51641 -2.25205 0
M  V30 10339 C 984.161 -0.73752 -3.52262 0
M  V30 10340 C 983.769 -2.20026 -3.90247 0
M  V30 10341 C 985.513 -0.400072 -4.22611 0
M  V30 10342 C 983.42 -2.44054 -5.38694 0
M  V30 10343 H 982.35 -0.161148 -0.736578 0
M  V30 10344 H 985.001 -1.03519 -1.51513 0
M  V30 10345 H 983.383 -0.0728025 -3.95933 0
M  V30 10346 H 984.557 -2.90602 -3.57613 0
M  V30 10347 H 982.872 -2.50135 -3.32899 0
M  V30 10348 H 985.469 -0.557136 -5.3179 0
M  V30 10349 H 985.812 0.657547 -4.11074 0
M  V30 10350 H 986.345 -1.0203 -3.84493 0
M  V30 10351 H 983.084 -3.48407 -5.55241 0
M  V30 10352 H 982.604 -1.78047 -5.72765 0
M  V30 10353 H 984.283 -2.27549 -6.05665 0
M  V30 10354 N 984.415 1.45619 -0.602734 0
M  V30 10355 C 985.345 2.33258 0.106342 0
M  V30 10356 C 986.326 1.46543 0.863664 0
M  V30 10357 O 987.511 1.75324 0.835175 0
M  V30 10358 C 984.641 3.29168 1.10751 0
M  V30 10359 C 983.595 4.25481 0.463717 0
M  V30 10360 C 982.921 5.11046 1.57278 0
M  V30 10361 C 984.221 5.18702 -0.61199 0
M  V30 10362 H 985.915 2.92795 -0.625423 0
M  V30 10363 H 983.461 1.40793 -0.302213 0
M  V30 10364 H 985.414 3.89346 1.61208 0
M  V30 10365 H 984.138 2.6778 1.8698 0
M  V30 10366 H 982.797 3.66595 -0.0199496 0
M  V30 10367 H 982.445 4.46029 2.32524 0
M  V30 10368 H 982.145 5.76286 1.14755 0
M  V30 10369 H 983.669 5.74091 2.07972 0
M  V30 10370 H 985.083 5.72979 -0.191686 0
M  V30 10371 H 983.48 5.92393 -0.958686 0
M  V30 10372 H 984.55 4.61424 -1.4905 0
M  V30 10373 N 985.893 0.34162 1.53853 0
M  V30 10374 C 986.856 -0.503541 2.236 0
M  V30 10375 C 987.856 -1.02912 1.23554 0
M  V30 10376 O 989.046 -0.918678 1.48007 0
M  V30 10377 C 986.178 -1.70126 2.95415 0
M  V30 10378 H 987.371 0.106437 2.99711 0
M  V30 10379 H 984.924 0.0929408 1.56023 0
M  V30 10380 H 985.659 -2.34999 2.23486 0
M  V30 10381 H 985.444 -1.33161 3.68796 0
M  V30 10382 H 986.934 -2.30077 3.48503 0
M  V30 10383 N 987.371 -1.57444 0.0701946 0
M  V30 10384 C 988.334 -2.11511 -0.882923 0
M  V30 10385 C 989.334 -1.03879 -1.22743 0
M  V30 10386 O 990.524 -1.29874 -1.16097 0
M  V30 10387 C 987.656 -2.61514 -2.18686 0
M  V30 10388 H 988.849 -2.9703 -0.413873 0
M  V30 10389 H 986.402 -1.55278 -0.178488 0
M  V30 10390 H 987.137 -1.79443 -2.70131 0
M  V30 10391 H 986.922 -3.40185 -1.94978 0
M  V30 10392 H 988.412 -3.03425 -2.86919 0
M  V30 10393 N 988.849 0.203349 -1.56283 0
M  V30 10394 C 990.095 0.926381 -1.80405 0
M  V30 10395 C 990.428 1.8325 -0.642883 0
M  V30 10396 O 989.703 1.91196 0.356998 0
M  V30 10397 C 989.986 1.74972 -3.14733 0
M  V30 10398 C 989.839 0.868866 -4.41328 0
M  V30 10399 C 991.158 2.72394 -3.45672 0
M  V30 10400 H 988.277 0.335346 -0.656286 0
M  V30 10401 H 990.919 0.1942 -1.89005 0
M  V30 10402 H 989.069 2.37394 -3.07533 0
M  V30 10403 H 990.741 0.259986 -4.60567 0
M  V30 10404 H 988.984 0.175161 -4.33446 0
M  V30 10405 H 989.655 1.47975 -5.31796 0
M  V30 10406 H 992.131 2.20105 -3.53119 0
M  V30 10407 H 991.007 3.27091 -4.40798 0
M  V30 10408 H 991.268 3.51035 -2.6875 0
M  V30 10409 N 990.327 1.50405 0.470755 0
M  V30 10410 C 991.555 1.65168 1.24608 0
M  V30 10411 C 991.97 0.335153 1.85801 0
M  V30 10412 O 991.327 -0.682919 1.69241 0
M  V30 10413 C 991.378 2.74305 2.35455 0
M  V30 10414 O 991.099 4.00854 1.76771 0
M  V30 10415 C 992.6 3.00044 3.26326 0
M  V30 10416 H 989.82 0.555186 0.376842 0
M  V30 10417 H 992.364 1.9663 0.56187 0
M  V30 10418 H 990.519 2.45536 2.99651 0
M  V30 10419 H 990.933 4.61211 2.49769 0
M  V30 10420 H 992.407 3.8007 4.00313 0
M  V30 10421 H 992.884 2.11128 3.85126 0
M  V30 10422 H 993.49 3.30345 2.67866 0
M  V30 10423 N 991.805 -0.723954 1.39988 0
M  V30 10424 C 993.03 -1.5182 1.41299 0
M  V30 10425 C 993.455 -1.88096 0.0122636 0
M  V30 10426 O 992.813 -1.52687 -0.977559 0
M  V30 10427 C 992.861 -2.77532 2.30235 0
M  V30 10428 O 991.965 -3.73903 1.73984 0
M  V30 10429 H 991.306 -0.458058 0.480707 0
M  V30 10430 H 993.836 -0.892291 1.84118 0
M  V30 10431 H 993.846 -3.2615 2.45132 0
M  V30 10432 H 992.521 -2.50462 3.32026 0
M  V30 10433 H 991.098 -3.32715 1.68389 0
M  V30 10434 N 993.283 -1.25346 -0.955304 0
M  V30 10435 C 994.246 -1.05754 -2.03344 0
M  V30 10436 C 995.246 -0.0105743 -1.60797 0
M  V30 10437 O 996.436 -0.252699 -1.72357 0
M  V30 10438 C 993.568 -0.605536 -3.35479 0
M  V30 10439 H 994.761 -2.01459 -2.22158 0
M  V30 10440 H 992.314 -1.07744 -1.1323 0
M  V30 10441 H 993.049 0.354154 -3.2236 0
M  V30 10442 H 992.834 -1.36134 -3.67709 0
M  V30 10443 H 994.324 -0.489867 -4.14717 0
M  V30 10444 N 994.761 1.15782 -1.06922 0
M  V30 10445 C 996.009 1.86097 -0.788192 0
M  V30 10446 C 996.33 1.82475 0.687606 0
M  V30 10447 O 995.6 1.26266 1.49778 0
M  V30 10448 H 994.18 0.689008 -0.288577 0
M  V30 10449 H 996.842 1.40377 -1.35205 0
M  V30 10450 H 995.938 2.91358 -1.1188 0
M  V30 10451 N 996.239 0.8527 1.3254 0
M  V30 10452 C 997.189 0.267711 2.26423 0
M  V30 10453 C 998.173 -0.585305 1.49877 0
M  V30 10454 O 999.365 -0.435008 1.71571 0
M  V30 10455 C 996.494 -0.544605 3.38953 0
M  V30 10456 C 995.58 0.32069 4.22886 0
M  V30 10457 N 995.971 1.40601 4.85865 0
M  V30 10458 C 994.269 0.110101 4.45864 0
M  V30 10459 C 994.97 1.93819 5.48461 0
M  V30 10460 N 993.946 1.23764 5.29324 0
M  V30 10461 H 997.748 1.09747 2.7264 0
M  V30 10462 H 995.262 0.698607 1.46606 0
M  V30 10463 H 997.259 -0.98009 4.05216 0
M  V30 10464 H 995.919 -1.37218 2.94281 0
M  V30 10465 H 996.93 1.78894 4.86022 0
M  V30 10466 H 993.607 -0.682917 4.11877 0
M  V30 10467 H 994.997 2.84783 6.08562 0
M  V30 10468 N 997.718 -1.45297 0.610449 0
M  V30 10469 C 999.129 -1.85715 0.191488 0
M  V30 10470 C 999.48 -1.51036 -1.25229 0
M  V30 10471 O 998.605 -0.938422 -1.94994 0
M  V30 10472 C 999.2 -3.37082 0.340747 0
M  V30 10473 C 997.759 -3.76393 -0.0235433 0
M  V30 10474 C 996.906 -2.69237 0.663849 0
M  V30 10475 H 999.857 -1.36058 0.816948 0
M  V30 10476 H 999.878 -3.78105 -0.426233 0
M  V30 10477 H 999.39 -3.62291 1.39164 0
M  V30 10478 H 997.491 -3.56801 -1.07351 0
M  V30 10479 H 997.604 -4.77653 0.372102 0
M  V30 10480 H 995.968 -2.54499 0.101204 0
M  V30 10481 H 996.751 -2.97281 1.71694 0
M  V30 10482 N 999.196 -0.349774 -1.5367 0
M  V30 10483 C 1000.44 0.244827 -2.01015 0
M  V30 10484 C 1000.77 1.50057 -1.23746 0
M  V30 10485 O 1000.03 1.9315 -0.314872 0
M  V30 10486 C 1000.32 0.598311 -3.52356 0
M  V30 10487 C 999.991 -0.56127 -4.47393 0
M  V30 10488 C 998.653 -0.879481 -4.73095 0
M  V30 10489 C 1001 -1.3389 -5.03709 0
M  V30 10490 C 998.333 -1.97758 -5.52366 0
M  V30 10491 C 1000.68 -2.4273 -5.84179 0
M  V30 10492 C 999.349 -2.75103 -6.08173 0
M  V30 10493 H 998.619 0.0895884 -0.735564 0
M  V30 10494 H 1001.27 -0.478975 -1.85413 0
M  V30 10495 H 999.571 1.40291 -3.65822 0
M  V30 10496 H 1001.27 1.07036 -3.86451 0
M  V30 10497 H 997.858 -0.303201 -4.27526 0
M  V30 10498 H 1002.04 -1.10632 -4.83812 0
M  V30 10499 H 997.298 -2.23257 -5.6918 0
M  V30 10500 H 1001.47 -3.03412 -6.26828 0
M  V30 10501 H 999.099 -3.60317 -6.69385 0
M  V30 10502 N 1000.67 1.57404 -0.0785433 0
M  V30 10503 C 1001.6 2.16131 0.883726 0
M  V30 10504 C 1002.58 1.09015 1.30575 0
M  V30 10505 O 1003.77 1.3708 1.37559 0
M  V30 10506 C 1000.9 2.72836 2.1489 0
M  V30 10507 C 999.854 3.85178 1.86605 0
M  V30 10508 C 999.18 4.28516 3.1981 0
M  V30 10509 C 1000.48 5.09118 1.16601 0
M  V30 10510 H 1002.17 2.9679 0.394484 0
M  V30 10511 H 999.72 1.42763 0.188304 0
M  V30 10512 H 1001.67 3.12567 2.8263 0
M  V30 10513 H 1000.4 1.89408 2.66068 0
M  V30 10514 H 999.056 3.45962 1.21268 0
M  V30 10515 H 998.704 3.42 3.68843 0
M  V30 10516 H 998.404 5.04249 3.01674 0
M  V30 10517 H 999.928 4.70868 3.88737 0
M  V30 10518 H 1001.34 5.46123 1.74422 0
M  V30 10519 H 999.739 5.90173 1.087 0
M  V30 10520 H 1000.81 4.8468 0.146138 0
M  V30 10521 N 1002.15 -0.195058 1.56388 0
M  V30 10522 C 1003.4 -0.9168 1.80894 0
M  V30 10523 C 1003.73 -1.82907 0.652592 0
M  V30 10524 O 1003.01 -1.91382 -0.346853 0
M  V30 10525 C 1003.29 -1.733 3.15657 0
M  V30 10526 C 1003.14 -0.845449 4.41783 0
M  V30 10527 C 1004.46 -2.70557 3.47112 0
M  V30 10528 H 1001.58 -0.331861 0.658056 0
M  V30 10529 H 1004.22 -0.184174 1.89105 0
M  V30 10530 H 1002.37 -2.3576 3.08787 0
M  V30 10531 H 1004.04 -0.235557 4.60698 0
M  V30 10532 H 1002.29 -0.152172 4.33533 0
M  V30 10533 H 1002.96 -1.45152 5.32574 0
M  V30 10534 H 1005.43 -2.1823 3.54281 0
M  V30 10535 H 1004.31 -3.24749 4.42526 0
M  V30 10536 H 1004.57 -3.49605 2.70608 0
M  V30 10537 N 1003.63 -1.50653 -0.462772 0
M  V30 10538 C 1004.58 -1.70661 -1.58043 0
M  V30 10539 C 1005.57 -0.572533 -1.59432 0
M  V30 10540 O 1006.78 -0.753257 -1.63481 0
M  V30 10541 H 1003.15 -0.538805 -0.524588 0
M  V30 10542 H 1005.12 -2.64399 -1.38332 0
M  V30 10543 C 1003.87 -1.82558 -2.95919 0
M  V30 10544 H 1003.2 -2.69216 -2.95572 0
M  V30 10545 H 1004.64 -2.0058 -3.73556 0
M  V30 10546 C 1003.09 -0.57916 -3.31885 0
M  V30 10547 O 1003.62 0.277888 -4.00738 0
M  V30 10548 N 1001.83 -0.430723 -2.8739 0
M  V30 10549 H 1001.38 -1.1292 -2.31531 0
M  V30 10550 H 1001.34 0.402061 -3.11819 0
M  V30 10551 N 1005.11 0.71652 -1.4037 0
M  V30 10552 C 1006.04 1.84345 -1.43315 0
M  V30 10553 C 1007.02 1.67537 -0.294186 0
M  V30 10554 O 1008.2 1.87582 -0.502671 0
M  V30 10555 C 1005.33 3.2229 -1.29408 0
M  V30 10556 C 1004.29 3.53769 -2.40897 0
M  V30 10557 C 1003.61 4.90847 -2.12068 0
M  V30 10558 C 1004.91 3.54862 -3.83237 0
M  V30 10559 H 1006.61 1.82138 -2.37626 0
M  V30 10560 H 1004.15 0.874873 -1.14376 0
M  V30 10561 H 1006.11 4.00819 -1.30085 0
M  V30 10562 H 1004.83 3.2507 -0.31573 0
M  V30 10563 H 1003.49 2.77579 -2.39469 0
M  V30 10564 H 1003.14 4.90229 -1.12626 0
M  V30 10565 H 1002.84 5.12875 -2.86762 0
M  V30 10566 H 1004.36 5.71711 -2.14426 0
M  V30 10567 H 1005.78 4.23432 -3.86494 0
M  V30 10568 H 1004.17 3.88416 -4.57442 0
M  V30 10569 H 1005.24 2.54266 -4.12888 0
M  V30 10570 N 1006.59 1.25851 0.948643 0
M  V30 10571 C 1007.83 1.10954 1.69397 0
M  V30 10572 C 1008.16 -0.348443 1.91353 0
M  V30 10573 O 1007.42 -1.27285 1.48651 0
M  V30 10574 C 1007.72 1.81565 3.07846 0
M  V30 10575 C 1007.38 3.31477 3.0567 0
M  V30 10576 C 1006.04 3.72371 3.04784 0
M  V30 10577 C 1008.4 4.27225 2.98543 0
M  V30 10578 C 1005.72 5.07416 2.94527 0
M  V30 10579 C 1008.08 5.62301 2.89828 0
M  V30 10580 C 1006.74 6.02516 2.87281 0
M  V30 10581 H 1006.01 0.406011 0.619868 0
M  V30 10582 H 1008.66 1.562 1.10787 0
M  V30 10583 H 1006.96 1.28767 3.70035 0
M  V30 10584 H 1008.66 1.67486 3.64348 0
M  V30 10585 H 1005.25 2.98941 3.07135 0
M  V30 10586 H 1009.43 3.96618 2.98342 0
M  V30 10587 H 1004.69 5.37746 2.90928 0
M  V30 10588 H 1008.86 6.36182 2.83276 0
M  V30 10589 H 1006.49 7.07116 2.79089 0
M  V30 10590 N 1008.06 -1.15214 1.07534 0
M  V30 10591 C 1009.31 -1.85676 0.79805 0
M  V30 10592 C 1009.63 -1.82837 -0.677919 0
M  V30 10593 O 1008.9 -1.27059 -1.49107 0
M  V30 10594 H 1007.48 -0.687468 0.292227 0
M  V30 10595 H 1010.15 -1.39658 1.35947 0
M  V30 10596 H 1009.24 -2.9076 1.13423 0
M  V30 10597 N 1009.54 -0.859717 -1.32086 0
M  V30 10598 C 1010.78 -0.471939 -1.98877 0
M  V30 10599 C 1011.15 0.955689 -1.66525 0
M  V30 10600 O 1012.35 1.44829 -2.26447 0
M  V30 10601 C 1010.62 -0.710016 -3.50276 0
M  V30 10602 S 1012.18 -0.420566 -4.3678 0
M  V30 10603 H 1009 -0.176588 -0.688722 0
M  V30 10604 H 1011.6 -1.11352 -1.60689 0
M  V30 10605 H 1010.3 -1.74803 -3.71311 0
M  V30 10606 H 1009.83 -0.0550429 -3.93361 0
M  V30 10607 H 1011.85 0.751362 -4.90478 0
M  V30 10608 N 1011.02 1.44971 -0.618145 0
M  V30 10609 C 1012.27 2.02159 -0.117482 0
M  V30 10610 C 1012.6 1.48517 1.2559 0
M  V30 10611 O 1011.85 0.654192 1.84442 0
M  V30 10612 C 1012.15 3.57378 -0.0394861 0
M  V30 10613 C 1011.82 4.30218 -1.34993 0
M  V30 10614 C 1010.48 4.49835 -1.70886 0
M  V30 10615 C 1012.83 4.71768 -2.21551 0
M  V30 10616 C 1010.16 5.08258 -2.9307 0
M  V30 10617 C 1012.51 5.31543 -3.42993 0
M  V30 10618 C 1011.17 5.49381 -3.79126 0
M  V30 10619 H 1010.44 0.739752 -0.0429897 0
M  V30 10620 H 1013.09 1.73903 -0.801871 0
M  V30 10621 H 1011.4 3.84973 0.728217 0
M  V30 10622 H 1013.09 3.99343 0.364213 0
M  V30 10623 H 1009.68 4.15271 -1.06057 0
M  V30 10624 H 1013.87 4.56336 -1.95117 0
M  V30 10625 H 1009.12 5.20257 -3.21158 0
M  V30 10626 H 1013.3 5.62691 -4.10308 0
M  V30 10627 H 1010.92 5.94419 -4.73888 0
M  V30 10628 N 1012.5 0.357919 1.53482 0
M  V30 10629 C 1013.43 -0.526753 2.23065 0
M  V30 10630 C 1014.44 -1.05239 1.24212 0
M  V30 10631 O 1015.63 -0.960078 1.50482 0
M  V30 10632 C 1012.73 -1.73919 2.9087 0
M  V30 10633 C 1011.91 -1.34638 4.16163 0
M  V30 10634 C 1010.96 -2.42005 4.67247 0
M  V30 10635 O 1009.99 -2.04714 5.31113 0
M  V30 10636 N 1011.19 -3.73478 4.44404 0
M  V30 10637 H 1013.96 0.0692386 2.9962 0
M  V30 10638 H 1011.52 0.182726 1.60866 0
M  V30 10639 H 1013.51 -2.45207 3.21956 0
M  V30 10640 H 1012.08 -2.24223 2.17814 0
M  V30 10641 H 1011.3 -0.463667 3.91464 0
M  V30 10642 H 1012.59 -1.06012 4.97633 0
M  V30 10643 H 1011.99 -4.06555 3.93357 0
M  V30 10644 H 1010.54 -4.40893 4.80059 0
M  V30 10645 N 1013.98 -1.5736 0.0868897 0
M  V30 10646 C 1015.2 -1.98388 -0.587349 0
M  V30 10647 C 1015.62 -0.965757 -1.6223 0
M  V30 10648 O 1014.98 0.0456981 -1.82443 0
M  V30 10649 C 1015.03 -3.39479 -1.24242 0
M  V30 10650 O 1014.75 -4.37393 -0.248878 0
M  V30 10651 C 1016.25 -3.95465 -2.00305 0
M  V30 10652 H 1013.47 -0.652111 -0.15809 0
M  V30 10653 H 1016.01 -2.03843 0.163754 0
M  V30 10654 H 1014.17 -3.35063 -1.94451 0
M  V30 10655 H 1014.58 -5.19525 -0.720678 0
M  V30 10656 H 1016.06 -4.96363 -2.41511 0
M  V30 10657 H 1016.53 -3.32832 -2.86565 0
M  V30 10658 H 1017.14 -4.03328 -1.34931 0
M  V30 10659 N 1015.45 0.186762 -1.56489 0
M  V30 10660 C 1016.87 0.750675 -1.70944 0
M  V30 10661 C 1017.22 1.83483 -0.694858 0
M  V30 10662 O 1016.34 2.159 0.147009 0
M  V30 10663 C 1016.94 1.36843 -3.09934 0
M  V30 10664 C 1015.5 1.87934 -3.26125 0
M  V30 10665 C 1014.64 0.75242 -2.66897 0
M  V30 10666 H 1017.59 -0.0384292 -1.58653 0
M  V30 10667 H 1017.61 2.23795 -3.07727 0
M  V30 10668 H 1017.13 0.579135 -3.83755 0
M  V30 10669 H 1015.23 2.69556 -2.57235 0
M  V30 10670 H 1015.34 2.0354 -4.33715 0
M  V30 10671 H 1013.7 1.16888 -2.26295 0
M  V30 10672 H 1014.49 -0.0247769 -3.43291 0
M  V30 10673 N 1016.93 1.50896 0.454776 0
M  V30 10674 C 1017.84 1.73762 1.5762 0
M  V30 10675 C 1018.86 0.621206 1.62533 0
M  V30 10676 O 1020.03 0.901449 1.801 0
M  V30 10677 C 1017.1 1.84183 2.9373 0
M  V30 10678 C 1016.16 3.07982 2.99075 0
M  V30 10679 C 1015.39 3.17896 4.28693 0
M  V30 10680 O 1015.62 2.34184 5.20109 0
M  V30 10681 O 1014.55 4.10749 4.39964 0
M  V30 10682 H 1018.38 2.68856 1.41245 0
M  V30 10683 H 1015.96 1.35187 0.635984 0
M  V30 10684 H 1017.84 1.93123 3.74542 0
M  V30 10685 H 1016.52 0.922742 3.10269 0
M  V30 10686 H 1015.43 3.04531 2.17282 0
M  V30 10687 H 1016.76 3.99523 2.87476 0
M  V30 10688 N 1018.41 -0.709066 1.40748 0
M  V30 10689 C 1019.36 -1.8149 1.38005 0
M  V30 10690 C 1020.34 -1.58842 0.256544 0
M  V30 10691 O 1021.54 -1.69904 0.496164 0
M  V30 10692 C 1018.67 -3.19678 1.25143 0
M  V30 10693 C 1017.75 -3.48067 2.42301 0
M  V30 10694 N 1018.14 -3.47234 3.6778 0
M  V30 10695 C 1016.44 -3.78555 2.35822 0
M  V30 10696 C 1017.14 -3.74149 4.45407 0
M  V30 10697 N 1016.12 -3.93224 3.75335 0
M  V30 10698 H 1019.92 -1.79188 2.32957 0
M  V30 10699 H 1017.43 -0.908477 1.34612 0
M  V30 10700 H 1019.43 -3.98875 1.2126 0
M  V30 10701 H 1018.09 -3.23201 0.311642 0
M  V30 10702 H 1019.1 -3.2793 4.00852 0
M  V30 10703 H 1015.78 -3.89529 1.50245 0
M  V30 10704 H 1017.17 -3.79755 5.54289 0
M  V30 10705 N 1019.89 -1.26353 -0.941956 0
M  V30 10706 C 1021.14 -1.12017 -1.69056 0
M  V30 10707 C 1021.47 0.335856 -1.91274 0
M  V30 10708 O 1020.74 1.24677 -1.49285 0
M  V30 10709 C 1021.03 -1.88889 -3.06583 0
M  V30 10710 C 1020.88 -3.42394 -2.91696 0
M  V30 10711 C 1022.2 -1.68209 -4.06686 0
M  V30 10712 H 1019.32 -0.408311 -0.613556 0
M  V30 10713 H 1021.96 -1.55339 -1.09407 0
M  V30 10714 H 1020.11 -1.5207 -3.57501 0
M  V30 10715 H 1021.78 -3.88962 -2.48005 0
M  V30 10716 H 1020.02 -3.69459 -2.27338 0
M  V30 10717 H 1020.7 -3.91408 -3.89235 0
M  V30 10718 H 1023.17 -2.00286 -3.64726 0
M  V30 10719 H 1022.05 -2.24412 -5.00929 0
M  V30 10720 H 1022.31 -0.626474 -4.37639 0
M  V30 10721 N 1021.37 1.14642 -1.08144 0
M  V30 10722 C 1022.61 1.87277 -0.818953 0
M  V30 10723 C 1022.97 1.80896 0.643482 0
M  V30 10724 O 1024.17 2.4864 1.02135 0
M  V30 10725 C 1022.44 3.32006 -1.32314 0
M  V30 10726 S 1024 4.22284 -1.19256 0
M  V30 10727 H 1020.82 0.646204 -0.29655 0
M  V30 10728 H 1023.42 1.38261 -1.38217 0
M  V30 10729 H 1022.13 3.34197 -2.38203 0
M  V30 10730 H 1021.66 3.86078 -0.75548 0
M  V30 10731 H 1023.67 4.96016 -0.135143 0
M  V30 10732 N 1022.85 0.866709 1.31628 0
M  V30 10733 C 1024.09 0.476026 1.96825 0
M  V30 10734 C 1024.42 -0.970994 1.68529 0
M  V30 10735 O 1023.68 -1.69823 0.97255 0
M  V30 10736 C 1023.97 0.676018 3.50948 0
M  V30 10737 C 1023.64 2.09533 3.99258 0
M  V30 10738 C 1022.3 2.48349 4.1216 0
M  V30 10739 C 1024.65 3.02112 4.24709 0
M  V30 10740 C 1021.98 3.78991 4.47864 0
M  V30 10741 C 1024.33 4.32266 4.61875 0
M  V30 10742 C 1023 4.71 4.72985 0
M  V30 10743 H 1022.27 0.17419 0.720235 0
M  V30 10744 H 1024.92 1.09907 1.5682 0
M  V30 10745 H 1023.22 -0.0301867 3.91788 0
M  V30 10746 H 1024.92 0.353604 3.99438 0
M  V30 10747 H 1021.51 1.78396 3.89709 0
M  V30 10748 H 1025.69 2.73351 4.14238 0
M  V30 10749 H 1020.95 4.08769 4.54663 0
M  V30 10750 H 1025.12 5.04055 4.80522 0
M  V30 10751 H 1022.75 5.72273 5.00407 0
M  V30 10752 N 1024.32 -1.44642 0.625825 0
M  V30 10753 C 1025.57 -2.02393 0.128391 0
M  V30 10754 C 1025.9 -1.49075 -1.2446 0
M  V30 10755 O 1025.18 -0.672684 -1.82497 0
M  V30 10756 C 1025.46 -3.59934 0.109279 0
M  V30 10757 C 1025.31 -4.23546 1.51423 0
M  V30 10758 C 1026.63 -4.36406 -0.568985 0
M  V30 10759 H 1023.75 -0.735427 0.0481299 0
M  V30 10760 H 1026.39 -1.72277 0.801286 0
M  V30 10761 H 1024.54 -3.85722 -0.463726 0
M  V30 10762 H 1026.22 -4.08882 2.13572 0
M  V30 10763 H 1024.46 -3.81245 2.06966 0
M  V30 10764 H 1025.13 -5.32535 1.45294 0
M  V30 10765 H 1027.61 -4.1602 -0.0817516 0
M  V30 10766 H 1026.48 -5.46122 -0.551527 0
M  V30 10767 H 1026.74 -4.1062 -1.6384 0
M  V30 10768 N 1025.8 -0.366053 -1.5329 0
M  V30 10769 C 1026.73 0.523781 -2.22108 0
M  V30 10770 C 1027.71 1.08262 -1.21318 0
M  V30 10771 O 1028.9 1.13866 -1.50222 0
M  V30 10772 C 1026.02 1.72273 -2.91616 0
M  V30 10773 C 1025.07 1.29129 -4.06482 0
M  V30 10774 S 1025.9 0.292195 -5.34702 0
M  V30 10775 C 1027.06 1.49746 -6.07723 0
M  V30 10776 H 1027.29 -0.0606687 -2.97238 0
M  V30 10777 H 1024.82 -0.15016 -1.53668 0
M  V30 10778 H 1026.78 2.41045 -3.32277 0
M  V30 10779 H 1025.44 2.27843 -2.16209 0
M  V30 10780 H 1024.64 2.18583 -4.54134 0
M  V30 10781 H 1024.24 0.682783 -3.67715 0
M  V30 10782 H 1026.53 2.4284 -6.32483 0
M  V30 10783 H 1027.47 1.06232 -7.00086 0
M  V30 10784 H 1027.88 1.70373 -5.38176 0
M  V30 10785 N 1027.28 1.57312 -0.0952337 0
M  V30 10786 C 1028.19 2.17556 0.877877 0
M  V30 10787 C 1029.21 1.14505 1.31014 0
M  V30 10788 O 1030.38 1.46876 1.37802 0
M  V30 10789 C 1027.45 2.74413 2.11892 0
M  V30 10790 C 1026.51 3.92419 1.74085 0
M  V30 10791 C 1025.74 4.46556 2.92273 0
M  V30 10792 O 1025.96 3.99631 4.07002 0
M  V30 10793 O 1024.9 5.37576 2.70732 0
M  V30 10794 H 1028.72 3.01116 0.395312 0
M  V30 10795 H 1026.31 1.48841 0.129123 0
M  V30 10796 H 1028.19 3.10754 2.84622 0
M  V30 10797 H 1026.87 1.93899 2.59201 0
M  V30 10798 H 1025.77 3.6089 0.985346 0
M  V30 10799 H 1027.11 4.74298 1.31539 0
M  V30 10800 N 1028.76 -0.17846 1.56586 0
M  V30 10801 C 1029.99 -0.910674 1.85446 0
M  V30 10802 C 1030.4 -1.76647 0.677675 0
M  V30 10803 O 1029.74 -1.80086 -0.362584 0
M  V30 10804 C 1029.8 -1.84363 3.08627 0
M  V30 10805 C 1029.46 -1.16814 4.41818 0
M  V30 10806 C 1030.46 -0.53703 5.17119 0
M  V30 10807 C 1028.15 -1.16703 4.88555 0
M  V30 10808 C 1030.14 0.0861778 6.37342 0
M  V30 10809 C 1027.83 -0.539992 6.0871 0
M  V30 10810 C 1028.83 0.0855135 6.82946 0
M  V30 10811 O 1028.51 0.70268 8.00823 0
M  V30 10812 H 1028.25 -0.270377 0.619574 0
M  V30 10813 H 1030.8 -0.185591 2.0456 0
M  V30 10814 H 1029.03 -2.60884 2.85441 0
M  V30 10815 H 1030.72 -2.44506 3.23993 0
M  V30 10816 H 1031.48 -0.529915 4.82096 0
M  V30 10817 H 1027.36 -1.64329 4.30717 0
M  V30 10818 H 1030.91 0.575011 6.95226 0
M  V30 10819 H 1026.8 -0.544666 6.43198 0
M  V30 10820 H 1027.57 0.601224 8.16289 0
M  V30 10821 N 1030.24 -1.51135 -0.446768 0
M  V30 10822 C 1031.46 -1.67411 -1.22427 0
M  V30 10823 C 1031.89 -0.367009 -1.84485 0
M  V30 10824 O 1031.24 0.67185 -1.68392 0
M  V30 10825 C 1031.29 -2.78473 -2.29096 0
M  V30 10826 O 1030.4 -2.41419 -3.34351 0
M  V30 10827 H 1029.74 -0.558512 -0.359111 0
M  V30 10828 H 1032.27 -1.97648 -0.5288 0
M  V30 10829 H 1032.28 -3.02277 -2.7403 0
M  V30 10830 H 1030.95 -3.73326 -1.83304 0
M  V30 10831 H 1029.53 -2.28152 -2.9496 0
M  V30 10832 N 1031.71 0.701592 -1.41122 0
M  V30 10833 C 1032.68 1.79733 -1.42227 0
M  V30 10834 C 1033.68 1.57708 -0.313831 0
M  V30 10835 O 1034.87 1.64492 -0.573423 0
M  V30 10836 C 1032 3.18024 -1.22775 0
M  V30 10837 H 1033.19 1.80148 -2.39764 0
M  V30 10838 H 1030.74 0.908624 -1.27176 0
M  V30 10839 H 1031.48 3.23252 -0.260552 0
M  V30 10840 H 1031.26 3.35411 -2.0308 0
M  V30 10841 H 1032.75 3.98021 -1.2637 0
M  V30 10842 N 1033.19 1.2685 0.935242 0
M  V30 10843 C 1034.44 1.12522 1.67878 0
M  V30 10844 C 1034.76 -0.330894 1.92172 0
M  V30 10845 O 1034.03 -1.23259 1.52263 0
M  V30 10846 H 1032.61 0.413418 0.622169 0
M  V30 10847 H 1035.27 1.59267 1.12339 0
M  V30 10848 H 1034.37 1.64853 2.65009 0
M  V30 10849 N 1034.67 -1.14067 1.0875 0
M  V30 10850 C 1035.92 -1.84819 0.817698 0
M  V30 10851 C 1036.24 -1.83545 -0.658488 0
M  V30 10852 O 1035.51 -1.28633 -1.47751 0
M  V30 10853 H 1034.09 -0.68433 0.299502 0
M  V30 10854 H 1036.75 -1.38208 1.37421 0
M  V30 10855 H 1035.85 -2.89541 1.16501 0
M  V30 10856 N 1036.15 -0.873678 -1.31166 0
M  V30 10857 C 1037.43 -0.40698 -1.91319 0
M  V30 10858 C 1037.81 1.1113 -1.79481 0
M  V30 10859 O 1037.15 1.94155 -1.20483 0
M  V30 10860 C 1037.36 -0.892484 -3.37396 0
M  V30 10861 C 1038.71 -0.920795 -4.14496 0
M  V30 10862 O 1039.74 -0.838386 -3.46193 0
M  V30 10863 O 1038.59 -1.04069 -5.365 0
M  V30 10864 H 1035.69 -0.122439 -0.817886 0
M  V30 10865 H 1038.23 -0.961835 -1.3981 0
M  V30 10866 H 1037.01 -1.93613 -3.40044 0
M  V30 10867 H 1036.63 -0.31615 -3.96341 0
M  V30 10868 N 1037.63 1.44308 -0.633487 0
M  V30 10869 C 1038.56 2.33431 0.0568402 0
M  V30 10870 C 1039.54 1.48342 0.832386 0
M  V30 10871 O 1040.72 1.77056 0.797798 0
M  V30 10872 C 1037.85 3.31443 1.03743 0
M  V30 10873 C 1036.81 4.26368 0.373362 0
M  V30 10874 C 1036.13 5.14267 1.46403 0
M  V30 10875 C 1037.43 5.17287 -0.721876 0
M  V30 10876 H 1039.13 2.91402 -0.687388 0
M  V30 10877 H 1036.67 1.4012 -0.332009 0
M  V30 10878 H 1038.63 3.92677 1.52913 0
M  V30 10879 H 1037.35 2.71686 1.81258 0
M  V30 10880 H 1036.01 3.6647 -0.0977053 0
M  V30 10881 H 1035.66 4.50861 2.23011 0
M  V30 10882 H 1035.36 5.7859 1.02506 0
M  V30 10883 H 1036.88 5.78373 1.95748 0
M  V30 10884 H 1038.29 5.72444 -0.313181 0
M  V30 10885 H 1036.69 5.90226 -1.08413 0
M  V30 10886 H 1037.76 4.58159 -1.58804 0
M  V30 10887 N 1039.1 0.374177 1.53094 0
M  V30 10888 C 1040.04 -0.511995 2.22382 0
M  V30 10889 C 1041.02 -1.07617 1.2189 0
M  V30 10890 O 1042.2 -1.13068 1.50824 0
M  V30 10891 C 1039.33 -1.70724 2.92525 0
M  V30 10892 C 1038.37 -1.26972 4.07161 0
M  V30 10893 S 1039.21 -0.263835 5.3485 0
M  V30 10894 C 1040.36 -1.46521 6.08508 0
M  V30 10895 H 1040.59 0.0764311 2.97202 0
M  V30 10896 H 1038.13 0.158307 1.53586 0
M  V30 10897 H 1040.09 -2.39279 3.3355 0
M  V30 10898 H 1038.75 -2.26693 2.17414 0
M  V30 10899 H 1037.94 -2.16172 4.55286 0
M  V30 10900 H 1037.54 -0.663273 3.68072 0
M  V30 10901 H 1039.83 -2.39483 6.33762 0
M  V30 10902 H 1040.78 -1.02517 7.0064 0
M  V30 10903 H 1041.18 -1.67516 5.39072 0
M  V30 10904 N 1040.58 -1.57259 0.103575 0
M  V30 10905 C 1041.51 -2.17509 -0.84923 0
M  V30 10906 C 1042.49 -1.11079 -1.28824 0
M  V30 10907 O 1043.68 -1.39252 -1.35361 0
M  V30 10908 C 1040.81 -2.76221 -2.10522 0
M  V30 10909 C 1039.76 -3.88098 -1.80454 0
M  V30 10910 C 1039.09 -4.33549 -3.12952 0
M  V30 10911 C 1040.39 -5.10909 -1.08486 0
M  V30 10912 H 1042.08 -2.9738 -0.347217 0
M  V30 10913 H 1039.63 -1.43045 -0.165568 0
M  V30 10914 H 1041.58 -3.17024 -2.77621 0
M  V30 10915 H 1040.31 -1.93617 -2.63021 0
M  V30 10916 H 1038.96 -3.47847 -1.15749 0
M  V30 10917 H 1038.61 -3.47825 -3.63355 0
M  V30 10918 H 1038.31 -5.08984 -2.93614 0
M  V30 10919 H 1039.84 -4.76992 -3.81196 0
M  V30 10920 H 1041.25 -5.48828 -1.65711 0
M  V30 10921 H 1039.65 -5.91828 -0.992973 0
M  V30 10922 H 1040.72 -4.84851 -0.0690108 0
M  V30 10923 N 1042.06 0.170153 -1.56679 0
M  V30 10924 C 1043.01 1.21531 -1.9291 0
M  V30 10925 C 1043.99 1.39742 -0.797553 0
M  V30 10926 O 1045.19 1.41693 -1.06075 0
M  V30 10927 C 1042.32 2.55447 -2.29351 0
M  V30 10928 C 1041.4 2.40925 -3.49022 0
M  V30 10929 N 1041.79 1.96118 -4.66231 0
M  V30 10930 C 1040.09 2.71747 -3.53652 0
M  V30 10931 C 1040.79 1.94086 -5.48366 0
M  V30 10932 N 1039.77 2.36533 -4.89441 0
M  V30 10933 H 1043.57 0.860602 -2.81018 0
M  V30 10934 H 1041.08 0.378415 -1.5793 0
M  V30 10935 H 1043.08 3.30972 -2.53502 0
M  V30 10936 H 1041.74 2.9172 -1.42583 0
M  V30 10937 H 1042.75 1.66438 -4.90427 0
M  V30 10938 H 1039.43 3.1205 -2.77365 0
M  V30 10939 H 1040.82 1.61132 -6.52293 0
M  V30 10940 N 1043.54 1.5137 0.438746 0
M  V30 10941 C 1044.79 1.63202 1.18524 0
M  V30 10942 C 1045.1 0.353408 1.92381 0
M  V30 10943 O 1046.31 0.351086 2.6922 0
M  V30 10944 C 1044.76 2.88218 2.15542 0
M  V30 10945 C 1044.37 4.23078 1.47339 0
M  V30 10946 C 1046.11 3.09407 2.90633 0
M  V30 10947 C 1044.02 5.39246 2.42833 0
M  V30 10948 H 1042.95 0.607864 0.446114 0
M  V30 10949 H 1045.6 1.77835 0.452421 0
M  V30 10950 H 1043.98 2.67216 2.92253 0
M  V30 10951 H 1045.16 4.54457 0.761964 0
M  V30 10952 H 1043.47 4.07755 0.844065 0
M  V30 10953 H 1046.07 3.9337 3.62165 0
M  V30 10954 H 1046.41 2.22428 3.51897 0
M  V30 10955 H 1046.95 3.30743 2.21029 0
M  V30 10956 H 1043.69 6.2848 1.8626 0
M  V30 10957 H 1043.21 5.12245 3.12034 0
M  V30 10958 H 1044.88 5.71137 3.03992 0
M  V30 10959 N 1045.02 -0.694098 1.41492 0
M  V30 10960 C 1045.97 -1.80016 1.39923 0
M  V30 10961 C 1046.95 -1.58561 0.273377 0
M  V30 10962 O 1048.14 -1.69368 0.514157 0
M  V30 10963 C 1045.27 -3.18333 1.28526 0
M  V30 10964 C 1044.36 -3.45478 2.45979 0
M  V30 10965 N 1044.75 -3.43313 3.71443 0
M  V30 10966 C 1043.05 -3.76033 2.39824 0
M  V30 10967 C 1043.75 -3.69404 4.4935 0
M  V30 10968 N 1042.72 -3.89221 3.79484 0
M  V30 10969 H 1046.53 -1.76707 2.34844 0
M  V30 10970 H 1044.04 -0.894148 1.35568 0
M  V30 10971 H 1046.04 -3.97567 1.25484 0
M  V30 10972 H 1044.7 -3.22852 0.345904 0
M  V30 10973 H 1045.71 -3.2366 4.04308 0
M  V30 10974 H 1042.38 -3.87913 1.54368 0
M  V30 10975 H 1043.77 -3.73854 5.58285 0
M  V30 10976 N 1046.49 -1.27344 -0.928501 0
M  V30 10977 C 1047.72 -1.16557 -1.7155 0
M  V30 10978 C 1048.14 0.274044 -1.86093 0
M  V30 10979 O 1047.5 1.19847 -1.36038 0
M  V30 10980 C 1047.55 -1.85332 -3.09329 0
M  V30 10981 O 1046.65 -1.15074 -3.9602 0
M  V30 10982 H 1046 -0.405423 -0.525859 0
M  V30 10983 H 1048.53 -1.68399 -1.16202 0
M  V30 10984 H 1048.54 -1.92659 -3.59648 0
M  V30 10985 H 1047.21 -2.90056 -2.98061 0
M  V30 10986 H 1045.79 -1.1581 -3.54461 0
M  V30 10987 N 1047.97 1.13488 -1.09353 0
M  V30 10988 C 1049.25 1.80998 -0.741559 0
M  V30 10989 C 1049.63 1.96418 0.773505 0
M  V30 10990 O 1048.98 1.53168 1.69563 0
M  V30 10991 C 1049.19 3.16078 -1.47972 0
M  V30 10992 C 1050.54 3.91438 -1.64504 0
M  V30 10993 O 1051.56 3.25699 -1.44218 0
M  V30 10994 O 1050.42 5.0935 -1.98054 0
M  V30 10995 H 1047.51 0.782953 -0.266297 0
M  V30 10996 H 1050.06 1.20422 -1.19569 0
M  V30 10997 H 1048.83 3.00076 -2.51137 0
M  V30 10998 H 1048.45 3.84354 -1.01772 0
M  V30 10999 N 1049.45 0.880621 1.30701 0
M  V30 11000 C 1050.7 0.497611 1.966 0
M  V30 11001 C 1051.03 -0.949901 1.69383 0
M  V30 11002 O 1050.31 -1.67054 0.996152 0
M  V30 11003 C 1050.59 0.767919 3.51817 0
M  V30 11004 C 1050.44 2.26574 3.88567 0
M  V30 11005 C 1051.76 0.241502 4.39437 0
M  V30 11006 H 1048.88 0.182267 0.714106 0
M  V30 11007 H 1051.52 1.10382 1.54648 0
M  V30 11008 H 1049.67 0.251967 3.87682 0
M  V30 11009 H 1051.34 2.84977 3.62748 0
M  V30 11010 H 1049.59 2.73411 3.36792 0
M  V30 11011 H 1050.26 2.40549 4.9683 0
M  V30 11012 H 1052.73 0.683051 4.10455 0
M  V30 11013 H 1051.61 0.459997 5.46969 0
M  V30 11014 H 1051.87 -0.857068 4.33713 0
M  V30 11015 N 1050.93 -1.4397 0.641131 0
M  V30 11016 C 1052.18 -2.01946 0.149629 0
M  V30 11017 C 1052.5 -1.50496 -1.23212 0
M  V30 11018 O 1051.76 -0.683453 -1.83378 0
M  V30 11019 C 1052.06 -3.5727 0.0963368 0
M  V30 11020 C 1051.72 -4.28016 1.4182 0
M  V30 11021 C 1050.39 -4.47059 1.78021 0
M  V30 11022 C 1052.74 -4.68183 2.29028 0
M  V30 11023 C 1050.07 -5.03532 3.01119 0
M  V30 11024 C 1052.42 -5.26019 3.51406 0
M  V30 11025 C 1051.08 -5.4328 3.87818 0
M  V30 11026 H 1050.35 -0.738974 0.0547531 0
M  V30 11027 H 1053 -1.72605 0.829436 0
M  V30 11028 H 1051.3 -3.86083 -0.666879 0
M  V30 11029 H 1053 -3.99871 -0.300635 0
M  V30 11030 H 1049.59 -4.13531 1.12651 0
M  V30 11031 H 1053.78 -4.53175 2.02353 0
M  V30 11032 H 1049.03 -5.15082 3.29395 0
M  V30 11033 H 1053.21 -5.56092 4.19208 0
M  V30 11034 H 1050.83 -5.86805 4.83284 0
M  V30 11035 N 1052.41 -0.382291 -1.52893 0
M  V30 11036 C 1053.63 0.204961 -2.06385 0
M  V30 11037 C 1054.06 1.40316 -1.25271 0
M  V30 11038 O 1053.42 1.79187 -0.275969 0
M  V30 11039 C 1053.46 0.560205 -3.56222 0
M  V30 11040 O 1052.57 1.65515 -3.77728 0
M  V30 11041 H 1051.91 0.0258798 -0.663495 0
M  V30 11042 H 1054.44 -0.547733 -1.97132 0
M  V30 11043 H 1054.45 0.826501 -3.99541 0
M  V30 11044 H 1053.12 -0.31584 -4.14699 0
M  V30 11045 H 1051.7 1.38311 -3.46301 0
M  V30 11046 N 1053.89 1.57202 -0.111913 0
M  V30 11047 C 1054.8 2.18475 0.854753 0
M  V30 11048 C 1055.81 1.15888 1.29792 0
M  V30 11049 O 1056.99 1.48329 1.36237 0
M  V30 11050 C 1054.05 2.76645 2.0897 0
M  V30 11051 C 1053.11 3.94244 1.69913 0
M  V30 11052 C 1052.35 4.49631 2.8752 0
M  V30 11053 O 1052.57 4.03926 4.02741 0
M  V30 11054 O 1051.5 5.40417 2.65015 0
M  V30 11055 H 1055.33 3.01519 0.363352 0
M  V30 11056 H 1052.91 1.4897 0.113329 0
M  V30 11057 H 1054.8 3.13755 2.81311 0
M  V30 11058 H 1053.47 1.96637 2.5713 0
M  V30 11059 H 1052.38 3.61915 0.947013 0
M  V30 11060 H 1053.71 4.75666 1.26501 0
M  V30 11061 N 1055.36 -0.161842 1.56767 0
M  V30 11062 C 1056.77 -0.723385 1.72116 0
M  V30 11063 C 1057.13 -1.82355 0.723961 0
M  V30 11064 O 1056.25 -2.16107 -0.112643 0
M  V30 11065 C 1056.85 -1.31895 3.12072 0
M  V30 11066 C 1055.4 -1.82722 3.29074 0
M  V30 11067 C 1054.55 -0.709863 2.6806 0
M  V30 11068 H 1057.5 0.0636647 1.58572 0
M  V30 11069 H 1057.52 -2.18871 3.11249 0
M  V30 11070 H 1057.04 -0.51801 3.84627 0
M  V30 11071 H 1055.14 -2.6543 2.61491 0
M  V30 11072 H 1055.25 -1.96614 4.36898 0
M  V30 11073 H 1053.61 -1.13273 2.28126 0
M  V30 11074 H 1054.4 0.0793884 3.43208 0
M  V30 11075 N 1056.84 -1.516 -0.430713 0
M  V30 11076 C 1058.26 -1.39923 -0.767706 0
M  V30 11077 C 1058.46 -0.486756 -1.95532 0
M  V30 11078 O 1057.51 0.0555965 -2.52439 0
M  V30 11079 C 1058.83 -2.82074 -1.04187 0
M  V30 11080 C 1060.37 -2.9127 -1.1459 0
M  V30 11081 C 1060.85 -4.34342 -1.45295 0
M  V30 11082 N 1062.34 -4.37479 -1.52206 0
M  V30 11083 C 1063.08 -5.45219 -1.77549 0
M  V30 11084 N 1062.57 -6.6311 -2.0064 0
M  V30 11085 N 1064.36 -5.32707 -1.79386 0
M  V30 11086 H 1056.52 -2.09474 0.351351 0
M  V30 11087 H 1058.78 -0.943247 0.0948151 0
M  V30 11088 H 1058.48 -3.50868 -0.241837 0
M  V30 11089 H 1058.36 -3.21805 -1.96777 0
M  V30 11090 H 1060.75 -2.2267 -1.93655 0
M  V30 11091 H 1060.83 -2.55026 -0.198854 0
M  V30 11092 H 1060.47 -5.03494 -0.667559 0
M  V30 11093 H 1060.4 -4.68105 -2.41217 0
M  V30 11094 H 1062.89 -3.52488 -1.36237 0
M  V30 11095 H 1063.2 -7.41012 -2.19366 0
M  V30 11096 H 1061.55 -6.66214 -1.97948 0
M  V30 11097 H 1064.74 -4.39589 -1.60869 0
M  V30 11098 H 1064.91 -6.16752 -1.98799 0
M  V30 11099 N 1058.32 0.686584 -1.41858 0
M  V30 11100 C 1059.28 1.78214 -1.44126 0
M  V30 11101 C 1060.28 1.57366 -0.330541 0
M  V30 11102 O 1061.47 1.63874 -0.590837 0
M  V30 11103 C 1058.6 3.16704 -1.26142 0
M  V30 11104 H 1059.8 1.77594 -2.41661 0
M  V30 11105 H 1057.35 0.895085 -1.28132 0
M  V30 11106 H 1058.09 3.22957 -0.294823 0
M  V30 11107 H 1057.87 3.33238 -2.06627 0
M  V30 11108 H 1059.36 3.96658 -1.30584 0
M  V30 11109 N 1059.8 1.27835 0.921735 0
M  V30 11110 C 1061.05 1.13904 1.6646 0
M  V30 11111 C 1061.36 -0.313379 1.93073 0
M  V30 11112 O 1062.57 -0.573687 2.6537 0
M  V30 11113 C 1061.02 1.99064 2.99836 0
M  V30 11114 C 1060.63 3.48998 2.80899 0
M  V30 11115 C 1062.37 1.93797 3.77681 0
M  V30 11116 C 1060.28 4.26337 4.09867 0
M  V30 11117 H 1059.21 0.422681 0.624385 0
M  V30 11118 H 1061.86 1.52303 1.02352 0
M  V30 11119 H 1060.24 1.53514 3.65034 0
M  V30 11120 H 1061.42 4.02452 2.24431 0
M  V30 11121 H 1059.73 3.55707 2.16476 0
M  V30 11122 H 1062.33 2.48852 4.73262 0
M  V30 11123 H 1062.67 0.912928 4.06167 0
M  V30 11124 H 1063.21 2.37275 3.19289 0
M  V30 11125 H 1059.94 5.2939 3.86557 0
M  V30 11126 H 1059.46 3.77659 4.65976 0
M  V30 11127 H 1061.14 4.3583 4.78185 0
M  V30 11128 N 1061.28 -1.12907 1.09954 0
M  V30 11129 C 1062.52 -1.84306 0.838912 0
M  V30 11130 C 1062.85 -1.83825 -0.635508 0
M  V30 11131 O 1062.11 -1.27556 -1.48418 0
M  V30 11132 C 1062.4 -3.31885 1.32616 0
M  V30 11133 C 1062.07 -3.52542 2.81114 0
M  V30 11134 C 1060.73 -3.57888 3.21667 0
M  V30 11135 C 1063.08 -3.60065 3.76833 0
M  V30 11136 C 1060.41 -3.68296 4.567 0
M  V30 11137 C 1062.76 -3.72001 5.11662 0
M  V30 11138 C 1061.43 -3.75602 5.51797 0
M  V30 11139 H 1060.7 -0.674422 0.30698 0
M  V30 11140 H 1063.35 -1.33261 1.37527 0
M  V30 11141 H 1061.65 -3.85318 0.709719 0
M  V30 11142 H 1063.35 -3.85588 1.10105 0
M  V30 11143 H 1059.94 -3.4904 2.48735 0
M  V30 11144 H 1064.12 -3.55209 3.46612 0
M  V30 11145 H 1059.38 -3.69352 4.87226 0
M  V30 11146 H 1063.55 -3.76765 5.8568 0
M  V30 11147 H 1061.18 -3.83419 6.56425 0
M  V30 11148 N 1062.75 -0.88754 -1.30232 0
M  V30 11149 C 1063.98 -0.521549 -1.99909 0
M  V30 11150 C 1064.39 0.895086 -1.66688 0
M  V30 11151 O 1063.73 1.60053 -0.90159 0
M  V30 11152 C 1063.8 -0.619564 -3.54121 0
M  V30 11153 C 1063.46 -2.00097 -4.10865 0
M  V30 11154 C 1064.46 -2.97068 -4.26669 0
M  V30 11155 C 1062.14 -2.30706 -4.46184 0
M  V30 11156 C 1064.14 -4.2278 -4.77007 0
M  V30 11157 C 1061.82 -3.56663 -4.96221 0
M  V30 11158 C 1062.82 -4.52515 -5.11585 0
M  V30 11159 O 1062.51 -5.76237 -5.60541 0
M  V30 11160 H 1062.24 -0.199904 -0.645766 0
M  V30 11161 H 1064.8 -1.19546 -1.67027 0
M  V30 11162 H 1063.03 0.111334 -3.8654 0
M  V30 11163 H 1064.71 -0.26448 -4.05037 0
M  V30 11164 H 1065.48 -2.74734 -3.99683 0
M  V30 11165 H 1061.36 -1.56865 -4.33491 0
M  V30 11166 H 1064.9 -4.97603 -4.88914 0
M  V30 11167 H 1060.8 -3.78834 -5.22643 0
M  V30 11168 H 1061.57 -5.78655 -5.78879 0
M  V30 11169 N 1064.23 1.43628 -0.648757 0
M  V30 11170 C 1065.46 2.06732 -0.166284 0
M  V30 11171 C 1065.88 1.48281 1.15734 0
M  V30 11172 O 1065.24 0.591018 1.71396 0
M  V30 11173 C 1065.29 3.60502 -0.0838732 0
M  V30 11174 O 1064.39 4.01186 0.955185 0
M  V30 11175 H 1063.73 0.657479 -0.0928285 0
M  V30 11176 H 1066.26 1.84208 -0.890421 0
M  V30 11177 H 1066.27 4.07875 0.100923 0
M  V30 11178 H 1064.95 4.02424 -1.05014 0
M  V30 11179 H 1063.53 3.65412 0.743537 0
M  V30 11180 N 1065.71 0.390394 1.52688 0
M  V30 11181 C 1066.67 -0.432149 2.25089 0
M  V30 11182 C 1067.67 -0.989296 1.26766 0
M  V30 11183 O 1068.86 -0.871126 1.50854 0
M  V30 11184 C 1066 -1.60642 3.00678 0
M  V30 11185 H 1067.19 0.201734 2.99221 0
M  V30 11186 H 1064.74 0.142531 1.55649 0
M  V30 11187 H 1065.48 -2.2777 2.3085 0
M  V30 11188 H 1065.26 -1.21361 3.72846 0
M  V30 11189 H 1066.75 -2.18873 3.55647 0
M  V30 11190 N 1067.19 -1.57141 0.120249 0
M  V30 11191 C 1068.43 -1.97124 -0.540521 0
M  V30 11192 C 1068.79 -1.0022 -1.63768 0
M  V30 11193 O 1069.99 -1.29146 -2.35743 0
M  V30 11194 C 1068.26 -3.41371 -1.05833 0
M  V30 11195 S 1069.82 -4.03367 -1.72745 0
M  V30 11196 H 1066.64 -0.688962 -0.175646 0
M  V30 11197 H 1069.24 -1.94416 0.205625 0
M  V30 11198 H 1067.95 -4.09646 -0.248656 0
M  V30 11199 H 1067.48 -3.47732 -1.83972 0
M  V30 11200 H 1069.49 -3.94227 -3.0133 0
M  V30 11201 N 1068.67 0.153526 -1.5685 0
M  V30 11202 C 1069.91 0.868517 -1.83261 0
M  V30 11203 C 1070.25 1.81112 -0.700857 0
M  V30 11204 O 1069.52 1.92235 0.295989 0
M  V30 11205 C 1069.8 1.6487 -3.2014 0
M  V30 11206 C 1069.66 0.728021 -4.43869 0
M  V30 11207 C 1070.98 2.61259 -3.54163 0
M  V30 11208 H 1068.09 0.314297 -0.666623 0
M  V30 11209 H 1070.74 0.133971 -1.89527 0
M  V30 11210 H 1068.89 2.2749 -3.1493 0
M  V30 11211 H 1070.56 0.113328 -4.61161 0
M  V30 11212 H 1068.8 0.0371744 -4.33784 0
M  V30 11213 H 1069.47 1.30981 -5.36235 0
M  V30 11214 H 1071.95 2.0876 -3.59942 0
M  V30 11215 H 1070.82 3.12902 -4.50981 0
M  V30 11216 H 1071.09 3.42307 -2.79782 0
M  V30 11217 N 1070.14 1.51827 0.422667 0
M  V30 11218 C 1071.39 1.65464 1.17258 0
M  V30 11219 C 1071.72 0.376834 1.90509 0
M  V30 11220 O 1071 -0.624219 1.84211 0
M  V30 11221 C 1071.28 2.86776 2.17788 0
M  V30 11222 C 1071.13 4.24571 1.48523 0
M  V30 11223 C 1072.45 3.03603 3.18611 0
M  V30 11224 H 1069.57 0.602169 0.424925 0
M  V30 11225 H 1072.21 1.84349 0.45996 0
M  V30 11226 H 1070.36 2.70806 2.78561 0
M  V30 11227 H 1072.04 4.5224 0.909739 0
M  V30 11228 H 1070.28 4.26595 0.787354 0
M  V30 11229 H 1070.95 5.05475 2.2181 0
M  V30 11230 H 1073.43 3.18381 2.67904 0
M  V30 11231 H 1072.3 3.90022 3.8623 0
M  V30 11232 H 1072.56 2.16318 3.85563 0
M  V30 11233 N 1071.62 -0.679052 1.4222 0
M  V30 11234 C 1072.55 -1.80481 1.48152 0
M  V30 11235 C 1073.53 -1.66698 0.338502 0
M  V30 11236 O 1074.72 -1.86183 0.552228 0
M  V30 11237 C 1071.85 -3.18746 1.37908 0
M  V30 11238 C 1070.8 -3.47258 2.50192 0
M  V30 11239 C 1070.13 -4.85052 2.25008 0
M  V30 11240 C 1071.43 -3.44576 3.92511 0
M  V30 11241 H 1073.12 -1.75774 2.42371 0
M  V30 11242 H 1070.67 -0.844241 1.16656 0
M  V30 11243 H 1072.62 -3.97229 1.40666 0
M  V30 11244 H 1071.35 -3.24119 0.401806 0
M  V30 11245 H 1070 -2.71133 2.46744 0
M  V30 11246 H 1069.65 -4.8707 1.25584 0
M  V30 11247 H 1069.35 -5.05092 3.00259 0
M  V30 11248 H 1070.88 -5.65825 2.29508 0
M  V30 11249 H 1072.29 -4.13036 3.97585 0
M  V30 11250 H 1070.69 -3.76151 4.67579 0
M  V30 11251 H 1071.76 -2.4323 4.19484 0
M  V30 11252 N 1073.1 -1.28322 -0.914942 0
M  V30 11253 C 1074.35 -1.15179 -1.66067 0
M  V30 11254 C 1074.67 0.300279 -1.92674 0
M  V30 11255 O 1073.94 1.20821 -1.54205 0
M  V30 11256 H 1072.52 -0.423264 -0.615513 0
M  V30 11257 H 1075.18 -1.61034 -1.09791 0
M  V30 11258 H 1074.28 -1.69048 -2.62353 0
M  V30 11259 N 1074.58 1.12322 -1.10551 0
M  V30 11260 C 1075.51 2.20176 -0.777486 0
M  V30 11261 C 1076.49 1.68252 0.250069 0
M  V30 11262 O 1077.67 1.93856 0.115574 0
M  V30 11263 C 1074.8 3.46666 -0.209822 0
M  V30 11264 C 1073.76 4.11749 -1.1682 0
M  V30 11265 C 1073.08 5.32703 -0.461684 0
M  V30 11266 C 1074.38 4.57746 -2.51527 0
M  V30 11267 H 1076.08 2.47872 -1.67928 0
M  V30 11268 H 1073.62 1.19136 -0.808863 0
M  V30 11269 H 1075.58 4.21388 0.0318068 0
M  V30 11270 H 1074.3 3.18401 0.727226 0
M  V30 11271 H 1072.96 3.39009 -1.3953 0
M  V30 11272 H 1072.61 5.00706 0.479875 0
M  V30 11273 H 1072.31 5.77197 -1.1008 0
M  V30 11274 H 1073.83 6.10172 -0.228629 0
M  V30 11275 H 1075.25 5.23835 -2.32958 0
M  V30 11276 H 1073.64 5.13021 -3.11335 0
M  V30 11277 H 1074.71 3.71667 -3.11435 0
M  V30 11278 N 1076.06 0.894434 1.2976 0
M  V30 11279 C 1076.99 0.325525 2.26877 0
M  V30 11280 C 1078 -0.525218 1.54095 0
M  V30 11281 O 1079.19 -0.343231 1.75169 0
M  V30 11282 C 1076.29 -0.554952 3.34325 0
M  V30 11283 C 1075.46 0.268868 4.36573 0
M  V30 11284 C 1074.52 -0.543601 5.23385 0
M  V30 11285 O 1073.55 0.0370454 5.69188 0
M  V30 11286 N 1074.75 -1.85079 5.50205 0
M  V30 11287 H 1077.52 1.16021 2.76332 0
M  V30 11288 H 1075.08 0.758382 1.43039 0
M  V30 11289 H 1077.07 -1.10476 3.89329 0
M  V30 11290 H 1075.64 -1.29031 2.84727 0
M  V30 11291 H 1074.86 1.0001 3.81302 0
M  V30 11292 H 1076.15 0.833248 5.01931 0
M  V30 11293 H 1075.54 -2.34533 5.14792 0
M  V30 11294 H 1074.1 -2.34784 6.08046 0
M  V30 11295 N 1077.53 -1.43282 0.656365 0
M  V30 11296 C 1078.78 -2.01776 0.171039 0
M  V30 11297 C 1079.11 -1.51795 -1.21609 0
M  V30 11298 O 1078.36 -0.702864 -1.82643 0
M  V30 11299 C 1078.66 -3.57148 0.134225 0
M  V30 11300 C 1078.33 -4.26488 1.46352 0
M  V30 11301 C 1076.99 -4.45146 1.82753 0
M  V30 11302 C 1079.34 -4.65728 2.33981 0
M  V30 11303 C 1076.67 -5.0031 3.06443 0
M  V30 11304 C 1079.02 -5.22263 3.56966 0
M  V30 11305 C 1077.69 -5.39136 3.93559 0
M  V30 11306 H 1076.96 -0.738352 0.0625878 0
M  V30 11307 H 1079.6 -1.71716 0.847697 0
M  V30 11308 H 1077.91 -3.86768 -0.625892 0
M  V30 11309 H 1079.61 -4.00168 -0.258207 0
M  V30 11310 H 1076.2 -4.12313 1.1703 0
M  V30 11311 H 1080.38 -4.51003 2.07148 0
M  V30 11312 H 1075.64 -5.11559 3.34839 0
M  V30 11313 H 1079.81 -5.51614 4.25082 0
M  V30 11314 H 1077.44 -5.81646 4.89481 0
M  V30 11315 N 1079.01 -0.398486 -1.52479 0
M  V30 11316 C 1079.94 0.423498 -2.29627 0
M  V30 11317 C 1080.92 1.05547 -1.33394 0
M  V30 11318 O 1082.11 1.0665 -1.62294 0
M  V30 11319 C 1079.24 1.54612 -3.10986 0
M  V30 11320 C 1078.19 1.03971 -4.15179 0
M  V30 11321 C 1077.52 2.25512 -4.84818 0
M  V30 11322 C 1078.82 0.10121 -5.22202 0
M  V30 11323 H 1080.51 -0.220222 -2.98589 0
M  V30 11324 H 1078.06 -0.107355 -1.43599 0
M  V30 11325 H 1080.01 2.12806 -3.63719 0
M  V30 11326 H 1078.74 2.21756 -2.39774 0
M  V30 11327 H 1077.4 0.480251 -3.63441 0
M  V30 11328 H 1077.04 2.91187 -4.10145 0
M  V30 11329 H 1076.74 1.92285 -5.55248 0
M  V30 11330 H 1078.27 2.84331 -5.40359 0
M  V30 11331 H 1079.68 0.591617 -5.70239 0
M  V30 11332 H 1078.08 -0.141737 -5.99933 0
M  V30 11333 H 1079.15 -0.847216 -4.77441 0
M  V30 11334 N 1080.49 1.57075 -0.12858 0
M  V30 11335 C 1081.44 2.12379 0.829418 0
M  V30 11336 C 1082.43 1.04694 1.2218 0
M  V30 11337 O 1083.62 1.30909 1.1913 0
M  V30 11338 C 1080.75 2.73436 2.07575 0
M  V30 11339 C 1079.83 3.88217 1.7073 0
M  V30 11340 N 1080.22 4.94864 1.04609 0
M  V30 11341 C 1078.52 3.9858 2.00125 0
M  V30 11342 C 1079.22 5.7514 0.871137 0
M  V30 11343 N 1078.2 5.25284 1.39918 0
M  V30 11344 H 1082 2.92209 0.314816 0
M  V30 11345 H 1079.51 1.62233 0.0735788 0
M  V30 11346 H 1081.51 3.11406 2.77185 0
M  V30 11347 H 1080.17 1.95073 2.5957 0
M  V30 11348 H 1081.18 5.13025 0.708961 0
M  V30 11349 H 1077.86 3.3127 2.541 0
M  V30 11350 H 1079.25 6.7098 0.351395 0
M  V30 11351 N 1081.97 -0.145205 1.5693 0
M  V30 11352 C 1082.88 -1.19864 2.01667 0
M  V30 11353 C 1083.9 -1.46909 0.932402 0
M  V30 11354 O 1085.07 -1.58543 1.24201 0
M  V30 11355 C 1082.14 -2.51174 2.38982 0
M  V30 11356 C 1081.2 -2.3176 3.61366 0
M  V30 11357 C 1080.43 -3.56809 3.96892 0
M  V30 11358 O 1080.65 -4.63063 3.33059 0
M  V30 11359 O 1079.59 -3.49366 4.9013 0
M  V30 11360 H 1083.41 -0.848821 2.91597 0
M  V30 11361 H 1081 -0.354063 1.45144 0
M  V30 11362 H 1082.88 -3.28587 2.63835 0
M  V30 11363 H 1081.56 -2.85683 1.52207 0
M  V30 11364 H 1080.46 -1.52293 3.41698 0
M  V30 11365 H 1081.8 -2.02167 4.48764 0
M  V30 11366 N 1083.45 -1.52049 -0.414609 0
M  V30 11367 C 1084.4 -1.7138 -1.50376 0
M  V30 11368 C 1085.38 -0.567692 -1.50553 0
M  V30 11369 O 1086.57 -0.824541 -1.56622 0
M  V30 11370 C 1083.7 -1.86291 -2.88358 0
M  V30 11371 C 1082.79 -3.06757 -2.9285 0
M  V30 11372 N 1083.18 -4.29557 -2.67048 0
M  V30 11373 C 1081.48 -3.06478 -3.24018 0
M  V30 11374 C 1082.18 -5.10988 -2.77968 0
M  V30 11375 N 1081.15 -4.46117 -3.10613 0
M  V30 11376 H 1084.96 -2.63972 -1.29213 0
M  V30 11377 H 1082.47 -1.50006 -0.622244 0
M  V30 11378 H 1084.47 -1.98256 -3.66743 0
M  V30 11379 H 1083.13 -0.948959 -3.10524 0
M  V30 11380 H 1084.14 -4.58122 -2.41546 0
M  V30 11381 H 1080.82 -2.24799 -3.51812 0
M  V30 11382 H 1082.21 -6.18806 -2.6178 0
M  V30 11383 N 1084.93 0.6715 -1.42579 0
M  V30 11384 C 1085.87 1.78496 -1.46314 0
M  V30 11385 C 1086.84 1.63091 -0.314743 0
M  V30 11386 O 1088.03 1.83597 -0.519292 0
M  V30 11387 C 1085.17 3.16548 -1.37447 0
M  V30 11388 C 1084.28 3.43216 -2.62348 0
M  V30 11389 C 1083.42 4.71014 -2.456 0
M  V30 11390 C 1082.45 4.90728 -3.65859 0
M  V30 11391 N 1081.59 6.09769 -3.48032 0
M  V30 11392 H 1086.43 1.74638 -2.41466 0
M  V30 11393 H 1083.97 0.852491 -1.19879 0
M  V30 11394 H 1085.93 3.96329 -1.30303 0
M  V30 11395 H 1084.56 3.19522 -0.458891 0
M  V30 11396 H 1083.61 2.57664 -2.79846 0
M  V30 11397 H 1084.92 3.53675 -3.51732 0
M  V30 11398 H 1084.07 5.58892 -2.3606 0
M  V30 11399 H 1082.81 4.62843 -1.53712 0
M  V30 11400 H 1081.82 4.01291 -3.75827 0
M  V30 11401 H 1083.04 5.00741 -4.58732 0
M  V30 11402 H 1080.99 6.02765 -2.58864 0
M  V30 11403 H 1080.91 6.21104 -4.31005 0
M  V30 11404 H 1082.17 7.00317 -3.42311 0
M  V30 11405 N 1086.4 1.28806 0.908124 0
M  V30 11406 C 1087.65 1.15663 1.65242 0
M  V30 11407 C 1087.97 -0.292883 1.93395 0
M  V30 11408 O 1089.17 -0.545509 2.65963 0
M  V30 11409 C 1087.63 2.02233 2.97707 0
M  V30 11410 C 1087.24 3.51958 2.77181 0
M  V30 11411 C 1088.98 1.97792 3.75604 0
M  V30 11412 C 1086.89 4.3066 4.05322 0
M  V30 11413 H 1085.82 0.42928 0.619867 0
M  V30 11414 H 1088.47 1.5338 1.00731 0
M  V30 11415 H 1086.85 1.57377 3.63385 0
M  V30 11416 H 1088.02 4.0481 2.20149 0
M  V30 11417 H 1086.34 3.57983 2.12691 0
M  V30 11418 H 1088.94 2.53858 4.70596 0
M  V30 11419 H 1089.28 0.955956 4.05175 0
M  V30 11420 H 1089.81 2.40648 3.16755 0
M  V30 11421 H 1086.55 5.3346 3.8092 0
M  V30 11422 H 1086.07 3.8258 4.61944 0
M  V30 11423 H 1087.75 4.40878 4.73535 0
M  V30 11424 N 1087.88 -1.11734 1.11145 0
M  V30 11425 C 1089.13 -1.83677 0.859684 0
M  V30 11426 C 1089.46 -1.84265 -0.613182 0
M  V30 11427 O 1088.74 -1.29351 -1.45254 0
M  V30 11428 C 1089.02 -3.31003 1.41805 0
M  V30 11429 C 1088.87 -3.38827 2.95831 0
M  V30 11430 C 1090.19 -4.26984 1.06645 0
M  V30 11431 H 1087.31 -0.666879 0.313754 0
M  V30 11432 H 1089.95 -1.31038 1.37583 0
M  V30 11433 H 1088.1 -3.75961 0.979054 0
M  V30 11434 H 1089.77 -3.02451 3.48312 0
M  V30 11435 H 1088.02 -2.79143 3.32056 0
M  V30 11436 H 1088.69 -4.42508 3.29986 0
M  V30 11437 H 1091.16 -3.9019 1.44537 0
M  V30 11438 H 1090.04 -5.2846 1.48394 0
M  V30 11439 H 1090.3 -4.42094 -0.0231866 0
M  V30 11440 N 1089.36 -0.901303 -1.29284 0
M  V30 11441 C 1090.59 -0.542723 -1.99344 0
M  V30 11442 C 1091 0.877357 -1.67628 0
M  V30 11443 O 1090.34 1.59088 -0.918515 0
M  V30 11444 C 1090.4 -0.657088 -3.53444 0
M  V30 11445 C 1090.07 -2.04444 -4.0872 0
M  V30 11446 C 1091.06 -3.01577 -4.23494 0
M  V30 11447 C 1088.75 -2.35425 -4.43712 0
M  V30 11448 C 1090.74 -4.27816 -4.72496 0
M  V30 11449 C 1088.43 -3.61906 -4.9241 0
M  V30 11450 C 1089.43 -4.57916 -5.06757 0
M  V30 11451 O 1089.12 -5.8215 -5.54397 0
M  V30 11452 H 1088.85 -0.206742 -0.64361 0
M  V30 11453 H 1091.4 -1.21311 -1.65749 0
M  V30 11454 H 1089.63 0.0703305 -3.86636 0
M  V30 11455 H 1091.32 -0.307425 -4.04734 0
M  V30 11456 H 1092.09 -2.78957 -3.96747 0
M  V30 11457 H 1087.97 -1.61454 -4.31803 0
M  V30 11458 H 1091.51 -5.0276 -4.83609 0
M  V30 11459 H 1087.41 -3.84356 -5.18595 0
M  V30 11460 H 1088.17 -5.84762 -5.72709 0
M  V30 11461 N 1090.84 1.42931 -0.663954 0
M  V30 11462 C 1092.25 1.56098 -0.332496 0
M  V30 11463 C 1092.45 1.64564 1.16279 0
M  V30 11464 O 1091.51 1.6066 1.94794 0
M  V30 11465 C 1092.82 2.81649 -1.05329 0
M  V30 11466 C 1094.37 2.95408 -1.03457 0
M  V30 11467 C 1094.85 4.23805 -1.73647 0
M  V30 11468 N 1096.34 4.30693 -1.70462 0
M  V30 11469 C 1097.07 5.28833 -2.21637 0
M  V30 11470 N 1096.57 6.33189 -2.81147 0
M  V30 11471 N 1098.36 5.20558 -2.12075 0
M  V30 11472 H 1090.51 1.3568 -1.63416 0
M  V30 11473 H 1092.77 0.652361 -0.687844 0
M  V30 11474 H 1092.48 2.81494 -2.10842 0
M  V30 11475 H 1092.35 3.72208 -0.611626 0
M  V30 11476 H 1094.74 2.95097 0.0121936 0
M  V30 11477 H 1094.82 2.06109 -1.51502 0
M  V30 11478 H 1094.47 4.24876 -2.78285 0
M  V30 11479 H 1094.4 5.12019 -1.2306 0
M  V30 11480 H 1096.89 3.55904 -1.27046 0
M  V30 11481 H 1097.2 7.04411 -3.17844 0
M  V30 11482 H 1095.55 6.33781 -2.85212 0
M  V30 11483 H 1098.74 4.3795 -1.6528 0
M  V30 11484 H 1098.91 5.96881 -2.52264 0
M  V30 11485 N 1092.32 0.406567 1.52266 0
M  V30 11486 C 1093.59 -0.228477 1.94261 0
M  V30 11487 C 1093.97 -1.62848 1.34328 0
M  V30 11488 O 1093.32 -2.22549 0.518082 0
M  V30 11489 C 1093.53 -0.237401 3.48192 0
M  V30 11490 C 1094.88 -0.457997 4.22123 0
M  V30 11491 O 1095.9 -0.316868 3.54788 0
M  V30 11492 O 1094.76 -0.735946 5.41522 0
M  V30 11493 H 1091.86 -0.146492 0.813922 0
M  V30 11494 H 1094.4 0.462325 1.63281 0
M  V30 11495 H 1093.17 0.742556 3.8419 0
M  V30 11496 H 1092.8 -0.972408 3.85526 0
M  V30 11497 N 1093.79 -1.57004 0.136909 0
M  V30 11498 C 1094.72 -2.19262 -0.802902 0
M  V30 11499 C 1095.71 -1.13786 -1.26439 0
M  V30 11500 O 1096.89 -1.42091 -1.32377 0
M  V30 11501 C 1094.02 -2.80624 -2.04615 0
M  V30 11502 C 1092.97 -3.91839 -1.72181 0
M  V30 11503 C 1092.3 -4.4009 -3.03686 0
M  V30 11504 C 1093.6 -5.13095 -0.976249 0
M  V30 11505 H 1095.29 -2.98049 -0.28406 0
M  V30 11506 H 1092.84 -1.43364 -0.135189 0
M  V30 11507 H 1094.79 -3.22842 -2.70834 0
M  V30 11508 H 1093.52 -1.99153 -2.58855 0
M  V30 11509 H 1092.18 -3.50224 -1.08344 0
M  V30 11510 H 1091.82 -3.55454 -3.55896 0
M  V30 11511 H 1091.52 -5.15098 -2.82751 0
M  V30 11512 H 1093.05 -4.84971 -3.70993 0
M  V30 11513 H 1094.46 -5.5222 -1.54033 0
M  V30 11514 H 1092.86 -5.93801 -0.867214 0
M  V30 11515 H 1093.93 -4.84888 0.0338488 0
M  V30 11516 N 1095.27 0.136881 -1.57004 0
M  V30 11517 C 1096.22 1.16869 -1.99023 0
M  V30 11518 C 1097.19 1.42137 -0.859435 0
M  V30 11519 O 1098.37 1.54303 -1.12229 0
M  V30 11520 C 1095.51 2.49466 -2.38455 0
M  V30 11521 C 1094.63 2.31286 -3.64871 0
M  V30 11522 C 1093.76 3.56989 -3.9336 0
M  V30 11523 C 1092.8 3.33889 -5.13015 0
M  V30 11524 N 1091.94 4.51748 -5.37464 0
M  V30 11525 H 1096.78 0.803366 -2.86967 0
M  V30 11526 H 1094.32 0.385216 -1.41967 0
M  V30 11527 H 1096.27 3.26794 -2.59348 0
M  V30 11528 H 1094.9 2.83926 -1.53577 0
M  V30 11529 H 1093.96 1.44962 -3.51696 0
M  V30 11530 H 1095.27 2.10183 -4.52355 0
M  V30 11531 H 1094.42 4.42742 -4.14806 0
M  V30 11532 H 1093.16 3.81106 -3.04318 0
M  V30 11533 H 1092.17 2.46525 -4.91432 0
M  V30 11534 H 1093.39 3.1116 -6.03619 0
M  V30 11535 H 1091.34 4.76019 -4.51377 0
M  V30 11536 H 1091.25 4.33684 -6.19237 0
M  V30 11537 H 1092.52 5.38686 -5.63416 0
M  V30 11538 N 1096.75 1.52266 0.40654 0
M  V30 11539 C 1097.68 1.78755 1.50229 0
M  V30 11540 C 1098.66 0.638652 1.57655 0
M  V30 11541 O 1099.85 0.884505 1.72888 0
M  V30 11542 C 1096.98 1.94057 2.88026 0
M  V30 11543 C 1095.93 3.09667 2.95449 0
M  V30 11544 C 1095.26 3.10196 4.35526 0
M  V30 11545 C 1096.56 4.49077 2.66697 0
M  V30 11546 H 1098.25 2.70511 1.28313 0
M  V30 11547 H 1095.8 1.30167 0.615836 0
M  V30 11548 H 1097.75 2.11171 3.64671 0
M  V30 11549 H 1096.47 0.989755 3.11242 0
M  V30 11550 H 1095.13 2.92308 2.2125 0
M  V30 11551 H 1094.78 2.12831 4.55754 0
M  V30 11552 H 1094.48 3.87847 4.41416 0
M  V30 11553 H 1096 3.29443 5.14101 0
M  V30 11554 H 1097.42 4.66628 3.33064 0
M  V30 11555 H 1095.82 5.28665 2.8396 0
M  V30 11556 H 1096.89 4.56995 1.62122 0
M  V30 11557 N 1098.23 -0.663929 1.42933 0
M  V30 11558 C 1099.51 -1.42054 1.34462 0
M  V30 11559 C 1099.89 -2.11096 -0.0127801 0
M  V30 11560 O 1099.23 -2.04027 -1.02884 0
M  V30 11561 C 1099.44 -2.41406 2.5204 0
M  V30 11562 C 1100.79 -3.05726 2.94647 0
M  V30 11563 O 1101.82 -2.51733 2.52009 0
M  V30 11564 O 1100.67 -4.03593 3.68477 0
M  V30 11565 H 1097.77 -0.634149 0.530834 0
M  V30 11566 H 1100.31 -0.691738 1.54962 0
M  V30 11567 H 1099.09 -1.89263 3.42484 0
M  V30 11568 H 1098.71 -3.21752 2.33584 0
M  V30 11569 N 1099.71 -1.29285 -0.901281 0
M  V30 11570 C 1100.65 -1.14159 -2.02659 0
M  V30 11571 C 1101.65 -0.0575887 -1.69302 0
M  V30 11572 O 1102.85 -0.217273 -1.78684 0
M  V30 11573 H 1099.23 -0.352584 -0.66422 0
M  V30 11574 H 1101.2 -2.09434 -2.12555 0
M  V30 11575 C 1099.95 -0.833253 -3.37568 0
M  V30 11576 H 1099.27 -1.65939 -3.63737 0
M  V30 11577 H 1100.71 -0.767436 -4.16997 0
M  V30 11578 C 1099.17 0.46344 -3.33697 0
M  V30 11579 O 1099.7 1.48998 -3.73045 0
M  V30 11580 N 1097.91 0.468709 -2.86795 0
M  V30 11581 H 1097.45 -0.36712 -2.54971 0
M  V30 11582 H 1097.41 1.3363 -2.84588 0
M  V30 11583 N 1101.18 1.11143 -1.11736 0
M  V30 11584 C 1102.11 2.19339 -0.800795 0
M  V30 11585 C 1103.1 1.68508 0.23221 0
M  V30 11586 O 1104.28 1.93967 0.0950063 0
M  V30 11587 C 1101.41 3.46424 -0.246579 0
M  V30 11588 C 1100.36 4.10487 -1.21181 0
M  V30 11589 C 1099.69 5.32183 -0.518158 0
M  V30 11590 C 1100.99 4.55052 -2.56368 0
M  V30 11591 H 1102.68 2.46077 -1.70548 0
M  V30 11592 H 1100.23 1.18271 -0.821454 0
M  V30 11593 H 1102.18 4.21398 -0.0128889 0
M  V30 11594 H 1100.91 3.19154 0.693415 0
M  V30 11595 H 1099.57 3.3751 -1.43118 0
M  V30 11596 H 1099.21 5.01187 0.426742 0
M  V30 11597 H 1098.91 5.75997 -1.16196 0
M  V30 11598 H 1100.44 6.09895 -0.293333 0
M  V30 11599 H 1101.85 5.21335 -2.38501 0
M  V30 11600 H 1100.25 5.0969 -3.16758 0
M  V30 11601 H 1101.32 3.68343 -3.1536 0
M  V30 11602 N 1102.66 0.908147 1.28804 0
M  V30 11603 C 1103.59 0.409106 2.29888 0
M  V30 11604 C 1104.57 -0.520338 1.61946 0
M  V30 11605 O 1105.76 -0.429268 1.89396 0
M  V30 11606 C 1102.89 -0.35669 3.45463 0
M  V30 11607 C 1101.84 0.4831 4.25265 0
M  V30 11608 C 1101.17 -0.4107 5.3312 0
M  V30 11609 C 1102.47 1.73744 4.92555 0
M  V30 11610 H 1104.16 1.25386 2.7188 0
M  V30 11611 H 1101.71 0.604368 1.30703 0
M  V30 11612 H 1103.66 -0.71661 4.15262 0
M  V30 11613 H 1102.39 -1.2353 3.02337 0
M  V30 11614 H 1101.04 0.825464 3.57186 0
M  V30 11615 H 1100.69 -1.28769 4.86238 0
M  V30 11616 H 1100.39 0.14756 5.87415 0
M  V30 11617 H 1101.92 -0.766626 6.05768 0
M  V30 11618 H 1103.33 1.44676 5.54745 0
M  V30 11619 H 1101.73 2.23767 5.5682 0
M  V30 11620 H 1102.8 2.46853 4.17363 0
M  V30 11621 N 1104.14 -1.42577 0.671525 0
M  V30 11622 C 1105.07 -2.33499 0.00506984 0
M  V30 11623 C 1106.05 -1.50497 -0.792763 0
M  V30 11624 O 1107.24 -1.79109 -0.750574 0
M  V30 11625 C 1104.37 -3.34077 -0.949194 0
M  V30 11626 C 1103.32 -4.27208 -0.260187 0
M  V30 11627 C 1102.65 -5.17968 -1.32716 0
M  V30 11628 C 1103.95 -5.15192 0.858772 0
M  V30 11629 H 1105.64 -2.89477 0.764407 0
M  V30 11630 H 1103.19 -1.39191 0.369043 0
M  V30 11631 H 1105.14 -3.96594 -1.42448 0
M  V30 11632 H 1103.86 -2.76396 -1.73991 0
M  V30 11633 H 1102.52 -3.66082 0.194834 0
M  V30 11634 H 1102.17 -4.56615 -2.10979 0
M  V30 11635 H 1101.87 -5.81104 -0.871293 0
M  V30 11636 H 1103.39 -5.83359 -1.80345 0
M  V30 11637 H 1104.81 -5.71412 0.464844 0
M  V30 11638 H 1103.21 -5.87144 1.24023 0
M  V30 11639 H 1104.28 -4.53787 1.70895 0
M  V30 11640 N 1105.62 -0.414636 -1.52048 0
M  V30 11641 C 1106.9 0.218172 -1.94379 0
M  V30 11642 C 1107.28 1.62133 -1.35189 0
M  V30 11643 O 1106.62 2.22271 -0.529877 0
M  V30 11644 C 1106.83 0.218932 -3.48313 0
M  V30 11645 C 1108.18 0.435604 -4.2236 0
M  V30 11646 O 1109.21 0.298049 -3.54951 0
M  V30 11647 O 1108.06 0.707217 -5.41905 0
M  V30 11648 H 1105.16 0.142173 -0.814688 0
M  V30 11649 H 1107.7 -0.470977 -1.63033 0
M  V30 11650 H 1106.48 -0.76292 -3.83791 0
M  V30 11651 H 1106.1 0.951949 -3.86036 0
M  V30 11652 N 1107.1 1.56929 -0.145233 0
M  V30 11653 C 1108.32 2.00431 0.513314 0
M  V30 11654 C 1108.74 1.0253 1.58534 0
M  V30 11655 O 1108.1 0.0220459 1.82487 0
M  V30 11656 C 1108.15 3.43856 1.11557 0
M  V30 11657 O 1107.87 4.38015 0.0863707 0
M  V30 11658 C 1109.37 4.02627 1.8549 0
M  V30 11659 H 1106.59 0.657529 0.133778 0
M  V30 11660 H 1109.13 2.03095 -0.239296 0
M  V30 11661 H 1107.29 3.4205 1.81881 0
M  V30 11662 H 1107.7 5.21842 0.527363 0
M  V30 11663 H 1109.18 5.04985 2.22923 0
M  V30 11664 H 1109.65 3.43239 2.74014 0
M  V30 11665 H 1110.26 4.08058 1.19869 0
M  V30 11666 N 1108.58 -0.128553 1.57075 0
M  V30 11667 C 1109.49 -1.17718 2.02927 0
M  V30 11668 C 1110.5 -1.45912 0.947932 0
M  V30 11669 O 1111.68 -1.57217 1.25876 0
M  V30 11670 C 1108.74 -2.48625 2.41633 0
M  V30 11671 C 1107.8 -2.27914 3.63804 0
M  V30 11672 C 1107.04 -3.52579 4.00654 0
M  V30 11673 O 1107.26 -4.59505 3.37952 0
M  V30 11674 O 1106.19 -3.44147 4.93808 0
M  V30 11675 H 1110.02 -0.817846 2.92481 0
M  V30 11676 H 1107.6 -0.338649 1.45511 0
M  V30 11677 H 1109.49 -3.2577 2.67305 0
M  V30 11678 H 1108.16 -2.84052 1.55229 0
M  V30 11679 H 1107.07 -1.4866 3.43294 0
M  V30 11680 H 1108.4 -1.97395 4.50883 0
M  V30 11681 N 1110.05 -1.5248 -0.398459 0
M  V30 11682 C 1111.3 -1.66731 -1.14215 0
M  V30 11683 C 1111.62 -0.404957 -1.90749 0
M  V30 11684 O 1110.89 0.580434 -1.87104 0
M  V30 11685 H 1109.47 -0.614577 -0.424622 0
M  V30 11686 H 1112.13 -1.89561 -0.453059 0
M  V30 11687 H 1111.23 -2.51336 -1.85031 0
M  V30 11688 N 1111.53 0.65634 -1.43283 0
M  V30 11689 C 1112.76 1.44199 -1.47954 0
M  V30 11690 C 1113.17 1.88961 -0.0950315 0
M  V30 11691 O 1112.51 1.59895 0.904388 0
M  V30 11692 C 1112.57 2.71161 -2.36033 0
M  V30 11693 C 1112.24 2.48359 -3.83623 0
M  V30 11694 C 1113.24 2.1178 -4.74811 0
M  V30 11695 C 1110.92 2.6278 -4.28079 0
M  V30 11696 C 1112.91 1.89915 -6.0845 0
M  V30 11697 C 1110.6 2.4053 -5.61772 0
M  V30 11698 C 1111.6 2.04154 -6.51775 0
M  V30 11699 O 1111.29 1.82134 -7.82996 0
M  V30 11700 H 1111.02 0.449567 -0.504842 0
M  V30 11701 H 1113.57 0.812234 -1.88658 0
M  V30 11702 H 1111.8 3.36685 -1.9021 0
M  V30 11703 H 1113.49 3.33102 -2.31944 0
M  V30 11704 H 1114.26 2.00217 -4.41744 0
M  V30 11705 H 1110.14 2.9007 -3.58302 0
M  V30 11706 H 1113.68 1.61445 -6.78661 0
M  V30 11707 H 1109.58 2.51695 -5.94407 0
M  V30 11708 H 1110.35 1.96584 -7.94542 0
M  V30 11709 N 1113.01 1.29761 0.894412 0
M  V30 11710 C 1114.26 1.18214 1.64782 0
M  V30 11711 C 1114.59 -0.264635 1.92388 0
M  V30 11712 O 1113.86 -1.19051 1.53809 0
M  V30 11713 C 1114.15 2.00138 2.99361 0
M  V30 11714 C 1114 3.52984 2.78787 0
M  V30 11715 C 1115.32 1.83187 4.00163 0
M  V30 11716 H 1112.44 0.430802 0.597979 0
M  V30 11717 H 1115.08 1.59292 1.03566 0
M  V30 11718 H 1113.23 1.65233 3.51611 0
M  V30 11719 H 1114.9 3.97898 2.33398 0
M  V30 11720 H 1113.14 3.77642 2.13469 0
M  V30 11721 H 1113.82 4.05585 3.7444 0
M  V30 11722 H 1116.29 2.13684 3.57041 0
M  V30 11723 H 1115.17 2.42849 4.92255 0
M  V30 11724 H 1115.43 0.788469 4.35012 0
M  V30 11725 N 1114.49 -1.10549 1.12324 0
M  V30 11726 C 1115.43 -2.16858 0.790024 0
M  V30 11727 C 1116.4 -1.64317 -0.242694 0
M  V30 11728 O 1117.59 -1.90438 -0.117531 0
M  V30 11729 C 1114.73 -3.44197 0.249503 0
M  V30 11730 C 1113.84 -4.10696 1.33989 0
M  V30 11731 C 1112.98 -5.25751 0.758932 0
M  V30 11732 C 1112.02 -5.8415 1.82853 0
M  V30 11733 N 1111.15 -6.90585 1.26637 0
M  V30 11734 H 1115.99 -2.44705 1.7007 0
M  V30 11735 H 1113.53 -1.20117 0.849141 0
M  V30 11736 H 1115.49 -4.1712 -0.0819251 0
M  V30 11737 H 1114.12 -3.16705 -0.624332 0
M  V30 11738 H 1113.17 -3.35754 1.78812 0
M  V30 11739 H 1114.48 -4.50144 2.14875 0
M  V30 11740 H 1113.64 -6.05521 0.378104 0
M  V30 11741 H 1112.38 -4.87632 -0.0811405 0
M  V30 11742 H 1111.38 -5.03051 2.21856 0
M  V30 11743 H 1112.61 -6.24333 2.6718 0
M  V30 11744 H 1110.55 -6.54468 0.448105 0
M  V30 11745 H 1110.47 -7.28739 2.01184 0
M  V30 11746 H 1111.74 -7.74138 0.912737 0
M  V30 11747 N 1115.97 -0.914965 -1.28321 0
M  V30 11748 C 1117.21 -0.544639 -1.94208 0
M  V30 11749 C 1117.53 0.916368 -1.72806 0
M  V30 11750 O 1118.73 1.39491 -2.32926 0
M  V30 11751 C 1117.19 -0.923209 -3.47858 0
M  V30 11752 C 1116.8 -2.40403 -3.78035 0
M  V30 11753 C 1118.54 -0.623526 -4.19896 0
M  V30 11754 C 1116.45 -2.72266 -5.25 0
M  V30 11755 H 1115.38 -0.199966 -0.727 0
M  V30 11756 H 1118.03 -1.11405 -1.45812 0
M  V30 11757 H 1116.41 -0.282576 -3.94991 0
M  V30 11758 H 1117.59 -3.09149 -3.41706 0
M  V30 11759 H 1115.9 -2.67429 -3.19172 0
M  V30 11760 H 1118.5 -0.838243 -5.28089 0
M  V30 11761 H 1118.84 0.438721 -4.13982 0
M  V30 11762 H 1119.37 -1.22268 -3.78544 0
M  V30 11763 H 1116.11 -3.77349 -5.35993 0
M  V30 11764 H 1115.63 -2.08157 -5.62522 0
M  V30 11765 H 1117.31 -2.59334 -5.92752 0
M  V30 11766 N 1117.44 1.42219 -0.679077 0
M  V30 11767 C 1118.41 2.29197 -0.0125475 0
M  V30 11768 C 1119.41 1.43544 0.724691 0
M  V30 11769 O 1120.6 1.64884 0.562052 0
M  V30 11770 C 1117.73 3.26122 0.992846 0
M  V30 11771 H 1118.92 2.89629 -0.778154 0
M  V30 11772 H 1116.47 1.4993 -0.44166 0
M  V30 11773 H 1117.21 2.70637 1.78679 0
M  V30 11774 H 1116.99 3.89302 0.467544 0
M  V30 11775 H 1118.48 3.91339 1.45751 0
M  V30 11776 N 1118.92 0.422693 1.51826 0
M  V30 11777 C 1120.2 -0.20786 1.94492 0
M  V30 11778 C 1120.58 -1.61414 1.36047 0
M  V30 11779 O 1119.93 -2.21987 0.541657 0
M  V30 11780 C 1120.14 -0.200457 3.48424 0
M  V30 11781 C 1121.48 -0.413199 4.22585 0
M  V30 11782 O 1122.51 -0.27922 3.55104 0
M  V30 11783 O 1121.37 -0.678469 5.42272 0
M  V30 11784 H 1118.46 -0.137851 0.81543 0
M  V30 11785 H 1121.01 0.479617 1.62781 0
M  V30 11786 H 1119.78 0.783263 3.83381 0
M  V30 11787 H 1119.4 -0.931464 3.86535 0
M  V30 11788 N 1120.4 -1.5685 0.153553 0
M  V30 11789 C 1121.65 -1.96334 -0.495915 0
M  V30 11790 C 1121.97 -1.03873 -1.64441 0
M  V30 11791 O 1121.23 -0.069231 -1.95578 0
M  V30 11792 C 1121.53 -3.42022 -1.0371 0
M  V30 11793 C 1121.19 -4.509 -0.00637049 0
M  V30 11794 C 1119.86 -4.80402 0.276956 0
M  V30 11795 C 1122.21 -5.16556 0.694187 0
M  V30 11796 C 1119.54 -5.72866 1.26653 0
M  V30 11797 C 1121.89 -6.10087 1.67263 0
M  V30 11798 C 1120.55 -6.37965 1.96359 0
M  V30 11799 H 1119.82 -0.718436 -0.181468 0
M  V30 11800 H 1122.47 -1.89968 0.241768 0
M  V30 11801 H 1120.77 -3.45252 -1.85225 0
M  V30 11802 H 1122.47 -3.69903 -1.54831 0
M  V30 11803 H 1119.06 -4.27942 -0.237378 0
M  V30 11804 H 1123.25 -4.9389 0.488496 0
M  V30 11805 H 1118.5 -5.92756 1.49833 0
M  V30 11806 H 1122.68 -6.60036 2.22094 0
M  V30 11807 H 1120.3 -7.09416 2.73189 0
M  V30 11808 N 1121.88 0.120221 -1.57141 0
M  V30 11809 C 1123.13 0.826586 -1.84423 0
M  V30 11810 C 1123.45 1.80473 -0.738553 0
M  V30 11811 O 1122.72 1.94454 0.23755 0
M  V30 11812 H 1121.3 0.308246 -0.680436 0
M  V30 11813 H 1123.96 0.107835 -1.94601 0
M  V30 11814 H 1123.05 1.37256 -2.80298 0
M  V30 11815 N 1123.36 1.52689 0.390367 0
M  V30 11816 C 1124.29 1.80338 1.48325 0
M  V30 11817 C 1125.27 0.655338 1.56969 0
M  V30 11818 O 1126.45 0.902792 1.7194 0
M  V30 11819 C 1123.58 1.97101 2.85952 0
M  V30 11820 C 1122.54 3.12783 2.92148 0
M  V30 11821 C 1121.86 3.14798 4.32211 0
M  V30 11822 C 1123.16 4.5188 2.61919 0
M  V30 11823 H 1124.86 2.71857 1.25437 0
M  V30 11824 H 1122.4 1.30813 0.601995 0
M  V30 11825 H 1124.36 2.15027 3.62411 0
M  V30 11826 H 1123.08 1.02271 3.10174 0
M  V30 11827 H 1121.74 2.94638 2.18137 0
M  V30 11828 H 1121.39 2.17653 4.53471 0
M  V30 11829 H 1121.09 3.92507 4.37278 0
M  V30 11830 H 1122.61 3.34877 5.10578 0
M  V30 11831 H 1124.02 4.70134 3.28096 0
M  V30 11832 H 1122.42 5.31647 2.78337 0
M  V30 11833 H 1123.49 4.58689 1.57266 0
M  V30 11834 N 1124.83 -0.648732 1.43629 0
M  V30 11835 C 1126.07 -1.42032 1.46991 0
M  V30 11836 C 1126.44 -1.91774 0.0931841 0
M  V30 11837 O 1127.64 -2.688 0.00148504 0
M  V30 11838 C 1125.91 -2.56693 2.48684 0
M  V30 11839 S 1127.47 -3.45149 2.70956 0
M  V30 11840 H 1124.29 -0.484772 0.520113 0
M  V30 11841 H 1126.89 -0.75274 1.80427 0
M  V30 11842 H 1125.59 -2.18431 3.47442 0
M  V30 11843 H 1125.12 -3.28296 2.1676 0
M  V30 11844 H 1127.14 -4.53569 2.01221 0
M  V30 11845 N 1126.31 -1.30234 -0.887518 0
M  V30 11846 C 1127.26 -1.164 -1.99298 0
M  V30 11847 C 1128.23 -0.0541536 -1.66012 0
M  V30 11848 O 1129.41 -0.223881 -1.89482 0
M  V30 11849 C 1126.55 -0.859169 -3.34234 0
M  V30 11850 C 1125.67 -2.05065 -3.80227 0
M  V30 11851 C 1124.8 -1.68413 -5.03796 0
M  V30 11852 C 1123.84 -2.8407 -5.4219 0
M  V30 11853 N 1122.98 -2.47732 -6.56942 0
M  V30 11854 H 1127.82 -2.10973 -2.10463 0
M  V30 11855 H 1125.36 -1.04969 -1.03053 0
M  V30 11856 H 1127.31 -0.663064 -4.11897 0
M  V30 11857 H 1125.94 0.0496808 -3.22762 0
M  V30 11858 H 1125 -2.35808 -2.98494 0
M  V30 11859 H 1126.31 -2.91688 -4.04623 0
M  V30 11860 H 1125.46 -1.45162 -5.89078 0
M  V30 11861 H 1124.2 -0.789553 -4.81266 0
M  V30 11862 H 1123.21 -3.0799 -4.55437 0
M  V30 11863 H 1124.43 -3.74211 -5.66695 0
M  V30 11864 H 1122.38 -1.60777 -6.35993 0
M  V30 11865 H 1122.29 -3.27887 -6.81195 0
M  V30 11866 H 1123.56 -2.27831 -7.45462 0
M  V30 11867 N 1127.79 1.09952 -1.12909 0
M  V30 11868 C 1128.7 2.19999 -0.81471 0
M  V30 11869 C 1129.72 1.72864 0.19851 0
M  V30 11870 O 1130.89 2.01376 0.0308832 0
M  V30 11871 C 1127.96 3.45573 -0.279363 0
M  V30 11872 C 1127.02 4.07417 -1.35314 0
M  V30 11873 C 1126.25 5.26996 -0.843247 0
M  V30 11874 O 1126.47 5.69495 0.321164 0
M  V30 11875 O 1125.41 5.79826 -1.61511 0
M  V30 11876 H 1129.23 2.49333 -1.73398 0
M  V30 11877 H 1126.82 1.18784 -0.906128 0
M  V30 11878 H 1128.7 4.21398 0.0140531 0
M  V30 11879 H 1127.38 3.17854 0.612401 0
M  V30 11880 H 1126.28 3.33253 -1.6998 0
M  V30 11881 H 1127.62 4.39349 -2.21885 0
M  V30 11882 N 1129.27 0.921757 1.27833 0
M  V30 11883 C 1130.52 0.557974 1.94245 0
M  V30 11884 C 1130.84 -0.90268 1.72849 0
M  V30 11885 O 1130.11 -1.63915 1.07279 0
M  V30 11886 H 1128.69 0.203364 0.718785 0
M  V30 11887 H 1131.35 1.17286 1.5566 0
M  V30 11888 H 1130.45 0.759202 3.02725 0
M  V30 11889 N 1130.75 -1.41857 0.686609 0
M  V30 11890 C 1131.68 -2.28174 -0.0347358 0
M  V30 11891 C 1132.66 -1.41732 -0.796928 0
M  V30 11892 O 1133.84 -1.71165 -0.789607 0
M  V30 11893 C 1130.97 -3.21801 -1.0565 0
M  V30 11894 C 1130.01 -4.24727 -0.388523 0
M  V30 11895 S 1130.85 -5.28508 0.862546 0
M  V30 11896 C 1132 -6.25701 -0.157849 0
M  V30 11897 H 1132.24 -2.89005 0.697381 0
M  V30 11898 H 1129.77 -1.46861 0.476562 0
M  V30 11899 H 1131.73 -3.76278 -1.64089 0
M  V30 11900 H 1130.39 -2.60082 -1.76114 0
M  V30 11901 H 1129.58 -4.90471 -1.15991 0
M  V30 11902 H 1129.18 -3.73799 0.122567 0
M  V30 11903 H 1131.48 -6.6987 -1.01393 0
M  V30 11904 H 1132.42 -7.06569 0.465437 0
M  V30 11905 H 1132.83 -5.62204 -0.508614 0
M  V30 11906 N 1132.22 -0.430739 -1.51599 0
M  V30 11907 C 1133.47 0.137657 -2.01631 0
M  V30 11908 C 1133.79 1.43787 -1.31721 0
M  V30 11909 O 1133.06 1.90668 -0.449717 0
M  V30 11910 H 1131.64 0.0538611 -0.745056 0
M  V30 11911 H 1134.31 -0.571935 -1.86319 0
M  V30 11912 H 1133.4 0.318305 -3.10473 0
M  V30 11913 N 1133.7 1.56767 -0.161869 0
M  V30 11914 C 1134.93 2.00673 0.491314 0
M  V30 11915 C 1135.34 1.04111 1.5798 0
M  V30 11916 O 1134.68 0.0324889 1.83671 0
M  V30 11917 C 1134.75 3.41011 1.13806 0
M  V30 11918 C 1134.41 4.56595 0.192384 0
M  V30 11919 C 1135.41 5.16591 -0.585671 0
M  V30 11920 C 1133.09 5.02218 0.0909594 0
M  V30 11921 C 1135.09 6.20631 -1.45245 0
M  V30 11922 C 1132.77 6.06109 -0.77941 0
M  V30 11923 C 1133.77 6.65187 -1.54971 0
M  V30 11924 O 1133.46 7.67065 -2.40555 0
M  V30 11925 H 1133.19 0.663174 0.131059 0
M  V30 11926 H 1135.74 2.03775 -0.257896 0
M  V30 11927 H 1133.97 3.34793 1.93521 0
M  V30 11928 H 1135.66 3.68931 1.69248 0
M  V30 11929 H 1136.43 4.82232 -0.517432 0
M  V30 11930 H 1132.31 4.55953 0.680292 0
M  V30 11931 H 1135.85 6.66671 -2.05415 0
M  V30 11932 H 1131.75 6.39894 -0.848887 0
M  V30 11933 H 1132.52 7.84348 -2.33966 0
M  V30 11934 N 1135.18 -0.111886 1.57202 0
M  V30 11935 C 1136.43 -0.816794 1.84859 0
M  V30 11936 C 1136.75 -1.80079 0.748113 0
M  V30 11937 O 1136.02 -1.94578 -0.227235 0
M  V30 11938 H 1134.6 -0.304633 0.682061 0
M  V30 11939 H 1137.26 -0.097513 1.94656 0
M  V30 11940 H 1136.36 -1.35768 2.81022 0
M  V30 11941 N 1136.66 -1.52894 -0.382264 0
M  V30 11942 C 1137.94 -1.58853 -1.14127 0
M  V30 11943 C 1138.32 -0.38582 -2.07544 0
M  V30 11944 O 1137.66 0.625323 -2.19777 0
M  V30 11945 C 1137.87 -2.93068 -1.89504 0
M  V30 11946 C 1139.22 -3.47048 -2.44629 0
M  V30 11947 O 1140.25 -2.94987 -1.99652 0
M  V30 11948 O 1139.1 -4.3802 -3.26804 0
M  V30 11949 H 1136.2 -0.640969 -0.522578 0
M  V30 11950 H 1138.74 -1.65231 -0.386873 0
M  V30 11951 H 1137.52 -3.72047 -1.2123 0
M  V30 11952 H 1137.14 -2.90106 -2.7189 0
M  V30 11953 N 1138.14 0.641106 -1.43971 0
M  V30 11954 C 1139.55 0.958161 -1.27638 0
M  V30 11955 C 1139.75 2.00456 -0.204885 0
M  V30 11956 O 1138.81 2.49106 0.412606 0
M  V30 11957 C 1140.12 1.43091 -2.64472 0
M  V30 11958 C 1141.67 1.54692 -2.72102 0
M  V30 11959 C 1142.15 2.05353 -4.09382 0
M  V30 11960 N 1143.64 2.12638 -4.11509 0
M  V30 11961 C 1144.37 2.52987 -5.14573 0
M  V30 11962 N 1143.87 2.92544 -6.28005 0
M  V30 11963 N 1145.66 2.53033 -5.01927 0
M  V30 11964 H 1137.81 -0.0510973 -2.12339 0
M  V30 11965 H 1140.07 0.039748 -0.947166 0
M  V30 11966 H 1139.78 0.736389 -3.43904 0
M  V30 11967 H 1139.65 2.40375 -2.90688 0
M  V30 11968 H 1142.04 2.23242 -1.92994 0
M  V30 11969 H 1142.12 0.558083 -2.49638 0
M  V30 11970 H 1141.77 1.37401 -4.88962 0
M  V30 11971 H 1141.7 3.0509 -4.29218 0
M  V30 11972 H 1144.19 1.84792 -3.29636 0
M  V30 11973 H 1144.5 3.22116 -7.02468 0
M  V30 11974 H 1142.85 2.90319 -6.31458 0
M  V30 11975 H 1146.04 2.21514 -4.1237 0
M  V30 11976 H 1146.21 2.84155 -5.82375 0
M  V30 11977 N 1139.62 1.30703 0.880598 0
M  V30 11978 C 1140.84 1.22714 1.6658 0
M  V30 11979 C 1141.26 -0.209303 1.87636 0
M  V30 11980 O 1140.62 -1.13771 1.42697 0
M  V30 11981 C 1140.67 1.95659 3.03974 0
M  V30 11982 O 1140.39 3.33695 2.83865 0
M  V30 11983 C 1141.89 1.9438 3.98411 0
M  V30 11984 H 1139.11 0.424478 0.519673 0
M  V30 11985 H 1141.65 1.72402 1.0999 0
M  V30 11986 H 1139.81 1.49758 3.57283 0
M  V30 11987 H 1140.22 3.70697 3.71058 0
M  V30 11988 H 1141.7 2.4995 4.92168 0
M  V30 11989 H 1142.17 0.923767 4.29375 0
M  V30 11990 H 1142.78 2.40112 3.51036 0
M  V30 11991 N 1141.09 -1.09351 1.1349 0
M  V30 11992 C 1142.32 -1.85844 0.92069 0
M  V30 11993 C 1142.74 -1.80616 -0.525303 0
M  V30 11994 O 1142.1 -1.1842 -1.37282 0
M  V30 11995 C 1142.15 -3.31716 1.4141 0
M  V30 11996 O 1141.25 -4.08014 0.599838 0
M  V30 11997 H 1140.59 -0.576242 0.32991 0
M  V30 11998 H 1143.12 -1.38084 1.50976 0
M  V30 11999 H 1143.13 -3.82564 1.41805 0
M  V30 12000 H 1141.81 -3.34837 2.46692 0
M  V30 12001 H 1140.39 -3.66944 0.663816 0
M  V30 12002 N 1142.57 -0.928524 -1.27343 0
M  V30 12003 C 1143.8 -0.585734 -1.98436 0
M  V30 12004 C 1144.21 0.83644 -1.69261 0
M  V30 12005 O 1143.57 1.55603 -0.953626 0
M  V30 12006 C 1143.62 -0.803092 -3.52467 0
M  V30 12007 O 1143.34 -2.16932 -3.80621 0
M  V30 12008 C 1144.84 -0.469127 -4.40811 0
M  V30 12009 H 1142.06 -0.221887 -0.633251 0
M  V30 12010 H 1144.61 -1.24577 -1.62175 0
M  V30 12011 H 1142.76 -0.189846 -3.86935 0
M  V30 12012 H 1143.18 -2.21992 -4.75205 0
M  V30 12013 H 1144.65 -0.671906 -5.47895 0
M  V30 12014 H 1145.13 0.595365 -4.35146 0
M  V30 12015 H 1145.73 -1.06055 -4.11865 0
M  V30 12016 N 1144.05 1.41491 -0.694123 0
M  V30 12017 C 1145.3 2.01252 -0.224477 0
M  V30 12018 C 1145.62 1.54965 1.17541 0
M  V30 12019 O 1144.88 0.751041 1.80715 0
M  V30 12020 C 1145.18 3.56666 -0.228869 0
M  V30 12021 C 1144.84 4.22458 -1.57608 0
M  V30 12022 C 1143.51 4.40144 -1.94491 0
M  V30 12023 C 1145.86 4.5936 -2.46247 0
M  V30 12024 C 1143.19 4.92009 -3.196 0
M  V30 12025 C 1145.54 5.12615 -3.70687 0
M  V30 12026 C 1144.2 5.28512 -4.07715 0
M  V30 12027 H 1143.47 0.736433 -0.0821419 0
M  V30 12028 H 1146.12 1.69408 -0.892926 0
M  V30 12029 H 1144.42 3.88292 0.523128 0
M  V30 12030 H 1146.12 4.00712 0.152019 0
M  V30 12031 H 1142.71 4.09065 -1.27921 0
M  V30 12032 H 1146.9 4.45352 -2.19032 0
M  V30 12033 H 1142.15 5.02502 -3.48285 0
M  V30 12034 H 1146.33 5.4015 -4.39558 0
M  V30 12035 H 1143.95 5.68464 -5.0473 0
M  V30 12036 N 1145.53 0.438773 1.51369 0
M  V30 12037 C 1146.77 -0.126367 2.04009 0
M  V30 12038 C 1147.13 -1.39837 1.31566 0
M  V30 12039 O 1148.33 -2.04384 1.74587 0
M  V30 12040 C 1146.6 -0.338531 3.55793 0
M  V30 12041 S 1148.16 -0.866869 4.30152 0
M  V30 12042 H 1144.98 -0.0311763 0.710316 0
M  V30 12043 H 1147.58 0.598507 1.86113 0
M  V30 12044 H 1146.29 0.593555 4.06085 0
M  V30 12045 H 1145.82 -1.09044 3.77985 0
M  V30 12046 H 1147.83 -2.14427 4.47477 0
M  V30 12047 N 1147.01 -1.56678 0.170181 0
M  V30 12048 C 1148.25 -1.9646 -0.474125 0
M  V30 12049 C 1148.57 -1.05719 -1.63855 0
M  V30 12050 O 1147.84 -0.123316 -1.95511 0
M  V30 12051 H 1146.42 -0.725446 -0.178149 0
M  V30 12052 H 1149.09 -1.93276 0.251099 0
M  V30 12053 H 1148.18 -3.00726 -0.834894 0
M  V30 12054 N 1148.48 0.103547 -1.57259 0
M  V30 12055 C 1149.71 0.82235 -1.89855 0
M  V30 12056 C 1150.13 1.72694 -0.76303 0
M  V30 12057 O 1149.48 1.8056 0.265421 0
M  V30 12058 C 1149.53 1.64282 -3.22015 0
M  V30 12059 O 1149.26 0.774628 -4.31197 0
M  V30 12060 C 1150.76 2.46543 -3.68418 0
M  V30 12061 H 1147.98 0.235591 -0.628282 0
M  V30 12062 H 1150.52 0.0833106 -2.0433 0
M  V30 12063 H 1148.68 2.33446 -3.09163 0
M  V30 12064 H 1149.09 1.34205 -5.0704 0
M  V30 12065 H 1150.56 2.99618 -4.63609 0
M  V30 12066 H 1151.04 3.24618 -2.95838 0
M  V30 12067 H 1151.65 1.82594 -3.84109 0
M  V30 12068 N 1149.96 1.53094 0.37415 0
M  V30 12069 C 1151.37 1.60641 0.951381 0
M  V30 12070 C 1151.72 0.468474 1.90525 0
M  V30 12071 O 1150.85 -0.406347 2.12551 0
M  V30 12072 C 1151.44 2.91166 1.73228 0
M  V30 12073 C 1150 3.01077 2.25898 0
M  V30 12074 C 1149.15 2.55873 1.06885 0
M  V30 12075 H 1152.1 1.57959 0.153214 0
M  V30 12076 H 1152.12 2.78487 2.59278 0
M  V30 12077 H 1151.63 3.73968 1.03778 0
M  V30 12078 H 1149.73 2.22844 2.98615 0
M  V30 12079 H 1149.85 4.05998 2.54367 0
M  V30 12080 H 1148.21 2.10544 1.43329 0
M  V30 12081 H 1148.99 3.41084 0.38947 0
M  V30 12082 N 1151.44 -0.633461 1.44309 0
M  V30 12083 C 1152.35 -1.77428 1.53481 0
M  V30 12084 C 1153.37 -1.68839 0.420628 0
M  V30 12085 O 1154.54 -1.89658 0.677638 0
M  V30 12086 C 1151.61 -3.13801 1.47409 0
M  V30 12087 C 1150.67 -3.34039 2.6966 0
M  V30 12088 C 1149.9 -4.63907 2.63868 0
M  V30 12089 O 1150.12 -5.44559 1.69741 0
M  V30 12090 O 1149.06 -4.86295 3.54684 0
M  V30 12091 H 1152.88 -1.72642 2.49857 0
M  V30 12092 H 1150.47 -0.794399 1.26529 0
M  V30 12093 H 1152.35 -3.95101 1.46537 0
M  V30 12094 H 1151.03 -3.19134 0.541769 0
M  V30 12095 H 1149.93 -2.52427 2.761 0
M  V30 12096 H 1151.27 -3.33566 3.61931 0
M  V30 12097 N 1152.92 -1.31168 -0.873655 0
M  V30 12098 C 1154.17 -1.20642 -1.6264 0
M  V30 12099 C 1154.49 0.236286 -1.93059 0
M  V30 12100 O 1153.75 1.18401 -1.55819 0
M  V30 12101 C 1154.05 -1.99204 -2.96736 0
M  V30 12102 C 1153.71 -3.48734 -2.85824 0
M  V30 12103 C 1152.38 -3.89507 -2.82555 0
M  V30 12104 C 1154.73 -4.43905 -2.73127 0
M  V30 12105 C 1152.06 -5.23724 -2.64442 0
M  V30 12106 C 1154.41 -5.78242 -2.56551 0
M  V30 12107 C 1153.07 -6.18241 -2.51663 0
M  V30 12108 H 1152.34 -0.44146 -0.595142 0
M  V30 12109 H 1154.99 -1.62394 -1.01492 0
M  V30 12110 H 1153.29 -1.50122 -3.61899 0
M  V30 12111 H 1154.99 -1.88443 -3.53963 0
M  V30 12112 H 1151.58 -3.1634 -2.89184 0
M  V30 12113 H 1155.76 -4.13338 -2.7471 0
M  V30 12114 H 1151.02 -5.53794 -2.59081 0
M  V30 12115 H 1155.19 -6.51616 -2.45702 0
M  V30 12116 H 1152.82 -7.22185 -2.37387 0
M  V30 12117 N 1154.4 1.08748 -1.14068 0
M  V30 12118 C 1155.33 2.17591 -0.84714 0
M  V30 12119 C 1156.31 1.68962 0.196415 0
M  V30 12120 O 1157.49 1.94125 0.0538415 0
M  V30 12121 C 1154.62 3.45823 -0.320005 0
M  V30 12122 C 1153.58 4.07824 -1.2986 0
M  V30 12123 C 1152.9 5.30965 -0.630925 0
M  V30 12124 C 1154.2 4.49512 -2.65963 0
M  V30 12125 H 1155.9 2.42404 -1.75729 0
M  V30 12126 H 1153.44 1.16502 -0.846356 0
M  V30 12127 H 1155.4 4.21276 -0.102271 0
M  V30 12128 H 1154.12 3.20553 0.625561 0
M  V30 12129 H 1152.78 3.34398 -1.50245 0
M  V30 12130 H 1152.43 5.01979 0.320337 0
M  V30 12131 H 1152.13 5.73402 -1.28388 0
M  V30 12132 H 1153.65 6.09136 -0.422635 0
M  V30 12133 H 1155.06 5.16159 -2.49506 0
M  V30 12134 H 1153.46 5.02857 -3.27498 0
M  V30 12135 H 1154.53 3.6157 -3.23102 0
M  V30 12136 N 1155.87 0.935264 1.26849 0
M  V30 12137 C 1156.84 0.44485 2.24842 0
M  V30 12138 C 1157.84 -0.440781 1.54641 0
M  V30 12139 O 1159.03 -0.240793 1.72528 0
M  V30 12140 C 1156.16 -0.359566 3.38998 0
M  V30 12141 H 1157.35 1.31074 2.6974 0
M  V30 12142 H 1154.91 0.716665 1.38901 0
M  V30 12143 H 1155.64 -1.24396 2.99493 0
M  V30 12144 H 1155.43 0.275529 3.91131 0
M  V30 12145 H 1156.92 -0.692804 4.11813 0
M  V30 12146 N 1157.35 -1.41121 0.701616 0
M  V30 12147 C 1158.76 -1.84122 0.309208 0
M  V30 12148 C 1159.11 -1.58695 -1.15371 0
M  V30 12149 O 1158.24 -1.06053 -1.88631 0
M  V30 12150 C 1158.83 -3.34233 0.554429 0
M  V30 12151 C 1157.39 -3.7578 0.215876 0
M  V30 12152 C 1156.54 -2.6447 0.833729 0
M  V30 12153 H 1159.49 -1.30587 0.901822 0
M  V30 12154 H 1159.51 -3.8005 -0.18491 0
M  V30 12155 H 1159.02 -3.52707 1.61923 0
M  V30 12156 H 1157.13 -3.62905 -0.844421 0
M  V30 12157 H 1157.24 -4.74319 0.675118 0
M  V30 12158 H 1155.6 -2.5334 0.262851 0
M  V30 12159 H 1156.39 -2.85761 1.90252 0
M  V30 12160 N 1158.83 -0.446794 -1.51134 0
M  V30 12161 C 1159.74 0.36579 -2.31731 0
M  V30 12162 C 1160.76 1.01886 -1.41051 0
M  V30 12163 O 1161.93 1.01216 -1.74119 0
M  V30 12164 C 1159 1.44705 -3.15058 0
M  V30 12165 C 1158.06 0.813129 -4.21529 0
M  V30 12166 C 1157.29 1.84287 -5.00873 0
M  V30 12167 O 1157.51 3.06633 -4.8097 0
M  V30 12168 O 1156.45 1.42816 -5.84711 0
M  V30 12169 H 1160.27 -0.292436 -3.02289 0
M  V30 12170 H 1157.86 -0.209129 -1.47929 0
M  V30 12171 H 1159.74 2.07393 -3.66833 0
M  V30 12172 H 1158.42 2.08919 -2.47254 0
M  V30 12173 H 1157.32 0.147953 -3.73807 0
M  V30 12174 H 1158.66 0.214331 -4.91733 0
M  V30 12175 N 1160.31 1.56586 -0.178487 0
M  V30 12176 C 1161.55 1.9739 0.465306 0
M  V30 12177 C 1161.89 1.06474 1.6241 0
M  V30 12178 O 1161.16 0.113316 1.9417 0
M  V30 12179 C 1161.45 3.47577 0.941408 0
M  V30 12180 C 1161.3 4.49271 -0.218054 0
M  V30 12181 C 1162.62 4.01038 1.81263 0
M  V30 12182 H 1159.74 0.717676 0.167663 0
M  V30 12183 H 1162.38 1.88128 -0.266067 0
M  V30 12184 H 1160.53 3.556 1.56463 0
M  V30 12185 H 1162.2 4.53301 -0.855332 0
M  V30 12186 H 1160.44 4.24936 -0.872441 0
M  V30 12187 H 1161.11 5.51776 0.157315 0
M  V30 12188 H 1163.59 3.9569 1.28718 0
M  V30 12189 H 1162.47 5.06526 2.11476 0
M  V30 12190 H 1162.73 3.45288 2.76096 0
M  V30 12191 N 1161.79 -0.095206 1.57312 0
M  V30 12192 C 1162.72 -1.11627 2.05089 0
M  V30 12193 C 1163.7 -1.41782 0.939787 0
M  V30 12194 O 1164.88 -1.51813 1.21105 0
M  V30 12195 C 1162.01 -2.43618 2.47523 0
M  V30 12196 C 1160.97 -2.27872 3.62296 0
M  V30 12197 C 1160.29 -3.65038 3.90706 0
M  V30 12198 C 1161.59 -1.71936 4.93189 0
M  V30 12199 H 1163.29 -0.718795 2.90644 0
M  V30 12200 H 1160.83 -0.344315 1.39823 0
M  V30 12201 H 1162.79 -3.1532 2.79556 0
M  V30 12202 H 1161.51 -2.85301 1.58968 0
M  V30 12203 H 1160.17 -1.58615 3.3051 0
M  V30 12204 H 1159.82 -4.04249 2.99319 0
M  V30 12205 H 1159.52 -3.55349 4.67976 0
M  V30 12206 H 1161.04 -4.38208 4.25213 0
M  V30 12207 H 1162.45 -2.33479 5.23603 0
M  V30 12208 H 1160.85 -1.73006 5.74621 0
M  V30 12209 H 1161.92 -0.678789 4.80125 0
M  V30 12210 N 1163.26 -1.53291 -0.366026 0
M  V30 12211 C 1164.49 -1.73359 -1.12934 0
M  V30 12212 C 1164.91 -0.462352 -1.83051 0
M  V30 12213 O 1164.26 0.564711 -1.73543 0
M  V30 12214 C 1164.32 -2.89873 -2.15999 0
M  V30 12215 O 1164.04 -4.12079 -1.48737 0
M  V30 12216 C 1165.54 -3.21811 -3.04881 0
M  V30 12217 H 1162.76 -0.579827 -0.337701 0
M  V30 12218 H 1165.3 -2.00033 -0.425081 0
M  V30 12219 H 1163.46 -2.65595 -2.82025 0
M  V30 12220 H 1163.87 -4.77322 -2.17404 0
M  V30 12221 H 1165.34 -4.06744 -3.7318 0
M  V30 12222 H 1165.82 -2.37156 -3.69667 0
M  V30 12223 H 1166.43 -3.48013 -2.44473 0
M  V30 12224 N 1164.74 0.6258 -1.44643 0
M  V30 12225 C 1166.02 1.38439 -1.38181 0
M  V30 12226 C 1166.4 2.11056 -0.0431928 0
M  V30 12227 O 1165.75 2.06683 0.974383 0
M  V30 12228 C 1165.96 2.34639 -2.58352 0
M  V30 12229 C 1167.31 2.97807 -3.02649 0
M  V30 12230 O 1168.33 2.44963 -2.58595 0
M  V30 12231 O 1167.19 3.93682 -3.79048 0
M  V30 12232 H 1164.28 0.619852 -0.54746 0
M  V30 12233 H 1166.83 0.650409 -1.56741 0
M  V30 12234 H 1165.6 1.80116 -3.47382 0
M  V30 12235 H 1165.22 3.15446 -2.42032 0
M  V30 12236 N 1166.22 1.31629 0.866686 0
M  V30 12237 C 1167.45 1.24474 1.65269 0
M  V30 12238 C 1167.86 -0.18939 1.87848 0
M  V30 12239 O 1167.22 -1.12251 1.43895 0
M  V30 12240 C 1167.27 1.98872 3.01881 0
M  V30 12241 O 1166.99 3.36687 2.8031 0
M  V30 12242 C 1168.49 1.98595 3.96327 0
M  V30 12243 H 1165.71 0.429966 0.515141 0
M  V30 12244 H 1168.26 1.73559 1.08156 0
M  V30 12245 H 1166.41 1.53539 3.55675 0
M  V30 12246 H 1166.83 3.74612 3.67105 0
M  V30 12247 H 1168.3 2.55156 4.89489 0
M  V30 12248 H 1168.78 0.969257 4.28371 0
M  V30 12249 H 1169.38 2.43821 3.4847 0
M  V30 12250 N 1167.7 -1.08142 1.14644 0
M  V30 12251 C 1168.92 -1.84857 0.940349 0
M  V30 12252 C 1169.35 -1.81163 -0.506117 0
M  V30 12253 O 1168.71 -1.19869 -1.36019 0
M  V30 12254 C 1168.76 -3.30198 1.4492 0
M  V30 12255 O 1167.86 -4.07355 0.64308 0
M  V30 12256 H 1167.2 -0.572711 0.336003 0
M  V30 12257 H 1169.73 -1.36475 1.52432 0
M  V30 12258 H 1169.74 -3.81039 1.45854 0
M  V30 12259 H 1168.42 -3.32202 2.50229 0
M  V30 12260 H 1166.99 -3.66219 0.702698 0
M  V30 12261 N 1169.18 -0.941978 -1.26351 0
M  V30 12262 C 1170.41 -0.605868 -1.97517 0
M  V30 12263 C 1170.82 0.823583 -1.70334 0
M  V30 12264 O 1170.16 1.56085 -0.968662 0
M  V30 12265 C 1170.22 -0.769201 -3.51175 0
M  V30 12266 C 1169.88 -2.17343 -4.02009 0
M  V30 12267 C 1170.88 -3.14898 -4.13685 0
M  V30 12268 C 1168.57 -2.49422 -4.35998 0
M  V30 12269 C 1170.56 -4.42631 -4.58646 0
M  V30 12270 C 1168.25 -3.77388 -4.80647 0
M  V30 12271 C 1169.25 -4.73806 -4.91932 0
M  V30 12272 O 1168.93 -5.99493 -5.35596 0
M  V30 12273 H 1168.67 -0.227113 -0.636707 0
M  V30 12274 H 1171.22 -1.26523 -1.61806 0
M  V30 12275 H 1169.45 -0.0527104 -3.86664 0
M  V30 12276 H 1171.14 -0.436032 -4.03551 0
M  V30 12277 H 1171.9 -2.91438 -3.87671 0
M  V30 12278 H 1167.78 -1.7511 -4.26448 0
M  V30 12279 H 1171.33 -5.17892 -4.67369 0
M  V30 12280 H 1167.22 -4.0066 -5.06105 0
M  V30 12281 H 1167.99 -6.02687 -5.53815 0
M  V30 12282 N 1170.66 1.40747 -0.709091 0
M  V30 12283 C 1171.88 2.05319 -0.255258 0
M  V30 12284 C 1172.3 1.53406 1.10054 0
M  V30 12285 O 1171.66 0.687905 1.69039 0
M  V30 12286 C 1171.71 3.60835 -0.219251 0
M  V30 12287 O 1171.43 4.1083 -1.52151 0
M  V30 12288 C 1172.93 4.42572 0.253927 0
M  V30 12289 H 1170.15 0.660904 -0.115959 0
M  V30 12290 H 1172.69 1.80274 -0.965474 0
M  V30 12291 H 1170.85 3.84872 0.441882 0
M  V30 12292 H 1171.26 5.04979 -1.41764 0
M  V30 12293 H 1172.74 5.51529 0.22798 0
M  V30 12294 H 1173.21 4.19673 1.29504 0
M  V30 12295 H 1173.82 4.23629 -0.376694 0
M  V30 12296 N 1172.13 0.454803 1.50895 0
M  V30 12297 C 1173.55 0.108037 1.59234 0
M  V30 12298 C 1173.75 -1.38416 1.46435 0
M  V30 12299 O 1172.81 -2.15586 1.31449 0
M  V30 12300 C 1174.12 0.643721 2.93729 0
M  V30 12301 C 1175.67 0.605703 3.07083 0
M  V30 12302 C 1176.14 1.11865 4.44128 0
M  V30 12303 N 1177.63 1.07738 4.50496 0
M  V30 12304 C 1178.37 1.44495 5.54895 0
M  V30 12305 N 1177.86 1.88624 6.66628 0
M  V30 12306 N 1179.66 1.36201 5.45349 0
M  V30 12307 H 1171.81 1.4255 1.57459 0
M  V30 12308 H 1174.07 0.588504 0.743214 0
M  V30 12309 H 1173.78 1.68844 3.0852 0
M  V30 12310 H 1173.65 0.0782404 3.77119 0
M  V30 12311 H 1176.04 -0.430065 2.91949 0
M  V30 12312 H 1176.12 1.2078 2.2549 0
M  V30 12313 H 1175.76 2.15297 4.6001 0
M  V30 12314 H 1175.69 0.492933 5.24288 0
M  V30 12315 H 1178.18 0.753526 3.70311 0
M  V30 12316 H 1178.5 2.14863 7.4233 0
M  V30 12317 H 1176.84 1.92564 6.6779 0
M  V30 12318 H 1180.03 1.01579 4.56946 0
M  V30 12319 H 1180.21 1.65175 6.26595 0
M  V30 12320 N 1173.61 -1.56489 0.186789 0
M  V30 12321 C 1174.57 -2.17478 -0.723596 0
M  V30 12322 C 1175.57 -1.12698 -1.14699 0
M  V30 12323 O 1176.76 -1.38128 -1.06143 0
M  V30 12324 C 1173.9 -2.77015 -1.98685 0
M  V30 12325 H 1175.09 -2.99282 -0.192403 0
M  V30 12326 H 1172.64 -1.56174 -0.0628153 0
M  V30 12327 H 1173.38 -1.98987 -2.56076 0
M  V30 12328 H 1173.16 -3.53711 -1.69207 0
M  V30 12329 H 1174.65 -3.23872 -2.63622 0
M  V30 12330 N 1175.09 0.086862 -1.5736 0
M  V30 12331 C 1176.34 0.790008 -1.8678 0
M  V30 12332 C 1176.67 1.77977 -0.777042 0
M  V30 12333 O 1175.94 1.93317 0.21419 0
M  V30 12334 C 1176.23 1.51143 -3.26845 0
M  V30 12335 C 1176.08 0.539106 -4.46558 0
M  V30 12336 C 1177.4 2.46003 -3.64926 0
M  V30 12337 H 1174.52 0.285741 -0.679354 0
M  V30 12338 H 1177.16 0.0534655 -1.89925 0
M  V30 12339 H 1175.31 2.13928 -3.24295 0
M  V30 12340 H 1176.98 -0.0823679 -4.61226 0
M  V30 12341 H 1175.22 -0.146842 -4.33551 0
M  V30 12342 H 1175.9 1.0812 -5.41308 0
M  V30 12343 H 1178.37 1.93306 -3.68473 0
M  V30 12344 H 1177.25 2.93493 -4.63846 0
M  V30 12345 H 1177.51 3.30133 -2.94049 0
M  V30 12346 N 1176.57 1.53483 0.357892 0
M  V30 12347 C 1177.84 1.60649 1.11585 0
M  V30 12348 C 1178.22 0.418789 2.06904 0
M  V30 12349 O 1177.57 -0.590279 2.20744 0
M  V30 12350 C 1177.78 2.96046 1.84818 0
M  V30 12351 C 1179.13 3.50895 2.39076 0
M  V30 12352 O 1180.15 2.98126 1.94934 0
M  V30 12353 O 1179.01 4.43163 3.19794 0
M  V30 12354 H 1176.11 0.649202 0.512315 0
M  V30 12355 H 1178.65 1.65826 0.360537 0
M  V30 12356 H 1177.43 3.73929 1.15296 0
M  V30 12357 H 1177.05 2.94395 2.6724 0
M  V30 12358 N 1178.05 -0.61812 1.44973 0
M  V30 12359 C 1179.29 -1.37754 1.4965 0
M  V30 12360 C 1179.65 -1.91945 0.132201 0
M  V30 12361 O 1178.94 -1.71493 -0.854439 0
M  V30 12362 C 1179.13 -2.55143 2.50274 0
M  V30 12363 C 1178.96 -2.12446 3.96354 0
M  V30 12364 C 1177.73 -1.99112 4.64416 0
M  V30 12365 C 1179.93 -1.70557 4.85196 0
M  V30 12366 N 1177.91 -1.50114 5.95264 0
M  V30 12367 C 1179.28 -1.329 6.05589 0
M  V30 12368 C 1181.34 -1.58054 4.72147 0
M  V30 12369 C 1180.04 -0.839882 7.1438 0
M  V30 12370 C 1182.07 -1.10547 5.80976 0
M  V30 12371 C 1181.43 -0.738477 7.00518 0
M  V30 12372 H 1177.53 -0.498393 0.602601 0
M  V30 12373 H 1180.11 -0.70775 1.81381 0
M  V30 12374 H 1178.28 -3.19732 2.20513 0
M  V30 12375 H 1180.02 -3.21988 2.45166 0
M  V30 12376 H 1176.77 -2.19971 4.19416 0
M  V30 12377 H 1177.19 -1.27878 6.64813 0
M  V30 12378 H 1181.84 -1.85056 3.8015 0
M  V30 12379 H 1179.55 -0.557395 8.06175 0
M  V30 12380 H 1183.14 -1.01314 5.72911 0
M  V30 12381 H 1182.02 -0.376513 7.83296 0
M  V30 12382 N 1179.52 -1.32087 -0.859693 0
M  V30 12383 C 1180.77 -1.23551 -1.61575 0
M  V30 12384 C 1181.12 0.20199 -1.91337 0
M  V30 12385 O 1180.42 1.13834 -1.54118 0
M  V30 12386 C 1180.61 -2.0234 -2.94607 0
M  V30 12387 C 1180.44 -3.53606 -2.77836 0
M  V30 12388 C 1179.21 -4.22948 -2.76483 0
M  V30 12389 C 1181.41 -4.48356 -2.51955 0
M  V30 12390 N 1179.39 -5.60301 -2.5087 0
M  V30 12391 C 1180.76 -5.7345 -2.35702 0
M  V30 12392 C 1182.82 -4.37669 -2.37383 0
M  V30 12393 C 1181.52 -6.89064 -2.06357 0
M  V30 12394 C 1183.55 -5.53077 -2.09427 0
M  V30 12395 C 1182.91 -6.77167 -1.93971 0
M  V30 12396 H 1179.01 -0.507252 -0.595164 0
M  V30 12397 H 1181.59 -1.66395 -1.01098 0
M  V30 12398 H 1179.76 -1.6185 -3.53071 0
M  V30 12399 H 1181.49 -1.8574 -3.59559 0
M  V30 12400 H 1178.25 -3.75017 -2.89239 0
M  V30 12401 H 1178.67 -6.32649 -2.41006 0
M  V30 12402 H 1183.31 -3.42386 -2.48056 0
M  V30 12403 H 1181.03 -7.84363 -1.94421 0
M  V30 12404 H 1184.62 -5.46731 -1.98937 0
M  V30 12405 H 1183.5 -7.64959 -1.72646 0
M  V30 12406 N 1181 1.07532 -1.15215 0
M  V30 12407 C 1182.25 1.79737 -0.924062 0
M  V30 12408 C 1182.57 1.87072 0.550356 0
M  V30 12409 O 1181.84 1.37029 1.4 0
M  V30 12410 H 1180.42 0.665704 -0.338891 0
M  V30 12411 H 1183.08 1.29961 -1.45245 0
M  V30 12412 H 1182.18 2.82256 -1.33184 0
M  V30 12413 N 1182.48 0.948665 1.2585 0
M  V30 12414 C 1183.41 0.482036 2.2847 0
M  V30 12415 C 1184.39 -0.468553 1.63519 0
M  V30 12416 O 1185.58 -0.368796 1.90666 0
M  V30 12417 C 1182.71 -0.246603 3.46423 0
M  V30 12418 C 1181.66 0.61815 4.23513 0
M  V30 12419 C 1180.99 -0.240884 5.34157 0
M  V30 12420 C 1182.29 1.89327 4.86778 0
M  V30 12421 H 1183.98 1.33973 2.67753 0
M  V30 12422 H 1181.53 0.645645 1.28715 0
M  V30 12423 H 1183.48 -0.584135 4.17332 0
M  V30 12424 H 1182.2 -1.13849 3.06114 0
M  V30 12425 H 1180.86 0.938682 3.54379 0
M  V30 12426 H 1180.51 -1.13235 4.90089 0
M  V30 12427 H 1180.21 0.334367 5.86648 0
M  V30 12428 H 1181.73 -0.573517 6.07901 0
M  V30 12429 H 1183.15 1.62252 5.49861 0
M  V30 12430 H 1181.55 2.41369 5.49419 0
M  V30 12431 H 1182.62 2.60006 4.09298 0
M  V30 12432 N 1183.96 -1.40369 0.716545 0
M  V30 12433 C 1185.21 -2.00473 0.255959 0
M  V30 12434 C 1185.53 -1.57104 -1.15514 0
M  V30 12435 O 1184.8 -0.810925 -1.78328 0
M  V30 12436 H 1183.38 -0.741357 0.0916427 0
M  V30 12437 H 1186.04 -1.71692 0.922389 0
M  V30 12438 H 1185.14 -3.10752 0.289806 0
M  V30 12439 N 1185.44 -0.462799 -1.50652 0
M  V30 12440 C 1186.68 0.0951853 -2.02576 0
M  V30 12441 C 1187.02 1.40113 -1.34469 0
M  V30 12442 O 1186.29 1.88793 -0.467702 0
M  V30 12443 C 1186.57 0.287603 -3.5895 0
M  V30 12444 C 1186.43 -1.03878 -4.37641 0
M  V30 12445 C 1187.75 1.04593 -4.27491 0
M  V30 12446 H 1184.86 0.0331191 -0.736255 0
M  V30 12447 H 1187.51 -0.606772 -1.80051 0
M  V30 12448 H 1185.66 0.885514 -3.78274 0
M  V30 12449 H 1187.33 -1.67263 -4.29908 0
M  V30 12450 H 1185.57 -1.6374 -4.01711 0
M  V30 12451 H 1186.24 -0.857889 -5.45293 0
M  V30 12452 H 1188.72 0.539213 -4.12591 0
M  V30 12453 H 1187.59 1.14935 -5.36732 0
M  V30 12454 H 1187.86 2.08045 -3.90089 0
M  V30 12455 N 1186.91 1.56388 -0.195085 0
M  V30 12456 C 1187.84 2.22091 0.720971 0
M  V30 12457 C 1188.83 1.184 1.22128 0
M  V30 12458 O 1190.01 1.46907 1.27012 0
M  V30 12459 C 1187.14 2.88025 1.94059 0
M  V30 12460 C 1186.09 3.97959 1.5752 0
M  V30 12461 C 1185.42 4.51058 2.87143 0
M  V30 12462 C 1186.72 5.16365 0.785145 0
M  V30 12463 H 1188.41 2.98898 0.173245 0
M  V30 12464 H 1185.96 1.43767 0.0818868 0
M  V30 12465 H 1187.91 3.32671 2.58666 0
M  V30 12466 H 1186.64 2.08623 2.51285 0
M  V30 12467 H 1185.3 3.54004 0.952715 0
M  V30 12468 H 1184.94 3.68418 3.42458 0
M  V30 12469 H 1184.64 5.25237 2.63439 0
M  V30 12470 H 1186.17 4.98406 3.52738 0
M  V30 12471 H 1187.58 5.57556 1.33431 0
M  V30 12472 H 1185.98 5.9661 0.646231 0
M  V30 12473 H 1187.05 4.84428 -0.213789 0
M  V30 12474 N 1188.39 -0.0785156 1.57404 0
M  V30 12475 C 1189.32 -1.09446 2.06262 0
M  V30 12476 C 1190.3 -1.40777 0.954772 0
M  V30 12477 O 1191.49 -1.5052 1.22708 0
M  V30 12478 C 1188.62 -2.40979 2.50093 0
M  V30 12479 C 1187.57 -2.24017 3.64692 0
M  V30 12480 C 1186.9 -3.60873 3.94556 0
M  V30 12481 C 1188.2 -1.66696 4.94985 0
M  V30 12482 H 1189.89 -0.687928 2.9139 0
M  V30 12483 H 1187.44 -0.329466 1.4018 0
M  V30 12484 H 1189.39 -3.12337 2.82884 0
M  V30 12485 H 1188.12 -2.83599 1.61985 0
M  V30 12486 H 1186.77 -1.55101 3.32174 0
M  V30 12487 H 1186.42 -4.01051 3.0359 0
M  V30 12488 H 1186.12 -3.50365 4.71718 0
M  V30 12489 H 1187.65 -4.33673 4.29837 0
M  V30 12490 H 1189.06 -2.27913 5.2605 0
M  V30 12491 H 1187.46 -1.66902 5.76423 0
M  V30 12492 H 1188.53 -0.627827 4.80818 0
M  V30 12493 N 1189.87 -1.5367 -0.349747 0
M  V30 12494 C 1191.1 -1.74294 -1.10928 0
M  V30 12495 C 1191.51 -0.479102 -1.83033 0
M  V30 12496 O 1190.85 0.558621 -1.75 0
M  V30 12497 C 1190.91 -2.86457 -2.17216 0
M  V30 12498 C 1190.58 -4.26274 -1.6474 0
M  V30 12499 C 1191.57 -5.08065 -1.10302 0
M  V30 12500 C 1189.26 -4.72739 -1.69774 0
M  V30 12501 C 1191.25 -6.34417 -0.615938 0
M  V30 12502 C 1188.94 -5.99066 -1.20678 0
M  V30 12503 C 1189.94 -6.79737 -0.6668 0
M  V30 12504 O 1189.63 -8.03691 -0.183143 0
M  V30 12505 H 1189.36 -0.586046 -0.336937 0
M  V30 12506 H 1191.91 -2.01274 -0.409645 0
M  V30 12507 H 1190.14 -2.54988 -2.9072 0
M  V30 12508 H 1191.83 -2.95109 -2.78686 0
M  V30 12509 H 1192.6 -4.73333 -1.05739 0
M  V30 12510 H 1188.48 -4.1001 -2.10744 0
M  V30 12511 H 1192.02 -6.97331 -0.193795 0
M  V30 12512 H 1187.92 -6.33293 -1.24939 0
M  V30 12513 H 1188.69 -8.17946 -0.301008 0
M  V30 12514 N 1191.35 0.610423 -1.45298 0
M  V30 12515 C 1192.26 1.74964 -1.56285 0
M  V30 12516 C 1193.27 1.68149 -0.447436 0
M  V30 12517 O 1194.45 1.88556 -0.707725 0
M  V30 12518 C 1191.52 3.11417 -1.52383 0
M  V30 12519 C 1190.58 3.29707 -2.7494 0
M  V30 12520 C 1189.81 4.5965 -2.71215 0
M  V30 12521 O 1190.03 5.41789 -1.78383 0
M  V30 12522 O 1188.97 4.80591 -3.62375 0
M  V30 12523 H 1192.79 1.68646 -2.52571 0
M  V30 12524 H 1190.38 0.774168 -1.27777 0
M  V30 12525 H 1192.26 3.9272 -1.52805 0
M  V30 12526 H 1190.93 3.18232 -0.592472 0
M  V30 12527 H 1189.84 2.48003 -2.80081 0
M  V30 12528 H 1191.17 3.27766 -3.67192 0
M  V30 12529 N 1192.83 1.32541 0.852676 0
M  V30 12530 C 1193.76 1.15977 1.96531 0
M  V30 12531 C 1194.74 0.0587267 1.62494 0
M  V30 12532 O 1195.92 0.218404 1.8723 0
M  V30 12533 C 1193.05 0.77587 3.29694 0
M  V30 12534 C 1192.09 1.88244 3.82709 0
M  V30 12535 S 1192.93 3.49108 4.06059 0
M  V30 12536 C 1194.08 3.12693 5.42193 0
M  V30 12537 H 1194.32 2.10165 2.1028 0
M  V30 12538 H 1191.85 1.17225 1.00487 0
M  V30 12539 H 1193.81 0.561136 4.06647 0
M  V30 12540 H 1192.47 -0.14718 3.13755 0
M  V30 12541 H 1191.66 1.56687 4.79025 0
M  V30 12542 H 1191.26 2.05313 3.12606 0
M  V30 12543 H 1193.56 2.62661 6.24512 0
M  V30 12544 H 1194.5 4.08038 5.78714 0
M  V30 12545 H 1194.91 2.4966 5.06291 0
M  V30 12546 N 1194.3 -1.0692 1.15784 0
M  V30 12547 C 1195.23 -2.16216 0.881649 0
M  V30 12548 C 1196.22 -1.69253 -0.16951 0
M  V30 12549 O 1197.4 -1.94186 -0.0229511 0
M  V30 12550 C 1194.53 -3.4527 0.374982 0
M  V30 12551 C 1193.48 -4.05706 1.36332 0
M  V30 12552 C 1192.81 -5.29894 0.715317 0
M  V30 12553 C 1194.11 -4.45224 2.7308 0
M  V30 12554 H 1195.8 -2.39577 1.79563 0
M  V30 12555 H 1193.35 -1.15141 0.864784 0
M  V30 12556 H 1195.3 -4.2106 0.169279 0
M  V30 12557 H 1194.03 -3.21508 -0.574485 0
M  V30 12558 H 1192.69 -3.31965 1.55546 0
M  V30 12559 H 1192.33 -5.02425 -0.240436 0
M  V30 12560 H 1192.03 -5.71287 1.37494 0
M  V30 12561 H 1193.56 -6.08386 0.519489 0
M  V30 12562 H 1194.97 -5.12124 2.57686 0
M  V30 12563 H 1193.37 -4.97583 3.35457 0
M  V30 12564 H 1194.44 -3.56384 3.28813 0
M  V30 12565 N 1195.78 -0.955326 -1.25345 0
M  V30 12566 C 1197.03 -0.611388 -1.93365 0
M  V30 12567 C 1197.36 0.84953 -1.74633 0
M  V30 12568 O 1196.64 1.60962 -1.09185 0
M  V30 12569 C 1196.92 -0.971732 -3.46741 0
M  V30 12570 C 1196.77 -2.48843 -3.74696 0
M  V30 12571 C 1198.09 -0.497295 -4.37281 0
M  V30 12572 H 1195.21 -0.223591 -0.702265 0
M  V30 12573 H 1197.85 -1.1921 -1.47949 0
M  V30 12574 H 1196 -0.477568 -3.85554 0
M  V30 12575 H 1197.67 -3.05641 -3.45516 0
M  V30 12576 H 1195.92 -2.92582 -3.20278 0
M  V30 12577 H 1196.59 -2.69107 -4.8196 0
M  V30 12578 H 1199.06 -0.921196 -4.05775 0
M  V30 12579 H 1197.94 -0.778113 -5.43357 0
M  V30 12580 H 1198.2 0.602743 -4.37972 0
M  V30 12581 N 1197.26 1.39987 -0.723979 0
M  V30 12582 C 1198.51 2.00334 -0.266587 0
M  V30 12583 C 1198.83 1.57714 1.14679 0
M  V30 12584 O 1198.1 0.82037 1.77895 0
M  V30 12585 H 1196.68 0.740861 -0.095573 0
M  V30 12586 H 1199.34 1.712 -0.931481 0
M  V30 12587 H 1198.44 3.10594 -0.306282 0
M  V30 12588 N 1198.74 0.470782 1.50404 0
M  V30 12589 C 1199.65 -0.328877 2.32283 0
M  V30 12590 C 1200.67 -0.99629 1.42654 0
M  V30 12591 O 1201.84 -0.984331 1.75707 0
M  V30 12592 C 1198.91 -1.39675 3.1732 0
M  V30 12593 C 1197.97 -0.745965 4.22769 0
M  V30 12594 C 1197.2 -1.76295 5.03742 0
M  V30 12595 O 1197.42 -2.98943 4.85788 0
M  V30 12596 O 1196.36 -1.33495 5.86909 0
M  V30 12597 H 1200.18 0.340491 3.01785 0
M  V30 12598 H 1197.77 0.232637 1.47578 0
M  V30 12599 H 1199.65 -2.0153 3.70086 0
M  V30 12600 H 1198.33 -2.04959 2.50546 0
M  V30 12601 H 1197.23 -0.0884647 3.73995 0
M  V30 12602 H 1198.57 -0.136074 4.92012 0
M  V30 12603 N 1200.22 -1.56282 0.203376 0
M  V30 12604 C 1201.44 -2.02643 -0.441658 0
M  V30 12605 C 1201.87 -1.0825 -1.5383 0
M  V30 12606 O 1201.23 -0.0674337 -1.81175 0
M  V30 12607 C 1201.27 -3.47382 -0.967369 0
M  V30 12608 O 1200.38 -3.56115 -2.07981 0
M  V30 12609 H 1199.72 -0.656081 -0.102242 0
M  V30 12610 H 1202.25 -2.02134 0.316684 0
M  V30 12611 H 1202.26 -3.8734 -1.28186 0
M  V30 12612 H 1200.93 -4.15574 -0.164625 0
M  V30 12613 H 1199.51 -3.28035 -1.77334 0
M  V30 12614 N 1201.7 0.070167 -1.57444 0
M  V30 12615 C 1203.11 0.621805 -1.76041 0
M  V30 12616 C 1203.46 1.77824 -0.829047 0
M  V30 12617 O 1202.58 2.16396 -0.0135453 0
M  V30 12618 C 1203.18 1.13476 -3.19231 0
M  V30 12619 C 1201.74 1.63225 -3.39167 0
M  V30 12620 C 1200.88 0.552369 -2.71743 0
M  V30 12621 H 1203.83 -0.156009 -1.57931 0
M  V30 12622 H 1203.86 2.00352 -3.2348 0
M  V30 12623 H 1203.37 0.29288 -3.86993 0
M  V30 12624 H 1201.47 2.49733 -2.76522 0
M  V30 12625 H 1201.58 1.70807 -4.47618 0
M  V30 12626 H 1199.95 0.997797 -2.34342 0
M  V30 12627 H 1200.73 -0.279354 -3.42162 0
M  V30 12628 N 1203.17 1.53854 0.341593 0
M  V30 12629 C 1204.42 1.71194 1.08162 0
M  V30 12630 C 1204.75 0.47614 1.88582 0
M  V30 12631 O 1204 -0.542115 1.88041 0
M  V30 12632 C 1204.3 2.92844 2.04884 0
M  V30 12633 C 1203.97 4.28366 1.40759 0
M  V30 12634 C 1202.63 4.65214 1.23 0
M  V30 12635 C 1204.98 5.12546 0.945819 0
M  V30 12636 C 1202.31 5.83857 0.576852 0
M  V30 12637 C 1204.66 6.31857 0.306568 0
M  V30 12638 C 1203.33 6.67398 0.116677 0
M  V30 12639 H 1202.6 0.626442 0.395792 0
M  V30 12640 H 1205.24 1.88073 0.360688 0
M  V30 12641 H 1203.55 2.70576 2.83365 0
M  V30 12642 H 1205.25 3.03454 2.62139 0
M  V30 12643 H 1201.84 3.99366 1.5558 0
M  V30 12644 H 1206.02 4.84609 1.07087 0
M  V30 12645 H 1201.28 6.09967 0.418363 0
M  V30 12646 H 1205.45 6.96375 -0.0593285 0
M  V30 12647 H 1203.08 7.59191 -0.391477 0
M  V30 12648 N 1204.65 -0.602709 1.4562 0
M  V30 12649 C 1206.06 -1.1847 1.44297 0
M  V30 12650 C 1206.41 -1.95434 0.17316 0
M  V30 12651 O 1205.54 -2.03894 -0.724986 0
M  V30 12652 C 1206.13 -2.15508 2.61422 0
M  V30 12653 C 1204.69 -2.69073 2.63204 0
M  V30 12654 C 1203.84 -1.44568 2.36633 0
M  V30 12655 H 1206.79 -0.391745 1.53789 0
M  V30 12656 H 1206.81 -2.98628 2.35799 0
M  V30 12657 H 1206.32 -1.59464 3.53826 0
M  V30 12658 H 1204.42 -3.29042 1.7482 0
M  V30 12659 H 1204.54 -3.13173 3.62573 0
M  V30 12660 H 1202.9 -1.73692 1.86287 0
M  V30 12661 H 1203.68 -0.903852 3.31188 0
M  V30 12662 N 1206.13 -1.32992 -0.845635 0
M  V30 12663 C 1207.38 -1.2382 -1.59728 0
M  V30 12664 C 1207.7 0.197724 -1.93995 0
M  V30 12665 O 1206.97 1.12477 -1.60392 0
M  V30 12666 H 1205.55 -0.455296 -0.592212 0
M  V30 12667 H 1208.21 -1.66627 -1.01101 0
M  V30 12668 H 1207.31 -1.82717 -2.53023 0
M  V30 12669 N 1207.61 1.06304 -1.1635 0
M  V30 12670 C 1208.88 1.75916 -0.855166 0
M  V30 12671 C 1209.26 2.0094 0.647024 0
M  V30 12672 O 1208.61 1.63642 1.59479 0
M  V30 12673 C 1208.82 3.06028 -1.67774 0
M  V30 12674 C 1210.17 3.80184 -1.89065 0
M  V30 12675 O 1211.19 3.15868 -1.64639 0
M  V30 12676 O 1210.05 4.95723 -2.30045 0
M  V30 12677 H 1207.15 0.764432 -0.315551 0
M  V30 12678 H 1209.69 1.12574 -1.26985 0
M  V30 12679 H 1208.47 2.83498 -2.69712 0
M  V30 12680 H 1208.09 3.77104 -1.26009 0
M  V30 12681 N 1209.09 0.96196 1.24836 0
M  V30 12682 C 1210.36 0.537809 1.88061 0
M  V30 12683 C 1210.74 -0.985023 1.8671 0
M  V30 12684 O 1210.09 -1.85394 1.33572 0
M  V30 12685 C 1210.3 1.12279 3.30446 0
M  V30 12686 C 1211.65 1.20414 4.07168 0
M  V30 12687 O 1212.67 1.07488 3.39595 0
M  V30 12688 O 1211.53 1.4078 5.28056 0
M  V30 12689 H 1208.63 0.178491 0.807509 0
M  V30 12690 H 1211.17 1.05586 1.32852 0
M  V30 12691 H 1209.94 2.16578 3.25898 0
M  V30 12692 H 1209.57 0.58843 3.93222 0
M  V30 12693 N 1210.56 -1.39601 0.731392 0
M  V30 12694 C 1211.47 -2.34425 0.090527 0
M  V30 12695 C 1212.49 -1.58131 -0.725992 0
M  V30 12696 O 1213.67 -1.90441 -0.655294 0
M  V30 12697 C 1210.73 -3.37138 -0.808624 0
M  V30 12698 C 1209.79 -4.29295 0.0197365 0
M  V30 12699 C 1209.02 -5.27102 -0.836593 0
M  V30 12700 O 1209.25 -5.31302 -2.07543 0
M  V30 12701 O 1208.18 -6.01307 -0.267172 0
M  V30 12702 H 1212.01 -2.9088 0.873084 0
M  V30 12703 H 1209.59 -1.41066 0.492024 0
M  V30 12704 H 1211.47 -4.00087 -1.32319 0
M  V30 12705 H 1210.15 -2.83074 -1.57006 0
M  V30 12706 H 1209.06 -3.69581 0.579744 0
M  V30 12707 H 1210.39 -4.86555 0.743308 0
M  V30 12708 N 1212.04 -0.478751 -1.50152 0
M  V30 12709 C 1212.95 0.316554 -2.32455 0
M  V30 12710 C 1213.97 0.98871 -1.4318 0
M  V30 12711 O 1215.14 0.974998 -1.76226 0
M  V30 12712 C 1212.21 1.3799 -3.18056 0
M  V30 12713 C 1211.27 0.723534 -4.23159 0
M  V30 12714 C 1210.5 1.73621 -5.0467 0
M  V30 12715 O 1210.73 2.96362 -4.87366 0
M  V30 12716 O 1209.66 1.30381 -5.87609 0
M  V30 12717 H 1213.49 -0.356491 -3.016 0
M  V30 12718 H 1211.07 -0.24046 -1.47452 0
M  V30 12719 H 1212.95 1.99565 -3.71149 0
M  V30 12720 H 1211.63 2.03627 -2.5163 0
M  V30 12721 H 1210.54 0.0686296 -3.74037 0
M  V30 12722 H 1211.87 0.109979 -4.92077 0
M  V30 12723 N 1213.52 1.56172 -0.211661 0
M  V30 12724 C 1214.43 2.23468 0.714081 0
M  V30 12725 C 1215.45 1.23908 1.22159 0
M  V30 12726 O 1216.62 1.56693 1.26528 0
M  V30 12727 C 1213.69 2.89375 1.90953 0
M  V30 12728 C 1212.75 4.04251 1.44497 0
M  V30 12729 C 1211.98 4.67006 2.58343 0
M  V30 12730 O 1212.2 4.28721 3.76237 0
M  V30 12731 O 1211.14 5.56177 2.3011 0
M  V30 12732 H 1214.96 3.03219 0.170862 0
M  V30 12733 H 1212.55 1.49389 0.0183607 0
M  V30 12734 H 1214.43 3.3101 2.60787 0
M  V30 12735 H 1213.11 2.12591 2.44104 0
M  V30 12736 H 1212.01 3.67205 0.714932 0
M  V30 12737 H 1213.35 4.82748 0.959947 0
M  V30 12738 N 1215 -0.0618163 1.57479 0
M  V30 12739 C 1216.24 -0.760193 1.88013 0
M  V30 12740 C 1216.58 -1.76718 0.805258 0
M  V30 12741 O 1215.85 -1.93633 -0.183408 0
M  V30 12742 C 1216.14 -1.45924 3.29208 0
M  V30 12743 C 1215.99 -0.467994 4.47359 0
M  V30 12744 C 1217.31 -2.40166 3.68793 0
M  V30 12745 H 1214.43 -0.274896 0.683814 0
M  V30 12746 H 1217.07 -0.0232433 1.89986 0
M  V30 12747 H 1215.22 -2.08741 3.27657 0
M  V30 12748 H 1216.89 0.155735 4.61037 0
M  V30 12749 H 1215.13 0.215797 4.33263 0
M  V30 12750 H 1215.8 -0.994942 5.42959 0
M  V30 12751 H 1218.28 -1.87419 3.71501 0
M  V30 12752 H 1217.16 -2.86076 4.68457 0
M  V30 12753 H 1217.42 -3.25413 2.99264 0
M  V30 12754 N 1216.48 -1.54033 -0.333429 0
M  V30 12755 C 1217.72 -1.71765 -1.07252 0
M  V30 12756 C 1218.05 -0.486135 -1.88327 0
M  V30 12757 O 1217.31 0.532135 -1.88326 0
M  V30 12758 C 1217.61 -2.93926 -2.03328 0
M  V30 12759 C 1217.27 -4.29107 -1.38486 0
M  V30 12760 C 1215.93 -4.6586 -1.20532 0
M  V30 12761 C 1218.29 -5.13041 -0.918624 0
M  V30 12762 C 1215.61 -5.84155 -0.545881 0
M  V30 12763 C 1217.97 -6.3201 -0.273055 0
M  V30 12764 C 1216.63 -6.67451 -0.0812815 0
M  V30 12765 H 1215.9 -0.628532 -0.392464 0
M  V30 12766 H 1218.55 -1.88261 -0.350709 0
M  V30 12767 H 1216.85 -2.72075 -2.81926 0
M  V30 12768 H 1218.55 -3.0484 -2.60526 0
M  V30 12769 H 1215.14 -4.00185 -1.5346 0
M  V30 12770 H 1219.32 -4.8517 -1.04515 0
M  V30 12771 H 1214.58 -6.1018 -0.386009 0
M  V30 12772 H 1218.75 -6.96333 0.0962582 0
M  V30 12773 H 1216.38 -7.58973 0.431734 0
M  V30 12774 N 1217.95 0.594978 -1.45938 0
M  V30 12775 C 1219.23 1.35477 -1.41086 0
M  V30 12776 C 1219.61 2.10917 -0.0879512 0
M  V30 12777 O 1218.96 2.08704 0.930323 0
M  V30 12778 C 1219.17 2.29106 -2.63271 0
M  V30 12779 C 1220.52 2.9132 -3.08898 0
M  V30 12780 O 1221.54 2.39423 -2.63733 0
M  V30 12781 O 1220.4 3.85553 -3.87313 0
M  V30 12782 H 1217.49 0.6081 -0.560485 0
M  V30 12783 H 1220.04 0.617016 -1.58085 0
M  V30 12784 H 1218.81 1.72707 -3.51124 0
M  V30 12785 H 1218.44 3.10241 -2.48669 0
M  V30 12786 N 1219.43 1.33438 0.838571 0
M  V30 12787 C 1220.66 1.28097 1.63113 0
M  V30 12788 C 1221.08 -0.145197 1.87539 0
M  V30 12789 O 1220.44 -1.10191 1.43971 0
M  V30 12790 C 1220.49 2.06201 2.95827 0
M  V30 12791 O 1219.59 1.42082 3.87152 0
M  V30 12792 H 1218.93 0.440685 0.496681 0
M  V30 12793 H 1221.46 1.76004 1.04325 0
M  V30 12794 H 1221.47 2.16977 3.45521 0
M  V30 12795 H 1220.15 3.099 2.77371 0
M  V30 12796 H 1218.73 1.39953 3.45641 0
M  V30 12797 N 1220.91 -1.05686 1.16912 0
M  V30 12798 C 1222.16 -1.77987 0.948875 0
M  V30 12799 C 1222.47 -1.8845 -0.524011 0
M  V30 12800 O 1223.68 -2.57442 -0.862322 0
M  V30 12801 C 1222.13 -3.19927 1.64848 0
M  V30 12802 C 1221.74 -3.1761 3.15956 0
M  V30 12803 C 1223.49 -3.96719 1.51044 0
M  V30 12804 C 1221.39 -4.54307 3.78628 0
M  V30 12805 H 1220.32 -0.667119 0.35138 0
M  V30 12806 H 1222.97 -1.18496 1.40111 0
M  V30 12807 H 1221.36 -3.79714 1.12397 0
M  V30 12808 H 1222.53 -2.67369 3.75301 0
M  V30 12809 H 1220.85 -2.54317 3.29715 0
M  V30 12810 H 1223.44 -4.97779 1.95243 0
M  V30 12811 H 1223.79 -4.13748 0.460268 0
M  V30 12812 H 1224.32 -3.43468 2.00685 0
M  V30 12813 H 1221.06 -4.42484 4.8362 0
M  V30 12814 H 1220.58 -5.04717 3.24069 0
M  V30 12815 H 1222.26 -5.23255 3.80543 0
M  V30 12816 N 1222.39 -0.968567 -1.24324 0
M  V30 12817 C 1223.63 -0.631863 -1.92705 0
M  V30 12818 C 1223.97 0.83096 -1.75524 0
M  V30 12819 O 1223.24 1.59795 -1.10887 0
M  V30 12820 C 1223.53 -1.00845 -3.45691 0
M  V30 12821 C 1223.38 -2.52803 -3.72036 0
M  V30 12822 C 1224.7 -0.543647 -4.36729 0
M  V30 12823 H 1221.82 -0.231027 -0.699854 0
M  V30 12824 H 1224.46 -1.20773 -1.46676 0
M  V30 12825 H 1222.61 -0.518434 -3.85025 0
M  V30 12826 H 1224.28 -3.09289 -3.42255 0
M  V30 12827 H 1222.52 -2.95963 -3.17157 0
M  V30 12828 H 1223.19 -2.74203 -4.79079 0
M  V30 12829 H 1225.67 -0.964182 -4.04775 0
M  V30 12830 H 1224.55 -0.8357 -5.42501 0
M  V30 12831 H 1224.81 0.556256 -4.38587 0
M  V30 12832 N 1223.87 1.39211 -0.738786 0
M  V30 12833 C 1224.81 2.32424 -0.0904601 0
M  V30 12834 C 1225.81 1.53258 0.721694 0
M  V30 12835 O 1227.01 1.68895 0.622454 0
M  V30 12836 H 1223.39 0.751927 -0.010453 0
M  V30 12837 H 1225.36 2.84726 -0.892945 0
M  V30 12838 C 1224.11 3.38377 0.799783 0
M  V30 12839 H 1223.43 3.99375 0.18424 0
M  V30 12840 H 1224.87 4.0604 1.22096 0
M  V30 12841 C 1223.33 2.75734 1.93578 0
M  V30 12842 O 1223.86 2.63876 3.02874 0
M  V30 12843 N 1222.07 2.33764 1.72634 0
M  V30 12844 H 1221.61 2.43609 0.837413 0
M  V30 12845 H 1221.57 1.92191 2.48817 0
M  V30 12846 N 1225.34 0.486708 1.49896 0
M  V30 12847 C 1226.62 -0.125183 1.95199 0
M  V30 12848 C 1227 -1.55498 1.42771 0
M  V30 12849 O 1226.35 -2.1949 0.635322 0
M  V30 12850 C 1226.56 -0.0524982 3.48961 0
M  V30 12851 C 1227.91 -0.233595 4.23957 0
M  V30 12852 O 1228.93 -0.128357 3.55969 0
M  V30 12853 O 1227.79 -0.447862 5.44662 0
M  V30 12854 H 1224.88 -0.103141 0.820543 0
M  V30 12855 H 1227.43 0.548226 1.60601 0
M  V30 12856 H 1226.2 0.945163 3.79714 0
M  V30 12857 H 1225.83 -0.766683 3.90138 0
M  V30 12858 N 1226.82 -1.56058 0.219941 0
M  V30 12859 C 1227.73 -2.23844 -0.70222 0
M  V30 12860 C 1228.75 -1.24554 -1.215 0
M  V30 12861 O 1229.93 -1.57362 -1.25695 0
M  V30 12862 C 1226.99 -2.90384 -1.89416 0
M  V30 12863 C 1226.05 -4.05012 -1.42351 0
M  V30 12864 C 1225.28 -4.68369 -2.55863 0
M  V30 12865 O 1225.51 -4.3071 -3.73958 0
M  V30 12866 O 1224.44 -5.5739 -2.27157 0
M  V30 12867 H 1228.27 -3.03305 -0.15478 0
M  V30 12868 H 1225.85 -1.49396 -0.010438 0
M  V30 12869 H 1227.73 -3.32389 -2.59028 0
M  V30 12870 H 1226.41 -2.13883 -2.42973 0
M  V30 12871 H 1225.32 -3.67579 -0.695448 0
M  V30 12872 H 1226.65 -4.83251 -0.934332 0
M  V30 12873 N 1228.3 0.053464 -1.57509 0
M  V30 12874 C 1229.55 0.750212 -1.88414 0
M  V30 12875 C 1229.88 1.76288 -0.814619 0
M  V30 12876 O 1229.16 1.93728 0.173136 0
M  V30 12877 C 1229.44 1.44176 -3.29978 0
M  V30 12878 C 1229.29 0.444263 -4.47601 0
M  V30 12879 C 1230.61 2.38207 -3.70061 0
M  V30 12880 H 1227.73 0.271266 -0.685262 0
M  V30 12881 H 1230.37 0.0131676 -1.89995 0
M  V30 12882 H 1228.52 2.07001 -3.2876 0
M  V30 12883 H 1230.19 -0.180182 -4.60948 0
M  V30 12884 H 1228.44 -0.238771 -4.33142 0
M  V30 12885 H 1229.11 0.966134 -5.43479 0
M  V30 12886 H 1231.58 1.85446 -3.7249 0
M  V30 12887 H 1230.46 2.83588 -4.69967 0
M  V30 12888 H 1230.72 3.23821 -3.00985 0
M  V30 12889 N 1229.78 1.54207 0.325255 0
M  V30 12890 C 1231.2 1.44879 0.669492 0
M  V30 12891 C 1231.4 0.620298 1.91715 0
M  V30 12892 O 1230.45 0.118435 2.52222 0
M  V30 12893 C 1231.76 2.88581 0.845077 0
M  V30 12894 C 1233.31 2.98472 0.942527 0
M  V30 12895 C 1233.79 4.4332 1.15029 0
M  V30 12896 N 1235.28 4.46925 1.21707 0
M  V30 12897 C 1236.01 5.56155 1.39568 0
M  V30 12898 N 1235.51 6.75357 1.54483 0
M  V30 12899 N 1237.3 5.43799 1.42263 0
M  V30 12900 H 1229.45 2.06556 -0.494819 0
M  V30 12901 H 1231.72 0.934474 -0.159568 0
M  V30 12902 H 1231.42 3.517 -0.000442996 0
M  V30 12903 H 1231.3 3.34596 1.74141 0
M  V30 12904 H 1233.68 2.35481 1.77855 0
M  V30 12905 H 1233.76 2.5579 0.0226995 0
M  V30 12906 H 1233.41 5.06896 0.319127 0
M  V30 12907 H 1233.34 4.8361 2.08397 0
M  V30 12908 H 1235.83 3.61036 1.11632 0
M  V30 12909 H 1236.14 7.54363 1.67799 0
M  V30 12910 H 1234.49 6.78268 1.51584 0
M  V30 12911 H 1237.68 4.49627 1.30205 0
M  V30 12912 H 1237.85 6.28982 1.5584 0
M  V30 12913 N 1231.26 -0.58723 1.46251 0
M  V30 12914 C 1232.49 -1.36976 1.54665 0
M  V30 12915 C 1232.9 -1.88293 0.185079 0
M  V30 12916 O 1232.24 -1.64028 -0.82707 0
M  V30 12917 C 1232.3 -2.59591 2.48702 0
M  V30 12918 C 1231.96 -2.29773 3.95036 0
M  V30 12919 C 1232.96 -1.88885 4.84374 0
M  V30 12920 C 1230.65 -2.42057 4.40129 0
M  V30 12921 C 1232.64 -1.60669 6.16818 0
M  V30 12922 C 1230.33 -2.13454 5.72609 0
M  V30 12923 C 1231.33 -1.72824 6.60773 0
M  V30 12924 O 1231.01 -1.44569 7.90794 0
M  V30 12925 H 1230.75 -0.424968 0.525717 0
M  V30 12926 H 1233.3 -0.721298 1.92319 0
M  V30 12927 H 1231.53 -3.27226 2.06058 0
M  V30 12928 H 1233.22 -3.21656 2.47573 0
M  V30 12929 H 1233.98 -1.78913 4.50794 0
M  V30 12930 H 1229.86 -2.72644 3.71734 0
M  V30 12931 H 1233.41 -1.28882 6.85591 0
M  V30 12932 H 1229.3 -2.23048 6.05739 0
M  V30 12933 H 1230.07 -1.58452 8.03016 0
M  V30 12934 N 1232.74 -1.33881 -0.831482 0
M  V30 12935 C 1234.15 -1.23112 -1.40358 0
M  V30 12936 C 1234.5 0.146944 -1.95649 0
M  V30 12937 O 1233.62 1.04689 -1.89391 0
M  V30 12938 C 1234.22 -2.22899 -2.5515 0
M  V30 12939 C 1232.78 -2.15946 -3.08292 0
M  V30 12940 C 1231.92 -2.09975 -1.81124 0
M  V30 12941 H 1234.87 -1.45372 -0.63661 0
M  V30 12942 H 1234.9 -1.841 -3.32997 0
M  V30 12943 H 1234.41 -3.23186 -2.14878 0
M  V30 12944 H 1232.51 -1.18987 -3.53091 0
M  V30 12945 H 1232.62 -3.06822 -3.67964 0
M  V30 12946 H 1230.99 -1.55564 -2.01673 0
M  V30 12947 H 1231.77 -3.12082 -1.43037 0
M  V30 12948 N 1234.21 1.05064 -1.1747 0
M  V30 12949 C 1235.63 1.30256 -0.922248 0
M  V30 12950 C 1235.83 1.97119 0.417896 0
M  V30 12951 O 1234.89 2.24557 1.15457 0
M  V30 12952 C 1236.2 2.17109 -2.08049 0
M  V30 12953 C 1237.75 2.30487 -2.11766 0
M  V30 12954 C 1238.22 3.20701 -3.26979 0
M  V30 12955 N 1239.71 3.28287 -3.26775 0
M  V30 12956 C 1240.45 3.98218 -4.12565 0
M  V30 12957 N 1239.94 4.70567 -5.08467 0
M  V30 12958 N 1241.74 3.94395 -4.00511 0
M  V30 12959 H 1233.89 0.600653 -2.0373 0
M  V30 12960 H 1236.15 0.327475 -0.889643 0
M  V30 12961 H 1235.86 1.75273 -3.04914 0
M  V30 12962 H 1235.73 3.1775 -2.03261 0
M  V30 12963 H 1238.12 2.71564 -1.15486 0
M  V30 12964 H 1238.2 1.29471 -2.20615 0
M  V30 12965 H 1237.84 2.80337 -4.23525 0
M  V30 12966 H 1237.77 4.21725 -3.15366 0
M  V30 12967 H 1240.26 2.76739 -2.5734 0
M  V30 12968 H 1240.58 5.21492 -5.70321 0
M  V30 12969 H 1238.92 4.69505 -5.12436 0
M  V30 12970 H 1242.11 3.37 -3.24882 0
M  V30 12971 H 1242.29 4.48626 -4.67588 0
M  V30 12972 N 1235.69 0.975146 1.23809 0
M  V30 12973 C 1236.94 0.641124 1.92083 0
M  V30 12974 C 1237.27 -0.824671 1.76152 0
M  V30 12975 O 1236.52 -1.6097 1.11298 0
M  V30 12976 C 1236.82 0.971016 3.43956 0
M  V30 12977 C 1236.49 2.42616 3.80063 0
M  V30 12978 C 1235.15 2.82386 3.8963 0
M  V30 12979 C 1237.5 3.37019 3.97577 0
M  V30 12980 C 1234.83 4.15585 4.14133 0
M  V30 12981 C 1237.18 4.69855 4.23579 0
M  V30 12982 C 1235.84 5.09391 4.31366 0
M  V30 12983 H 1235.11 0.234604 0.702881 0
M  V30 12984 H 1237.76 1.22803 1.46941 0
M  V30 12985 H 1236.07 0.301965 3.90635 0
M  V30 12986 H 1237.76 0.690858 3.95004 0
M  V30 12987 H 1234.35 2.10782 3.73187 0
M  V30 12988 H 1238.54 3.07474 3.89581 0
M  V30 12989 H 1233.79 4.45831 4.18383 0
M  V30 12990 H 1237.97 5.42966 4.36074 0
M  V30 12991 H 1235.59 6.12624 4.50106 0
M  V30 12992 N 1237.17 -1.38817 0.746158 0
M  V30 12993 C 1238.1 -2.33144 0.128836 0
M  V30 12994 C 1239.08 -1.54487 -0.711873 0
M  V30 12995 O 1240.27 -1.82836 -0.654577 0
M  V30 12996 C 1237.4 -3.38639 -0.770772 0
M  V30 12997 C 1236.35 -4.27987 -0.0333669 0
M  V30 12998 C 1235.68 -5.24274 -1.05073 0
M  V30 12999 C 1236.98 -5.09915 1.13066 0
M  V30 13000 H 1238.67 -2.85019 0.916778 0
M  V30 13001 H 1236.22 -1.37039 0.442306 0
M  V30 13002 H 1238.17 -4.03587 -1.21225 0
M  V30 13003 H 1236.89 -2.8523 -1.59095 0
M  V30 13004 H 1235.55 -3.64534 0.388612 0
M  V30 13005 H 1235.2 -4.67156 -1.86478 0
M  V30 13006 H 1234.9 -5.84906 -0.562037 0
M  V30 13007 H 1236.42 -5.92099 -1.49169 0
M  V30 13008 H 1237.84 -5.68145 0.767084 0
M  V30 13009 H 1236.23 -5.79744 1.54972 0
M  V30 13010 H 1237.3 -4.4409 1.94709 0
M  V30 13011 N 1238.65 -0.49465 -1.49636 0
M  V30 13012 C 1239.87 0.051305 -2.07337 0
M  V30 13013 C 1240.3 1.30637 -1.35335 0
M  V30 13014 O 1239.66 1.76647 -0.408126 0
M  V30 13015 C 1239.7 0.294425 -3.59396 0
M  V30 13016 O 1238.81 1.3704 -3.88965 0
M  V30 13017 H 1238.15 -0.023408 -0.663587 0
M  V30 13018 H 1240.68 -0.692451 -1.92526 0
M  V30 13019 H 1240.69 0.527854 -4.04571 0
M  V30 13020 H 1239.36 -0.622583 -4.11214 0
M  V30 13021 H 1237.94 1.12242 -3.55607 0
M  V30 13022 N 1240.13 1.55939 -0.228214 0
M  V30 13023 C 1241.09 2.1932 0.665681 0
M  V30 13024 C 1242.09 1.15699 1.11671 0
M  V30 13025 O 1243.28 1.40893 1.02444 0
M  V30 13026 C 1240.41 2.82185 1.9127 0
M  V30 13027 H 1241.6 2.99687 0.112986 0
M  V30 13028 H 1239.16 1.56285 0.0213865 0
M  V30 13029 H 1239.89 2.05706 2.5071 0
M  V30 13030 H 1239.68 3.58073 1.5977 0
M  V30 13031 H 1241.17 3.30748 2.54942 0
M  V30 13032 N 1241.6 -0.0451101 1.57535 0
M  V30 13033 C 1242.51 -1.06796 2.08882 0
M  V30 13034 C 1243.53 -1.40682 1.02394 0
M  V30 13035 O 1244.71 -1.50324 1.34033 0
M  V30 13036 C 1241.77 -2.35467 2.54472 0
M  V30 13037 C 1240.83 -2.0831 3.75374 0
M  V30 13038 C 1240.07 -3.30846 4.1878 0
M  V30 13039 O 1240.29 -4.40945 3.61834 0
M  V30 13040 O 1239.22 -3.17488 5.11356 0
M  V30 13041 H 1243.05 -0.661658 2.96405 0
M  V30 13042 H 1240.63 -0.26104 1.47102 0
M  V30 13043 H 1242.52 -3.11143 2.84198 0
M  V30 13044 H 1241.19 -2.75425 1.70068 0
M  V30 13045 H 1240.1 -1.30254 3.50692 0
M  V30 13046 H 1241.43 -1.73218 4.60713 0
M  V30 13047 N 1243.08 -1.54377 -0.317073 0
M  V30 13048 C 1244.05 -1.83488 -1.37349 0
M  V30 13049 C 1245.05 -0.706981 -1.44424 0
M  V30 13050 O 1246.24 -0.975289 -1.44339 0
M  V30 13051 C 1243.37 -2.00074 -2.76013 0
M  V30 13052 H 1244.56 -2.77883 -1.12789 0
M  V30 13053 H 1242.11 -1.46194 -0.552902 0
M  V30 13054 H 1242.85 -1.07913 -3.05819 0
M  V30 13055 H 1242.63 -2.82155 -2.7227 0
M  V30 13056 H 1244.12 -2.24022 -3.52426 0
M  V30 13057 N 1244.56 0.579466 -1.4656 0
M  V30 13058 C 1245.81 1.33379 -1.51304 0
M  V30 13059 C 1246.12 1.94855 -0.170507 0
M  V30 13060 O 1247.33 2.71331 -0.0957704 0
M  V30 13061 C 1245.78 2.41748 -2.66619 0
M  V30 13062 C 1245.39 1.8656 -4.07307 0
M  V30 13063 C 1247.14 3.18502 -2.80636 0
M  V30 13064 C 1245.04 2.92578 -5.13957 0
M  V30 13065 H 1243.97 0.501422 -0.56311 0
M  V30 13066 H 1246.62 0.618025 -1.72779 0
M  V30 13067 H 1245.01 3.16138 -2.3848 0
M  V30 13068 H 1246.18 1.18692 -4.45252 0
M  V30 13069 H 1244.5 1.22464 -3.97984 0
M  V30 13070 H 1247.09 3.9763 -3.57483 0
M  V30 13071 H 1247.44 3.71295 -1.8827 0
M  V30 13072 H 1247.97 2.51219 -3.08437 0
M  V30 13073 H 1244.71 2.44668 -6.08126 0
M  V30 13074 H 1244.23 3.58926 -4.80554 0
M  V30 13075 H 1245.91 3.56471 -5.39942 0
M  V30 13076 N 1246.04 1.3432 0.824371 0
M  V30 13077 C 1247.29 1.26345 1.57738 0
M  V30 13078 C 1247.61 -0.166836 1.94285 0
M  V30 13079 O 1246.88 -1.09911 1.62162 0
M  V30 13080 H 1245.46 0.46466 0.584893 0
M  V30 13081 H 1248.12 1.68214 0.984373 0
M  V30 13082 H 1247.22 1.8672 2.50084 0
M  V30 13083 N 1247.52 -1.0444 1.18026 0
M  V30 13084 C 1248.77 -1.7697 0.9677 0
M  V30 13085 C 1249.08 -1.88995 -0.503994 0
M  V30 13086 O 1250.28 -2.58342 -0.834968 0
M  V30 13087 C 1248.74 -3.1816 1.68232 0
M  V30 13088 C 1248.35 -3.14241 3.19307 0
M  V30 13089 C 1250.09 -3.95095 1.55244 0
M  V30 13090 C 1248 -4.50266 3.83425 0
M  V30 13091 H 1246.93 -0.663355 0.358436 0
M  V30 13092 H 1249.58 -1.17003 1.4136 0
M  V30 13093 H 1247.96 -3.78501 1.16418 0
M  V30 13094 H 1249.14 -2.63373 3.78115 0
M  V30 13095 H 1247.45 -2.50805 3.32394 0
M  V30 13096 H 1250.05 -4.95681 2.00511 0
M  V30 13097 H 1250.39 -4.13236 0.504125 0
M  V30 13098 H 1250.92 -3.4132 2.04317 0
M  V30 13099 H 1247.66 -4.37329 4.88286 0
M  V30 13100 H 1247.18 -5.01251 3.29404 0
M  V30 13101 H 1248.86 -5.1919 3.86071 0
M  V30 13102 N 1248.99 -0.981699 -1.2329 0
M  V30 13103 C 1249.93 -0.467781 -2.23354 0
M  V30 13104 C 1250.91 0.465814 -1.55785 0
M  V30 13105 O 1252.09 0.393959 -1.84337 0
M  V30 13106 C 1249.22 0.323133 -3.37155 0
M  V30 13107 C 1248.26 -0.554796 -4.22876 0
M  V30 13108 S 1249.1 -2.00343 -4.96612 0
M  V30 13109 C 1250.25 -1.22169 -6.13861 0
M  V30 13110 H 1250.48 -1.31573 -2.66601 0
M  V30 13111 H 1248.02 -0.787793 -1.3279 0
M  V30 13112 H 1249.98 0.773448 -4.03148 0
M  V30 13113 H 1248.64 1.14622 -2.92439 0
M  V30 13114 H 1247.83 0.0531667 -5.03972 0
M  V30 13115 H 1247.43 -0.94141 -3.61958 0
M  V30 13116 H 1249.72 -0.483668 -6.75771 0
M  V30 13117 H 1250.67 -2.00752 -6.79046 0
M  V30 13118 H 1251.07 -0.739905 -5.5963 0
M  V30 13119 N 1250.47 1.3842 -0.753509 0
M  V30 13120 C 1251.89 1.53668 -0.431095 0
M  V30 13121 C 1252.09 1.71626 1.05578 0
M  V30 13122 O 1251.14 1.72723 1.84182 0
M  V30 13123 C 1252.46 2.74381 -1.23027 0
M  V30 13124 C 1254.01 2.8823 -1.22034 0
M  V30 13125 C 1254.48 4.11904 -2.00248 0
M  V30 13126 N 1255.97 4.18981 -1.97508 0
M  V30 13127 C 1256.71 5.13667 -2.5482 0
M  V30 13128 N 1256.2 6.14027 -3.20846 0
M  V30 13129 N 1258 5.06017 -2.44751 0
M  V30 13130 H 1250.15 1.25012 -1.71714 0
M  V30 13131 H 1252.41 0.607296 -0.727939 0
M  V30 13132 H 1252.12 2.67515 -2.28317 0
M  V30 13133 H 1251.99 3.67565 -0.847098 0
M  V30 13134 H 1254.38 2.94578 -0.175502 0
M  V30 13135 H 1254.46 1.96057 -1.64303 0
M  V30 13136 H 1254.1 4.06318 -3.04742 0
M  V30 13137 H 1254.03 5.03157 -1.55373 0
M  V30 13138 H 1256.52 3.47104 -1.49423 0
M  V30 13139 H 1256.84 6.82771 -3.61999 0
M  V30 13140 H 1255.18 6.1436 -3.24941 0
M  V30 13141 H 1258.37 4.26552 -1.92797 0
M  V30 13142 H 1258.54 5.7963 -2.89713 0
M  V30 13143 N 1251.95 0.502579 1.49372 0
M  V30 13144 C 1253.37 0.158641 1.5881 0
M  V30 13145 C 1253.57 -1.33688 1.50764 0
M  V30 13146 O 1252.62 -2.11295 1.38241 0
M  V30 13147 C 1253.94 0.736843 2.91532 0
M  V30 13148 C 1255.48 0.703093 3.05001 0
M  V30 13149 C 1255.96 1.25938 4.40345 0
M  V30 13150 N 1257.45 1.22015 4.46841 0
M  V30 13151 C 1258.18 1.62076 5.50017 0
M  V30 13152 N 1257.68 2.09736 6.6029 0
M  V30 13153 N 1259.47 1.53482 5.4074 0
M  V30 13154 H 1251.62 1.47487 1.52844 0
M  V30 13155 H 1253.89 0.611851 0.724115 0
M  V30 13156 H 1253.59 1.78573 3.02992 0
M  V30 13157 H 1253.47 0.198178 3.76679 0
M  V30 13158 H 1255.85 -0.336965 2.9317 0
M  V30 13159 H 1255.94 1.27892 2.21534 0
M  V30 13160 H 1255.58 2.29823 4.52928 0
M  V30 13161 H 1255.51 0.659481 5.22454 0
M  V30 13162 H 1258 0.870957 3.67726 0
M  V30 13163 H 1258.31 2.3837 7.35119 0
M  V30 13164 H 1256.66 2.13712 6.61326 0
M  V30 13165 H 1259.85 1.16065 4.53483 0
M  V30 13166 H 1260.02 1.85026 6.21023 0
M  V30 13167 N 1253.43 -1.55816 0.23648 0
M  V30 13168 C 1254.36 -2.23924 -0.661834 0
M  V30 13169 C 1255.34 -1.21597 -1.18946 0
M  V30 13170 O 1256.52 -1.50222 -1.23073 0
M  V30 13171 C 1253.65 -2.93069 -1.86355 0
M  V30 13172 C 1252.61 -4.01996 -1.46913 0
M  V30 13173 C 1251.93 -4.58512 -2.75083 0
M  V30 13174 C 1253.23 -5.18265 -0.647964 0
M  V30 13175 H 1254.93 -2.99253 -0.0939368 0
M  V30 13176 H 1252.47 -1.43934 -0.0437407 0
M  V30 13177 H 1254.43 -3.39412 -2.49755 0
M  V30 13178 H 1253.15 -2.15212 -2.45665 0
M  V30 13179 H 1251.81 -3.56406 -0.858522 0
M  V30 13180 H 1251.46 -3.77368 -3.3257 0
M  V30 13181 H 1251.16 -5.32037 -2.49421 0
M  V30 13182 H 1252.68 -5.07583 -3.39399 0
M  V30 13183 H 1254.1 -5.60898 -1.18602 0
M  V30 13184 H 1252.49 -5.98114 -0.487823 0
M  V30 13185 H 1253.56 -4.83691 0.342151 0
M  V30 13186 N 1254.91 0.036755 -1.57557 0
M  V30 13187 C 1255.84 1.03939 -2.09091 0
M  V30 13188 C 1256.82 1.38196 -0.991761 0
M  V30 13189 O 1258 1.47214 -1.26656 0
M  V30 13190 C 1255.13 2.34263 -2.56394 0
M  V30 13191 C 1254.09 2.14269 -3.70504 0
M  V30 13192 C 1253.41 3.50286 -4.03985 0
M  V30 13193 C 1254.71 1.53514 -4.9923 0
M  V30 13194 H 1256.41 0.610429 -2.93111 0
M  V30 13195 H 1253.95 0.292183 -1.41005 0
M  V30 13196 H 1255.91 3.04727 -2.91066 0
M  V30 13197 H 1254.63 2.79205 -1.69447 0
M  V30 13198 H 1253.29 1.46239 -3.36169 0
M  V30 13199 H 1252.94 3.92861 -3.14116 0
M  V30 13200 H 1252.64 3.37735 -4.80842 0
M  V30 13201 H 1254.16 4.22124 -4.41184 0
M  V30 13202 H 1255.57 2.13885 -5.31908 0
M  V30 13203 H 1253.97 1.51561 -5.80646 0
M  V30 13204 H 1255.04 0.500126 -4.82314 0
M  V30 13205 N 1256.39 1.54543 0.308881 0
M  V30 13206 C 1257.8 1.45581 0.654088 0
M  V30 13207 C 1258 0.640597 1.91046 0
M  V30 13208 O 1257.06 0.14518 2.52082 0
M  V30 13209 C 1258.37 2.89461 0.814422 0
M  V30 13210 C 1259.92 2.99455 0.910817 0
M  V30 13211 C 1260.39 4.44515 1.10321 0
M  V30 13212 N 1261.88 4.4819 1.1696 0
M  V30 13213 C 1262.62 5.57604 1.33661 0
M  V30 13214 N 1262.12 6.76957 1.47311 0
M  V30 13215 N 1263.91 5.45278 1.36487 0
M  V30 13216 H 1256.06 2.06019 -0.516699 0
M  V30 13217 H 1258.32 0.932729 -0.169471 0
M  V30 13218 H 1258.03 3.5168 -0.0377455 0
M  V30 13219 H 1257.9 3.36425 1.70582 0
M  V30 13220 H 1260.29 2.37355 1.75348 0
M  V30 13221 H 1260.37 2.558 -0.00443172 0
M  V30 13222 H 1260.01 5.07206 0.265346 0
M  V30 13223 H 1259.94 4.85793 2.03256 0
M  V30 13224 H 1262.44 3.62199 1.07796 0
M  V30 13225 H 1262.75 7.561 1.59788 0
M  V30 13226 H 1261.09 6.79837 1.44382 0
M  V30 13227 H 1264.28 4.50983 1.25429 0
M  V30 13228 H 1264.46 6.30599 1.4916 0
M  V30 13229 N 1257.86 -0.571685 1.46866 0
M  V30 13230 C 1259.28 -0.896172 1.32064 0
M  V30 13231 C 1259.48 -1.9925 0.300291 0
M  V30 13232 O 1258.54 -2.50791 -0.293284 0
M  V30 13233 C 1259.85 -1.3031 2.70998 0
M  V30 13234 C 1261.4 -1.41533 2.79173 0
M  V30 13235 C 1261.87 -1.85587 4.18714 0
M  V30 13236 N 1263.36 -1.92762 4.21185 0
M  V30 13237 C 1264.1 -2.28148 5.26057 0
M  V30 13238 N 1263.59 -2.62248 6.41247 0
M  V30 13239 N 1265.39 -2.28797 5.13428 0
M  V30 13240 H 1257.54 0.152349 2.11853 0
M  V30 13241 H 1259.8 0.00548777 0.947984 0
M  V30 13242 H 1259.51 -0.571469 3.47026 0
M  V30 13243 H 1259.38 -2.26233 3.01826 0
M  V30 13244 H 1261.77 -2.1378 2.03426 0
M  V30 13245 H 1261.85 -0.438342 2.52016 0
M  V30 13246 H 1261.49 -1.13915 4.9496 0
M  V30 13247 H 1261.42 -2.84264 4.43285 0
M  V30 13248 H 1263.91 -1.68854 3.38078 0
M  V30 13249 H 1264.23 -2.88234 7.17036 0
M  V30 13250 H 1262.57 -2.59861 6.44591 0
M  V30 13251 H 1265.76 -2.01587 4.22469 0
M  V30 13252 H 1265.94 -2.56045 5.95269 0
M  V30 13253 N 1259.34 -1.34755 -0.817236 0
M  V30 13254 C 1260.29 -1.26816 -1.94988 0
M  V30 13255 C 1261.28 -0.165142 -1.68593 0
M  V30 13256 O 1262.49 -0.330469 -1.7694 0
M  V30 13257 H 1258.86 -0.394113 -0.640452 0
M  V30 13258 H 1260.84 -2.22528 -1.98806 0
M  V30 13259 C 1259.58 -1.04625 -3.31586 0
M  V30 13260 H 1258.91 -1.88735 -3.52447 0
M  V30 13261 H 1260.35 -1.03108 -4.11272 0
M  V30 13262 C 1258.81 0.250283 -3.35969 0
M  V30 13263 O 1259.34 1.24972 -3.81765 0
M  V30 13264 N 1257.54 0.285369 -2.89195 0
M  V30 13265 H 1257.09 -0.528528 -2.5212 0
M  V30 13266 H 1257.05 1.15261 -2.9251 0
M  V30 13267 N 1260.82 1.03812 -1.18578 0
M  V30 13268 C 1262.23 1.58509 -0.986496 0
M  V30 13269 C 1262.58 1.90655 0.463136 0
M  V30 13270 O 1261.71 1.69847 1.34093 0
M  V30 13271 C 1262.3 2.88 -1.78441 0
M  V30 13272 C 1260.86 3.39304 -1.6294 0
M  V30 13273 C 1260.01 2.12857 -1.77727 0
M  V30 13274 H 1262.96 0.864528 -1.33085 0
M  V30 13275 H 1262.98 3.58502 -1.27501 0
M  V30 13276 H 1262.49 2.64572 -2.83942 0
M  V30 13277 H 1260.59 3.6774 -0.599864 0
M  V30 13278 H 1260.71 4.12959 -2.42902 0
M  V30 13279 H 1259.07 2.24285 -1.20699 0
M  V30 13280 H 1259.85 1.91882 -2.84669 0
M  V30 13281 N 1262.3 0.988223 1.22768 0
M  V30 13282 C 1263.21 0.543407 2.2822 0
M  V30 13283 C 1264.22 -0.405563 1.69208 0
M  V30 13284 O 1265.4 -0.273551 1.99534 0
M  V30 13285 C 1262.46 -0.139495 3.46419 0
M  V30 13286 C 1261.53 0.851853 4.20764 0
M  V30 13287 C 1260.76 0.201446 5.3332 0
M  V30 13288 O 1260.98 -1.00573 5.61464 0
M  V30 13289 O 1259.92 0.903956 5.95073 0
M  V30 13290 H 1263.74 1.42059 2.68427 0
M  V30 13291 H 1261.33 0.756239 1.28846 0
M  V30 13292 H 1263.21 -0.522226 4.18152 0
M  V30 13293 H 1261.88 -0.991315 3.08147 0
M  V30 13294 H 1260.79 1.28543 3.51322 0
M  V30 13295 H 1262.12 1.67273 4.62905 0
M  V30 13296 N 1263.78 -1.38018 0.760839 0
M  V30 13297 C 1265.19 -1.53437 0.439239 0
M  V30 13298 C 1265.39 -1.72184 -1.04666 0
M  V30 13299 O 1264.45 -1.73698 -1.83263 0
M  V30 13300 C 1265.76 -2.73724 1.24481 0
M  V30 13301 C 1267.31 -2.87579 1.23561 0
M  V30 13302 C 1267.78 -4.10836 2.02429 0
M  V30 13303 N 1269.27 -4.17928 1.99727 0
M  V30 13304 C 1270.01 -5.12309 2.57541 0
M  V30 13305 N 1269.51 -6.12317 3.24098 0
M  V30 13306 N 1271.3 -5.04712 2.47431 0
M  V30 13307 H 1263.45 -1.241 1.72375 0
M  V30 13308 H 1265.71 -0.603427 0.73115 0
M  V30 13309 H 1265.42 -2.663 2.29732 0
M  V30 13310 H 1265.29 -3.67111 0.866579 0
M  V30 13311 H 1267.68 -2.9448 0.191122 0
M  V30 13312 H 1267.76 -1.95183 1.6534 0
M  V30 13313 H 1267.4 -4.04696 3.06893 0
M  V30 13314 H 1267.33 -5.02326 1.58039 0
M  V30 13315 H 1269.83 -3.46307 1.51262 0
M  V30 13316 H 1270.14 -6.80842 3.65615 0
M  V30 13317 H 1268.48 -6.12628 3.28195 0
M  V30 13318 H 1271.67 -4.25524 1.95057 0
M  V30 13319 H 1271.85 -5.78085 2.92783 0
M  V30 13320 N 1265.25 -0.510493 -1.49103 0
M  V30 13321 C 1266.67 -0.167061 -1.58723 0
M  V30 13322 C 1266.87 1.32886 -1.51471 0
M  V30 13323 O 1265.93 2.10559 -1.39359 0
M  V30 13324 C 1267.24 -0.752293 -2.91137 0
M  V30 13325 C 1268.79 -0.719258 -3.04624 0
M  V30 13326 C 1269.26 -1.28272 -4.39671 0
M  V30 13327 N 1270.75 -1.24383 -4.46187 0
M  V30 13328 C 1271.49 -1.6499 -5.4915 0
M  V30 13329 N 1270.98 -2.13235 -6.59168 0
M  V30 13330 N 1272.78 -1.56348 -5.39918 0
M  V30 13331 H 1264.93 -1.48296 -1.5206 0
M  V30 13332 H 1267.19 -0.615683 -0.72086 0
M  V30 13333 H 1266.9 -1.80178 -3.02041 0
M  V30 13334 H 1266.77 -0.218152 -3.76569 0
M  V30 13335 H 1269.16 0.321413 -2.93344 0
M  V30 13336 H 1269.24 -1.29065 -2.20852 0
M  V30 13337 H 1268.88 -2.32222 -4.51703 0
M  V30 13338 H 1268.81 -0.687179 -5.22097 0
M  V30 13339 H 1271.3 -0.890446 -3.67259 0
M  V30 13340 H 1271.62 -2.42266 -7.33844 0
M  V30 13341 H 1269.96 -2.17216 -6.60183 0
M  V30 13342 H 1273.15 -1.18469 -4.52861 0
M  V30 13343 H 1273.33 -1.88317 -6.20033 0
M  V30 13344 N 1266.73 1.55688 -0.24474 0
M  V30 13345 C 1267.66 2.24272 0.64995 0
M  V30 13346 C 1268.64 1.22226 1.183 0
M  V30 13347 O 1269.83 1.50873 1.22274 0
M  V30 13348 C 1266.96 2.94053 1.84798 0
M  V30 13349 C 1265.91 4.02769 1.44779 0
M  V30 13350 C 1265.24 4.59965 2.72647 0
M  V30 13351 C 1266.54 5.18601 0.62047 0
M  V30 13352 H 1268.23 2.99298 0.0780654 0
M  V30 13353 H 1265.78 1.43955 0.0361069 0
M  V30 13354 H 1267.73 3.40732 2.47951 0
M  V30 13355 H 1266.45 2.16511 2.44521 0
M  V30 13356 H 1265.11 3.56856 0.839609 0
M  V30 13357 H 1264.76 3.79126 3.30564 0
M  V30 13358 H 1264.46 5.33352 2.46596 0
M  V30 13359 H 1265.99 5.09376 3.36703 0
M  V30 13360 H 1267.4 5.61519 1.15625 0
M  V30 13361 H 1265.8 5.98364 0.456097 0
M  V30 13362 H 1266.87 4.83503 -0.367798 0
M  V30 13363 N 1268.21 -0.0283989 1.57574 0
M  V30 13364 C 1269.46 -0.717656 1.88929 0
M  V30 13365 C 1269.78 -1.7586 0.842517 0
M  V30 13366 O 1269.05 -1.95509 -0.123774 0
M  V30 13367 H 1267.63 -0.268051 0.69725 0
M  V30 13368 H 1270.29 0.00580691 1.94899 0
M  V30 13369 H 1269.39 -1.2068 2.87824 0
M  V30 13370 N 1269.69 -1.54705 -0.300681 0
M  V30 13371 C 1270.91 -1.78318 -1.05913 0
M  V30 13372 C 1271.34 -0.541177 -1.80147 0
M  V30 13373 O 1270.7 0.508291 -1.74029 0
M  V30 13374 C 1270.74 -2.99041 -2.01511 0
M  V30 13375 O 1269.85 -2.72188 -3.09818 0
M  V30 13376 H 1269.19 -0.590197 -0.304242 0
M  V30 13377 H 1271.72 -2.01789 -0.338006 0
M  V30 13378 H 1271.73 -3.2702 -2.43971 0
M  V30 13379 H 1270.4 -3.89098 -1.46886 0
M  V30 13380 H 1268.98 -2.55227 -2.71871 0
M  V30 13381 N 1271.17 0.563888 -1.47167 0
M  V30 13382 C 1272.39 1.35176 -1.57297 0
M  V30 13383 C 1272.82 1.86794 -0.221235 0
M  V30 13384 O 1272.17 1.62606 0.801809 0
M  V30 13385 C 1272.22 2.50225 -2.59654 0
M  V30 13386 O 1271.33 3.5225 -2.14461 0
M  V30 13387 H 1270.67 0.401795 -0.528637 0
M  V30 13388 H 1273.2 0.682137 -1.92894 0
M  V30 13389 H 1273.21 2.96886 -2.79862 0
M  V30 13390 H 1271.88 2.1201 -3.57805 0
M  V30 13391 H 1270.46 3.1194 -2.04323 0
M  V30 13392 N 1272.64 1.35187 0.810078 0
M  V30 13393 C 1273.55 1.29926 1.95337 0
M  V30 13394 C 1274.57 0.204748 1.72791 0
M  V30 13395 O 1275.75 0.433507 1.96679 0
M  V30 13396 C 1272.81 1.06736 3.29861 0
M  V30 13397 C 1271.87 2.25466 3.65326 0
M  V30 13398 C 1271.11 2.03373 4.93432 0
M  V30 13399 O 1271.33 0.998419 5.61594 0
M  V30 13400 O 1270.26 2.90648 5.27075 0
M  V30 13401 H 1274.09 2.26137 2.02721 0
M  V30 13402 H 1271.67 1.15523 0.947354 0
M  V30 13403 H 1273.56 0.956367 4.10404 0
M  V30 13404 H 1272.23 0.135735 3.23415 0
M  V30 13405 H 1271.14 2.42129 2.85175 0
M  V30 13406 H 1272.47 3.17063 3.76473 0
M  V30 13407 N 1274.12 -1.03182 1.19127 0
M  V30 13408 C 1275.54 -1.28773 0.942854 0
M  V30 13409 C 1275.74 -1.97759 -0.386483 0
M  V30 13410 O 1274.79 -2.26365 -1.1187 0
M  V30 13411 C 1276.11 -2.13771 2.11476 0
M  V30 13412 C 1277.66 -2.27089 2.15406 0
M  V30 13413 C 1278.13 -3.15458 3.32039 0
M  V30 13414 N 1279.62 -3.23046 3.31957 0
M  V30 13415 C 1280.36 -3.91604 4.18848 0
M  V30 13416 N 1279.85 -4.62418 5.15889 0
M  V30 13417 N 1281.65 -3.87974 4.06734 0
M  V30 13418 H 1273.8 -0.568165 2.0466 0
M  V30 13419 H 1276.06 -0.31328 0.89474 0
M  V30 13420 H 1275.77 -1.704 3.07663 0
M  V30 13421 H 1275.64 -3.14476 2.0829 0
M  V30 13422 H 1278.03 -2.69693 1.19791 0
M  V30 13423 H 1278.11 -1.25945 2.22647 0
M  V30 13424 H 1277.75 -2.73564 4.27931 0
M  V30 13425 H 1277.68 -4.16654 3.22035 0
M  V30 13426 H 1280.17 -2.7261 2.6171 0
M  V30 13427 H 1280.49 -5.12353 5.78545 0
M  V30 13428 H 1278.83 -4.61293 5.1984 0
M  V30 13429 H 1282.02 -3.31789 3.30202 0
M  V30 13430 H 1282.19 -4.4113 4.74666 0
M  V30 13431 N 1275.6 -0.99472 -1.22242 0
M  V30 13432 C 1276.88 -0.587481 -1.86569 0
M  V30 13433 C 1277.26 0.935174 -1.89256 0
M  V30 13434 O 1276.61 1.81787 -1.3844 0
M  V30 13435 C 1276.82 -1.21001 -3.27353 0
M  V30 13436 C 1278.16 -1.31167 -4.03832 0
M  V30 13437 O 1279.19 -1.16454 -3.36626 0
M  V30 13438 O 1278.05 -1.54731 -5.24138 0
M  V30 13439 H 1275.14 -0.199838 -0.802492 0
M  V30 13440 H 1277.69 -1.09071 -1.30006 0
M  V30 13441 H 1276.46 -2.25143 -3.20041 0
M  V30 13442 H 1276.08 -0.692479 -3.91523 0
M  V30 13443 N 1277.08 1.37613 -0.768148 0
M  V30 13444 C 1278.04 2.28653 -0.158283 0
M  V30 13445 C 1279.04 1.47862 0.631936 0
M  V30 13446 O 1280.23 1.68124 0.456055 0
M  V30 13447 C 1277.36 3.31776 0.783435 0
M  V30 13448 H 1278.56 2.84094 -0.960772 0
M  V30 13449 H 1276.11 1.46818 -0.536116 0
M  V30 13450 H 1276.84 2.81452 1.61106 0
M  V30 13451 H 1276.63 3.91488 0.219016 0
M  V30 13452 H 1278.12 3.99816 1.20568 0
M  V30 13453 N 1278.56 0.518393 1.4883 0
M  V30 13454 C 1279.47 -0.254811 2.33212 0
M  V30 13455 C 1280.48 -0.950401 1.45751 0
M  V30 13456 O 1281.66 -0.927932 1.78749 0
M  V30 13457 C 1278.72 -1.29509 3.21603 0
M  V30 13458 C 1277.78 -0.611086 4.24928 0
M  V30 13459 C 1277.02 -1.6018 5.09095 0
M  V30 13460 O 1277.24 -2.83336 4.95052 0
M  V30 13461 O 1276.17 -1.14756 5.90859 0
M  V30 13462 H 1280 0.436329 3.00549 0
M  V30 13463 H 1277.59 0.27947 1.46763 0
M  V30 13464 H 1279.47 -1.89654 3.7631 0
M  V30 13465 H 1278.14 -1.96884 2.5694 0
M  V30 13466 H 1277.05 0.0305638 3.74088 0
M  V30 13467 H 1278.38 0.0205249 4.92196 0
M  V30 13468 N 1280.03 -1.55556 0.252993 0
M  V30 13469 C 1281.31 -1.91022 -0.420696 0
M  V30 13470 C 1281.69 -1.17452 -1.75409 0
M  V30 13471 O 1281.04 -0.294 -2.26601 0
M  V30 13472 C 1281.25 -3.441 -0.582787 0
M  V30 13473 C 1282.6 -4.15468 -0.875873 0
M  V30 13474 O 1283.62 -3.49872 -0.668425 0
M  V30 13475 O 1282.48 -5.31508 -1.27128 0
M  V30 13476 H 1279.57 -0.7953 -0.226776 0
M  V30 13477 H 1282.12 -1.67072 0.297511 0
M  V30 13478 H 1280.89 -3.89673 0.356474 0
M  V30 13479 H 1280.52 -3.73933 -1.3513 0
M  V30 13480 N 1281.51 0.0200419 -1.57587 0
M  V30 13481 C 1282.76 0.710078 -1.89962 0
M  V30 13482 C 1283.09 1.74521 -0.851829 0
M  V30 13483 O 1282.37 1.94052 0.132005 0
M  V30 13484 C 1282.65 1.37145 -3.32961 0
M  V30 13485 C 1282.5 0.349221 -4.48442 0
M  V30 13486 C 1283.82 2.30304 -3.75031 0
M  V30 13487 H 1280.94 0.25667 -0.690862 0
M  V30 13488 H 1283.58 -0.0271362 -1.89981 0
M  V30 13489 H 1281.73 1.99981 -3.33076 0
M  V30 13490 H 1283.4 -0.277916 -4.60462 0
M  V30 13491 H 1281.65 -0.330594 -4.32538 0
M  V30 13492 H 1282.32 0.850636 -5.45406 0
M  V30 13493 H 1284.79 1.77503 -3.7634 0
M  V30 13494 H 1283.67 2.73555 -4.75877 0
M  V30 13495 H 1283.93 3.17364 -3.07786 0
M  V30 13496 N 1282.99 1.54862 0.292472 0
M  V30 13497 C 1283.94 1.86403 1.36098 0
M  V30 13498 C 1284.91 0.713694 1.49985 0
M  V30 13499 O 1286.09 0.963134 1.64707 0
M  V30 13500 C 1283.23 2.1244 2.71962 0
M  V30 13501 C 1282.35 3.40038 2.66454 0
M  V30 13502 C 1281.48 3.55875 3.94368 0
M  V30 13503 C 1280.52 4.77235 3.83293 0
M  V30 13504 N 1279.66 4.89832 5.03 0
M  V30 13505 H 1284.5 2.77546 1.085 0
M  V30 13506 H 1282.03 1.37427 0.524607 0
M  V30 13507 H 1283.99 2.25533 3.50985 0
M  V30 13508 H 1282.62 1.24554 2.97802 0
M  V30 13509 H 1281.67 3.35521 1.79248 0
M  V30 13510 H 1282.99 4.29188 2.54163 0
M  V30 13511 H 1282.14 3.68679 4.8183 0
M  V30 13512 H 1280.88 2.64874 4.09503 0
M  V30 13513 H 1279.88 4.64455 2.94214 0
M  V30 13514 H 1281.11 5.69651 3.69695 0
M  V30 13515 H 1279.05 4.01756 5.18582 0
M  V30 13516 H 1278.97 5.72996 4.93165 0
M  V30 13517 H 1280.24 5.07001 5.92089 0
M  V30 13518 N 1284.47 -0.556076 1.47464 0
M  V30 13519 C 1285.42 -1.66304 1.60036 0
M  V30 13520 C 1286.39 -1.60074 0.443348 0
M  V30 13521 O 1287.57 -1.7889 0.663545 0
M  V30 13522 C 1284.71 -3.04624 1.62167 0
M  V30 13523 C 1283.82 -3.21283 2.88793 0
M  V30 13524 C 1282.96 -4.50008 2.82252 0
M  V30 13525 C 1282 -4.60103 4.03698 0
M  V30 13526 N 1281.13 -5.80184 3.95387 0
M  V30 13527 H 1285.97 -1.54897 2.5458 0
M  V30 13528 H 1283.51 -0.754533 1.26274 0
M  V30 13529 H 1285.47 -3.84721 1.61386 0
M  V30 13530 H 1284.1 -3.14865 0.711348 0
M  V30 13531 H 1283.15 -2.34611 2.99436 0
M  V30 13532 H 1284.46 -3.24607 3.78724 0
M  V30 13533 H 1283.62 -5.38366 2.79726 0
M  V30 13534 H 1282.36 -4.49165 1.90005 0
M  V30 13535 H 1281.36 -3.70157 4.06527 0
M  V30 13536 H 1282.59 -4.62704 4.97073 0
M  V30 13537 H 1280.53 -5.80288 3.05944 0
M  V30 13538 H 1280.45 -5.8489 4.78998 0
M  V30 13539 H 1281.72 -6.709 3.96879 0
M  V30 13540 N 1285.95 -1.35615 -0.802897 0
M  V30 13541 C 1286.88 -1.24695 -1.92312 0
M  V30 13542 C 1287.89 -0.169409 -1.61916 0
M  V30 13543 O 1289.08 -0.422995 -1.73416 0
M  V30 13544 C 1286.18 -0.898229 -3.2678 0
M  V30 13545 C 1285.35 -2.07489 -3.85054 0
M  V30 13546 C 1284.41 -1.70137 -4.97936 0
M  V30 13547 O 1283.44 -2.42057 -5.15167 0
M  V30 13548 N 1284.64 -0.627153 -5.77102 0
M  V30 13549 H 1287.41 -2.21208 -2.02205 0
M  V30 13550 H 1284.97 -1.28832 -0.980503 0
M  V30 13551 H 1286.96 -0.629766 -3.9977 0
M  V30 13552 H 1285.53 -0.0226571 -3.12592 0
M  V30 13553 H 1284.75 -2.50694 -3.04214 0
M  V30 13554 H 1286.04 -2.86133 -4.2072 0
M  V30 13555 H 1285.44 -0.0296879 -5.65692 0
M  V30 13556 H 1283.99 -0.41848 -6.50455 0
M  V30 13557 N 1287.43 1.02549 -1.19673 0
M  V30 13558 C 1288.84 1.57454 -1.00325 0
M  V30 13559 C 1289.19 1.91136 0.442889 0
M  V30 13560 O 1288.31 1.7126 1.32284 0
M  V30 13561 C 1288.91 2.86091 -1.81486 0
M  V30 13562 C 1287.47 3.37557 -1.6653 0
M  V30 13563 C 1286.61 2.1096 -1.79975 0
M  V30 13564 H 1289.56 0.850364 -1.33994 0
M  V30 13565 H 1289.59 3.5713 -1.31296 0
M  V30 13566 H 1289.1 2.61546 -2.86733 0
M  V30 13567 H 1287.2 3.67083 -0.638834 0
M  V30 13568 H 1287.31 4.1036 -2.47269 0
M  V30 13569 H 1285.68 2.22993 -1.23071 0
M  V30 13570 H 1286.46 1.88852 -2.86688 0
M  V30 13571 N 1288.9 1.00119 1.21713 0
M  V30 13572 C 1290.15 0.681723 1.9068 0
M  V30 13573 C 1290.48 -0.787121 1.77861 0
M  V30 13574 O 1289.73 -1.58573 1.14687 0
M  V30 13575 C 1290.03 1.04376 3.41819 0
M  V30 13576 C 1289.7 2.50624 3.74831 0
M  V30 13577 C 1288.36 2.90587 3.83552 0
M  V30 13578 C 1290.71 3.45377 3.90339 0
M  V30 13579 C 1288.04 4.24276 4.05225 0
M  V30 13580 C 1290.39 4.78734 4.13517 0
M  V30 13581 C 1289.06 5.18427 4.20464 0
M  V30 13582 H 1288.33 0.24946 0.697747 0
M  V30 13583 H 1290.97 1.25892 1.44304 0
M  V30 13584 H 1289.28 0.384756 3.89906 0
M  V30 13585 H 1290.98 0.774488 3.9345 0
M  V30 13586 H 1287.57 2.18651 3.68632 0
M  V30 13587 H 1291.75 3.15669 3.82971 0
M  V30 13588 H 1287.01 4.54605 4.08833 0
M  V30 13589 H 1291.18 5.52094 4.24459 0
M  V30 13590 H 1288.81 6.22034 4.3701 0
M  V30 13591 N 1290.38 -1.37203 0.775435 0
M  V30 13592 C 1291.63 -1.99601 0.341431 0
M  V30 13593 C 1291.96 -1.61555 -1.08306 0
M  V30 13594 O 1291.21 -0.855126 -1.76029 0
M  V30 13595 C 1291.51 -3.54725 0.436426 0
M  V30 13596 C 1291.18 -4.1255 1.8197 0
M  V30 13597 C 1289.84 -4.28056 2.19822 0
M  V30 13598 C 1292.19 -4.44222 2.7261 0
M  V30 13599 C 1289.52 -4.72538 3.47742 0
M  V30 13600 C 1291.87 -4.90131 3.99943 0
M  V30 13601 C 1290.53 -5.03842 4.37835 0
M  V30 13602 H 1289.8 -0.730391 0.124938 0
M  V30 13603 H 1292.45 -1.63914 0.990177 0
M  V30 13604 H 1290.76 -3.90681 -0.295852 0
M  V30 13605 H 1292.45 -4.00916 0.0818664 0
M  V30 13606 H 1289.04 -4.00911 1.51553 0
M  V30 13607 H 1293.23 -4.31824 2.44625 0
M  V30 13608 H 1288.48 -4.81341 3.76989 0
M  V30 13609 H 1292.66 -5.13604 4.70302 0
M  V30 13610 H 1290.28 -5.3807 5.37015 0
M  V30 13611 N 1291.86 -0.526279 -1.48553 0
M  V30 13612 C 1293.28 -0.183886 -1.58537 0
M  V30 13613 C 1293.48 1.31272 -1.52872 0
M  V30 13614 O 1292.53 2.09069 -1.41585 0
M  V30 13615 C 1293.84 -0.78313 -2.90323 0
M  V30 13616 C 1295.39 -0.751527 -3.03844 0
M  V30 13617 C 1295.87 -1.32928 -4.38285 0
M  V30 13618 N 1297.36 -1.29109 -4.44843 0
M  V30 13619 C 1298.09 -1.70806 -5.47369 0
M  V30 13620 N 1297.59 -2.20215 -6.56869 0
M  V30 13621 N 1299.38 -1.62065 -5.3823 0
M  V30 13622 H 1291.53 -1.499 -1.50478 0
M  V30 13623 H 1293.8 -0.623294 -0.714289 0
M  V30 13624 H 1293.5 -1.83371 -3.00113 0
M  V30 13625 H 1293.38 -0.25808 -3.76316 0
M  V30 13626 H 1295.76 0.290282 -2.93669 0
M  V30 13627 H 1295.84 -1.314 -2.19471 0
M  V30 13628 H 1295.49 -2.37 -4.49214 0
M  V30 13629 H 1295.42 -0.742516 -5.21339 0
M  V30 13630 H 1297.91 -0.929348 -3.66294 0
M  V30 13631 H 1298.22 -2.50035 -7.31233 0
M  V30 13632 H 1296.57 -2.24206 -6.57842 0
M  V30 13633 H 1299.76 -1.23265 -4.51579 0
M  V30 13634 H 1299.93 -1.94883 -6.18001 0
M  V30 13635 N 1293.34 1.5542 -0.261239 0
M  V30 13636 C 1294.57 2.03687 0.363225 0
M  V30 13637 C 1294.98 1.14007 1.50492 0
M  V30 13638 O 1294.34 0.157349 1.8182 0
M  V30 13639 C 1294.39 3.51184 0.857435 0
M  V30 13640 O 1294.11 4.37449 -0.238776 0
M  V30 13641 C 1295.61 4.15277 1.55113 0
M  V30 13642 H 1292.83 0.665641 0.0846356 0
M  V30 13643 H 1295.37 2.00761 -0.389288 0
M  V30 13644 H 1293.53 3.54599 1.56008 0
M  V30 13645 H 1293.94 5.24316 0.138821 0
M  V30 13646 H 1295.42 5.20129 1.8485 0
M  V30 13647 H 1295.89 3.62619 2.47799 0
M  V30 13648 H 1296.5 4.15826 0.892695 0
M  V30 13649 N 1294.82 -0.0116844 1.57596 0
M  V30 13650 C 1295.75 -1.00599 2.10718 0
M  V30 13651 C 1296.73 -1.36601 1.01362 0
M  V30 13652 O 1297.91 -1.4518 1.28982 0
M  V30 13653 C 1295.04 -2.30155 2.60089 0
M  V30 13654 C 1294 -2.08347 3.73866 0
M  V30 13655 C 1293.32 -3.43814 4.09507 0
M  V30 13656 C 1294.62 -1.45552 5.01609 0
M  V30 13657 H 1296.32 -0.563721 2.94045 0
M  V30 13658 H 1293.86 -0.269714 1.41452 0
M  V30 13659 H 1295.81 -3.00058 2.95877 0
M  V30 13660 H 1294.54 -2.76473 1.73868 0
M  V30 13661 H 1293.2 -1.40872 3.38453 0
M  V30 13662 H 1292.85 -3.87814 3.20326 0
M  V30 13663 H 1292.55 -3.30043 4.86154 0
M  V30 13664 H 1294.07 -4.15052 4.47844 0
M  V30 13665 H 1295.48 -2.05396 5.35243 0
M  V30 13666 H 1293.88 -1.42304 5.82983 0
M  V30 13667 H 1294.95 -0.423331 4.83049 0
M  V30 13668 N 1296.29 -1.55015 -0.284256 0
M  V30 13669 C 1297.54 -1.74744 -1.01532 0
M  V30 13670 C 1297.86 -0.545334 -1.87219 0
M  V30 13671 O 1297.13 0.440046 -1.90894 0
M  V30 13672 H 1295.71 -0.644382 -0.377864 0
M  V30 13673 H 1298.37 -1.92399 -0.311199 0
M  V30 13674 H 1297.47 -2.64369 -1.65878 0
M  V30 13675 N 1297.77 0.548248 -1.47757 0
M  V30 13676 C 1299.02 1.30458 -1.56052 0
M  V30 13677 C 1299.37 1.91096 -0.22363 0
M  V30 13678 O 1298.67 1.75375 0.771644 0
M  V30 13679 C 1298.86 2.42911 -2.62162 0
M  V30 13680 C 1298.69 1.93293 -4.06039 0
M  V30 13681 C 1297.46 1.76727 -4.73387 0
M  V30 13682 C 1299.66 1.47214 -4.9278 0
M  V30 13683 N 1297.64 1.21543 -6.01748 0
M  V30 13684 C 1299.01 1.03855 -6.1124 0
M  V30 13685 C 1301.06 1.35348 -4.79151 0
M  V30 13686 C 1299.77 0.498086 -7.17573 0
M  V30 13687 C 1301.79 0.827023 -5.85589 0
M  V30 13688 C 1301.16 0.40341 -7.03244 0
M  V30 13689 H 1297.25 0.469075 -0.625694 0
M  V30 13690 H 1299.84 0.620405 -1.84551 0
M  V30 13691 H 1298.01 3.08847 -2.35516 0
M  V30 13692 H 1299.74 3.09924 -2.60249 0
M  V30 13693 H 1296.5 1.99709 -4.29433 0
M  V30 13694 H 1296.92 0.960132 -6.70157 0
M  V30 13695 H 1301.56 1.66708 -3.88546 0
M  V30 13696 H 1299.28 0.172123 -8.07917 0
M  V30 13697 H 1302.87 0.738641 -5.77092 0
M  V30 13698 H 1301.75 0.00236338 -7.842 0
M  V30 13699 N 1299.25 1.36039 0.795694 0
M  V30 13700 C 1300.16 1.31991 1.93948 0
M  V30 13701 C 1301.18 0.223064 1.72564 0
M  V30 13702 O 1302.35 0.454344 1.96208 0
M  V30 13703 C 1299.42 1.10228 3.28711 0
M  V30 13704 C 1298.48 2.29328 3.62914 0
M  V30 13705 C 1297.71 2.08595 4.91247 0
M  V30 13706 O 1297.93 1.05793 5.60503 0
M  V30 13707 O 1296.87 2.96222 5.23962 0
M  V30 13708 H 1300.69 2.28274 2.00311 0
M  V30 13709 H 1298.28 1.16521 0.935048 0
M  V30 13710 H 1300.16 0.999842 4.09367 0
M  V30 13711 H 1298.84 0.17003 3.23253 0
M  V30 13712 H 1297.74 2.4514 2.8259 0
M  V30 13713 H 1299.08 3.21038 3.73089 0
M  V30 13714 N 1300.73 -1.01913 1.20215 0
M  V30 13715 C 1301.69 -2.08563 0.950481 0
M  V30 13716 C 1302.69 -1.60634 -0.0729659 0
M  V30 13717 O 1303.88 -1.73437 0.162826 0
M  V30 13718 C 1301.01 -3.38171 0.430453 0
M  V30 13719 H 1302.21 -2.32323 1.89647 0
M  V30 13720 H 1299.76 -1.18674 1.01716 0
M  V30 13721 H 1300.49 -3.20086 -0.521126 0
M  V30 13722 H 1300.28 -3.74284 1.1685 0
M  V30 13723 H 1301.77 -4.16702 0.273781 0
M  V30 13724 N 1302.21 -1.00763 -1.2118 0
M  V30 13725 C 1303.14 -0.590493 -2.2591 0
M  V30 13726 C 1304.12 0.390002 -1.65569 0
M  V30 13727 O 1305.3 0.277406 -1.92208 0
M  V30 13728 C 1302.43 0.0810388 -3.47205 0
M  V30 13729 C 1301.39 -0.81951 -4.20081 0
M  V30 13730 C 1300.71 -0.014244 -5.34698 0
M  V30 13731 C 1302.01 -2.12336 -4.7719 0
M  V30 13732 H 1303.71 -1.46595 -2.61056 0
M  V30 13733 H 1301.25 -0.706321 -1.25487 0
M  V30 13734 H 1303.21 0.384355 -4.19644 0
M  V30 13735 H 1301.93 0.991145 -3.11197 0
M  V30 13736 H 1300.59 -1.10669 -3.49497 0
M  V30 13737 H 1300.24 0.897233 -4.94933 0
M  V30 13738 H 1299.94 -0.613883 -5.84384 0
M  V30 13739 H 1301.46 0.282827 -6.09945 0
M  V30 13740 H 1302.87 -1.88301 -5.41494 0
M  V30 13741 H 1301.27 -2.67308 -5.37277 0
M  V30 13742 H 1302.34 -2.79238 -3.96427 0
M  V30 13743 N 1303.68 1.3679 -0.7827 0
M  V30 13744 C 1304.61 2.32721 -0.190604 0
M  V30 13745 C 1305.6 1.56321 0.670663 0
M  V30 13746 O 1306.78 1.84507 0.605871 0
M  V30 13747 C 1303.91 3.40564 0.680717 0
M  V30 13748 C 1302.86 4.27925 -0.080118 0
M  V30 13749 C 1302.19 5.26876 0.911361 0
M  V30 13750 C 1303.49 5.06738 -1.26545 0
M  V30 13751 H 1305.18 2.82488 -0.992023 0
M  V30 13752 H 1302.73 1.35818 -0.478484 0
M  V30 13753 H 1304.68 4.06659 1.10482 0
M  V30 13754 H 1303.41 2.89348 1.51477 0
M  V30 13755 H 1302.07 3.63376 -0.485125 0
M  V30 13756 H 1301.71 4.71936 1.74026 0
M  V30 13757 H 1301.41 5.8619 0.406762 0
M  V30 13758 H 1302.94 5.95846 1.33418 0
M  V30 13759 H 1304.35 5.65911 -0.917448 0
M  V30 13760 H 1302.75 5.75432 -1.70289 0
M  V30 13761 H 1303.82 4.38772 -2.06415 0
M  V30 13762 N 1305.16 0.53415 1.48272 0
M  V30 13763 C 1306.13 -0.215641 2.28183 0
M  V30 13764 C 1307.13 -0.863966 1.35618 0
M  V30 13765 O 1308.32 -0.723375 1.58471 0
M  V30 13766 C 1305.45 -1.31251 3.1462 0
M  V30 13767 H 1306.64 0.486014 2.95936 0
M  V30 13768 H 1304.19 0.290237 1.53582 0
M  V30 13769 H 1304.93 -2.04729 2.51508 0
M  V30 13770 H 1304.71 -0.852706 3.82716 0
M  V30 13771 H 1306.2 -1.83978 3.74889 0
M  V30 13772 N 1306.64 -1.55279 0.269478 0
M  V30 13773 C 1308.06 -1.59374 -0.0848147 0
M  V30 13774 C 1308.26 -1.2867 -1.55068 0
M  V30 13775 O 1307.31 -1.04486 -2.29867 0
M  V30 13776 C 1308.63 -2.99349 0.284735 0
M  V30 13777 C 1310.17 -3.12147 0.230887 0
M  V30 13778 C 1310.65 -4.54379 0.574795 0
M  V30 13779 N 1312.14 -4.60202 0.526136 0
M  V30 13780 C 1312.87 -5.68273 0.765109 0
M  V30 13781 N 1312.37 -6.84512 1.0684 0
M  V30 13782 N 1314.16 -5.57796 0.694287 0
M  V30 13783 H 1306.31 -1.73503 1.22517 0
M  V30 13784 H 1308.58 -0.808771 0.494564 0
M  V30 13785 H 1308.28 -3.26633 1.30398 0
M  V30 13786 H 1308.16 -3.75309 -0.377199 0
M  V30 13787 H 1310.54 -2.84631 -0.779064 0
M  V30 13788 H 1310.63 -2.38412 0.926998 0
M  V30 13789 H 1310.27 -4.8262 1.58241 0
M  V30 13790 H 1310.2 -5.26406 -0.143044 0
M  V30 13791 H 1312.69 -3.76696 0.301368 0
M  V30 13792 H 1313 -7.62826 1.23757 0
M  V30 13793 H 1311.35 -6.86141 1.10612 0
M  V30 13794 H 1314.54 -4.65862 0.457226 0
M  V30 13795 H 1314.71 -6.41943 0.883913 0
M  V30 13796 N 1308.12 0.00332656 -1.576 0
M  V30 13797 C 1309.53 0.359361 -1.55502 0
M  V30 13798 C 1309.73 1.74997 -0.998914 0
M  V30 13799 O 1308.79 2.44482 -0.631263 0
M  V30 13800 C 1310.1 0.237638 -2.9976 0
M  V30 13801 C 1311.65 0.312824 -3.11433 0
M  V30 13802 C 1312.13 0.220262 -4.5747 0
M  V30 13803 N 1313.62 0.278265 -4.62363 0
M  V30 13804 C 1314.35 0.229933 -5.72939 0
M  V30 13805 N 1313.85 0.132391 -6.92673 0
M  V30 13806 N 1315.64 0.281555 -5.61394 0
M  V30 13807 H 1307.79 -0.906404 -1.92089 0
M  V30 13808 H 1310.06 -0.347129 -0.88216 0
M  V30 13809 H 1309.76 -0.719007 -3.44272 0
M  V30 13810 H 1309.64 1.02105 -3.63118 0
M  V30 13811 H 1312.02 1.25991 -2.66852 0
M  V30 13812 H 1312.1 -0.500395 -2.50858 0
M  V30 13813 H 1311.75 -0.723267 -5.02724 0
M  V30 13814 H 1311.68 1.05192 -5.15987 0
M  V30 13815 H 1314.17 0.35512 -3.76228 0
M  V30 13816 H 1314.48 0.101317 -7.72734 0
M  V30 13817 H 1312.83 0.0980665 -6.94931 0
M  V30 13818 H 1316.02 0.355931 -4.66745 0
M  V30 13819 H 1316.19 0.240423 -6.47554 0
M  V30 13820 N 1309.6 1.55164 0.276031 0
M  V30 13821 C 1310.53 1.90844 1.34539 0
M  V30 13822 C 1311.51 0.769968 1.51676 0
M  V30 13823 O 1312.69 1.02785 1.64769 0
M  V30 13824 C 1309.82 2.17769 2.70543 0
M  V30 13825 C 1308.78 3.33592 2.68142 0
M  V30 13826 C 1308.1 3.45991 4.07669 0
M  V30 13827 C 1309.4 4.70064 2.27678 0
M  V30 13828 H 1311.1 2.80412 1.04926 0
M  V30 13829 H 1308.64 1.34918 0.503303 0
M  V30 13830 H 1310.6 2.41317 3.45462 0
M  V30 13831 H 1309.32 1.24997 3.01734 0
M  V30 13832 H 1307.98 3.10007 1.95681 0
M  V30 13833 H 1307.63 2.50691 4.36077 0
M  V30 13834 H 1307.33 4.23862 4.06958 0
M  V30 13835 H 1308.85 3.71828 4.84331 0
M  V30 13836 H 1310.26 4.93176 2.92319 0
M  V30 13837 H 1308.66 5.50829 2.38134 0
M  V30 13838 H 1309.73 4.69091 1.22808 0
M  V30 13839 N 1311.07 -0.540404 1.48045 0
M  V30 13840 C 1312.49 -1.12243 1.49192 0
M  V30 13841 C 1312.84 -1.94524 0.255895 0
M  V30 13842 O 1311.96 -2.06786 -0.637855 0
M  V30 13843 C 1312.56 -2.04227 2.70327 0
M  V30 13844 C 1311.12 -2.57668 2.7438 0
M  V30 13845 C 1310.26 -1.34402 2.42552 0
M  V30 13846 H 1313.21 -0.326165 1.55312 0
M  V30 13847 H 1313.23 -2.88359 2.48253 0
M  V30 13848 H 1312.75 -1.44314 3.60271 0
M  V30 13849 H 1310.85 -3.21331 1.88618 0
M  V30 13850 H 1310.96 -2.97514 3.7553 0
M  V30 13851 H 1309.32 -1.65635 1.93487 0
M  V30 13852 H 1310.11 -0.762571 3.34723 0
M  V30 13853 N 1312.55 -1.36459 -0.788468 0
M  V30 13854 C 1313.96 -1.27515 -1.3637 0
M  V30 13855 C 1314.31 0.0846251 -1.96017 0
M  V30 13856 O 1313.44 0.98611 -1.92626 0
M  V30 13857 C 1314.03 -2.30903 -2.4793 0
M  V30 13858 C 1312.59 -2.25645 -3.01266 0
M  V30 13859 C 1311.74 -2.15631 -1.74352 0
M  V30 13860 H 1314.69 -1.47324 -0.590039 0
M  V30 13861 H 1314.71 -1.94601 -3.26972 0
M  V30 13862 H 1314.22 -3.29858 -2.04487 0
M  V30 13863 H 1312.33 -1.3016 -3.49126 0
M  V30 13864 H 1312.44 -3.18373 -3.58016 0
M  V30 13865 H 1310.8 -1.61901 -1.96622 0
M  V30 13866 H 1311.59 -3.16475 -1.33036 0
M  V30 13867 N 1314.03 1.01274 -1.20754 0
M  V30 13868 C 1315.44 1.56381 -1.0199 0
M  V30 13869 C 1315.79 1.91595 0.422591 0
M  V30 13870 O 1314.92 1.72653 1.3046 0
M  V30 13871 C 1315.51 2.8415 -1.8451 0
M  V30 13872 C 1314.07 3.35772 -1.70101 0
M  V30 13873 C 1313.22 2.0904 -1.82202 0
M  V30 13874 H 1316.17 0.836105 -1.34889 0
M  V30 13875 H 1316.19 3.55717 -1.35076 0
M  V30 13876 H 1315.7 2.5849 -2.8949 0
M  V30 13877 H 1313.8 3.66384 -0.677732 0
M  V30 13878 H 1313.92 4.07714 -2.51607 0
M  V30 13879 H 1312.28 2.21675 -1.25429 0
M  V30 13880 H 1313.06 1.858 -2.88675 0
M  V30 13881 N 1315.51 1.01404 1.20644 0
M  V30 13882 C 1316.76 0.701909 1.89946 0
M  V30 13883 C 1317.08 -0.768212 1.78686 0
M  V30 13884 O 1316.34 -1.57348 1.16363 0
M  V30 13885 C 1316.64 1.07995 3.40693 0
M  V30 13886 C 1316.3 2.54585 3.72152 0
M  V30 13887 C 1314.97 2.94639 3.80449 0
M  V30 13888 C 1317.32 3.49497 3.86654 0
M  V30 13889 C 1314.65 4.2855 4.00702 0
M  V30 13890 C 1317 4.83093 4.08416 0
M  V30 13891 C 1315.66 5.22857 4.14942 0
M  V30 13892 H 1314.93 0.256847 0.695062 0
M  V30 13893 H 1317.58 1.27415 1.4296 0
M  V30 13894 H 1315.88 0.426089 3.89476 0
M  V30 13895 H 1317.58 0.816176 3.92606 0
M  V30 13896 H 1314.17 2.22548 3.66292 0
M  V30 13897 H 1318.36 3.19713 3.79602 0
M  V30 13898 H 1313.61 4.58916 4.03988 0
M  V30 13899 H 1317.79 5.56565 4.18579 0
M  V30 13900 H 1315.41 6.26634 4.30388 0
M  V30 13901 N 1316.99 -1.36373 0.789944 0
M  V30 13902 C 1318.23 -1.99523 0.363119 0
M  V30 13903 C 1318.57 -1.6255 -1.0626 0
M  V30 13904 O 1317.84 -0.880551 -1.73426 0
M  V30 13905 C 1318.12 -3.56215 0.527526 0
M  V30 13906 C 1317.98 -4.0304 1.99697 0
M  V30 13907 C 1319.3 -4.40063 -0.0571079 0
M  V30 13908 H 1316.42 -0.724824 0.133412 0
M  V30 13909 H 1319.06 -1.61778 0.996381 0
M  V30 13910 H 1317.21 -3.88498 -0.0115636 0
M  V30 13911 H 1318.88 -3.81241 2.59717 0
M  V30 13912 H 1317.12 -3.54561 2.49939 0
M  V30 13913 H 1317.79 -5.12001 2.06297 0
M  V30 13914 H 1320.27 -4.14143 0.403082 0
M  V30 13915 H 1319.15 -5.4883 0.0879494 0
M  V30 13916 H 1319.41 -4.26901 -1.14926 0
M  V30 13917 N 1318.47 -0.542005 -1.47987 0
M  V30 13918 C 1319.88 -0.104646 -1.86406 0
M  V30 13919 C 1320.23 1.32139 -1.4503 0
M  V30 13920 O 1319.35 1.99159 -0.846439 0
M  V30 13921 C 1319.95 -0.183133 -3.38305 0
M  V30 13922 C 1318.51 0.199098 -3.75873 0
M  V30 13923 C 1317.65 -0.537532 -2.7204 0
M  V30 13924 H 1320.6 -0.75259 -1.3972 0
M  V30 13925 H 1320.63 0.602149 -3.75705 0
M  V30 13926 H 1320.14 -1.22113 -3.68389 0
M  V30 13927 H 1318.24 1.23878 -3.51404 0
M  V30 13928 H 1318.35 -0.14888 -4.78869 0
M  V30 13929 H 1316.72 0.0176255 -2.54694 0
M  V30 13930 H 1317.5 -1.57639 -3.04967 0
M  V30 13931 N 1319.94 1.55134 -0.277709 0
M  V30 13932 C 1321.17 2.04061 0.341601 0
M  V30 13933 C 1321.59 1.15597 1.49274 0
M  V30 13934 O 1320.94 0.176625 1.81643 0
M  V30 13935 C 1320.99 3.52074 0.820139 0
M  V30 13936 O 1320.72 4.37171 -0.28516 0
M  V30 13937 C 1322.22 4.16899 1.507 0
M  V30 13938 H 1319.44 0.666501 0.0775708 0
M  V30 13939 H 1321.98 2.00336 -0.410559 0
M  V30 13940 H 1320.14 3.56233 1.52238 0
M  V30 13941 H 1320.55 5.24434 0.0832022 0
M  V30 13942 H 1322.02 5.22061 1.79323 0
M  V30 13943 H 1322.5 3.65227 2.43939 0
M  V30 13944 H 1323.11 4.16749 0.848541 0
M  V30 13945 N 1321.42 0.00503138 1.57599 0
M  V30 13946 C 1322.35 -0.983586 2.11773 0
M  V30 13947 C 1323.33 -1.35518 1.02805 0
M  V30 13948 O 1324.52 -1.43804 1.30514 0
M  V30 13949 C 1321.65 -2.27383 2.62515 0
M  V30 13950 C 1320.6 -2.0437 3.76054 0
M  V30 13951 C 1319.93 -3.39451 4.1313 0
M  V30 13952 C 1321.23 -1.40223 5.03125 0
M  V30 13953 H 1322.92 -0.532501 2.94627 0
M  V30 13954 H 1320.47 -0.254696 1.4173 0
M  V30 13955 H 1322.42 -2.96903 2.99043 0
M  V30 13956 H 1321.14 -2.74614 1.7679 0
M  V30 13957 H 1319.8 -1.37275 3.39928 0
M  V30 13958 H 1319.45 -3.84395 3.24422 0
M  V30 13959 H 1319.15 -3.24868 4.89627 0
M  V30 13960 H 1320.68 -4.10279 4.52221 0
M  V30 13961 H 1322.09 -1.99708 5.37392 0
M  V30 13962 H 1320.49 -1.36112 5.8446 0
M  V30 13963 H 1321.56 -0.372073 4.8347 0
M  V30 13964 N 1322.9 -1.55308 -0.267798 0
M  V30 13965 C 1324.12 -1.80524 -1.02107 0
M  V30 13966 C 1324.55 -0.579268 -1.78958 0
M  V30 13967 O 1323.91 0.471262 -1.75068 0
M  V30 13968 C 1323.96 -3.03248 -1.95123 0
M  V30 13969 O 1323.06 -2.78699 -3.03975 0
M  V30 13970 H 1322.4 -0.596518 -0.291655 0
M  V30 13971 H 1324.93 -2.0246 -0.295128 0
M  V30 13972 H 1324.94 -3.32121 -2.3698 0
M  V30 13973 H 1323.62 -3.92126 -1.386 0
M  V30 13974 H 1322.19 -2.60936 -2.66396 0
M  V30 13975 N 1324.38 0.532545 -1.4833 0
M  V30 13976 C 1325.63 1.28597 -1.55908 0
M  V30 13977 C 1325.95 1.93595 -0.233635 0
M  V30 13978 O 1325.22 1.81197 0.744605 0
M  V30 13979 H 1323.8 0.477619 -0.57436 0
M  V30 13980 H 1326.46 0.619922 -1.84778 0
M  V30 13981 H 1325.55 2.0666 -2.33877 0
M  V30 13982 N 1325.86 1.36875 0.78122 0
M  V30 13983 C 1327.27 1.17467 1.08044 0
M  V30 13984 C 1327.47 0.00434799 2.015 0
M  V30 13985 O 1326.53 -0.658499 2.43762 0
M  V30 13986 C 1327.84 2.48917 1.68704 0
M  V30 13987 C 1329.39 2.55354 1.81007 0
M  V30 13988 C 1329.86 3.8691 2.45081 0
M  V30 13989 N 1331.35 3.88301 2.52541 0
M  V30 13990 C 1332.09 4.86837 3.02947 0
M  V30 13991 N 1331.59 5.95768 3.53598 0
M  V30 13992 N 1333.38 4.74249 3.01735 0
M  V30 13993 H 1325.53 2.11793 0.160503 0
M  V30 13994 H 1327.79 0.938507 0.133825 0
M  V30 13995 H 1327.5 3.34867 1.07503 0
M  V30 13996 H 1327.37 2.65319 2.68115 0
M  V30 13997 H 1329.76 1.69816 2.41343 0
M  V30 13998 H 1329.84 2.42843 0.803783 0
M  V30 13999 H 1329.48 4.72858 1.85386 0
M  V30 14000 H 1329.41 3.9672 3.46296 0
M  V30 14001 H 1331.91 3.09607 2.16684 0
M  V30 14002 H 1332.22 6.66918 3.90435 0
M  V30 14003 H 1330.56 5.99426 3.51728 0
M  V30 14004 H 1333.75 3.88275 2.61458 0
M  V30 14005 H 1333.93 5.512 3.40709 0
M  V30 14006 N 1327.33 -1.00632 1.21289 0
M  V30 14007 C 1328.56 -1.77967 1.05524 0
M  V30 14008 C 1328.98 -1.84621 -0.395023 0
M  V30 14009 O 1328.33 -1.30664 -1.27409 0
M  V30 14010 C 1328.38 -3.21939 1.64432 0
M  V30 14011 O 1328.11 -3.15669 3.03784 0
M  V30 14012 C 1329.61 -4.1578 1.5376 0
M  V30 14013 H 1326.83 -0.559341 0.370646 0
M  V30 14014 H 1329.37 -1.26604 1.60598 0
M  V30 14015 H 1327.53 -3.70415 1.13453 0
M  V30 14016 H 1327.94 -4.06112 3.31924 0
M  V30 14017 H 1329.41 -5.14602 1.99722 0
M  V30 14018 H 1329.89 -4.36438 0.491811 0
M  V30 14019 H 1330.5 -3.73192 2.0398 0
M  V30 14020 N 1328.81 -1.02043 -1.20104 0
M  V30 14021 C 1330.09 -0.626922 -1.85281 0
M  V30 14022 C 1330.47 0.894819 -1.91197 0
M  V30 14023 O 1329.82 1.7881 -1.42265 0
M  V30 14024 C 1330.03 -1.27917 -3.24713 0
M  V30 14025 C 1331.37 -1.39704 -4.00959 0
M  V30 14026 O 1332.4 -1.23568 -3.3408 0
M  V30 14027 O 1331.26 -1.65814 -5.20738 0
M  V30 14028 H 1328.35 -0.216815 -0.798073 0
M  V30 14029 H 1330.9 -1.11804 -1.27663 0
M  V30 14030 H 1329.67 -2.3188 -3.15194 0
M  V30 14031 H 1329.29 -0.775371 -3.89966 0
M  V30 14032 N 1330.29 1.35952 -0.797165 0
M  V30 14033 C 1331.54 1.99327 -0.373695 0
M  V30 14034 C 1331.87 1.63111 1.05396 0
M  V30 14035 O 1331.14 0.889736 1.72956 0
M  V30 14036 C 1331.43 3.5593 -0.54641 0
M  V30 14037 C 1331.28 4.01975 -2.01832 0
M  V30 14038 C 1332.6 4.40087 0.0337694 0
M  V30 14039 H 1329.72 0.724107 -0.137254 0
M  V30 14040 H 1332.36 1.61248 -1.00495 0
M  V30 14041 H 1330.51 3.88499 -0.00903959 0
M  V30 14042 H 1332.18 3.79859 -2.61735 0
M  V30 14043 H 1330.43 3.5323 -2.51815 0
M  V30 14044 H 1331.1 5.109 -2.09009 0
M  V30 14045 H 1333.57 4.13923 -0.425039 0
M  V30 14046 H 1332.45 5.48775 -0.117054 0
M  V30 14047 H 1332.71 4.27504 1.12661 0
M  V30 14048 N 1331.77 0.549846 1.47697 0
M  V30 14049 C 1332.99 0.0256819 2.07384 0
M  V30 14050 C 1333.42 -1.25525 1.4009 0
M  V30 14051 O 1332.78 -1.7501 0.473406 0
M  V30 14052 C 1332.82 -0.160835 3.60241 0
M  V30 14053 O 1331.93 -1.22509 3.93783 0
M  V30 14054 H 1331.27 0.0480204 0.662261 0
M  V30 14055 H 1333.8 0.763429 1.89823 0
M  V30 14056 H 1333.81 -0.377337 4.06251 0
M  V30 14057 H 1332.48 0.774774 4.0862 0
M  V30 14058 H 1331.06 -0.98967 3.59527 0
M  V30 14059 N 1333.25 -1.54984 0.285932 0
M  V30 14060 C 1334.19 -2.24385 -0.612703 0
M  V30 14061 C 1335.19 -1.24459 -1.14918 0
M  V30 14062 O 1336.39 -1.42357 -1.10156 0
M  V30 14063 H 1332.77 -0.720263 -0.21616 0
M  V30 14064 H 1334.74 -2.984 -0.00465668 0
M  V30 14065 C 1333.49 -2.98661 -1.78037 0
M  V30 14066 H 1332.81 -3.75347 -1.37676 0
M  V30 14067 H 1334.25 -3.50525 -2.38554 0
M  V30 14068 C 1332.71 -2.04754 -2.67539 0
M  V30 14069 O 1333.24 -1.60577 -3.68209 0
M  V30 14070 N 1331.45 -1.71026 -2.34944 0
M  V30 14071 H 1330.99 -2.07148 -1.53126 0
M  V30 14072 H 1330.95 -1.08467 -2.95097 0
M  V30 14073 N 1334.72 -0.0133892 -1.57594 0
M  V30 14074 C 1335.97 0.668634 -1.91143 0
M  V30 14075 C 1336.3 1.7303 -0.888299 0
M  V30 14076 O 1335.55 1.95418 0.105056 0
M  V30 14077 C 1335.85 1.33729 -3.31438 0
M  V30 14078 C 1335.52 0.407527 -4.49055 0
M  V30 14079 C 1334.18 0.151573 -4.80961 0
M  V30 14080 C 1336.53 -0.231835 -5.20684 0
M  V30 14081 C 1333.86 -0.751812 -5.81863 0
M  V30 14082 C 1336.21 -1.12318 -6.22549 0
M  V30 14083 C 1334.88 -1.38818 -6.52906 0
M  V30 14084 H 1334.15 0.24467 -0.699441 0
M  V30 14085 H 1336.79 -0.0717876 -1.91365 0
M  V30 14086 H 1335.1 2.15209 -3.27403 0
M  V30 14087 H 1336.8 1.87128 -3.5466 0
M  V30 14088 H 1333.39 0.617192 -4.24133 0
M  V30 14089 H 1337.57 -0.0471268 -4.96278 0
M  V30 14090 H 1332.83 -0.964991 -6.03737 0
M  V30 14091 H 1337 -1.62488 -6.77179 0
M  V30 14092 H 1334.63 -2.08986 -7.3091 0
M  V30 14093 N 1336.2 1.55448 0.259558 0
M  V30 14094 C 1337.48 1.6742 1.01143 0
M  V30 14095 C 1337.86 0.549525 2.03822 0
M  V30 14096 O 1337.21 -0.448699 2.24051 0
M  V30 14097 C 1337.42 3.07201 1.65616 0
M  V30 14098 C 1338.77 3.6539 2.16277 0
M  V30 14099 O 1339.79 3.0992 1.7558 0
M  V30 14100 O 1338.65 4.62604 2.90963 0
M  V30 14101 H 1335.74 0.680469 0.469991 0
M  V30 14102 H 1338.29 1.67783 0.254348 0
M  V30 14103 H 1337.06 3.80504 0.912819 0
M  V30 14104 H 1336.68 3.10794 2.47977 0
M  V30 14105 N 1337.68 -0.524672 1.4861 0
M  V30 14106 C 1338.59 -1.65554 1.6622 0
M  V30 14107 C 1339.61 -1.65254 0.54471 0
M  V30 14108 O 1340.78 -1.84109 0.816454 0
M  V30 14109 C 1337.85 -3.02003 1.7028 0
M  V30 14110 C 1336.91 -3.13116 2.93695 0
M  V30 14111 C 1336.14 -4.43055 2.97553 0
M  V30 14112 O 1336.36 -5.30468 2.09667 0
M  V30 14113 O 1335.3 -4.58646 3.89779 0
M  V30 14114 H 1339.12 -1.53633 2.61974 0
M  V30 14115 H 1336.71 -0.698354 1.32073 0
M  V30 14116 H 1338.59 -3.83143 1.75441 0
M  V30 14117 H 1337.27 -3.14236 0.777002 0
M  V30 14118 H 1336.17 -2.31251 2.94064 0
M  V30 14119 H 1337.51 -3.058 3.85677 0
M  V30 14120 N 1339.16 -1.37287 -0.77395 0
M  V30 14121 C 1340.07 -1.35059 -1.91823 0
M  V30 14122 C 1341.08 -0.250489 -1.72188 0
M  V30 14123 O 1342.26 -0.485501 -1.95461 0
M  V30 14124 C 1339.33 -1.15444 -3.26915 0
M  V30 14125 C 1338.39 -2.35073 -3.5922 0
M  V30 14126 C 1337.62 -2.16384 -4.87867 0
M  V30 14127 O 1337.84 -1.14696 -5.58749 0
M  V30 14128 O 1336.78 -3.0452 -5.19183 0
M  V30 14129 H 1340.6 -2.31432 -1.96654 0
M  V30 14130 H 1338.19 -1.17994 -0.916392 0
M  V30 14131 H 1340.07 -1.06484 -4.07724 0
M  V30 14132 H 1338.74 -0.221435 -3.22942 0
M  V30 14133 H 1337.65 -2.49604 -2.78655 0
M  V30 14134 H 1338.98 -3.26933 -3.67934 0
M  V30 14135 N 1340.64 0.999871 -1.21821 0
M  V30 14136 C 1341.88 1.7384 -1.03855 0
M  V30 14137 C 1342.21 1.89749 0.42727 0
M  V30 14138 O 1341.47 1.43261 1.33323 0
M  V30 14139 C 1341.77 3.1509 -1.6868 0
M  V30 14140 C 1341.43 3.19115 -3.18554 0
M  V30 14141 C 1340.09 3.19921 -3.5945 0
M  V30 14142 C 1342.45 3.15954 -4.14515 0
M  V30 14143 C 1339.77 3.15257 -4.94803 0
M  V30 14144 C 1342.13 3.12831 -5.49836 0
M  V30 14145 C 1340.79 3.11949 -5.90122 0
M  V30 14146 H 1340.06 0.636126 -0.380032 0
M  V30 14147 H 1342.71 1.17151 -1.51485 0
M  V30 14148 H 1341.01 3.75044 -1.13356 0
M  V30 14149 H 1342.71 3.70962 -1.52277 0
M  V30 14150 H 1339.3 3.19234 -2.85986 0
M  V30 14151 H 1343.48 3.14487 -3.83942 0
M  V30 14152 H 1338.74 3.12915 -5.25256 0
M  V30 14153 H 1342.91 3.09339 -6.23925 0
M  V30 14154 H 1340.54 3.0809 -6.94971 0
M  V30 14155 N 1342.11 1.02678 1.19562 0
M  V30 14156 C 1343.34 0.741569 1.93154 0
M  V30 14157 C 1343.76 -0.699292 1.75372 0
M  V30 14158 O 1343.11 -1.47533 1.07426 0
M  V30 14159 C 1343.17 1.08064 3.4497 0
M  V30 14160 O 1342.89 2.46492 3.62179 0
M  V30 14161 C 1344.39 0.817935 4.35689 0
M  V30 14162 H 1341.61 0.271506 0.613617 0
M  V30 14163 H 1344.15 1.3707 1.51763 0
M  V30 14164 H 1342.31 0.496723 3.84202 0
M  V30 14165 H 1342.72 2.59053 4.56061 0
M  V30 14166 H 1344.19 1.10517 5.40823 0
M  V30 14167 H 1344.67 -0.247693 4.38501 0
M  V30 14168 H 1345.28 1.38449 4.02134 0
M  V30 14169 N 1343.59 -1.35528 0.804364 0
M  V30 14170 C 1344.84 -1.98439 0.382934 0
M  V30 14171 C 1345.16 -1.64132 -1.05289 0
M  V30 14172 O 1344.43 -0.922693 -1.7281 0
M  V30 14173 H 1343.01 -0.734028 0.138605 0
M  V30 14174 H 1345.67 -1.65478 1.02971 0
M  V30 14175 H 1344.77 -3.08279 0.486846 0
M  V30 14176 N 1345.07 -0.557671 -1.47404 0
M  V30 14177 C 1345.98 0.19289 -2.33806 0
M  V30 14178 C 1347 0.911424 -1.4822 0
M  V30 14179 O 1348.17 0.880214 -1.81147 0
M  V30 14180 C 1345.24 1.20937 -3.24923 0
M  V30 14181 C 1344.3 0.498209 -4.26399 0
M  V30 14182 C 1343.53 1.46626 -5.13163 0
M  V30 14183 O 1343.76 2.70111 -5.0239 0
M  V30 14184 O 1342.69 0.990497 -5.93694 0
M  V30 14185 H 1346.52 -0.515861 -2.99287 0
M  V30 14186 H 1344.1 -0.318283 -1.4597 0
M  V30 14187 H 1345.98 1.7961 -3.81206 0
M  V30 14188 H 1344.66 1.90003 -2.6207 0
M  V30 14189 H 1343.56 -0.129736 -3.73875 0
M  V30 14190 H 1344.9 -0.151015 -4.91968 0
M  V30 14191 N 1346.55 1.54831 -0.294147 0
M  V30 14192 C 1347.51 2.21946 0.572061 0
M  V30 14193 C 1348.51 1.20331 1.06663 0
M  V30 14194 O 1349.7 1.45112 0.963757 0
M  V30 14195 C 1346.83 2.90044 1.7913 0
M  V30 14196 H 1348.03 2.99897 -0.0142234 0
M  V30 14197 H 1345.58 1.56235 -0.0449187 0
M  V30 14198 H 1346.32 2.16154 2.4176 0
M  V30 14199 H 1346.1 3.64527 1.44439 0
M  V30 14200 H 1347.59 3.41263 2.40684 0
M  V30 14201 N 1348.03 0.0217466 1.57585 0
M  V30 14202 C 1349.44 -0.51811 1.79367 0
M  V30 14203 C 1349.79 -1.72688 0.931313 0
M  V30 14204 O 1348.91 -2.15949 0.139687 0
M  V30 14205 C 1349.51 -0.946711 3.25304 0
M  V30 14206 C 1348.07 -1.43173 3.48107 0
M  V30 14207 C 1347.22 -0.392996 2.74501 0
M  V30 14208 H 1350.17 0.247822 1.56753 0
M  V30 14209 H 1350.19 -1.81152 3.34611 0
M  V30 14210 H 1349.7 -0.0667536 3.88043 0
M  V30 14211 H 1347.8 -2.33186 2.90612 0
M  V30 14212 H 1347.91 -1.44419 4.56815 0
M  V30 14213 H 1346.28 -0.859471 2.39761 0
M  V30 14214 H 1347.06 0.478368 3.39951 0
M  V30 14215 N 1349.51 -1.55583 -0.251311 0
M  V30 14216 C 1350.73 -1.81259 -0.997636 0
M  V30 14217 C 1351.15 -0.596861 -1.79117 0
M  V30 14218 O 1350.51 0.434425 -1.77254 0
M  V30 14219 C 1350.56 -3.05097 -1.93902 0
M  V30 14220 O 1350.28 -4.21976 -1.1776 0
M  V30 14221 C 1351.78 -3.4354 -2.8017 0
M  V30 14222 H 1349 -0.603279 -0.29376 0
M  V30 14223 H 1351.54 -2.02635 -0.27553 0
M  V30 14224 H 1349.7 -2.85784 -2.61546 0
M  V30 14225 H 1350.11 -4.92133 -1.81398 0
M  V30 14226 H 1351.59 -4.33305 -3.41981 0
M  V30 14227 H 1352.06 -2.63924 -3.51057 0
M  V30 14228 H 1352.67 -3.65189 -2.17985 0
M  V30 14229 N 1350.98 0.516783 -1.48886 0
M  V30 14230 C 1351.91 1.62897 -1.67292 0
M  V30 14231 C 1352.89 1.61903 -0.521671 0
M  V30 14232 O 1354.08 1.78892 -0.755728 0
M  V30 14233 C 1351.21 3.01444 -1.72478 0
M  V30 14234 C 1350.16 3.173 -2.87236 0
M  V30 14235 C 1349.49 4.5704 -2.77522 0
M  V30 14236 C 1350.79 2.98818 -4.28375 0
M  V30 14237 H 1352.48 1.47748 -2.60405 0
M  V30 14238 H 1350.03 0.709361 -1.25316 0
M  V30 14239 H 1351.98 3.79135 -1.83942 0
M  V30 14240 H 1350.71 3.17645 -0.759538 0
M  V30 14241 H 1349.37 2.4203 -2.75349 0
M  V30 14242 H 1349.01 4.70096 -1.78938 0
M  V30 14243 H 1348.71 4.68593 -3.54534 0
M  V30 14244 H 1350.24 5.36813 -2.90972 0
M  V30 14245 H 1351.65 3.66291 -4.41026 0
M  V30 14246 H 1350.05 3.21854 -5.06488 0
M  V30 14247 H 1351.12 1.95102 -4.43918 0
M  V30 14248 N 1352.46 1.37696 0.766659 0
M  V30 14249 C 1353.69 1.36564 1.56093 0
M  V30 14250 C 1354.11 -0.0455828 1.88045 0
M  V30 14251 O 1353.47 -1.02405 1.49609 0
M  V30 14252 C 1353.52 2.21592 2.84481 0
M  V30 14253 O 1352.62 1.62404 3.79076 0
M  V30 14254 H 1351.96 0.466394 0.472623 0
M  V30 14255 H 1354.49 1.81287 0.948486 0
M  V30 14256 H 1354.5 2.34987 3.33534 0
M  V30 14257 H 1353.18 3.24167 2.60554 0
M  V30 14258 H 1351.75 1.58078 3.37736 0
M  V30 14259 N 1353.94 -0.993397 1.22349 0
M  V30 14260 C 1355.35 -1.54739 1.04465 0
M  V30 14261 C 1355.7 -1.92243 -0.392057 0
M  V30 14262 O 1354.83 -1.74707 -1.27697 0
M  V30 14263 C 1355.42 -2.81179 1.89007 0
M  V30 14264 C 1353.98 -3.33023 1.75421 0
M  V30 14265 C 1353.13 -2.06114 1.85505 0
M  V30 14266 H 1356.08 -0.814539 1.36202 0
M  V30 14267 H 1356.1 -3.53523 1.40718 0
M  V30 14268 H 1355.61 -2.53851 2.93566 0
M  V30 14269 H 1353.71 -3.6526 0.735935 0
M  V30 14270 H 1353.83 -4.03659 2.58062 0
M  V30 14271 H 1352.19 -2.19651 1.2894 0
M  V30 14272 H 1352.97 -1.81184 2.91594 0
M  V30 14273 N 1355.42 -1.03311 -1.19015 0
M  V30 14274 C 1356.83 -0.761079 -1.70483 0
M  V30 14275 C 1357.18 0.718851 -1.82557 0
M  V30 14276 O 1356.3 1.56006 -1.4997 0
M  V30 14277 C 1356.9 -1.37492 -3.09647 0
M  V30 14278 C 1355.46 -1.15138 -3.58358 0
M  V30 14279 C 1354.61 -1.47034 -2.35109 0
M  V30 14280 H 1357.56 -1.2005 -1.03797 0
M  V30 14281 H 1357.58 -0.774115 -3.72542 0
M  V30 14282 H 1357.09 -2.45203 -3.00828 0
M  V30 14283 H 1355.19 -0.0926822 -3.72485 0
M  V30 14284 H 1355.3 -1.84307 -4.4223 0
M  V30 14285 H 1353.67 -0.889794 -2.38652 0
M  V30 14286 H 1354.45 -2.55837 -2.28916 0
M  V30 14287 N 1356.9 1.35099 -0.81154 0
M  V30 14288 C 1358.31 1.51701 -0.495883 0
M  V30 14289 C 1358.51 1.7595 0.982035 0
M  V30 14290 O 1357.57 1.8038 1.7669 0
M  V30 14291 C 1358.88 2.68916 -1.34554 0
M  V30 14292 C 1360.43 2.82795 -1.34149 0
M  V30 14293 C 1360.9 4.0304 -2.17538 0
M  V30 14294 N 1362.39 4.10227 -2.151 0
M  V30 14295 C 1363.13 5.02397 -2.76377 0
M  V30 14296 N 1362.63 5.99866 -3.46601 0
M  V30 14297 N 1364.42 4.95181 -2.65992 0
M  V30 14298 H 1356.57 1.17617 -1.76862 0
M  V30 14299 H 1358.83 0.575875 -0.753042 0
M  V30 14300 H 1358.54 2.57591 -2.39458 0
M  V30 14301 H 1358.41 3.63641 -1.00223 0
M  V30 14302 H 1360.8 2.93568 -0.300285 0
M  V30 14303 H 1360.88 1.88912 -1.7247 0
M  V30 14304 H 1360.52 3.93027 -3.21702 0
M  V30 14305 H 1360.45 4.96114 -1.76574 0
M  V30 14306 H 1362.95 3.40454 -1.6401 0
M  V30 14307 H 1363.26 6.66803 -3.90632 0
M  V30 14308 H 1361.6 6.00025 -3.50706 0
M  V30 14309 H 1364.79 4.17991 -2.10715 0
M  V30 14310 H 1364.97 5.6682 -3.14036 0
M  V30 14311 N 1358.37 0.56548 1.47106 0
M  V30 14312 C 1359.65 -0.0215358 1.95588 0
M  V30 14313 C 1360.03 -1.47712 1.50813 0
M  V30 14314 O 1359.38 -2.15814 0.750776 0
M  V30 14315 C 1359.59 0.132552 3.48748 0
M  V30 14316 C 1360.94 -0.00853591 4.24599 0
M  V30 14317 O 1361.96 0.0605142 3.56149 0
M  V30 14318 O 1360.82 -0.158519 5.4627 0
M  V30 14319 H 1357.91 -0.0595011 0.824857 0
M  V30 14320 H 1360.46 0.632586 1.57469 0
M  V30 14321 H 1359.23 1.14511 3.7417 0
M  V30 14322 H 1358.85 -0.558801 3.93654 0
M  V30 14323 N 1359.85 -1.54672 0.302354 0
M  V30 14324 C 1360.82 -2.22246 -0.560283 0
M  V30 14325 C 1361.82 -1.20895 -1.06023 0
M  V30 14326 O 1363.01 -1.45621 -0.956047 0
M  V30 14327 C 1360.14 -2.9099 -1.77589 0
M  V30 14328 H 1361.33 -2.99885 0.0301274 0
M  V30 14329 H 1358.88 -1.56209 0.0532036 0
M  V30 14330 H 1359.62 -2.17433 -2.4061 0
M  V30 14331 H 1359.4 -3.65288 -1.42503 0
M  V30 14332 H 1360.89 -3.42535 -2.38871 0
M  V30 14333 N 1361.33 -0.0301034 -1.57571 0
M  V30 14334 C 1362.75 0.326296 -1.56229 0
M  V30 14335 C 1362.95 1.72839 -1.03581 0
M  V30 14336 O 1362 2.43088 -0.682979 0
M  V30 14337 C 1363.32 0.174001 -3.00196 0
M  V30 14338 C 1364.86 0.246694 -3.12026 0
M  V30 14339 C 1365.34 0.123177 -4.57834 0
M  V30 14340 N 1366.83 0.180129 -4.6285 0
M  V30 14341 C 1367.56 0.108353 -5.73298 0
M  V30 14342 N 1367.06 -0.0145648 -6.92798 0
M  V30 14343 N 1368.85 0.162411 -5.61865 0
M  V30 14344 H 1361 -0.946945 -1.90123 0
M  V30 14345 H 1363.27 -0.365762 -0.874598 0
M  V30 14346 H 1362.97 -0.791871 -3.42669 0
M  V30 14347 H 1362.85 0.943794 -3.65202 0
M  V30 14348 H 1365.23 1.20303 -2.69465 0
M  V30 14349 H 1365.32 -0.553493 -2.4974 0
M  V30 14350 H 1364.96 -0.82974 -5.01077 0
M  V30 14351 H 1364.89 0.94224 -5.18102 0
M  V30 14352 H 1367.38 0.275236 -3.76896 0
M  V30 14353 H 1367.69 -0.062614 -7.72775 0
M  V30 14354 H 1366.04 -0.0493606 -6.94982 0
M  V30 14355 H 1369.23 0.256847 -4.67395 0
M  V30 14356 H 1369.4 0.103013 -6.47918 0
M  V30 14357 N 1362.81 1.55714 0.243056 0
M  V30 14358 C 1364.22 1.68126 0.811814 0
M  V30 14359 C 1364.57 0.628259 1.85869 0
M  V30 14360 O 1363.7 -0.224747 2.1523 0
M  V30 14361 C 1364.29 3.048 1.47928 0
M  V30 14362 C 1362.85 3.19138 1.99569 0
M  V30 14363 C 1362 2.64011 0.848149 0
M  V30 14364 H 1364.95 1.58689 0.0187918 0
M  V30 14365 H 1364.97 2.99459 2.34743 0
M  V30 14366 H 1364.48 3.81417 0.717106 0
M  V30 14367 H 1362.58 2.4735 2.78655 0
M  V30 14368 H 1362.69 4.26095 2.19043 0
M  V30 14369 H 1361.06 2.21934 1.2497 0
M  V30 14370 H 1361.84 3.43157 0.0989987 0
M  V30 14371 N 1364.29 -0.50888 1.49158 0
M  V30 14372 C 1365.22 -1.62008 1.68154 0
M  V30 14373 C 1366.2 -1.61624 0.53025 0
M  V30 14374 O 1367.38 -1.78489 0.765205 0
M  V30 14375 C 1364.51 -3.00525 1.74075 0
M  V30 14376 C 1363.47 -3.15773 2.88915 0
M  V30 14377 C 1362.79 -4.55562 2.79942 0
M  V30 14378 C 1364.09 -2.96542 4.29953 0
M  V30 14379 H 1365.79 -1.46365 2.61185 0
M  V30 14380 H 1363.33 -0.702705 1.2569 0
M  V30 14381 H 1365.29 -3.78154 1.8595 0
M  V30 14382 H 1364.01 -3.17238 0.776373 0
M  V30 14383 H 1362.67 -2.40567 2.76628 0
M  V30 14384 H 1362.32 -4.6914 1.81429 0
M  V30 14385 H 1362.02 -4.66706 3.57015 0
M  V30 14386 H 1363.54 -5.35262 2.93814 0
M  V30 14387 H 1364.95 -3.63947 4.42963 0
M  V30 14388 H 1363.35 -3.19164 5.08187 0
M  V30 14389 H 1364.42 -1.92745 4.44946 0
M  V30 14390 N 1365.76 -1.381 -0.759346 0
M  V30 14391 C 1366.99 -1.37213 -1.54855 0
M  V30 14392 C 1367.41 0.0395175 -1.88759 0
M  V30 14393 O 1366.76 1.00462 -1.5236 0
M  V30 14394 C 1366.82 -2.22232 -2.85123 0
M  V30 14395 O 1366.54 -3.57897 -2.52668 0
M  V30 14396 C 1368.04 -2.29461 -3.79292 0
M  V30 14397 H 1365.26 -0.469542 -0.479345 0
M  V30 14398 H 1367.8 -1.81604 -0.940216 0
M  V30 14399 H 1365.96 -1.81317 -3.42349 0
M  V30 14400 H 1366.37 -4.02599 -3.36176 0
M  V30 14401 H 1367.84 -2.93246 -4.67665 0
M  V30 14402 H 1368.32 -1.3066 -4.19315 0
M  V30 14403 H 1368.93 -2.70741 -3.27993 0
M  V30 14404 N 1367.24 0.986894 -1.22875 0
M  V30 14405 C 1368.21 2.0597 -1.00544 0
M  V30 14406 C 1369.21 1.60771 0.0303509 0
M  V30 14407 O 1370.4 1.72945 -0.208753 0
M  V30 14408 C 1367.53 3.36911 -0.519962 0
M  V30 14409 H 1368.72 2.27213 -1.9574 0
M  V30 14410 H 1366.27 1.15935 -1.04827 0
M  V30 14411 H 1367.01 3.21355 0.436078 0
M  V30 14412 H 1366.79 3.71054 -1.26732 0
M  V30 14413 H 1368.28 4.15829 -0.384166 0
M  V30 14414 N 1368.72 1.0394 1.18466 0
M  V30 14415 C 1369.68 0.633804 2.20262 0
M  V30 14416 C 1370.68 -0.308136 1.5782 0
M  V30 14417 O 1371.87 -0.0937087 1.73948 0
M  V30 14418 C 1369.01 -0.0709693 3.40826 0
M  V30 14419 H 1370.2 1.53463 2.57661 0
M  V30 14420 H 1367.75 0.831806 1.32328 0
M  V30 14421 H 1368.49 -0.985659 3.08958 0
M  V30 14422 H 1368.27 0.606023 3.87388 0
M  V30 14423 H 1369.76 -0.341298 4.16203 0
M  V30 14424 N 1370.2 -1.34667 0.818693 0
M  V30 14425 C 1371.11 -2.33375 0.239429 0
M  V30 14426 C 1372.12 -1.62428 -0.623957 0
M  V30 14427 O 1373.3 -1.94223 -0.532854 0
M  V30 14428 C 1370.37 -3.41598 -0.59258 0
M  V30 14429 C 1369.43 -4.28301 0.292712 0
M  V30 14430 C 1368.66 -5.31356 -0.499682 0
M  V30 14431 O 1368.88 -5.43426 -1.73334 0
M  V30 14432 O 1367.82 -6.01789 0.115778 0
M  V30 14433 H 1371.64 -2.84738 1.05631 0
M  V30 14434 H 1369.23 -1.37651 0.58074 0
M  V30 14435 H 1371.11 -4.07692 -1.06607 0
M  V30 14436 H 1369.78 -2.92486 -1.38685 0
M  V30 14437 H 1368.69 -3.65145 0.81361 0
M  V30 14438 H 1370.02 -4.80843 1.05123 0
M  V30 14439 N 1371.68 -0.573274 -1.46804 0
M  V30 14440 C 1372.61 0.20305 -2.28299 0
M  V30 14441 C 1373.62 0.864367 -1.37958 0
M  V30 14442 O 1374.81 0.735516 -1.62642 0
M  V30 14443 C 1371.91 1.30633 -3.12711 0
M  V30 14444 C 1371.08 0.738741 -4.31116 0
M  V30 14445 C 1370.14 1.72853 -4.96999 0
M  V30 14446 O 1369.17 1.2683 -5.5489 0
M  V30 14447 N 1370.37 3.06239 -4.93151 0
M  V30 14448 H 1373.14 -0.496086 -2.95566 0
M  V30 14449 H 1370.7 -0.410411 -1.56612 0
M  V30 14450 H 1372.69 1.96755 -3.53652 0
M  V30 14451 H 1371.26 1.90846 -2.47581 0
M  V30 14452 H 1370.48 -0.0996941 -3.94074 0
M  V30 14453 H 1371.77 0.339154 -5.07668 0
M  V30 14454 H 1371.16 3.46262 -4.47347 0
M  V30 14455 H 1369.72 3.67876 -5.38062 0
M  V30 14456 N 1373.15 1.5451 -0.310553 0
M  V30 14457 C 1374.12 2.2254 0.548489 0
M  V30 14458 C 1375.12 1.21456 1.05381 0
M  V30 14459 O 1376.31 1.46126 0.948311 0
M  V30 14460 C 1373.44 2.91927 1.76043 0
M  V30 14461 H 1374.63 2.99865 -0.0460306 0
M  V30 14462 H 1372.19 1.56179 -0.061487 0
M  V30 14463 H 1372.92 2.18706 2.39454 0
M  V30 14464 H 1372.71 3.66038 1.40564 0
M  V30 14465 H 1374.2 3.43797 2.37051 0
M  V30 14466 N 1374.63 0.0384594 1.57553 0
M  V30 14467 C 1375.6 -0.925358 2.0969 0
M  V30 14468 C 1376.6 -1.24811 1.01385 0
M  V30 14469 O 1377.79 -1.1869 1.27508 0
M  V30 14470 C 1374.92 -2.2391 2.57055 0
M  V30 14471 H 1376.11 -0.473633 2.96136 0
M  V30 14472 H 1373.66 -0.209736 1.54886 0
M  V30 14473 H 1374.4 -2.73691 1.73964 0
M  V30 14474 H 1374.18 -2.01793 3.36188 0
M  V30 14475 H 1375.67 -2.92974 2.97583 0
M  V30 14476 N 1376.11 -1.55841 -0.234795 0
M  V30 14477 C 1377.36 -1.78238 -0.961116 0
M  V30 14478 C 1377.69 -0.604919 -1.84854 0
M  V30 14479 O 1376.94 0.411289 -1.91329 0
M  V30 14480 C 1377.24 -3.06262 -1.84223 0
M  V30 14481 C 1376.91 -4.37045 -1.10916 0
M  V30 14482 C 1375.57 -4.72582 -0.906606 0
M  V30 14483 C 1377.92 -5.17844 -0.59049 0
M  V30 14484 C 1375.25 -5.86444 -0.173275 0
M  V30 14485 C 1377.6 -6.32468 0.129433 0
M  V30 14486 C 1376.26 -6.66616 0.343357 0
M  V30 14487 H 1375.53 -0.652219 -0.351697 0
M  V30 14488 H 1378.18 -1.9011 -0.230272 0
M  V30 14489 H 1376.49 -2.89454 -2.64052 0
M  V30 14490 H 1378.18 -3.20791 -2.40612 0
M  V30 14491 H 1374.77 -4.09134 -1.27699 0
M  V30 14492 H 1378.96 -4.90835 -0.734487 0
M  V30 14493 H 1374.21 -6.114 0.00282409 0
M  V30 14494 H 1378.39 -6.94312 0.538905 0
M  V30 14495 H 1376.01 -7.54691 0.913538 0
M  V30 14496 N 1377.59 0.500963 -1.49426 0
M  V30 14497 C 1378.52 1.61114 -1.69011 0
M  V30 14498 C 1379.5 1.61341 -0.538813 0
M  V30 14499 O 1380.69 1.78081 -0.77466 0
M  V30 14500 C 1377.82 2.99598 -1.75666 0
M  V30 14501 C 1376.77 3.14236 -2.90585 0
M  V30 14502 C 1376.1 4.54071 -2.82354 0
M  V30 14503 C 1377.4 2.94258 -4.3152 0
M  V30 14504 H 1379.09 1.44978 -2.61957 0
M  V30 14505 H 1376.64 0.69603 -1.26061 0
M  V30 14506 H 1378.59 3.77163 -1.87953 0
M  V30 14507 H 1377.31 3.16822 -0.793186 0
M  V30 14508 H 1375.97 2.39096 -2.779 0
M  V30 14509 H 1375.62 4.68172 -1.83914 0
M  V30 14510 H 1375.32 4.64806 -3.59485 0
M  V30 14511 H 1376.84 5.33696 -2.96649 0
M  V30 14512 H 1378.26 3.61592 -4.44886 0
M  V30 14513 H 1376.65 3.16464 -5.09873 0
M  V30 14514 H 1377.72 1.90383 -4.45962 0
M  V30 14515 N 1379.07 1.38501 0.752011 0
M  V30 14516 C 1380.34 1.25315 1.50185 0
M  V30 14517 C 1380.72 -0.144762 2.10603 0
M  V30 14518 O 1380.07 -1.15441 1.97194 0
M  V30 14519 C 1380.28 2.36451 2.56694 0
M  V30 14520 C 1381.63 2.74952 3.23553 0
M  V30 14521 O 1382.65 2.35774 2.67 0
M  V30 14522 O 1381.51 3.42517 4.25845 0
M  V30 14523 H 1378.61 0.490139 0.666103 0
M  V30 14524 H 1381.15 1.50333 0.787288 0
M  V30 14525 H 1379.93 3.29978 2.10309 0
M  V30 14526 H 1379.55 2.13006 3.35729 0
M  V30 14527 N 1380.55 -0.980364 1.23396 0
M  V30 14528 C 1381.79 -1.72166 1.06607 0
M  V30 14529 C 1382.12 -1.90405 -0.397029 0
M  V30 14530 O 1381.38 -1.45363 -1.31027 0
M  V30 14531 C 1381.67 -3.12367 1.73671 0
M  V30 14532 C 1381.34 -3.14007 3.2359 0
M  V30 14533 C 1380 -3.14162 3.64494 0
M  V30 14534 C 1382.35 -3.09319 4.19489 0
M  V30 14535 C 1379.68 -3.07345 4.99756 0
M  V30 14536 C 1382.03 -3.04044 5.54743 0
M  V30 14537 C 1380.7 -3.02521 5.9501 0
M  V30 14538 H 1379.97 -0.63 0.390104 0
M  V30 14539 H 1382.62 -1.14727 1.5333 0
M  V30 14540 H 1380.92 -3.73193 1.19308 0
M  V30 14541 H 1382.62 -3.68493 1.58159 0
M  V30 14542 H 1379.21 -3.14644 2.91028 0
M  V30 14543 H 1383.39 -3.08339 3.88897 0
M  V30 14544 H 1378.65 -3.04519 5.30168 0
M  V30 14545 H 1382.82 -2.99374 6.28767 0
M  V30 14546 H 1380.45 -2.96994 6.99785 0
M  V30 14547 N 1382.02 -1.04567 -1.17913 0
M  V30 14548 C 1383.3 -0.666082 -1.8391 0
M  V30 14549 C 1383.68 0.854062 -1.93052 0
M  V30 14550 O 1383.03 1.75752 -1.46026 0
M  V30 14551 C 1383.24 -1.34776 -3.21926 0
M  V30 14552 C 1384.59 -1.48177 -3.97905 0
M  V30 14553 O 1385.61 -1.30627 -3.31384 0
M  V30 14554 O 1384.47 -1.76822 -5.17104 0
M  V30 14555 H 1381.56 -0.233694 -0.793294 0
M  V30 14556 H 1384.11 -1.14487 -1.25263 0
M  V30 14557 H 1382.88 -2.38514 -3.10204 0
M  V30 14558 H 1382.5 -0.857914 -3.88234 0
M  V30 14559 N 1383.5 1.34231 -0.825823 0
M  V30 14560 C 1384.75 1.98196 -0.415276 0
M  V30 14561 C 1385.08 1.65463 1.02236 0
M  V30 14562 O 1384.33 0.919868 1.72734 0
M  V30 14563 C 1384.63 3.52861 -0.56778 0
M  V30 14564 C 1384.3 4.05512 -1.97157 0
M  V30 14565 C 1382.96 4.19602 -2.35557 0
M  V30 14566 C 1385.31 4.33798 -2.88909 0
M  V30 14567 C 1382.64 4.59307 -3.6504 0
M  V30 14568 C 1384.99 4.74949 -4.17859 0
M  V30 14569 C 1383.65 4.87245 -4.56233 0
M  V30 14570 H 1382.92 0.725251 -0.15196 0
M  V30 14571 H 1385.57 1.60126 -1.05033 0
M  V30 14572 H 1383.88 3.9151 0.15065 0
M  V30 14573 H 1385.57 4.00336 -0.230608 0
M  V30 14574 H 1382.16 3.9501 -1.66328 0
M  V30 14575 H 1386.35 4.22448 -2.60483 0
M  V30 14576 H 1381.6 4.67017 -3.94594 0
M  V30 14577 H 1385.78 4.95795 -4.8904 0
M  V30 14578 H 1383.4 5.17768 -5.56615 0
M  V30 14579 N 1384.98 0.581051 1.46498 0
M  V30 14580 C 1386.23 0.0660934 2.02692 0
M  V30 14581 C 1386.56 -1.28985 1.45178 0
M  V30 14582 O 1385.83 -1.84479 0.616247 0
M  V30 14583 C 1386.12 -0.00145411 3.601 0
M  V30 14584 C 1385.97 1.38327 4.28002 0
M  V30 14585 C 1387.29 -0.702914 4.3445 0
M  V30 14586 H 1384.41 0.0254923 0.736559 0
M  V30 14587 H 1387.05 0.74793 1.7466 0
M  V30 14588 H 1385.2 -0.582118 3.84114 0
M  V30 14589 H 1386.87 2.00897 4.15257 0
M  V30 14590 H 1385.11 1.95144 3.87429 0
M  V30 14591 H 1385.79 1.28849 5.36751 0
M  V30 14592 H 1388.26 -0.209641 4.15572 0
M  V30 14593 H 1387.14 -0.719202 5.44168 0
M  V30 14594 H 1387.4 -1.76389 4.05388 0
M  V30 14595 N 1386.46 -1.54343 0.318742 0
M  V30 14596 C 1387.42 -2.22828 -0.536679 0
M  V30 14597 C 1388.42 -1.22013 -1.04735 0
M  V30 14598 O 1389.61 -1.46626 -0.940549 0
M  V30 14599 C 1386.74 -2.92857 -1.74493 0
M  V30 14600 H 1387.94 -2.99836 0.0619325 0
M  V30 14601 H 1385.49 -1.56144 0.0697687 0
M  V30 14602 H 1386.22 -2.19973 -2.3829 0
M  V30 14603 H 1386.01 -3.66779 -1.38621 0
M  V30 14604 H 1387.5 -3.45049 -2.35225 0
M  V30 14605 N 1387.94 -0.0468143 -1.5753 0
M  V30 14606 C 1389.18 0.626699 -1.92138 0
M  V30 14607 C 1389.5 1.7164 -0.925463 0
M  V30 14608 O 1388.77 1.95876 0.0303531 0
M  V30 14609 H 1387.35 0.234479 -0.709245 0
M  V30 14610 H 1390.02 -0.0987892 -1.94649 0
M  V30 14611 H 1389.11 1.06811 -2.93254 0
M  V30 14612 N 1389.41 1.55964 0.226527 0
M  V30 14613 C 1390.66 1.78392 0.94977 0
M  V30 14614 C 1390.98 0.614444 1.85066 0
M  V30 14615 O 1390.25 -0.368894 1.92395 0
M  V30 14616 H 1388.83 0.657962 0.353688 0
M  V30 14617 H 1391.5 1.93422 0.239577 0
M  V30 14618 H 1390.59 2.70343 1.55952 0
M  V30 14619 N 1390.89 -0.493031 1.4969 0
M  V30 14620 C 1392.13 -1.25673 1.61201 0
M  V30 14621 C 1392.5 -1.8971 0.295685 0
M  V30 14622 O 1393.7 -2.67274 0.286046 0
M  V30 14623 C 1391.97 -2.28923 2.74462 0
M  V30 14624 S 1393.53 -3.14525 3.05973 0
M  V30 14625 H 1390.35 -0.426985 0.568511 0
M  V30 14626 H 1392.95 -0.557497 1.87383 0
M  V30 14627 H 1391.65 -1.80421 3.68614 0
M  V30 14628 H 1391.18 -3.03504 2.50298 0
M  V30 14629 H 1393.2 -4.29717 2.48108 0
M  V30 14630 O 1392.41 -1.48347 -0.638391 0
M  V30 14631 H 1393.1 -1.44291 -1.29228 0
M  V30 END ATOM
M  V30 BEGIN BOND
M  V30 END BOND
M  V30 END CTAB
M  END
$$$$
